
     RDKit          3D

 33 37  0  0  0  0  0  0  0  0999 V2000
   -3.6940   -1.8820   -4.1650 C   0  0  0  0  0  0  0  0  0  0  0  0
   -3.4190   -1.2700   -2.8310 C   0  0  0  0  0  0  0  0  0  0  0  0
   -2.1150   -1.1450   -2.3990 C   0  0  0  0  0  0  0  0  0  0  0  0
   -1.8500   -0.5790   -1.1620 C   0  0  0  0  0  0  0  0  0  0  0  0
   -0.5490   -0.4450   -0.7120 O   0  0  0  0  0  0  0  0  0  0  0  0
    0.2300    0.6730   -0.9540 C   0  0  0  0  0  0  0  0  0  0  0  0
   -0.2970    1.5980   -1.6190 O   0  0  0  0  0  0  0  0  0  0  0  0
    1.5620    0.8220   -0.4990 N   0  0  0  0  0  0  0  0  0  0  0  0
    2.4030    1.9750   -0.7340 C   0  0  0  0  0  0  0  0  0  0  0  0
    3.5790    1.8060    0.2210 C   0  0  2  0  0  0  0  0  0  0  0  0
    4.6760    2.4700   -0.2750 O   0  0  0  0  0  0  0  0  0  0  0  0
    3.7460    0.2910    0.2010 C   0  0  1  0  0  0  0  0  0  0  0  0
    4.5040   -0.1610    1.3280 N   0  0  0  0  0  0  0  0  0  0  0  0
    5.5840   -1.0260    0.8960 C   0  0  0  0  0  0  0  0  0  0  0  0
    6.6530   -0.2550    0.1530 C   0  0  2  0  0  0  0  0  0  0  0  0
    7.6760   -1.2180   -0.2270 N   0  0  0  0  0  0  0  0  0  0  0  0
    8.6870   -1.1940    0.7840 C   0  0  0  0  0  0  0  0  0  0  0  0
    8.6690    0.2260    1.2800 C   0  0  0  0  0  0  0  0  0  0  0  0
    9.6230    0.8150    1.8160 O   0  0  0  0  0  0  0  0  0  0  0  0
    7.3480    0.6810    0.9860 N   0  0  0  0  0  0  0  0  0  0  0  0
    2.2890   -0.1650    0.2760 C   0  0  0  0  0  0  0  0  0  0  0  0
   -2.8870   -0.1480   -0.3780 C   0  0  0  0  0  0  0  0  0  0  0  0
   -2.5780    0.3990    0.8390 C   0  0  0  0  0  0  0  0  0  0  0  0
   -3.6000    0.8390    1.6620 C   0  0  0  0  0  0  0  0  0  0  0  0
   -4.9150    0.7450    1.2940 C   0  0  0  0  0  0  0  0  0  0  0  0
   -5.1860    0.1760    0.0340 C   0  0  0  0  0  0  0  0  0  0  0  0
   -4.2230   -0.2760   -0.8180 C   0  0  0  0  0  0  0  0  0  0  0  0
   -4.4780   -0.8390   -2.0480 C   0  0  0  0  0  0  0  0  0  0  0  0
   -6.5440    0.0340   -0.4780 C   0  0  0  0  0  0  0  0  0  0  0  0
   -7.3130   -0.7550    0.5660 C   0  0  0  0  0  0  0  0  0  0  0  0
   -7.9500    0.1970    1.5440 C   0  0  0  0  0  0  0  0  0  0  0  0
   -7.0710    0.6730    2.6420 C   0  0  0  0  0  0  0  0  0  0  0  0
   -5.8360    1.2280    2.2260 O   0  0  0  0  0  0  0  0  0  0  0  0
  1  2  1  0
  2  3  2  0
  2 28  1  0
  3  4  1  0
  4  5  1  0
  4 22  2  0
  5  6  1  0
  6  7  2  0
  6  8  1  0
  8  9  1  0
  8 21  1  0
  9 10  1  0
 10 11  1  6
 10 12  1  0
 12 13  1  1
 12 21  1  0
 13 14  1  0
 15 14  1  1
 15 16  1  0
 15 20  1  0
 16 17  1  0
 17 18  1  0
 18 19  2  0
 18 20  1  0
 22 23  1  0
 22 27  1  0
 23 24  2  0
 24 25  1  0
 25 26  2  0
 25 33  1  0
 26 27  1  0
 26 29  1  0
 27 28  2  0
 29 30  1  0
 30 31  1  0
 31 32  1  0
 32 33  1  0
M  CHG  1  13   1
M  END
