
     RDKit          3D

 32 36  0  0  0  0  0  0  0  0999 V2000
    7.1900   -0.9210    1.2610 C   0  0  0  0  0  0  0  0  0  0  0  0
    6.5950   -0.0280    0.5430 N   0  0  0  0  0  0  0  0  0  0  0  0
    6.1100    1.1020    1.2020 N   0  0  0  0  0  0  0  0  0  0  0  0
    6.9300    1.8010    2.1210 C   0  0  0  0  0  0  0  0  0  0  0  0
    8.0980    1.3850    2.3290 O   0  0  0  0  0  0  0  0  0  0  0  0
    4.7530    1.5980    0.9700 C   0  0  2  0  0  0  0  0  0  0  0  0
    3.8050    0.4940    1.4130 C   0  0  0  0  0  0  0  0  0  0  0  0
    2.4020    0.8090    0.8890 C   0  0  0  0  0  0  0  0  0  0  0  0
    2.3190    0.6910   -0.5390 N   0  0  2  0  0  0  0  0  0  0  0  0
    1.7080   -0.5150   -0.9910 C   0  0  0  0  0  0  0  0  0  0  0  0
    0.2360   -0.5640   -0.8250 C   0  0  0  0  0  0  0  0  0  0  0  0
   -0.5110   -1.6440   -1.2480 C   0  0  0  0  0  0  0  0  0  0  0  0
   -1.8980   -1.7020   -1.0970 C   0  0  0  0  0  0  0  0  0  0  0  0
   -2.6260   -2.8800   -1.5690 C   0  0  0  0  0  0  0  0  0  0  0  0
   -3.9030   -3.1790   -1.5490 C   0  0  0  0  0  0  0  0  0  0  0  0
   -4.1690   -4.4930   -2.1470 C   0  0  0  0  0  0  0  0  0  0  0  0
   -5.4810   -5.1740   -2.3050 C   0  0  0  0  0  0  0  0  0  0  0  0
   -3.0330   -4.9390   -2.5070 N   0  0  0  0  0  0  0  0  0  0  0  0
   -1.9540   -4.0600   -2.2230 C   0  0  0  0  0  0  0  0  0  0  0  0
   -2.5010   -0.6370   -0.5070 C   0  0  0  0  0  0  0  0  0  0  0  0
   -3.8310   -0.6170   -0.3250 N   0  0  0  0  0  0  0  0  0  0  0  0
   -4.4260    0.4320    0.2560 C   0  0  0  0  0  0  0  0  0  0  0  0
   -5.9010    0.4210    0.4410 C   0  0  0  0  0  0  0  0  0  0  0  0
   -3.7510    1.5460    0.7050 C   0  0  0  0  0  0  0  0  0  0  0  0
   -2.3830    1.5670    0.5380 C   0  0  0  0  0  0  0  0  0  0  0  0
   -1.7840    0.4820   -0.0610 C   0  0  0  0  0  0  0  0  0  0  0  0
   -0.4130    0.4960   -0.2310 C   0  0  0  0  0  0  0  0  0  0  0  0
   -1.9200    2.8620    1.1010 C   0  0  0  0  0  0  0  0  0  0  0  0
   -2.9260    3.0950    2.1430 N   0  0  0  0  0  0  0  0  0  0  0  0
   -4.1530    2.8310    1.3740 C   0  0  0  0  0  0  0  0  0  0  0  0
    3.6680    0.7120   -1.0850 C   0  0  0  0  0  0  0  0  0  0  0  0
    4.4810    1.8410   -0.4920 C   0  0  0  0  0  0  0  0  0  0  0  0
  1  2  2  0
  2  3  1  0
  3  4  1  0
  6  3  1  6
  4  5  2  0
  6  7  1  0
  6 32  1  0
  7  8  1  0
  8  9  1  0
  9 10  1  1
  9 31  1  0
 10 11  1  0
 11 12  2  0
 11 27  1  0
 12 13  1  0
 13 14  1  0
 13 20  2  0
 14 15  2  0
 14 19  1  0
 15 16  1  0
 16 17  1  0
 16 18  2  0
 18 19  1  0
 20 21  1  0
 20 26  1  0
 21 22  2  0
 22 23  1  0
 22 24  1  0
 24 25  2  0
 24 30  1  0
 25 26  1  0
 25 28  1  0
 26 27  2  0
 28 29  1  0
 29 30  1  0
 31 32  1  0
M  CHG  2   9   1  29   1
M  END
