
     RDKit          3D

 32 36  0  0  0  0  0  0  0  0999 V2000
    9.8530   -1.0420    0.5910 C   0  0  0  0  0  0  0  0  0  0  0  0
    8.3900   -0.7350    0.4280 C   0  0  0  0  0  0  0  0  0  0  0  0
    7.4350   -1.1990    1.3090 C   0  0  0  0  0  0  0  0  0  0  0  0
    6.0910   -0.9030    1.1380 C   0  0  0  0  0  0  0  0  0  0  0  0
    5.0630   -1.3990    2.0820 C   0  0  0  0  0  0  0  0  0  0  0  0
    5.6650   -0.1310    0.0770 C   0  0  0  0  0  0  0  0  0  0  0  0
    4.2520    0.1860   -0.1110 C   0  0  0  0  0  0  0  0  0  0  0  0
    3.7380    0.9260   -1.1060 N   0  0  0  0  0  0  0  0  0  0  0  0
    2.3770    1.0190   -0.9730 C   0  0  0  0  0  0  0  0  0  0  0  0
    1.4650    1.7630   -1.8680 C   0  0  0  0  0  0  0  0  0  0  0  0
    0.0400    1.5850   -1.4330 C   0  0  0  0  0  0  0  0  0  0  0  0
   -0.3470    0.1500   -1.5170 C   0  0  0  0  0  0  0  0  0  0  0  0
   -1.7400   -0.0650   -1.0980 N   0  0  2  0  0  0  0  0  0  0  0  0
   -2.6400   -0.0070   -2.2020 C   0  0  0  0  0  0  0  0  0  0  0  0
   -3.9210    0.7210   -1.9680 C   0  0  0  0  0  0  0  0  0  0  0  0
   -4.3990    0.4080   -0.5990 C   0  0  0  0  0  0  0  0  0  0  0  0
   -5.6570    0.0900   -0.2750 N   0  0  0  0  0  0  0  0  0  0  0  0
   -5.9740   -0.1760    1.0160 C   0  0  0  0  0  0  0  0  0  0  0  0
   -7.3820   -0.5260    1.3330 C   0  0  0  0  0  0  0  0  0  0  0  0
   -7.8730   -0.8120    2.5180 C   0  0  0  0  0  0  0  0  0  0  0  0
   -9.3130   -1.1050    2.4160 C   0  0  0  0  0  0  0  0  0  0  0  0
   -9.6070   -0.9490    0.9750 C   0  0  0  0  0  0  0  0  0  0  0  0
   -8.4760   -0.6160    0.3790 C   0  0  0  0  0  0  0  0  0  0  0  0
   -5.0760   -0.1370    2.0150 N   0  0  0  0  0  0  0  0  0  0  0  0
   -3.7950    0.1800    1.7310 C   0  0  0  0  0  0  0  0  0  0  0  0
   -3.4660    0.4520    0.4170 C   0  0  0  0  0  0  0  0  0  0  0  0
   -2.0790    0.8100    0.0070 C   0  0  0  0  0  0  0  0  0  0  0  0
    2.1250    0.3070    0.1330 N   0  0  0  0  0  0  0  0  0  0  0  0
    3.2290   -0.1710    0.6230 O   0  0  0  0  0  0  0  0  0  0  0  0
    6.6400    0.3190   -0.7870 C   0  0  0  0  0  0  0  0  0  0  0  0
    6.2160    1.1600   -1.9510 C   0  0  0  0  0  0  0  0  0  0  0  0
    7.9480    0.0150   -0.5970 N   0  0  0  0  0  0  0  0  0  0  0  0
  1  2  1  0
  2  3  2  0
  2 32  1  0
  3  4  1  0
  4  5  1  0
  4  6  2  0
  6  7  1  0
  6 30  1  0
  7  8  2  0
  7 29  1  0
  8  9  1  0
  9 10  1  0
  9 28  2  0
 10 11  1  0
 11 12  1  0
 13 12  1  6
 13 14  1  0
 13 27  1  0
 14 15  1  0
 15 16  1  0
 16 17  2  0
 16 26  1  0
 17 18  1  0
 18 19  1  0
 18 24  2  0
 19 20  2  0
 19 23  1  0
 20 21  1  0
 21 22  1  0
 22 23  2  0
 24 25  1  0
 25 26  2  0
 26 27  1  0
 28 29  1  0
 30 31  1  0
 30 32  2  0
M  CHG  2  13   1  24   1
M  END
