
     RDKit          3D

 33 36  0  0  0  0  0  0  0  0999 V2000
    2.1150    1.6080    2.0760 C   0  0  0  0  0  0  0  0  0  0  0  0
    2.5870    1.5160    0.6460 C   0  0  1  0  0  0  0  0  0  0  0  0
    4.0880    1.7640    0.6810 C   0  0  0  0  0  0  0  0  0  0  0  0
    4.8080    0.7670    1.5040 C   0  0  0  0  0  0  0  0  0  0  0  0
    5.0030   -0.3960    1.0630 O   0  0  0  0  0  0  0  0  0  0  0  0
    5.3010    1.0370    2.7720 O   0  0  0  0  0  0  0  0  0  0  0  0
    2.3050    0.2850    0.0610 O   0  0  0  0  0  0  0  0  0  0  0  0
    1.5610    0.4360   -1.1090 C   0  0  1  0  0  0  0  0  0  0  0  0
    2.6020    0.1220   -2.2280 C   0  0  0  0  0  0  0  0  0  0  0  0
    2.2370    0.7880   -3.5160 C   0  0  0  0  0  0  0  0  0  0  0  0
    1.6540   -0.2830   -4.4230 C   0  0  0  0  0  0  0  0  0  0  0  0
    0.8020   -1.1910   -3.6770 N   0  0  0  0  0  0  0  0  0  0  0  0
    0.0200   -0.4300   -2.7640 C   0  0  0  0  0  0  0  0  0  0  0  0
    0.4840   -0.5620   -1.3020 C   0  0  2  0  0  0  0  0  0  0  0  0
   -0.6510   -0.5210   -0.4550 N   0  0  2  0  0  0  0  0  0  0  0  0
   -0.8830    0.7240    0.2430 C   0  0  0  0  0  0  0  0  0  0  0  0
   -2.3590    1.0180    0.2500 C   0  0  0  0  0  0  0  0  0  0  0  0
   -3.3340    0.2800   -0.2800 N   0  0  0  0  0  0  0  0  0  0  0  0
   -4.4490    0.8870   -0.0490 O   0  0  0  0  0  0  0  0  0  0  0  0
   -4.3010    2.0060    0.6120 C   0  0  0  0  0  0  0  0  0  0  0  0
   -5.1380    2.9910    1.0900 C   0  0  0  0  0  0  0  0  0  0  0  0
   -4.6890    4.0990    1.7760 C   0  0  0  0  0  0  0  0  0  0  0  0
   -5.5810    5.0800    2.2460 O   0  0  0  0  0  0  0  0  0  0  0  0
   -3.3280    4.2120    1.9870 C   0  0  0  0  0  0  0  0  0  0  0  0
   -2.4660    3.2390    1.5190 C   0  0  0  0  0  0  0  0  0  0  0  0
   -2.9340    2.1240    0.8260 C   0  0  0  0  0  0  0  0  0  0  0  0
   -0.7620   -1.6620    0.4330 C   0  0  2  0  0  0  0  0  0  0  0  0
    0.3610   -1.8340    1.3940 C   0  0  0  0  0  0  0  0  0  0  0  0
   -0.0890   -2.9320    2.3690 C   0  0  0  0  0  0  0  0  0  0  0  0
   -0.3380   -4.2110    1.6580 C   0  0  0  0  0  0  0  0  0  0  0  0
   -1.2830   -4.1000    0.4930 C   0  0  1  0  0  0  0  0  0  0  0  0
   -2.6740   -4.2110    0.9050 N   0  0  0  0  0  0  0  0  0  0  0  0
   -1.0350   -2.9020   -0.3700 C   0  0  0  0  0  0  0  0  0  0  0  0
  2  1  1  1
  2  3  1  0
  2  7  1  0
  3  4  1  0
  4  5  2  0
  4  6  1  0
  8  7  1  1
  8  9  1  0
  8 14  1  0
  9 10  1  0
 10 11  1  0
 11 12  1  0
 12 13  1  0
 14 13  1  6
 14 15  1  0
 15 16  1  1
 15 27  1  0
 16 17  1  0
 17 18  2  0
 17 26  1  0
 18 19  1  0
 19 20  1  0
 20 21  2  0
 20 26  1  0
 21 22  1  0
 22 23  1  0
 22 24  2  0
 24 25  1  0
 25 26  2  0
 27 28  1  6
 27 33  1  0
 28 29  1  0
 29 30  1  0
 30 31  1  0
 31 32  1  1
 31 33  1  0
M  CHG  2  12   1  15   1
M  END
