
     RDKit          3D

 22 23  0  0  0  0  0  0  0  0999 V2000
    0.7860    4.8950    0.8800 C   0  0  0  0  0  0  0  0  0  0  0  0
    0.5370    3.4580    0.6110 C   0  0  0  0  0  0  0  0  0  0  0  0
    0.7390    2.9140   -0.6210 C   0  0  0  0  0  0  0  0  0  0  0  0
    0.5180    1.5600   -0.9260 C   0  0  0  0  0  0  0  0  0  0  0  0
    0.7780    1.1410   -2.2750 N   0  0  0  0  0  0  0  0  0  0  0  0
    0.0730    0.7360    0.0700 C   0  0  0  0  0  0  0  0  0  0  0  0
   -0.1900   -0.6540   -0.1040 C   0  0  0  0  0  0  0  0  0  0  0  0
   -0.0650   -1.3620   -1.1840 C   0  0  0  0  0  0  0  0  0  0  0  0
   -0.3890   -2.8080   -1.1760 C   0  0  0  0  0  0  0  0  0  0  0  0
   -0.7810   -3.3340   -0.1230 O   0  0  0  0  0  0  0  0  0  0  0  0
   -0.2470   -3.5540   -2.3530 N   0  0  0  0  0  0  0  0  0  0  0  0
   -0.5320   -4.9780   -2.4600 C   0  0  0  0  0  0  0  0  0  0  0  0
    0.3040   -5.8450   -1.5840 C   0  0  1  0  0  0  0  0  0  0  0  0
    1.6580   -5.7300   -1.8400 F   0  0  0  0  0  0  0  0  0  0  0  0
    0.0530   -5.7150   -0.2420 F   0  0  0  0  0  0  0  0  0  0  0  0
   -0.1240    1.3300    1.3260 C   0  0  0  0  0  0  0  0  0  0  0  0
    0.0820    2.6280    1.6470 C   0  0  0  0  0  0  0  0  0  0  0  0
   -0.1890    3.0070    3.0340 C   0  0  0  0  0  0  0  0  0  0  0  0
   -1.1650    2.0700    3.6560 C   0  0  0  0  0  0  0  0  0  0  0  0
   -0.6990    0.5490    2.8180 S   0  0  2  0  0  0  0  0  0  0  0  0
    0.4690   -0.1030    3.4470 O   0  0  0  0  0  0  0  0  0  0  0  0
   -1.8590   -0.3320    2.5660 O   0  0  0  0  0  0  0  0  0  0  0  0
  1  2  1  0
  2  3  2  0
  2 17  1  0
  3  4  1  0
  4  5  1  0
  4  6  2  0
  6  7  1  0
  6 16  1  0
  7  8  2  3
  8  9  1  0
  9 10  2  0
  9 11  1  0
 11 12  1  0
 12 13  1  0
 13 14  1  1
 13 15  1  0
 16 17  2  0
 16 20  1  0
 17 18  1  0
 18 19  1  0
 20 19  1  1
 20 21  2  0
 20 22  2  0
M  END
