
     RDKit          3D

 10 10  0  0  0  0  0  0  0  0999 V2000
   -2.9660   -0.0970   -0.8850 C   0  0  0  0  0  0  0  0  0  0  0  0
   -1.6700    0.2370   -0.1920 C   0  0  1  0  0  0  0  0  0  0  0  0
   -1.7030   -0.2960    1.2100 C   0  0  0  0  0  0  0  0  0  0  0  0
   -0.5320   -0.3140   -1.0020 C   0  0  0  0  0  0  0  0  0  0  0  0
    0.7870   -0.0530   -0.4290 C   0  0  0  0  0  0  0  0  0  0  0  0
    1.4990    1.0810   -0.7440 C   0  0  0  0  0  0  0  0  0  0  0  0
    2.7390    1.2700   -0.1710 C   0  0  0  0  0  0  0  0  0  0  0  0
    3.3200    0.3910    0.7070 C   0  0  0  0  0  0  0  0  0  0  0  0
    2.5900   -0.7390    1.0100 C   0  0  0  0  0  0  0  0  0  0  0  0
    1.3480   -0.9530    0.4510 C   0  0  0  0  0  0  0  0  0  0  0  0
  2  1  1  6
  2  3  1  0
  2  4  1  0
  4  5  1  0
  5  6  2  0
  5 10  1  0
  6  7  1  0
  7  8  2  0
  8  9  1  0
  9 10  2  0
M  END
