
     RDKit          3D

 21 22  0  0  0  0  0  0  0  0999 V2000
    1.7080    2.5480    1.4740 C   0  0  0  0  0  0  0  0  0  0  0  0
    0.8410    1.5640    0.7790 C   0  0  0  0  0  0  0  0  0  0  0  0
   -0.4340    1.3220    1.2100 N   0  0  0  0  0  0  0  0  0  0  0  0
   -0.9960    0.4000    0.4120 C   0  0  0  0  0  0  0  0  0  0  0  0
   -2.3470   -0.1420    0.5230 C   0  0  0  0  0  0  0  0  0  0  0  0
   -3.0900    0.2580    1.4280 O   0  0  0  0  0  0  0  0  0  0  0  0
   -2.8000   -1.1030   -0.3820 O   0  0  0  0  0  0  0  0  0  0  0  0
   -4.0960   -1.6220   -0.2750 C   0  0  0  0  0  0  0  0  0  0  0  0
   -5.0960   -0.5460   -0.4070 C   0  0  0  0  0  0  0  0  0  0  0  0
   -6.4670   -0.8480   -0.3260 N   0  0  0  0  0  0  0  0  0  0  0  0
   -4.7390    0.6340   -0.5900 O   0  0  0  0  0  0  0  0  0  0  0  0
   -0.0550    0.0530   -0.5430 C   0  0  0  0  0  0  0  0  0  0  0  0
   -0.3150   -0.9560   -1.6190 C   0  0  0  0  0  0  0  0  0  0  0  0
    1.0940    0.7760   -0.3200 C   0  0  0  0  0  0  0  0  0  0  0  0
    2.3470    0.7370   -1.0730 C   0  0  0  0  0  0  0  0  0  0  0  0
    3.4290   -0.0120   -0.4090 C   0  0  0  0  0  0  0  0  0  0  0  0
    4.4030    0.3720    0.4560 C   0  0  0  0  0  0  0  0  0  0  0  0
    5.2780   -0.5080    0.9230 C   0  0  0  0  0  0  0  0  0  0  0  0
    5.2250   -1.8320    0.5460 C   0  0  0  0  0  0  0  0  0  0  0  0
    5.9040   -2.8980    0.8110 F   0  0  0  0  0  0  0  0  0  0  0  0
    3.7630   -1.7470   -0.5840 S   0  0  0  0  0  0  0  0  0  0  0  0
  1  2  1  0
  2  3  1  0
  2 14  2  0
  3  4  1  0
  4  5  1  0
  4 12  2  0
  5  6  2  0
  5  7  1  0
  7  8  1  0
  8  9  1  0
  9 10  1  0
  9 11  2  0
 12 13  1  0
 12 14  1  0
 14 15  1  0
 15 16  1  0
 16 17  2  0
 16 21  1  0
 17 18  1  0
 18 19  2  0
 19 20  1  0
 19 21  1  0
M  END
