
     RDKit          3D

  9  9  0  0  0  0  0  0  0  0999 V2000
    3.0790   -0.2540    0.5560 C   0  0  0  0  0  0  0  0  0  0  0  0
    1.6790    0.1680    0.2510 C   0  0  0  0  0  0  0  0  0  0  0  0
    1.3690    1.3750    0.3640 O   0  0  0  0  0  0  0  0  0  0  0  0
    0.6890   -0.6880   -0.1530 O   0  0  0  0  0  0  0  0  0  0  0  0
   -0.6140   -0.3000   -0.4380 C   0  0  0  0  0  0  0  0  0  0  0  0
   -1.6010   -0.2770    0.5270 C   0  0  0  0  0  0  0  0  0  0  0  0
   -2.7950    0.1500   -0.0460 C   0  0  0  0  0  0  0  0  0  0  0  0
   -2.4950    0.3720   -1.3400 N   0  0  0  0  0  0  0  0  0  0  0  0
   -1.1990    0.1030   -1.5650 N   0  0  0  0  0  0  0  0  0  0  0  0
  1  2  1  0
  2  3  2  0
  2  4  1  0
  4  5  1  0
  5  6  1  0
  5  9  2  0
  6  7  2  0
  7  8  1  0
  8  9  1  0
M  END
