
     RDKit          3D

  9  9  0  0  0  0  0  0  0  0999 V2000
   -1.7030   -0.8590   -0.2430 C   0  0  0  0  0  0  0  0  0  0  0  0
   -0.8100    0.2990    0.0150 C   0  0  0  0  0  0  0  0  0  0  0  0
   -1.1880    1.5650    0.2650 N   0  0  0  0  0  0  0  0  0  0  0  0
   -0.1150    2.3140    0.4440 N   0  0  0  0  0  0  0  0  0  0  0  0
    0.9660    1.5450    0.3130 C   0  0  0  0  0  0  0  0  0  0  0  0
    0.5670    0.2580    0.0400 C   0  0  0  0  0  0  0  0  0  0  0  0
    1.3920   -0.9180   -0.1810 C   0  0  0  0  0  0  0  0  0  0  0  0
    0.8410   -2.0210   -0.4200 O   0  0  0  0  0  0  0  0  0  0  0  0
    2.7770   -0.8930   -0.1420 O   0  0  0  0  0  0  0  0  0  0  0  0
  1  2  1  0
  2  3  1  0
  2  6  2  0
  3  4  1  0
  4  5  2  0
  5  6  1  0
  6  7  1  0
  7  8  2  0
  7  9  1  0
M  END
