
     RDKit          3D

 22 23  0  0  0  0  0  0  0  0999 V2000
   -5.1960   -1.0390    0.1870 C   0  0  0  0  0  0  0  0  0  0  0  0
   -4.0470   -0.4440    0.7660 O   0  0  0  0  0  0  0  0  0  0  0  0
   -3.0140    0.0150   -0.0090 C   0  0  0  0  0  0  0  0  0  0  0  0
   -3.0540   -0.0830   -1.3760 C   0  0  0  0  0  0  0  0  0  0  0  0
   -2.0270    0.3710   -2.1910 C   0  0  0  0  0  0  0  0  0  0  0  0
   -2.0800    0.2640   -3.6010 N   0  0  0  0  0  0  0  0  0  0  0  0
   -0.9340    0.9400   -1.5800 C   0  0  0  0  0  0  0  0  0  0  0  0
   -0.9000    1.0360   -0.2110 C   0  0  0  0  0  0  0  0  0  0  0  0
    0.2610    1.6390    0.4140 C   0  0  0  0  0  0  0  0  0  0  0  0
    1.4600    1.0970    0.3860 C   0  0  0  0  0  0  0  0  0  0  0  0
    2.9340    1.7870    1.1370 S   0  0  0  0  0  0  0  0  0  0  0  0
    4.0210    0.4440    0.6180 C   0  0  0  0  0  0  0  0  0  0  0  0
    5.3060    0.3820    0.8880 C   0  0  0  0  0  0  0  0  0  0  0  0
    6.0490   -0.7920    0.3850 C   0  0  2  0  0  0  0  0  0  0  0  0
    5.4130   -1.9280    0.7970 F   0  0  0  0  0  0  0  0  0  0  0  0
    7.3800   -0.7650    0.7500 F   0  0  0  0  0  0  0  0  0  0  0  0
    3.2080   -0.3330   -0.0250 N   0  0  0  0  0  0  0  0  0  0  0  0
    1.9400   -0.0630   -0.1710 C   0  0  0  0  0  0  0  0  0  0  0  0
    1.0890   -0.8120   -0.8070 O   0  0  0  0  0  0  0  0  0  0  0  0
   -1.9190    0.5850    0.6010 C   0  0  0  0  0  0  0  0  0  0  0  0
   -1.8600    0.6940    1.9840 O   0  0  0  0  0  0  0  0  0  0  0  0
   -1.3220   -0.2780    2.8310 C   0  0  0  0  0  0  0  0  0  0  0  0
  1  2  1  0
  2  3  1  0
  3  4  2  0
  3 20  1  0
  4  5  1  0
  5  6  1  0
  5  7  2  0
  7  8  1  0
  8  9  1  0
  8 20  2  0
  9 10  2  3
 10 11  1  0
 10 18  1  0
 11 12  1  0
 12 13  2  3
 12 17  1  0
 13 14  1  0
 14 15  1  1
 14 16  1  0
 17 18  1  0
 18 19  2  0
 20 21  1  0
 21 22  1  0
M  END
