
     RDKit          3D

  9  9  0  0  0  0  0  0  0  0999 V2000
    3.1290   -0.1750    0.2560 C   0  0  0  0  0  0  0  0  0  0  0  0
    1.6510   -0.1540    0.4190 C   0  0  0  0  0  0  0  0  0  0  0  0
    1.1450   -0.5760    1.4900 O   0  0  0  0  0  0  0  0  0  0  0  0
    0.7780    0.3050   -0.5400 O   0  0  0  0  0  0  0  0  0  0  0  0
   -0.6060    0.3230   -0.3840 C   0  0  0  0  0  0  0  0  0  0  0  0
   -1.3130    1.3480    0.1310 N   0  0  0  0  0  0  0  0  0  0  0  0
   -2.6260    1.0610    0.1490 C   0  0  0  0  0  0  0  0  0  0  0  0
   -2.7550   -0.2100   -0.3820 C   0  0  0  0  0  0  0  0  0  0  0  0
   -1.5100   -0.6200   -0.6920 N   0  0  0  0  0  0  0  0  0  0  0  0
  1  2  1  0
  2  3  2  0
  2  4  1  0
  4  5  1  0
  5  6  2  0
  5  9  1  0
  6  7  1  0
  7  8  2  0
  8  9  1  0
M  END
