
     RDKit          3D

  9  9  0  0  0  0  0  0  0  0999 V2000
    3.1420    0.6220    0.0640 O   0  0  0  0  0  0  0  0  0  0  0  0
    2.3700   -0.3390    0.0430 C   0  0  0  0  0  0  0  0  0  0  0  0
    0.9180   -0.2430    0.0160 C   0  0  0  0  0  0  0  0  0  0  0  0
    0.2870    0.9830    0.0120 C   0  0  0  0  0  0  0  0  0  0  0  0
   -1.0670    1.0930   -0.0130 N   0  0  0  0  0  0  0  0  0  0  0  0
   -1.8390   -0.0050   -0.0350 C   0  0  0  0  0  0  0  0  0  0  0  0
   -3.0990    0.0330   -0.0590 O   0  0  0  0  0  0  0  0  0  0  0  0
   -1.2020   -1.2430   -0.0320 C   0  0  0  0  0  0  0  0  0  0  0  0
    0.1470   -1.3440   -0.0070 N   0  0  0  0  0  0  0  0  0  0  0  0
  1  2  2  0
  2  3  1  0
  3  4  2  0
  3  9  1  0
  4  5  1  0
  5  6  1  0
  6  7  2  0
  6  8  1  0
  8  9  2  0
M  END
