
     RDKit          3D

 28 30  0  0  0  0  0  0  0  0999 V2000
    0.6560   -4.4260   -1.5010 C   0  0  0  0  0  0  0  0  0  0  0  0
    0.6010   -3.4670   -0.6360 O   0  0  0  0  0  0  0  0  0  0  0  0
    0.7210   -2.5660    0.2880 C   0  0  0  0  0  0  0  0  0  0  0  0
    1.8660   -2.5180    1.0960 C   0  0  0  0  0  0  0  0  0  0  0  0
    2.0070   -1.5780    2.0720 C   0  0  0  0  0  0  0  0  0  0  0  0
    3.1950   -1.5850    2.8630 N   0  0  0  0  0  0  0  0  0  0  0  0
    4.7280   -1.7100    2.0850 S   0  0  1  0  0  0  0  0  0  0  0  0
    5.7830   -1.6540    3.1830 O   0  0  0  0  0  0  0  0  0  0  0  0
    4.8860   -2.9730    1.3010 O   0  0  0  0  0  0  0  0  0  0  0  0
    4.9760   -0.3320    1.0150 C   0  0  0  0  0  0  0  0  0  0  0  0
    5.5460    0.8040    1.3770 C   0  0  0  0  0  0  0  0  0  0  0  0
    5.6000    1.7470    0.2540 C   0  0  0  0  0  0  0  0  0  0  0  0
    4.9700    0.9860   -0.8360 C   0  0  0  0  0  0  0  0  0  0  0  0
    4.6150   -0.1970   -0.4020 C   0  0  0  0  0  0  0  0  0  0  0  0
    3.9570   -1.2250   -1.2240 C   0  0  0  0  0  0  0  0  0  0  0  0
    1.0100   -0.6590    2.2690 C   0  0  0  0  0  0  0  0  0  0  0  0
   -0.1700   -0.6370    1.5040 C   0  0  0  0  0  0  0  0  0  0  0  0
   -1.0790    0.3320    1.8100 O   0  0  0  0  0  0  0  0  0  0  0  0
   -2.3070    0.6560    1.2620 C   0  0  0  0  0  0  0  0  0  0  0  0
   -2.2900    1.1190   -0.1570 C   0  0  0  0  0  0  0  0  0  0  0  0
   -3.6270    1.4430   -0.7140 C   0  0  0  0  0  0  0  0  0  0  0  0
   -4.1320    0.6290   -1.5760 N   0  0  0  0  0  0  0  0  0  0  0  0
   -5.3770    0.7180   -2.2420 C   0  0  0  0  0  0  0  0  0  0  0  0
   -6.1940    1.9200   -1.9240 C   0  0  0  0  0  0  0  0  0  0  0  0
   -5.4990    3.0000   -1.1990 C   0  0  0  0  0  0  0  0  0  0  0  0
   -4.3870    2.5800   -0.3620 N   0  0  0  0  0  0  0  0  0  0  0  0
   -4.0310    3.3170    0.8360 C   0  0  0  0  0  0  0  0  0  0  0  0
   -0.2610   -1.6000    0.5400 C   0  0  0  0  0  0  0  0  0  0  0  0
  1  2  1  0
  2  3  1  0
  3  4  2  0
  3 28  1  0
  4  5  1  0
  5  6  1  0
  5 16  2  0
  7  6  1  1
  7  8  2  0
  7  9  2  0
  7 10  1  0
 10 11  2  0
 10 14  1  0
 11 12  1  0
 12 13  1  0
 13 14  2  0
 14 15  1  0
 16 17  1  0
 17 18  1  0
 17 28  2  0
 18 19  1  0
 19 20  1  0
 20 21  1  0
 21 22  2  0
 21 26  1  0
 22 23  1  0
 23 24  1  0
 24 25  1  0
 25 26  1  0
 26 27  1  0
M  END
