
     RDKit          3D

 24 25  0  0  0  0  0  0  0  0999 V2000
   -5.1840    1.2240    0.1070 C   0  0  0  0  0  0  0  0  0  0  0  0
   -5.5870    1.9150   -0.9160 C   0  0  0  0  0  0  0  0  0  0  0  0
   -5.0500    1.7900   -2.2850 C   0  0  0  0  0  0  0  0  0  0  0  0
   -5.4690    2.4840   -3.3220 C   0  0  0  0  0  0  0  0  0  0  0  0
   -4.7910    2.1570   -4.4890 O   0  0  0  0  0  0  0  0  0  0  0  0
   -3.8680    1.1860   -4.2180 C   0  0  0  0  0  0  0  0  0  0  0  0
   -3.0350    0.5700   -4.9410 O   0  0  0  0  0  0  0  0  0  0  0  0
   -3.9730    0.8990   -2.7360 C   0  0  1  0  0  0  0  0  0  0  0  0
   -2.6680    1.0820   -2.1240 C   0  0  0  0  0  0  0  0  0  0  0  0
   -1.9510    2.3220   -2.2050 C   0  0  0  0  0  0  0  0  0  0  0  0
   -1.3770    3.3250   -2.2860 N   0  0  0  0  0  0  0  0  0  0  0  0
   -2.0420    0.0870   -1.4310 C   0  0  0  0  0  0  0  0  0  0  0  0
   -0.7920    0.4460   -0.9210 N   0  0  0  0  0  0  0  0  0  0  0  0
    0.0640   -0.4090   -0.1660 C   0  0  0  0  0  0  0  0  0  0  0  0
   -0.2940   -1.5620    0.0940 O   0  0  0  0  0  0  0  0  0  0  0  0
    1.3240    0.0960    0.2580 N   0  0  0  0  0  0  0  0  0  0  0  0
    2.2960   -0.6440    0.9700 C   0  0  0  0  0  0  0  0  0  0  0  0
    3.6220   -0.1360    0.9600 C   0  0  0  0  0  0  0  0  0  0  0  0
    4.6370   -0.7780    1.6270 C   0  0  0  0  0  0  0  0  0  0  0  0
    4.4340   -1.9370    2.3380 C   0  0  0  0  0  0  0  0  0  0  0  0
    5.5310   -2.5800    2.9960 N   0  0  0  0  0  0  0  0  0  0  0  0
    6.8910   -2.0780    2.8100 C   0  0  0  0  0  0  0  0  0  0  0  0
    3.1420   -2.4510    2.3650 C   0  0  0  0  0  0  0  0  0  0  0  0
    2.1100   -1.7920    1.6810 C   0  0  0  0  0  0  0  0  0  0  0  0
  1  2  2  0
  2  3  1  0
  3  4  2  0
  3  8  1  0
  4  5  1  0
  5  6  1  0
  6  7  2  0
  6  8  1  0
  8  9  1  1
  9 10  1  0
  9 12  2  3
 10 11  3  0
 12 13  1  0
 13 14  1  0
 14 15  2  0
 14 16  1  0
 16 17  1  0
 17 18  2  0
 17 24  1  0
 18 19  1  0
 19 20  2  0
 20 21  1  0
 20 23  1  0
 21 22  1  0
 23 24  2  0
M  END
