
     RDKit          3D

 24 25  0  0  0  0  0  0  0  0999 V2000
   -4.6300   -3.3020   -0.1990 C   0  0  0  0  0  0  0  0  0  0  0  0
   -3.9070   -2.1490    0.0930 O   0  0  0  0  0  0  0  0  0  0  0  0
   -2.5250   -2.4500   -0.0230 C   0  0  0  0  0  0  0  0  0  0  0  0
   -1.7680   -1.1220    0.3150 C   0  0  0  0  0  0  0  0  0  0  0  0
   -0.9680   -1.2550    1.3490 C   0  0  0  0  0  0  0  0  0  0  0  0
   -0.0840   -0.2750    1.9680 C   0  0  0  0  0  0  0  0  0  0  0  0
    1.1730   -0.0060    1.5680 C   0  0  0  0  0  0  0  0  0  0  0  0
    1.7850   -0.7210    0.4150 C   0  0  0  0  0  0  0  0  0  0  0  0
    2.7160    0.1710   -0.2380 N   0  0  0  0  0  0  0  0  0  0  0  0
    4.0270   -0.2990   -0.6630 C   0  0  1  0  0  0  0  0  0  0  0  0
    4.8450   -0.9680    0.4220 C   0  0  0  0  0  0  0  0  0  0  0  0
    5.2190   -2.0270   -0.5920 C   0  0  0  0  0  0  0  0  0  0  0  0
    4.0240   -1.5920   -1.4130 C   0  0  0  0  0  0  0  0  0  0  0  0
    2.3200    1.5470   -0.4620 C   0  0  0  0  0  0  0  0  0  0  0  0
    3.3700    2.3250   -0.3850 O   0  0  0  0  0  0  0  0  0  0  0  0
    1.0430    1.8570   -0.6990 N   0  0  0  0  0  0  0  0  0  0  0  0
    0.0490    2.1660   -1.3570 C   0  0  0  0  0  0  0  0  0  0  0  0
   -1.3110    2.3750   -0.7490 C   0  0  0  0  0  0  0  0  0  0  0  0
   -1.7390    3.8140   -0.7090 C   0  0  0  0  0  0  0  0  0  0  0  0
   -2.9580    4.3630   -0.1420 C   0  0  0  0  0  0  0  0  0  0  0  0
   -0.9210    4.6670   -1.2440 O   0  0  0  0  0  0  0  0  0  0  0  0
   -2.1390    1.4020   -0.3670 C   0  0  0  0  0  0  0  0  0  0  0  0
   -3.4050    1.9390    0.2010 N   0  0  0  0  0  0  0  0  0  0  0  0
   -2.1180    0.0080   -0.4670 N   0  0  0  0  0  0  0  0  0  0  0  0
  1  2  1  0
  2  3  1  0
  3  4  1  0
  4  5  2  0
  4 24  1  0
  5  6  1  0
  6  7  2  0
  7  8  1  0
  8  9  1  0
 10  9  1  1
  9 14  1  0
 10 11  1  0
 10 13  1  0
 11 12  1  0
 12 13  1  0
 14 15  2  0
 14 16  1  0
 16 17  2  0
 17 18  1  0
 18 19  1  0
 18 22  2  0
 19 20  1  0
 19 21  2  0
 22 23  1  0
 22 24  1  0
M  END
