
     RDKit          3D

 28 29  0  0  0  0  0  0  0  0999 V2000
   -3.5280   -1.1160   -3.7020 C   0  0  0  0  0  0  0  0  0  0  0  0
   -2.8800    0.1880   -3.3050 C   0  0  0  0  0  0  0  0  0  0  0  0
   -2.5630    0.2350   -1.9530 O   0  0  0  0  0  0  0  0  0  0  0  0
   -3.4190    0.1350   -0.8850 C   0  0  0  0  0  0  0  0  0  0  0  0
   -4.7620   -0.0310   -1.0980 C   0  0  0  0  0  0  0  0  0  0  0  0
   -5.5990   -0.1280   -0.0060 C   0  0  0  0  0  0  0  0  0  0  0  0
   -5.1200   -0.0630    1.2690 C   0  0  0  0  0  0  0  0  0  0  0  0
   -5.9270   -0.1570    2.4030 O   0  0  0  0  0  0  0  0  0  0  0  0
   -7.3210   -0.3280    2.2810 C   0  0  0  0  0  0  0  0  0  0  0  0
   -3.7330    0.1070    1.4540 C   0  0  0  0  0  0  0  0  0  0  0  0
   -2.8610    0.2090    0.4030 C   0  0  0  0  0  0  0  0  0  0  0  0
   -1.4510    0.3840    0.5270 N   0  0  0  0  0  0  0  0  0  0  0  0
   -0.7040    0.4730    1.7080 C   0  0  0  0  0  0  0  0  0  0  0  0
   -1.3280    0.3930    2.7860 O   0  0  0  0  0  0  0  0  0  0  0  0
    0.7390    0.6520    1.7600 C   0  0  0  0  0  0  0  0  0  0  0  0
    1.3090    0.7890    3.0400 C   0  0  0  0  0  0  0  0  0  0  0  0
    0.4730    0.7630    4.2790 C   0  0  0  0  0  0  0  0  0  0  0  0
    2.6410    0.9470    3.1030 N   0  0  0  0  0  0  0  0  0  0  0  0
    3.4410    0.9800    2.0130 C   0  0  0  0  0  0  0  0  0  0  0  0
    5.0490    1.1810    2.2700 S   0  0  0  0  0  0  0  0  0  0  0  0
    2.9290    0.8520    0.7810 N   0  0  0  0  0  0  0  0  0  0  0  0
    3.7880    0.8880   -0.3820 C   0  0  0  0  0  0  0  0  0  0  0  0
    4.2870   -0.4860   -0.7600 C   0  0  0  0  0  0  0  0  0  0  0  0
    5.1830   -0.4480   -1.9720 C   0  0  2  0  0  0  0  0  0  0  0  0
    5.6780   -1.8290   -2.3420 C   0  0  0  0  0  0  0  0  0  0  0  0
    6.3840    0.4430   -1.7680 C   0  0  0  0  0  0  0  0  0  0  0  0
    1.5760    0.6890    0.6800 C   0  0  0  0  0  0  0  0  0  0  0  0
    1.1300    0.5710   -0.4880 O   0  0  0  0  0  0  0  0  0  0  0  0
  1  2  1  0
  2  3  1  0
  3  4  1  0
  4  5  2  0
  4 11  1  0
  5  6  1  0
  6  7  2  0
  7  8  1  0
  7 10  1  0
  8  9  1  0
 10 11  2  0
 11 12  1  0
 12 13  1  0
 13 14  2  0
 13 15  1  0
 15 16  2  0
 15 27  1  0
 16 17  1  0
 16 18  1  0
 18 19  1  0
 19 20  2  0
 19 21  1  0
 21 22  1  0
 21 27  1  0
 22 23  1  0
 23 24  1  0
 24 25  1  1
 24 26  1  0
 27 28  2  0
M  END
