
     RDKit          3D

 24 25  0  0  0  0  0  0  0  0999 V2000
    6.0250   -2.1970    0.3980 C   0  0  0  0  0  0  0  0  0  0  0  0
    5.0990   -1.6090   -0.3290 C   0  0  0  0  0  0  0  0  0  0  0  0
    4.2650   -0.5480    0.2550 C   0  0  0  0  0  0  0  0  0  0  0  0
    3.3210    0.0140   -0.4580 C   0  0  0  0  0  0  0  0  0  0  0  0
    2.4970    1.0780    0.1590 C   0  0  0  0  0  0  0  0  0  0  0  0
    1.1140    0.7080    0.1810 N   0  0  0  0  0  0  0  0  0  0  0  0
    0.8180   -0.3850    1.0670 C   0  0  0  0  0  0  0  0  0  0  0  0
   -0.5970   -0.8180    0.9090 C   0  0  0  0  0  0  0  0  0  0  0  0
   -1.5070    0.1780    0.4060 N   0  0  0  0  0  0  0  0  0  0  0  0
   -2.8970   -0.1090    0.4300 C   0  0  0  0  0  0  0  0  0  0  0  0
   -3.7520    0.7460    0.0090 O   0  0  0  0  0  0  0  0  0  0  0  0
   -3.4580   -1.3240    0.9040 N   0  0  0  0  0  0  0  0  0  0  0  0
   -4.8720   -1.6080    0.9280 C   0  0  0  0  0  0  0  0  0  0  0  0
   -5.5060   -1.5650   -0.4520 C   0  0  0  0  0  0  0  0  0  0  0  0
   -6.9980   -1.8820   -0.3060 C   0  0  0  0  0  0  0  0  0  0  0  0
   -1.0880    1.4510   -0.1290 C   0  0  0  0  0  0  0  0  0  0  0  0
    0.2290    1.7850    0.5460 C   0  0  2  0  0  0  0  0  0  0  0  0
    0.7160    3.1200    0.2180 C   0  0  0  0  0  0  0  0  0  0  0  0
    0.9940    3.5620   -1.0720 O   0  0  0  0  0  0  0  0  0  0  0  0
    0.9200    4.0010    1.1800 C   0  0  0  0  0  0  0  0  0  0  0  0
    1.3820    5.2960    0.9620 O   0  0  0  0  0  0  0  0  0  0  0  0
    3.1070   -0.3980   -1.8250 C   0  0  0  0  0  0  0  0  0  0  0  0
    3.8340   -1.3050   -2.3430 N   0  0  0  0  0  0  0  0  0  0  0  0
    4.9070   -2.0330   -1.7400 C   0  0  0  0  0  0  0  0  0  0  0  0
  1  2  2  0
  2  3  1  0
  2 24  1  0
  3  4  2  0
  4  5  1  0
  4 22  1  0
  5  6  1  0
  6  7  1  0
  6 17  1  0
  7  8  1  0
  8  9  1  0
  9 10  1  0
  9 16  1  0
 10 11  2  0
 10 12  1  0
 12 13  1  0
 13 14  1  0
 14 15  1  0
 16 17  1  0
 17 18  1  6
 18 19  1  0
 18 20  2  3
 20 21  1  0
 22 23  2  0
 23 24  1  0
M  END
