
     RDKit          3D

  9  9  0  0  0  0  0  0  0  0999 V2000
   -0.9420    1.4970   -0.9000 C   0  0  0  0  0  0  0  0  0  0  0  0
   -1.1760    0.2640   -0.5090 C   0  0  0  0  0  0  0  0  0  0  0  0
   -2.5260   -0.3280   -0.8030 C   0  0  0  0  0  0  0  0  0  0  0  0
   -3.1370   -0.6870    0.5410 C   0  0  0  0  0  0  0  0  0  0  0  0
   -0.1420   -0.5290    0.1980 C   0  0  0  0  0  0  0  0  0  0  0  0
    1.1090    0.2580    0.3210 C   0  0  1  0  0  0  0  0  0  0  0  0
    2.2440   -0.4890    1.0570 C   0  0  0  0  0  0  0  0  0  0  0  0
    3.1840    0.2740    0.1470 C   0  0  0  0  0  0  0  0  0  0  0  0
    2.0390    0.2210   -0.8770 C   0  0  0  0  0  0  0  0  0  0  0  0
  1  2  2  0
  2  3  1  0
  2  5  1  0
  3  4  1  0
  6  5  1  6
  6  7  1  0
  6  9  1  0
  7  8  1  0
  8  9  1  0
M  END
