
     RDKit          3D

 10 10  0  0  0  0  0  0  0  0999 V2000
    3.0880   -0.3580    1.3120 C   0  0  0  0  0  0  0  0  0  0  0  0
    2.5680   -0.3490    0.0890 C   0  0  0  0  0  0  0  0  0  0  0  0
    3.4940   -0.5300   -1.0950 C   0  0  0  0  0  0  0  0  0  0  0  0
    1.1180   -0.1670   -0.1890 C   0  0  0  0  0  0  0  0  0  0  0  0
    0.3790    0.0160    1.0800 C   0  0  0  0  0  0  0  0  0  0  0  0
   -1.0990    0.1990    0.9240 C   0  0  2  0  0  0  0  0  0  0  0  0
   -1.7940   -0.9400    0.2670 C   0  0  0  0  0  0  0  0  0  0  0  0
   -3.1890   -0.3830    0.0670 C   0  0  0  0  0  0  0  0  0  0  0  0
   -2.9300    1.0300   -0.3610 C   0  0  0  0  0  0  0  0  0  0  0  0
   -1.4990    1.3740    0.0740 C   0  0  0  0  0  0  0  0  0  0  0  0
  1  2  2  0
  2  3  1  0
  2  4  1  0
  4  5  1  0
  6  5  1  6
  6  7  1  0
  6 10  1  0
  7  8  1  0
  8  9  1  0
  9 10  1  0
M  END
