
     RDKit          3D

 10 10  0  0  0  0  0  0  0  0999 V2000
    2.8670    0.8670    1.0040 C   0  0  0  0  0  0  0  0  0  0  0  0
    1.7980   -0.1340    0.5240 C   0  0  2  0  0  0  0  0  0  0  0  0
    2.4450   -0.7880   -0.7010 C   0  0  0  0  0  0  0  0  0  0  0  0
    0.6180    0.6780    0.1430 C   0  0  0  0  0  0  0  0  0  0  0  0
   -0.5790   -0.0270   -0.3540 C   0  0  2  0  0  0  0  0  0  0  0  0
   -0.4400   -0.8550   -1.5770 C   0  0  0  0  0  0  0  0  0  0  0  0
   -1.6640    1.0340   -0.5840 C   0  0  0  0  0  0  0  0  0  0  0  0
   -2.6640    0.8450    0.5160 C   0  0  0  0  0  0  0  0  0  0  0  0
   -2.6440   -0.6600    0.7010 C   0  0  0  0  0  0  0  0  0  0  0  0
   -1.1570   -0.9310    0.7420 C   0  0  0  0  0  0  0  0  0  0  0  0
  2  1  1  6
  2  3  1  0
  2  4  1  0
  4  5  1  0
  5  6  1  6
  5  7  1  0
  5 10  1  0
  7  8  1  0
  8  9  1  0
  9 10  1  0
M  END
