
     RDKit          3D

 10  9  0  0  0  0  0  0  0  0999 V2000
   -3.1940    0.8960    1.5490 C   0  0  0  0  0  0  0  0  0  0  0  0
   -2.2030    1.1840    0.4060 C   0  0  0  0  0  0  0  0  0  0  0  0
   -1.7310   -0.0730   -0.1750 C   0  0  0  0  0  0  0  0  0  0  0  0
   -0.4880   -0.5250   -0.2430 C   0  0  0  0  0  0  0  0  0  0  0  0
   -0.1750   -1.8430   -0.8760 C   0  0  0  0  0  0  0  0  0  0  0  0
   -1.4270   -2.5200   -1.3860 C   0  0  0  0  0  0  0  0  0  0  0  0
    0.6460    0.2340    0.2970 C   0  0  0  0  0  0  0  0  0  0  0  0
    1.6770    0.5820   -0.7570 C   0  0  0  0  0  0  0  0  0  0  0  0
    2.8230    1.3540   -0.1890 C   0  0  0  0  0  0  0  0  0  0  0  0
    3.5760    0.6460    0.8820 C   0  0  0  0  0  0  0  0  0  0  0  0
  1  2  1  0
  2  3  1  0
  3  4  2  3
  4  5  1  0
  4  7  1  0
  5  6  1  0
  7  8  1  0
  8  9  1  0
  9 10  1  0
M  END
