
     RDKit          3D

 10 10  0  0  0  0  0  0  0  0999 V2000
    3.2710    1.1130    0.4800 C   0  0  0  0  0  0  0  0  0  0  0  0
    2.0030    0.6930   -0.2960 C   0  0  0  0  0  0  0  0  0  0  0  0
    1.6140   -0.6310    0.2430 C   0  0  0  0  0  0  0  0  0  0  0  0
    0.4510   -1.3260   -0.2950 C   0  0  0  0  0  0  0  0  0  0  0  0
   -0.8940   -0.7630   -0.2540 C   0  0  1  0  0  0  0  0  0  0  0  0
   -1.8060   -1.8320   -0.9080 C   0  0  0  0  0  0  0  0  0  0  0  0
   -1.4930   -0.4940    1.0760 C   0  0  0  0  0  0  0  0  0  0  0  0
   -1.6130    1.0330    1.1920 C   0  0  0  0  0  0  0  0  0  0  0  0
   -1.5850    1.5640   -0.2030 C   0  0  0  0  0  0  0  0  0  0  0  0
   -1.1030    0.4620   -1.1050 C   0  0  0  0  0  0  0  0  0  0  0  0
  1  2  1  0
  2  3  1  0
  3  4  1  0
  4  5  1  0
  5  6  1  6
  5  7  1  0
  5 10  1  0
  7  8  1  0
  8  9  1  0
  9 10  1  0
M  END
