
     RDKit          3D

 10 10  0  0  0  0  0  0  0  0999 V2000
   -1.9780    1.8880   -0.1670 C   0  0  0  0  0  0  0  0  0  0  0  0
   -2.3880    0.4910   -0.4200 C   0  0  0  0  0  0  0  0  0  0  0  0
   -1.7190   -0.5240    0.0740 C   0  0  0  0  0  0  0  0  0  0  0  0
   -2.1920   -1.9040   -0.2240 C   0  0  0  0  0  0  0  0  0  0  0  0
   -0.5310   -0.2310    0.8970 C   0  0  0  0  0  0  0  0  0  0  0  0
    0.7420   -0.8070    0.3500 C   0  0  1  0  0  0  0  0  0  0  0  0
    0.9770   -0.2290   -1.0230 C   0  0  0  0  0  0  0  0  0  0  0  0
    2.0250    0.8310   -0.8650 C   0  0  0  0  0  0  0  0  0  0  0  0
    2.9200    0.2310    0.2240 C   0  0  0  0  0  0  0  0  0  0  0  0
    1.8800   -0.2490    1.2140 C   0  0  0  0  0  0  0  0  0  0  0  0
  1  2  1  0
  2  3  2  3
  3  4  1  0
  3  5  1  0
  6  5  1  1
  6  7  1  0
  6 10  1  0
  7  8  1  0
  8  9  1  0
  9 10  1  0
M  END
