
     RDKit          3D

 10 10  0  0  0  0  0  0  0  0999 V2000
    3.1380    0.9390   -0.3110 C   0  0  0  0  0  0  0  0  0  0  0  0
    1.8250    0.4780    0.3250 C   0  0  0  0  0  0  0  0  0  0  0  0
    1.5380   -0.8910   -0.2170 C   0  0  0  0  0  0  0  0  0  0  0  0
    0.2660   -1.4830    0.3200 C   0  0  0  0  0  0  0  0  0  0  0  0
   -0.9240   -0.6540   -0.0070 C   0  0  0  0  0  0  0  0  0  0  0  0
   -1.6380   -0.8610   -1.1720 C   0  0  0  0  0  0  0  0  0  0  0  0
   -2.7460   -0.1020   -1.4940 C   0  0  0  0  0  0  0  0  0  0  0  0
   -3.1880    0.9040   -0.6590 C   0  0  0  0  0  0  0  0  0  0  0  0
   -2.4870    1.1240    0.5080 C   0  0  0  0  0  0  0  0  0  0  0  0
   -1.3820    0.3590    0.8190 C   0  0  0  0  0  0  0  0  0  0  0  0
  1  2  1  0
  2  3  1  0
  3  4  1  0
  4  5  1  0
  5  6  2  0
  5 10  1  0
  6  7  1  0
  7  8  2  0
  8  9  1  0
  9 10  2  0
M  END
