
     RDKit          3D

 10  9  0  0  0  0  0  0  0  0999 V2000
    4.2010   -0.1130   -0.6840 C   0  0  0  0  0  0  0  0  0  0  0  0
    2.9620   -0.4960    0.1180 C   0  0  0  0  0  0  0  0  0  0  0  0
    1.8450   -0.6490   -0.9150 C   0  0  0  0  0  0  0  0  0  0  0  0
    0.5760   -1.0200   -0.2880 C   0  0  0  0  0  0  0  0  0  0  0  0
   -0.5030   -0.3020   -0.3760 C   0  0  0  0  0  0  0  0  0  0  0  0
   -0.5580    0.9630   -1.1210 C   0  0  0  0  0  0  0  0  0  0  0  0
   -0.8800    2.1810   -0.2700 C   0  0  0  0  0  0  0  0  0  0  0  0
   -1.7260   -0.8330    0.2840 C   0  0  0  0  0  0  0  0  0  0  0  0
   -2.3190    0.0140    1.3450 C   0  0  0  0  0  0  0  0  0  0  0  0
   -3.5470   -0.7290    1.9180 C   0  0  0  0  0  0  0  0  0  0  0  0
  1  2  1  0
  2  3  1  0
  3  4  1  0
  4  5  2  3
  5  6  1  0
  5  8  1  0
  6  7  1  0
  8  9  1  0
  9 10  1  0
M  END
