
     RDKit          3D

 10 10  0  0  0  0  0  0  0  0999 V2000
   -2.4020    1.4160   -0.8100 C   0  0  0  0  0  0  0  0  0  0  0  0
   -1.7620    0.2280   -0.1790 C   0  0  2  0  0  0  0  0  0  0  0  0
   -1.8940   -0.9550   -1.0970 C   0  0  0  0  0  0  0  0  0  0  0  0
   -2.4180   -0.0030    1.1660 C   0  0  0  0  0  0  0  0  0  0  0  0
   -0.2730    0.4740    0.1190 C   0  0  0  0  0  0  0  0  0  0  0  0
    0.2250   -0.7920    0.7430 C   0  0  0  0  0  0  0  0  0  0  0  0
    1.6340   -0.8400    1.1860 C   0  0  0  0  0  0  0  0  0  0  0  0
    2.6100   -0.6000    0.1020 C   0  0  1  0  0  0  0  0  0  0  0  0
    2.5730    0.7470   -0.5810 C   0  0  0  0  0  0  0  0  0  0  0  0
    3.7770    0.2770    0.1660 C   0  0  0  0  0  0  0  0  0  0  0  0
  2  1  1  6
  2  3  1  0
  2  4  1  0
  2  5  1  0
  5  6  1  0
  6  7  1  0
  8  7  1  1
  8  9  1  0
  8 10  1  0
  9 10  1  0
M  END
