
     RDKit          3D

 27 28  0  0  0  0  0  0  0  0999 V2000
    7.8590   -2.2690   -1.0890 C   0  0  0  0  0  0  0  0  0  0  0  0
    6.8750   -1.2640   -1.4310 N   0  0  0  0  0  0  0  0  0  0  0  0
    5.6580   -1.1530   -0.6500 C   0  0  0  0  0  0  0  0  0  0  0  0
    5.5100   -1.9370    0.2940 O   0  0  0  0  0  0  0  0  0  0  0  0
    4.7070   -0.2030   -0.9580 N   0  0  0  0  0  0  0  0  0  0  0  0
    3.4650    0.0640   -0.3250 C   0  0  0  0  0  0  0  0  0  0  0  0
    2.6270    1.0190   -0.7320 O   0  0  0  0  0  0  0  0  0  0  0  0
    1.5610    1.0920   -0.0220 C   0  0  0  0  0  0  0  0  0  0  0  0
    0.4340    2.0150   -0.1790 C   0  0  0  0  0  0  0  0  0  0  0  0
    0.7820    3.3340   -0.4340 O   0  0  0  0  0  0  0  0  0  0  0  0
    0.8970    4.1980    0.6830 C   0  0  0  0  0  0  0  0  0  0  0  0
   -0.8100    1.6730   -0.0960 C   0  0  0  0  0  0  0  0  0  0  0  0
   -2.1800    2.8590   -0.2960 S   0  0  0  0  0  0  0  0  0  0  0  0
   -3.3140    1.8900    0.7470 C   0  0  0  0  0  0  0  0  0  0  0  0
   -4.2490    2.3600    1.4140 O   0  0  0  0  0  0  0  0  0  0  0  0
   -2.8390    0.5620    0.5740 N   0  0  0  0  0  0  0  0  0  0  0  0
   -3.7030   -0.6080    0.8520 C   0  0  0  0  0  0  0  0  0  0  0  0
   -4.4310   -1.0040   -0.3300 N   0  0  0  0  0  0  0  0  0  0  0  0
   -5.2800    0.0970   -0.7830 C   0  0  0  0  0  0  0  0  0  0  0  0
   -5.3160   -2.0830    0.0630 C   0  0  0  0  0  0  0  0  0  0  0  0
   -6.1250   -2.6060   -1.0460 C   0  0  0  0  0  0  0  0  0  0  0  0
   -6.9020   -3.5040   -0.8370 O   0  0  0  0  0  0  0  0  0  0  0  0
   -1.5260    0.4410    0.1320 C   0  0  0  0  0  0  0  0  0  0  0  0
   -0.9410   -0.6890   -0.0780 O   0  0  0  0  0  0  0  0  0  0  0  0
    1.6580    0.1260    0.9480 C   0  0  0  0  0  0  0  0  0  0  0  0
    2.8800   -0.5340    0.7530 C   0  0  0  0  0  0  0  0  0  0  0  0
    3.4080   -1.8430    1.7720 Cl  0  0  0  0  0  0  0  0  0  0  0  0
  1  2  1  0
  2  3  1  0
  3  4  2  0
  3  5  1  0
  5  6  1  0
  6  7  1  0
  6 26  2  0
  7  8  1  0
  8  9  1  0
  8 25  2  0
  9 10  1  0
  9 12  2  3
 10 11  1  0
 12 13  1  0
 12 23  1  0
 13 14  1  0
 14 15  2  0
 14 16  1  0
 16 17  1  0
 16 23  1  0
 17 18  1  0
 18 19  1  0
 18 20  1  0
 20 21  1  0
 21 22  2  0
 23 24  2  0
 25 26  1  0
 26 27  1  0
M  END
