
     RDKit          3D

 18 17  0  0  0  0  0  0  0  0999 V2000
    3.6090    1.2340   -0.8680 C   0  0  0  0  0  0  0  0  0  0  0  0
    4.1110    0.6290    0.1250 N   0  0  0  0  0  0  0  0  0  0  0  0
    4.5400    0.0110    1.1430 C   0  0  0  0  0  0  0  0  0  0  0  0
    3.5910   -0.4660    1.9930 O   0  0  0  0  0  0  0  0  0  0  0  0
    2.4060   -0.9720    1.4270 C   0  0  0  0  0  0  0  0  0  0  0  0
    1.4130   -0.1420    1.2590 C   0  0  0  0  0  0  0  0  0  0  0  0
    1.5120    1.2000    1.6230 O   0  0  0  0  0  0  0  0  0  0  0  0
    0.1480   -0.6620    0.6630 C   0  0  0  0  0  0  0  0  0  0  0  0
   -0.8280    0.1730    0.4960 C   0  0  0  0  0  0  0  0  0  0  0  0
   -2.1240   -0.0270   -0.0390 C   0  0  0  0  0  0  0  0  0  0  0  0
   -3.1630    1.3030   -0.0880 S   0  0  0  0  0  0  0  0  0  0  0  0
   -2.6170    2.8700    0.5140 N   0  0  0  0  0  0  0  0  0  0  0  0
   -2.0200    3.6010   -0.1870 O   0  0  0  0  0  0  0  0  0  0  0  0
   -2.6480   -1.2500   -0.5710 C   0  0  0  0  0  0  0  0  0  0  0  0
   -4.0790   -1.2440   -1.0900 C   0  0  0  0  0  0  0  0  0  0  0  0
   -2.0350   -2.3330   -0.6510 O   0  0  0  0  0  0  0  0  0  0  0  0
    0.1610   -1.9930    0.3540 O   0  0  0  0  0  0  0  0  0  0  0  0
    0.1980   -3.3270    1.7020 Br  0  0  0  0  0  0  0  0  0  0  0  0
  1  2  2  0
  2  3  2  0
  3  4  1  0
  4  5  1  0
  5  6  2  3
  6  7  1  0
  6  8  1  0
  8  9  2  3
  8 17  1  0
  9 10  1  0
 10 11  2  3
 10 14  1  0
 11 12  1  0
 12 13  2  0
 14 15  1  0
 14 16  2  0
 17 18  1  0
M  CHG  1   2   1
M  END
