
     RDKit          3D

 27 28  0  0  0  0  0  0  0  0999 V2000
   -4.9620    0.6570   -3.0900 C   0  0  0  0  0  0  0  0  0  0  0  0
   -4.8650    0.3790   -1.7240 O   0  0  0  0  0  0  0  0  0  0  0  0
   -3.6540    0.4380   -1.0450 C   0  0  0  0  0  0  0  0  0  0  0  0
   -2.6490    0.7550   -1.7310 O   0  0  0  0  0  0  0  0  0  0  0  0
   -3.5810    0.1500    0.3620 N   0  0  0  0  0  0  0  0  0  0  0  0
   -4.7750   -0.2150    1.0890 C   0  0  0  0  0  0  0  0  0  0  0  0
   -2.3510    0.2200    1.0800 C   0  0  0  0  0  0  0  0  0  0  0  0
   -1.2680    0.5240    0.5440 O   0  0  0  0  0  0  0  0  0  0  0  0
   -2.4030   -0.0910    2.5410 C   0  0  0  0  0  0  0  0  0  0  0  0
   -0.7470   -0.0860    3.2020 S   0  0  0  0  0  0  0  0  0  0  0  0
    0.1980   -1.4980    2.7110 C   0  0  0  0  0  0  0  0  0  0  0  0
    0.4920   -1.6180    1.2770 C   0  0  0  0  0  0  0  0  0  0  0  0
   -0.2160   -2.4190    0.3890 C   0  0  0  0  0  0  0  0  0  0  0  0
    0.1700   -2.4480   -0.9470 C   0  0  0  0  0  0  0  0  0  0  0  0
   -0.4710   -3.1790   -1.7670 O   0  0  0  0  0  0  0  0  0  0  0  0
    1.2080   -1.7170   -1.3690 N   0  0  0  0  0  0  0  0  0  0  0  0
    1.8750   -0.9560   -0.5120 C   0  0  0  0  0  0  0  0  0  0  0  0
    2.9820   -0.1440   -0.9150 N   0  0  0  0  0  0  0  0  0  0  0  0
    3.6900    0.6820   -0.0210 C   0  0  0  0  0  0  0  0  0  0  0  0
    3.2600    0.6480    1.1860 O   0  0  0  0  0  0  0  0  0  0  0  0
    4.8230    1.5310   -0.3690 C   0  0  0  0  0  0  0  0  0  0  0  0
    5.4070    2.3490    0.5110 O   0  0  0  0  0  0  0  0  0  0  0  0
    6.3840    3.0000   -0.0130 C   0  0  0  0  0  0  0  0  0  0  0  0
    6.5300    2.6470   -1.3410 C   0  0  0  0  0  0  0  0  0  0  0  0
    5.5160    1.7050   -1.5360 C   0  0  0  0  0  0  0  0  0  0  0  0
    5.1770    0.8630   -3.0380 Cl  0  0  0  0  0  0  0  0  0  0  0  0
    1.5150   -0.9170    0.7820 N   0  0  0  0  0  0  0  0  0  0  0  0
  1  2  1  0
  2  3  1  0
  3  4  2  0
  3  5  1  0
  5  6  1  0
  5  7  1  0
  7  8  2  0
  7  9  1  0
  9 10  1  0
 10 11  1  0
 11 12  1  0
 12 13  2  0
 12 27  1  0
 13 14  1  0
 14 15  2  0
 14 16  1  0
 16 17  1  0
 17 18  1  0
 17 27  2  0
 18 19  1  0
 19 20  2  0
 19 21  1  0
 21 22  1  0
 21 25  2  0
 22 23  1  0
 23 24  2  0
 24 25  1  0
 25 26  1  0
M  END
