
     RDKit          3D

  8  8  0  0  0  0  0  0  0  0999 V2000
   -2.9040    0.0980    0.1050 C   0  0  0  0  0  0  0  0  0  0  0  0
   -1.4180    0.0370    0.0400 C   0  0  0  0  0  0  0  0  0  0  0  0
   -0.7670   -0.7230   -0.9120 C   0  0  0  0  0  0  0  0  0  0  0  0
    0.6190   -0.7610   -0.9480 C   0  0  0  0  0  0  0  0  0  0  0  0
    1.4030   -0.0580   -0.0560 C   0  0  0  0  0  0  0  0  0  0  0  0
    2.8950   -0.1090   -0.1090 C   0  0  0  0  0  0  0  0  0  0  0  0
    0.7470    0.7010    0.8920 C   0  0  0  0  0  0  0  0  0  0  0  0
   -0.6260    0.7360    0.9260 C   0  0  0  0  0  0  0  0  0  0  0  0
  1  2  1  0
  2  3  2  0
  2  8  1  0
  3  4  1  0
  4  5  2  0
  5  6  1  0
  5  7  1  0
  7  8  2  0
M  END
