
     RDKit          3D

 18 18  0  0  0  0  0  0  0  0999 V2000
   -1.0240   -0.5630   -2.1180 C   0  0  0  0  0  0  0  0  0  0  0  0
   -1.1740   -0.2850   -0.5930 C   0  0  2  0  0  0  0  0  0  0  0  0
   -1.2060   -1.5840    0.0020 N   0  0  0  0  0  0  0  0  0  0  0  0
   -1.2800   -1.8310    1.3990 C   0  0  0  0  0  0  0  0  0  0  0  0
   -1.3180   -0.9150    2.2290 O   0  0  0  0  0  0  0  0  0  0  0  0
   -2.5090    0.4440   -0.5360 C   0  0  2  0  0  0  0  0  0  0  0  0
   -2.4030    2.0550   -1.6440 Br  0  0  0  0  0  0  0  0  0  0  0  0
   -2.8980    1.0280    1.1250 S   0  0  0  0  0  0  0  0  0  0  0  0
   -4.3890    1.8290    1.1310 O   0  0  0  0  0  0  0  0  0  0  0  0
   -0.1210    0.6230   -0.1030 C   0  0  2  0  0  0  0  0  0  0  0  0
   -0.2230    1.8560   -0.7630 O   0  0  0  0  0  0  0  0  0  0  0  0
    1.2350    0.1650   -0.2200 N   0  0  2  0  0  0  0  0  0  0  0  0
    1.7150   -0.2110   -1.8330 Cl  0  0  0  0  0  0  0  0  0  0  0  0
    1.6210   -0.8900    0.6560 C   0  0  0  0  0  0  0  0  0  0  0  0
    3.1550   -0.7580    0.5960 C   0  0  0  0  0  0  0  0  0  0  0  0
    3.2750    0.7370    0.9200 C   0  0  0  0  0  0  0  0  0  0  0  0
    2.0720    1.2560    0.2070 C   0  0  0  0  0  0  0  0  0  0  0  0
    1.8060    2.4200   -0.0020 O   0  0  0  0  0  0  0  0  0  0  0  0
  2  1  1  6
  2  3  1  0
  2  6  1  0
  2 10  1  0
  3  4  1  0
  4  5  2  0
  6  7  1  6
  6  8  1  0
  8  9  1  0
 10 11  1  6
 10 12  1  0
 12 13  1  6
 12 14  1  0
 12 17  1  0
 14 15  1  0
 15 16  1  0
 16 17  1  0
 17 18  2  0
M  CHG  1  12   1
M  END
