
     RDKit          3D

 19 19  0  0  0  0  0  0  0  0999 V2000
    3.9880   -0.3650    1.1670 C   0  0  0  0  0  0  0  0  0  0  0  0
    3.8650    0.1900   -0.0170 C   0  0  0  0  0  0  0  0  0  0  0  0
    5.0030    0.5160   -0.7280 O   0  0  0  0  0  0  0  0  0  0  0  0
    2.5200    0.4550   -0.5660 C   0  0  0  0  0  0  0  0  0  0  0  0
    1.5280    0.0370    0.3400 O   0  0  0  0  0  0  0  0  0  0  0  0
    0.1830    0.1440    0.1290 C   0  0  0  0  0  0  0  0  0  0  0  0
   -0.3530   -0.8340   -0.5390 C   0  0  0  0  0  0  0  0  0  0  0  0
   -1.6200   -1.0200   -0.5690 N   0  0  0  0  0  0  0  0  0  0  0  0
   -2.1290   -2.1660   -0.0210 O   0  0  0  0  0  0  0  0  0  0  0  0
   -1.7300   -3.4640   -0.3440 C   0  0  0  0  0  0  0  0  0  0  0  0
   -2.5980   -0.0960   -1.1490 C   0  0  0  0  0  0  0  0  0  0  0  0
   -2.6030    1.1630   -0.4220 N   0  0  0  0  0  0  0  0  0  0  0  0
   -3.7430    1.8910   -0.6030 O   0  0  0  0  0  0  0  0  0  0  0  0
   -4.1610    2.4030    0.5420 O   0  0  0  0  0  0  0  0  0  0  0  0
   -1.6540    1.7260    0.4070 N   0  0  0  0  0  0  0  0  0  0  0  0
   -0.4460    1.3360    0.6820 C   0  0  0  0  0  0  0  0  0  0  0  0
    0.3240    2.1520    1.6070 C   0  0  0  0  0  0  0  0  0  0  0  0
    1.4930    1.8090    1.8980 O   0  0  0  0  0  0  0  0  0  0  0  0
   -0.3430    3.5950    2.3190 Cl  0  0  0  0  0  0  0  0  0  0  0  0
  1  2  2  0
  2  3  1  0
  2  4  1  0
  4  5  1  0
  5  6  1  0
  6  7  2  0
  6 16  1  0
  7  8  2  0
  8  9  1  0
  8 11  1  0
  9 10  1  0
 11 12  1  0
 12 13  1  0
 12 15  1  0
 13 14  1  0
 15 16  2  0
 16 17  1  0
 17 18  2  0
 17 19  1  0
M  CHG  1   8   1
M  END
