
     RDKit          3D

 18 19  0  0  0  0  0  0  0  0999 V2000
   -4.7580   -1.2970   -0.0630 C   0  0  0  0  0  0  0  0  0  0  0  0
   -3.3120   -1.0410   -0.0680 C   0  0  0  0  0  0  0  0  0  0  0  0
   -2.2200   -1.9680   -1.1020 S   0  0  0  0  0  0  0  0  0  0  0  0
   -2.8260   -0.1240    0.6940 N   0  0  0  0  0  0  0  0  0  0  0  0
   -1.4140    0.1570    0.7170 C   0  0  0  0  0  0  0  0  0  0  0  0
   -0.3650   -0.2430    1.3770 O   0  0  0  0  0  0  0  0  0  0  0  0
    0.4600    0.5330    0.7430 N   0  0  0  0  0  0  0  0  0  0  0  0
   -0.5550    0.9970    0.0230 C   0  0  0  0  0  0  0  0  0  0  0  0
   -0.0640    2.0060   -0.9340 C   0  0  1  0  0  0  0  0  0  0  0  0
   -0.2770    1.4030   -2.5940 Cl  0  0  0  0  0  0  0  0  0  0  0  0
   -0.9230    3.7140   -0.6940 Br  0  0  0  0  0  0  0  0  0  0  0  0
    1.3860    2.0710   -0.6750 C   0  0  0  0  0  0  0  0  0  0  0  0
    2.2420    2.8210   -1.2750 O   0  0  0  0  0  0  0  0  0  0  0  0
    1.6590    1.1480    0.3630 N   0  0  0  0  0  0  0  0  0  0  0  0
    2.9820    0.9130    0.9110 C   0  0  0  0  0  0  0  0  0  0  0  0
    3.6320   -0.1920    0.1170 C   0  0  0  0  0  0  0  0  0  0  0  0
    2.8640   -1.3750    0.2030 O   0  0  0  0  0  0  0  0  0  0  0  0
    3.4570   -2.3160   -0.4990 O   0  0  0  0  0  0  0  0  0  0  0  0
  1  2  1  0
  2  3  1  0
  2  4  2  3
  4  5  1  0
  5  6  1  0
  5  8  2  0
  6  7  1  0
  7  8  1  0
  7 14  1  0
  8  9  1  0
  9 10  1  6
  9 11  1  0
  9 12  1  0
 12 13  2  0
 12 14  1  0
 14 15  1  0
 15 16  1  0
 16 17  1  0
 17 18  1  0
M  CHG  1   4   1
M  END
