
     RDKit          3D

  8  8  0  0  0  0  0  0  0  0999 V2000
   -1.7020   -1.1300   -0.3260 C   0  0  0  0  0  0  0  0  0  0  0  0
   -0.3110   -0.6290   -0.1040 C   0  0  0  0  0  0  0  0  0  0  0  0
    0.7690   -1.5040   -0.0700 C   0  0  0  0  0  0  0  0  0  0  0  0
    2.0550   -1.0510    0.1340 C   0  0  0  0  0  0  0  0  0  0  0  0
    2.2470    0.3040    0.3050 C   0  0  0  0  0  0  0  0  0  0  0  0
    1.1830    1.1890    0.2730 C   0  0  0  0  0  0  0  0  0  0  0  0
   -0.1090    0.7240    0.0670 C   0  0  0  0  0  0  0  0  0  0  0  0
   -1.2800    1.6280    0.0250 C   0  0  0  0  0  0  0  0  0  0  0  0
  1  2  1  0
  2  3  2  0
  2  7  1  0
  3  4  1  0
  4  5  2  0
  5  6  1  0
  6  7  2  0
  7  8  1  0
M  END
