
     RDKit          3D

  8  8  0  0  0  0  0  0  0  0999 V2000
    2.7660   -0.0250    1.1090 C   0  0  0  0  0  0  0  0  0  0  0  0
    2.7730   -0.3810   -0.1490 C   0  0  0  0  0  0  0  0  0  0  0  0
    1.6830   -0.8960   -0.9710 C   0  0  0  0  0  0  0  0  0  0  0  0
    0.3150   -0.8580   -0.4050 C   0  0  0  0  0  0  0  0  0  0  0  0
   -0.2500    0.5030   -0.1360 C   0  0  0  0  0  0  0  0  0  0  0  0
   -1.6280    0.3240    0.4510 C   0  0  1  0  0  0  0  0  0  0  0  0
   -2.4720    1.4670    0.8340 C   0  0  0  0  0  0  0  0  0  0  0  0
   -2.7640    0.7200   -0.4640 C   0  0  0  0  0  0  0  0  0  0  0  0
  1  2  2  0
  2  3  1  0
  3  4  1  0
  4  5  1  0
  6  5  1  6
  6  7  1  0
  6  8  1  0
  7  8  1  0
M  END
