
     RDKit          3D

  7  6  0  0  0  0  0  0  0  0999 V2000
   -2.1140    0.1610    0.7930 C   0  0  0  0  0  0  0  0  0  0  0  0
   -1.7110    0.2190   -0.4510 C   0  0  0  0  0  0  0  0  0  0  0  0
   -2.6830    0.4150   -1.5500 C   0  0  0  0  0  0  0  0  0  0  0  0
   -0.2780    0.0920   -0.7710 C   0  0  0  0  0  0  0  0  0  0  0  0
    0.5820   -0.0760    0.4610 C   0  0  0  0  0  0  0  0  0  0  0  0
    2.0530   -0.2120    0.0780 C   0  0  0  0  0  0  0  0  0  0  0  0
    2.9360   -0.3790    1.2680 C   0  0  0  0  0  0  0  0  0  0  0  0
  1  2  2  0
  2  3  1  0
  2  4  1  0
  4  5  1  0
  5  6  1  0
  6  7  1  0
M  END
