
     RDKit          3D

  8  7  0  0  0  0  0  0  0  0999 V2000
    3.0010    0.6800    0.2370 C   0  0  0  0  0  0  0  0  0  0  0  0
    1.8520   -0.3000    0.1960 C   0  0  0  0  0  0  0  0  0  0  0  0
    0.6010    0.4800   -0.0930 C   0  0  0  0  0  0  0  0  0  0  0  0
   -0.6280   -0.4220   -0.1560 C   0  0  2  0  0  0  0  0  0  0  0  0
   -0.8490   -1.1450    1.1330 C   0  0  0  0  0  0  0  0  0  0  0  0
   -0.3490   -1.4630   -1.2240 C   0  0  0  0  0  0  0  0  0  0  0  0
   -1.8100    0.4050   -0.5920 C   0  0  0  0  0  0  0  0  0  0  0  0
   -2.1320    1.5350    0.3150 C   0  0  0  0  0  0  0  0  0  0  0  0
  1  2  1  0
  2  3  1  0
  3  4  1  0
  4  5  1  1
  4  6  1  0
  4  7  1  0
  7  8  1  0
M  END
