
     RDKit          3D

  7  6  0  0  0  0  0  0  0  0999 V2000
    1.4420   -1.2730    0.6200 C   0  0  0  0  0  0  0  0  0  0  0  0
    0.9350   -0.2400   -0.0340 C   0  0  0  0  0  0  0  0  0  0  0  0
    1.8570    0.5940   -0.8410 C   0  0  0  0  0  0  0  0  0  0  0  0
   -0.5110    0.0250    0.0720 C   0  0  2  0  0  0  0  0  0  0  0  0
   -0.6690    1.4200    0.6670 C   0  0  0  0  0  0  0  0  0  0  0  0
   -1.1880   -0.9840    0.9600 C   0  0  0  0  0  0  0  0  0  0  0  0
   -1.2120    0.0030   -1.2680 C   0  0  0  0  0  0  0  0  0  0  0  0
  1  2  2  0
  2  3  1  0
  2  4  1  0
  4  5  1  1
  4  6  1  0
  4  7  1  0
M  END
