
     RDKit          3D

  8  8  0  0  0  0  0  0  0  0999 V2000
    2.9230    0.1190    0.6240 C   0  0  0  0  0  0  0  0  0  0  0  0
    1.4520    0.5010    0.4930 C   0  0  0  0  0  0  0  0  0  0  0  0
    0.7580   -0.6150   -0.2090 C   0  0  0  0  0  0  0  0  0  0  0  0
   -0.7110   -0.3830   -0.4140 C   0  0  2  0  0  0  0  0  0  0  0  0
   -1.4030   -1.5250   -1.1280 C   0  0  0  0  0  0  0  0  0  0  0  0
   -1.1210    0.9670   -0.8850 C   0  0  0  0  0  0  0  0  0  0  0  0
   -1.5440    1.3290    0.5030 C   0  0  0  0  0  0  0  0  0  0  0  0
   -1.3980   -0.1210    0.9050 C   0  0  0  0  0  0  0  0  0  0  0  0
  1  2  1  0
  2  3  1  0
  3  4  1  0
  4  5  1  6
  4  6  1  0
  4  8  1  0
  6  7  1  0
  7  8  1  0
M  END
