
     RDKit          3D

  8  8  0  0  0  0  0  0  0  0999 V2000
   -1.4870   -0.8690    0.8760 C   0  0  0  0  0  0  0  0  0  0  0  0
   -0.7870   -0.0400   -0.1620 C   0  0  2  0  0  0  0  0  0  0  0  0
   -1.8230    0.3400   -1.2290 C   0  0  0  0  0  0  0  0  0  0  0  0
    0.2280   -0.9030   -0.8700 C   0  0  0  0  0  0  0  0  0  0  0  0
    1.4990   -1.0720   -0.1100 C   0  0  0  0  0  0  0  0  0  0  0  0
    2.0920    0.2710    0.2180 C   0  0  0  0  0  0  0  0  0  0  0  0
    1.1150    1.1100    1.0110 C   0  0  0  0  0  0  0  0  0  0  0  0
   -0.2220    1.2360    0.3700 C   0  0  0  0  0  0  0  0  0  0  0  0
  2  1  1  1
  2  3  1  0
  2  4  1  0
  2  8  1  0
  4  5  1  0
  5  6  1  0
  6  7  1  0
  7  8  1  0
M  END
