
     RDKit          3D

  8  8  0  0  0  0  0  0  0  0999 V2000
    3.2850    0.2560    0.2590 C   0  0  0  0  0  0  0  0  0  0  0  0
    1.9860    0.2150   -0.5150 C   0  0  0  0  0  0  0  0  0  0  0  0
    0.9080   -0.4880    0.2810 C   0  0  0  0  0  0  0  0  0  0  0  0
   -0.3950   -0.5520   -0.4460 C   0  0  1  0  0  0  0  0  0  0  0  0
   -1.4130   -1.2580    0.3950 C   0  0  0  0  0  0  0  0  0  0  0  0
   -2.3700   -0.2320    0.9260 C   0  0  0  0  0  0  0  0  0  0  0  0
   -2.2840    0.9120   -0.0310 C   0  0  0  0  0  0  0  0  0  0  0  0
   -0.9300    0.8570   -0.6670 C   0  0  0  0  0  0  0  0  0  0  0  0
  1  2  1  0
  2  3  1  0
  4  3  1  1
  4  5  1  0
  4  8  1  0
  5  6  1  0
  6  7  1  0
  7  8  1  0
M  END
