
     RDKit          3D

 25 28  0  0  0  0  0  0  0  0999 V2000
   -3.1490   -3.9630   -1.0440 C   0  0  0  0  0  0  0  0  0  0  0  0
   -1.9060   -3.1800   -0.9160 C   0  0  0  0  0  0  0  0  0  0  0  0
   -0.6980   -3.8360   -0.8140 C   0  0  0  0  0  0  0  0  0  0  0  0
    0.4760   -3.1670   -0.6930 C   0  0  0  0  0  0  0  0  0  0  0  0
    0.4220   -1.7640   -0.6740 C   0  0  0  0  0  0  0  0  0  0  0  0
    1.7260   -1.1260   -0.5010 C   0  0  0  0  0  0  0  0  0  0  0  0
    2.7350   -1.3080   -1.4410 C   0  0  0  0  0  0  0  0  0  0  0  0
    3.9590   -0.7290   -1.2450 C   0  0  0  0  0  0  0  0  0  0  0  0
    4.2320    0.0380   -0.1330 C   0  0  0  0  0  0  0  0  0  0  0  0
    5.8740    0.8090    0.1200 P   0  0  0  0  0  0  0  0  0  0  0  0
    6.1060    1.0640    1.9500 C   0  0  0  0  0  0  0  0  0  0  0  0
    5.9880    2.4420   -0.7060 C   0  0  0  0  0  0  0  0  0  0  0  0
    3.2160    0.1990    0.7770 C   0  0  0  0  0  0  0  0  0  0  0  0
    1.9650   -0.3720    0.6120 C   0  0  0  0  0  0  0  0  0  0  0  0
   -0.7740   -1.1060   -0.7760 C   0  0  0  0  0  0  0  0  0  0  0  0
   -1.9630   -1.8070   -0.8980 C   0  0  0  0  0  0  0  0  0  0  0  0
   -3.2620   -1.1500   -1.0080 C   0  0  0  0  0  0  0  0  0  0  0  0
   -3.2460    0.3410   -0.9470 C   0  0  0  0  0  0  0  0  0  0  0  0
   -2.1000    0.8810   -0.1120 C   0  0  2  0  0  0  0  0  0  0  0  0
   -2.1660    0.3570    1.2710 C   0  0  0  0  0  0  0  0  0  0  0  0
   -2.8230    1.2610    2.2650 C   0  0  0  0  0  0  0  0  0  0  0  0
   -3.6940    2.3140    1.6840 C   0  0  0  0  0  0  0  0  0  0  0  0
   -3.1110    3.0790    0.5500 C   0  0  0  0  0  0  0  0  0  0  0  0
   -2.0300    2.3650   -0.1990 C   0  0  0  0  0  0  0  0  0  0  0  0
   -0.8290    0.3460   -0.7960 C   0  0  0  0  0  0  0  0  0  0  0  0
  1  2  1  0
  2  3  2  0
  2 16  1  0
  3  4  1  0
  4  5  2  0
  5  6  1  0
  5 15  1  0
  6  7  2  0
  6 14  1  0
  7  8  1  0
  8  9  2  0
  9 10  1  0
  9 13  1  0
 10 11  1  0
 10 12  1  0
 13 14  2  0
 15 16  2  0
 15 25  1  0
 16 17  1  0
 17 18  1  0
 19 18  1  6
 19 20  1  0
 19 24  1  0
 19 25  1  0
 20 21  1  0
 21 22  1  0
 22 23  1  0
 23 24  1  0
M  END
