
     RDKit          3D

 25 27  0  0  0  0  0  0  0  0999 V2000
   -0.1900    1.5900    0.5250 C   0  0  0  0  0  0  0  0  0  0  0  0
   -1.2690    0.5580    0.3670 C   0  0  0  0  0  0  0  0  0  0  0  0
   -2.4180    0.8010    0.9620 C   0  0  0  0  0  0  0  0  0  0  0  0
   -2.7260    2.0130    1.7910 C   0  0  1  0  0  0  0  0  0  0  0  0
   -1.6950    2.5750    2.6710 C   0  0  0  0  0  0  0  0  0  0  0  0
   -3.7420    2.9270    1.1990 C   0  0  0  0  0  0  0  0  0  0  0  0
   -3.5290   -0.1710    0.8160 C   0  0  0  0  0  0  0  0  0  0  0  0
   -3.3290   -1.3010   -0.0710 C   0  0  0  0  0  0  0  0  0  0  0  0
   -4.3970   -2.1860   -0.2910 C   0  0  0  0  0  0  0  0  0  0  0  0
   -4.2440   -3.2740   -1.0990 C   0  0  0  0  0  0  0  0  0  0  0  0
   -3.0700   -3.5740   -1.7360 C   0  0  0  0  0  0  0  0  0  0  0  0
   -2.9340   -4.7650   -2.6080 C   0  0  0  0  0  0  0  0  0  0  0  0
   -2.0170   -2.6920   -1.5130 C   0  0  0  0  0  0  0  0  0  0  0  0
   -2.1390   -1.5850   -0.7040 C   0  0  0  0  0  0  0  0  0  0  0  0
   -1.0270   -0.6070   -0.4800 C   0  0  0  0  0  0  0  0  0  0  0  0
    0.1340   -0.9470   -0.9860 C   0  0  0  0  0  0  0  0  0  0  0  0
    1.4540   -0.3620   -0.8860 C   0  0  0  0  0  0  0  0  0  0  0  0
    2.1310    0.0820   -2.0170 C   0  0  0  0  0  0  0  0  0  0  0  0
    3.4270    0.5440   -1.9470 C   0  0  0  0  0  0  0  0  0  0  0  0
    4.0830    0.5750   -0.7360 C   0  0  0  0  0  0  0  0  0  0  0  0
    5.8100    1.2030   -0.7100 P   0  0  0  0  0  0  0  0  0  0  0  0
    5.9920    2.4460    0.6300 C   0  0  0  0  0  0  0  0  0  0  0  0
    7.0350   -0.1530   -0.4900 C   0  0  0  0  0  0  0  0  0  0  0  0
    3.4400    0.1460    0.3800 C   0  0  0  0  0  0  0  0  0  0  0  0
    2.1340   -0.3190    0.3020 C   0  0  0  0  0  0  0  0  0  0  0  0
  1  2  1  0
  2  3  2  0
  2 15  1  0
  3  4  1  0
  3  7  1  0
  4  5  1  6
  4  6  1  0
  7  8  1  0
  8  9  2  0
  8 14  1  0
  9 10  1  0
 10 11  2  0
 11 12  1  0
 11 13  1  0
 13 14  2  0
 14 15  1  0
 15 16  2  3
 16 17  1  0
 17 18  2  0
 17 25  1  0
 18 19  1  0
 19 20  2  0
 20 21  1  0
 20 24  1  0
 21 22  1  0
 21 23  1  0
 24 25  2  0
M  END
