
     RDKit          3D

 25 27  0  0  0  0  0  0  0  0999 V2000
   -4.9510   -2.3330    2.4720 C   0  0  0  0  0  0  0  0  0  0  0  0
   -4.5810   -1.9250    1.2850 C   0  0  0  0  0  0  0  0  0  0  0  0
   -3.1750   -2.0160    0.8380 C   0  0  0  0  0  0  0  0  0  0  0  0
   -2.6850   -1.0570    0.0500 C   0  0  0  0  0  0  0  0  0  0  0  0
   -1.3350   -1.0390   -0.4490 C   0  0  0  0  0  0  0  0  0  0  0  0
   -0.8680   -0.1580   -1.3950 C   0  0  0  0  0  0  0  0  0  0  0  0
    0.4530   -0.1360   -1.8350 C   0  0  0  0  0  0  0  0  0  0  0  0
    1.3450   -1.0420   -1.3040 C   0  0  0  0  0  0  0  0  0  0  0  0
    3.0580   -1.0100   -1.8780 P   0  0  0  0  0  0  0  0  0  0  0  0
    3.7440   -2.6670   -2.2610 C   0  0  0  0  0  0  0  0  0  0  0  0
    4.1480    0.0280   -0.8870 C   0  0  0  0  0  0  0  0  0  0  0  0
    5.3560    0.4380   -1.4230 C   0  0  0  0  0  0  0  0  0  0  0  0
    6.1910    1.2430   -0.6420 C   0  0  0  0  0  0  0  0  0  0  0  0
    5.8370    1.6290    0.6310 C   0  0  0  0  0  0  0  0  0  0  0  0
    6.7720    2.4860    1.4070 C   0  0  0  0  0  0  0  0  0  0  0  0
    4.6320    1.2170    1.1580 C   0  0  0  0  0  0  0  0  0  0  0  0
    3.8130    0.4190    0.3760 C   0  0  0  0  0  0  0  0  0  0  0  0
    0.9360   -1.9500   -0.3540 C   0  0  0  0  0  0  0  0  0  0  0  0
   -0.3840   -1.9270    0.0480 C   0  0  0  0  0  0  0  0  0  0  0  0
   -3.6350    0.0230   -0.2440 C   0  0  0  0  0  0  0  0  0  0  0  0
   -3.2120    1.2600   -0.1980 C   0  0  0  0  0  0  0  0  0  0  0  0
   -3.9720    2.4930   -0.4570 C   0  0  0  0  0  0  0  0  0  0  0  0
   -3.2890    3.2410   -1.6170 C   0  0  0  0  0  0  0  0  0  0  0  0
   -5.0490   -0.2730   -0.5380 C   0  0  0  0  0  0  0  0  0  0  0  0
   -5.6010   -1.3610    0.3680 C   0  0  0  0  0  0  0  0  0  0  0  0
  1  2  2  0
  2  3  1  0
  2 25  1  0
  3  4  2  0
  4  5  1  0
  4 20  1  0
  5  6  2  0
  5 19  1  0
  6  7  1  0
  7  8  2  0
  8  9  1  0
  8 18  1  0
  9 10  1  0
  9 11  1  0
 11 12  2  0
 11 17  1  0
 12 13  1  0
 13 14  2  0
 14 15  1  0
 14 16  1  0
 16 17  2  0
 18 19  2  0
 20 21  2  3
 20 24  1  0
 21 22  1  0
 22 23  1  0
 24 25  1  0
M  END
