
     RDKit          3D

 25 27  0  0  0  0  0  0  0  0999 V2000
   -3.4670    1.7990    1.2840 C   0  0  0  0  0  0  0  0  0  0  0  0
   -3.3600    0.2760    1.4520 C   0  0  0  0  0  0  0  0  0  0  0  0
   -3.5070   -0.2940    0.1150 C   0  0  0  0  0  0  0  0  0  0  0  0
   -2.4880   -0.2600   -0.7890 C   0  0  0  0  0  0  0  0  0  0  0  0
   -1.1510    0.2470   -0.5110 C   0  0  0  0  0  0  0  0  0  0  0  0
   -0.3220   -0.2830    0.4530 C   0  0  0  0  0  0  0  0  0  0  0  0
    0.9430    0.2390    0.7160 C   0  0  0  0  0  0  0  0  0  0  0  0
    1.4240    1.3220    0.0120 C   0  0  0  0  0  0  0  0  0  0  0  0
    3.0780    2.0340    0.3300 P   0  0  0  0  0  0  0  0  0  0  0  0
    3.5530    3.2020   -1.0150 C   0  0  0  0  0  0  0  0  0  0  0  0
    4.3360    0.7210    0.5420 C   0  0  0  0  0  0  0  0  0  0  0  0
    4.7080    0.2820    1.7950 C   0  0  0  0  0  0  0  0  0  0  0  0
    5.6590   -0.7090    1.9060 C   0  0  0  0  0  0  0  0  0  0  0  0
    6.2710   -1.2980    0.8170 C   0  0  0  0  0  0  0  0  0  0  0  0
    7.3060   -2.3780    0.9660 C   0  0  0  0  0  0  0  0  0  0  0  0
    5.8900   -0.8500   -0.4350 C   0  0  0  0  0  0  0  0  0  0  0  0
    4.9290    0.1530   -0.5690 C   0  0  0  0  0  0  0  0  0  0  0  0
    0.5880    1.8470   -0.9510 C   0  0  0  0  0  0  0  0  0  0  0  0
   -0.6610    1.3490   -1.2270 C   0  0  0  0  0  0  0  0  0  0  0  0
   -2.6910   -0.7780   -2.0750 C   0  0  0  0  0  0  0  0  0  0  0  0
   -3.9160   -1.3150   -2.4050 C   0  0  0  0  0  0  0  0  0  0  0  0
   -4.9580   -1.3510   -1.4770 C   0  0  0  0  0  0  0  0  0  0  0  0
   -6.2770   -1.9290   -1.8280 C   0  0  0  0  0  0  0  0  0  0  0  0
   -4.7450   -0.8380   -0.2200 C   0  0  0  0  0  0  0  0  0  0  0  0
   -5.8020   -0.8510    0.7910 C   0  0  0  0  0  0  0  0  0  0  0  0
  1  2  1  0
  2  3  1  0
  3  4  2  0
  3 24  1  0
  4  5  1  0
  4 20  1  0
  5  6  2  0
  5 19  1  0
  6  7  1  0
  7  8  2  0
  8  9  1  0
  8 18  1  0
  9 10  1  0
  9 11  1  0
 11 12  2  0
 11 17  1  0
 12 13  1  0
 13 14  2  0
 14 15  1  0
 14 16  1  0
 16 17  2  0
 18 19  2  0
 20 21  2  0
 21 22  1  0
 22 23  1  0
 22 24  2  0
 24 25  1  0
M  END
