
     RDKit          3D

 25 27  0  0  0  0  0  0  0  0999 V2000
    7.7610    0.6970    0.8420 C   0  0  0  0  0  0  0  0  0  0  0  0
    6.8820    1.6510    0.1020 C   0  0  0  0  0  0  0  0  0  0  0  0
    5.4310    1.5030    0.5610 C   0  0  0  0  0  0  0  0  0  0  0  0
    4.8950   -0.2320    0.2190 P   0  0  0  0  0  0  0  0  0  0  0  0
    5.6910   -0.9040   -1.3110 C   0  0  0  0  0  0  0  0  0  0  0  0
    3.0860   -0.4010    0.1870 C   0  0  0  0  0  0  0  0  0  0  0  0
    2.3300    0.6610   -0.2530 C   0  0  0  0  0  0  0  0  0  0  0  0
    0.9290    0.5670   -0.2920 C   0  0  0  0  0  0  0  0  0  0  0  0
    0.2590   -0.5640    0.0990 C   0  0  0  0  0  0  0  0  0  0  0  0
   -1.1990   -0.6020    0.1060 C   0  0  0  0  0  0  0  0  0  0  0  0
   -1.7860    0.5730    0.0100 C   0  0  0  0  0  0  0  0  0  0  0  0
   -3.2070    1.0010   -0.0220 C   0  0  0  0  0  0  0  0  0  0  0  0
   -3.3580    2.3560   -0.2760 C   0  0  0  0  0  0  0  0  0  0  0  0
   -4.6100    2.9350   -0.3280 C   0  0  0  0  0  0  0  0  0  0  0  0
   -5.7310    2.1710   -0.1280 C   0  0  0  0  0  0  0  0  0  0  0  0
   -7.0870    2.8130   -0.1860 C   0  0  0  0  0  0  0  0  0  0  0  0
   -5.5760    0.8300    0.1230 C   0  0  0  0  0  0  0  0  0  0  0  0
   -4.3360    0.2630    0.1730 C   0  0  0  0  0  0  0  0  0  0  0  0
   -4.3350   -1.2210    0.4380 C   0  0  0  0  0  0  0  0  0  0  0  0
   -3.3030   -1.8540   -0.4500 C   0  0  0  0  0  0  0  0  0  0  0  0
   -1.8990   -1.9070    0.1750 C   0  0  2  0  0  0  0  0  0  0  0  0
   -2.1620   -2.3450    1.5920 C   0  0  0  0  0  0  0  0  0  0  0  0
   -1.2190   -2.9950   -0.6640 C   0  0  0  0  0  0  0  0  0  0  0  0
    1.0320   -1.6150    0.5360 C   0  0  0  0  0  0  0  0  0  0  0  0
    2.4000   -1.5090    0.5680 C   0  0  0  0  0  0  0  0  0  0  0  0
  1  2  1  0
  2  3  1  0
  3  4  1  0
  4  5  1  0
  4  6  1  0
  6  7  2  0
  6 25  1  0
  7  8  1  0
  8  9  2  0
  9 10  1  0
  9 24  1  0
 10 11  2  0
 10 21  1  0
 11 12  1  0
 12 13  2  0
 12 18  1  0
 13 14  1  0
 14 15  2  0
 15 16  1  0
 15 17  1  0
 17 18  2  0
 18 19  1  0
 19 20  1  0
 20 21  1  0
 21 22  1  1
 21 23  1  0
 24 25  2  0
M  END
