
     RDKit          3D

 25 28  0  0  0  0  0  0  0  0999 V2000
    4.3230   -3.9610   -0.8100 C   0  0  0  0  0  0  0  0  0  0  0  0
    3.2310   -3.1110   -2.0410 P   0  0  0  0  0  0  0  0  0  0  0  0
    2.5740   -1.5720   -1.2500 C   0  0  0  0  0  0  0  0  0  0  0  0
    1.8820   -0.6520   -2.0030 C   0  0  0  0  0  0  0  0  0  0  0  0
    1.3780    0.5070   -1.4550 C   0  0  0  0  0  0  0  0  0  0  0  0
    1.5620    0.7660   -0.1310 C   0  0  0  0  0  0  0  0  0  0  0  0
    1.0420    1.9740    0.4450 C   0  0  0  0  0  0  0  0  0  0  0  0
    1.8940    2.9580    0.9650 C   0  0  0  0  0  0  0  0  0  0  0  0
    1.3920    4.1250    1.5160 C   0  0  0  0  0  0  0  0  0  0  0  0
    0.0280    4.3210    1.5530 C   0  0  0  0  0  0  0  0  0  0  0  0
   -0.5100    5.5720    2.1410 C   0  0  0  0  0  0  0  0  0  0  0  0
   -0.7930    3.3560    1.0440 C   0  0  0  0  0  0  0  0  0  0  0  0
   -0.3160    2.1740    0.4850 C   0  0  0  0  0  0  0  0  0  0  0  0
   -1.1840    1.1460   -0.0560 C   0  0  0  0  0  0  0  0  0  0  0  0
   -2.0480    1.4930   -1.1030 C   0  0  0  0  0  0  0  0  0  0  0  0
   -2.9020    0.5630   -1.6560 C   0  0  0  0  0  0  0  0  0  0  0  0
   -2.9300   -0.7130   -1.2020 C   0  0  0  0  0  0  0  0  0  0  0  0
   -3.8500   -1.7370   -1.7900 C   0  0  0  0  0  0  0  0  0  0  0  0
   -2.0860   -1.1120   -0.1560 C   0  0  0  0  0  0  0  0  0  0  0  0
   -2.1690   -2.5060    0.3110 C   0  0  1  0  0  0  0  0  0  0  0  0
   -1.0980   -2.9750    1.2860 C   0  0  0  0  0  0  0  0  0  0  0  0
   -2.4830   -2.8010    1.7390 C   0  0  0  0  0  0  0  0  0  0  0  0
   -1.2460   -0.1550    0.3710 C   0  0  0  0  0  0  0  0  0  0  0  0
    2.2470   -0.1300    0.6420 C   0  0  0  0  0  0  0  0  0  0  0  0
    2.7640   -1.3130    0.0940 C   0  0  0  0  0  0  0  0  0  0  0  0
  1  2  1  0
  2  3  1  0
  3  4  2  0
  3 25  1  0
  4  5  1  0
  5  6  2  0
  6  7  1  0
  6 24  1  0
  7  8  2  0
  7 13  1  0
  8  9  1  0
  9 10  2  0
 10 11  1  0
 10 12  1  0
 12 13  2  0
 13 14  1  0
 14 15  2  0
 14 23  1  0
 15 16  1  0
 16 17  2  0
 17 18  1  0
 17 19  1  0
 20 19  1  1
 19 23  2  0
 20 21  1  0
 20 22  1  0
 21 22  1  0
 24 25  2  0
M  END
