
     RDKit          3D

 23 26  0  0  0  0  0  0  0  0999 V2000
    5.5230    1.2890   -0.5880 C   0  0  0  0  0  0  0  0  0  0  0  0
    4.5550    1.5220    0.5470 C   0  0  2  0  0  0  0  0  0  0  0  0
    5.0570    0.8220    1.7670 C   0  0  0  0  0  0  0  0  0  0  0  0
    3.1770    1.0690    0.1320 C   0  0  1  0  0  0  0  0  0  0  0  0
    3.1160   -0.3850   -0.2230 C   0  0  0  0  0  0  0  0  0  0  0  0
    1.6550   -0.7330   -0.4680 C   0  0  0  0  0  0  0  0  0  0  0  0
    0.8490   -0.6690    0.7900 C   0  0  1  0  0  0  0  0  0  0  0  0
    1.6810    0.0660    1.8500 C   0  0  0  0  0  0  0  0  0  0  0  0
    2.1710    1.3410    1.2250 C   0  0  0  0  0  0  0  0  0  0  0  0
   -0.4100    0.1460    0.5850 C   0  0  0  0  0  0  0  0  0  0  0  0
   -1.5790   -0.7800    0.5200 C   0  0  1  0  0  0  0  0  0  0  0  0
   -1.2220   -1.9980   -0.2620 C   0  0  0  0  0  0  0  0  0  0  0  0
   -0.1280   -2.7410    0.4770 C   0  0  0  0  0  0  0  0  0  0  0  0
    0.5850   -1.9280    1.3240 O   0  0  0  0  0  0  0  0  0  0  0  0
   -2.0280   -1.1830    1.7730 O   0  0  0  0  0  0  0  0  0  0  0  0
   -3.2210   -1.8250    1.5500 C   0  0  0  0  0  0  0  0  0  0  0  0
   -3.8530   -1.2140    0.3250 C   0  0  0  0  0  0  0  0  0  0  0  0
   -2.8290   -0.1370   -0.0330 C   0  0  1  0  0  0  0  0  0  0  0  0
   -3.2220    1.1110    0.6710 C   0  0  0  0  0  0  0  0  0  0  0  0
   -3.7460    2.0570   -0.3990 C   0  0  0  0  0  0  0  0  0  0  0  0
   -2.9750    1.6340   -1.6160 C   0  0  0  0  0  0  0  0  0  0  0  0
   -2.7700    0.1260   -1.4990 C   0  0  2  0  0  0  0  0  0  0  0  0
   -3.8760   -0.5620   -2.2670 C   0  0  0  0  0  0  0  0  0  0  0  0
  2  1  1  6
  2  3  1  0
  2  4  1  0
  4  5  1  1
  4  9  1  0
  5  6  1  0
  7  6  1  6
  7  8  1  0
  7 10  1  0
  7 14  1  0
  8  9  1  0
 11 10  1  1
 11 12  1  0
 11 15  1  0
 11 18  1  0
 12 13  1  0
 13 14  1  0
 15 16  1  0
 16 17  1  0
 18 17  1  6
 18 19  1  0
 18 22  1  0
 19 20  1  0
 20 21  1  0
 21 22  1  0
 22 23  1  6
M  END
