
     RDKit          3D

 23 26  0  0  0  0  0  0  0  0999 V2000
   -4.4500   -1.7170   -1.8410 C   0  0  0  0  0  0  0  0  0  0  0  0
   -3.7770   -1.4640   -0.7630 C   0  0  0  0  0  0  0  0  0  0  0  0
   -3.5930   -2.3070    0.4410 C   0  0  0  0  0  0  0  0  0  0  0  0
   -2.6680   -1.7330    1.2440 O   0  0  0  0  0  0  0  0  0  0  0  0
   -2.0580   -0.6410    0.5780 C   0  0  2  0  0  0  0  0  0  0  0  0
   -0.7690   -1.1990    0.0550 C   0  0  2  0  0  0  0  0  0  0  0  0
   -0.9720   -2.3300   -0.9200 C   0  0  0  0  0  0  0  0  0  0  0  0
   -0.0940   -1.8320    1.2860 C   0  0  0  0  0  0  0  0  0  0  0  0
    1.3460   -1.7970    0.8450 C   0  0  0  0  0  0  0  0  0  0  0  0
    1.4850   -0.3970    0.3030 C   0  0  1  0  0  0  0  0  0  0  0  0
    2.6200   -0.3700   -0.5060 O   0  0  0  0  0  0  0  0  0  0  0  0
    3.4860    0.6080   -0.0510 C   0  0  2  0  0  0  0  0  0  0  0  0
    3.8480    1.5700   -1.1480 C   0  0  0  0  0  0  0  0  0  0  0  0
    5.2450    2.0560   -0.8170 C   0  0  0  0  0  0  0  0  0  0  0  0
    5.6570    1.3390    0.4520 C   0  0  0  0  0  0  0  0  0  0  0  0
    4.8320    0.0570    0.3570 C   0  0  0  0  0  0  0  0  0  0  0  0
    0.2060   -0.2420   -0.5070 C   0  0  0  0  0  0  0  0  0  0  0  0
   -1.8550    0.4090    1.6220 C   0  0  0  0  0  0  0  0  0  0  0  0
   -2.8790    1.4990    1.4840 C   0  0  0  0  0  0  0  0  0  0  0  0
   -2.3030    2.5610    0.5710 C   0  0  0  0  0  0  0  0  0  0  0  0
   -2.5590    2.2360   -0.8840 C   0  0  0  0  0  0  0  0  0  0  0  0
   -3.2170    0.9320   -1.0570 C   0  0  0  0  0  0  0  0  0  0  0  0
   -3.0250   -0.2490   -0.4730 C   0  0  0  0  0  0  0  0  0  0  0  0
  1  2  2  0
  2  3  1  0
  2 23  1  0
  3  4  1  0
  4  5  1  0
  5  6  1  0
  5 18  1  1
  5 23  1  0
  6  7  1  6
  6  8  1  0
  6 17  1  0
  8  9  1  0
  9 10  1  0
 10 11  1  6
 10 17  1  0
 12 11  1  6
 12 13  1  0
 12 16  1  0
 13 14  1  0
 14 15  1  0
 15 16  1  0
 18 19  1  0
 19 20  1  0
 20 21  1  0
 21 22  1  0
 22 23  2  0
M  END
