
     RDKit          3D

 23 26  0  0  0  0  0  0  0  0999 V2000
    2.0230   -2.6550   -1.5750 O   0  0  0  0  0  0  0  0  0  0  0  0
    2.6650   -1.9040   -0.6190 C   0  0  1  0  0  0  0  0  0  0  0  0
    4.1460   -1.8310   -0.8860 C   0  0  0  0  0  0  0  0  0  0  0  0
    4.8380   -1.1320    0.2500 C   0  0  0  0  0  0  0  0  0  0  0  0
    3.9050   -0.4750    1.2170 C   0  0  0  0  0  0  0  0  0  0  0  0
    2.7150    0.1840    0.6030 C   0  0  2  0  0  0  0  0  0  0  0  0
    1.6140    0.2090    1.6520 C   0  0  0  0  0  0  0  0  0  0  0  0
    0.6150    0.9870    1.1680 O   0  0  0  0  0  0  0  0  0  0  0  0
   -0.1570    0.3370    0.1540 C   0  0  1  0  0  0  0  0  0  0  0  0
   -1.1400   -0.4880    0.8650 C   0  0  0  0  0  0  0  0  0  0  0  0
   -2.1200   -1.3480    0.1760 C   0  0  1  0  0  0  0  0  0  0  0  0
   -2.9250   -2.0280    1.3280 C   0  0  0  0  0  0  0  0  0  0  0  0
   -4.2070   -2.4450    0.6670 C   0  0  0  0  0  0  0  0  0  0  0  0
   -4.3440   -1.6650   -0.5850 C   0  0  0  0  0  0  0  0  0  0  0  0
   -3.2100   -0.6600   -0.5200 C   0  0  0  0  0  0  0  0  0  0  0  0
   -0.7980    1.5490   -0.4820 C   0  0  2  0  0  0  0  0  0  0  0  0
    0.3410    2.4760   -1.0260 C   0  0  0  0  0  0  0  0  0  0  0  0
   -0.2130    3.8020   -1.3270 C   0  0  0  0  0  0  0  0  0  0  0  0
   -1.3490    4.3070   -0.9310 C   0  0  0  0  0  0  0  0  0  0  0  0
   -2.2600    3.5190   -0.0690 C   0  0  0  0  0  0  0  0  0  0  0  0
   -1.4250    2.4230    0.5760 C   0  0  0  0  0  0  0  0  0  0  0  0
    0.7020   -0.3820   -0.8270 C   0  0  0  0  0  0  0  0  0  0  0  0
    2.1570   -0.4500   -0.6090 C   0  0  2  0  0  0  0  0  0  0  0  0
  2  1  1  6
  2  3  1  0
  2 23  1  0
  3  4  1  0
  4  5  1  0
  6  5  1  1
  6  7  1  0
  6 23  1  0
  7  8  1  0
  8  9  1  0
  9 10  1  1
  9 16  1  0
  9 22  1  0
 11 10  1  1
 11 12  1  0
 11 15  1  0
 12 13  1  0
 13 14  1  0
 14 15  1  0
 16 17  1  1
 16 21  1  0
 17 18  1  0
 18 19  2  0
 19 20  1  0
 20 21  1  0
 23 22  1  1
M  END
