
     RDKit          3D

 23 26  0  0  0  0  0  0  0  0999 V2000
   -0.7120   -2.0590   -2.3360 O   0  0  0  0  0  0  0  0  0  0  0  0
   -0.4460   -2.4740   -1.0630 C   0  0  2  0  0  0  0  0  0  0  0  0
   -1.6260   -2.9190   -0.2710 C   0  0  0  0  0  0  0  0  0  0  0  0
   -2.2960   -1.7570    0.4110 C   0  0  0  0  0  0  0  0  0  0  0  0
   -1.9350   -0.4260   -0.2160 C   0  0  1  0  0  0  0  0  0  0  0  0
   -2.8270    0.6190    0.3620 C   0  0  1  0  0  0  0  0  0  0  0  0
   -2.6020    1.9990   -0.1520 C   0  0  0  0  0  0  0  0  0  0  0  0
   -3.5160    2.9050    0.5990 C   0  0  0  0  0  0  0  0  0  0  0  0
   -4.8090    2.5970    0.6020 C   0  0  0  0  0  0  0  0  0  0  0  0
   -5.1840    1.3730   -0.1530 C   0  0  0  0  0  0  0  0  0  0  0  0
   -4.2700    0.2350    0.1260 C   0  0  0  0  0  0  0  0  0  0  0  0
   -0.4800   -0.1880   -0.0280 C   0  0  0  0  0  0  0  0  0  0  0  0
    0.3240   -1.4430   -0.2410 C   0  0  2  0  0  0  0  0  0  0  0  0
    1.5720   -1.1200   -1.0260 C   0  0  0  0  0  0  0  0  0  0  0  0
    2.7400   -0.7440   -0.1860 C   0  0  1  0  0  0  0  0  0  0  0  0
    2.8130    0.7140    0.1630 C   0  0  1  0  0  0  0  0  0  0  0  0
    4.0590    0.9100    1.0170 C   0  0  0  0  0  0  0  0  0  0  0  0
    4.7700    2.1180    0.4620 C   0  0  0  0  0  0  0  0  0  0  0  0
    3.7470    2.7820   -0.4350 C   0  0  0  0  0  0  0  0  0  0  0  0
    3.0540    1.5870   -1.0490 C   0  0  0  0  0  0  0  0  0  0  0  0
    2.8610   -1.5710    1.0720 C   0  0  0  0  0  0  0  0  0  0  0  0
    1.7810   -2.6500    1.0960 C   0  0  0  0  0  0  0  0  0  0  0  0
    0.5730   -2.0250    0.9790 O   0  0  0  0  0  0  0  0  0  0  0  0
  2  1  1  6
  2  3  1  0
  2 13  1  0
  3  4  1  0
  5  4  1  1
  5  6  1  0
  5 12  1  0
  6  7  1  6
  6 11  1  0
  7  8  1  0
  8  9  2  0
  9 10  1  0
 10 11  1  0
 13 12  1  1
 13 14  1  0
 13 23  1  0
 15 14  1  1
 15 16  1  0
 15 21  1  0
 16 17  1  1
 16 20  1  0
 17 18  1  0
 18 19  1  0
 19 20  1  0
 21 22  1  0
 22 23  1  0
M  END
