
     RDKit          3D

 30 32  0  0  0  0  0  0  0  0999 V2000
   -3.4240   -4.9690    1.8300 C   0  0  0  0  0  0  0  0  0  0  0  0
   -3.5440   -3.4960    1.5400 C   0  0  0  0  0  0  0  0  0  0  0  0
   -2.4270   -3.0350    0.7390 N   0  0  0  0  0  0  0  0  0  0  0  0
   -2.2790   -1.6940    0.3180 C   0  0  0  0  0  0  0  0  0  0  0  0
   -3.1370   -0.8540    0.6390 O   0  0  0  0  0  0  0  0  0  0  0  0
   -1.1050   -1.2960   -0.5030 C   0  0  0  0  0  0  0  0  0  0  0  0
   -0.8720   -0.0820   -0.9460 C   0  0  0  0  0  0  0  0  0  0  0  0
   -1.7820    1.0150   -0.6550 N   0  0  0  0  0  0  0  0  0  0  0  0
   -2.7860    1.4260   -1.5830 C   0  0  0  0  0  0  0  0  0  0  0  0
   -3.5560    2.5580   -1.0190 C   0  0  0  0  0  0  0  0  0  0  0  0
   -3.3470    3.8810   -1.1100 N   0  0  0  0  0  0  0  0  0  0  0  0
   -4.3200    4.5100   -0.4280 C   0  0  0  0  0  0  0  0  0  0  0  0
   -4.4590    5.9980   -0.2770 C   0  0  0  0  0  0  0  0  0  0  0  0
   -5.1140    3.5660    0.0740 N   0  0  0  0  0  0  0  0  0  0  0  0
   -4.6410    2.4140   -0.2890 O   0  0  0  0  0  0  0  0  0  0  0  0
    0.3670    0.0230   -1.7450 C   0  0  0  0  0  0  0  0  0  0  0  0
    0.9890   -1.3270   -1.5750 C   0  0  1  0  0  0  0  0  0  0  0  0
    2.3080   -1.3440   -0.9560 C   0  0  0  0  0  0  0  0  0  0  0  0
    3.2470   -1.8720   -1.6920 O   0  0  0  0  0  0  0  0  0  0  0  0
    2.6590   -0.8620    0.3190 N   0  0  0  0  0  0  0  0  0  0  0  0
    1.7020   -0.2860    1.2010 C   0  0  0  0  0  0  0  0  0  0  0  0
    4.0240   -1.0250    0.7370 C   0  0  0  0  0  0  0  0  0  0  0  0
    4.8440    0.1180    0.2010 C   0  0  0  0  0  0  0  0  0  0  0  0
    5.8640   -0.0770   -0.6700 C   0  0  0  0  0  0  0  0  0  0  0  0
    6.2370   -1.3140   -1.1360 F   0  0  0  0  0  0  0  0  0  0  0  0
    6.4640    1.2240   -0.9920 C   0  0  0  0  0  0  0  0  0  0  0  0
    5.6720    2.1730   -0.1970 C   0  0  0  0  0  0  0  0  0  0  0  0
    4.7220    1.5160    0.5000 C   0  0  0  0  0  0  0  0  0  0  0  0
    3.5860    2.3410    1.5900 Cl  0  0  0  0  0  0  0  0  0  0  0  0
   -0.0270   -2.2230   -0.9290 C   0  0  0  0  0  0  0  0  0  0  0  0
  1  2  1  0
  2  3  1  0
  3  4  1  0
  4  5  2  0
  4  6  1  0
  6  7  2  0
  6 30  1  0
  7  8  1  0
  7 16  1  0
  8  9  1  0
  9 10  1  0
 10 11  2  0
 10 15  1  0
 11 12  1  0
 12 13  1  0
 12 14  2  0
 14 15  1  0
 16 17  1  0
 17 18  1  1
 17 30  1  0
 18 19  2  0
 18 20  1  0
 20 21  1  0
 20 22  1  0
 22 23  1  0
 23 24  2  0
 23 28  1  0
 24 25  1  0
 24 26  1  0
 26 27  1  0
 27 28  2  0
 28 29  1  0
M  END
