
     RDKit          3D

 30 32  0  0  0  0  0  0  0  0999 V2000
   -5.0400    1.0320   -1.8930 C   0  0  0  0  0  0  0  0  0  0  0  0
   -4.5500    0.6700   -0.5880 N   0  0  0  0  0  0  0  0  0  0  0  0
   -3.5460    1.4400    0.1150 C   0  0  0  0  0  0  0  0  0  0  0  0
   -3.1870    2.6080   -0.1800 O   0  0  0  0  0  0  0  0  0  0  0  0
   -3.0430    0.6670    1.1870 N   0  0  0  0  0  0  0  0  0  0  0  0
   -2.0350    0.8720    2.1790 C   0  0  0  0  0  0  0  0  0  0  0  0
   -0.6860    0.3240    1.9270 C   0  0  0  0  0  0  0  0  0  0  0  0
    0.0280    0.8590    0.7430 C   0  0  0  0  0  0  0  0  0  0  0  0
   -0.4320    1.7800    0.0570 O   0  0  0  0  0  0  0  0  0  0  0  0
    1.2870    0.2800    0.3960 N   0  0  0  0  0  0  0  0  0  0  0  0
    2.0720    0.6840   -0.6880 C   0  0  0  0  0  0  0  0  0  0  0  0
    1.8590    1.7840   -1.4890 C   0  0  0  0  0  0  0  0  0  0  0  0
    2.6780    2.1810   -2.5260 C   0  0  0  0  0  0  0  0  0  0  0  0
    3.7870    1.4390   -2.7940 C   0  0  0  0  0  0  0  0  0  0  0  0
    4.8370    1.9430   -4.1190 Cl  0  0  0  0  0  0  0  0  0  0  0  0
    4.0660    0.3270   -2.0390 C   0  0  0  0  0  0  0  0  0  0  0  0
    3.2280   -0.0580   -0.9950 C   0  0  0  0  0  0  0  0  0  0  0  0
    3.5030   -1.2400   -0.2970 N   0  0  0  0  0  0  0  0  0  0  0  0
    4.7400   -1.9750   -0.3260 C   0  0  0  0  0  0  0  0  0  0  0  0
    5.7060   -1.3720    0.5980 C   0  0  0  0  0  0  0  0  0  0  0  0
    6.0480   -1.8970    1.7690 N   0  0  0  0  0  0  0  0  0  0  0  0
    6.9970   -1.0540    2.3960 C   0  0  0  0  0  0  0  0  0  0  0  0
    6.8460    0.0950    1.7390 C   0  0  0  0  0  0  0  0  0  0  0  0
    6.4660   -0.1480    0.4770 C   0  0  0  0  0  0  0  0  0  0  0  0
    6.7820    0.6120   -0.5770 F   0  0  0  0  0  0  0  0  0  0  0  0
   -3.7680   -0.5860    1.1200 C   0  0  0  0  0  0  0  0  0  0  0  0
   -3.4620   -1.6410    1.7380 O   0  0  0  0  0  0  0  0  0  0  0  0
   -4.9340   -0.4450    0.2100 C   0  0  2  0  0  0  0  0  0  0  0  0
   -5.0590   -1.7290   -0.5730 C   0  0  0  0  0  0  0  0  0  0  0  0
   -6.1560   -0.1850    1.0550 C   0  0  0  0  0  0  0  0  0  0  0  0
  1  2  1  0
  2  3  1  0
  2 28  1  0
  3  4  2  0
  3  5  1  0
  5  6  1  0
  5 26  1  0
  6  7  1  0
  7  8  1  0
  8  9  2  0
  8 10  1  0
 10 11  1  0
 11 12  2  0
 11 17  1  0
 12 13  1  0
 13 14  2  0
 14 15  1  0
 14 16  1  0
 16 17  2  0
 17 18  1  0
 18 19  1  0
 19 20  1  0
 20 21  2  0
 20 24  1  0
 21 22  1  0
 22 23  2  0
 23 24  2  0
 24 25  1  0
 26 27  2  0
 26 28  1  0
 28 29  1  6
 28 30  1  0
M  END
