
     RDKit          3D

 30 31  0  0  0  0  0  0  0  0999 V2000
   -3.7400    5.6540    0.4790 C   0  0  0  0  0  0  0  0  0  0  0  0
   -3.5290    4.5600   -0.2260 C   0  0  0  0  0  0  0  0  0  0  0  0
   -2.2650    4.2370   -0.9080 C   0  0  0  0  0  0  0  0  0  0  0  0
   -1.7710    2.9560   -0.3330 N   0  0  0  0  0  0  0  0  0  0  0  0
   -0.5840    2.3800   -0.7760 C   0  0  0  0  0  0  0  0  0  0  0  0
    0.0340    3.0940   -1.6910 O   0  0  0  0  0  0  0  0  0  0  0  0
    0.0000    1.1440   -0.3950 C   0  0  0  0  0  0  0  0  0  0  0  0
   -0.6300    0.1770    0.4470 C   0  0  0  0  0  0  0  0  0  0  0  0
   -1.8310   -0.2710    0.6180 C   0  0  0  0  0  0  0  0  0  0  0  0
   -3.0390    0.1280   -0.1060 C   0  0  0  0  0  0  0  0  0  0  0  0
   -3.7990   -1.0790   -0.4990 N   0  0  0  0  0  0  0  0  0  0  0  0
   -2.9340   -1.8590   -1.3340 C   0  0  0  0  0  0  0  0  0  0  0  0
   -4.2290   -1.7790    0.6980 C   0  0  0  0  0  0  0  0  0  0  0  0
   -3.0700   -2.2450    1.5130 C   0  0  0  0  0  0  0  0  0  0  0  0
   -2.0650   -1.2660    1.6100 O   0  0  0  0  0  0  0  0  0  0  0  0
    1.3890    1.1470   -0.3480 C   0  0  0  0  0  0  0  0  0  0  0  0
    1.9700   -0.1440   -0.0150 C   0  0  0  0  0  0  0  0  0  0  0  0
    1.2220   -1.1960    0.1040 O   0  0  0  0  0  0  0  0  0  0  0  0
    3.3240   -0.4400    0.2170 N   0  0  0  0  0  0  0  0  0  0  0  0
    3.7670   -1.7820    0.5270 C   0  0  0  0  0  0  0  0  0  0  0  0
    4.3210   -2.0900    1.6820 C   0  0  0  0  0  0  0  0  0  0  0  0
    4.7670   -3.4710    1.9730 C   0  0  0  0  0  0  0  0  0  0  0  0
    4.6310   -4.4450    1.0940 C   0  0  0  0  0  0  0  0  0  0  0  0
    4.0400   -4.1350   -0.1570 N   0  0  0  0  0  0  0  0  0  0  0  0
    3.6110   -2.8030   -0.4320 N   0  0  0  0  0  0  0  0  0  0  0  0
    3.0350   -2.5290   -1.7210 C   0  0  0  0  0  0  0  0  0  0  0  0
    2.0580    2.4070   -0.3710 C   0  0  0  0  0  0  0  0  0  0  0  0
    1.1920    3.5090   -0.0870 F   0  0  0  0  0  0  0  0  0  0  0  0
    3.3050    2.7530   -0.4370 C   0  0  0  0  0  0  0  0  0  0  0  0
    3.6840    4.5080   -0.4330 Cl  0  0  0  0  0  0  0  0  0  0  0  0
  1  2  2  0
  2  3  1  0
  3  4  1  0
  4  5  1  0
  5  6  2  0
  5  7  1  0
  7  8  1  0
  7 16  2  3
  8  9  2  3
  9 10  1  0
  9 15  1  0
 10 11  1  0
 11 12  1  0
 11 13  1  0
 13 14  1  0
 14 15  1  0
 16 17  1  0
 16 27  1  0
 17 18  2  0
 17 19  1  0
 19 20  1  0
 20 21  2  0
 20 25  1  0
 21 22  1  0
 22 23  2  0
 23 24  1  0
 24 25  1  0
 25 26  1  0
 27 28  1  0
 27 29  2  3
 29 30  1  0
M  END
