
     RDKit          3D

 30 32  0  0  0  0  0  0  0  0999 V2000
    3.0910    0.3590    3.8200 C   0  0  0  0  0  0  0  0  0  0  0  0
    2.1800    0.5470    2.5850 N   0  0  0  0  0  0  0  0  0  0  0  0
    2.8720    0.7640    1.3930 C   0  0  0  0  0  0  0  0  0  0  0  0
    3.5010    2.1320    1.1990 C   0  0  0  0  0  0  0  0  0  0  0  0
    4.3500    2.0760   -0.0430 C   0  0  0  0  0  0  0  0  0  0  0  0
    3.9180    1.8290   -1.1770 O   0  0  0  0  0  0  0  0  0  0  0  0
    5.7670    2.2970    0.0800 N   0  0  0  0  0  0  0  0  0  0  0  0
    6.7270    2.1880   -0.9470 C   0  0  0  0  0  0  0  0  0  0  0  0
    6.6440    2.1100   -2.2800 N   0  0  0  0  0  0  0  0  0  0  0  0
    7.9200    1.9910   -2.8180 C   0  0  0  0  0  0  0  0  0  0  0  0
    8.7560    2.0030   -1.7310 C   0  0  0  0  0  0  0  0  0  0  0  0
    8.0430    2.1210   -0.6550 O   0  0  0  0  0  0  0  0  0  0  0  0
    0.8340    0.4730    2.8950 C   0  0  0  0  0  0  0  0  0  0  0  0
    0.5350    0.2580    4.1640 O   0  0  0  0  0  0  0  0  0  0  0  0
   -0.2960    0.5790    2.0120 C   0  0  0  0  0  0  0  0  0  0  0  0
   -1.5590    0.1180    2.4150 C   0  0  0  0  0  0  0  0  0  0  0  0
   -2.4120    0.1410    1.3660 N   0  0  0  0  0  0  0  0  0  0  0  0
   -3.7580   -0.3950    1.5640 C   0  0  0  0  0  0  0  0  0  0  0  0
   -4.4410   -0.8230    0.7290 C   0  0  0  0  0  0  0  0  0  0  0  0
   -5.3810   -1.3950   -0.3030 C   0  0  0  0  0  0  0  0  0  0  0  0
   -6.9170   -2.0080    0.1980 Cl  0  0  0  0  0  0  0  0  0  0  0  0
   -4.9690   -1.4130   -1.5560 C   0  0  0  0  0  0  0  0  0  0  0  0
   -3.7220   -0.8420   -1.7520 F   0  0  0  0  0  0  0  0  0  0  0  0
   -5.6000   -2.0960   -2.6350 C   0  0  0  0  0  0  0  0  0  0  0  0
   -5.2360   -2.1180   -3.9210 C   0  0  0  0  0  0  0  0  0  0  0  0
   -6.1690   -2.9680   -4.6970 C   0  0  0  0  0  0  0  0  0  0  0  0
   -7.1060   -3.4500   -3.6880 C   0  0  0  0  0  0  0  0  0  0  0  0
   -6.8270   -2.9850   -2.5160 C   0  0  0  0  0  0  0  0  0  0  0  0
   -1.7250    0.6020    0.3700 C   0  0  0  0  0  0  0  0  0  0  0  0
   -0.4280    0.8860    0.7000 N   0  0  0  0  0  0  0  0  0  0  0  0
  1  2  1  0
  2  3  1  0
  2 13  1  0
  3  4  1  0
  4  5  1  0
  5  6  2  0
  5  7  1  0
  7  8  1  0
  8  9  2  0
  8 12  1  0
  9 10  1  0
 10 11  2  0
 11 12  1  0
 13 14  2  0
 13 15  1  0
 15 16  2  0
 15 30  1  0
 16 17  1  0
 17 18  1  0
 17 29  1  0
 18 19  2  3
 19 20  1  0
 20 21  1  0
 20 22  2  3
 22 23  1  0
 22 24  1  0
 24 25  2  0
 24 28  1  0
 25 26  1  0
 26 27  1  0
 27 28  2  0
 29 30  2  0
M  END
