
     RDKit          3D

 20 20  0  0  0  0  0  0  0  0999 V2000
    1.1760    1.4690    0.0210 C   0  0  0  0  0  0  0  0  0  0  0  0
    1.5180    0.3240   -0.7900 N   0  0  0  0  0  0  0  0  0  0  0  0
    2.8920    0.1020   -1.1700 C   0  0  0  0  0  0  0  0  0  0  0  0
    3.7590   -0.6560   -0.2790 C   0  0  2  0  0  0  0  0  0  0  0  0
    5.0250   -0.7360   -0.9330 O   0  0  0  0  0  0  0  0  0  0  0  0
    3.3500   -2.0260    0.1340 C   0  0  0  0  0  0  0  0  0  0  0  0
    4.0850   -2.2920    1.3070 O   0  0  0  0  0  0  0  0  0  0  0  0
    4.1930   -1.1040    1.9200 O   0  0  0  0  0  0  0  0  0  0  0  0
    4.0840   -0.0490    1.0340 C   0  0  0  0  0  0  0  0  0  0  0  0
    4.2400    1.1500    1.3400 O   0  0  0  0  0  0  0  0  0  0  0  0
    0.5620   -0.5990   -1.2130 C   0  0  0  0  0  0  0  0  0  0  0  0
    1.0480   -1.5490   -1.9920 O   0  0  0  0  0  0  0  0  0  0  0  0
   -0.8450   -0.7730   -1.0070 C   0  0  0  0  0  0  0  0  0  0  0  0
   -1.6170    0.0820   -0.2070 N   0  0  0  0  0  0  0  0  0  0  0  0
   -3.0460   -0.1960   -0.0950 C   0  0  0  0  0  0  0  0  0  0  0  0
   -3.5760   -0.9280   -1.0200 N   0  0  0  0  0  0  0  0  0  0  0  0
   -3.7930    0.3250    0.9930 N   0  0  0  0  0  0  0  0  0  0  0  0
   -5.4890   -0.2570    1.2690 P   0  0  0  0  0  0  0  0  0  0  0  0
   -5.8560   -0.1080    2.9460 O   0  0  0  0  0  0  0  0  0  0  0  0
   -6.5920    0.7180    0.3160 O   0  0  0  0  0  0  0  0  0  0  0  0
  1  2  1  0
  2  3  1  0
  2 11  1  0
  3  4  1  0
  4  5  1  6
  4  6  1  0
  4  9  1  0
  6  7  1  0
  7  8  1  0
  8  9  1  0
  9 10  2  0
 11 12  2  0
 11 13  1  0
 13 14  1  0
 14 15  1  0
 15 16  2  0
 15 17  1  0
 17 18  1  0
 18 19  1  0
 18 20  1  0
M  END
