
     RDKit          3D

 20 21  0  0  0  0  0  0  0  0999 V2000
    2.7430    0.6920    1.2250 N   0  0  0  0  0  0  0  0  0  0  0  0
    2.8790   -0.0540    0.1890 C   0  0  0  0  0  0  0  0  0  0  0  0
    4.1940   -0.5380   -0.0540 N   0  0  0  0  0  0  0  0  0  0  0  0
    5.6150    0.5770    0.1520 P   0  0  0  0  0  0  0  0  0  0  0  0
    5.1580    2.0290    0.9440 O   0  0  0  0  0  0  0  0  0  0  0  0
    6.8410   -0.2780    1.0470 O   0  0  0  0  0  0  0  0  0  0  0  0
    1.8260   -0.4220   -0.6830 N   0  0  0  0  0  0  0  0  0  0  0  0
    0.4820    0.0050   -0.3860 C   0  0  0  0  0  0  0  0  0  0  0  0
   -0.5650   -0.2930   -1.1250 C   0  0  0  0  0  0  0  0  0  0  0  0
   -1.8590    0.1930   -0.7260 N   0  0  0  0  0  0  0  0  0  0  0  0
   -2.8410   -0.7120   -0.1540 C   0  0  0  0  0  0  0  0  0  0  0  0
   -4.0870    0.0740    0.1630 C   0  0  2  0  0  0  0  0  0  0  0  0
   -3.8270    1.1020    1.0790 O   0  0  0  0  0  0  0  0  0  0  0  0
   -5.1250    1.3880    1.5210 C   0  0  0  0  0  0  0  0  0  0  0  0
   -5.7130    0.1450    1.5960 O   0  0  0  0  0  0  0  0  0  0  0  0
   -5.0380   -0.6640    0.8290 O   0  0  0  0  0  0  0  0  0  0  0  0
   -0.4490   -1.1090   -2.3500 C   0  0  0  0  0  0  0  0  0  0  0  0
    0.8660   -1.5120   -2.6160 O   0  0  0  0  0  0  0  0  0  0  0  0
    1.9770   -1.2060   -1.8490 C   0  0  0  0  0  0  0  0  0  0  0  0
    3.1300   -1.6170   -2.1760 O   0  0  0  0  0  0  0  0  0  0  0  0
  1  2  2  0
  2  3  1  0
  2  7  1  0
  3  4  1  0
  4  5  1  0
  4  6  1  0
  7  8  1  0
  7 19  1  0
  8  9  2  0
  9 10  1  0
  9 17  1  0
 10 11  1  0
 12 11  1  1
 12 13  1  0
 12 16  1  0
 13 14  1  0
 14 15  1  0
 15 16  1  0
 17 18  1  0
 18 19  1  0
 19 20  2  0
M  END
