
     RDKit          3D

 20 21  0  0  0  0  0  0  0  0999 V2000
    1.2060    1.3560   -0.6880 O   0  0  0  0  0  0  0  0  0  0  0  0
    1.0850    0.1580   -0.8400 C   0  0  0  0  0  0  0  0  0  0  0  0
    2.2110   -0.5280   -1.3780 O   0  0  0  0  0  0  0  0  0  0  0  0
    3.3190    0.3440   -1.7190 C   0  0  0  0  0  0  0  0  0  0  0  0
    3.9230    1.0130   -0.7560 O   0  0  0  0  0  0  0  0  0  0  0  0
    4.7030    0.1840    0.4580 P   0  0  0  0  0  0  0  0  0  0  0  0
    4.7440   -1.4960    0.4460 O   0  0  0  0  0  0  0  0  0  0  0  0
    4.7660    0.9320    1.9780 O   0  0  0  0  0  0  0  0  0  0  0  0
   -0.0370   -0.4790   -0.5170 O   0  0  0  0  0  0  0  0  0  0  0  0
   -1.2740   -0.1290   -0.0640 C   0  0  1  0  0  0  0  0  0  0  0  0
   -1.3510    0.6040    1.2360 C   0  0  0  0  0  0  0  0  0  0  0  0
   -2.1450    0.2130    2.3010 N   0  0  0  0  0  0  0  0  0  0  0  0
   -1.9850    1.0980    3.3150 C   0  0  0  0  0  0  0  0  0  0  0  0
   -1.1320    2.0120    2.9040 N   0  0  0  0  0  0  0  0  0  0  0  0
   -0.7510    1.7120    1.6630 N   0  0  0  0  0  0  0  0  0  0  0  0
   -2.0820    0.7040   -1.0480 C   0  0  0  0  0  0  0  0  0  0  0  0
   -2.5320   -0.0380   -2.1210 O   0  0  0  0  0  0  0  0  0  0  0  0
   -3.2470   -1.1560   -1.7730 C   0  0  0  0  0  0  0  0  0  0  0  0
   -2.2760   -2.0790   -1.0070 C   0  0  0  0  0  0  0  0  0  0  0  0
   -1.9570   -1.4130    0.1930 N   0  0  0  0  0  0  0  0  0  0  0  0
  1  2  2  0
  2  3  1  0
  2  9  1  0
  3  4  1  0
  4  5  1  0
  5  6  1  0
  6  7  1  0
  6  8  1  0
 10  9  1  6
 10 11  1  0
 10 16  1  0
 10 20  1  0
 11 12  1  0
 11 15  2  0
 12 13  2  0
 13 14  1  0
 14 15  1  0
 16 17  1  0
 17 18  1  0
 18 19  1  0
 19 20  1  0
M  END
