
     RDKit          3D

 28 30  0  0  0  0  0  0  0  0999 V2000
   -6.9680   -0.7140   -1.8770 N   0  0  0  0  0  0  0  0  0  0  0  0
   -6.0190   -0.9460   -0.7890 C   0  0  0  0  0  0  0  0  0  0  0  0
   -4.8640   -0.2710   -0.7540 N   0  0  0  0  0  0  0  0  0  0  0  0
   -4.0260   -0.5660    0.2720 C   0  0  0  0  0  0  0  0  0  0  0  0
   -4.3140   -1.4830    1.2330 C   0  0  0  0  0  0  0  0  0  0  0  0
   -3.3090   -1.5260    2.0960 N   0  0  0  0  0  0  0  0  0  0  0  0
   -2.3780   -0.6420    1.6990 C   0  0  0  0  0  0  0  0  0  0  0  0
   -2.7970   -0.0160    0.5510 N   0  0  0  0  0  0  0  0  0  0  0  0
   -2.0670    0.9110   -0.2240 C   0  0  2  0  0  0  0  0  0  0  0  0
   -0.8330    0.3270   -0.5440 O   0  0  0  0  0  0  0  0  0  0  0  0
    0.1660    1.0740   -0.0040 C   0  0  2  0  0  0  0  0  0  0  0  0
    1.0950    0.1450    0.6960 C   0  0  0  0  0  0  0  0  0  0  0  0
    2.3050    0.7870    0.9740 O   0  0  0  0  0  0  0  0  0  0  0  0
    3.5860    0.0310    0.2270 P   0  0  0  0  0  0  0  0  0  0  0  0
    2.7290   -1.0320   -0.4200 O   0  0  0  0  0  0  0  0  0  0  0  0
    3.9090    0.8000   -1.2770 O   0  0  0  0  0  0  0  0  0  0  0  0
    4.6170   -1.0190    0.8420 O   0  0  0  0  0  0  0  0  0  0  0  0
    6.2360   -0.7780    0.4600 P   0  0  0  0  0  0  0  0  0  0  0  0
    6.0770   -1.5150   -0.9000 N   0  0  0  0  0  0  0  0  0  0  0  0
    6.7270    0.6420   -0.2430 O   0  0  0  0  0  0  0  0  0  0  0  0
    7.3340   -1.7490    1.1170 O   0  0  0  0  0  0  0  0  0  0  0  0
   -0.4080    2.1910    0.7740 C   0  0  1  0  0  0  0  0  0  0  0  0
    0.2700    3.4160    0.4770 O   0  0  0  0  0  0  0  0  0  0  0  0
   -1.8100    2.2720    0.1650 C   0  0  1  0  0  0  0  0  0  0  0  0
   -1.5800    3.0350   -1.0540 O   0  0  0  0  0  0  0  0  0  0  0  0
   -5.5410   -2.1700    1.1470 C   0  0  0  0  0  0  0  0  0  0  0  0
   -5.7980   -3.0160    2.0420 O   0  0  0  0  0  0  0  0  0  0  0  0
   -6.3380   -1.8650    0.1270 N   0  0  0  0  0  0  0  0  0  0  0  0
  1  2  1  0
  2  3  2  0
  2 28  1  0
  3  4  1  0
  4  5  2  0
  4  8  1  0
  5  6  1  0
  5 26  1  0
  6  7  2  0
  7  8  1  0
  9  8  1  1
  9 10  1  0
  9 24  1  0
 10 11  1  0
 11 12  1  1
 11 22  1  0
 12 13  1  0
 13 14  1  0
 14 15  1  0
 14 16  1  0
 14 17  1  0
 17 18  1  0
 18 19  1  0
 18 20  1  0
 18 21  1  0
 22 23  1  6
 22 24  1  0
 24 25  1  6
 26 27  2  0
 26 28  1  0
M  END
