
     RDKit          3D

 20 20  0  0  0  0  0  0  0  0999 V2000
   -2.8000    3.7570    0.0950 C   0  0  0  0  0  0  0  0  0  0  0  0
   -2.4580    2.3830    0.2810 O   0  0  0  0  0  0  0  0  0  0  0  0
   -2.4440    1.5120   -0.7650 C   0  0  0  0  0  0  0  0  0  0  0  0
   -2.7170    1.9870   -1.9270 O   0  0  0  0  0  0  0  0  0  0  0  0
   -2.1450    0.0590   -0.7300 C   0  0  2  0  0  0  0  0  0  0  0  0
   -3.3420   -0.5730   -0.1440 N   0  0  0  0  0  0  0  0  0  0  0  0
   -1.0220   -0.3330    0.1990 C   0  0  2  0  0  0  0  0  0  0  0  0
    0.1620   -0.0370   -0.2620 O   0  0  0  0  0  0  0  0  0  0  0  0
    1.1620   -0.6830   -0.5370 O   0  0  0  0  0  0  0  0  0  0  0  0
    2.1230   -0.8420    0.4780 C   0  0  0  0  0  0  0  0  0  0  0  0
    3.2200    0.1350   -0.0220 C   0  0  1  0  0  0  0  0  0  0  0  0
    2.3900    1.3580   -0.1160 O   0  0  0  0  0  0  0  0  0  0  0  0
    4.4780    0.5180    1.2040 P   0  0  0  0  0  0  0  0  0  0  0  0
    5.9640   -0.3490    0.9220 O   0  0  0  0  0  0  0  0  0  0  0  0
    4.8790    2.2360    1.0010 O   0  0  0  0  0  0  0  0  0  0  0  0
   -1.1300   -1.8040    0.4630 C   0  0  0  0  0  0  0  0  0  0  0  0
   -0.1950   -2.5780    0.9980 N   0  0  0  0  0  0  0  0  0  0  0  0
   -0.7160   -3.8460    1.1500 C   0  0  0  0  0  0  0  0  0  0  0  0
   -1.9340   -3.8410    0.7150 N   0  0  0  0  0  0  0  0  0  0  0  0
   -2.2490   -2.5820    0.2730 N   0  0  0  0  0  0  0  0  0  0  0  0
  1  2  1  0
  2  3  1  0
  3  4  2  0
  3  5  1  0
  5  6  1  1
  5  7  1  0
  7  8  1  6
  7 16  1  0
  8  9  1  0
  9 10  1  0
 10 11  1  0
 11 12  1  1
 11 13  1  0
 13 14  1  0
 13 15  1  0
 16 17  1  0
 16 20  2  0
 17 18  2  0
 18 19  1  0
 19 20  1  0
M  END
