
     RDKit          3D

 20 20  0  0  0  0  0  0  0  0999 V2000
    1.4880   -2.6370   -0.3500 C   0  0  0  0  0  0  0  0  0  0  0  0
    1.6160   -1.2210   -0.6130 N   0  0  0  0  0  0  0  0  0  0  0  0
    0.5670   -0.4430   -1.1860 C   0  0  0  0  0  0  0  0  0  0  0  0
   -0.6080   -0.2760   -0.2930 C   0  0  0  0  0  0  0  0  0  0  0  0
   -0.8500   -0.6940    0.8810 N   0  0  0  0  0  0  0  0  0  0  0  0
   -2.1010   -0.2800    1.3170 O   0  0  0  0  0  0  0  0  0  0  0  0
   -2.7950    0.0790    0.1610 C   0  0  1  0  0  0  0  0  0  0  0  0
   -3.4960   -1.0880   -0.4910 C   0  0  0  0  0  0  0  0  0  0  0  0
   -4.1550   -0.6170   -1.6350 O   0  0  0  0  0  0  0  0  0  0  0  0
   -3.7260    1.2370    0.3320 C   0  0  0  0  0  0  0  0  0  0  0  0
   -2.9760    2.4380    0.7630 C   0  0  0  0  0  0  0  0  0  0  0  0
   -2.2660    3.0880   -0.0420 O   0  0  0  0  0  0  0  0  0  0  0  0
   -3.0860    2.8200    2.0900 O   0  0  0  0  0  0  0  0  0  0  0  0
   -1.7310    0.4600   -0.6990 O   0  0  0  0  0  0  0  0  0  0  0  0
    2.8360   -0.6140   -0.2800 C   0  0  0  0  0  0  0  0  0  0  0  0
    3.9220   -1.2760   -0.3520 N   0  0  0  0  0  0  0  0  0  0  0  0
    2.8530    0.7290    0.1320 N   0  0  0  0  0  0  0  0  0  0  0  0
    4.4530    1.5840    0.1080 P   0  0  0  0  0  0  0  0  0  0  0  0
    5.7470    0.4530   -0.0580 O   0  0  0  0  0  0  0  0  0  0  0  0
    4.6030    2.4010    1.6300 O   0  0  0  0  0  0  0  0  0  0  0  0
  1  2  1  0
  2  3  1  0
  2 15  1  0
  3  4  1  0
  4  5  2  0
  4 14  1  0
  5  6  1  0
  6  7  1  0
  7  8  1  6
  7 10  1  0
  7 14  1  0
  8  9  1  0
 10 11  1  0
 11 12  2  0
 11 13  1  0
 15 16  2  0
 15 17  1  0
 17 18  1  0
 18 19  1  0
 18 20  1  0
M  END
