
     RDKit          3D

 42 46  0  0  0  0  0  0  0  0999 V2000
   -8.1370   -2.5940   -2.5560 C   0  0  0  0  0  0  0  0  0  0  0  0
   -7.3770   -2.9510   -1.5330 C   0  0  0  0  0  0  0  0  0  0  0  0
   -7.1600   -2.0530   -0.4570 N   0  0  0  0  0  0  0  0  0  0  0  0
   -7.8680   -2.1020    0.8060 C   0  0  0  0  0  0  0  0  0  0  0  0
   -8.1040   -0.3010    1.1080 S   0  0  0  0  0  0  0  0  0  0  0  0
   -7.0210    0.3010   -0.2540 C   0  0  0  0  0  0  0  0  0  0  0  0
   -6.2010   -0.9570   -0.4640 C   0  0  1  0  0  0  0  0  0  0  0  0
   -5.1610   -1.1340    0.6120 C   0  0  0  0  0  0  0  0  0  0  0  0
   -4.1530   -0.0510    0.6580 C   0  0  0  0  0  0  0  0  0  0  0  0
   -4.3880    1.0810    1.1280 O   0  0  0  0  0  0  0  0  0  0  0  0
   -2.8680   -0.2620    0.1670 O   0  0  0  0  0  0  0  0  0  0  0  0
   -1.8590    0.7320    0.1800 C   0  0  1  0  0  0  0  0  0  0  0  0
   -0.8000    0.3080    1.1270 C   0  0  0  0  0  0  0  0  0  0  0  0
   -0.9050   -0.8080    1.7440 O   0  0  0  0  0  0  0  0  0  0  0  0
    0.3640    1.0470    1.4320 N   0  0  0  0  0  0  0  0  0  0  0  0
    1.3660    0.5790    2.3710 C   0  0  2  0  0  0  0  0  0  0  0  0
    1.9690   -0.7050    1.9380 C   0  0  0  0  0  0  0  0  0  0  0  0
    1.6120   -1.2460    0.8600 O   0  0  0  0  0  0  0  0  0  0  0  0
    2.9190   -1.3130    2.7070 O   0  0  0  0  0  0  0  0  0  0  0  0
    3.5720   -2.5020    2.4380 C   0  0  0  0  0  0  0  0  0  0  0  0
    4.4160   -2.4980    1.2100 C   0  0  0  0  0  0  0  0  0  0  0  0
    4.9430   -3.6000    0.9180 O   0  0  0  0  0  0  0  0  0  0  0  0
    4.6460   -1.3810    0.3980 N   0  0  0  0  0  0  0  0  0  0  0  0
    5.4450   -1.3520   -0.7840 C   0  0  0  0  0  0  0  0  0  0  0  0
    5.7940   -2.4690   -1.4930 C   0  0  0  0  0  0  0  0  0  0  0  0
    6.6100   -2.3680   -2.6130 C   0  0  0  0  0  0  0  0  0  0  0  0
    7.0720   -1.1520   -3.0190 C   0  0  0  0  0  0  0  0  0  0  0  0
    6.7390   -0.0190   -2.3320 C   0  0  0  0  0  0  0  0  0  0  0  0
    5.9400   -0.1270   -1.2370 C   0  0  0  0  0  0  0  0  0  0  0  0
    7.4120    1.1210   -3.0410 C   0  0  0  0  0  0  0  0  0  0  0  0
    8.4960    0.4040   -3.8190 C   0  0  0  0  0  0  0  0  0  0  0  0
    7.8940   -0.8700   -4.1110 O   0  0  0  0  0  0  0  0  0  0  0  0
    0.6500    0.3760    3.7080 C   0  0  0  0  0  0  0  0  0  0  0  0
    1.5860    0.8470    4.7690 C   0  0  0  0  0  0  0  0  0  0  0  0
    2.7060    1.5940    4.1010 C   0  0  0  0  0  0  0  0  0  0  0  0
    2.3750    1.6500    2.6240 C   0  0  0  0  0  0  0  0  0  0  0  0
   -1.2850    0.9490   -1.1840 C   0  0  1  0  0  0  0  0  0  0  0  0
   -2.3400    1.2310   -2.2310 C   0  0  0  0  0  0  0  0  0  0  0  0
   -2.9930    2.5260   -1.9120 C   0  0  0  0  0  0  0  0  0  0  0  0
   -2.0670    3.5720   -1.3860 C   0  0  0  0  0  0  0  0  0  0  0  0
   -0.6360    3.1940   -1.3710 C   0  0  0  0  0  0  0  0  0  0  0  0
   -0.3090    1.8880   -1.2920 O   0  0  0  0  0  0  0  0  0  0  0  0
  1  2  2  0
  2  3  1  0
  3  4  1  0
  3  7  1  0
  4  5  1  0
  5  6  1  0
  6  7  1  0
  7  8  1  1
  8  9  1  0
  9 10  2  0
  9 11  1  0
 12 11  1  6
 12 13  1  0
 12 37  1  0
 13 14  2  0
 13 15  1  0
 16 15  1  6
 16 17  1  0
 16 33  1  0
 16 36  1  0
 17 18  2  0
 17 19  1  0
 19 20  1  0
 20 21  1  0
 21 22  2  0
 21 23  1  0
 23 24  1  0
 24 25  2  0
 24 29  1  0
 25 26  1  0
 26 27  2  0
 27 28  1  0
 27 32  1  0
 28 29  2  0
 28 30  1  0
 30 31  1  0
 31 32  1  0
 33 34  1  0
 34 35  1  0
 35 36  1  0
 37 38  1  6
 37 42  1  0
 38 39  1  0
 39 40  1  0
 40 41  1  0
 41 42  1  0
M  END
