
     RDKit          3D

 42 46  0  0  0  0  0  0  0  0999 V2000
   -7.1750   -2.7130   -3.0350 C   0  0  0  0  0  0  0  0  0  0  0  0
   -6.6680   -2.6230   -1.6270 C   0  0  0  0  0  0  0  0  0  0  0  0
   -5.8840   -3.4810   -1.2680 O   0  0  0  0  0  0  0  0  0  0  0  0
   -7.0800   -1.5660   -0.7050 C   0  0  0  0  0  0  0  0  0  0  0  0
   -6.0810   -0.4290   -0.5690 C   0  0  2  0  0  0  0  0  0  0  0  0
   -6.4770    0.5320    0.2770 O   0  0  0  0  0  0  0  0  0  0  0  0
   -7.6430    1.1780    0.1970 C   0  0  0  0  0  0  0  0  0  0  0  0
   -7.9700    1.9320   -1.0670 C   0  0  0  0  0  0  0  0  0  0  0  0
   -9.6000    2.7780   -0.8760 S   0  0  0  0  0  0  0  0  0  0  0  0
   -5.5370   -0.0710   -1.8980 C   0  0  0  0  0  0  0  0  0  0  0  0
   -4.0960    0.3600   -1.7640 C   0  0  0  0  0  0  0  0  0  0  0  0
   -3.3340    0.1850   -2.6890 O   0  0  0  0  0  0  0  0  0  0  0  0
   -3.6790    0.9810   -0.5020 C   0  0  0  0  0  0  0  0  0  0  0  0
   -3.9010   -0.0290    0.6070 C   0  0  2  0  0  0  0  0  0  0  0  0
   -2.5840   -0.6110    0.9590 C   0  0  0  0  0  0  0  0  0  0  0  0
   -1.7840   -1.4320    0.1790 C   0  0  0  0  0  0  0  0  0  0  0  0
   -0.6720   -1.7070    0.9370 C   0  0  0  0  0  0  0  0  0  0  0  0
   -0.8330   -1.0440    2.1500 C   0  0  0  0  0  0  0  0  0  0  0  0
    0.1770   -1.1070    3.2350 C   0  0  0  0  0  0  0  0  0  0  0  0
    1.1800   -0.0660    3.1110 N   0  0  0  0  0  0  0  0  0  0  0  0
    1.0650    1.1470    3.6680 C   0  0  0  0  0  0  0  0  0  0  0  0
    0.0570    1.4280    4.3320 O   0  0  0  0  0  0  0  0  0  0  0  0
    2.0230    2.0960    3.5320 N   0  0  0  0  0  0  0  0  0  0  0  0
    3.1430    1.8640    2.8280 C   0  0  0  0  0  0  0  0  0  0  0  0
    4.1370    2.7940    2.6660 C   0  0  0  0  0  0  0  0  0  0  0  0
    5.2650    2.5020    1.9340 C   0  0  0  0  0  0  0  0  0  0  0  0
    5.4600    1.2570    1.3210 C   0  0  0  0  0  0  0  0  0  0  0  0
    6.6200    1.0230    0.5910 N   0  0  0  0  0  0  0  0  0  0  0  0
    6.9720   -0.1970   -0.0120 C   0  0  0  0  0  0  0  0  0  0  0  0
    6.2570   -1.2150    0.0520 O   0  0  0  0  0  0  0  0  0  0  0  0
    8.2510   -0.3060   -0.7670 C   0  0  1  0  0  0  0  0  0  0  0  0
    8.3670   -1.7050   -1.3120 C   0  0  0  0  0  0  0  0  0  0  0  0
    8.5620   -1.5330   -2.7950 C   0  0  0  0  0  0  0  0  0  0  0  0
    8.2420   -0.2360   -3.1050 O   0  0  0  0  0  0  0  0  0  0  0  0
    8.3040    0.5440   -1.9820 C   0  0  2  0  0  0  0  0  0  0  0  0
    9.6050    1.3560   -1.9050 C   0  0  0  0  0  0  0  0  0  0  0  0
    4.4510    0.3510    1.5000 C   0  0  0  0  0  0  0  0  0  0  0  0
    3.3090    0.6410    2.2390 C   0  0  0  0  0  0  0  0  0  0  0  0
    2.2960   -0.3130    2.4020 C   0  0  0  0  0  0  0  0  0  0  0  0
    2.4410   -1.4520    1.8590 O   0  0  0  0  0  0  0  0  0  0  0  0
   -1.9740   -0.4130    2.1140 O   0  0  0  0  0  0  0  0  0  0  0  0
   -4.8690   -1.1090    0.1750 C   0  0  0  0  0  0  0  0  0  0  0  0
  1  2  1  0
  2  3  2  0
  2  4  1  0
  5  4  1  6
  5  6  1  0
  5 10  1  0
  5 42  1  0
  6  7  1  0
  7  8  1  0
  8  9  1  0
 10 11  1  0
 11 12  2  0
 11 13  1  0
 13 14  1  0
 14 15  1  6
 14 42  1  0
 15 16  2  0
 15 41  1  0
 16 17  1  0
 17 18  2  0
 18 19  1  0
 18 41  1  0
 19 20  1  0
 20 21  1  0
 20 39  1  0
 21 22  2  0
 21 23  1  0
 23 24  1  0
 24 25  2  0
 24 38  1  0
 25 26  1  0
 26 27  2  0
 27 28  1  0
 27 37  1  0
 28 29  1  0
 29 30  2  0
 31 29  1  6
 31 32  1  0
 31 35  1  0
 32 33  1  0
 33 34  1  0
 34 35  1  0
 35 36  1  6
 37 38  2  0
 38 39  1  0
 39 40  2  0
M  END
