
     RDKit          3D

 42 45  0  0  0  0  0  0  0  0999 V2000
   -7.6820   -2.6780   -1.9830 C   0  0  0  0  0  0  0  0  0  0  0  0
   -7.3190   -2.0200   -0.7110 C   0  0  2  0  0  0  0  0  0  0  0  0
   -7.9490   -2.5740    0.4190 O   0  0  0  0  0  0  0  0  0  0  0  0
   -7.5840   -1.8630    1.5560 C   0  0  1  0  0  0  0  0  0  0  0  0
   -6.3490   -0.9750    1.3750 C   0  0  0  0  0  0  0  0  0  0  0  0
   -6.4260   -0.0060    0.2710 C   0  0  1  0  0  0  0  0  0  0  0  0
   -5.2200   -0.1970   -0.6570 C   0  0  0  0  0  0  0  0  0  0  0  0
   -5.4800   -0.4670   -1.7880 O   0  0  0  0  0  0  0  0  0  0  0  0
   -3.9170    0.0040   -0.1530 C   0  0  0  0  0  0  0  0  0  0  0  0
   -3.4920    0.3440    1.1870 C   0  0  0  0  0  0  0  0  0  0  0  0
   -2.1880    0.9420    1.3210 C   0  0  0  0  0  0  0  0  0  0  0  0
   -1.2870    1.1860    0.2670 C   0  0  0  0  0  0  0  0  0  0  0  0
   -0.1360    2.0510    0.2840 C   0  0  2  0  0  0  0  0  0  0  0  0
   -0.5530    3.4180   -0.3310 C   0  0  0  0  0  0  0  0  0  0  0  0
   -1.4420    4.2360    0.4910 C   0  0  0  0  0  0  0  0  0  0  0  0
   -1.6010    5.4730   -0.2260 O   0  0  0  0  0  0  0  0  0  0  0  0
    1.0360    1.7180   -0.3760 C   0  0  0  0  0  0  0  0  0  0  0  0
    1.0880    2.2240   -1.6870 O   0  0  0  0  0  0  0  0  0  0  0  0
    2.2470    1.0500   -0.1240 C   0  0  0  0  0  0  0  0  0  0  0  0
    2.4340    0.1290    0.7510 O   0  0  0  0  0  0  0  0  0  0  0  0
    3.4070    1.4980   -0.9420 N   0  0  0  0  0  0  0  0  0  0  0  0
    4.5620    0.7630   -0.5850 C   0  0  0  0  0  0  0  0  0  0  0  0
    4.9910    0.6730    0.6010 C   0  0  0  0  0  0  0  0  0  0  0  0
    6.0410   -0.0730    1.1360 C   0  0  0  0  0  0  0  0  0  0  0  0
    6.6770   -0.7910    0.1200 C   0  0  0  0  0  0  0  0  0  0  0  0
    7.9110   -1.4320    0.2970 N   0  0  0  0  0  0  0  0  0  0  0  0
    9.0580   -0.6980    0.6920 C   0  0  0  0  0  0  0  0  0  0  0  0
    9.3550    0.4160   -0.3050 C   0  0  0  0  0  0  0  0  0  0  0  0
    8.5770    1.6570    0.3000 C   0  0  0  0  0  0  0  0  0  0  0  0
    7.8630    2.7530    0.8520 N   0  0  0  0  0  0  0  0  0  0  0  0
    8.0310   -2.7380   -0.3660 C   0  0  0  0  0  0  0  0  0  0  0  0
    8.5680   -2.8240   -1.4480 O   0  0  0  0  0  0  0  0  0  0  0  0
    7.4260   -3.9510    0.3250 C   0  0  0  0  0  0  0  0  0  0  0  0
    8.4240   -4.8820    0.5080 O   0  0  0  0  0  0  0  0  0  0  0  0
    6.2370   -0.7300   -1.2100 C   0  0  0  0  0  0  0  0  0  0  0  0
    5.1980    0.0210   -1.6540 C   0  0  0  0  0  0  0  0  0  0  0  0
   -1.8570    0.7730   -0.7940 C   0  0  0  0  0  0  0  0  0  0  0  0
   -2.9500    0.2410   -1.3230 C   0  0  0  0  0  0  0  0  0  0  0  0
   -7.5730   -0.4870   -0.6950 C   0  0  2  0  0  0  0  0  0  0  0  0
   -9.1060   -0.2010    0.1740 S   0  0  0  0  0  0  0  0  0  0  0  0
   -9.3220    1.3280    0.3180 O   0  0  0  0  0  0  0  0  0  0  0  0
   -8.8060   -0.8860    1.7920 C   0  0  0  0  0  0  0  0  0  0  0  0
  2  1  1  6
  2  3  1  0
  2 39  1  0
  3  4  1  0
  4  5  1  6
  4 42  1  0
  5  6  1  0
  6  7  1  6
 39  6  1  1
  7  8  2  0
  7  9  1  0
  9 10  2  0
  9 38  1  0
 10 11  1  0
 11 12  2  0
 12 13  1  0
 12 37  1  0
 13 14  1  6
 13 17  1  0
 14 15  1  0
 15 16  1  0
 17 18  2  0
 17 19  1  0
 19 20  2  0
 19 21  1  0
 21 22  1  0
 22 23  2  0
 22 36  1  0
 23 24  1  0
 24 25  2  0
 25 26  1  0
 25 35  1  0
 26 27  1  0
 26 31  1  0
 27 28  1  0
 28 29  1  0
 29 30  3  0
 31 32  2  0
 31 33  1  0
 33 34  1  0
 35 36  2  0
 37 38  2  0
 39 40  1  0
 40 41  2  0
 40 42  1  1
M  END
