
     RDKit          3D

 41 44  0  0  0  0  0  0  0  0999 V2000
   -4.5010   -3.8750   -3.2590 C   0  0  0  0  0  0  0  0  0  0  0  0
   -3.1610   -4.0240   -2.9700 O   0  0  0  0  0  0  0  0  0  0  0  0
   -2.3700   -3.3300   -2.0900 C   0  0  0  0  0  0  0  0  0  0  0  0
   -1.0350   -3.6130   -1.9220 C   0  0  0  0  0  0  0  0  0  0  0  0
   -0.2570   -2.9050   -1.0330 C   0  0  0  0  0  0  0  0  0  0  0  0
   -0.7340   -1.8850   -0.2620 C   0  0  0  0  0  0  0  0  0  0  0  0
    0.0570   -1.0850    0.6770 C   0  0  1  0  0  0  0  0  0  0  0  0
   -0.7070   -0.8650    1.8230 O   0  0  0  0  0  0  0  0  0  0  0  0
    1.3850   -1.6700    0.9320 C   0  0  2  0  0  0  0  0  0  0  0  0
    1.1160   -2.9160    1.8100 C   0  0  0  0  0  0  0  0  0  0  0  0
    2.2530   -0.8490    1.7440 N   0  0  0  0  0  0  0  0  0  0  0  0
    2.0620   -0.5900    3.1070 C   0  0  0  0  0  0  0  0  0  0  0  0
    0.8760   -1.1470    4.1140 S   0  0  0  0  0  0  0  0  0  0  0  0
    3.0830    0.2710    3.5680 N   0  0  0  0  0  0  0  0  0  0  0  0
    3.2990    0.8050    4.8980 C   0  0  0  0  0  0  0  0  0  0  0  0
    3.9360    0.5510    2.4300 C   0  0  0  0  0  0  0  0  0  0  0  0
    4.9560    1.2980    2.4950 O   0  0  0  0  0  0  0  0  0  0  0  0
    3.4360   -0.1430    1.2650 C   0  0  0  0  0  0  0  0  0  0  0  0
    3.8560   -0.1930    0.0170 C   0  0  0  0  0  0  0  0  0  0  0  0
    5.0170    0.4930   -0.4800 C   0  0  0  0  0  0  0  0  0  0  0  0
    5.7360    1.1980    0.2300 O   0  0  0  0  0  0  0  0  0  0  0  0
    5.4080    0.3930   -1.8650 N   0  0  0  0  0  0  0  0  0  0  0  0
    6.5590    1.0690   -2.4000 C   0  0  0  0  0  0  0  0  0  0  0  0
    7.8550    0.6650   -1.7820 C   0  0  2  0  0  0  0  0  0  0  0  0
    9.0180    1.4800   -2.3140 C   0  0  0  0  0  0  0  0  0  0  0  0
   10.0690    0.4760   -2.6860 C   0  0  0  0  0  0  0  0  0  0  0  0
    9.4960   -0.8210   -2.1970 C   0  0  0  0  0  0  0  0  0  0  0  0
    8.1630   -0.6600   -1.9310 O   0  0  0  0  0  0  0  0  0  0  0  0
   -2.0940   -1.5860   -0.4240 C   0  0  0  0  0  0  0  0  0  0  0  0
   -2.6090   -0.5740    0.3310 O   0  0  0  0  0  0  0  0  0  0  0  0
   -3.9180   -0.0880    0.3470 C   0  0  0  0  0  0  0  0  0  0  0  0
   -4.0820    1.0510    1.3480 C   0  0  0  0  0  0  0  0  0  0  0  0
   -5.3560    1.5690    1.3970 O   0  0  0  0  0  0  0  0  0  0  0  0
   -5.8020    2.1500    0.2320 C   0  0  2  0  0  0  0  0  0  0  0  0
   -6.1560    3.6240    0.4520 C   0  0  0  0  0  0  0  0  0  0  0  0
   -7.1850    3.6370    1.5530 C   0  0  0  0  0  0  0  0  0  0  0  0
   -8.4650    3.0590    1.0140 C   0  0  0  0  0  0  0  0  0  0  0  0
   -8.2650    2.3210   -0.2780 C   0  0  0  0  0  0  0  0  0  0  0  0
   -7.0350    1.4380   -0.2430 C   0  0  2  0  0  0  0  0  0  0  0  0
   -7.3530    0.3410    0.5460 O   0  0  0  0  0  0  0  0  0  0  0  0
   -2.8800   -2.2960   -1.3150 C   0  0  0  0  0  0  0  0  0  0  0  0
  1  2  1  0
  2  3  1  0
  3  4  2  0
  3 41  1  0
  4  5  1  0
  5  6  2  0
  6  7  1  0
  6 29  1  0
  7  8  1  1
  7  9  1  0
  9 10  1  1
  9 11  1  0
 11 12  1  0
 11 18  1  0
 12 13  2  0
 12 14  1  0
 14 15  1  0
 14 16  1  0
 16 17  2  0
 16 18  1  0
 18 19  2  3
 19 20  1  0
 20 21  2  0
 20 22  1  0
 22 23  1  0
 24 23  1  6
 24 25  1  0
 24 28  1  0
 25 26  1  0
 26 27  1  0
 27 28  1  0
 29 30  1  0
 29 41  2  0
 30 31  1  0
 31 32  1  0
 32 33  1  0
 34 33  1  1
 34 35  1  0
 34 39  1  0
 35 36  1  0
 36 37  1  0
 37 38  1  0
 38 39  1  0
 39 40  1  1
M  END
