
     RDKit          3D

 42 45  0  0  0  0  0  0  0  0999 V2000
   -5.3000   -6.5900    1.6330 C   0  0  0  0  0  0  0  0  0  0  0  0
   -4.8270   -5.2660    1.1550 C   0  0  0  0  0  0  0  0  0  0  0  0
   -4.2890   -4.3480    2.0320 C   0  0  0  0  0  0  0  0  0  0  0  0
   -3.8480   -3.1050    1.5660 C   0  0  0  0  0  0  0  0  0  0  0  0
   -3.9630   -2.8240    0.2280 C   0  0  0  0  0  0  0  0  0  0  0  0
   -3.5540   -1.6320   -0.2970 O   0  0  0  0  0  0  0  0  0  0  0  0
   -2.9800   -0.5450    0.3740 C   0  0  2  0  0  0  0  0  0  0  0  0
   -3.7520    0.7120    0.1390 C   0  0  0  0  0  0  0  0  0  0  0  0
   -4.7640    0.6730   -0.5810 O   0  0  0  0  0  0  0  0  0  0  0  0
   -3.3500    1.9350    0.7220 N   0  0  0  0  0  0  0  0  0  0  0  0
   -4.1130    3.0960    0.4700 C   0  0  0  0  0  0  0  0  0  0  0  0
   -3.5190    4.1190   -0.1200 C   0  0  0  0  0  0  0  0  0  0  0  0
   -4.0680    5.4160   -0.4890 C   0  0  0  0  0  0  0  0  0  0  0  0
   -5.3440    5.7390   -0.5390 C   0  0  0  0  0  0  0  0  0  0  0  0
   -6.5650    4.9800   -0.2670 C   0  0  2  0  0  0  0  0  0  0  0  0
   -7.6380    5.9790    0.1880 C   0  0  0  0  0  0  0  0  0  0  0  0
   -6.4660    4.0170    0.7390 O   0  0  0  0  0  0  0  0  0  0  0  0
   -5.4920    3.0240    0.9010 C   0  0  0  0  0  0  0  0  0  0  0  0
   -5.8400    1.9610    1.4750 O   0  0  0  0  0  0  0  0  0  0  0  0
   -1.6450   -0.3030   -0.2810 C   0  0  0  0  0  0  0  0  0  0  0  0
   -1.2270   -1.0010   -1.2370 O   0  0  0  0  0  0  0  0  0  0  0  0
   -0.8590    0.7280    0.1910 O   0  0  0  0  0  0  0  0  0  0  0  0
    0.3820    0.9880   -0.3850 C   0  0  0  0  0  0  0  0  0  0  0  0
    1.3040   -0.1990   -0.2740 C   0  0  0  0  0  0  0  0  0  0  0  0
    0.9150   -1.2560    0.2870 O   0  0  0  0  0  0  0  0  0  0  0  0
    2.6150   -0.1720   -0.7870 N   0  0  0  0  0  0  0  0  0  0  0  0
    3.4970   -1.3260   -0.6750 C   0  0  0  0  0  0  0  0  0  0  0  0
    4.8420   -1.0540   -1.2960 C   0  0  2  0  0  0  0  0  0  0  0  0
    5.6610   -2.1520   -1.1810 O   0  0  0  0  0  0  0  0  0  0  0  0
    5.8650   -2.5160    0.1450 C   0  0  0  0  0  0  0  0  0  0  0  0
    6.2140   -1.3550    1.0280 C   0  0  0  0  0  0  0  0  0  0  0  0
    6.4540   -0.1390    0.3230 N   0  0  0  0  0  0  0  0  0  0  0  0
    6.5500    0.9560    1.2440 C   0  0  0  0  0  0  0  0  0  0  0  0
    7.3420    2.1180    0.6900 C   0  0  2  0  0  0  0  0  0  0  0  0
    7.0340    3.3610    1.4900 C   0  0  0  0  0  0  0  0  0  0  0  0
    7.0270    2.3520   -1.0800 S   0  0  0  0  0  0  0  0  0  0  0  0
    6.3420    0.8580   -1.8350 C   0  0  1  0  0  0  0  0  0  0  0  0
    7.5170   -0.0660   -2.1460 C   0  0  0  0  0  0  0  0  0  0  0  0
    5.5410    0.1380   -0.7410 C   0  0  1  0  0  0  0  0  0  0  0  0
   -4.5070   -3.7430   -0.6780 C   0  0  0  0  0  0  0  0  0  0  0  0
   -4.9280   -4.9520   -0.1840 C   0  0  0  0  0  0  0  0  0  0  0  0
   -5.5070   -5.9500   -1.0970 C   0  0  0  0  0  0  0  0  0  0  0  0
  1  2  1  0
  2  3  2  0
  2 41  1  0
  3  4  1  0
  4  5  2  0
  5  6  1  0
  5 40  1  0
  7  6  1  6
  7  8  1  0
  7 20  1  0
  8  9  2  0
  8 10  1  0
 10 11  1  0
 11 12  2  0
 11 18  1  0
 12 13  1  0
 13 14  2  0
 14 15  1  0
 15 16  1  1
 15 17  1  0
 17 18  1  0
 18 19  2  0
 20 21  2  0
 20 22  1  0
 22 23  1  0
 23 24  1  0
 24 25  2  0
 24 26  1  0
 26 27  1  0
 28 27  1  1
 28 29  1  0
 28 39  1  0
 29 30  1  0
 30 31  1  0
 31 32  1  0
 32 33  1  0
 39 32  1  1
 33 34  1  0
 34 35  1  1
 34 36  1  0
 36 37  1  0
 37 38  1  1
 37 39  1  0
 40 41  2  0
 41 42  1  0
M  END
