
     RDKit          3D

 42 46  0  0  0  0  0  0  0  0999 V2000
    5.0110    1.5000   -2.8800 O   0  0  0  0  0  0  0  0  0  0  0  0
    6.1930    1.8030   -3.2070 C   0  0  0  0  0  0  0  0  0  0  0  0
    7.1610    1.7240   -2.1710 N   0  0  0  0  0  0  0  0  0  0  0  0
    6.8540    1.3260   -0.8460 C   0  0  0  0  0  0  0  0  0  0  0  0
    7.8370    1.2920    0.1180 C   0  0  0  0  0  0  0  0  0  0  0  0
    7.5980    0.9100    1.4200 C   0  0  0  0  0  0  0  0  0  0  0  0
    6.3240    0.5480    1.7640 C   0  0  0  0  0  0  0  0  0  0  0  0
    5.3150    0.5780    0.7950 C   0  0  0  0  0  0  0  0  0  0  0  0
    4.0590    0.1960    1.2290 O   0  0  0  0  0  0  0  0  0  0  0  0
    3.6580   -1.1370    1.2940 C   0  0  0  0  0  0  0  0  0  0  0  0
    4.5330   -2.1150    0.9060 C   0  0  0  0  0  0  0  0  0  0  0  0
    4.1430   -3.4280    0.9710 C   0  0  0  0  0  0  0  0  0  0  0  0
    2.8730   -3.7590    1.4250 C   0  0  0  0  0  0  0  0  0  0  0  0
    2.0050   -2.7510    1.8120 C   0  0  0  0  0  0  0  0  0  0  0  0
    2.3890   -1.4440    1.7480 C   0  0  0  0  0  0  0  0  0  0  0  0
    1.5370   -0.4440    2.1280 O   0  0  0  0  0  0  0  0  0  0  0  0
    0.2310   -0.8090    2.6030 C   0  0  0  0  0  0  0  0  0  0  0  0
   -0.5480    0.4160    2.9630 C   0  0  1  0  0  0  0  0  0  0  0  0
   -0.8170    1.2470    1.8930 O   0  0  0  0  0  0  0  0  0  0  0  0
   -1.6520    0.1970    3.9250 C   0  0  0  0  0  0  0  0  0  0  0  0
   -2.7750   -0.3320    3.4460 O   0  0  0  0  0  0  0  0  0  0  0  0
   -2.8740   -1.5900    2.9670 C   0  0  1  0  0  0  0  0  0  0  0  0
   -3.8260   -2.4250    3.8250 C   0  0  0  0  0  0  0  0  0  0  0  0
   -4.6880   -3.3490    3.0050 C   0  0  0  0  0  0  0  0  0  0  0  0
   -5.8420   -2.2280    2.1020 S   0  0  0  0  0  0  0  0  0  0  0  0
   -4.6990   -0.9440    1.4370 C   0  0  2  0  0  0  0  0  0  0  0  0
   -5.1010   -0.5310    0.0680 C   0  0  0  0  0  0  0  0  0  0  0  0
   -4.3550   -0.7470   -0.9040 O   0  0  0  0  0  0  0  0  0  0  0  0
   -6.3440    0.1150   -0.1460 N   0  0  0  0  0  0  0  0  0  0  0  0
   -6.9310    0.6090   -1.3330 C   0  0  0  0  0  0  0  0  0  0  0  0
   -6.2990    1.7340   -2.0550 C   0  0  2  0  0  0  0  0  0  0  0  0
   -7.2310    2.0410   -3.2650 C   0  0  0  0  0  0  0  0  0  0  0  0
   -6.2330    2.0630   -4.3910 C   0  0  0  0  0  0  0  0  0  0  0  0
   -4.9960    2.3250   -3.7940 O   0  0  0  0  0  0  0  0  0  0  0  0
   -5.0320    1.3870   -2.7330 C   0  0  0  0  0  0  0  0  0  0  0  0
   -3.3360   -1.5430    1.5240 C   0  0  0  0  0  0  0  0  0  0  0  0
    5.6210    0.9590   -0.4480 N   0  0  0  0  0  0  0  0  0  0  0  0
    6.4940    2.2010   -4.5660 C   0  0  0  0  0  0  0  0  0  0  0  0
    7.7190    2.4400   -5.1380 C   0  0  0  0  0  0  0  0  0  0  0  0
    7.5030    2.8020   -6.4530 C   0  0  0  0  0  0  0  0  0  0  0  0
    6.2160    2.7810   -6.6600 O   0  0  0  0  0  0  0  0  0  0  0  0
    5.5640    2.4270   -5.5600 C   0  0  0  0  0  0  0  0  0  0  0  0
  1  2  2  0
  2  3  1  0
  2 38  1  0
  3  4  1  0
  4  5  2  0
  4 37  1  0
  5  6  1  0
  6  7  2  0
  7  8  1  0
  8  9  1  0
  8 37  2  0
  9 10  1  0
 10 11  2  0
 10 15  1  0
 11 12  1  0
 12 13  2  0
 13 14  1  0
 14 15  2  0
 15 16  1  0
 16 17  1  0
 17 18  1  0
 18 19  1  6
 18 20  1  0
 20 21  1  0
 22 21  1  1
 22 23  1  0
 22 36  1  0
 23 24  1  0
 24 25  1  0
 25 26  1  0
 26 27  1  6
 26 36  1  0
 27 28  2  0
 27 29  1  0
 29 30  1  0
 31 30  1  6
 31 32  1  0
 31 35  1  0
 32 33  1  0
 33 34  1  0
 34 35  1  0
 38 39  1  0
 38 42  2  0
 39 40  2  0
 40 41  1  0
 41 42  1  0
M  END
