
     RDKit          3D

 42 45  0  0  0  0  0  0  0  0999 V2000
   -5.4420    2.0210   -2.6950 C   0  0  0  0  0  0  0  0  0  0  0  0
   -5.8840    1.9010   -1.4630 C   0  0  0  0  0  0  0  0  0  0  0  0
   -4.9260    2.0820   -0.3500 C   0  0  0  0  0  0  0  0  0  0  0  0
   -4.8480    0.8220    0.4830 C   0  0  1  0  0  0  0  0  0  0  0  0
   -6.2360    0.5630    1.0320 C   0  0  0  0  0  0  0  0  0  0  0  0
   -6.6060   -0.8590    0.8230 C   0  0  0  0  0  0  0  0  0  0  0  0
   -7.7760   -1.2430    0.3610 C   0  0  0  0  0  0  0  0  0  0  0  0
   -8.9050   -0.3910   -0.0240 C   0  0  0  0  0  0  0  0  0  0  0  0
  -10.1360   -0.7220    0.8280 C   0  0  0  0  0  0  0  0  0  0  0  0
   -5.5560   -1.8540    1.1730 C   0  0  0  0  0  0  0  0  0  0  0  0
   -4.4230   -1.6550    0.2050 C   0  0  0  0  0  0  0  0  0  0  0  0
   -4.3670   -0.2900   -0.3980 C   0  0  2  0  0  0  0  0  0  0  0  0
   -2.9590    0.0220   -0.8460 C   0  0  0  0  0  0  0  0  0  0  0  0
   -2.0390    0.1530    0.2590 N   0  0  0  0  0  0  0  0  0  0  0  0
   -0.6760    0.4480    0.0280 C   0  0  0  0  0  0  0  0  0  0  0  0
   -0.3010    0.5900   -1.1840 O   0  0  0  0  0  0  0  0  0  0  0  0
    0.3150    0.6000    1.0580 C   0  0  1  0  0  0  0  0  0  0  0  0
   -0.1680    0.3670    2.4020 O   0  0  0  0  0  0  0  0  0  0  0  0
   -0.4680   -1.0140    2.3750 C   0  0  0  0  0  0  0  0  0  0  0  0
   -1.2770   -2.0030    2.8060 N   0  0  0  0  0  0  0  0  0  0  0  0
   -0.9260   -3.1650    2.3120 N   0  0  0  0  0  0  0  0  0  0  0  0
    0.1430   -2.9850    1.5280 C   0  0  0  0  0  0  0  0  0  0  0  0
    0.7410   -3.8720    0.8880 O   0  0  0  0  0  0  0  0  0  0  0  0
    0.4680   -1.6450    1.5420 C   0  0  0  0  0  0  0  0  0  0  0  0
    1.3310   -0.5830    1.0810 C   0  0  0  0  0  0  0  0  0  0  0  0
    2.5340   -0.5160    0.7100 C   0  0  0  0  0  0  0  0  0  0  0  0
    3.6260   -1.4070    0.6460 C   0  0  0  0  0  0  0  0  0  0  0  0
    3.5560   -2.8070    1.2110 C   0  0  0  0  0  0  0  0  0  0  0  0
    4.8230   -1.0990    0.1670 C   0  0  0  0  0  0  0  0  0  0  0  0
    5.2910    0.1430   -0.3790 C   0  0  0  0  0  0  0  0  0  0  0  0
    4.6230    1.1890   -0.5020 O   0  0  0  0  0  0  0  0  0  0  0  0
    6.6270    0.2640   -0.8410 O   0  0  0  0  0  0  0  0  0  0  0  0
    7.0470    1.4840   -1.3660 C   0  0  0  0  0  0  0  0  0  0  0  0
    8.4410    1.4960   -1.8060 C   0  0  0  0  0  0  0  0  0  0  0  0
    9.3000    2.3410   -1.2610 C   0  0  0  0  0  0  0  0  0  0  0  0
   10.6920    2.4230   -1.6330 C   0  0  0  0  0  0  0  0  0  0  0  0
   11.5700    3.3310   -1.0340 O   0  0  0  0  0  0  0  0  0  0  0  0
   12.5680    2.7040    0.2390 S   0  0  0  0  0  0  0  0  0  0  0  0
   11.6820    1.8260    1.1280 O   0  0  0  0  0  0  0  0  0  0  0  0
   11.1560    1.6220   -2.5650 C   0  0  0  0  0  0  0  0  0  0  0  0
   10.2910    0.7270   -3.1560 O   0  0  0  0  0  0  0  0  0  0  0  0
    8.9380    0.5760   -2.8580 C   0  0  0  0  0  0  0  0  0  0  0  0
  1  2  2  0
  2  3  1  0
  4  3  1  6
  4  5  1  0
  4 12  1  0
  5  6  1  0
  6  7  2  3
  6 10  1  0
  7  8  1  0
  8  9  1  0
 10 11  1  0
 11 12  1  0
 12 13  1  1
 13 14  1  0
 14 15  1  0
 15 16  2  0
 17 15  1  6
 17 18  1  0
 17 25  1  0
 18 19  1  0
 19 20  1  0
 19 24  2  0
 20 21  1  0
 21 22  1  0
 22 23  2  0
 22 24  1  0
 24 25  1  0
 25 26  2  3
 26 27  1  0
 27 28  1  0
 27 29  2  3
 29 30  1  0
 30 31  2  0
 30 32  1  0
 32 33  1  0
 33 34  1  0
 34 35  2  0
 34 42  1  0
 35 36  1  0
 36 37  1  0
 36 40  2  0
 37 38  1  0
 38 39  2  0
 40 41  1  0
 41 42  1  0
M  END
