
     RDKit          3D

 19 19  0  0  0  0  0  0  0  0999 V2000
    0.5470   -1.9120   -0.2650 O   0  0  0  0  0  0  0  0  0  0  0  0
    1.0080   -0.7430   -0.8240 N   0  0  0  0  0  0  0  0  0  0  0  0
    2.4170   -0.3850   -0.8920 C   0  0  0  0  0  0  0  0  0  0  0  0
    2.9620   -0.2500    0.4610 C   0  0  0  0  0  0  0  0  0  0  0  0
    3.4770    0.8390    0.9340 C   0  0  0  0  0  0  0  0  0  0  0  0
    3.6010    2.1060    0.2030 C   0  0  0  0  0  0  0  0  0  0  0  0
    4.9810    2.4160    0.1490 O   0  0  0  0  0  0  0  0  0  0  0  0
    2.9230   -1.4750    1.3390 C   0  0  0  0  0  0  0  0  0  0  0  0
    3.6320   -2.4880    0.7370 O   0  0  0  0  0  0  0  0  0  0  0  0
    0.1720    0.0840   -1.3130 N   0  0  0  0  0  0  0  0  0  0  0  0
   -1.2130   -0.0920   -1.3350 C   0  0  0  0  0  0  0  0  0  0  0  0
   -1.9990    0.3410   -0.3720 C   0  0  0  0  0  0  0  0  0  0  0  0
   -1.2560    1.1650    0.9750 Cl  0  0  0  0  0  0  0  0  0  0  0  0
   -3.4430    0.1590   -0.3940 C   0  0  0  0  0  0  0  0  0  0  0  0
   -4.2690    0.5750    0.5480 C   0  0  0  0  0  0  0  0  0  0  0  0
   -3.8230    1.4260    2.0090 Cl  0  0  0  0  0  0  0  0  0  0  0  0
   -5.6550    0.2030    0.1660 C   0  0  0  0  0  0  0  0  0  0  0  0
   -5.3710   -0.9510   -0.8040 C   0  0  0  0  0  0  0  0  0  0  0  0
   -4.1780   -0.4820   -1.4080 O   0  0  0  0  0  0  0  0  0  0  0  0
  1  2  1  0
  2  3  1  0
  2 10  2  3
  3  4  1  0
  4  5  2  3
  4  8  1  0
  5  6  1  0
  6  7  1  0
  8  9  1  0
 10 11  1  0
 11 12  2  3
 12 13  1  0
 12 14  1  0
 14 15  2  0
 14 19  1  0
 15 16  1  0
 15 17  1  0
 17 18  1  0
 18 19  1  0
M  CHG  2   1  -1   2   1
M  END
