
     RDKit          3D

 20 19  0  0  0  0  0  0  0  0999 V2000
   -2.7590   -2.0850    1.3710 C   0  0  0  0  0  0  0  0  0  0  0  0
   -3.3640   -1.0830    0.4960 C   0  0  0  0  0  0  0  0  0  0  0  0
   -2.6600   -0.3830   -0.4460 C   0  0  0  0  0  0  0  0  0  0  0  0
   -3.4020    0.5380   -1.1950 C   0  0  0  0  0  0  0  0  0  0  0  0
   -3.1990    1.3630   -2.1410 C   0  0  0  0  0  0  0  0  0  0  0  0
   -4.5920    2.3590   -2.7580 Cl  0  0  0  0  0  0  0  0  0  0  0  0
   -1.7270    1.6670   -2.9800 Cl  0  0  0  0  0  0  0  0  0  0  0  0
   -1.2410   -0.7000   -0.4700 C   0  0  2  0  0  0  0  0  0  0  0  0
   -0.3070    0.3580   -0.0110 C   0  0  0  0  0  0  0  0  0  0  0  0
    1.1170   -0.1270   -0.0410 C   0  0  0  0  0  0  0  0  0  0  0  0
    2.1110    0.9540    0.4280 C   0  0  1  0  0  0  0  0  0  0  0  0
    1.7640    1.3260    1.8250 C   0  0  0  0  0  0  0  0  0  0  0  0
    1.7190    0.1740    2.5920 O   0  0  0  0  0  0  0  0  0  0  0  0
    3.4240    0.3040    0.3430 N   0  0  0  0  0  0  0  0  0  0  0  0
    4.4060    0.8280   -0.5220 C   0  0  0  0  0  0  0  0  0  0  0  0
    4.1190    1.8480   -1.2010 O   0  0  0  0  0  0  0  0  0  0  0  0
    5.6410    0.2240   -0.6070 O   0  0  0  0  0  0  0  0  0  0  0  0
   -0.9090   -1.3110   -1.7190 N   0  0  0  0  0  0  0  0  0  0  0  0
   -0.0540   -0.9250   -2.5000 O   0  0  0  0  0  0  0  0  0  0  0  0
   -1.6040   -2.4780   -2.1100 O   0  0  0  0  0  0  0  0  0  0  0  0
  1  2  1  0
  2  3  2  3
  3  4  1  0
  3  8  1  0
  4  5  2  3
  5  6  1  0
  5  7  1  0
  8  9  1  6
  8 18  1  0
  9 10  1  0
 11 10  1  1
 11 12  1  0
 11 14  1  0
 12 13  1  0
 14 15  1  0
 15 16  2  0
 15 17  1  0
 18 19  2  0
 18 20  1  0
M  CHG  2  18   1  20  -1
M  END
