
     RDKit          3D

 19 19  0  0  0  0  0  0  0  0999 V2000
    5.4580   -2.8040   -0.1710 N   0  0  0  0  0  0  0  0  0  0  0  0
    4.6130   -1.6670   -0.0560 C   0  0  0  0  0  0  0  0  0  0  0  0
    4.1220   -1.4240    1.0750 O   0  0  0  0  0  0  0  0  0  0  0  0
    4.3490   -0.8330   -1.2350 C   0  0  0  0  0  0  0  0  0  0  0  0
    3.5060    0.2490   -0.9870 O   0  0  0  0  0  0  0  0  0  0  0  0
    2.1840    0.0900   -0.5110 C   0  0  0  0  0  0  0  0  0  0  0  0
    1.8530   -1.1030   -0.3370 O   0  0  0  0  0  0  0  0  0  0  0  0
    1.3680    1.1610   -0.2720 O   0  0  0  0  0  0  0  0  0  0  0  0
    0.0980    1.1310    0.1800 C   0  0  0  0  0  0  0  0  0  0  0  0
   -0.5890    0.0510    0.4750 C   0  0  0  0  0  0  0  0  0  0  0  0
   -2.0010    0.2510    0.9660 C   0  0  1  0  0  0  0  0  0  0  0  0
   -1.9810    0.9440    2.6070 Cl  0  0  0  0  0  0  0  0  0  0  0  0
   -2.6320    1.2340    0.0540 C   0  0  0  0  0  0  0  0  0  0  0  0
   -3.7840    1.0810   -0.5390 C   0  0  0  0  0  0  0  0  0  0  0  0
   -4.6300   -0.0920   -0.3890 C   0  0  0  0  0  0  0  0  0  0  0  0
   -5.7890   -0.1850   -1.0190 C   0  0  0  0  0  0  0  0  0  0  0  0
   -6.2950    1.1440   -2.0490 Cl  0  0  0  0  0  0  0  0  0  0  0  0
   -1.8900    2.4090   -0.1580 O   0  0  0  0  0  0  0  0  0  0  0  0
   -0.5690    2.4840    0.3530 C   0  0  0  0  0  0  0  0  0  0  0  0
  1  2  1  0
  2  3  2  0
  2  4  1  0
  4  5  1  0
  5  6  1  0
  6  7  2  0
  6  8  1  0
  8  9  1  0
  9 10  2  0
  9 19  1  0
 10 11  1  0
 11 12  1  1
 11 13  1  0
 13 14  2  3
 13 18  1  0
 14 15  1  0
 15 16  2  3
 16 17  1  0
 18 19  1  0
M  END
