
     RDKit          3D

 20 20  0  0  0  0  0  0  0  0999 V2000
   -1.9250   -2.7730   -1.3630 C   0  0  0  0  0  0  0  0  0  0  0  0
   -2.4180   -1.4610   -0.9140 C   0  0  0  0  0  0  0  0  0  0  0  0
   -3.1160   -0.6740   -1.7080 C   0  0  0  0  0  0  0  0  0  0  0  0
   -3.4630   -1.2100   -3.3380 Cl  0  0  0  0  0  0  0  0  0  0  0  0
   -2.1490   -1.0270    0.3740 O   0  0  0  0  0  0  0  0  0  0  0  0
   -1.3030    0.1290    0.6090 C   0  0  2  0  0  0  0  0  0  0  0  0
    0.0260   -0.1150    0.0460 C   0  0  0  0  0  0  0  0  0  0  0  0
    0.3150   -1.2850   -0.3110 O   0  0  0  0  0  0  0  0  0  0  0  0
    1.0020    0.8890   -0.1240 N   0  0  0  0  0  0  0  0  0  0  0  0
    2.2820    0.6890   -0.6500 N   0  0  0  0  0  0  0  0  0  0  0  0
    2.8600   -0.4300   -1.0930 C   0  0  0  0  0  0  0  0  0  0  0  0
    4.1610   -0.1900   -1.5390 C   0  0  0  0  0  0  0  0  0  0  0  0
    4.3710    1.1380   -1.3530 C   0  0  0  0  0  0  0  0  0  0  0  0
    5.8480    2.0070   -1.7400 Cl  0  0  0  0  0  0  0  0  0  0  0  0
    3.2260    1.6600   -0.8140 C   0  0  0  0  0  0  0  0  0  0  0  0
   -1.3420    0.2800    2.1170 C   0  0  2  0  0  0  0  0  0  0  0  0
   -2.7010    0.5230    2.4310 O   0  0  0  0  0  0  0  0  0  0  0  0
   -0.5310    1.3510    2.6830 C   0  0  0  0  0  0  0  0  0  0  0  0
    0.7230    1.3360    2.7190 O   0  0  0  0  0  0  0  0  0  0  0  0
   -1.1200    2.5050    3.2410 O   0  0  0  0  0  0  0  0  0  0  0  0
  1  2  1  0
  2  3  2  3
  2  5  1  0
  3  4  1  0
  6  5  1  1
  6  7  1  0
  6 16  1  0
  7  8  2  0
  7  9  1  0
  9 10  1  0
 10 11  1  0
 10 15  1  0
 11 12  2  0
 12 13  1  0
 13 14  1  0
 13 15  2  0
 16 17  1  6
 16 18  1  0
 18 19  2  0
 18 20  1  0
M  END
