
     RDKit          3D

 20 20  0  0  0  0  0  0  0  0999 V2000
    4.2310    0.3570    1.1270 C   0  0  0  0  0  0  0  0  0  0  0  0
    4.1820    0.3130   -0.1900 C   0  0  0  0  0  0  0  0  0  0  0  0
    2.8680    0.1200   -0.8830 C   0  0  0  0  0  0  0  0  0  0  0  0
    1.7360   -0.0010    0.0270 C   0  0  0  0  0  0  0  0  0  0  0  0
    0.4170   -0.1620   -0.4700 N   0  0  0  0  0  0  0  0  0  0  0  0
   -0.6890   -0.2830    0.4640 C   0  0  0  0  0  0  0  0  0  0  0  0
   -0.3870   -0.2340    1.6920 O   0  0  0  0  0  0  0  0  0  0  0  0
   -2.0410   -0.4480    0.0040 C   0  0  0  0  0  0  0  0  0  0  0  0
   -2.3930   -0.5040   -1.2590 C   0  0  0  0  0  0  0  0  0  0  0  0
   -3.7670   -0.6700   -1.5540 O   0  0  0  0  0  0  0  0  0  0  0  0
   -4.7140    0.0480   -0.7860 C   0  0  0  0  0  0  0  0  0  0  0  0
   -4.2250    0.3890    0.5850 C   0  0  0  0  0  0  0  0  0  0  0  0
   -3.1320   -0.5680    1.0150 C   0  0  2  0  0  0  0  0  0  0  0  0
   -2.6980   -0.2840    2.2960 O   0  0  0  0  0  0  0  0  0  0  0  0
    2.8510    0.0850   -2.1590 C   0  0  0  0  0  0  0  0  0  0  0  0
    4.3960    0.2680   -3.0450 Cl  0  0  0  0  0  0  0  0  0  0  0  0
    1.4790   -0.1300   -3.2360 Cl  0  0  0  0  0  0  0  0  0  0  0  0
    5.3990    0.4530   -0.8700 N   0  0  0  0  0  0  0  0  0  0  0  0
    6.1080   -0.5500   -1.1110 O   0  0  0  0  0  0  0  0  0  0  0  0
    5.8410    1.7220   -1.2510 O   0  0  0  0  0  0  0  0  0  0  0  0
  1  2  2  0
  2  3  1  0
  2 18  1  0
  3  4  1  0
  3 15  2  3
  4  5  1  0
  5  6  1  0
  6  7  2  0
  6  8  1  0
  8  9  2  0
  8 13  1  0
  9 10  1  0
 10 11  1  0
 11 12  1  0
 12 13  1  0
 13 14  1  1
 15 16  1  0
 15 17  1  0
 18 19  2  0
 18 20  1  0
M  CHG  2  18   1  20  -1
M  END
