
     RDKit          3D

 20 20  0  0  0  0  0  0  0  0999 V2000
   -0.7840    0.1580    0.9970 O   0  0  0  0  0  0  0  0  0  0  0  0
   -0.6240   -0.3970   -0.0960 C   0  0  0  0  0  0  0  0  0  0  0  0
   -1.7060   -0.8960   -0.7630 O   0  0  0  0  0  0  0  0  0  0  0  0
   -3.0430   -0.8270   -0.2940 C   0  0  0  0  0  0  0  0  0  0  0  0
   -3.5410    0.5740   -0.1180 C   0  0  0  0  0  0  0  0  0  0  0  0
   -4.9340    0.7040    0.3870 C   0  0  0  0  0  0  0  0  0  0  0  0
   -5.9110    0.0980   -0.4750 N   0  0  0  0  0  0  0  0  0  0  0  0
   -6.8000    0.7770   -1.0400 O   0  0  0  0  0  0  0  0  0  0  0  0
   -5.8850   -1.2470   -0.6970 O   0  0  0  0  0  0  0  0  0  0  0  0
    0.7740   -0.5290   -0.7070 C   0  0  0  0  0  0  0  0  0  0  0  0
    1.7000   -0.0320   -0.0040 C   0  0  0  0  0  0  0  0  0  0  0  0
    3.1310    0.1350   -0.0570 C   0  0  0  0  0  0  0  0  0  0  0  0
    3.7480    0.7670    0.9820 C   0  0  0  0  0  0  0  0  0  0  0  0
    5.1850    1.0100    1.0720 C   0  0  0  0  0  0  0  0  0  0  0  0
    5.9300    0.5450   -0.0020 O   0  0  0  0  0  0  0  0  0  0  0  0
    5.3490   -0.0810   -1.0370 C   0  0  0  0  0  0  0  0  0  0  0  0
    4.0340   -0.2890   -1.0930 C   0  0  0  0  0  0  0  0  0  0  0  0
    3.4410   -1.1150   -2.5040 Cl  0  0  0  0  0  0  0  0  0  0  0  0
    0.7370   -1.1730   -1.9180 N   0  0  0  0  0  0  0  0  0  0  0  0
    0.5940   -2.9310   -1.9200 Cl  0  0  0  0  0  0  0  0  0  0  0  0
  1  2  2  0
  2  3  1  0
  2 10  1  0
  3  4  1  0
  4  5  1  0
  5  6  1  0
  6  7  1  0
  7  8  2  0
  7  9  1  0
 10 11  2  3
 10 19  1  0
 11 12  1  0
 12 13  2  0
 12 17  1  0
 13 14  1  0
 14 15  1  0
 15 16  1  0
 16 17  2  0
 17 18  1  0
 19 20  1  0
M  CHG  2   7   1   9  -1
M  END
