
     RDKit          3D

 19 21  0  0  0  0  0  0  0  0999 V2000
    5.0340    1.5710    0.7480 O   0  0  0  0  0  0  0  0  0  0  0  0
    4.2260    0.6840    0.3600 C   0  0  0  0  0  0  0  0  0  0  0  0
    4.6410   -0.5380   -0.0750 N   0  0  0  0  0  0  0  0  0  0  0  0
    3.7630   -1.4900   -0.5050 C   0  0  0  0  0  0  0  0  0  0  0  0
    2.4170   -1.2460   -0.5090 N   0  0  0  0  0  0  0  0  0  0  0  0
    1.9980   -0.0450   -0.0770 C   0  0  0  0  0  0  0  0  0  0  0  0
    0.7100    0.4290    0.0980 C   0  0  0  0  0  0  0  0  0  0  0  0
   -0.5840   -0.1780   -0.3300 C   0  0  2  0  0  0  0  0  0  0  0  0
   -1.5250    0.9070   -0.3200 O   0  0  0  0  0  0  0  0  0  0  0  0
   -2.7500    0.3310   -0.2540 C   0  0  2  0  0  0  0  0  0  0  0  0
   -3.6980    1.1340    0.6500 C   0  0  0  0  0  0  0  0  0  0  0  0
   -3.8710    2.4190    0.2010 O   0  0  0  0  0  0  0  0  0  0  0  0
   -2.6170   -1.0490    0.3800 C   0  0  1  0  0  0  0  0  0  0  0  0
   -2.8000   -2.0010   -0.6420 O   0  0  0  0  0  0  0  0  0  0  0  0
   -1.1680   -0.9970    0.8140 C   0  0  1  0  0  0  0  0  0  0  0  0
   -0.6630   -2.3210    0.7320 O   0  0  0  0  0  0  0  0  0  0  0  0
    0.8640    1.6740    0.6410 N   0  0  0  0  0  0  0  0  0  0  0  0
    2.1640    1.9580    0.7870 N   0  0  0  0  0  0  0  0  0  0  0  0
    2.8750    0.9080    0.3490 C   0  0  0  0  0  0  0  0  0  0  0  0
  1  2  2  0
  2  3  1  0
  2 19  1  0
  3  4  1  0
  4  5  2  0
  5  6  1  0
  6  7  1  0
  6 19  2  0
  8  7  1  1
  7 17  2  0
  8  9  1  0
  8 15  1  0
  9 10  1  0
 10 11  1  1
 10 13  1  0
 11 12  1  0
 13 14  1  6
 13 15  1  0
 15 16  1  6
 17 18  1  0
 18 19  1  0
M  END
