
     RDKit          3D

 20 20  0  0  0  0  0  0  0  0999 V2000
   -0.1050   -3.2760   -0.4530 C   0  0  0  0  0  0  0  0  0  0  0  0
   -1.0370   -2.5740    0.4290 C   0  0  0  0  0  0  0  0  0  0  0  0
   -1.8500   -3.5650    1.1580 O   0  0  0  0  0  0  0  0  0  0  0  0
   -1.2940   -1.3610    0.6960 C   0  0  0  0  0  0  0  0  0  0  0  0
   -2.3900   -1.3140    1.7290 O   0  0  0  0  0  0  0  0  0  0  0  0
   -0.9470   -0.0150    0.3310 C   0  0  0  0  0  0  0  0  0  0  0  0
   -0.1460    0.4560   -0.7690 C   0  0  0  0  0  0  0  0  0  0  0  0
    0.1430    1.7310   -0.8680 O   0  0  0  0  0  0  0  0  0  0  0  0
    0.4180   -0.2600   -1.8440 N   0  0  0  0  0  0  0  0  0  0  0  0
    1.2350    0.3780   -2.8830 C   0  0  0  0  0  0  0  0  0  0  0  0
    2.4750    1.0280   -2.3240 C   0  0  2  0  0  0  0  0  0  0  0  0
    3.2450    1.5480   -3.5470 C   0  0  0  0  0  0  0  0  0  0  0  0
    3.2130    0.0180   -1.7040 O   0  0  0  0  0  0  0  0  0  0  0  0
   -1.4210    0.9770    1.1230 C   0  0  0  0  0  0  0  0  0  0  0  0
   -1.0020    2.6490    0.5470 Cl  0  0  0  0  0  0  0  0  0  0  0  0
   -1.7500    0.9400    2.5280 C   0  0  0  0  0  0  0  0  0  0  0  0
   -2.6340    2.1540    2.9380 C   0  0  0  0  0  0  0  0  0  0  0  0
   -1.5280    0.1830    3.4870 N   0  0  0  0  0  0  0  0  0  0  0  0
   -2.0630    0.5000    4.7450 O   0  0  0  0  0  0  0  0  0  0  0  0
   -0.4090   -1.1370    3.5400 Cl  0  0  0  0  0  0  0  0  0  0  0  0
  1  2  1  0
  2  3  1  0
  2  4  2  3
  4  5  1  0
  4  6  1  0
  6  7  1  0
  6 14  2  0
  7  8  2  0
  7  9  1  0
  9 10  1  0
 10 11  1  0
 11 12  1  6
 11 13  1  0
 14 15  1  0
 14 16  1  0
 16 17  1  0
 16 18  2  3
 18 19  1  0
 18 20  1  0
 15  8  1  0
M  CHG  2   5  -1  18   1
M  END
