
     RDKit          3D

  6  5  0  0  0  0  0  0  0  0999 V2000
   -2.1630    0.9610    0.8830 C   0  0  0  0  0  0  0  0  0  0  0  0
   -1.2080    0.2260    0.3450 C   0  0  0  0  0  0  0  0  0  0  0  0
   -1.5670   -0.7910   -0.5730 N   0  0  0  0  0  0  0  0  0  0  0  0
    0.1880    0.4230    0.6600 C   0  0  0  0  0  0  0  0  0  0  0  0
    1.1030   -0.3330    0.0990 C   0  0  0  0  0  0  0  0  0  0  0  0
    2.4920   -0.2110    0.3480 N   0  0  0  0  0  0  0  0  0  0  0  0
  1  2  2  0
  2  3  1  0
  2  4  1  0
  4  5  2  3
  5  6  1  0
M  CHG  1   6   1
M  END
