
     RDKit          3D

 22 24  0  0  0  0  0  0  0  0999 V2000
   -2.5720   -2.7100    0.3660 O   0  0  0  0  0  0  0  0  0  0  0  0
   -2.8710   -1.4920    0.3710 C   0  0  0  0  0  0  0  0  0  0  0  0
   -4.1830   -1.1680   -0.1750 C   0  0  0  0  0  0  0  0  0  0  0  0
   -4.9560   -0.1290    0.5500 C   0  0  0  0  0  0  0  0  0  0  0  0
   -4.1440    0.3730    1.7200 C   0  0  0  0  0  0  0  0  0  0  0  0
   -3.2150    1.4420    1.1700 C   0  0  0  0  0  0  0  0  0  0  0  0
   -1.8820    0.8260    0.7620 C   0  0  1  0  0  0  0  0  0  0  0  0
   -0.7730    1.4090    1.5350 C   0  0  0  0  0  0  0  0  0  0  0  0
    0.4690    1.3240    1.2700 C   0  0  0  0  0  0  0  0  0  0  0  0
    1.1820    0.6740    0.1990 C   0  0  0  0  0  0  0  0  0  0  0  0
    0.7550   -0.0520   -0.8660 C   0  0  0  0  0  0  0  0  0  0  0  0
    1.8850   -0.4390   -1.5800 C   0  0  0  0  0  0  0  0  0  0  0  0
    2.9680    0.0750   -0.9130 C   0  0  0  0  0  0  0  0  0  0  0  0
    4.3790   -0.0840   -1.3090 C   0  0  0  0  0  0  0  0  0  0  0  0
    4.8080   -0.7390   -2.3600 C   0  0  0  0  0  0  0  0  0  0  0  0
    6.2150   -0.6720   -2.4100 O   0  0  0  0  0  0  0  0  0  0  0  0
    6.6240   -0.1130   -1.2060 N   0  0  2  0  0  0  0  0  0  0  0  0
    7.5270    0.8750   -1.4040 O   0  0  0  0  0  0  0  0  0  0  0  0
    7.1190   -1.0810   -0.3850 O   0  0  0  0  0  0  0  0  0  0  0  0
    5.4830    0.4250   -0.6490 O   0  0  0  0  0  0  0  0  0  0  0  0
    2.5060    0.7050    0.1010 O   0  0  0  0  0  0  0  0  0  0  0  0
   -1.9090   -0.6040    0.9000 N   0  0  0  0  0  0  0  0  0  0  0  0
  1  2  2  0
  2  3  1  0
  2 22  1  0
  3  4  1  0
  4  5  1  0
  5  6  1  0
  6  7  1  0
  7  8  1  1
  7 22  1  0
  8  9  2  3
  9 10  1  0
 10 11  2  0
 10 21  1  0
 11 12  1  0
 12 13  2  0
 13 14  1  0
 13 21  1  0
 14 15  2  0
 14 20  1  0
 15 16  1  0
 16 17  1  0
 17 18  1  6
 17 19  1  0
 17 20  1  0
M  CHG  2  17   1  18  -1
M  END
