
     RDKit          3D

  6  5  0  0  0  0  0  0  0  0999 V2000
    3.1820   -0.2890   -0.3580 N   0  0  0  0  0  0  0  0  0  0  0  0
    1.8210   -0.1750   -0.7280 C   0  0  0  0  0  0  0  0  0  0  0  0
    0.8850   -0.0780    0.2110 C   0  0  0  0  0  0  0  0  0  0  0  0
   -0.4970    0.0370   -0.2190 C   0  0  0  0  0  0  0  0  0  0  0  0
   -1.4160    0.1330    0.7210 C   0  0  0  0  0  0  0  0  0  0  0  0
   -2.7730    0.2470    0.3480 N   0  0  0  0  0  0  0  0  0  0  0  0
  1  2  1  0
  2  3  2  3
  3  4  1  0
  4  5  2  3
  5  6  1  0
M  CHG  1   6   1
M  END
