
     RDKit          3D

  6  5  0  0  0  0  0  0  0  0999 V2000
    2.9600   -0.1840   -0.4240 C   0  0  0  0  0  0  0  0  0  0  0  0
    1.8510   -0.5300    0.1750 C   0  0  0  0  0  0  0  0  0  0  0  0
    0.6340    0.0920   -0.2060 N   0  0  0  0  0  0  0  0  0  0  0  0
   -0.4690   -0.5860   -0.1110 C   0  0  0  0  0  0  0  0  0  0  0  0
   -1.7760   -0.0010   -0.4900 C   0  0  0  0  0  0  0  0  0  0  0  0
   -2.3540    0.8140    0.5370 N   0  0  0  0  0  0  0  0  0  0  0  0
  1  2  2  0
  2  3  1  0
  3  4  2  3
  4  5  1  0
  5  6  1  0
M  CHG  1   3   1
M  END
