
     RDKit          3D

  6  5  0  0  0  0  0  0  0  0999 V2000
    2.3080    0.7120    0.2210 N   0  0  0  0  0  0  0  0  0  0  0  0
    1.9580   -0.6900    0.3430 C   0  0  0  0  0  0  0  0  0  0  0  0
    0.5530   -0.9450   -0.0290 C   0  0  0  0  0  0  0  0  0  0  0  0
   -0.1830    0.0770   -0.4100 C   0  0  0  0  0  0  0  0  0  0  0  0
   -1.6270   -0.1200   -0.8030 C   0  0  0  0  0  0  0  0  0  0  0  0
   -2.4280    0.6790    0.0890 N   0  0  0  0  0  0  0  0  0  0  0  0
  1  2  1  0
  2  3  1  0
  3  4  2  3
  4  5  1  0
  5  6  1  0
M  CHG  1   6   1
M  END
