
     RDKit          3D

  6  5  0  0  0  0  0  0  0  0999 V2000
   -1.8710    0.8530    0.6550 N   0  0  0  0  0  0  0  0  0  0  0  0
   -1.1870   -0.0510   -0.1490 C   0  0  0  0  0  0  0  0  0  0  0  0
   -1.6090   -1.2330   -0.7410 N   0  0  0  0  0  0  0  0  0  0  0  0
    0.0630    0.2890   -0.3710 C   0  0  0  0  0  0  0  0  0  0  0  0
    1.3400    0.5220   -0.5180 C   0  0  0  0  0  0  0  0  0  0  0  0
    2.1880   -0.0230    0.4430 N   0  0  0  0  0  0  0  0  0  0  0  0
  1  2  1  0
  2  3  1  0
  2  4  2  0
  4  5  2  0
  5  6  1  0
M  CHG  1   6   1
M  END
