
     RDKit          3D

 42 44  0  0  0  0  0  0  0  0999 V2000
   -7.1290    1.0610    2.3910 C   0  0  0  0  0  0  0  0  0  0  0  0
   -7.3400    1.8130    1.3560 C   0  0  0  0  0  0  0  0  0  0  0  0
   -8.6220    2.5000    1.3870 O   0  0  0  0  0  0  0  0  0  0  0  0
   -6.5670    2.1090    0.1670 C   0  0  0  0  0  0  0  0  0  0  0  0
   -7.2100    3.0580   -0.6150 C   0  0  0  0  0  0  0  0  0  0  0  0
   -6.5940    3.4890   -1.8570 C   0  0  0  0  0  0  0  0  0  0  0  0
   -5.2580    1.8030   -0.2450 C   0  0  0  0  0  0  0  0  0  0  0  0
   -4.3060    0.9560    0.0120 C   0  0  0  0  0  0  0  0  0  0  0  0
   -3.0130    1.1680   -0.7690 C   0  0  0  0  0  0  0  0  0  0  0  0
   -3.0760    2.1460   -1.5860 O   0  0  0  0  0  0  0  0  0  0  0  0
   -1.9040    0.3870   -0.6060 N   0  0  0  0  0  0  0  0  0  0  0  0
   -0.6760    0.5580   -1.3190 C   0  0  0  0  0  0  0  0  0  0  0  0
   -0.3580    1.6550   -2.0590 C   0  0  0  0  0  0  0  0  0  0  0  0
    0.8610    1.7480   -2.7520 C   0  0  0  0  0  0  0  0  0  0  0  0
    1.7720    0.7330   -2.7030 C   0  0  0  0  0  0  0  0  0  0  0  0
    2.9590    0.8030   -3.3660 N   0  0  0  0  0  0  0  0  0  0  0  0
    3.8490   -0.1970   -3.3140 C   0  0  0  0  0  0  0  0  0  0  0  0
    4.9620   -0.1160   -3.9440 O   0  0  0  0  0  0  0  0  0  0  0  0
    3.5520   -1.2890   -2.5880 N   0  0  0  0  0  0  0  0  0  0  0  0
    4.4760   -2.3870   -2.5040 C   0  0  0  0  0  0  0  0  0  0  0  0
    5.4290   -2.2720   -1.3850 C   0  0  0  0  0  0  0  0  0  0  0  0
    6.2690   -3.2080   -1.2550 O   0  0  0  0  0  0  0  0  0  0  0  0
    5.4690   -1.2080   -0.4640 N   0  0  0  0  0  0  0  0  0  0  0  0
    6.4310   -1.1600    0.6100 C   0  0  2  0  0  0  0  0  0  0  0  0
    5.6850   -1.0130    1.9060 C   0  0  0  0  0  0  0  0  0  0  0  0
    6.3940    0.0590    2.6590 C   0  0  0  0  0  0  0  0  0  0  0  0
    5.9660    0.6690    3.7500 C   0  0  0  0  0  0  0  0  0  0  0  0
    7.6540    0.2930    1.9430 C   0  0  0  0  0  0  0  0  0  0  0  0
    8.8000    0.6640    2.5010 C   0  0  0  0  0  0  0  0  0  0  0  0
    9.9670    0.8490    1.5980 C   0  0  0  0  0  0  0  0  0  0  0  0
    9.0080    0.9380    4.1920 Cl  0  0  0  0  0  0  0  0  0  0  0  0
    7.3630    0.0280    0.5130 C   0  0  0  0  0  0  0  0  0  0  0  0
    2.3940   -1.4020   -1.9180 C   0  0  0  0  0  0  0  0  0  0  0  0
    2.0960   -2.4200   -1.2290 O   0  0  0  0  0  0  0  0  0  0  0  0
    1.4430   -0.3740   -1.9520 C   0  0  0  0  0  0  0  0  0  0  0  0
    0.2570   -0.4870   -1.2670 C   0  0  0  0  0  0  0  0  0  0  0  0
   -4.4750   -0.3640    0.5600 C   0  0  0  0  0  0  0  0  0  0  0  0
   -3.5060   -1.0510    1.0040 O   0  0  0  0  0  0  0  0  0  0  0  0
   -5.7470   -0.9870    0.6020 N   0  0  0  0  0  0  0  0  0  0  0  0
   -5.8580   -2.3260    1.1630 C   0  0  1  0  0  0  0  0  0  0  0  0
   -6.8350   -2.3680    2.3340 C   0  0  0  0  0  0  0  0  0  0  0  0
   -6.3530   -3.3050    0.1020 C   0  0  0  0  0  0  0  0  0  0  0  0
  1  2  2  0
  2  3  1  0
  2  4  1  0
  4  5  2  3
  4  7  1  0
  5  6  1  0
  7  8  2  3
  8  9  1  0
  8 37  1  0
  9 10  2  0
  9 11  1  0
 11 12  1  0
 12 13  2  0
 12 36  1  0
 13 14  1  0
 14 15  2  0
 15 16  1  0
 15 35  1  0
 16 17  1  0
 17 18  2  0
 17 19  1  0
 19 20  1  0
 19 33  1  0
 20 21  1  0
 21 22  2  0
 21 23  1  0
 24 23  1  6
 24 25  1  0
 24 32  1  0
 25 26  1  0
 26 27  2  0
 26 28  1  0
 28 29  2  3
 28 32  1  0
 29 30  1  0
 29 31  1  0
 33 34  2  0
 33 35  1  0
 35 36  2  0
 37 38  2  0
 37 39  1  0
 39 40  1  0
 40 41  1  1
 40 42  1  0
M  END
