
     RDKit          3D

 42 45  0  0  0  0  0  0  0  0999 V2000
   -7.7790    2.5520   -1.7890 C   0  0  0  0  0  0  0  0  0  0  0  0
   -8.3590    1.2880   -1.2770 C   0  0  0  0  0  0  0  0  0  0  0  0
   -7.8670    0.5810   -0.2780 C   0  0  0  0  0  0  0  0  0  0  0  0
   -6.6740    1.0050    0.4200 C   0  0  1  0  0  0  0  0  0  0  0  0
   -6.3740    0.2310    1.5520 O   0  0  0  0  0  0  0  0  0  0  0  0
   -5.0570    0.5360    1.9040 C   0  0  0  0  0  0  0  0  0  0  0  0
   -4.4090    1.1120    0.6830 C   0  0  1  0  0  0  0  0  0  0  0  0
   -3.0300    0.9470    0.4710 N   0  0  0  0  0  0  0  0  0  0  0  0
   -2.0990    2.0060    0.7500 C   0  0  0  0  0  0  0  0  0  0  0  0
   -2.5000    3.0980    1.1880 O   0  0  0  0  0  0  0  0  0  0  0  0
   -0.7240    1.7660    0.5120 N   0  0  0  0  0  0  0  0  0  0  0  0
    0.3320    2.6930    0.7090 C   0  0  0  0  0  0  0  0  0  0  0  0
    0.0590    4.0320    0.8710 C   0  0  0  0  0  0  0  0  0  0  0  0
    1.1150    4.9380    0.9800 C   0  0  0  0  0  0  0  0  0  0  0  0
    2.3860    4.4480    0.9210 C   0  0  0  0  0  0  0  0  0  0  0  0
    2.6720    3.0890    0.7580 C   0  0  0  0  0  0  0  0  0  0  0  0
    1.6410    2.1990    0.6510 C   0  0  0  0  0  0  0  0  0  0  0  0
    1.8630    0.8190    0.5660 N   0  0  0  0  0  0  0  0  0  0  0  0
    3.1070    0.1870    0.2480 C   0  0  0  0  0  0  0  0  0  0  0  0
    4.0980    0.8780    0.0120 O   0  0  0  0  0  0  0  0  0  0  0  0
    3.2160   -1.2290    0.1990 N   0  0  0  0  0  0  0  0  0  0  0  0
    4.3770   -1.9560   -0.1000 C   0  0  0  0  0  0  0  0  0  0  0  0
    4.2630   -3.3370   -0.2850 C   0  0  0  0  0  0  0  0  0  0  0  0
    5.3490   -4.1110   -0.5750 C   0  0  0  0  0  0  0  0  0  0  0  0
    6.6230   -3.5700   -0.7010 C   0  0  0  0  0  0  0  0  0  0  0  0
    6.7710   -2.2240   -0.5260 C   0  0  0  0  0  0  0  0  0  0  0  0
    8.0090   -1.5530   -0.6090 N   0  0  0  0  0  0  0  0  0  0  0  0
    9.2920   -2.1280   -0.6480 C   0  0  0  0  0  0  0  0  0  0  0  0
    9.4220   -3.3620   -0.6030 O   0  0  0  0  0  0  0  0  0  0  0  0
   10.5300   -1.2720   -0.7450 C   0  0  0  0  0  0  0  0  0  0  0  0
   10.1870    0.0740   -0.7720 O   0  0  0  0  0  0  0  0  0  0  0  0
   11.2860    0.8910   -0.8590 C   0  0  0  0  0  0  0  0  0  0  0  0
    5.6400   -1.4520   -0.2290 C   0  0  0  0  0  0  0  0  0  0  0  0
   -5.3660    0.7370   -0.3650 C   0  0  1  0  0  0  0  0  0  0  0  0
   -5.4000   -0.4460   -1.1680 C   0  0  0  0  0  0  0  0  0  0  0  0
   -5.7220   -1.7870   -0.7040 C   0  0  0  0  0  0  0  0  0  0  0  0
   -6.8250   -2.4040   -1.2080 C   0  0  0  0  0  0  0  0  0  0  0  0
   -6.9430   -3.7150   -0.6070 C   0  0  0  0  0  0  0  0  0  0  0  0
   -5.8500   -3.8950    0.2130 O   0  0  0  0  0  0  0  0  0  0  0  0
   -5.1000   -2.7060    0.1850 C   0  0  0  0  0  0  0  0  0  0  0  0
   -4.0040   -2.6050    0.9220 C   0  0  0  0  0  0  0  0  0  0  0  0
   -3.4540   -3.9190    1.9510 Cl  0  0  0  0  0  0  0  0  0  0  0  0
  1  2  1  0
  2  3  2  3
  4  3  1  6
  4  5  1  0
  4 34  1  0
  5  6  1  0
  6  7  1  0
  7  8  1  6
  7 34  1  0
  8  9  1  0
  9 10  2  0
  9 11  1  0
 11 12  1  0
 12 13  2  0
 12 17  1  0
 13 14  1  0
 14 15  2  0
 15 16  1  0
 16 17  2  0
 17 18  1  0
 18 19  1  0
 19 20  2  0
 19 21  1  0
 21 22  1  0
 22 23  2  0
 22 33  1  0
 23 24  1  0
 24 25  2  0
 25 26  1  0
 26 27  1  0
 26 33  2  0
 27 28  1  0
 28 29  2  0
 28 30  1  0
 30 31  1  0
 31 32  1  0
 34 35  1  1
 35 36  1  0
 36 37  2  0
 36 40  1  0
 37 38  1  0
 38 39  1  0
 39 40  1  0
 40 41  2  3
 41 42  1  0
M  END
