
     RDKit          3D

 42 45  0  0  0  0  0  0  0  0999 V2000
   -3.4050    4.3540    2.6140 C   0  0  0  0  0  0  0  0  0  0  0  0
   -2.2000    4.9270    1.9000 C   0  0  0  0  0  0  0  0  0  0  0  0
   -1.0790    3.9420    1.7860 C   0  0  0  0  0  0  0  0  0  0  0  0
   -1.4920    2.7170    1.0200 C   0  0  0  0  0  0  0  0  0  0  0  0
   -2.6560    2.7150    0.5870 O   0  0  0  0  0  0  0  0  0  0  0  0
   -0.6090    1.6440    0.8130 N   0  0  0  0  0  0  0  0  0  0  0  0
   -0.9050    0.4560    0.1020 C   0  0  0  0  0  0  0  0  0  0  0  0
   -2.0350    0.3000   -0.6570 C   0  0  0  0  0  0  0  0  0  0  0  0
   -2.3500   -0.8150   -1.3980 C   0  0  0  0  0  0  0  0  0  0  0  0
   -1.4680   -1.8720   -1.3870 C   0  0  0  0  0  0  0  0  0  0  0  0
   -1.7900   -3.0830   -2.1540 C   0  0  0  0  0  0  0  0  0  0  0  0
   -2.9780   -3.6910   -2.0660 C   0  0  0  0  0  0  0  0  0  0  0  0
   -4.1650   -2.9950   -0.9910 Cl  0  0  0  0  0  0  0  0  0  0  0  0
   -3.3030   -4.9030   -2.8330 C   0  0  0  0  0  0  0  0  0  0  0  0
   -2.1610   -5.3590   -3.7090 C   0  0  0  0  0  0  0  0  0  0  0  0
   -0.3240   -1.7520   -0.6360 C   0  0  0  0  0  0  0  0  0  0  0  0
    0.0100   -0.6170    0.1260 C   0  0  0  0  0  0  0  0  0  0  0  0
    1.2220   -0.4950    0.9040 C   0  0  1  0  0  0  0  0  0  0  0  0
    2.1390    0.5300    0.3080 N   0  0  0  0  0  0  0  0  0  0  0  0
    2.4020    0.5930   -1.0740 C   0  0  0  0  0  0  0  0  0  0  0  0
    1.8630   -0.2150   -1.8160 O   0  0  0  0  0  0  0  0  0  0  0  0
    3.2820    1.5840   -1.5950 N   0  0  0  0  0  0  0  0  0  0  0  0
    3.6280    1.7570   -2.9390 C   0  0  0  0  0  0  0  0  0  0  0  0
    3.1650    0.9790   -3.9660 C   0  0  0  0  0  0  0  0  0  0  0  0
    3.5270    1.1730   -5.3070 C   0  0  0  0  0  0  0  0  0  0  0  0
    4.3850    2.1840   -5.6270 C   0  0  0  0  0  0  0  0  0  0  0  0
    4.8730    2.9880   -4.6300 C   0  0  0  0  0  0  0  0  0  0  0  0
    4.5000    2.7790   -3.2930 C   0  0  0  0  0  0  0  0  0  0  0  0
    5.0430    3.6380   -2.3650 O   0  0  0  0  0  0  0  0  0  0  0  0
    1.1350   -0.2120    2.3350 C   0  0  0  0  0  0  0  0  0  0  0  0
    1.9800    0.6080    2.8830 O   0  0  0  0  0  0  0  0  0  0  0  0
    0.2000   -0.7500    3.2180 N   0  0  0  0  0  0  0  0  0  0  0  0
    0.2900   -0.3540    4.6690 C   0  0  0  0  0  0  0  0  0  0  0  0
   -0.9230    0.5170    4.9830 C   0  0  0  0  0  0  0  0  0  0  0  0
   -2.1400   -0.2340    4.7030 N   0  0  0  0  0  0  0  0  0  0  0  0
   -2.0870   -1.3300    3.8430 C   0  0  0  0  0  0  0  0  0  0  0  0
   -3.0510   -2.1180    3.7590 O   0  0  0  0  0  0  0  0  0  0  0  0
   -0.8920   -1.6420    2.9720 C   0  0  0  0  0  0  0  0  0  0  0  0
    2.0930   -1.7520    0.7780 C   0  0  0  0  0  0  0  0  0  0  0  0
    1.3920   -3.0390    0.6370 C   0  0  0  0  0  0  0  0  0  0  0  0
    0.5680   -2.9100   -0.6220 C   0  0  0  0  0  0  0  0  0  0  0  0
    0.6350   -3.7020   -1.5610 O   0  0  0  0  0  0  0  0  0  0  0  0
  1  2  1  0
  2  3  1  0
  3  4  1  0
  4  5  2  0
  4  6  1  0
  6  7  1  0
  7  8  2  0
  7 17  1  0
  8  9  1  0
  9 10  2  0
 10 11  1  0
 10 16  1  0
 11 12  2  3
 12 13  1  0
 12 14  1  0
 14 15  1  0
 16 17  2  0
 16 41  1  0
 17 18  1  0
 18 19  1  6
 18 30  1  0
 18 39  1  0
 19 20  1  0
 20 21  2  0
 20 22  1  0
 22 23  1  0
 23 24  2  0
 23 28  1  0
 24 25  1  0
 25 26  2  0
 26 27  1  0
 27 28  2  0
 28 29  1  0
 30 31  2  0
 30 32  1  0
 32 33  1  0
 32 38  1  0
 33 34  1  0
 34 35  1  0
 35 36  1  0
 36 37  2  0
 36 38  1  0
 39 40  1  0
 40 41  1  0
 41 42  2  0
M  END
