
     RDKit          3D

 41 44  0  0  0  0  0  0  0  0999 V2000
   -5.4080    5.3700   -1.3310 C   0  0  0  0  0  0  0  0  0  0  0  0
   -4.0340    4.8600   -1.0150 C   0  0  0  0  0  0  0  0  0  0  0  0
   -3.9470    3.4670   -1.3570 O   0  0  0  0  0  0  0  0  0  0  0  0
   -4.8210    2.5360   -0.7220 C   0  0  0  0  0  0  0  0  0  0  0  0
   -5.5990    3.0190    0.0880 O   0  0  0  0  0  0  0  0  0  0  0  0
   -4.6750    1.1610   -1.1140 C   0  0  0  0  0  0  0  0  0  0  0  0
   -3.7500    0.8630   -2.0310 O   0  0  0  0  0  0  0  0  0  0  0  0
   -2.8730    0.5790   -2.9000 C   0  0  0  0  0  0  0  0  0  0  0  0
   -1.4730    0.4860   -2.3110 C   0  0  0  0  0  0  0  0  0  0  0  0
   -0.8350   -0.7080   -2.1100 C   0  0  0  0  0  0  0  0  0  0  0  0
    0.4500   -0.7070   -1.5480 C   0  0  0  0  0  0  0  0  0  0  0  0
    1.0680    0.4690   -1.2010 C   0  0  0  0  0  0  0  0  0  0  0  0
    2.3980    0.4940   -0.6120 C   0  0  0  0  0  0  0  0  0  0  0  0
    3.0990    1.6160   -0.2230 C   0  0  0  0  0  0  0  0  0  0  0  0
    4.3030    1.2000    0.2790 C   0  0  0  0  0  0  0  0  0  0  0  0
    4.3110   -0.1870    0.1840 C   0  0  0  0  0  0  0  0  0  0  0  0
    5.4080   -1.0900    0.6030 C   0  0  1  0  0  0  0  0  0  0  0  0
    5.1570   -2.4960    0.1660 C   0  0  0  0  0  0  0  0  0  0  0  0
    3.9300   -3.0510    0.7800 C   0  0  0  0  0  0  0  0  0  0  0  0
    3.8160   -4.3820    0.3110 O   0  0  0  0  0  0  0  0  0  0  0  0
    6.6960   -0.6550    0.0880 N   0  0  0  0  0  0  0  0  0  0  0  0
    7.7270   -0.6240    1.0830 C   0  0  1  0  0  0  0  0  0  0  0  0
    8.7330   -1.7680    0.9240 C   0  0  0  0  0  0  0  0  0  0  0  0
    9.3060   -1.4690   -0.3540 N   0  0  0  0  0  0  0  0  0  0  0  0
    9.3410   -0.0480   -0.5060 C   0  0  0  0  0  0  0  0  0  0  0  0
    8.6590    0.5450    0.7360 C   0  0  1  0  0  0  0  0  0  0  0  0
    7.8760    1.6310    0.4470 O   0  0  0  0  0  0  0  0  0  0  0  0
    8.1760    2.7460    1.2270 C   0  0  0  0  0  0  0  0  0  0  0  0
    3.1750   -0.5210   -0.3410 O   0  0  0  0  0  0  0  0  0  0  0  0
    0.3980    1.6490   -1.4180 C   0  0  0  0  0  0  0  0  0  0  0  0
   -0.8790    1.6730   -1.9740 C   0  0  0  0  0  0  0  0  0  0  0  0
   -5.4120    0.1620   -0.6150 C   0  0  0  0  0  0  0  0  0  0  0  0
   -5.1290   -1.2200   -1.1330 C   0  0  0  0  0  0  0  0  0  0  0  0
   -6.4090    0.3640    0.3750 C   0  0  0  0  0  0  0  0  0  0  0  0
   -7.2350   -0.3970    0.9880 C   0  0  0  0  0  0  0  0  0  0  0  0
   -7.5400   -1.7690    0.9680 C   0  0  0  0  0  0  0  0  0  0  0  0
   -7.0490   -2.6860    0.2910 O   0  0  0  0  0  0  0  0  0  0  0  0
   -8.6480   -2.2690    1.9120 C   0  0  1  0  0  0  0  0  0  0  0  0
   -9.2630   -1.2040    2.7550 C   0  0  0  0  0  0  0  0  0  0  0  0
   -9.6230   -3.2320    1.2250 C   0  0  0  0  0  0  0  0  0  0  0  0
   -8.6730   -3.6940    2.2810 C   0  0  0  0  0  0  0  0  0  0  0  0
  1  2  1  0
  2  3  1  0
  3  4  1  0
  4  5  2  0
  4  6  1  0
  6  7  1  0
  6 32  2  3
  7  8  1  0
  8  9  1  0
  9 10  2  0
  9 31  1  0
 10 11  1  0
 11 12  2  0
 12 13  1  0
 12 30  1  0
 13 14  2  0
 13 29  1  0
 14 15  1  0
 15 16  2  0
 16 17  1  0
 16 29  1  0
 17 18  1  6
 17 21  1  0
 18 19  1  0
 19 20  1  0
 22 21  1  6
 22 23  1  0
 22 26  1  0
 23 24  1  0
 24 25  1  0
 25 26  1  0
 26 27  1  6
 27 28  1  0
 30 31  2  0
 32 33  1  0
 32 34  1  0
 34 35  2  3
 35 36  1  0
 36 37  2  0
 36 38  1  0
 38 39  1  1
 38 40  1  0
 38 41  1  0
 40 41  1  0
M  CHG  1  21   1
M  END
