
     RDKit          3D

 42 45  0  0  0  0  0  0  0  0999 V2000
   10.4960   -0.4060   -1.1360 C   0  0  0  0  0  0  0  0  0  0  0  0
    9.5190    0.4420   -0.4300 C   0  0  0  0  0  0  0  0  0  0  0  0
    9.2590    0.1580    0.7840 O   0  0  0  0  0  0  0  0  0  0  0  0
    8.8600    1.5250   -0.9870 O   0  0  0  0  0  0  0  0  0  0  0  0
    7.9390    2.3020   -0.2990 C   0  0  0  0  0  0  0  0  0  0  0  0
    6.7080    1.5440    0.1220 C   0  0  0  0  0  0  0  0  0  0  0  0
    5.8790    2.1350    0.8480 O   0  0  0  0  0  0  0  0  0  0  0  0
    6.4670    0.2220   -0.2690 N   0  0  0  0  0  0  0  0  0  0  0  0
    5.3520   -0.5700    0.0790 C   0  0  0  0  0  0  0  0  0  0  0  0
    4.3310   -0.2420    0.9120 C   0  0  0  0  0  0  0  0  0  0  0  0
    3.2730   -1.1240    1.1710 C   0  0  0  0  0  0  0  0  0  0  0  0
    3.2130   -2.3690    0.5940 C   0  0  0  0  0  0  0  0  0  0  0  0
    2.0830   -3.2820    0.8750 C   0  0  1  0  0  0  0  0  0  0  0  0
    1.8010   -3.4600    2.3370 C   0  0  0  0  0  0  0  0  0  0  0  0
    0.8440   -2.9510    0.0710 C   0  0  0  0  0  0  0  0  0  0  0  0
    0.3080   -1.5710    0.3200 C   0  0  0  0  0  0  0  0  0  0  0  0
   -0.9050   -1.3830   -0.5250 C   0  0  0  0  0  0  0  0  0  0  0  0
   -1.2710   -2.3070   -1.2860 O   0  0  0  0  0  0  0  0  0  0  0  0
   -1.6710   -0.1630   -0.4930 N   0  0  0  0  0  0  0  0  0  0  0  0
   -2.7660   -0.0720   -1.3010 N   0  0  0  0  0  0  0  0  0  0  0  0
   -3.9580    0.2390   -1.0410 C   0  0  0  0  0  0  0  0  0  0  0  0
   -4.9190    0.2400   -2.1700 C   0  0  0  0  0  0  0  0  0  0  0  0
   -4.7800   -0.5610   -3.1300 O   0  0  0  0  0  0  0  0  0  0  0  0
   -6.0100    1.2140   -2.0940 C   0  0  0  0  0  0  0  0  0  0  0  0
   -7.0660    1.4670   -2.9450 C   0  0  0  0  0  0  0  0  0  0  0  0
   -7.2890    0.7350   -4.2150 C   0  0  0  0  0  0  0  0  0  0  0  0
   -7.7680    2.4560   -2.3710 N   0  0  0  0  0  0  0  0  0  0  0  0
   -7.1950    2.8220   -1.2120 C   0  0  0  0  0  0  0  0  0  0  0  0
   -7.6290    3.8770   -0.2420 C   0  0  0  0  0  0  0  0  0  0  0  0
   -6.0480    2.0390   -0.9930 C   0  0  0  0  0  0  0  0  0  0  0  0
   -5.0490    2.0350    0.1060 C   0  0  0  0  0  0  0  0  0  0  0  0
   -4.5420    0.6180    0.2700 C   0  0  2  0  0  0  0  0  0  0  0  0
   -3.6590    0.4540    1.4120 C   0  0  0  0  0  0  0  0  0  0  0  0
   -3.1900    1.5410    2.1100 C   0  0  0  0  0  0  0  0  0  0  0  0
   -2.3360    1.3780    3.2060 C   0  0  0  0  0  0  0  0  0  0  0  0
   -1.9620    0.1060    3.5880 C   0  0  0  0  0  0  0  0  0  0  0  0
   -0.8830   -0.1280    4.9730 Cl  0  0  0  0  0  0  0  0  0  0  0  0
   -2.4300   -0.9530    2.8950 N   0  0  0  0  0  0  0  0  0  0  0  0
   -3.2670   -0.7950    1.8210 C   0  0  0  0  0  0  0  0  0  0  0  0
   -3.6410   -1.8510    1.2510 O   0  0  0  0  0  0  0  0  0  0  0  0
    4.2410   -2.7180   -0.2550 C   0  0  0  0  0  0  0  0  0  0  0  0
    5.2750   -1.8490   -0.5030 C   0  0  0  0  0  0  0  0  0  0  0  0
  1  2  1  0
  2  3  2  0
  2  4  1  0
  4  5  1  0
  5  6  1  0
  6  7  2  0
  6  8  1  0
  8  9  1  0
  9 10  2  0
  9 42  1  0
 10 11  1  0
 11 12  2  0
 12 13  1  0
 12 41  1  0
 13 14  1  1
 13 15  1  0
 15 16  1  0
 16 17  1  0
 17 18  2  0
 17 19  1  0
 19 20  1  0
 20 21  2  3
 21 22  1  0
 21 32  1  0
 22 23  2  0
 22 24  1  0
 24 25  2  0
 24 30  1  0
 25 26  1  0
 25 27  1  0
 27 28  1  0
 28 29  1  0
 28 30  2  0
 30 31  1  0
 31 32  1  0
 32 33  1  1
 33 34  2  0
 33 39  1  0
 34 35  1  0
 35 36  2  0
 36 37  1  0
 36 38  1  0
 38 39  1  0
 39 40  2  0
 41 42  2  0
M  END
