
     RDKit          3D

 42 44  0  0  0  0  0  0  0  0999 V2000
   -2.3030   -1.5500   -1.2730 C   0  0  0  0  0  0  0  0  0  0  0  0
   -2.4270   -0.3480   -1.7560 C   0  0  0  0  0  0  0  0  0  0  0  0
   -3.3030    0.7170   -1.2290 C   0  0  0  0  0  0  0  0  0  0  0  0
   -3.2220    1.8600   -1.9740 C   0  0  0  0  0  0  0  0  0  0  0  0
   -2.3560    1.9820   -3.1560 C   0  0  0  0  0  0  0  0  0  0  0  0
   -4.1210    0.6380   -0.1750 N   0  0  0  0  0  0  0  0  0  0  0  0
   -4.1940    0.2850    1.0200 C   0  0  0  0  0  0  0  0  0  0  0  0
   -3.0610   -0.2640    1.7060 C   0  0  0  0  0  0  0  0  0  0  0  0
   -1.7130    0.1260    1.6130 C   0  0  0  0  0  0  0  0  0  0  0  0
   -0.8420   -0.7320    2.0880 O   0  0  0  0  0  0  0  0  0  0  0  0
   -1.0800    1.3210    1.1050 C   0  0  0  0  0  0  0  0  0  0  0  0
   -1.5670    2.4560    0.6810 C   0  0  0  0  0  0  0  0  0  0  0  0
   -0.6200    3.3940    0.2530 N   0  0  0  0  0  0  0  0  0  0  0  0
    0.6410    2.8000    0.4160 C   0  0  0  0  0  0  0  0  0  0  0  0
    1.8470    3.3040    0.1420 C   0  0  0  0  0  0  0  0  0  0  0  0
    2.0250    4.6250   -0.4000 C   0  0  0  0  0  0  0  0  0  0  0  0
    1.0780    5.3910   -0.6500 O   0  0  0  0  0  0  0  0  0  0  0  0
    3.3510    5.1280   -0.6810 N   0  0  0  0  0  0  0  0  0  0  0  0
    3.5720    6.4460   -1.2230 C   0  0  0  0  0  0  0  0  0  0  0  0
    0.4290    1.4530    0.9670 C   0  0  2  0  0  0  0  0  0  0  0  0
    0.9250    0.4320    0.0760 N   0  0  0  0  0  0  0  0  0  0  0  0
    1.9440   -0.5010    0.4960 C   0  0  0  0  0  0  0  0  0  0  0  0
    2.3720   -0.3900    1.6430 O   0  0  0  0  0  0  0  0  0  0  0  0
    2.4330   -1.4990   -0.3680 N   0  0  0  0  0  0  0  0  0  0  0  0
    3.4210   -2.4590   -0.0830 C   0  0  0  0  0  0  0  0  0  0  0  0
    4.0970   -2.6000    1.1000 C   0  0  0  0  0  0  0  0  0  0  0  0
    5.0750   -3.5810    1.3180 C   0  0  0  0  0  0  0  0  0  0  0  0
    5.6980   -3.6250    2.5750 O   0  0  0  0  0  0  0  0  0  0  0  0
    6.6930   -4.5670    2.9010 C   0  0  0  0  0  0  0  0  0  0  0  0
    5.3920   -4.4560    0.3140 C   0  0  0  0  0  0  0  0  0  0  0  0
    4.7250   -4.3330   -0.8810 C   0  0  0  0  0  0  0  0  0  0  0  0
    3.7650   -3.3640   -1.0830 C   0  0  0  0  0  0  0  0  0  0  0  0
    3.1230   -3.2830   -2.3060 O   0  0  0  0  0  0  0  0  0  0  0  0
    3.4700   -4.1990   -3.3210 C   0  0  0  0  0  0  0  0  0  0  0  0
   -3.3810   -1.0170    2.8360 C   0  0  0  0  0  0  0  0  0  0  0  0
   -4.7290   -1.2150    3.2850 C   0  0  0  0  0  0  0  0  0  0  0  0
   -5.7840   -0.7170    2.6950 C   0  0  0  0  0  0  0  0  0  0  0  0
   -7.0860   -0.9460    3.1920 O   0  0  0  0  0  0  0  0  0  0  0  0
   -5.6180    0.1020    1.4740 C   0  0  0  0  0  0  0  0  0  0  0  0
   -6.6350    0.6350    0.8890 C   0  0  0  0  0  0  0  0  0  0  0  0
   -6.7230    1.4970   -0.2730 C   0  0  0  0  0  0  0  0  0  0  0  0
   -7.6720    0.7470   -1.5980 Cl  0  0  0  0  0  0  0  0  0  0  0  0
  1  2  2  0
  2  3  1  0
  3  4  2  3
  3  6  1  0
  4  5  1  0
  6  7  2  3
  7  8  1  0
  7 39  1  0
  8  9  1  0
  8 35  2  0
  9 10  2  0
  9 11  1  0
 11 12  2  0
 11 20  1  0
 12 13  1  0
 13 14  1  0
 14 15  2  3
 14 20  1  0
 15 16  1  0
 16 17  2  0
 16 18  1  0
 18 19  1  0
 20 21  1  6
 21 22  1  0
 22 23  2  0
 22 24  1  0
 24 25  1  0
 25 26  2  0
 25 32  1  0
 26 27  1  0
 27 28  1  0
 27 30  2  0
 28 29  1  0
 30 31  1  0
 31 32  2  0
 32 33  1  0
 33 34  1  0
 35 36  1  0
 36 37  2  0
 37 38  1  0
 37 39  1  0
 39 40  2  3
 40 41  1  0
 41 42  1  0
M  END
