
     RDKit          3D

 42 42  0  0  0  0  0  0  0  0999 V2000
   -5.7920   -3.3580   -2.3270 C   0  0  0  0  0  0  0  0  0  0  0  0
   -5.7150   -1.8880   -2.1450 C   0  0  0  0  0  0  0  0  0  0  0  0
   -6.2880   -1.1420   -2.9760 O   0  0  0  0  0  0  0  0  0  0  0  0
   -4.9930   -1.3820   -1.0300 N   0  0  0  0  0  0  0  0  0  0  0  0
   -4.8680    0.0080   -0.7780 C   0  0  1  0  0  0  0  0  0  0  0  0
   -5.2980    0.5890    0.4940 C   0  0  0  0  0  0  0  0  0  0  0  0
   -6.7560    0.4190    0.7960 C   0  0  2  0  0  0  0  0  0  0  0  0
   -6.9840    1.1770    2.1270 C   0  0  0  0  0  0  0  0  0  0  0  0
   -8.3920    0.8900    2.5650 C   0  0  0  0  0  0  0  0  0  0  0  0
   -8.4090   -0.5230    3.1340 C   0  0  0  0  0  0  0  0  0  0  0  0
   -7.3320   -1.3400    2.4700 C   0  0  0  0  0  0  0  0  0  0  0  0
   -7.2100   -0.9910    0.9890 C   0  0  0  0  0  0  0  0  0  0  0  0
   -3.3810    0.3330   -1.0200 C   0  0  1  0  0  0  0  0  0  0  0  0
   -3.1310    0.0110   -2.3490 O   0  0  0  0  0  0  0  0  0  0  0  0
   -3.0290    1.7540   -0.6620 C   0  0  0  0  0  0  0  0  0  0  0  0
   -1.5520    1.9060   -0.9760 C   0  0  2  0  0  0  0  0  0  0  0  0
   -0.7540    0.9650   -0.1870 C   0  0  0  0  0  0  0  0  0  0  0  0
   -1.0810    0.5190    0.9610 O   0  0  0  0  0  0  0  0  0  0  0  0
    0.4710    0.5010   -0.7090 N   0  0  0  0  0  0  0  0  0  0  0  0
    1.3650   -0.4350   -0.0300 C   0  0  1  0  0  0  0  0  0  0  0  0
    1.1130   -1.8380   -0.4510 C   0  0  0  0  0  0  0  0  0  0  0  0
    1.1800   -2.1970   -1.8700 C   0  0  0  0  0  0  0  0  0  0  0  0
    2.3630   -2.0330   -2.6560 C   0  0  0  0  0  0  0  0  0  0  0  0
    2.3300   -2.5540   -4.0070 N   0  0  0  0  0  0  0  0  0  0  0  0
    3.4100   -1.4980   -2.3250 O   0  0  0  0  0  0  0  0  0  0  0  0
    2.7240    0.0390   -0.0840 C   0  0  0  0  0  0  0  0  0  0  0  0
    3.0240    1.0790   -0.7000 O   0  0  0  0  0  0  0  0  0  0  0  0
    3.7580   -0.6720    0.5720 N   0  0  0  0  0  0  0  0  0  0  0  0
    5.1750   -0.1230    0.5000 C   0  0  1  0  0  0  0  0  0  0  0  0
    5.5570   -0.1010    1.9350 C   0  0  0  0  0  0  0  0  0  0  0  0
    6.8640    0.3940    2.3220 C   0  0  0  0  0  0  0  0  0  0  0  0
    8.0270   -0.3710    1.8080 C   0  0  0  0  0  0  0  0  0  0  0  0
    9.2750    0.2230    2.3540 N   0  0  0  0  0  0  0  0  0  0  0  0
   10.3730   -0.0210    1.7590 C   0  0  0  0  0  0  0  0  0  0  0  0
   10.4030   -0.8510    0.5880 N   0  0  0  0  0  0  0  0  0  0  0  0
   11.5570    0.5400    2.2860 N   0  0  0  0  0  0  0  0  0  0  0  0
    5.9070   -1.0700   -0.3700 C   0  0  0  0  0  0  0  0  0  0  0  0
    6.7870   -0.6610   -1.4340 N   0  0  0  0  0  0  0  0  0  0  0  0
    5.8000   -2.3410   -0.2430 O   0  0  0  0  0  0  0  0  0  0  0  0
   -1.0990    3.3380   -0.7950 C   0  0  2  0  0  0  0  0  0  0  0  0
   -1.8170    4.2960   -1.6850 C   0  0  0  0  0  0  0  0  0  0  0  0
    0.3820    3.4410   -1.0650 C   0  0  0  0  0  0  0  0  0  0  0  0
  1  2  1  0
  2  3  2  0
  2  4  1  0
  4  5  1  0
  5  6  1  1
  5 13  1  0
  7  6  1  1
  7  8  1  0
  7 12  1  0
  8  9  1  0
  9 10  1  0
 10 11  1  0
 11 12  1  0
 13 14  1  6
 13 15  1  0
 16 15  1  1
 16 17  1  0
 16 40  1  0
 17 18  2  0
 17 19  1  0
 19 20  1  0
 20 21  1  6
 20 26  1  0
 21 22  1  0
 22 23  1  0
 23 24  1  0
 23 25  2  0
 26 27  2  0
 26 28  1  0
 28 29  1  0
 29 30  1  1
 29 37  1  0
 30 31  1  0
 31 32  1  0
 32 33  1  0
 33 34  2  3
 34 35  1  0
 34 36  1  0
 37 38  1  0
 37 39  2  0
 40 41  1  6
 40 42  1  0
M  CHG  1  33   1
M  END
