
     RDKit          3D

 18 18  0  0  0  0  0  0  0  0999 V2000
    2.8830   -2.2710   -1.0520 C   0  0  0  0  0  0  0  0  0  0  0  0
    3.1280   -1.1260   -0.4060 C   0  0  0  0  0  0  0  0  0  0  0  0
    4.4700   -0.8420   -0.2220 O   0  0  0  0  0  0  0  0  0  0  0  0
    2.0430   -0.2520    0.0640 C   0  0  0  0  0  0  0  0  0  0  0  0
    2.3110    0.8540    0.6720 C   0  0  0  0  0  0  0  0  0  0  0  0
    3.5800    1.4850    1.0260 C   0  0  0  0  0  0  0  0  0  0  0  0
    3.6010    1.6210    2.4480 O   0  0  0  0  0  0  0  0  0  0  0  0
    0.6850   -0.7690   -0.1970 C   0  0  1  0  0  0  0  0  0  0  0  0
    0.5870   -2.0290    0.4250 O   0  0  0  0  0  0  0  0  0  0  0  0
   -0.4650    0.0830    0.1660 C   0  0  2  0  0  0  0  0  0  0  0  0
   -0.3330    1.3380   -0.4200 O   0  0  0  0  0  0  0  0  0  0  0  0
   -0.5840    0.2310    1.6440 C   0  0  0  0  0  0  0  0  0  0  0  0
   -2.0150   -0.7870    2.2090 S   0  0  0  0  0  0  0  0  0  0  0  0
   -3.4430   -0.1830    1.2740 C   0  0  0  0  0  0  0  0  0  0  0  0
   -2.9560    0.2140   -0.1020 C   0  0  2  0  0  0  0  0  0  0  0  0
   -3.9400   -0.1420   -1.0030 O   0  0  0  0  0  0  0  0  0  0  0  0
   -4.4530    0.9350   -1.7110 C   0  0  0  0  0  0  0  0  0  0  0  0
   -1.7250   -0.5800   -0.4180 C   0  0  0  0  0  0  0  0  0  0  0  0
  1  2  2  0
  2  3  1  0
  2  4  1  0
  4  5  2  3
  4  8  1  0
  5  6  1  0
  6  7  1  0
  8  9  1  1
  8 10  1  0
 10 11  1  6
 10 12  1  0
 10 18  1  0
 12 13  1  0
 13 14  1  0
 14 15  1  0
 15 16  1  6
 15 18  1  0
 16 17  1  0
M  END
