
     RDKit          3D

 17 17  0  0  0  0  0  0  0  0999 V2000
   -1.8890    0.1350    1.6360 C   0  0  0  0  0  0  0  0  0  0  0  0
   -1.3330   -0.2720    0.2890 C   0  0  2  0  0  0  0  0  0  0  0  0
   -2.1550   -1.4750   -0.1380 C   0  0  0  0  0  0  0  0  0  0  0  0
    0.0140   -0.5690    0.4040 O   0  0  0  0  0  0  0  0  0  0  0  0
    0.4390   -1.6450   -0.3230 C   0  0  1  0  0  0  0  0  0  0  0  0
    0.2510   -1.5280   -1.7000 O   0  0  0  0  0  0  0  0  0  0  0  0
    1.8380   -1.9950    0.0070 C   0  0  0  0  0  0  0  0  0  0  0  0
    2.1900   -3.3300   -0.1940 O   0  0  0  0  0  0  0  0  0  0  0  0
    2.7670   -1.1900    0.4610 C   0  0  0  0  0  0  0  0  0  0  0  0
    2.6060    0.2530    0.7410 C   0  0  0  0  0  0  0  0  0  0  0  0
    2.4470    1.0830   -0.4620 C   0  0  0  0  0  0  0  0  0  0  0  0
    1.6230    2.1150   -0.4330 C   0  0  0  0  0  0  0  0  0  0  0  0
    0.7240    2.4790    1.0650 S   0  0  0  0  0  0  0  0  0  0  0  0
   -0.9760    2.8580    0.7200 C   0  0  0  0  0  0  0  0  0  0  0  0
   -1.8340    2.1620    0.0200 C   0  0  0  0  0  0  0  0  0  0  0  0
   -1.5920    0.8680   -0.6680 C   0  0  1  0  0  0  0  0  0  0  0  0
   -0.5740    0.9590   -1.6160 O   0  0  0  0  0  0  0  0  0  0  0  0
  2  1  1  1
  2  3  1  0
  2  4  1  0
  2 16  1  0
  4  5  1  0
  5  6  1  6
  5  7  1  0
  7  8  1  0
  7  9  2  0
  9 10  1  0
 10 11  1  0
 11 12  2  0
 12 13  1  0
 13 14  1  0
 14 15  2  0
 15 16  1  0
 16 17  1  6
M  END
