
     RDKit          3D

 18 19  0  0  0  0  0  0  0  0999 V2000
   -0.5130    3.1260    0.6700 C   0  0  0  0  0  0  0  0  0  0  0  0
   -1.1400    1.8190    0.2510 C   0  0  0  0  0  0  0  0  0  0  0  0
   -0.4350    0.6050    0.7340 C   0  0  2  0  0  0  0  0  0  0  0  0
   -0.4270    0.6700    2.1480 O   0  0  0  0  0  0  0  0  0  0  0  0
    0.9360    0.3970    0.2910 C   0  0  0  0  0  0  0  0  0  0  0  0
    1.5550    1.1810   -0.5430 C   0  0  0  0  0  0  0  0  0  0  0  0
    2.9440    1.1340   -1.1090 C   0  0  0  0  0  0  0  0  0  0  0  0
    3.1590   -0.0200   -1.8280 O   0  0  0  0  0  0  0  0  0  0  0  0
    3.7360   -1.2170   -0.7810 S   0  0  0  0  0  0  0  0  0  0  0  0
    4.1370   -2.4700   -1.5050 O   0  0  0  0  0  0  0  0  0  0  0  0
    2.6070   -1.5060    0.5440 C   0  0  0  0  0  0  0  0  0  0  0  0
    2.9000   -2.6180    1.3270 O   0  0  0  0  0  0  0  0  0  0  0  0
    1.5280   -0.8190    0.8950 C   0  0  0  0  0  0  0  0  0  0  0  0
   -1.2630   -0.6250    0.4180 C   0  0  2  0  0  0  0  0  0  0  0  0
   -1.4710   -0.8730   -1.0360 C   0  0  0  0  0  0  0  0  0  0  0  0
   -2.6600   -1.8460   -1.0050 C   0  0  0  0  0  0  0  0  0  0  0  0
   -3.3310   -1.4370    0.2760 C   0  0  0  0  0  0  0  0  0  0  0  0
   -2.5420   -0.5140    0.9120 O   0  0  0  0  0  0  0  0  0  0  0  0
  1  2  1  0
  2  3  1  0
  3  4  1  1
  3  5  1  0
  3 14  1  0
  5  6  2  0
  5 13  1  0
  6  7  1  0
  7  8  1  0
  9  8  1  6
  9 10  2  0
  9 11  1  0
 11 12  1  0
 11 13  2  0
 14 15  1  6
 14 18  1  0
 15 16  1  0
 16 17  1  0
 17 18  1  0
M  END
