
     RDKit          3D

 18 19  0  0  0  0  0  0  0  0999 V2000
   -2.7760    2.1010    0.9010 C   0  0  0  0  0  0  0  0  0  0  0  0
   -2.6580    0.9330   -0.0850 C   0  0  1  0  0  0  0  0  0  0  0  0
   -2.3730    1.4660   -1.4180 C   0  0  0  0  0  0  0  0  0  0  0  0
   -1.8780   -0.1680    0.4520 C   0  0  0  0  0  0  0  0  0  0  0  0
   -0.8740   -0.8970    0.0350 C   0  0  0  0  0  0  0  0  0  0  0  0
   -0.1590   -0.7890   -1.2680 C   0  0  2  0  0  0  0  0  0  0  0  0
   -0.3580   -1.9340   -2.0380 O   0  0  0  0  0  0  0  0  0  0  0  0
    1.3200   -0.7720   -0.9740 C   0  0  0  0  0  0  0  0  0  0  0  0
    2.0780   -1.7130   -1.4810 C   0  0  0  0  0  0  0  0  0  0  0  0
    3.5360   -1.8170   -1.2750 C   0  0  0  0  0  0  0  0  0  0  0  0
    4.0040   -0.7920   -0.4760 O   0  0  0  0  0  0  0  0  0  0  0  0
    3.2110    0.2060    0.0630 C   0  0  0  0  0  0  0  0  0  0  0  0
    3.9660    1.4680    1.0790 S   0  0  0  0  0  0  0  0  0  0  0  0
    1.9060    0.2690   -0.1430 C   0  0  0  0  0  0  0  0  0  0  0  0
    1.0810    1.2340    0.3670 O   0  0  0  0  0  0  0  0  0  0  0  0
   -0.5110   -1.8580    1.0010 O   0  0  0  0  0  0  0  0  0  0  0  0
   -1.1320   -1.4630    2.1880 C   0  0  0  0  0  0  0  0  0  0  0  0
   -2.1810   -0.6770    1.7470 O   0  0  0  0  0  0  0  0  0  0  0  0
  2  1  1  1
  2  3  1  0
  2  4  1  0
  4  5  2  0
  4 18  1  0
  5  6  1  0
  5 16  1  0
  6  7  1  6
  6  8  1  0
  8  9  2  0
  8 14  1  0
  9 10  1  0
 10 11  1  0
 11 12  1  0
 12 13  1  0
 12 14  2  0
 14 15  1  0
 16 17  1  0
 17 18  1  0
M  END
