
     RDKit          3D

 18 18  0  0  0  0  0  0  0  0999 V2000
   -4.6420   -1.0480   -0.3840 C   0  0  0  0  0  0  0  0  0  0  0  0
   -3.5910   -0.2070   -0.4090 C   0  0  0  0  0  0  0  0  0  0  0  0
   -2.6560   -0.4270   -1.4070 O   0  0  0  0  0  0  0  0  0  0  0  0
   -1.3380    0.0480   -1.4610 C   0  0  0  0  0  0  0  0  0  0  0  0
   -0.6040   -0.0800   -0.1410 C   0  0  1  0  0  0  0  0  0  0  0  0
   -1.3140   -1.0190    0.6160 O   0  0  0  0  0  0  0  0  0  0  0  0
    0.7660   -0.5990   -0.4360 C   0  0  1  0  0  0  0  0  0  0  0  0
    1.4260    0.3920   -1.1990 O   0  0  0  0  0  0  0  0  0  0  0  0
    1.6070   -0.9150    0.7270 C   0  0  0  0  0  0  0  0  0  0  0  0
    2.9480   -1.4400    0.2950 C   0  0  0  0  0  0  0  0  0  0  0  0
    3.7790   -0.5410   -0.5350 C   0  0  0  0  0  0  0  0  0  0  0  0
    4.0690    0.6710    0.0690 O   0  0  0  0  0  0  0  0  0  0  0  0
    4.7720    0.5220    1.2520 C   0  0  0  0  0  0  0  0  0  0  0  0
   -0.6360    1.2250    0.5800 C   0  0  0  0  0  0  0  0  0  0  0  0
   -2.1770    1.4690    1.4830 S   0  0  0  0  0  0  0  0  0  0  0  0
   -3.5850    0.8270    0.6280 C   0  0  0  0  0  0  0  0  0  0  0  0
   -4.7820    1.3210    0.9410 C   0  0  0  0  0  0  0  0  0  0  0  0
   -4.8230    2.3040    1.9200 O   0  0  0  0  0  0  0  0  0  0  0  0
  1  2  2  0
  2  3  1  0
  2 16  1  0
  3  4  1  0
  4  5  1  0
  5  6  1  1
  5  7  1  0
  5 14  1  0
  7  8  1  6
  7  9  1  0
  9 10  1  0
 10 11  1  0
 11 12  1  0
 12 13  1  0
 14 15  1  0
 15 16  1  0
 16 17  2  3
 17 18  1  0
M  END
