
     RDKit          3D

 17 17  0  0  0  0  0  0  0  0999 V2000
   -3.7240   -2.2550   -0.1750 O   0  0  0  0  0  0  0  0  0  0  0  0
   -2.7540   -2.4010    0.8100 C   0  0  0  0  0  0  0  0  0  0  0  0
   -1.6100   -1.3990    0.6130 C   0  0  1  0  0  0  0  0  0  0  0  0
   -1.0250   -1.6650   -0.7020 C   0  0  0  0  0  0  0  0  0  0  0  0
    0.2720   -1.5160   -0.9230 C   0  0  0  0  0  0  0  0  0  0  0  0
    1.1800   -1.0700    0.1740 C   0  0  0  0  0  0  0  0  0  0  0  0
    2.3670   -0.3530   -0.4220 C   0  0  2  0  0  0  0  0  0  0  0  0
    2.5480   -0.8380   -1.7330 O   0  0  0  0  0  0  0  0  0  0  0  0
    3.6000   -0.7710    0.3520 C   0  0  0  0  0  0  0  0  0  0  0  0
    3.5490   -0.3520    1.6750 O   0  0  0  0  0  0  0  0  0  0  0  0
    2.1870    1.1510   -0.4110 C   0  0  0  0  0  0  0  0  0  0  0  0
    1.2620    1.6010    1.0570 S   0  0  0  0  0  0  0  0  0  0  0  0
    0.1600    3.0060    0.7920 C   0  0  0  0  0  0  0  0  0  0  0  0
   -0.8150    2.7630   -0.3320 C   0  0  0  0  0  0  0  0  0  0  0  0
   -0.8640    1.4310   -0.7010 O   0  0  0  0  0  0  0  0  0  0  0  0
   -2.0950    0.8380   -0.4220 C   0  0  0  0  0  0  0  0  0  0  0  0
   -2.0840    0.0030    0.8160 C   0  0  0  0  0  0  0  0  0  0  0  0
  1  2  1  0
  3  2  1  6
  3  4  1  0
  3 17  1  0
  4  5  2  0
  5  6  1  0
  6  7  1  0
  7  8  1  6
  7  9  1  0
  7 11  1  0
  9 10  1  0
 11 12  1  0
 12 13  1  0
 13 14  1  0
 14 15  1  0
 15 16  1  0
 16 17  1  0
M  END
