
     RDKit          3D

 18 18  0  0  0  0  0  0  0  0999 V2000
    3.7070    1.4530    0.9080 C   0  0  0  0  0  0  0  0  0  0  0  0
    3.7130    0.0230    0.3740 C   0  0  2  0  0  0  0  0  0  0  0  0
    4.6850   -0.7900    1.2070 C   0  0  0  0  0  0  0  0  0  0  0  0
    4.2350    0.0480   -1.0350 C   0  0  0  0  0  0  0  0  0  0  0  0
    2.4570   -0.5710    0.4790 O   0  0  0  0  0  0  0  0  0  0  0  0
    1.3670   -0.0120   -0.1700 C   0  0  0  0  0  0  0  0  0  0  0  0
    1.5690    1.0320   -0.8420 O   0  0  0  0  0  0  0  0  0  0  0  0
    0.0430   -0.5980   -0.0870 C   0  0  0  0  0  0  0  0  0  0  0  0
   -0.1270   -1.7420    0.6610 O   0  0  0  0  0  0  0  0  0  0  0  0
   -0.9810   -0.0560   -0.7090 C   0  0  0  0  0  0  0  0  0  0  0  0
   -2.3060   -0.6710   -0.6050 C   0  0  2  0  0  0  0  0  0  0  0  0
   -2.8970   -1.0090   -1.9810 C   0  0  0  0  0  0  0  0  0  0  0  0
   -4.5700   -1.5400   -1.4180 S   0  0  0  0  0  0  0  0  0  0  0  0
   -4.5020   -0.7490    0.2450 C   0  0  0  0  0  0  0  0  0  0  0  0
   -3.3540    0.2150   -0.0080 C   0  0  2  0  0  0  0  0  0  0  0  0
   -3.8230    1.1510   -0.9270 O   0  0  0  0  0  0  0  0  0  0  0  0
   -2.9080    0.8980    1.2570 C   0  0  0  0  0  0  0  0  0  0  0  0
   -4.0460    1.5690    1.7640 O   0  0  0  0  0  0  0  0  0  0  0  0
  2  1  1  1
  2  3  1  0
  2  4  1  0
  2  5  1  0
  5  6  1  0
  6  7  2  0
  6  8  1  0
  8  9  1  0
  8 10  2  3
 11 10  1  6
 11 12  1  0
 11 15  1  0
 12 13  1  0
 13 14  1  0
 14 15  1  0
 15 16  1  6
 15 17  1  0
 17 18  1  0
M  END
