
     RDKit          3D

 18 18  0  0  0  0  0  0  0  0999 V2000
    5.1140    1.8440   -1.5370 O   0  0  0  0  0  0  0  0  0  0  0  0
    4.4880    0.6730   -2.0210 C   0  0  0  0  0  0  0  0  0  0  0  0
    3.7450    0.1170   -0.8370 C   0  0  0  0  0  0  0  0  0  0  0  0
    4.5060   -0.2100    0.2560 O   0  0  0  0  0  0  0  0  0  0  0  0
    2.4500   -0.0180   -0.9170 C   0  0  0  0  0  0  0  0  0  0  0  0
    1.7030   -0.5530    0.2110 C   0  0  0  0  0  0  0  0  0  0  0  0
    2.3400   -0.9160    1.3620 O   0  0  0  0  0  0  0  0  0  0  0  0
    0.3830   -0.6820    0.0990 C   0  0  0  0  0  0  0  0  0  0  0  0
   -0.3610   -1.2240    1.2510 C   0  0  1  0  0  0  0  0  0  0  0  0
   -0.3000   -0.3350    2.4370 C   0  0  0  0  0  0  0  0  0  0  0  0
   -0.7720    0.9280    2.3490 O   0  0  0  0  0  0  0  0  0  0  0  0
   -1.9180   -1.8820    0.7810 S   0  0  0  0  0  0  0  0  0  0  0  0
   -3.0670   -0.7140    0.1320 C   0  0  0  0  0  0  0  0  0  0  0  0
   -2.8210    0.5200   -0.1630 C   0  0  0  0  0  0  0  0  0  0  0  0
   -3.8050    1.4800   -0.7040 C   0  0  0  0  0  0  0  0  0  0  0  0
   -5.0500    0.9410   -0.9650 O   0  0  0  0  0  0  0  0  0  0  0  0
   -5.3420   -0.3680   -0.6590 C   0  0  0  0  0  0  0  0  0  0  0  0
   -4.4620   -1.1930   -0.1450 C   0  0  0  0  0  0  0  0  0  0  0  0
  1  2  1  0
  2  3  1  0
  3  4  1  0
  3  5  2  3
  5  6  1  0
  6  7  1  0
  6  8  2  3
  8  9  1  0
  9 10  1  1
  9 12  1  0
 10 11  1  0
 12 13  1  0
 13 14  2  0
 13 18  1  0
 14 15  1  0
 15 16  1  0
 16 17  1  0
 17 18  2  0
M  END
