
     RDKit          3D

 10 11  0  0  0  0  0  0  0  0999 V2000
   -1.3600    2.2470    0.4990 O   0  0  0  0  0  0  0  0  0  0  0  0
   -1.1130    1.0490    0.2460 C   0  0  0  0  0  0  0  0  0  0  0  0
   -2.0940    0.1430    0.0870 N   0  0  0  0  0  0  0  0  0  0  0  0
   -1.7570   -1.1320   -0.1840 C   0  0  0  0  0  0  0  0  0  0  0  0
   -0.4520   -1.4930   -0.2940 N   0  0  0  0  0  0  0  0  0  0  0  0
    0.5480   -0.6210   -0.1430 C   0  0  0  0  0  0  0  0  0  0  0  0
    1.8910   -0.6670   -0.1890 N   0  0  0  0  0  0  0  0  0  0  0  0
    2.4370    0.5360    0.0430 C   0  0  0  0  0  0  0  0  0  0  0  0
    1.3920    1.3840    0.2460 N   0  0  0  0  0  0  0  0  0  0  0  0
    0.2290    0.7010    0.1380 C   0  0  0  0  0  0  0  0  0  0  0  0
  1  2  2  0
  2  3  1  0
  2 10  1  0
  3  4  1  0
  4  5  2  0
  5  6  1  0
  6  7  1  0
  6 10  2  0
  7  8  1  0
  8  9  2  0
  9 10  1  0
M  END
