
     RDKit          3D

 41 44  0  0  0  0  0  0  0  0999 V2000
   -1.1000    5.9330   -0.2750 C   0  0  0  0  0  0  0  0  0  0  0  0
    0.2530    5.3500   -0.0540 C   0  0  0  0  0  0  0  0  0  0  0  0
    1.0280    4.6950   -1.5240 S   0  0  0  0  0  0  0  0  0  0  0  0
    0.2380    3.2670   -2.2320 C   0  0  2  0  0  0  0  0  0  0  0  0
   -1.1110    3.6700   -2.7510 C   0  0  0  0  0  0  0  0  0  0  0  0
    0.2010    2.0730   -1.4260 C   0  0  0  0  0  0  0  0  0  0  0  0
    1.3890    1.4740   -1.0620 C   0  0  0  0  0  0  0  0  0  0  0  0
    2.6400    2.0590   -1.5180 C   0  0  0  0  0  0  0  0  0  0  0  0
    1.3260    0.3100   -0.2590 C   0  0  0  0  0  0  0  0  0  0  0  0
    2.5880   -0.2870    0.1080 C   0  0  0  0  0  0  0  0  0  0  0  0
    2.9360   -1.2760    0.8520 C   0  0  0  0  0  0  0  0  0  0  0  0
    4.3990   -1.5800    0.9730 C   0  0  0  0  0  0  0  0  0  0  0  0
    4.8260   -2.5150    1.6660 O   0  0  0  0  0  0  0  0  0  0  0  0
    5.2720   -0.7770    0.2800 O   0  0  0  0  0  0  0  0  0  0  0  0
    6.6390   -1.0600    0.3910 C   0  0  0  0  0  0  0  0  0  0  0  0
    7.3920   -0.4870    1.3990 C   0  0  0  0  0  0  0  0  0  0  0  0
    8.7460   -0.7390    1.5440 C   0  0  0  0  0  0  0  0  0  0  0  0
    9.3930   -1.5860    0.6700 C   0  0  0  0  0  0  0  0  0  0  0  0
   10.8530   -1.8980    0.7770 C   0  0  0  0  0  0  0  0  0  0  0  0
    8.6510   -2.1610   -0.3360 C   0  0  0  0  0  0  0  0  0  0  0  0
    7.2890   -1.9070   -0.4820 C   0  0  0  0  0  0  0  0  0  0  0  0
    0.1070   -0.1810    0.1250 C   0  0  0  0  0  0  0  0  0  0  0  0
    0.0110   -1.4300    0.9340 C   0  0  0  0  0  0  0  0  0  0  0  0
   -1.0590    0.4260   -0.2430 N   0  0  0  0  0  0  0  0  0  0  0  0
   -2.3650   -0.0560    0.1570 C   0  0  0  0  0  0  0  0  0  0  0  0
   -2.9530   -1.0540   -0.8320 C   0  0  2  0  0  0  0  0  0  0  0  0
   -3.0490   -0.3650   -2.0320 O   0  0  0  0  0  0  0  0  0  0  0  0
   -4.2520   -1.5040   -0.3070 C   0  0  0  0  0  0  0  0  0  0  0  0
   -4.8750   -1.0370    0.8140 C   0  0  0  0  0  0  0  0  0  0  0  0
   -6.0890   -1.4790    1.2660 C   0  0  0  0  0  0  0  0  0  0  0  0
   -6.7430   -2.4720    0.5440 C   0  0  0  0  0  0  0  0  0  0  0  0
   -6.1290   -2.9570   -0.5910 C   0  0  0  0  0  0  0  0  0  0  0  0
   -4.9020   -2.5000   -1.0360 C   0  0  0  0  0  0  0  0  0  0  0  0
   -4.3540   -3.0660   -2.2200 N   0  0  0  0  0  0  0  0  0  0  0  0
   -8.0020   -2.9470    0.9940 N   0  0  0  0  0  0  0  0  0  0  0  0
   -8.6040   -2.4370    2.1520 C   0  0  0  0  0  0  0  0  0  0  0  0
   -9.7820   -2.8510    2.5110 O   0  0  0  0  0  0  0  0  0  0  0  0
   -7.9260   -1.4310    2.9840 C   0  0  0  0  0  0  0  0  0  0  0  0
   -6.6580   -0.8900    2.4940 C   0  0  0  0  0  0  0  0  0  0  0  0
   -0.9930    1.5390   -1.0110 C   0  0  0  0  0  0  0  0  0  0  0  0
   -2.1190    2.0330   -1.3050 O   0  0  0  0  0  0  0  0  0  0  0  0
  1  2  1  0
  2  3  1  0
  3  4  1  0
  4  5  1  1
  4  6  1  0
  6  7  2  0
  6 40  1  0
  7  8  1  0
  7  9  1  0
  9 10  1  0
  9 22  2  0
 10 11  2  3
 11 12  1  0
 12 13  2  0
 12 14  1  0
 14 15  1  0
 15 16  2  0
 15 21  1  0
 16 17  1  0
 17 18  2  0
 18 19  1  0
 18 20  1  0
 20 21  2  0
 22 23  1  0
 22 24  1  0
 24 25  1  0
 24 40  1  0
 25 26  1  0
 26 27  1  6
 26 28  1  0
 28 29  2  0
 28 33  1  0
 29 30  1  0
 30 31  2  0
 30 39  1  0
 31 32  1  0
 31 35  1  0
 32 33  2  0
 33 34  1  0
 35 36  1  0
 36 37  2  0
 36 38  1  0
 38 39  1  0
 40 41  2  0
M  END
