
     RDKit          3D

 41 44  0  0  0  0  0  0  0  0999 V2000
    0.4710   -6.4980    2.1600 C   0  0  0  0  0  0  0  0  0  0  0  0
   -0.5890   -5.5870    1.7670 C   0  0  0  0  0  0  0  0  0  0  0  0
   -0.6900   -4.3660    1.5370 C   0  0  0  0  0  0  0  0  0  0  0  0
    0.2360   -3.2400    1.5540 C   0  0  0  0  0  0  0  0  0  0  0  0
    1.5700   -3.3780    2.0450 C   0  0  0  0  0  0  0  0  0  0  0  0
    2.1840   -4.3710    2.4440 O   0  0  0  0  0  0  0  0  0  0  0  0
   -0.3270   -2.0510    1.2080 C   0  0  0  0  0  0  0  0  0  0  0  0
    0.2650   -0.7960    1.0940 C   0  0  0  0  0  0  0  0  0  0  0  0
   -0.6460    0.2120    0.8760 C   0  0  0  0  0  0  0  0  0  0  0  0
   -2.0710    0.0510    0.7820 C   0  0  0  0  0  0  0  0  0  0  0  0
   -2.8990   -0.5430    1.7110 C   0  0  0  0  0  0  0  0  0  0  0  0
   -4.2680   -0.6560    1.5050 C   0  0  0  0  0  0  0  0  0  0  0  0
   -4.8640   -0.1780    0.3590 C   0  0  0  0  0  0  0  0  0  0  0  0
   -4.0520    0.4160   -0.5770 C   0  0  0  0  0  0  0  0  0  0  0  0
   -2.6840    0.5330   -0.3780 C   0  0  0  0  0  0  0  0  0  0  0  0
   -1.9130    1.1340   -1.3400 O   0  0  0  0  0  0  0  0  0  0  0  0
   -4.9540    0.8240   -1.7140 C   0  0  1  0  0  0  0  0  0  0  0  0
   -5.0200   -0.2910   -2.7290 C   0  0  0  0  0  0  0  0  0  0  0  0
   -6.2110   -0.2430   -3.6230 C   0  0  0  0  0  0  0  0  0  0  0  0
   -7.0900    0.9590   -3.3390 C   0  0  0  0  0  0  0  0  0  0  0  0
   -7.4480    1.0640   -1.8970 C   0  0  0  0  0  0  0  0  0  0  0  0
   -6.2700    1.0250   -1.0070 C   0  0  1  0  0  0  0  0  0  0  0  0
   -6.2290   -0.1430   -0.1100 N   0  0  0  0  0  0  0  0  0  0  0  0
    1.6320   -0.4460    0.8080 C   0  0  0  0  0  0  0  0  0  0  0  0
    2.5440   -1.2450    0.3990 O   0  0  0  0  0  0  0  0  0  0  0  0
    2.1830    0.9010    0.9560 N   0  0  0  0  0  0  0  0  0  0  0  0
    3.2750    1.3300    0.1380 C   0  0  0  0  0  0  0  0  0  0  0  0
    3.4010    0.7220   -1.1060 C   0  0  0  0  0  0  0  0  0  0  0  0
    4.4440    1.1130   -1.9120 C   0  0  0  0  0  0  0  0  0  0  0  0
    5.3460    2.0660   -1.5370 C   0  0  0  0  0  0  0  0  0  0  0  0
    6.4690    2.4700   -2.4320 C   0  0  0  0  0  0  0  0  0  0  0  0
    7.9130    1.4450   -2.1140 S   0  0  0  0  0  0  0  0  0  0  0  0
    8.3670    1.6970   -0.3780 C   0  0  0  0  0  0  0  0  0  0  0  0
    7.5780    0.0010   -2.3890 O   0  0  0  0  0  0  0  0  0  0  0  0
    5.2150    2.6670   -0.3020 C   0  0  0  0  0  0  0  0  0  0  0  0
    4.1550    2.2830    0.5410 C   0  0  0  0  0  0  0  0  0  0  0  0
    1.7240    1.8000    1.9720 C   0  0  2  0  0  0  0  0  0  0  0  0
    1.5710    3.1840    1.4510 C   0  0  0  0  0  0  0  0  0  0  0  0
    2.7840    1.7360    3.0810 C   0  0  0  0  0  0  0  0  0  0  0  0
    3.7190    0.6890    3.0870 N   0  0  0  0  0  0  0  0  0  0  0  0
    2.7880    2.6130    3.9540 O   0  0  0  0  0  0  0  0  0  0  0  0
  1  2  1  0
  2  3  2  3
  3  4  1  0
  4  5  1  0
  4  7  2  3
  5  6  2  0
  7  8  1  0
  8  9  2  3
  8 24  1  0
  9 10  1  0
 10 11  2  0
 10 15  1  0
 11 12  1  0
 12 13  2  0
 13 14  1  0
 13 23  1  0
 14 15  2  0
 14 17  1  0
 15 16  1  0
 17 18  1  6
 17 22  1  0
 18 19  1  0
 19 20  1  0
 20 21  1  0
 22 21  1  6
 22 23  1  0
 24 25  2  0
 24 26  1  0
 26 27  1  0
 26 37  1  0
 27 28  2  0
 27 36  1  0
 28 29  1  0
 29 30  2  0
 30 31  1  0
 30 35  1  0
 31 32  1  0
 32 33  1  1
 32 34  2  0
 35 36  2  0
 37 38  1  6
 37 39  1  0
 39 40  1  0
 39 41  2  0
M  END
