
     RDKit          3D

 41 44  0  0  0  0  0  0  0  0999 V2000
    9.7160    1.8680   -0.7300 C   0  0  0  0  0  0  0  0  0  0  0  0
    8.8370    1.1940    0.2560 C   0  0  0  0  0  0  0  0  0  0  0  0
    9.3100    0.9680    1.5260 C   0  0  0  0  0  0  0  0  0  0  0  0
    8.5290    0.3370    2.4850 C   0  0  0  0  0  0  0  0  0  0  0  0
    9.0660    0.1080    3.8590 C   0  0  0  0  0  0  0  0  0  0  0  0
    7.2680   -0.0530    2.1220 C   0  0  0  0  0  0  0  0  0  0  0  0
    6.4050   -0.7260    3.1350 C   0  0  0  0  0  0  0  0  0  0  0  0
    6.7260    0.1500    0.8390 C   0  0  0  0  0  0  0  0  0  0  0  0
    5.4310   -0.3300    0.5920 N   0  0  0  0  0  0  0  0  0  0  0  0
    4.7110   -0.0780   -0.5900 C   0  0  0  0  0  0  0  0  0  0  0  0
    5.1770    0.6110   -1.5150 O   0  0  0  0  0  0  0  0  0  0  0  0
    3.3490   -0.6370   -0.7710 C   0  0  0  0  0  0  0  0  0  0  0  0
    3.0960   -1.8780   -0.2110 C   0  0  0  0  0  0  0  0  0  0  0  0
    1.8520   -2.4070   -0.3510 C   0  0  0  0  0  0  0  0  0  0  0  0
    0.8460   -1.7110   -1.0470 C   0  0  0  0  0  0  0  0  0  0  0  0
    1.0700   -0.4910   -1.6030 C   0  0  0  0  0  0  0  0  0  0  0  0
    0.1160    0.3030   -2.2760 N   0  0  0  0  0  0  0  0  0  0  0  0
   -1.2760    0.1530   -2.1070 C   0  0  0  0  0  0  0  0  0  0  0  0
   -1.5940   -0.7740   -1.2810 O   0  0  0  0  0  0  0  0  0  0  0  0
   -2.2970    0.9340   -2.7650 C   0  0  0  0  0  0  0  0  0  0  0  0
   -2.0540    1.9440   -3.6600 C   0  0  0  0  0  0  0  0  0  0  0  0
   -0.7540    2.2790   -4.0190 O   0  0  0  0  0  0  0  0  0  0  0  0
   -3.0830    2.6900   -4.2610 C   0  0  0  0  0  0  0  0  0  0  0  0
   -4.3720    2.3990   -3.9410 C   0  0  0  0  0  0  0  0  0  0  0  0
   -4.6500    1.3800   -3.0360 C   0  0  0  0  0  0  0  0  0  0  0  0
   -3.6410    0.6660   -2.4650 C   0  0  0  0  0  0  0  0  0  0  0  0
   -3.9500   -0.3970   -1.4960 C   0  0  0  0  0  0  0  0  0  0  0  0
   -5.4170   -0.5490   -1.3940 N   0  0  0  0  0  0  0  0  0  0  0  0
   -5.8990   -1.1100   -2.6700 C   0  0  0  0  0  0  0  0  0  0  0  0
   -5.7800   -1.4600   -0.3200 C   0  0  0  0  0  0  0  0  0  0  0  0
   -5.4930   -0.9670    1.0450 C   0  0  0  0  0  0  0  0  0  0  0  0
   -6.1700    0.3160    1.4410 C   0  0  2  0  0  0  0  0  0  0  0  0
   -5.7190    0.6160    2.8570 C   0  0  0  0  0  0  0  0  0  0  0  0
   -6.2830   -0.3030    3.8910 C   0  0  0  0  0  0  0  0  0  0  0  0
   -8.0700    0.0370    3.9710 S   0  0  0  0  0  0  0  0  0  0  0  0
   -8.1900    1.4130    4.6250 O   0  0  0  0  0  0  0  0  0  0  0  0
   -8.5870    0.1280    2.2960 N   0  0  0  0  0  0  0  0  0  0  0  0
   -7.6240    0.3320    1.2690 C   0  0  0  0  0  0  0  0  0  0  0  0
   -8.0830    0.5420    0.1140 O   0  0  0  0  0  0  0  0  0  0  0  0
    2.3600    0.0340   -1.4480 C   0  0  0  0  0  0  0  0  0  0  0  0
    7.5490    0.7760   -0.0550 C   0  0  0  0  0  0  0  0  0  0  0  0
  1  2  1  0
  2  3  2  0
  2 41  1  0
  3  4  1  0
  4  5  1  0
  4  6  2  0
  6  7  1  0
  6  8  1  0
  8  9  1  0
  8 41  2  0
  9 10  1  0
 10 11  2  0
 10 12  1  0
 12 13  2  0
 12 40  1  0
 13 14  1  0
 14 15  2  0
 15 16  1  0
 16 17  1  0
 16 40  2  0
 17 18  1  0
 18 19  2  0
 18 20  1  0
 20 21  2  0
 20 26  1  0
 21 22  1  0
 21 23  1  0
 23 24  2  0
 24 25  1  0
 25 26  2  0
 26 27  1  0
 27 28  1  0
 28 29  1  0
 28 30  1  0
 30 31  1  0
 32 31  1  1
 32 33  1  0
 32 38  1  0
 33 34  1  0
 35 34  1  6
 35 36  2  0
 35 37  1  0
 37 38  1  0
 38 39  2  0
M  END
