
     RDKit          3D

 41 45  0  0  0  0  0  0  0  0999 V2000
    8.7860   -0.2120    0.5200 C   0  0  0  0  0  0  0  0  0  0  0  0
    7.6270   -0.5850    1.0380 C   0  0  0  0  0  0  0  0  0  0  0  0
    6.4450    0.2560    0.9250 C   0  0  0  0  0  0  0  0  0  0  0  0
    5.3210   -0.1930    1.4730 C   0  0  0  0  0  0  0  0  0  0  0  0
    5.3210   -1.7260    2.2790 Cl  0  0  0  0  0  0  0  0  0  0  0  0
    4.0970    0.5320    1.3920 C   0  0  0  0  0  0  0  0  0  0  0  0
    4.0720    1.7120    0.7350 C   0  0  0  0  0  0  0  0  0  0  0  0
    2.7980    2.4700    0.6460 C   0  0  0  0  0  0  0  0  0  0  0  0
    1.7130    1.4830    0.1890 C   0  0  0  0  0  0  0  0  0  0  0  0
    1.7920    0.2370    0.9260 N   0  0  0  0  0  0  0  0  0  0  0  0
    0.9280   -0.8140    0.6330 C   0  0  0  0  0  0  0  0  0  0  0  0
    0.9930   -1.9020    1.2670 O   0  0  0  0  0  0  0  0  0  0  0  0
   -0.0990   -0.7360   -0.4120 C   0  0  0  0  0  0  0  0  0  0  0  0
   -1.3780   -0.3300   -0.0060 C   0  0  0  0  0  0  0  0  0  0  0  0
   -2.4360   -0.1980   -0.8610 C   0  0  0  0  0  0  0  0  0  0  0  0
   -3.7500    0.2160   -0.5010 N   0  0  0  0  0  0  0  0  0  0  0  0
   -4.2220    0.5430    0.7670 C   0  0  0  0  0  0  0  0  0  0  0  0
   -3.4640    0.4920    1.7540 O   0  0  0  0  0  0  0  0  0  0  0  0
   -5.6370    0.9570    0.9440 C   0  0  0  0  0  0  0  0  0  0  0  0
   -6.6300    0.0380    1.2050 C   0  0  0  0  0  0  0  0  0  0  0  0
   -7.9560    0.4170    1.3710 C   0  0  0  0  0  0  0  0  0  0  0  0
   -8.9800   -0.6090    1.6500 C   0  0  0  0  0  0  0  0  0  0  0  0
   -8.2550    1.7540    1.2670 C   0  0  0  0  0  0  0  0  0  0  0  0
   -7.2890    2.6970    1.0070 C   0  0  0  0  0  0  0  0  0  0  0  0
   -5.9940    2.2880    0.8490 C   0  0  0  0  0  0  0  0  0  0  0  0
   -4.7540    3.4920    0.5160 Cl  0  0  0  0  0  0  0  0  0  0  0  0
   -2.1650   -0.5000   -2.2050 C   0  0  0  0  0  0  0  0  0  0  0  0
   -0.9180   -0.8960   -2.6000 C   0  0  0  0  0  0  0  0  0  0  0  0
    0.1680   -1.0300   -1.7130 C   0  0  0  0  0  0  0  0  0  0  0  0
    1.3870   -1.4390   -2.2110 O   0  0  0  0  0  0  0  0  0  0  0  0
    1.8170   -2.7490   -2.4210 C   0  0  0  0  0  0  0  0  0  0  0  0
    1.8630   -3.6280   -1.2070 C   0  0  0  0  0  0  0  0  0  0  0  0
   -0.6470   -1.1970   -3.9480 O   0  0  0  0  0  0  0  0  0  0  0  0
   -1.5070   -0.5900   -4.9280 C   0  0  0  0  0  0  0  0  0  0  0  0
   -2.9100   -0.9550   -4.5060 C   0  0  0  0  0  0  0  0  0  0  0  0
   -3.2940   -0.3770   -3.1800 C   0  0  0  0  0  0  0  0  0  0  0  0
    2.7930    0.1660    1.9390 C   0  0  1  0  0  0  0  0  0  0  0  0
    2.6270   -0.8790    2.9290 C   0  0  0  0  0  0  0  0  0  0  0  0
    3.3760   -0.5670    4.2370 C   0  0  0  0  0  0  0  0  0  0  0  0
    5.2660    2.2200    0.1290 N   0  0  0  0  0  0  0  0  0  0  0  0
    6.5180    1.5560    0.2220 C   0  0  0  0  0  0  0  0  0  0  0  0
  1  2  2  0
  2  3  1  0
  3  4  2  0
  3 41  1  0
  4  5  1  0
  4  6  1  0
  6  7  2  0
  6 37  1  0
  7  8  1  0
  7 40  1  0
  8  9  1  0
  9 10  1  0
 10 11  1  0
 10 37  1  0
 11 12  2  0
 11 13  1  0
 13 14  2  0
 13 29  1  0
 14 15  1  0
 15 16  1  0
 15 27  2  0
 16 17  1  0
 17 18  2  0
 17 19  1  0
 19 20  2  0
 19 25  1  0
 20 21  1  0
 21 22  1  0
 21 23  2  0
 23 24  1  0
 24 25  2  0
 25 26  1  0
 27 28  1  0
 27 36  1  0
 28 29  2  0
 28 33  1  0
 29 30  1  0
 30 31  1  0
 31 32  1  0
 33 34  1  0
 34 35  1  0
 35 36  1  0
 37 38  1  6
 38 39  1  0
 40 41  1  0
M  END
