
     RDKit          3D

 41 41  0  0  0  0  0  0  0  0999 V2000
   10.4090    1.7930   -2.2600 C   0  0  0  0  0  0  0  0  0  0  0  0
    9.1600    2.1790   -1.7070 O   0  0  0  0  0  0  0  0  0  0  0  0
    8.3430    1.2600   -1.0650 C   0  0  0  0  0  0  0  0  0  0  0  0
    8.7940    0.0710   -1.0140 O   0  0  0  0  0  0  0  0  0  0  0  0
    7.0330    1.6350   -0.4790 C   0  0  1  0  0  0  0  0  0  0  0  0
    6.3840    0.4810    0.1320 N   0  0  0  0  0  0  0  0  0  0  0  0
    5.1090    0.0540   -0.3320 C   0  0  0  0  0  0  0  0  0  0  0  0
    4.6150    0.7500   -1.2820 O   0  0  0  0  0  0  0  0  0  0  0  0
    4.3840   -1.1150    0.2370 C   0  0  1  0  0  0  0  0  0  0  0  0
    3.0790   -1.1160   -0.4330 N   0  0  0  0  0  0  0  0  0  0  0  0
    1.9120   -0.9270    0.3200 C   0  0  0  0  0  0  0  0  0  0  0  0
    1.9210   -0.7520    1.5730 O   0  0  0  0  0  0  0  0  0  0  0  0
    0.6020   -0.9280   -0.3550 C   0  0  0  0  0  0  0  0  0  0  0  0
   -0.5380   -0.6840    0.6120 C   0  0  0  0  0  0  0  0  0  0  0  0
   -1.8560   -0.6920   -0.0870 C   0  0  2  0  0  0  0  0  0  0  0  0
   -1.7790    0.3550   -1.0390 O   0  0  0  0  0  0  0  0  0  0  0  0
   -3.0470   -0.5110    0.7740 C   0  0  2  0  0  0  0  0  0  0  0  0
   -3.2680   -1.5630    1.8170 C   0  0  0  0  0  0  0  0  0  0  0  0
   -3.4660   -2.9290    1.2960 C   0  0  0  0  0  0  0  0  0  0  0  0
   -2.4690   -3.8420    1.0970 C   0  0  0  0  0  0  0  0  0  0  0  0
   -2.6910   -5.1140    0.6020 C   0  0  0  0  0  0  0  0  0  0  0  0
   -3.9460   -5.5150    0.2870 C   0  0  0  0  0  0  0  0  0  0  0  0
   -4.9930   -4.6320    0.4690 C   0  0  0  0  0  0  0  0  0  0  0  0
   -4.7540   -3.3660    0.9640 C   0  0  0  0  0  0  0  0  0  0  0  0
   -4.2760   -0.4830   -0.0130 N   0  0  0  0  0  0  0  0  0  0  0  0
   -5.1300    0.6420   -0.0150 C   0  0  0  0  0  0  0  0  0  0  0  0
   -4.8660    1.6870    0.6730 O   0  0  0  0  0  0  0  0  0  0  0  0
   -6.3750    0.6480   -0.8220 C   0  0  2  0  0  0  0  0  0  0  0  0
   -6.1260    0.2830   -2.2670 C   0  0  0  0  0  0  0  0  0  0  0  0
   -7.0930    1.8830   -0.6740 N   0  0  0  0  0  0  0  0  0  0  0  0
   -8.3700    1.9960   -0.0860 C   0  0  0  0  0  0  0  0  0  0  0  0
   -8.9220    0.9490    0.3400 O   0  0  0  0  0  0  0  0  0  0  0  0
   -9.0900    3.2920    0.0530 C   0  0  2  0  0  0  0  0  0  0  0  0
   -8.2750    4.3260    0.7880 C   0  0  0  0  0  0  0  0  0  0  0  0
  -10.3680    3.1370    0.6840 N   0  0  0  0  0  0  0  0  0  0  0  0
    4.9990   -2.4440   -0.1410 C   0  0  2  0  0  0  0  0  0  0  0  0
    4.1310   -3.5090    0.5180 C   0  0  0  0  0  0  0  0  0  0  0  0
    6.4300   -2.5890    0.2520 C   0  0  0  0  0  0  0  0  0  0  0  0
    7.1990    2.7520    0.5460 C   0  0  2  0  0  0  0  0  0  0  0  0
    5.7910    3.0460    1.0730 C   0  0  0  0  0  0  0  0  0  0  0  0
    7.6950    3.9790   -0.1720 C   0  0  0  0  0  0  0  0  0  0  0  0
  1  2  1  0
  2  3  1  0
  3  4  2  0
  3  5  1  0
  5  6  1  1
  5 39  1  0
  6  7  1  0
  7  8  2  0
  7  9  1  0
  9 10  1  6
  9 36  1  0
 10 11  1  0
 11 12  2  0
 11 13  1  0
 13 14  1  0
 14 15  1  0
 15 16  1  6
 15 17  1  0
 17 18  1  1
 17 25  1  0
 18 19  1  0
 19 20  2  0
 19 24  1  0
 20 21  1  0
 21 22  2  0
 22 23  1  0
 23 24  2  0
 25 26  1  0
 26 27  2  0
 26 28  1  0
 28 29  1  6
 28 30  1  0
 30 31  1  0
 31 32  2  0
 31 33  1  0
 33 34  1  1
 33 35  1  0
 36 37  1  1
 36 38  1  0
 39 40  1  6
 39 41  1  0
M  CHG  1  35   1
M  END
