
     RDKit          3D

 41 45  0  0  0  0  0  0  0  0999 V2000
   -0.9330   -6.6190    1.3520 C   0  0  0  0  0  0  0  0  0  0  0  0
   -1.8400   -5.4120    1.4380 C   0  0  0  0  0  0  0  0  0  0  0  0
   -3.0290   -5.6390    1.6510 O   0  0  0  0  0  0  0  0  0  0  0  0
   -1.3480   -4.1080    1.2840 N   0  0  0  0  0  0  0  0  0  0  0  0
   -2.0960   -2.9000    1.3490 C   0  0  0  0  0  0  0  0  0  0  0  0
   -3.3990   -2.8750    1.7940 C   0  0  0  0  0  0  0  0  0  0  0  0
   -4.1510   -1.7000    1.9160 C   0  0  0  0  0  0  0  0  0  0  0  0
   -3.5380   -0.5340    1.5700 C   0  0  0  0  0  0  0  0  0  0  0  0
   -4.2830    0.7390    1.6860 C   0  0  0  0  0  0  0  0  0  0  0  0
   -5.3520    0.8510    0.7250 N   0  0  0  0  0  0  0  0  0  0  0  0
   -6.5010   -0.0340    0.6680 C   0  0  0  0  0  0  0  0  0  0  0  0
   -7.5790    0.7810   -0.0360 C   0  0  1  0  0  0  0  0  0  0  0  0
   -8.4880    1.4500    0.9740 C   0  0  0  0  0  0  0  0  0  0  0  0
   -6.7720    1.8000   -0.7780 C   0  0  0  0  0  0  0  0  0  0  0  0
   -7.1950    2.6340   -1.7900 C   0  0  0  0  0  0  0  0  0  0  0  0
   -6.3390    3.5240   -2.3840 C   0  0  0  0  0  0  0  0  0  0  0  0
   -6.8730    4.5950   -3.6810 Cl  0  0  0  0  0  0  0  0  0  0  0  0
   -5.0290    3.5590   -1.9320 C   0  0  0  0  0  0  0  0  0  0  0  0
   -4.6030    2.7140   -0.9060 C   0  0  0  0  0  0  0  0  0  0  0  0
   -5.4760    1.8170   -0.3140 C   0  0  0  0  0  0  0  0  0  0  0  0
   -2.2110   -0.5550    1.1150 C   0  0  0  0  0  0  0  0  0  0  0  0
   -1.4620   -1.6950    0.9910 C   0  0  0  0  0  0  0  0  0  0  0  0
   -0.1370   -1.7160    0.4970 N   0  0  0  0  0  0  0  0  0  0  0  0
    0.6880   -0.5860    0.2370 C   0  0  0  0  0  0  0  0  0  0  0  0
    0.2360    0.5480    0.4540 O   0  0  0  0  0  0  0  0  0  0  0  0
    2.0800   -0.7590   -0.2880 C   0  0  0  0  0  0  0  0  0  0  0  0
    2.7020    0.4860   -0.4770 O   0  0  0  0  0  0  0  0  0  0  0  0
    3.9790    0.6460   -0.9380 C   0  0  0  0  0  0  0  0  0  0  0  0
    4.4580    1.9480   -1.0760 C   0  0  0  0  0  0  0  0  0  0  0  0
    5.7600    2.1310   -1.5440 C   0  0  0  0  0  0  0  0  0  0  0  0
    6.5900    1.0860   -1.8750 C   0  0  0  0  0  0  0  0  0  0  0  0
    7.8820    1.3300   -2.3380 O   0  0  0  0  0  0  0  0  0  0  0  0
    8.9690    1.4570   -1.4530 C   0  0  0  0  0  0  0  0  0  0  0  0
    9.7020    0.3760   -1.0490 C   0  0  0  0  0  0  0  0  0  0  0  0
   10.7640    0.5410   -0.1780 C   0  0  0  0  0  0  0  0  0  0  0  0
   11.0670    1.8200    0.2730 C   0  0  0  0  0  0  0  0  0  0  0  0
   10.3450    2.9080   -0.1200 C   0  0  0  0  0  0  0  0  0  0  0  0
   10.6950    4.5390    0.4280 Cl  0  0  0  0  0  0  0  0  0  0  0  0
    9.2870    2.7120   -0.9930 C   0  0  0  0  0  0  0  0  0  0  0  0
    6.1130   -0.2060   -1.7380 C   0  0  0  0  0  0  0  0  0  0  0  0
    4.8250   -0.3900   -1.2760 C   0  0  0  0  0  0  0  0  0  0  0  0
  1  2  1  0
  2  3  2  0
  2  4  1  0
  4  5  1  0
  5  6  2  0
  5 22  1  0
  6  7  1  0
  7  8  2  0
  8  9  1  0
  8 21  1  0
  9 10  1  0
 10 11  1  0
 10 20  1  0
 11 12  1  0
 12 13  1  1
 12 14  1  0
 14 15  2  0
 14 20  1  0
 15 16  1  0
 16 17  1  0
 16 18  2  0
 18 19  1  0
 19 20  2  0
 21 22  2  0
 22 23  1  0
 23 24  1  0
 24 25  2  0
 24 26  1  0
 26 27  1  0
 27 28  1  0
 28 29  2  0
 28 41  1  0
 29 30  1  0
 30 31  2  0
 31 32  1  0
 31 40  1  0
 32 33  1  0
 33 34  2  0
 33 39  1  0
 34 35  1  0
 35 36  2  0
 36 37  1  0
 37 38  1  0
 37 39  2  0
 40 41  2  0
M  END
