
     RDKit          3D

 17 17  0  0  0  0  0  0  0  0999 V2000
    4.7760    1.2430    1.1480 C   0  0  0  0  0  0  0  0  0  0  0  0
    3.8070    1.0860    0.0010 C   0  0  0  0  0  0  0  0  0  0  0  0
    2.7020    0.1730    0.4360 C   0  0  1  0  0  0  0  0  0  0  0  0
    3.2110   -1.1950    0.8290 C   0  0  0  0  0  0  0  0  0  0  0  0
    2.0280    0.6970    1.5570 O   0  0  0  0  0  0  0  0  0  0  0  0
    1.6570   -0.0140   -0.6440 C   0  0  0  0  0  0  0  0  0  0  0  0
    0.6710   -0.9370   -0.1190 N   0  0  0  0  0  0  0  0  0  0  0  0
   -0.5880   -1.2260   -1.2910 S   0  0  2  0  0  0  0  0  0  0  0  0
   -1.4360   -2.2870   -0.6970 O   0  0  0  0  0  0  0  0  0  0  0  0
    0.1470   -1.7310   -2.5270 O   0  0  0  0  0  0  0  0  0  0  0  0
   -1.4360    0.2670   -1.6750 C   0  0  0  0  0  0  0  0  0  0  0  0
   -2.1250    0.9350   -0.5540 C   0  0  0  0  0  0  0  0  0  0  0  0
   -3.3000    0.3020    0.0270 C   0  0  0  0  0  0  0  0  0  0  0  0
   -3.9230   -0.7780   -0.3780 C   0  0  0  0  0  0  0  0  0  0  0  0
   -5.0950   -1.0840    0.5240 C   0  0  0  0  0  0  0  0  0  0  0  0
   -5.0150    0.0140    1.5000 C   0  0  0  0  0  0  0  0  0  0  0  0
   -4.0050    0.8150    1.2400 C   0  0  0  0  0  0  0  0  0  0  0  0
  1  2  1  0
  2  3  1  0
  3  4  1  1
  3  5  1  0
  3  6  1  0
  6  7  1  0
  7  8  1  0
  8  9  2  0
  8 10  2  0
  8 11  1  6
 11 12  1  0
 12 13  1  0
 13 14  2  0
 13 17  1  0
 14 15  1  0
 15 16  1  0
 16 17  2  0
M  END
