
     RDKit          3D

 17 17  0  0  0  0  0  0  0  0999 V2000
    4.6070   -1.8300    0.1700 C   0  0  0  0  0  0  0  0  0  0  0  0
    3.4720   -1.1480    0.2550 C   0  0  0  0  0  0  0  0  0  0  0  0
    2.1970   -1.7320   -0.2720 C   0  0  0  0  0  0  0  0  0  0  0  0
    1.5430   -0.6350   -1.5640 S   0  0  0  0  0  0  0  0  0  0  0  0
    1.0580    0.9010   -0.7900 C   0  0  0  0  0  0  0  0  0  0  0  0
    2.0170    1.8870   -0.6120 C   0  0  0  0  0  0  0  0  0  0  0  0
    1.6680    3.0750   -0.0330 C   0  0  0  0  0  0  0  0  0  0  0  0
    2.4910    3.9930    0.1500 O   0  0  0  0  0  0  0  0  0  0  0  0
    0.4050    3.2690    0.3540 N   0  0  0  0  0  0  0  0  0  0  0  0
   -0.5800    2.3660    0.2150 C   0  0  0  0  0  0  0  0  0  0  0  0
   -1.9420    2.6860    0.6740 C   0  0  0  0  0  0  0  0  0  0  0  0
   -0.2340    1.1510   -0.3740 C   0  0  0  0  0  0  0  0  0  0  0  0
   -1.2080    0.2210   -0.5290 O   0  0  0  0  0  0  0  0  0  0  0  0
   -1.6330   -0.7890    0.3160 C   0  0  0  0  0  0  0  0  0  0  0  0
   -2.7760   -1.5040   -0.4250 C   0  0  2  0  0  0  0  0  0  0  0  0
   -3.3230   -2.6080    0.4420 C   0  0  0  0  0  0  0  0  0  0  0  0
   -2.2640   -1.9990   -1.6000 O   0  0  0  0  0  0  0  0  0  0  0  0
  1  2  2  0
  2  3  1  0
  3  4  1  0
  4  5  1  0
  5  6  2  0
  5 12  1  0
  6  7  1  0
  7  8  2  0
  7  9  1  0
  9 10  1  0
 10 11  1  0
 10 12  2  0
 12 13  1  0
 13 14  1  0
 14 15  1  0
 15 16  1  1
 15 17  1  0
M  END
