
     RDKit          3D

 17 17  0  0  0  0  0  0  0  0999 V2000
    1.3270   -0.2520    1.9860 C   0  0  0  0  0  0  0  0  0  0  0  0
    0.8150    0.4780    0.7580 C   0  0  1  0  0  0  0  0  0  0  0  0
    1.2920   -0.1700   -0.4060 O   0  0  0  0  0  0  0  0  0  0  0  0
    2.7090   -0.2180   -0.5110 C   0  0  0  0  0  0  0  0  0  0  0  0
    3.3630    0.8920   -0.5930 C   0  0  0  0  0  0  0  0  0  0  0  0
    4.7860    1.1790   -0.7080 C   0  0  0  0  0  0  0  0  0  0  0  0
    5.7460   -0.3290   -0.7340 S   0  0  0  0  0  0  0  0  0  0  0  0
    4.6380   -1.7060   -0.6100 C   0  0  0  0  0  0  0  0  0  0  0  0
    3.3500   -1.5190   -0.5200 C   0  0  0  0  0  0  0  0  0  0  0  0
   -0.6590    0.5630    0.7780 C   0  0  0  0  0  0  0  0  0  0  0  0
   -1.3140    1.0910    1.7010 O   0  0  0  0  0  0  0  0  0  0  0  0
   -1.3890    0.0150   -0.3140 N   0  0  0  0  0  0  0  0  0  0  0  0
   -2.8180    0.0410   -0.4010 C   0  0  1  0  0  0  0  0  0  0  0  0
   -3.3300    1.4590   -0.3940 C   0  0  0  0  0  0  0  0  0  0  0  0
   -3.2470   -0.6290   -1.6850 C   0  0  0  0  0  0  0  0  0  0  0  0
   -3.4930   -0.7010    0.7270 C   0  0  0  0  0  0  0  0  0  0  0  0
   -4.8730   -0.5980    0.5230 O   0  0  0  0  0  0  0  0  0  0  0  0
  2  1  1  1
  2  3  1  0
  2 10  1  0
  3  4  1  0
  4  5  2  0
  4  9  1  0
  5  6  1  0
  6  7  1  0
  7  8  1  0
  8  9  2  0
 10 11  2  0
 10 12  1  0
 12 13  1  0
 13 14  1  6
 13 15  1  0
 13 16  1  0
 16 17  1  0
M  END
