
     RDKit          3D

 19 21  0  0  0  0  0  0  0  0999 V2000
    4.5820    1.2410    1.0640 N   0  0  0  0  0  0  0  0  0  0  0  0
    3.6540    0.4830    0.3210 C   0  0  0  0  0  0  0  0  0  0  0  0
    4.1450   -0.2580   -0.7440 C   0  0  0  0  0  0  0  0  0  0  0  0
    3.2980   -1.0090   -1.4970 C   0  0  0  0  0  0  0  0  0  0  0  0
    1.9980   -1.0250   -1.2020 N   0  0  0  0  0  0  0  0  0  0  0  0
    1.4850   -0.3140   -0.1690 C   0  0  0  0  0  0  0  0  0  0  0  0
    2.3020    0.4510    0.6100 C   0  0  0  0  0  0  0  0  0  0  0  0
    1.5710    1.0580    1.5640 N   0  0  0  0  0  0  0  0  0  0  0  0
    0.2920    0.6500    1.3530 C   0  0  0  0  0  0  0  0  0  0  0  0
    0.2180   -0.1750    0.3170 N   0  0  0  0  0  0  0  0  0  0  0  0
   -0.9030   -0.8560   -0.2810 C   0  0  2  0  0  0  0  0  0  0  0  0
   -1.2550   -0.2240   -1.4430 O   0  0  0  0  0  0  0  0  0  0  0  0
   -2.5400    0.2370   -1.3410 C   0  0  2  0  0  0  0  0  0  0  0  0
   -2.6490    1.5980   -0.7030 C   0  0  0  0  0  0  0  0  0  0  0  0
   -1.9270    2.4990   -1.4840 O   0  0  0  0  0  0  0  0  0  0  0  0
   -3.2130   -0.8080   -0.4420 C   0  0  1  0  0  0  0  0  0  0  0  0
   -3.2720   -1.9900   -1.1390 O   0  0  0  0  0  0  0  0  0  0  0  0
   -2.1010   -0.9430    0.6080 C   0  0  1  0  0  0  0  0  0  0  0  0
   -2.2050   -2.1580    1.2770 O   0  0  0  0  0  0  0  0  0  0  0  0
  1  2  1  0
  2  3  2  0
  2  7  1  0
  3  4  1  0
  4  5  2  0
  5  6  1  0
  6  7  2  0
  6 10  1  0
  7  8  1  0
  8  9  2  0
  9 10  1  0
 11 10  1  1
 11 12  1  0
 11 18  1  0
 12 13  1  0
 13 14  1  1
 13 16  1  0
 14 15  1  0
 16 17  1  6
 16 18  1  0
 18 19  1  6
M  END
