
     RDKit          3D

 19 19  0  0  0  0  0  0  0  0999 V2000
    2.7050   -1.5150    0.0510 O   0  0  0  0  0  0  0  0  0  0  0  0
    2.2550   -0.5370   -0.5880 C   0  0  0  0  0  0  0  0  0  0  0  0
    3.1740    0.3830   -1.1410 N   0  0  0  0  0  0  0  0  0  0  0  0
    4.6040    0.3470   -1.0550 C   0  0  0  0  0  0  0  0  0  0  0  0
    5.1980    0.4460    0.3020 C   0  0  0  0  0  0  0  0  0  0  0  0
    4.7890   -0.5870    1.1190 O   0  0  0  0  0  0  0  0  0  0  0  0
    0.7820   -0.3860   -0.7400 C   0  0  2  0  0  0  0  0  0  0  0  0
    0.2300    0.8930   -0.2300 C   0  0  0  0  0  0  0  0  0  0  0  0
   -1.0010    0.7220    0.6420 C   0  0  0  0  0  0  0  0  0  0  0  0
   -1.9150   -0.3780    0.2150 C   0  0  1  0  0  0  0  0  0  0  0  0
   -2.6370   -1.0130    1.4030 C   0  0  0  0  0  0  0  0  0  0  0  0
   -3.5390   -1.9830    0.9790 O   0  0  0  0  0  0  0  0  0  0  0  0
   -2.9810    0.1540   -0.7280 C   0  0  1  0  0  0  0  0  0  0  0  0
   -3.8640   -0.9010   -1.0610 O   0  0  0  0  0  0  0  0  0  0  0  0
   -3.7610    1.2640   -0.0700 C   0  0  0  0  0  0  0  0  0  0  0  0
   -4.7910    1.6990   -0.9730 O   0  0  0  0  0  0  0  0  0  0  0  0
   -1.2440   -1.4480   -0.4030 O   0  0  0  0  0  0  0  0  0  0  0  0
    0.0850   -1.5230   -0.0200 C   0  0  2  0  0  0  0  0  0  0  0  0
    0.3000   -1.4680    1.3340 O   0  0  0  0  0  0  0  0  0  0  0  0
  1  2  2  0
  2  3  1  0
  7  2  1  1
  3  4  1  0
  4  5  1  0
  5  6  1  0
  7  8  1  0
  7 18  1  0
  8  9  1  0
  9 10  1  0
 10 11  1  1
 10 13  1  0
 10 17  1  0
 11 12  1  0
 13 14  1  1
 13 15  1  0
 15 16  1  0
 17 18  1  0
 18 19  1  1
M  END
