
     RDKit          3D

 20 20  0  0  0  0  0  0  0  0999 V2000
   -0.3460   -0.6820   -2.9970 N   0  0  0  0  0  0  0  0  0  0  0  0
   -1.3450   -0.1490   -2.1520 C   0  0  0  0  0  0  0  0  0  0  0  0
   -2.4830    0.0780   -2.6150 O   0  0  0  0  0  0  0  0  0  0  0  0
   -1.0050    0.1340   -0.7010 C   0  0  2  0  0  0  0  0  0  0  0  0
    0.3260   -0.2070   -0.4930 O   0  0  0  0  0  0  0  0  0  0  0  0
    1.0770    0.9110   -0.2310 C   0  0  2  0  0  0  0  0  0  0  0  0
    1.8680    1.0790   -1.4140 O   0  0  0  0  0  0  0  0  0  0  0  0
    1.6580    2.2630   -2.0430 C   0  0  0  0  0  0  0  0  0  0  0  0
    0.3820    2.5280   -2.4860 O   0  0  0  0  0  0  0  0  0  0  0  0
    1.9780    0.7690    0.9430 C   0  0  1  0  0  0  0  0  0  0  0  0
    1.2670    0.5090    2.0910 O   0  0  0  0  0  0  0  0  0  0  0  0
    3.1130   -0.1950    0.7150 C   0  0  0  0  0  0  0  0  0  0  0  0
    2.6770   -1.5800    0.4010 C   0  0  0  0  0  0  0  0  0  0  0  0
    1.9110   -2.1730    1.3880 O   0  0  0  0  0  0  0  0  0  0  0  0
   -1.8830   -0.6760    0.1860 C   0  0  2  0  0  0  0  0  0  0  0  0
   -3.3650   -0.3800   -0.0590 C   0  0  0  0  0  0  0  0  0  0  0  0
   -3.9230   -0.9660    1.1010 O   0  0  0  0  0  0  0  0  0  0  0  0
   -3.2200   -0.3670    2.1120 C   0  0  0  0  0  0  0  0  0  0  0  0
   -1.7840   -0.3700    1.6530 C   0  0  1  0  0  0  0  0  0  0  0  0
   -1.1400   -1.3890    2.3560 O   0  0  0  0  0  0  0  0  0  0  0  0
  1  2  1  0
  2  3  2  0
  2  4  1  0
  4  5  1  6
  4 15  1  0
  6  5  1  6
  6  7  1  0
  6 10  1  0
  7  8  1  0
  8  9  1  0
 10 11  1  1
 10 12  1  0
 12 13  1  0
 13 14  1  0
 15 16  1  6
 15 19  1  0
 16 17  1  0
 17 18  1  0
 18 19  1  0
 19 20  1  1
M  END
