
     RDKit          3D

 17 17  0  0  0  0  0  0  0  0999 V2000
    3.6840    0.6330   -1.5980 C   0  0  0  0  0  0  0  0  0  0  0  0
    2.6330    1.6710   -1.3340 C   0  0  0  0  0  0  0  0  0  0  0  0
    2.0200    1.5210    0.3460 S   0  0  2  0  0  0  0  0  0  0  0  0
    1.1370    2.6820    0.5930 O   0  0  0  0  0  0  0  0  0  0  0  0
    3.2450    1.5890    1.2640 O   0  0  0  0  0  0  0  0  0  0  0  0
    1.3410   -0.0050    0.5460 N   0  0  0  0  0  0  0  0  0  0  0  0
    0.2170   -0.3550   -0.2720 C   0  0  1  0  0  0  0  0  0  0  0  0
    0.6030   -1.4710   -1.2430 C   0  0  0  0  0  0  0  0  0  0  0  0
    0.2560   -2.8350   -0.7540 C   0  0  0  0  0  0  0  0  0  0  0  0
    0.0520   -2.9320    0.7440 C   0  0  0  0  0  0  0  0  0  0  0  0
   -1.0830   -1.9800    1.0210 C   0  0  0  0  0  0  0  0  0  0  0  0
   -0.9760   -0.7280    0.5120 C   0  0  0  0  0  0  0  0  0  0  0  0
   -2.0810    0.1440    0.7980 C   0  0  0  0  0  0  0  0  0  0  0  0
   -2.0720    1.3840    0.3410 C   0  0  0  0  0  0  0  0  0  0  0  0
   -3.2020    2.2960    0.6270 C   0  0  0  0  0  0  0  0  0  0  0  0
   -4.3140    1.7300    1.4410 C   0  0  0  0  0  0  0  0  0  0  0  0
   -3.1990    3.4590    0.2010 O   0  0  0  0  0  0  0  0  0  0  0  0
  1  2  1  0
  3  2  1  6
  3  4  2  0
  3  5  2  0
  3  6  1  0
  7  6  1  1
  7  8  1  0
  7 12  1  0
  8  9  1  0
  9 10  1  0
 10 11  1  0
 11 12  2  0
 12 13  1  0
 13 14  2  3
 14 15  1  0
 15 16  1  0
 15 17  2  0
M  END
