
     RDKit          3D

 17 19  0  0  0  0  0  0  0  0999 V2000
    4.7480   -0.0530   -0.7610 O   0  0  0  0  0  0  0  0  0  0  0  0
    3.4650   -0.2930   -0.2870 C   0  0  0  0  0  0  0  0  0  0  0  0
    3.3060   -1.1850    0.7590 C   0  0  0  0  0  0  0  0  0  0  0  0
    2.0410   -1.4290    1.2340 C   0  0  0  0  0  0  0  0  0  0  0  0
    0.9320   -0.7830    0.6670 C   0  0  0  0  0  0  0  0  0  0  0  0
    1.0770    0.0990   -0.3650 C   0  0  0  0  0  0  0  0  0  0  0  0
    2.3510    0.3350   -0.8320 C   0  0  0  0  0  0  0  0  0  0  0  0
   -0.0370    0.8140   -1.0090 C   0  0  2  0  0  0  0  0  0  0  0  0
    0.1740    2.1920   -0.7530 O   0  0  0  0  0  0  0  0  0  0  0  0
   -1.3670    0.5090   -0.4540 C   0  0  0  0  0  0  0  0  0  0  0  0
   -2.4650    1.1220   -0.9860 C   0  0  0  0  0  0  0  0  0  0  0  0
   -3.7530    0.8890   -0.5190 C   0  0  0  0  0  0  0  0  0  0  0  0
   -5.1740    1.6600   -1.1810 Cl  0  0  0  0  0  0  0  0  0  0  0  0
   -3.8890   -0.0020    0.5210 C   0  0  0  0  0  0  0  0  0  0  0  0
   -2.7770   -0.6390    1.0780 C   0  0  0  0  0  0  0  0  0  0  0  0
   -1.5150   -0.3800    0.5860 C   0  0  0  0  0  0  0  0  0  0  0  0
   -0.3780   -1.0410    1.1650 N   0  0  0  0  0  0  0  0  0  0  0  0
  1  2  1  0
  2  3  2  0
  2  7  1  0
  3  4  1  0
  4  5  2  0
  5  6  1  0
  5 17  1  0
  6  7  2  0
  6  8  1  0
  8  9  1  1
  8 10  1  0
 10 11  2  0
 10 16  1  0
 11 12  1  0
 12 13  1  0
 12 14  2  0
 14 15  1  0
 15 16  2  0
 16 17  1  0
M  END
