
     RDKit          3D

 17 18  0  0  0  0  0  0  0  0999 V2000
    5.5420    0.7970    2.8160 C   0  0  0  0  0  0  0  0  0  0  0  0
    4.6280    0.3600    1.9450 C   0  0  0  0  0  0  0  0  0  0  0  0
    3.1880    0.7310    1.9100 C   0  0  0  0  0  0  0  0  0  0  0  0
    2.7260    0.2380    0.5540 C   0  0  2  0  0  0  0  0  0  0  0  0
    1.4780   -0.4920    0.6500 N   0  0  0  0  0  0  0  0  0  0  0  0
    0.3620   -0.0630   -0.0830 C   0  0  0  0  0  0  0  0  0  0  0  0
    0.4390    0.9440   -0.8160 O   0  0  0  0  0  0  0  0  0  0  0  0
   -0.8750   -0.7160   -0.0420 O   0  0  0  0  0  0  0  0  0  0  0  0
   -1.9830   -0.2890   -0.7700 C   0  0  1  0  0  0  0  0  0  0  0  0
   -2.4760   -1.2910   -1.7800 C   0  0  0  0  0  0  0  0  0  0  0  0
   -3.3690   -0.5010   -2.7460 C   0  0  0  0  0  0  0  0  0  0  0  0
   -4.5330    0.1170   -2.0000 C   0  0  0  0  0  0  0  0  0  0  0  0
   -4.0780    0.9350   -0.8380 C   0  0  0  0  0  0  0  0  0  0  0  0
   -3.1520    0.1320    0.0740 C   0  0  0  0  0  0  0  0  0  0  0  0
    3.8090   -0.6490    0.0700 C   0  0  0  0  0  0  0  0  0  0  0  0
    4.8540   -0.5740    0.8440 C   0  0  0  0  0  0  0  0  0  0  0  0
    6.3370   -1.4800    0.5930 Cl  0  0  0  0  0  0  0  0  0  0  0  0
  1  2  2  0
  2  3  1  0
  2 16  1  0
  3  4  1  0
  4  5  1  1
  4 15  1  0
  5  6  1  0
  6  7  2  0
  6  8  1  0
  9  8  1  1
  9 10  1  0
  9 14  1  0
 10 11  1  0
 11 12  1  0
 12 13  1  0
 13 14  1  0
 15 16  2  0
 16 17  1  0
M  END
