
     RDKit          3D

 17 17  0  0  0  0  0  0  0  0999 V2000
   -3.5760   -1.6970    0.0600 C   0  0  0  0  0  0  0  0  0  0  0  0
   -2.3670   -1.2390   -0.2180 C   0  0  0  0  0  0  0  0  0  0  0  0
   -2.3140   -0.2360   -1.3370 C   0  0  0  0  0  0  0  0  0  0  0  0
   -1.4320    0.8620   -0.7870 C   0  0  0  0  0  0  0  0  0  0  0  0
   -2.0870    1.9690   -0.4790 C   0  0  0  0  0  0  0  0  0  0  0  0
   -1.3580    3.1210    0.0660 C   0  0  0  0  0  0  0  0  0  0  0  0
    0.0040    0.7830   -0.5910 C   0  0  0  0  0  0  0  0  0  0  0  0
    0.5700   -0.1360    0.2610 N   0  0  0  0  0  0  0  0  0  0  0  0
    1.8050   -0.7020   -0.1910 C   0  0  0  0  0  0  0  0  0  0  0  0
    2.9560    0.2800   -0.2220 C   0  0  2  0  0  0  0  0  0  0  0  0
    3.4080    0.6740    1.1620 C   0  0  0  0  0  0  0  0  0  0  0  0
    2.7240    1.3550   -1.0560 O   0  0  0  0  0  0  0  0  0  0  0  0
    4.0420   -0.4260   -0.7950 O   0  0  0  0  0  0  0  0  0  0  0  0
   -0.1590   -0.9110    1.1830 C   0  0  0  0  0  0  0  0  0  0  0  0
   -1.2540   -1.7260    0.5720 C   0  0  0  0  0  0  0  0  0  0  0  0
   -1.2010   -3.0260    0.7340 C   0  0  0  0  0  0  0  0  0  0  0  0
   -2.3690   -4.1010    0.0500 Cl  0  0  0  0  0  0  0  0  0  0  0  0
  1  2  2  0
  2  3  1  0
  2 15  1  0
  3  4  1  0
  4  5  2  3
  4  7  1  0
  5  6  1  0
  7  8  1  0
  8  9  1  0
  8 14  1  0
  9 10  1  0
 10 11  1  1
 10 12  1  0
 10 13  1  0
 14 15  1  0
 15 16  2  3
 16 17  1  0
M  END
