
     RDKit          3D

 22 21  0  0  0  0  0  0  0  0999 V2000
    6.5790   -2.2820   -1.2790 C   0  0  0  0  0  0  0  0  0  0  0  0
    5.8760   -1.0090   -1.6120 C   0  0  0  0  0  0  0  0  0  0  0  0
    5.4220   -0.2600   -0.3600 C   0  0  0  0  0  0  0  0  0  0  0  0
    4.4870   -1.0970    0.4400 C   0  0  0  0  0  0  0  0  0  0  0  0
    4.0590   -0.3630    1.6890 C   0  0  0  0  0  0  0  0  0  0  0  0
    3.3590    0.8800    1.2990 C   0  0  0  0  0  0  0  0  0  0  0  0
    2.1180    1.1120    1.6150 C   0  0  0  0  0  0  0  0  0  0  0  0
    1.2380    0.2540    2.3640 C   0  0  0  0  0  0  0  0  0  0  0  0
    0.0290   -0.2740    1.7440 C   0  0  0  0  0  0  0  0  0  0  0  0
   -0.3960   -0.1320    0.5330 C   0  0  0  0  0  0  0  0  0  0  0  0
    0.1560    0.5780   -0.6240 C   0  0  0  0  0  0  0  0  0  0  0  0
   -0.7680    1.6670   -1.0980 C   0  0  0  0  0  0  0  0  0  0  0  0
   -1.9110    1.8450   -0.4580 C   0  0  0  0  0  0  0  0  0  0  0  0
   -2.8790    2.8860   -0.8480 C   0  0  0  0  0  0  0  0  0  0  0  0
   -4.1600    2.2730   -1.2300 C   0  0  0  0  0  0  0  0  0  0  0  0
   -4.3130    0.9520   -1.1800 C   0  0  0  0  0  0  0  0  0  0  0  0
   -5.5950    0.3710   -1.5690 C   0  0  0  0  0  0  0  0  0  0  0  0
   -6.3310   -0.3590   -0.5250 C   0  0  0  0  0  0  0  0  0  0  0  0
   -5.6290   -1.4860    0.1140 C   0  0  0  0  0  0  0  0  0  0  0  0
   -4.4940   -1.1760    0.9940 C   0  0  0  0  0  0  0  0  0  0  0  0
   -4.2350   -0.0650    1.5010 O   0  0  0  0  0  0  0  0  0  0  0  0
   -3.6190   -2.2320    1.2940 O   0  0  0  0  0  0  0  0  0  0  0  0
  1  2  1  0
  2  3  1  0
  3  4  1  0
  4  5  1  0
  5  6  1  0
  6  7  2  3
  7  8  1  0
  8  9  1  0
  9 10  2  3
 10 11  1  0
 11 12  1  0
 12 13  2  3
 13 14  1  0
 14 15  1  0
 15 16  2  3
 16 17  1  0
 17 18  1  0
 18 19  1  0
 19 20  1  0
 20 21  2  0
 20 22  1  0
M  END
