
     RDKit          3D

 17 19  0  0  0  0  0  0  0  0999 V2000
    0.2920   -1.9360    2.0530 Cl  0  0  0  0  0  0  0  0  0  0  0  0
    1.3220   -1.1300    0.9100 C   0  0  0  0  0  0  0  0  0  0  0  0
    2.6790   -1.1710    1.1140 C   0  0  0  0  0  0  0  0  0  0  0  0
    3.5780   -0.5020    0.3140 C   0  0  0  0  0  0  0  0  0  0  0  0
    3.0750    0.2570   -0.7600 C   0  0  0  0  0  0  0  0  0  0  0  0
    1.7110    0.2730   -0.9290 C   0  0  0  0  0  0  0  0  0  0  0  0
    0.7950   -0.3810   -0.1500 C   0  0  0  0  0  0  0  0  0  0  0  0
   -0.6370   -0.4010   -0.4700 C   0  0  2  0  0  0  0  0  0  0  0  0
   -1.0600    1.0660   -0.4930 C   0  0  0  0  0  0  0  0  0  0  0  0
   -2.0130    1.2890    0.6820 C   0  0  0  0  0  0  0  0  0  0  0  0
   -3.4320    1.0150    0.2830 C   0  0  0  0  0  0  0  0  0  0  0  0
   -3.3920   -0.1810   -0.6690 C   0  0  0  0  0  0  0  0  0  0  0  0
   -2.7970   -1.3470    0.0210 C   0  0  0  0  0  0  0  0  0  0  0  0
   -1.3870   -1.2990    0.2850 N   0  0  0  0  0  0  0  0  0  0  0  0
    4.1710    0.8200   -1.3980 O   0  0  0  0  0  0  0  0  0  0  0  0
    5.2250    0.8530   -0.4060 C   0  0  0  0  0  0  0  0  0  0  0  0
    4.9890   -0.3700    0.2830 O   0  0  0  0  0  0  0  0  0  0  0  0
  1  2  1  0
  2  3  2  0
  2  7  1  0
  3  4  1  0
  4  5  2  0
  4 17  1  0
  5  6  1  0
  5 15  1  0
  6  7  2  0
  8  7  1  1
  8  9  1  0
  8 14  1  0
  9 10  1  0
 10 11  1  0
 11 12  1  0
 12 13  1  0
 13 14  1  0
 15 16  1  0
 16 17  1  0
M  END
