
     RDKit          3D

 21 22  0  0  0  0  0  0  0  0999 V2000
   -3.2340   -2.3010   -1.5060 O   0  0  0  0  0  0  0  0  0  0  0  0
   -2.8170   -1.8160   -0.4620 C   0  0  0  0  0  0  0  0  0  0  0  0
   -3.7540   -1.6000    0.6990 C   0  0  0  0  0  0  0  0  0  0  0  0
   -4.8890   -1.0890    0.0130 O   0  0  0  0  0  0  0  0  0  0  0  0
   -5.0680    0.1270    0.6880 O   0  0  0  0  0  0  0  0  0  0  0  0
   -5.8040    0.8090   -0.1760 O   0  0  0  0  0  0  0  0  0  0  0  0
   -5.4400    2.0090   -0.4340 O   0  0  0  0  0  0  0  0  0  0  0  0
   -1.4590   -1.4000   -0.2370 N   0  0  0  0  0  0  0  0  0  0  0  0
   -1.0680   -0.7480    0.9790 C   0  0  0  0  0  0  0  0  0  0  0  0
   -0.0480    0.2770    0.4880 C   0  0  0  0  0  0  0  0  0  0  0  0
   -0.2200    1.5110    0.6140 O   0  0  0  0  0  0  0  0  0  0  0  0
    1.1600   -0.3500   -0.0530 N   0  0  0  0  0  0  0  0  0  0  0  0
    2.3350    0.3960   -0.0980 C   0  0  2  0  0  0  0  0  0  0  0  0
    2.4080    1.6620    0.5250 C   0  0  0  0  0  0  0  0  0  0  0  0
    3.8780    2.0510    0.6880 C   0  0  0  0  0  0  0  0  0  0  0  0
    4.6350    1.0440   -0.2370 C   0  0  0  0  0  0  0  0  0  0  0  0
    4.0830    0.8500   -1.4230 O   0  0  0  0  0  0  0  0  0  0  0  0
    2.7430    0.6880   -1.4900 O   0  0  0  0  0  0  0  0  0  0  0  0
    0.9690   -1.6110   -0.7020 C   0  0  0  0  0  0  0  0  0  0  0  0
   -0.4370   -1.7160   -1.1620 C   0  0  0  0  0  0  0  0  0  0  0  0
   -0.7360   -2.1100   -2.3390 O   0  0  0  0  0  0  0  0  0  0  0  0
  1  2  2  0
  2  3  1  0
  2  8  1  0
  3  4  1  0
  4  5  1  0
  5  6  1  0
  6  7  1  0
  8  9  1  0
  8 20  1  0
  9 10  1  0
 10 11  2  0
 10 12  1  0
 13 12  1  6
 12 19  1  0
 13 14  1  0
 13 18  1  0
 14 15  1  0
 15 16  1  0
 16 17  1  0
 17 18  1  0
 19 20  1  0
 20 21  2  0
M  END
