
     RDKit          3D

 21 21  0  0  0  0  0  0  0  0999 V2000
    3.1190    1.2160    0.5480 C   0  0  0  0  0  0  0  0  0  0  0  0
    2.0010    0.6500   -0.2990 C   0  0  1  0  0  0  0  0  0  0  0  0
    1.6230   -0.7110    0.2580 C   0  0  0  0  0  0  0  0  0  0  0  0
    0.9820   -1.5500   -0.7170 N   0  0  0  0  0  0  0  0  0  0  0  0
    1.8460   -2.1230   -1.7580 C   0  0  0  0  0  0  0  0  0  0  0  0
   -0.4070   -1.8520   -0.7330 C   0  0  0  0  0  0  0  0  0  0  0  0
   -0.8190   -2.7810   -1.4720 O   0  0  0  0  0  0  0  0  0  0  0  0
   -1.4060   -1.1280    0.0780 C   0  0  2  0  0  0  0  0  0  0  0  0
   -1.9330   -1.9480    1.0600 O   0  0  0  0  0  0  0  0  0  0  0  0
   -1.6510   -1.5050    2.2680 O   0  0  0  0  0  0  0  0  0  0  0  0
   -2.3950   -2.1530    3.1330 O   0  0  0  0  0  0  0  0  0  0  0  0
   -2.4830   -0.5290   -0.7540 C   0  0  0  0  0  0  0  0  0  0  0  0
   -3.5300   -1.2320   -0.8410 O   0  0  0  0  0  0  0  0  0  0  0  0
   -2.3750    0.7270   -1.4090 N   0  0  0  0  0  0  0  0  0  0  0  0
   -1.7620    1.8940   -0.8820 C   0  0  0  0  0  0  0  0  0  0  0  0
   -1.0970    2.6880   -1.6070 O   0  0  0  0  0  0  0  0  0  0  0  0
   -1.8340    2.3020    0.5490 C   0  0  0  0  0  0  0  0  0  0  0  0
   -0.5060    2.7340    1.0580 C   0  0  0  0  0  0  0  0  0  0  0  0
   -0.4860    3.7930    1.7630 O   0  0  0  0  0  0  0  0  0  0  0  0
    0.6090    2.0030    0.7610 O   0  0  0  0  0  0  0  0  0  0  0  0
    0.9350    1.5040   -0.4220 O   0  0  0  0  0  0  0  0  0  0  0  0
  2  1  1  1
  2  3  1  0
  2 21  1  0
  3  4  1  0
  4  5  1  0
  4  6  1  0
  6  7  2  0
  6  8  1  0
  8  9  1  1
  8 12  1  0
  9 10  1  0
 10 11  1  0
 12 13  2  0
 12 14  1  0
 14 15  1  0
 15 16  2  0
 15 17  1  0
 17 18  1  0
 18 19  2  0
 18 20  1  0
 20 21  1  0
M  END
