
     RDKit          3D

 21 20  0  0  0  0  0  0  0  0999 V2000
   -1.7890    2.6670    0.8170 C   0  0  0  0  0  0  0  0  0  0  0  0
   -2.0630    1.4110    0.5980 C   0  0  0  0  0  0  0  0  0  0  0  0
   -1.2620    0.2690    0.5560 N   0  0  0  0  0  0  0  0  0  0  0  0
   -1.7880   -1.0150    0.2950 C   0  0  0  0  0  0  0  0  0  0  0  0
   -0.8380   -1.9680    0.3020 O   0  0  0  0  0  0  0  0  0  0  0  0
   -3.0480   -1.5230    0.0340 C   0  0  0  0  0  0  0  0  0  0  0  0
   -4.2460   -1.0400   -0.0770 C   0  0  0  0  0  0  0  0  0  0  0  0
   -5.3730   -1.9950   -0.3810 C   0  0  0  0  0  0  0  0  0  0  0  0
   -6.5090   -1.5290   -0.4850 O   0  0  0  0  0  0  0  0  0  0  0  0
   -5.1270   -3.3350   -0.5340 O   0  0  0  0  0  0  0  0  0  0  0  0
    0.1470    0.3440    0.7780 C   0  0  0  0  0  0  0  0  0  0  0  0
    0.7960   -0.7810    0.7140 O   0  0  0  0  0  0  0  0  0  0  0  0
    0.9860    1.4940    1.0710 C   0  0  0  0  0  0  0  0  0  0  0  0
    2.3980    1.0400    1.2060 N   0  0  0  0  0  0  0  0  0  0  0  0
    3.0810    0.4170    0.1410 C   0  0  0  0  0  0  0  0  0  0  0  0
    2.5120    0.2260   -0.9690 O   0  0  0  0  0  0  0  0  0  0  0  0
    4.3960    0.0300    0.3780 O   0  0  0  0  0  0  0  0  0  0  0  0
    5.0600   -0.5750   -0.6570 O   0  0  0  0  0  0  0  0  0  0  0  0
    6.3250   -0.1530   -1.0540 C   0  0  0  0  0  0  0  0  0  0  0  0
    6.8740    0.8090   -0.4480 O   0  0  0  0  0  0  0  0  0  0  0  0
    7.0290   -0.7360   -2.0920 O   0  0  0  0  0  0  0  0  0  0  0  0
  1  2  2  0
  2  3  1  0
  3  4  1  0
  3 11  1  0
  4  5  2  0
  4  6  1  0
  6  7  2  3
  7  8  1  0
  8  9  2  0
  8 10  1  0
 11 12  2  0
 11 13  1  0
 13 14  1  0
 14 15  1  0
 15 16  2  0
 15 17  1  0
 17 18  1  0
 18 19  1  0
 19 20  2  0
 19 21  1  0
M  END
