
     RDKit          3D

 21 22  0  0  0  0  0  0  0  0999 V2000
   -1.2570   -1.9380    0.0170 O   0  0  0  0  0  0  0  0  0  0  0  0
   -1.1100   -0.6940   -0.1550 C   0  0  0  0  0  0  0  0  0  0  0  0
    0.2150   -0.3200   -0.2100 O   0  0  0  0  0  0  0  0  0  0  0  0
    1.2990   -1.1750   -0.0960 C   0  0  2  0  0  0  0  0  0  0  0  0
    2.5560   -0.3830   -0.2020 C   0  0  0  0  0  0  0  0  0  0  0  0
    3.7100   -0.9120   -0.1400 O   0  0  0  0  0  0  0  0  0  0  0  0
    2.5130    1.0250   -0.3820 N   0  0  0  0  0  0  0  0  0  0  0  0
    3.6290    1.7820   -0.4850 O   0  0  0  0  0  0  0  0  0  0  0  0
    4.6690    1.1850    0.0680 O   0  0  0  0  0  0  0  0  0  0  0  0
    5.4480    2.0610    0.6530 O   0  0  0  0  0  0  0  0  0  0  0  0
    5.3400    3.2280    0.0700 O   0  0  0  0  0  0  0  0  0  0  0  0
    1.3680   -2.3430   -0.9790 C   0  0  0  0  0  0  0  0  0  0  0  0
    1.8420   -3.4480   -0.0520 C   0  0  0  0  0  0  0  0  0  0  0  0
    1.1130   -3.1550    1.1070 O   0  0  0  0  0  0  0  0  0  0  0  0
    1.2610   -1.7770    1.2980 C   0  0  0  0  0  0  0  0  0  0  0  0
   -2.2010    0.1890   -0.2740 N   0  0  0  0  0  0  0  0  0  0  0  0
   -3.6040   -0.2490   -0.2070 C   0  0  0  0  0  0  0  0  0  0  0  0
   -4.2370    0.9160    0.5300 C   0  0  0  0  0  0  0  0  0  0  0  0
   -3.5810    2.1080   -0.1080 C   0  0  2  0  0  0  0  0  0  0  0  0
   -4.3520    2.4610   -1.2370 O   0  0  0  0  0  0  0  0  0  0  0  0
   -2.2140    1.6180   -0.4760 C   0  0  0  0  0  0  0  0  0  0  0  0
  1  2  2  0
  2  3  1  0
  2 16  1  0
  4  3  1  6
  4  5  1  0
  4 12  1  0
  4 15  1  0
  5  6  2  0
  5  7  1  0
  7  8  1  0
  8  9  1  0
  9 10  1  0
 10 11  1  0
 12 13  1  0
 13 14  1  0
 14 15  1  0
 16 17  1  0
 16 21  1  0
 17 18  1  0
 18 19  1  0
 19 20  1  6
 19 21  1  0
M  END
