
     RDKit          3D

 21 22  0  0  0  0  0  0  0  0999 V2000
   -2.8720    2.9840   -2.3630 O   0  0  0  0  0  0  0  0  0  0  0  0
   -3.1060    2.1120   -1.4610 C   0  0  0  0  0  0  0  0  0  0  0  0
   -2.1100    1.6540   -0.5870 N   0  0  0  0  0  0  0  0  0  0  0  0
   -2.3510    0.7640    0.3330 C   0  0  0  0  0  0  0  0  0  0  0  0
   -1.3180    0.3540    1.1680 O   0  0  0  0  0  0  0  0  0  0  0  0
   -0.0950   -0.0320    0.6630 C   0  0  0  0  0  0  0  0  0  0  0  0
   -0.0420   -1.2280   -0.2150 C   0  0  1  0  0  0  0  0  0  0  0  0
   -0.4850   -2.3900    0.4070 O   0  0  0  0  0  0  0  0  0  0  0  0
   -0.6270   -1.0650   -1.5950 C   0  0  0  0  0  0  0  0  0  0  0  0
    0.3300   -0.1010   -2.0740 O   0  0  0  0  0  0  0  0  0  0  0  0
    1.5430   -0.6860   -1.6890 N   0  0  0  0  0  0  0  0  0  0  0  0
    1.4040   -1.3540   -0.6220 C   0  0  0  0  0  0  0  0  0  0  0  0
    2.3330   -2.0820    0.0950 O   0  0  0  0  0  0  0  0  0  0  0  0
    3.6930   -1.6830    0.1200 C   0  0  0  0  0  0  0  0  0  0  0  0
    3.8560   -0.3110    0.7000 C   0  0  0  0  0  0  0  0  0  0  0  0
    3.1600    0.6280   -0.0400 O   0  0  0  0  0  0  0  0  0  0  0  0
    3.2720    1.8330    0.4280 O   0  0  0  0  0  0  0  0  0  0  0  0
    4.5490    2.2100    0.3980 O   0  0  0  0  0  0  0  0  0  0  0  0
   -3.6970    0.2130    0.4730 C   0  0  0  0  0  0  0  0  0  0  0  0
   -4.7190    1.2130    0.0340 C   0  0  0  0  0  0  0  0  0  0  0  0
   -4.3970    1.5770   -1.3190 O   0  0  0  0  0  0  0  0  0  0  0  0
  1  2  2  0
  2  3  1  0
  2 21  1  0
  3  4  2  0
  4  5  1  0
  4 19  1  0
  5  6  1  0
  6  7  1  0
  7  8  1  1
  7  9  1  0
  7 12  1  0
  9 10  1  0
 10 11  1  0
 11 12  2  0
 12 13  1  0
 13 14  1  0
 14 15  1  0
 15 16  1  0
 16 17  1  0
 17 18  1  0
 19 20  1  0
 20 21  1  0
M  END
