
     RDKit          3D

 21 21  0  0  0  0  0  0  0  0999 V2000
    4.8970   -0.7910    0.8740 C   0  0  0  0  0  0  0  0  0  0  0  0
    3.5770   -0.7840    0.3000 N   0  0  0  0  0  0  0  0  0  0  0  0
    2.3530   -0.1390    0.7520 C   0  0  0  0  0  0  0  0  0  0  0  0
    1.7980    0.2980   -0.5760 C   0  0  1  0  0  0  0  0  0  0  0  0
    0.3370    0.5970   -0.5900 C   0  0  0  0  0  0  0  0  0  0  0  0
   -0.4330   -0.3260    0.1200 O   0  0  0  0  0  0  0  0  0  0  0  0
   -1.8160   -0.2150    0.1330 C   0  0  0  0  0  0  0  0  0  0  0  0
   -2.3730    0.7200   -0.5040 O   0  0  0  0  0  0  0  0  0  0  0  0
   -2.6910   -1.1600    0.8700 C   0  0  0  0  0  0  0  0  0  0  0  0
   -3.7770   -1.6530   -0.0490 C   0  0  0  0  0  0  0  0  0  0  0  0
   -4.6280   -0.6290   -0.5830 N   0  0  0  0  0  0  0  0  0  0  0  0
   -5.4140    0.2050    0.2680 C   0  0  0  0  0  0  0  0  0  0  0  0
   -5.3710    0.0530    1.4940 O   0  0  0  0  0  0  0  0  0  0  0  0
   -6.2430    1.1990   -0.2450 O   0  0  0  0  0  0  0  0  0  0  0  0
    2.5920    1.2030   -1.2650 O   0  0  0  0  0  0  0  0  0  0  0  0
    2.9740    2.4470   -0.8050 C   0  0  0  0  0  0  0  0  0  0  0  0
    2.5680    2.7800    0.3220 O   0  0  0  0  0  0  0  0  0  0  0  0
    3.7640    3.3200   -1.5210 O   0  0  0  0  0  0  0  0  0  0  0  0
    1.9400   -0.9470   -1.3040 O   0  0  0  0  0  0  0  0  0  0  0  0
    3.1780   -1.4350   -0.9000 C   0  0  0  0  0  0  0  0  0  0  0  0
    3.8550   -2.3230   -1.5030 O   0  0  0  0  0  0  0  0  0  0  0  0
  1  2  1  0
  2  3  1  0
  2 20  1  0
  3  4  1  0
  4  5  1  1
  4 15  1  0
  4 19  1  0
  5  6  1  0
  6  7  1  0
  7  8  2  0
  7  9  1  0
  9 10  1  0
 10 11  1  0
 11 12  1  0
 12 13  2  0
 12 14  1  0
 15 16  1  0
 16 17  2  0
 16 18  1  0
 19 20  1  0
 20 21  2  0
M  END
