
     RDKit          3D

 21 21  0  0  0  0  0  0  0  0999 V2000
   -5.4970    0.9860    0.5780 C   0  0  0  0  0  0  0  0  0  0  0  0
   -4.3280    1.0330   -0.2250 O   0  0  0  0  0  0  0  0  0  0  0  0
   -3.1090    1.3710    0.3460 C   0  0  0  0  0  0  0  0  0  0  0  0
   -3.1090    1.6250    1.5830 O   0  0  0  0  0  0  0  0  0  0  0  0
   -1.8410    1.4380   -0.4490 C   0  0  1  0  0  0  0  0  0  0  0  0
   -0.7800    0.5640    0.1520 C   0  0  0  0  0  0  0  0  0  0  0  0
    0.0750    0.0460   -0.9970 C   0  0  1  0  0  0  0  0  0  0  0  0
    1.2530   -0.6290   -0.5850 N   0  0  0  0  0  0  0  0  0  0  0  0
    2.5740   -0.1860   -0.9960 C   0  0  0  0  0  0  0  0  0  0  0  0
    3.1710    0.7790   -0.0750 C   0  0  0  0  0  0  0  0  0  0  0  0
    3.4340    0.5280    1.2670 O   0  0  0  0  0  0  0  0  0  0  0  0
    3.4850    1.9490   -0.5130 N   0  0  0  0  0  0  0  0  0  0  0  0
    4.0490    2.9320    0.2550 O   0  0  0  0  0  0  0  0  0  0  0  0
    1.1740   -1.7630    0.2450 C   0  0  0  0  0  0  0  0  0  0  0  0
    0.0660   -2.1850    0.6250 O   0  0  0  0  0  0  0  0  0  0  0  0
    2.3120   -2.4270    0.6540 O   0  0  0  0  0  0  0  0  0  0  0  0
    2.1910   -3.5640    1.4890 C   0  0  0  0  0  0  0  0  0  0  0  0
   -0.8450   -0.7670   -1.8270 C   0  0  0  0  0  0  0  0  0  0  0  0
   -0.4460   -1.8420   -2.3120 O   0  0  0  0  0  0  0  0  0  0  0  0
   -2.1090   -0.2310   -1.9880 O   0  0  0  0  0  0  0  0  0  0  0  0
   -2.1720    1.1090   -1.7600 O   0  0  0  0  0  0  0  0  0  0  0  0
  1  2  1  0
  2  3  1  0
  3  4  2  0
  5  3  1  1
  5  6  1  0
  5 21  1  0
  6  7  1  0
  7  8  1  1
  7 18  1  0
  8  9  1  0
  8 14  1  0
  9 10  1  0
 10 11  1  0
 10 12  2  3
 12 13  1  0
 14 15  2  0
 14 16  1  0
 16 17  1  0
 18 19  2  0
 18 20  1  0
 20 21  1  0
M  END
