
     RDKit          3D

 21 22  0  0  0  0  0  0  0  0999 V2000
    0.3030   -1.3420    1.8620 C   0  0  0  0  0  0  0  0  0  0  0  0
    0.3850   -1.2640    0.3180 C   0  0  1  0  0  0  0  0  0  0  0  0
    1.7160   -0.8220   -0.0280 C   0  0  0  0  0  0  0  0  0  0  0  0
    2.4470   -1.6970   -0.6220 O   0  0  0  0  0  0  0  0  0  0  0  0
    2.2850    0.4400    0.2170 N   0  0  0  0  0  0  0  0  0  0  0  0
    1.7450    1.5110    0.8400 O   0  0  0  0  0  0  0  0  0  0  0  0
    2.1940    2.5810    0.2610 O   0  0  0  0  0  0  0  0  0  0  0  0
    3.5440    2.3820   -0.0200 C   0  0  0  0  0  0  0  0  0  0  0  0
    3.6040    0.9030   -0.1440 C   0  0  0  0  0  0  0  0  0  0  0  0
    4.5700    0.1720   -0.4840 O   0  0  0  0  0  0  0  0  0  0  0  0
   -0.0090   -2.6060   -0.1540 C   0  0  0  0  0  0  0  0  0  0  0  0
    0.8150   -3.3570   -0.6860 O   0  0  0  0  0  0  0  0  0  0  0  0
   -1.3350   -2.9550    0.0360 O   0  0  0  0  0  0  0  0  0  0  0  0
   -2.3450   -2.1140    0.5010 C   0  0  0  0  0  0  0  0  0  0  0  0
   -1.9190   -0.6540    0.6660 C   0  0  0  0  0  0  0  0  0  0  0  0
   -0.7220   -0.3950   -0.0840 N   0  0  0  0  0  0  0  0  0  0  0  0
   -0.6490    0.5520   -1.0880 C   0  0  0  0  0  0  0  0  0  0  0  0
    0.4960    0.6030   -1.7080 O   0  0  0  0  0  0  0  0  0  0  0  0
   -1.6390    1.4990   -1.5670 C   0  0  0  0  0  0  0  0  0  0  0  0
   -2.8590    1.5330   -0.9740 O   0  0  0  0  0  0  0  0  0  0  0  0
   -3.6740    2.4170   -1.4770 O   0  0  0  0  0  0  0  0  0  0  0  0
  2  1  1  1
  2  3  1  0
  2 11  1  0
  2 16  1  0
  3  4  2  0
  3  5  1  0
  5  6  1  0
  5  9  1  0
  6  7  1  0
  7  8  1  0
  8  9  1  0
  9 10  2  0
 11 12  2  0
 11 13  1  0
 13 14  1  0
 14 15  1  0
 15 16  1  0
 16 17  1  0
 17 18  2  0
 17 19  1  0
 19 20  1  0
 20 21  1  0
M  END
