
     RDKit          3D

 31 32  0  0  0  0  0  0  0  0999 V2000
   -4.2940    3.7840    1.5870 O   0  0  0  0  0  0  0  0  0  0  0  0
   -4.0650    3.2300    0.5890 C   0  0  0  0  0  0  0  0  0  0  0  0
   -5.0120    4.1390   -0.4490 N   0  0  0  0  0  0  0  0  0  0  0  0
   -5.8920    4.8970    0.1870 O   0  0  0  0  0  0  0  0  0  0  0  0
   -6.9020    4.0150    0.5660 O   0  0  0  0  0  0  0  0  0  0  0  0
   -3.5770    2.3720   -0.3020 N   0  0  0  0  0  0  0  0  0  0  0  0
   -2.7280    1.3580    0.8440 C   0  0  0  0  0  0  0  0  0  0  0  0
   -2.5650    1.9120    1.8410 O   0  0  0  0  0  0  0  0  0  0  0  0
   -2.4650    0.1390    0.2910 N   0  0  0  0  0  0  0  0  0  0  0  0
   -3.1410   -0.5530   -0.7840 C   0  0  0  0  0  0  0  0  0  0  0  0
   -3.7980   -0.0520   -1.7580 O   0  0  0  0  0  0  0  0  0  0  0  0
   -2.9600   -1.9320   -0.6250 N   0  0  0  0  0  0  0  0  0  0  0  0
   -2.0800   -2.1910    0.4660 C   0  0  1  0  0  0  0  0  0  0  0  0
   -0.9010   -3.0500   -0.0070 C   0  0  0  0  0  0  0  0  0  0  0  0
   -1.3630   -4.1750   -0.6730 O   0  0  0  0  0  0  0  0  0  0  0  0
   -2.2430   -5.1200   -0.3030 C   0  0  0  0  0  0  0  0  0  0  0  0
   -2.7730   -5.0400    0.8130 O   0  0  0  0  0  0  0  0  0  0  0  0
   -2.5580   -6.1670   -1.1190 O   0  0  0  0  0  0  0  0  0  0  0  0
   -1.5230   -0.8560    0.8230 C   0  0  1  0  0  0  0  0  0  0  0  0
   -0.3080   -0.5130   -0.0630 C   0  0  0  0  0  0  0  0  0  0  0  0
   -0.4780    0.0730   -1.1770 O   0  0  0  0  0  0  0  0  0  0  0  0
    0.8690   -0.8260    0.3370 O   0  0  0  0  0  0  0  0  0  0  0  0
    2.1660   -0.7620    0.0360 O   0  0  0  0  0  0  0  0  0  0  0  0
    2.9000    0.3770    0.3480 C   0  0  0  0  0  0  0  0  0  0  0  0
    2.2430    1.3780    0.8170 O   0  0  0  0  0  0  0  0  0  0  0  0
    4.3080    0.4390    0.2150 N   0  0  0  0  0  0  0  0  0  0  0  0
    4.9460    1.3180    1.2090 C   0  0  0  0  0  0  0  0  0  0  0  0
    5.9650    2.1910    0.6360 C   0  0  0  0  0  0  0  0  0  0  0  0
    6.2840    1.9370   -0.6800 O   0  0  0  0  0  0  0  0  0  0  0  0
    6.3980    0.5810   -0.9540 C   0  0  0  0  0  0  0  0  0  0  0  0
    5.1310   -0.2020   -0.7530 C   0  0  0  0  0  0  0  0  0  0  0  0
  1  2  2  0
  2  3  1  0
  2  6  1  0
  3  4  1  0
  4  5  1  0
  6  7  1  0
  7  8  2  0
  7  9  1  0
  9 10  1  0
  9 19  1  0
 10 11  2  0
 10 12  1  0
 12 13  1  0
 13 14  1  6
 13 19  1  0
 14 15  1  0
 15 16  1  0
 16 17  2  0
 16 18  1  0
 19 20  1  6
 20 21  2  0
 20 22  1  0
 22 23  1  0
 23 24  1  0
 24 25  2  0
 24 26  1  0
 26 27  1  0
 26 31  1  0
 27 28  1  0
 28 29  1  0
 29 30  1  0
 30 31  1  0
M  END
