
     RDKit          3D

 30 31  0  0  0  0  0  0  0  0999 V2000
   -1.3550   -2.3810   -1.3930 C   0  0  0  0  0  0  0  0  0  0  0  0
   -0.7440   -1.4670   -0.4000 N   0  0  0  0  0  0  0  0  0  0  0  0
   -1.6880   -0.5780    0.2450 C   0  0  0  0  0  0  0  0  0  0  0  0
   -3.0650   -0.8420   -0.1120 N   0  0  0  0  0  0  0  0  0  0  0  0
   -3.7360   -1.9160    0.5240 C   0  0  0  0  0  0  0  0  0  0  0  0
   -4.9380   -2.2030    0.2580 O   0  0  0  0  0  0  0  0  0  0  0  0
   -3.0900   -2.6890    1.4650 O   0  0  0  0  0  0  0  0  0  0  0  0
   -3.7380   -0.0350   -1.0840 C   0  0  0  0  0  0  0  0  0  0  0  0
   -4.6700   -0.5870   -1.7210 O   0  0  0  0  0  0  0  0  0  0  0  0
   -3.3240    1.2710   -1.2520 O   0  0  0  0  0  0  0  0  0  0  0  0
   -3.2320    2.2380   -0.2280 C   0  0  0  0  0  0  0  0  0  0  0  0
   -2.1710    3.2590   -0.5610 C   0  0  0  0  0  0  0  0  0  0  0  0
   -2.4940    3.9690   -1.5720 O   0  0  0  0  0  0  0  0  0  0  0  0
   -1.0710    3.3120    0.1900 O   0  0  0  0  0  0  0  0  0  0  0  0
    0.1890    3.0030    0.1360 O   0  0  0  0  0  0  0  0  0  0  0  0
    0.9400    1.9420   -0.2200 C   0  0  0  0  0  0  0  0  0  0  0  0
    1.5380    1.7390   -1.3120 O   0  0  0  0  0  0  0  0  0  0  0  0
    1.1120    0.8470    0.7810 C   0  0  2  0  0  0  0  0  0  0  0  0
    2.2550    1.3490    1.6930 C   0  0  0  0  0  0  0  0  0  0  0  0
    3.3950    1.5230    0.9280 O   0  0  0  0  0  0  0  0  0  0  0  0
    1.4970   -0.4150    0.1790 N   0  0  0  0  0  0  0  0  0  0  0  0
    2.8890   -0.5400   -0.1060 C   0  0  0  0  0  0  0  0  0  0  0  0
    3.6630   -1.1400    0.8020 N   0  0  0  0  0  0  0  0  0  0  0  0
    4.9870   -1.3070    0.6240 C   0  0  0  0  0  0  0  0  0  0  0  0
    5.5190   -0.8610   -0.4850 O   0  0  0  0  0  0  0  0  0  0  0  0
    4.7860   -0.2590   -1.4150 C   0  0  0  0  0  0  0  0  0  0  0  0
    5.3890    0.1330   -2.4430 O   0  0  0  0  0  0  0  0  0  0  0  0
    3.4550   -0.0950   -1.2270 N   0  0  0  0  0  0  0  0  0  0  0  0
    0.6220   -1.4850   -0.1210 C   0  0  0  0  0  0  0  0  0  0  0  0
    1.1730   -2.6520   -0.1400 O   0  0  0  0  0  0  0  0  0  0  0  0
  1  2  1  0
  2  3  1  0
  2 29  1  0
  3  4  1  0
  4  5  1  0
  4  8  1  0
  5  6  2  0
  5  7  1  0
  8  9  2  0
  8 10  1  0
 10 11  1  0
 11 12  1  0
 12 13  2  0
 12 14  1  0
 14 15  1  0
 15 16  1  0
 16 17  2  0
 16 18  1  0
 18 19  1  1
 18 21  1  0
 19 20  1  0
 21 22  1  0
 21 29  1  0
 22 23  1  0
 22 28  2  0
 23 24  2  0
 24 25  1  0
 25 26  1  0
 26 27  2  0
 26 28  1  0
 29 30  2  0
M  END
