
     RDKit          3D

 30 31  0  0  0  0  0  0  0  0999 V2000
   -7.9950   -1.4200    2.7380 O   0  0  0  0  0  0  0  0  0  0  0  0
   -7.5860   -1.4930    1.5400 C   0  0  0  0  0  0  0  0  0  0  0  0
   -6.4240   -0.7700    0.9980 C   0  0  0  0  0  0  0  0  0  0  0  0
   -6.2940   -1.2110   -0.3530 N   0  0  0  0  0  0  0  0  0  0  0  0
   -5.2610   -0.8220   -1.2480 C   0  0  0  0  0  0  0  0  0  0  0  0
   -5.2530   -1.2760   -2.3970 O   0  0  0  0  0  0  0  0  0  0  0  0
   -4.2390    0.1000   -0.7890 C   0  0  0  0  0  0  0  0  0  0  0  0
   -4.2910    0.5500    0.4250 N   0  0  0  0  0  0  0  0  0  0  0  0
   -3.3690    1.4530    1.0170 N   0  0  0  0  0  0  0  0  0  0  0  0
   -2.0580    1.8050    0.5990 C   0  0  0  0  0  0  0  0  0  0  0  0
   -1.4230    2.6100    1.3150 O   0  0  0  0  0  0  0  0  0  0  0  0
   -1.3760    1.3010   -0.6100 C   0  0  2  0  0  0  0  0  0  0  0  0
   -0.1580    1.9170   -0.8360 O   0  0  0  0  0  0  0  0  0  0  0  0
    0.8610    1.1250   -0.8120 O   0  0  0  0  0  0  0  0  0  0  0  0
    1.9040    1.5490   -1.6360 C   0  0  0  0  0  0  0  0  0  0  0  0
    3.0770    0.5930   -1.5780 C   0  0  0  0  0  0  0  0  0  0  0  0
    3.5360    0.5350   -0.2500 O   0  0  0  0  0  0  0  0  0  0  0  0
    4.6200   -0.3580   -0.2420 C   0  0  0  0  0  0  0  0  0  0  0  0
    5.1120   -0.4220    1.1790 C   0  0  0  0  0  0  0  0  0  0  0  0
    6.1720   -1.2800    1.2790 O   0  0  0  0  0  0  0  0  0  0  0  0
    7.2430   -0.9140    0.5050 C   0  0  0  0  0  0  0  0  0  0  0  0
    8.2640   -1.8660    0.7000 O   0  0  0  0  0  0  0  0  0  0  0  0
    8.6180   -1.9000    1.9650 O   0  0  0  0  0  0  0  0  0  0  0  0
    7.8630   -1.0620    2.6330 O   0  0  0  0  0  0  0  0  0  0  0  0
    8.5190   -0.6910    3.7160 O   0  0  0  0  0  0  0  0  0  0  0  0
   -2.3420    1.5260   -1.7700 C   0  0  0  0  0  0  0  0  0  0  0  0
   -3.2590    0.4090   -1.7830 N   0  0  0  0  0  0  0  0  0  0  0  0
   -7.3490   -2.0940   -0.6780 C   0  0  0  0  0  0  0  0  0  0  0  0
   -7.5630   -2.6480   -1.8180 O   0  0  0  0  0  0  0  0  0  0  0  0
   -8.1330   -2.2590    0.4880 N   0  0  0  0  0  0  0  0  0  0  0  0
  1  2  2  0
  2  3  1  0
  2 30  1  0
  3  4  1  0
  4  5  1  0
  4 28  1  0
  5  6  2  0
  5  7  1  0
  7  8  2  0
  7 27  1  0
  8  9  1  0
  9 10  1  0
 10 11  2  0
 10 12  1  0
 12 13  1  6
 12 26  1  0
 13 14  1  0
 14 15  1  0
 15 16  1  0
 16 17  1  0
 17 18  1  0
 18 19  1  0
 19 20  1  0
 20 21  1  0
 21 22  1  0
 22 23  1  0
 23 24  1  0
 24 25  1  0
 26 27  1  0
 28 29  2  0
 28 30  1  0
M  END
