
     RDKit          3D

 31 33  0  0  0  0  0  0  0  0999 V2000
   -5.1520   -5.0140    0.5800 N   0  0  0  0  0  0  0  0  0  0  0  0
   -4.8080   -3.7670    0.0150 C   0  0  0  0  0  0  0  0  0  0  0  0
   -5.5420   -3.3070   -1.0150 N   0  0  0  0  0  0  0  0  0  0  0  0
   -5.2490   -2.1330   -1.5760 C   0  0  0  0  0  0  0  0  0  0  0  0
   -4.2150   -1.4320   -1.0910 N   0  0  0  0  0  0  0  0  0  0  0  0
   -3.4470   -1.8390   -0.0650 C   0  0  0  0  0  0  0  0  0  0  0  0
   -3.7340   -3.0460    0.5250 C   0  0  0  0  0  0  0  0  0  0  0  0
   -2.8470   -3.2210    1.4970 N   0  0  0  0  0  0  0  0  0  0  0  0
   -2.0210   -2.1430    1.5140 C   0  0  0  0  0  0  0  0  0  0  0  0
   -2.3710   -1.2710    0.5550 N   0  0  0  0  0  0  0  0  0  0  0  0
   -1.8340   -0.0110    0.1660 C   0  0  2  0  0  0  0  0  0  0  0  0
   -0.8410   -0.0910   -0.7770 O   0  0  0  0  0  0  0  0  0  0  0  0
   -0.0810    1.0470   -0.7480 C   0  0  2  0  0  0  0  0  0  0  0  0
    1.3660    0.6560   -0.5170 C   0  0  0  0  0  0  0  0  0  0  0  0
    1.8310   -0.1610   -1.5090 O   0  0  0  0  0  0  0  0  0  0  0  0
    3.3570   -0.6820   -1.4310 P   0  0  0  0  0  0  0  0  0  0  0  0
    3.0330   -2.0850   -1.9200 O   0  0  0  0  0  0  0  0  0  0  0  0
    4.3710   -0.4820   -2.7990 O   0  0  0  0  0  0  0  0  0  0  0  0
    4.0420   -1.1880   -0.0370 O   0  0  0  0  0  0  0  0  0  0  0  0
    5.5990   -0.8540    0.2260 P   0  0  0  0  0  0  0  0  0  0  0  0
    5.6400    0.4810   -0.4930 O   0  0  0  0  0  0  0  0  0  0  0  0
    6.7800   -1.4630   -0.7940 O   0  0  0  0  0  0  0  0  0  0  0  0
    6.1130   -0.1380    1.6450 O   0  0  0  0  0  0  0  0  0  0  0  0
   -0.5030    1.8350    0.5000 C   0  0  1  0  0  0  0  0  0  0  0  0
   -1.5200    2.7150    0.2080 O   0  0  0  0  0  0  0  0  0  0  0  0
   -1.2920    4.2880    0.5490 P   0  0  0  0  0  0  0  0  0  0  0  0
   -2.4740    5.1060    1.4880 O   0  0  0  0  0  0  0  0  0  0  0  0
    0.0460    5.1140    0.1700 O   0  0  0  0  0  0  0  0  0  0  0  0
   -2.0770    4.7060   -0.7010 O   0  0  0  0  0  0  0  0  0  0  0  0
   -1.1200    0.7090    1.3080 C   0  0  1  0  0  0  0  0  0  0  0  0
   -2.0080    1.1660    2.2600 O   0  0  0  0  0  0  0  0  0  0  0  0
  1  2  1  0
  2  3  2  0
  2  7  1  0
  3  4  1  0
  4  5  2  0
  5  6  1  0
  6  7  2  0
  6 10  1  0
  7  8  1  0
  8  9  2  0
  9 10  1  0
 11 10  1  1
 11 12  1  0
 11 30  1  0
 12 13  1  0
 13 14  1  1
 13 24  1  0
 14 15  1  0
 15 16  1  0
 16 17  1  0
 16 18  1  0
 16 19  1  0
 19 20  1  0
 20 21  1  0
 20 22  1  0
 20 23  1  0
 24 25  1  6
 24 30  1  0
 25 26  1  0
 26 27  1  0
 26 28  1  0
 26 29  1  0
 30 31  1  1
M  END
