
     RDKit          3D

 30 31  0  0  0  0  0  0  0  0999 V2000
   -5.4780    0.4500    0.9990 C   0  0  0  0  0  0  0  0  0  0  0  0
   -4.1980    1.1140    0.5420 C   0  0  2  0  0  0  0  0  0  0  0  0
   -4.4740    2.4630   -0.0870 C   0  0  0  0  0  0  0  0  0  0  0  0
   -5.1160    2.3360   -1.3160 O   0  0  0  0  0  0  0  0  0  0  0  0
   -5.3350    3.5190   -1.8230 O   0  0  0  0  0  0  0  0  0  0  0  0
   -3.3860    0.2900   -0.2380 O   0  0  0  0  0  0  0  0  0  0  0  0
   -2.1310   -0.1450    0.1010 C   0  0  0  0  0  0  0  0  0  0  0  0
   -1.6750    0.2410    1.2270 O   0  0  0  0  0  0  0  0  0  0  0  0
   -1.3350   -0.9830   -0.7180 N   0  0  0  0  0  0  0  0  0  0  0  0
   -1.8790   -1.4030   -1.9880 C   0  0  0  0  0  0  0  0  0  0  0  0
   -2.6510   -2.6960   -1.8830 C   0  0  0  0  0  0  0  0  0  0  0  0
   -3.7280   -2.6010   -1.0060 O   0  0  0  0  0  0  0  0  0  0  0  0
   -0.0400   -1.4200   -0.3460 C   0  0  0  0  0  0  0  0  0  0  0  0
    0.6470   -2.1670   -1.0980 O   0  0  0  0  0  0  0  0  0  0  0  0
    0.5520   -1.0540    0.8660 O   0  0  0  0  0  0  0  0  0  0  0  0
    1.8320   -1.5180    1.1750 C   0  0  0  0  0  0  0  0  0  0  0  0
    1.9650   -2.6820    1.8350 N   0  0  0  0  0  0  0  0  0  0  0  0
    3.1490   -3.2140    2.1780 C   0  0  0  0  0  0  0  0  0  0  0  0
    4.2840   -2.5170    1.8290 C   0  0  0  0  0  0  0  0  0  0  0  0
    4.1870   -1.3440    1.1660 N   0  0  0  0  0  0  0  0  0  0  0  0
    5.0730   -0.4700    0.7080 N   0  0  0  0  0  0  0  0  0  0  0  0
    4.4760    0.5700    0.1010 C   0  0  0  0  0  0  0  0  0  0  0  0
    5.1130    1.7370   -0.5310 C   0  0  0  0  0  0  0  0  0  0  0  0
    4.4090    2.6120   -1.0500 O   0  0  0  0  0  0  0  0  0  0  0  0
    6.4940    1.8610   -0.5490 O   0  0  0  0  0  0  0  0  0  0  0  0
    7.0780    2.9310   -1.1300 O   0  0  0  0  0  0  0  0  0  0  0  0
    8.2020    3.1290   -0.4380 O   0  0  0  0  0  0  0  0  0  0  0  0
    7.8400    3.7100    0.6850 O   0  0  0  0  0  0  0  0  0  0  0  0
    3.1500    0.3210    0.1910 N   0  0  0  0  0  0  0  0  0  0  0  0
    2.9710   -0.8420    0.8380 C   0  0  0  0  0  0  0  0  0  0  0  0
  2  1  1  6
  2  3  1  0
  2  6  1  0
  3  4  1  0
  4  5  1  0
  6  7  1  0
  7  8  2  0
  7  9  1  0
  9 10  1  0
  9 13  1  0
 10 11  1  0
 11 12  1  0
 13 14  2  0
 13 15  1  0
 15 16  1  0
 16 17  2  0
 16 30  1  0
 17 18  1  0
 18 19  2  0
 19 20  1  0
 20 21  1  0
 20 30  1  0
 21 22  2  0
 22 23  1  0
 22 29  1  0
 23 24  2  0
 23 25  1  0
 25 26  1  0
 26 27  1  0
 27 28  1  0
 29 30  2  0
M  END
