
     RDKit          3D

 29 29  0  0  0  0  0  0  0  0999 V2000
    4.9500   -0.4430   -4.1210 C   0  0  0  0  0  0  0  0  0  0  0  0
    4.9480   -0.5140   -2.6350 C   0  0  0  0  0  0  0  0  0  0  0  0
    3.8350    0.0580   -2.0430 O   0  0  0  0  0  0  0  0  0  0  0  0
    3.7750    0.0060   -0.3710 P   0  0  0  0  0  0  0  0  0  0  0  0
    4.8330   -1.1560    0.5110 C   0  0  0  0  0  0  0  0  0  0  0  0
    5.5050   -0.5540    1.7020 C   0  0  0  0  0  0  0  0  0  0  0  0
    6.3990    0.6030    1.4090 C   0  0  0  0  0  0  0  0  0  0  0  0
    7.7870    0.1640    0.2630 P   0  0  0  0  0  0  0  0  0  0  0  0
    8.5330    1.2650   -0.5030 O   0  0  0  0  0  0  0  0  0  0  0  0
    3.1970    1.4710    0.5190 C   0  0  0  0  0  0  0  0  0  0  0  0
    1.7690    1.7780    0.1260 C   0  0  0  0  0  0  0  0  0  0  0  0
    0.8850    0.7540    0.4070 O   0  0  0  0  0  0  0  0  0  0  0  0
   -0.3860    1.1440    0.0090 C   0  0  1  0  0  0  0  0  0  0  0  0
   -0.9350    0.2710   -1.1020 C   0  0  0  0  0  0  0  0  0  0  0  0
   -2.1510   -0.3730   -0.4580 C   0  0  0  0  0  0  0  0  0  0  0  0
   -2.6790   -1.5110   -0.7960 C   0  0  0  0  0  0  0  0  0  0  0  0
   -3.8350   -2.1070   -0.1610 C   0  0  0  0  0  0  0  0  0  0  0  0
   -4.3090   -3.2730   -0.5840 C   0  0  0  0  0  0  0  0  0  0  0  0
   -5.4110   -3.8220    0.0340 O   0  0  0  0  0  0  0  0  0  0  0  0
   -3.7380   -3.9690   -1.6300 O   0  0  0  0  0  0  0  0  0  0  0  0
   -4.5580   -4.8060   -2.4350 C   0  0  0  0  0  0  0  0  0  0  0  0
   -2.5150    0.6150    0.5570 C   0  0  0  0  0  0  0  0  0  0  0  0
   -3.7510    0.9470    0.8720 C   0  0  0  0  0  0  0  0  0  0  0  0
   -3.9730    1.9640    1.9270 C   0  0  0  0  0  0  0  0  0  0  0  0
   -5.1850    2.3190    2.2670 C   0  0  0  0  0  0  0  0  0  0  0  0
   -5.3790    3.3120    3.2980 C   0  0  0  0  0  0  0  0  0  0  0  0
   -6.6110    3.6760    3.6460 C   0  0  0  0  0  0  0  0  0  0  0  0
   -7.7010    3.1000    3.0170 O   0  0  0  0  0  0  0  0  0  0  0  0
   -1.3080    1.1060    1.0900 O   0  0  0  0  0  0  0  0  0  0  0  0
  1  2  1  0
  2  3  1  0
  3  4  1  0
  4  5  1  0
  4 10  1  0
  5  6  1  0
  6  7  1  0
  7  8  1  0
  8  9  2  0
 10 11  1  0
 11 12  1  0
 13 12  1  1
 13 14  1  0
 13 29  1  0
 14 15  1  0
 15 16  2  3
 15 22  1  0
 16 17  1  0
 17 18  2  3
 18 19  1  0
 18 20  1  0
 20 21  1  0
 22 23  2  3
 22 29  1  0
 23 24  1  0
 24 25  2  3
 25 26  1  0
 26 27  2  3
 27 28  1  0
M  END
