
     RDKit          3D

 28 29  0  0  0  0  0  0  0  0999 V2000
   -4.2310   -1.9930   -0.6160 N   0  0  0  0  0  0  0  0  0  0  0  0
   -3.8530   -0.6130   -0.8480 C   0  0  0  0  0  0  0  0  0  0  0  0
   -4.6720    0.1790   -1.1740 O   0  0  0  0  0  0  0  0  0  0  0  0
   -2.3530   -0.4370   -0.5790 C   0  0  1  0  0  0  0  0  0  0  0  0
   -1.7140   -0.6980   -1.8650 N   0  0  0  0  0  0  0  0  0  0  0  0
   -0.6420   -1.6310   -2.0620 C   0  0  0  0  0  0  0  0  0  0  0  0
   -0.9240   -2.4770   -2.9540 O   0  0  0  0  0  0  0  0  0  0  0  0
    0.4760   -1.7060   -1.4910 O   0  0  0  0  0  0  0  0  0  0  0  0
    1.0860   -1.9770   -0.2620 C   0  0  0  0  0  0  0  0  0  0  0  0
    2.2040   -1.0570    0.1880 C   0  0  1  0  0  0  0  0  0  0  0  0
    2.2390    0.1970   -0.4600 O   0  0  0  0  0  0  0  0  0  0  0  0
    3.4950    0.7700   -0.6890 C   0  0  0  0  0  0  0  0  0  0  0  0
    4.5200    0.1030   -0.5040 O   0  0  0  0  0  0  0  0  0  0  0  0
    3.5580    2.1410   -1.0720 O   0  0  0  0  0  0  0  0  0  0  0  0
    4.6790    2.7980   -1.2060 O   0  0  0  0  0  0  0  0  0  0  0  0
    5.6660    2.3100   -1.8050 O   0  0  0  0  0  0  0  0  0  0  0  0
    1.9030   -0.6450    1.6580 C   0  0  0  0  0  0  0  0  0  0  0  0
    1.8490    0.8280    1.7550 C   0  0  0  0  0  0  0  0  0  0  0  0
    2.7320    1.5140    2.3660 O   0  0  0  0  0  0  0  0  0  0  0  0
    0.8050    1.5830    1.2320 O   0  0  0  0  0  0  0  0  0  0  0  0
   -0.5280    1.0310    1.1040 C   0  0  2  0  0  0  0  0  0  0  0  0
   -0.9380    1.5730   -0.1280 O   0  0  0  0  0  0  0  0  0  0  0  0
   -2.2630    1.1050   -0.4070 C   0  0  2  0  0  0  0  0  0  0  0  0
   -3.1360    1.7980    0.5430 C   0  0  0  0  0  0  0  0  0  0  0  0
   -4.2580    2.0810    0.2950 O   0  0  0  0  0  0  0  0  0  0  0  0
   -2.5110    2.0410    1.8380 O   0  0  0  0  0  0  0  0  0  0  0  0
   -1.3930    1.4190    2.2600 C   0  0  0  0  0  0  0  0  0  0  0  0
   -1.0510    1.1770    3.2850 O   0  0  0  0  0  0  0  0  0  0  0  0
  1  2  1  0
  2  3  2  0
  4  2  1  6
  4  5  1  0
  4 23  1  0
  5  6  1  0
  6  7  2  0
  6  8  1  0
  8  9  1  0
  9 10  1  0
 10 11  1  6
 10 17  1  0
 11 12  1  0
 12 13  2  0
 12 14  1  0
 14 15  1  0
 15 16  1  0
 17 18  1  0
 18 19  2  0
 18 20  1  0
 21 20  1  1
 21 22  1  0
 21 27  1  0
 22 23  1  0
 23 24  1  1
 24 25  2  0
 24 26  1  0
 26 27  1  0
 27 28  2  0
M  END
