
     RDKit          3D

 28 29  0  0  0  0  0  0  0  0999 V2000
    3.3590   -2.7650   -1.3570 O   0  0  0  0  0  0  0  0  0  0  0  0
    3.6880   -1.6050   -1.5370 C   0  0  0  0  0  0  0  0  0  0  0  0
    2.9260   -0.4940   -0.8570 C   0  0  2  0  0  0  0  0  0  0  0  0
    3.9040    0.1940    0.0750 C   0  0  0  0  0  0  0  0  0  0  0  0
    4.9440    0.7020   -0.7240 O   0  0  0  0  0  0  0  0  0  0  0  0
    5.7790    1.2960    0.1210 O   0  0  0  0  0  0  0  0  0  0  0  0
    6.8160    1.6660   -0.6010 O   0  0  0  0  0  0  0  0  0  0  0  0
    7.0430    2.9360   -0.3460 O   0  0  0  0  0  0  0  0  0  0  0  0
    1.8830   -1.0050   -0.0690 O   0  0  0  0  0  0  0  0  0  0  0  0
    0.5550   -0.7000   -0.2400 C   0  0  0  0  0  0  0  0  0  0  0  0
    0.2970    0.1110   -1.1970 O   0  0  0  0  0  0  0  0  0  0  0  0
   -0.5630   -1.2340    0.5900 C   0  0  1  0  0  0  0  0  0  0  0  0
   -1.8370   -0.6850    0.1310 N   0  0  0  0  0  0  0  0  0  0  0  0
   -2.0650    0.6980    0.1440 C   0  0  0  0  0  0  0  0  0  0  0  0
   -1.1210    1.4480    0.5720 O   0  0  0  0  0  0  0  0  0  0  0  0
   -3.2450    1.3620   -0.2720 N   0  0  0  0  0  0  0  0  0  0  0  0
   -3.3790    2.8140   -0.1990 C   0  0  0  0  0  0  0  0  0  0  0  0
   -4.7140    3.1820   -0.7100 C   0  0  0  0  0  0  0  0  0  0  0  0
   -4.8270    4.2130   -1.4110 O   0  0  0  0  0  0  0  0  0  0  0  0
   -5.8030    2.3900   -0.4090 O   0  0  0  0  0  0  0  0  0  0  0  0
   -5.7290    0.9820   -0.4030 C   0  0  0  0  0  0  0  0  0  0  0  0
   -4.3260    0.6150   -0.7790 C   0  0  0  0  0  0  0  0  0  0  0  0
   -4.1210   -0.3550   -1.5460 O   0  0  0  0  0  0  0  0  0  0  0  0
   -0.5540   -2.7340    0.4650 C   0  0  0  0  0  0  0  0  0  0  0  0
    0.5090   -3.3000    1.3700 C   0  0  0  0  0  0  0  0  0  0  0  0
    0.2510   -2.8120    2.6670 O   0  0  0  0  0  0  0  0  0  0  0  0
    0.5090   -1.5030    2.5680 O   0  0  0  0  0  0  0  0  0  0  0  0
   -0.4520   -0.9090    1.9330 O   0  0  0  0  0  0  0  0  0  0  0  0
  1  2  2  0
  2  3  1  0
  3  4  1  1
  3  9  1  0
  4  5  1  0
  5  6  1  0
  6  7  1  0
  7  8  1  0
  9 10  1  0
 10 11  2  0
 10 12  1  0
 12 13  1  6
 12 24  1  0
 12 28  1  0
 13 14  1  0
 14 15  2  0
 14 16  1  0
 16 17  1  0
 16 22  1  0
 17 18  1  0
 18 19  2  0
 18 20  1  0
 20 21  1  0
 21 22  1  0
 22 23  2  0
 24 25  1  0
 25 26  1  0
 26 27  1  0
 27 28  1  0
M  END
