
     RDKit          3D

 29 28  0  0  0  0  0  0  0  0999 V2000
    0.3290    2.9240    3.0830 O   0  0  0  0  0  0  0  0  0  0  0  0
   -0.3910    3.3470    2.1150 C   0  0  0  0  0  0  0  0  0  0  0  0
   -0.6260    2.5500    0.9780 N   0  0  0  0  0  0  0  0  0  0  0  0
   -1.4210    3.0400   -0.0720 C   0  0  0  0  0  0  0  0  0  0  0  0
   -1.6310    2.3370   -1.0790 O   0  0  0  0  0  0  0  0  0  0  0  0
   -1.9700    4.2970    0.0080 O   0  0  0  0  0  0  0  0  0  0  0  0
   -0.0500    1.2520    0.9140 C   0  0  0  0  0  0  0  0  0  0  0  0
    0.6630    0.8050    1.8480 O   0  0  0  0  0  0  0  0  0  0  0  0
   -0.2430    0.4180   -0.1770 O   0  0  0  0  0  0  0  0  0  0  0  0
    0.3430   -0.8760   -0.2200 C   0  0  2  0  0  0  0  0  0  0  0  0
    1.1900   -1.0420   -1.4640 C   0  0  0  0  0  0  0  0  0  0  0  0
    2.2620   -0.0780   -1.5190 N   0  0  0  0  0  0  0  0  0  0  0  0
    3.2630   -0.0020   -0.5140 C   0  0  0  0  0  0  0  0  0  0  0  0
    3.2230   -0.7990    0.4640 O   0  0  0  0  0  0  0  0  0  0  0  0
    4.3430    0.9760   -0.5780 C   0  0  0  0  0  0  0  0  0  0  0  0
    4.4260    1.7900   -1.5310 O   0  0  0  0  0  0  0  0  0  0  0  0
    5.3120    1.0380    0.4100 O   0  0  0  0  0  0  0  0  0  0  0  0
    6.3570    1.9650    0.3720 C   0  0  0  0  0  0  0  0  0  0  0  0
    6.4400    2.7890   -0.5930 O   0  0  0  0  0  0  0  0  0  0  0  0
    7.3300    2.0390    1.3490 O   0  0  0  0  0  0  0  0  0  0  0  0
   -0.7510   -1.8820   -0.2300 C   0  0  0  0  0  0  0  0  0  0  0  0
   -0.4260   -3.1160   -0.2680 O   0  0  0  0  0  0  0  0  0  0  0  0
   -2.0810   -1.5730   -0.2010 O   0  0  0  0  0  0  0  0  0  0  0  0
   -3.0610   -2.5930   -0.2130 C   0  0  2  0  0  0  0  0  0  0  0  0
   -3.9590   -2.3710   -1.4290 C   0  0  0  0  0  0  0  0  0  0  0  0
   -4.9490   -3.3500   -1.4940 O   0  0  0  0  0  0  0  0  0  0  0  0
   -3.9320   -2.5400    0.9730 C   0  0  0  0  0  0  0  0  0  0  0  0
   -3.7410   -1.6510    1.8350 O   0  0  0  0  0  0  0  0  0  0  0  0
   -4.9580   -3.4430    1.1670 O   0  0  0  0  0  0  0  0  0  0  0  0
  1  2  2  0
  2  3  1  0
  3  4  1  0
  3  7  1  0
  4  5  2  0
  4  6  1  0
  7  8  2  0
  7  9  1  0
  9 10  1  0
 10 11  1  6
 10 21  1  0
 11 12  1  0
 12 13  1  0
 13 14  2  0
 13 15  1  0
 15 16  2  0
 15 17  1  0
 17 18  1  0
 18 19  2  0
 18 20  1  0
 21 22  2  0
 21 23  1  0
 23 24  1  0
 24 25  1  6
 24 27  1  0
 25 26  1  0
 27 28  2  0
 27 29  1  0
M  END
