
     RDKit          3D

 29 29  0  0  0  0  0  0  0  0999 V2000
    5.5380    1.9810   -1.8390 O   0  0  0  0  0  0  0  0  0  0  0  0
    6.0720    1.9940   -0.7140 C   0  0  0  0  0  0  0  0  0  0  0  0
    6.8420    3.1100   -0.3880 O   0  0  0  0  0  0  0  0  0  0  0  0
    5.8860    0.9370    0.1390 O   0  0  0  0  0  0  0  0  0  0  0  0
    5.1150   -0.2090   -0.1440 C   0  0  0  0  0  0  0  0  0  0  0  0
    3.6880    0.1990   -0.3870 C   0  0  0  0  0  0  0  0  0  0  0  0
    2.9280   -1.0280   -0.6750 N   0  0  0  0  0  0  0  0  0  0  0  0
    1.5370   -0.6940   -0.9060 C   0  0  2  0  0  0  0  0  0  0  0  0
    0.8910   -0.0940    0.3000 C   0  0  0  0  0  0  0  0  0  0  0  0
    1.4510   -0.3790    1.4030 O   0  0  0  0  0  0  0  0  0  0  0  0
   -0.2150    0.7020    0.2620 O   0  0  0  0  0  0  0  0  0  0  0  0
   -0.8350    1.2810   -0.8420 C   0  0  0  0  0  0  0  0  0  0  0  0
   -2.0920    0.4810   -1.1470 C   0  0  0  0  0  0  0  0  0  0  0  0
   -3.0670    0.6000   -0.0880 N   0  0  0  0  0  0  0  0  0  0  0  0
   -4.3220    1.1930   -0.3870 C   0  0  0  0  0  0  0  0  0  0  0  0
   -5.2200    1.3260    0.4970 O   0  0  0  0  0  0  0  0  0  0  0  0
   -4.5500    1.6310   -1.6800 O   0  0  0  0  0  0  0  0  0  0  0  0
   -5.7240    2.1900   -1.9720 O   0  0  0  0  0  0  0  0  0  0  0  0
   -6.6780    1.3790   -1.5900 O   0  0  0  0  0  0  0  0  0  0  0  0
   -7.4800    2.0350   -0.7950 O   0  0  0  0  0  0  0  0  0  0  0  0
   -2.8180    0.1520    1.2400 C   0  0  0  0  0  0  0  0  0  0  0  0
   -3.4350    0.8210    2.1440 O   0  0  0  0  0  0  0  0  0  0  0  0
   -1.9930   -0.9020    1.5410 O   0  0  0  0  0  0  0  0  0  0  0  0
   -2.0470   -2.2200    1.1160 C   0  0  0  0  0  0  0  0  0  0  0  0
   -0.7520   -2.9110    1.5740 C   0  0  0  0  0  0  0  0  0  0  0  0
    0.1070   -3.1870    0.5490 O   0  0  0  0  0  0  0  0  0  0  0  0
   -0.0600   -2.5310   -0.5720 O   0  0  0  0  0  0  0  0  0  0  0  0
    0.8270   -1.9070   -1.3870 C   0  0  0  0  0  0  0  0  0  0  0  0
    1.1340   -2.2620   -2.5790 O   0  0  0  0  0  0  0  0  0  0  0  0
  1  2  2  0
  2  3  1  0
  2  4  1  0
  4  5  1  0
  5  6  1  0
  6  7  1  0
  8  7  1  1
  8  9  1  0
  8 28  1  0
  9 10  2  0
  9 11  1  0
 11 12  1  0
 12 13  1  0
 13 14  1  0
 14 15  1  0
 14 21  1  0
 15 16  2  0
 15 17  1  0
 17 18  1  0
 18 19  1  0
 19 20  1  0
 21 22  2  0
 21 23  1  0
 23 24  1  0
 24 25  1  0
 25 26  1  0
 26 27  1  0
 27 28  1  0
 28 29  2  0
M  END
