
     RDKit          3D

 31 33  0  0  0  0  0  0  0  0999 V2000
   -5.8210    3.6380    0.6060 N   0  0  0  0  0  0  0  0  0  0  0  0
   -4.5480    3.1880    1.0070 C   0  0  0  0  0  0  0  0  0  0  0  0
   -3.7190    3.9380    1.7410 N   0  0  0  0  0  0  0  0  0  0  0  0
   -2.5190    3.4740    2.1000 C   0  0  0  0  0  0  0  0  0  0  0  0
   -2.1040    2.2550    1.7460 N   0  0  0  0  0  0  0  0  0  0  0  0
   -2.8800    1.4270    1.0020 C   0  0  0  0  0  0  0  0  0  0  0  0
   -4.1200    1.9140    0.6340 C   0  0  0  0  0  0  0  0  0  0  0  0
   -4.6990    0.9420   -0.0810 N   0  0  0  0  0  0  0  0  0  0  0  0
   -3.8390   -0.1090   -0.1480 C   0  0  0  0  0  0  0  0  0  0  0  0
   -2.7190    0.1950    0.5220 N   0  0  0  0  0  0  0  0  0  0  0  0
   -1.5450   -0.6720    0.6870 C   0  0  2  0  0  0  0  0  0  0  0  0
   -0.3990    0.0900    0.7930 O   0  0  0  0  0  0  0  0  0  0  0  0
    0.5960   -0.6920    0.2810 C   0  0  2  0  0  0  0  0  0  0  0  0
    1.9250   -0.0390    0.1580 C   0  0  0  0  0  0  0  0  0  0  0  0
    1.9570    1.0600   -0.6430 O   0  0  0  0  0  0  0  0  0  0  0  0
    3.3090    1.8760   -0.8840 P   0  0  0  0  0  0  0  0  0  0  0  0
    3.9180    2.0860   -2.4340 O   0  0  0  0  0  0  0  0  0  0  0  0
    4.0350    2.7200    0.3730 O   0  0  0  0  0  0  0  0  0  0  0  0
    4.2690    0.7340   -0.6630 O   0  0  0  0  0  0  0  0  0  0  0  0
    5.1420    0.3680    0.6120 P   0  0  0  0  0  0  0  0  0  0  0  0
    6.4380    1.3410    1.0980 O   0  0  0  0  0  0  0  0  0  0  0  0
    4.6980   -0.8850    1.6360 O   0  0  0  0  0  0  0  0  0  0  0  0
    6.1230   -0.5590   -0.1060 O   0  0  0  0  0  0  0  0  0  0  0  0
    0.0040   -1.1480   -1.0220 C   0  0  1  0  0  0  0  0  0  0  0  0
    0.6790   -2.2550   -1.5320 O   0  0  0  0  0  0  0  0  0  0  0  0
   -1.3700   -1.5690   -0.5340 C   0  0  1  0  0  0  0  0  0  0  0  0
   -1.2790   -2.8650   -0.1150 O   0  0  0  0  0  0  0  0  0  0  0  0
   -2.3200   -3.9700   -0.6870 P   0  0  0  0  0  0  0  0  0  0  0  0
   -2.4770   -3.3490   -2.0640 O   0  0  0  0  0  0  0  0  0  0  0  0
   -1.6760   -5.3560   -1.4830 O   0  0  0  0  0  0  0  0  0  0  0  0
   -3.8930   -4.0140   -0.2850 O   0  0  0  0  0  0  0  0  0  0  0  0
  1  2  1  0
  2  3  2  0
  2  7  1  0
  3  4  1  0
  4  5  2  0
  5  6  1  0
  6  7  2  0
  6 10  1  0
  7  8  1  0
  8  9  2  0
  9 10  1  0
 11 10  1  6
 11 12  1  0
 11 26  1  0
 12 13  1  0
 13 14  1  6
 13 24  1  0
 14 15  1  0
 15 16  1  0
 16 17  1  0
 16 18  1  0
 16 19  1  0
 19 20  1  0
 20 21  1  0
 20 22  1  0
 20 23  1  0
 24 25  1  1
 24 26  1  0
 26 27  1  1
 27 28  1  0
 28 29  1  0
 28 30  1  0
 28 31  1  0
M  END
