
     RDKit          3D

 28 28  0  0  0  0  0  0  0  0999 V2000
   -4.2400    1.5130    2.9670 O   0  0  0  0  0  0  0  0  0  0  0  0
   -3.9050    1.0660    1.8070 C   0  0  0  0  0  0  0  0  0  0  0  0
   -3.1610    1.9910    0.9130 C   0  0  0  0  0  0  0  0  0  0  0  0
   -1.6550    1.8320    1.0390 C   0  0  0  0  0  0  0  0  0  0  0  0
   -0.9630    2.1340   -0.1040 O   0  0  0  0  0  0  0  0  0  0  0  0
    0.2070    1.7370   -0.6530 C   0  0  0  0  0  0  0  0  0  0  0  0
    1.2990    2.3730   -0.6760 O   0  0  0  0  0  0  0  0  0  0  0  0
    0.2610    0.4160   -1.3140 C   0  0  1  0  0  0  0  0  0  0  0  0
    1.4370    0.4700   -2.2990 C   0  0  0  0  0  0  0  0  0  0  0  0
    1.6050   -0.6820   -3.0150 O   0  0  0  0  0  0  0  0  0  0  0  0
    0.5230   -0.6790   -0.3240 C   0  0  1  0  0  0  0  0  0  0  0  0
    0.7530   -1.8770   -0.9680 O   0  0  0  0  0  0  0  0  0  0  0  0
    1.5440   -0.3110    0.6510 C   0  0  0  0  0  0  0  0  0  0  0  0
    1.4470    0.7420    1.3440 O   0  0  0  0  0  0  0  0  0  0  0  0
    2.7150   -1.0870    0.9040 N   0  0  0  0  0  0  0  0  0  0  0  0
    3.6980   -0.6980    1.8680 C   0  0  0  0  0  0  0  0  0  0  0  0
    3.4950    0.3690    2.5000 O   0  0  0  0  0  0  0  0  0  0  0  0
    4.8500   -1.4670    2.1090 O   0  0  0  0  0  0  0  0  0  0  0  0
    5.7590   -1.0800    3.0170 O   0  0  0  0  0  0  0  0  0  0  0  0
    6.8600   -0.7020    2.4450 O   0  0  0  0  0  0  0  0  0  0  0  0
    6.6550    0.4870    1.8770 O   0  0  0  0  0  0  0  0  0  0  0  0
   -0.8980    0.1660   -2.1440 N   0  0  0  0  0  0  0  0  0  0  0  0
   -1.6740   -1.0280   -2.1980 C   0  0  0  0  0  0  0  0  0  0  0  0
   -1.7220   -1.6060   -3.3670 O   0  0  0  0  0  0  0  0  0  0  0  0
   -2.3450   -1.5890   -1.1470 O   0  0  0  0  0  0  0  0  0  0  0  0
   -3.5270   -1.2780   -0.5140 C   0  0  0  0  0  0  0  0  0  0  0  0
   -3.5120   -1.2540    0.9890 C   0  0  0  0  0  0  0  0  0  0  0  0
   -4.2720   -0.2140    1.5240 O   0  0  0  0  0  0  0  0  0  0  0  0
  1  2  2  0
  2  3  1  0
  2 28  1  0
  3  4  1  0
  4  5  1  0
  5  6  1  0
  6  7  2  0
  6  8  1  0
  8  9  1  6
  8 11  1  0
  8 22  1  0
  9 10  1  0
 11 12  1  6
 11 13  1  0
 13 14  2  0
 13 15  1  0
 15 16  1  0
 16 17  2  0
 16 18  1  0
 18 19  1  0
 19 20  1  0
 20 21  1  0
 22 23  1  0
 23 24  2  0
 23 25  1  0
 25 26  1  0
 26 27  1  0
 27 28  1  0
M  END
