
     RDKit          3D

 28 29  0  0  0  0  0  0  0  0999 V2000
   -4.6870   -1.0100   -0.0420 O   0  0  0  0  0  0  0  0  0  0  0  0
   -4.4050    0.1110   -0.4070 C   0  0  0  0  0  0  0  0  0  0  0  0
   -4.2830    1.1910    0.5720 C   0  0  0  0  0  0  0  0  0  0  0  0
   -3.5190    0.7850    1.8120 C   0  0  0  0  0  0  0  0  0  0  0  0
   -2.2270    0.2480    1.5180 N   0  0  0  0  0  0  0  0  0  0  0  0
   -1.1470    1.1470    1.1680 C   0  0  0  0  0  0  0  0  0  0  0  0
    0.0580    0.2460    1.0940 C   0  0  1  0  0  0  0  0  0  0  0  0
   -0.3850   -1.0810    1.1250 O   0  0  0  0  0  0  0  0  0  0  0  0
   -1.7440   -1.0820    1.4940 C   0  0  0  0  0  0  0  0  0  0  0  0
   -2.3390   -2.1640    1.7440 O   0  0  0  0  0  0  0  0  0  0  0  0
    0.9260    0.5450   -0.1060 C   0  0  1  0  0  0  0  0  0  0  0  0
    2.1870   -0.2220    0.0780 C   0  0  0  0  0  0  0  0  0  0  0  0
    2.5350   -0.9750   -0.8650 O   0  0  0  0  0  0  0  0  0  0  0  0
    2.9760   -0.1580    1.1920 O   0  0  0  0  0  0  0  0  0  0  0  0
    4.1690   -0.8700    1.3920 C   0  0  0  0  0  0  0  0  0  0  0  0
    5.1990   -0.5620    0.3780 C   0  0  0  0  0  0  0  0  0  0  0  0
    6.3030   -1.1550    0.4790 O   0  0  0  0  0  0  0  0  0  0  0  0
    4.9360    0.3440   -0.6310 O   0  0  0  0  0  0  0  0  0  0  0  0
    5.9140    0.5760   -1.5160 O   0  0  0  0  0  0  0  0  0  0  0  0
    6.4850    1.7360   -1.3150 O   0  0  0  0  0  0  0  0  0  0  0  0
    7.0090    1.7740   -0.0920 O   0  0  0  0  0  0  0  0  0  0  0  0
    0.3170    0.3130   -1.3020 O   0  0  0  0  0  0  0  0  0  0  0  0
   -0.2160   -0.8960   -1.4200 O   0  0  0  0  0  0  0  0  0  0  0  0
   -1.1910   -1.2180   -2.3190 C   0  0  0  0  0  0  0  0  0  0  0  0
   -1.1760   -2.3940   -2.8200 O   0  0  0  0  0  0  0  0  0  0  0  0
   -2.2300   -0.3670   -2.7560 N   0  0  0  0  0  0  0  0  0  0  0  0
   -2.8080    0.5900   -2.0300 O   0  0  0  0  0  0  0  0  0  0  0  0
   -4.1860    0.3760   -1.8490 C   0  0  0  0  0  0  0  0  0  0  0  0
  1  2  2  0
  2  3  1  0
  2 28  1  0
  3  4  1  0
  4  5  1  0
  5  6  1  0
  5  9  1  0
  6  7  1  0
  7  8  1  6
  7 11  1  0
  8  9  1  0
  9 10  2  0
 11 12  1  1
 11 22  1  0
 12 13  2  0
 12 14  1  0
 14 15  1  0
 15 16  1  0
 16 17  2  0
 16 18  1  0
 18 19  1  0
 19 20  1  0
 20 21  1  0
 22 23  1  0
 23 24  1  0
 24 25  2  0
 24 26  1  0
 26 27  1  0
 27 28  1  0
M  END
