
     RDKit          3D

 31 33  0  0  0  0  0  0  0  0999 V2000
   -9.1560    1.3410    1.1090 N   0  0  0  0  0  0  0  0  0  0  0  0
   -8.1480    1.4320    0.0970 C   0  0  0  0  0  0  0  0  0  0  0  0
   -8.3490    2.1430   -0.9200 O   0  0  0  0  0  0  0  0  0  0  0  0
   -6.9090    0.7280    0.2140 N   0  0  0  0  0  0  0  0  0  0  0  0
   -5.8870    0.8210   -0.8130 C   0  0  1  0  0  0  0  0  0  0  0  0
   -4.5260    1.1700   -0.2680 C   0  0  0  0  0  0  0  0  0  0  0  0
   -4.1140   -0.2130   -0.2940 N   0  0  0  0  0  0  0  0  0  0  0  0
   -3.0980   -1.0100    0.2500 C   0  0  0  0  0  0  0  0  0  0  0  0
   -3.0220   -2.2500    0.0170 O   0  0  0  0  0  0  0  0  0  0  0  0
   -2.0910   -0.5100    1.0870 O   0  0  0  0  0  0  0  0  0  0  0  0
   -1.0790   -1.3420    1.6190 C   0  0  0  0  0  0  0  0  0  0  0  0
   -0.3090   -1.9620    0.6130 O   0  0  0  0  0  0  0  0  0  0  0  0
    0.4190   -1.2310   -0.3240 C   0  0  0  0  0  0  0  0  0  0  0  0
    0.3350    0.0330   -0.2000 O   0  0  0  0  0  0  0  0  0  0  0  0
    1.2340   -1.8620   -1.3890 C   0  0  2  0  0  0  0  0  0  0  0  0
    2.3090   -2.7380   -0.7490 C   0  0  0  0  0  0  0  0  0  0  0  0
    3.2730   -1.6740   -0.1670 C   0  0  0  0  0  0  0  0  0  0  0  0
    3.1360   -0.5400   -0.9880 N   0  0  0  0  0  0  0  0  0  0  0  0
    3.7550    0.7160   -0.9920 C   0  0  0  0  0  0  0  0  0  0  0  0
    3.3700    1.5480   -1.9370 O   0  0  0  0  0  0  0  0  0  0  0  0
    4.7610    1.2080   -0.0900 C   0  0  0  0  0  0  0  0  0  0  0  0
    5.2600    0.5490    0.8910 C   0  0  0  0  0  0  0  0  0  0  0  0
    6.3050    1.0550    1.8310 C   0  0  1  0  0  0  0  0  0  0  0  0
    5.7670    0.9750    3.1150 O   0  0  0  0  0  0  0  0  0  0  0  0
    7.7260   -0.1410    1.7350 P   0  0  0  0  0  0  0  0  0  0  0  0
    8.1780   -0.6320    0.3300 O   0  0  0  0  0  0  0  0  0  0  0  0
    6.7020    2.3370    1.5440 O   0  0  0  0  0  0  0  0  0  0  0  0
    6.1990    3.0720    0.5140 C   0  0  0  0  0  0  0  0  0  0  0  0
    5.2840    2.6020   -0.2930 C   0  0  0  0  0  0  0  0  0  0  0  0
    2.0950   -0.8260   -2.0390 C   0  0  0  0  0  0  0  0  0  0  0  0
   -5.2390   -0.4910   -1.1640 C   0  0  0  0  0  0  0  0  0  0  0  0
  1  2  1  0
  2  3  2  0
  2  4  1  0
  5  4  1  1
  5  6  1  0
  5 31  1  0
  6  7  1  0
  7  8  1  0
  7 31  1  0
  8  9  2  0
  8 10  1  0
 10 11  1  0
 11 12  1  0
 12 13  1  0
 13 14  2  0
 15 13  1  1
 15 16  1  0
 15 30  1  0
 16 17  1  0
 17 18  1  0
 18 19  1  0
 18 30  1  0
 19 20  2  0
 19 21  1  0
 21 22  2  0
 21 29  1  0
 22 23  1  0
 23 24  1  1
 23 25  1  0
 23 27  1  0
 25 26  2  0
 27 28  1  0
 28 29  2  0
M  END
