
     RDKit          3D

 30 32  0  0  0  0  0  0  0  0999 V2000
   -6.6120    0.8280    1.6640 O   0  0  0  0  0  0  0  0  0  0  0  0
   -5.4470    1.0500    1.2830 C   0  0  0  0  0  0  0  0  0  0  0  0
   -4.7790    2.2470    1.7160 N   0  0  0  0  0  0  0  0  0  0  0  0
   -3.3590    2.4290    1.4970 C   0  0  0  0  0  0  0  0  0  0  0  0
   -2.7500    3.4790    1.6980 O   0  0  0  0  0  0  0  0  0  0  0  0
   -2.7100    1.1610    0.9890 C   0  0  2  0  0  0  0  0  0  0  0  0
   -1.2900    1.2050    0.8230 C   0  0  0  0  0  0  0  0  0  0  0  0
   -0.7010    2.1390    1.5180 O   0  0  0  0  0  0  0  0  0  0  0  0
   -0.3980    0.4420    0.0650 N   0  0  0  0  0  0  0  0  0  0  0  0
   -0.8540   -0.6610   -0.7150 C   0  0  0  0  0  0  0  0  0  0  0  0
    0.1060   -1.8160   -0.7700 C   0  0  0  0  0  0  0  0  0  0  0  0
    1.4250   -1.4090   -0.8960 O   0  0  0  0  0  0  0  0  0  0  0  0
    1.5170   -0.0560   -1.1870 C   0  0  0  0  0  0  0  0  0  0  0  0
    1.0580    0.7000    0.0300 C   0  0  1  0  0  0  0  0  0  0  0  0
    1.4160    2.1400   -0.1330 C   0  0  0  0  0  0  0  0  0  0  0  0
    0.9200    2.7310   -1.2780 O   0  0  0  0  0  0  0  0  0  0  0  0
    1.6810    0.1600    1.2720 C   0  0  0  0  0  0  0  0  0  0  0  0
    3.0320    0.2870    1.5280 N   0  0  0  0  0  0  0  0  0  0  0  0
    4.0730   -0.3620    0.8980 C   0  0  0  0  0  0  0  0  0  0  0  0
    4.1610   -1.8600    1.1430 C   0  0  0  0  0  0  0  0  0  0  0  0
    5.3470   -2.4370    0.4040 C   0  0  0  0  0  0  0  0  0  0  0  0
    5.2720   -2.1930   -1.4160 P   0  0  0  0  0  0  0  0  0  0  0  0
    3.8640   -2.8220   -2.1600 O   0  0  0  0  0  0  0  0  0  0  0  0
    5.7160   -0.6230   -1.9390 O   0  0  0  0  0  0  0  0  0  0  0  0
   -3.5730    0.7260   -0.0600 N   0  0  0  0  0  0  0  0  0  0  0  0
   -3.6200    0.8080   -1.4590 C   0  0  0  0  0  0  0  0  0  0  0  0
   -2.9380    1.5590   -2.2420 O   0  0  0  0  0  0  0  0  0  0  0  0
   -4.6300   -0.1430   -2.0280 C   0  0  0  0  0  0  0  0  0  0  0  0
   -5.5700   -0.2670   -0.8440 C   0  0  0  0  0  0  0  0  0  0  0  0
   -4.7770    0.0430    0.3740 C   0  0  2  0  0  0  0  0  0  0  0  0
  1  2  2  0
  2  3  1  0
  2 30  1  0
  3  4  1  0
  4  5  2  0
  4  6  1  0
  6  7  1  6
  6 25  1  0
  7  8  2  0
  7  9  1  0
  9 10  1  0
  9 14  1  0
 10 11  1  0
 11 12  1  0
 12 13  1  0
 13 14  1  0
 14 15  1  6
 14 17  1  0
 15 16  1  0
 17 18  1  0
 18 19  1  0
 19 20  1  0
 20 21  1  0
 21 22  1  0
 22 23  1  0
 22 24  1  0
 25 26  1  0
 25 30  1  0
 26 27  2  0
 26 28  1  0
 28 29  1  0
 30 29  1  6
M  END
