
     RDKit          3D

 31 33  0  0  0  0  0  0  0  0999 V2000
    0.1610   -1.3460   -0.3040 O   0  0  0  0  0  0  0  0  0  0  0  0
    1.3990   -1.1960   -0.4250 C   0  0  0  0  0  0  0  0  0  0  0  0
    2.1630   -2.1820   -1.0990 N   0  0  0  0  0  0  0  0  0  0  0  0
    1.6560   -3.3870   -1.6810 C   0  0  0  0  0  0  0  0  0  0  0  0
    0.9990   -4.3440   -0.7520 C   0  0  0  0  0  0  0  0  0  0  0  0
   -0.0950   -3.8990   -0.0700 O   0  0  0  0  0  0  0  0  0  0  0  0
    2.0020    0.0090    0.1450 C   0  0  0  0  0  0  0  0  0  0  0  0
    1.2860    0.9180    0.7690 C   0  0  0  0  0  0  0  0  0  0  0  0
   -0.1330    0.6840    0.8740 N   0  0  0  0  0  0  0  0  0  0  0  0
   -0.9470    1.6440    0.6480 C   0  0  0  0  0  0  0  0  0  0  0  0
   -0.5510    2.8790    0.3130 N   0  0  0  0  0  0  0  0  0  0  0  0
   -1.4450    3.8760    0.0800 C   0  0  0  0  0  0  0  0  0  0  0  0
   -2.7600    3.6470    0.1800 N   0  0  0  0  0  0  0  0  0  0  0  0
   -3.2290    2.4160    0.5170 C   0  0  0  0  0  0  0  0  0  0  0  0
   -2.3060    1.3990    0.7530 C   0  0  0  0  0  0  0  0  0  0  0  0
   -2.6870    0.0700    1.1770 C   0  0  0  0  0  0  0  0  0  0  0  0
   -2.0790   -0.5140    2.1330 O   0  0  0  0  0  0  0  0  0  0  0  0
   -3.7740   -0.6510    0.5270 C   0  0  0  0  0  0  0  0  0  0  0  0
   -4.4660   -0.2360   -0.5030 C   0  0  0  0  0  0  0  0  0  0  0  0
   -5.5790   -0.9430   -1.1800 C   0  0  0  0  0  0  0  0  0  0  0  0
   -5.8440   -2.1700   -0.6040 O   0  0  0  0  0  0  0  0  0  0  0  0
   -5.1420   -2.6540    0.4850 C   0  0  0  0  0  0  0  0  0  0  0  0
   -4.1650   -1.9860    1.0540 C   0  0  0  0  0  0  0  0  0  0  0  0
    1.8850    2.0350    1.2910 O   0  0  0  0  0  0  0  0  0  0  0  0
    3.2730    2.2830    1.2950 C   0  0  0  0  0  0  0  0  0  0  0  0
    3.9880    1.4710    0.2310 C   0  0  1  0  0  0  0  0  0  0  0  0
    5.2850    1.2230    0.7310 O   0  0  0  0  0  0  0  0  0  0  0  0
    6.4460    1.8560   -0.3730 P   0  0  0  0  0  0  0  0  0  0  0  0
    6.3300    1.0690   -1.8950 O   0  0  0  0  0  0  0  0  0  0  0  0
    6.1850    3.5710   -0.6290 O   0  0  0  0  0  0  0  0  0  0  0  0
    3.3860    0.2230    0.0360 O   0  0  0  0  0  0  0  0  0  0  0  0
  1  2  2  0
  2  3  1  0
  2  7  1  0
  3  4  1  0
  4  5  1  0
  5  6  1  0
  7  8  2  0
  7 31  1  0
  8  9  1  0
  8 24  1  0
  9 10  2  3
 10 11  1  0
 10 15  1  0
 11 12  2  0
 12 13  1  0
 13 14  1  0
 14 15  2  0
 15 16  1  0
 16 17  2  0
 16 18  1  0
 18 19  2  0
 18 23  1  0
 19 20  1  0
 20 21  1  0
 21 22  1  0
 22 23  2  0
 24 25  1  0
 25 26  1  0
 26 27  1  1
 26 31  1  0
 27 28  1  0
 28 29  1  0
 28 30  1  0
M  END
