
     RDKit          3D

 31 33  0  0  0  0  0  0  0  0999 V2000
   -6.9390   -1.9900   -0.4650 O   0  0  0  0  0  0  0  0  0  0  0  0
   -5.8420   -2.2540   -1.0030 C   0  0  0  0  0  0  0  0  0  0  0  0
   -5.8400   -3.2300   -1.9900 O   0  0  0  0  0  0  0  0  0  0  0  0
   -4.6500   -1.5490   -0.5850 C   0  0  0  0  0  0  0  0  0  0  0  0
   -3.4090   -1.8020   -1.1480 C   0  0  0  0  0  0  0  0  0  0  0  0
   -2.2560   -1.1130   -0.7350 C   0  0  0  0  0  0  0  0  0  0  0  0
   -2.3270   -0.1740    0.2320 C   0  0  0  0  0  0  0  0  0  0  0  0
   -1.2440    0.5720    0.7150 N   0  0  0  0  0  0  0  0  0  0  0  0
    0.1000    0.5360    0.2890 C   0  0  0  0  0  0  0  0  0  0  0  0
    0.4260   -0.2350   -0.6270 O   0  0  0  0  0  0  0  0  0  0  0  0
    1.1590    1.3860    0.8920 C   0  0  2  0  0  0  0  0  0  0  0  0
    0.7810    2.8280    0.7860 C   0  0  0  0  0  0  0  0  0  0  0  0
    0.5930    3.2880   -0.6370 C   0  0  0  0  0  0  0  0  0  0  0  0
    0.1280    5.1060   -0.5390 P   0  0  0  0  0  0  0  0  0  0  0  0
   -0.7800    5.3270    0.9250 O   0  0  0  0  0  0  0  0  0  0  0  0
   -0.9750    5.4420   -1.8600 O   0  0  0  0  0  0  0  0  0  0  0  0
    2.4400    1.1840    0.3080 N   0  0  0  0  0  0  0  0  0  0  0  0
    3.0510   -0.1030    0.3530 C   0  0  0  0  0  0  0  0  0  0  0  0
    2.4670   -1.1400    0.8500 N   0  0  0  0  0  0  0  0  0  0  0  0
    3.3090   -2.2910    0.7640 C   0  0  0  0  0  0  0  0  0  0  0  0
    3.2120   -3.5800    1.1120 N   0  0  0  0  0  0  0  0  0  0  0  0
    4.2090   -4.4430    0.8900 C   0  0  0  0  0  0  0  0  0  0  0  0
    4.1370   -5.6760    1.2140 O   0  0  0  0  0  0  0  0  0  0  0  0
    5.3520   -4.0950    0.3180 O   0  0  0  0  0  0  0  0  0  0  0  0
    5.4960   -2.8390   -0.0420 C   0  0  0  0  0  0  0  0  0  0  0  0
    6.5890   -2.4770   -0.5960 O   0  0  0  0  0  0  0  0  0  0  0  0
    4.5080   -1.8970    0.1570 C   0  0  0  0  0  0  0  0  0  0  0  0
    4.3910   -0.4740   -0.1320 C   0  0  0  0  0  0  0  0  0  0  0  0
    5.2390    0.2750   -0.6730 O   0  0  0  0  0  0  0  0  0  0  0  0
   -3.5840    0.0710    0.7900 C   0  0  0  0  0  0  0  0  0  0  0  0
   -4.7160   -0.6010    0.3900 C   0  0  0  0  0  0  0  0  0  0  0  0
  1  2  2  0
  2  3  1  0
  2  4  1  0
  4  5  2  0
  4 31  1  0
  5  6  1  0
  6  7  2  0
  7  8  1  0
  7 30  1  0
  8  9  1  0
  9 10  2  0
  9 11  1  0
 11 12  1  6
 11 17  1  0
 12 13  1  0
 13 14  1  0
 14 15  1  0
 14 16  1  0
 17 18  1  0
 18 19  2  0
 18 28  1  0
 19 20  1  0
 20 21  1  0
 20 27  2  0
 21 22  1  0
 22 23  2  0
 22 24  1  0
 24 25  1  0
 25 26  2  0
 25 27  1  0
 27 28  1  0
 28 29  2  0
 30 31  2  0
M  END
