
     RDKit          3D

 30 32  0  0  0  0  0  0  0  0999 V2000
    0.2010    0.6860   -4.7370 C   0  0  0  0  0  0  0  0  0  0  0  0
   -0.0560    0.2430   -3.4170 O   0  0  0  0  0  0  0  0  0  0  0  0
    0.8310    0.4900   -2.3510 C   0  0  0  0  0  0  0  0  0  0  0  0
    1.8680    1.1350   -2.6670 O   0  0  0  0  0  0  0  0  0  0  0  0
    0.5560    0.0280   -0.9740 C   0  0  2  0  0  0  0  0  0  0  0  0
   -0.7690    0.5580   -0.5780 C   0  0  0  0  0  0  0  0  0  0  0  0
   -1.7990   -0.0230    0.0240 N   0  0  0  0  0  0  0  0  0  0  0  0
   -2.7630    0.8910    0.1540 C   0  0  0  0  0  0  0  0  0  0  0  0
   -4.0950    0.7430    0.7460 C   0  0  0  0  0  0  0  0  0  0  0  0
   -4.5240   -0.4580    1.2680 C   0  0  0  0  0  0  0  0  0  0  0  0
   -5.7900   -0.5370    1.8060 C   0  0  0  0  0  0  0  0  0  0  0  0
   -6.6530    0.5420    1.8460 C   0  0  0  0  0  0  0  0  0  0  0  0
   -7.9320    0.4400    2.3960 O   0  0  0  0  0  0  0  0  0  0  0  0
   -6.1650    1.7150    1.3080 C   0  0  0  0  0  0  0  0  0  0  0  0
   -4.9330    1.7850    0.7860 N   0  0  0  0  0  0  0  0  0  0  0  0
   -2.3020    2.0300   -0.3780 N   0  0  0  0  0  0  0  0  0  0  0  0
   -1.1130    1.7980   -0.8040 O   0  0  0  0  0  0  0  0  0  0  0  0
    1.6100    0.6200   -0.0580 C   0  0  0  0  0  0  0  0  0  0  0  0
    1.8510   -0.3690    0.9700 N   0  0  0  0  0  0  0  0  0  0  0  0
    3.2300   -0.4770    1.3310 C   0  0  0  0  0  0  0  0  0  0  0  0
    3.6270    0.8240    2.0420 C   0  0  1  0  0  0  0  0  0  0  0  0
    2.8290    0.9400    3.1530 O   0  0  0  0  0  0  0  0  0  0  0  0
    5.3940    0.8450    2.5370 P   0  0  0  0  0  0  0  0  0  0  0  0
    5.5980    2.0710    3.7590 O   0  0  0  0  0  0  0  0  0  0  0  0
    6.4430    1.3190    1.2120 O   0  0  0  0  0  0  0  0  0  0  0  0
    1.2020   -1.5870    0.6030 C   0  0  0  0  0  0  0  0  0  0  0  0
    0.7320   -1.4240   -0.8360 C   0  0  1  0  0  0  0  0  0  0  0  0
   -0.4810   -2.2580   -1.1320 C   0  0  0  0  0  0  0  0  0  0  0  0
    1.8610   -1.9360   -1.6960 C   0  0  0  0  0  0  0  0  0  0  0  0
    1.6280   -1.6800   -3.0390 O   0  0  0  0  0  0  0  0  0  0  0  0
  1  2  1  0
  2  3  1  0
  3  4  2  0
  5  3  1  6
  5  6  1  0
  5 18  1  0
  5 27  1  0
  6  7  2  0
  6 17  1  0
  7  8  1  0
  8  9  1  0
  8 16  2  0
  9 10  2  0
  9 15  1  0
 10 11  1  0
 11 12  2  0
 12 13  1  0
 12 14  1  0
 14 15  2  0
 16 17  1  0
 18 19  1  0
 19 20  1  0
 19 26  1  0
 20 21  1  0
 21 22  1  1
 21 23  1  0
 23 24  1  0
 23 25  1  0
 26 27  1  0
 27 28  1  1
 27 29  1  0
 29 30  1  0
M  END
