
     RDKit          3D

 31 33  0  0  0  0  0  0  0  0999 V2000
   -5.5220    0.9350    2.9510 C   0  0  0  0  0  0  0  0  0  0  0  0
   -4.4240    0.6260    2.0000 C   0  0  0  0  0  0  0  0  0  0  0  0
   -4.6680   -0.1300    0.8690 C   0  0  0  0  0  0  0  0  0  0  0  0
   -3.6270   -0.3990    0.0070 C   0  0  0  0  0  0  0  0  0  0  0  0
   -3.9170   -1.1330   -1.0790 N   0  0  0  0  0  0  0  0  0  0  0  0
   -2.9230   -1.4210   -1.9620 C   0  0  0  0  0  0  0  0  0  0  0  0
   -3.1850   -2.1750   -3.0930 C   0  0  0  0  0  0  0  0  0  0  0  0
   -4.3510   -2.5900   -3.2950 O   0  0  0  0  0  0  0  0  0  0  0  0
   -2.1570   -2.4200   -3.9190 N   0  0  0  0  0  0  0  0  0  0  0  0
   -0.9230   -1.9540   -3.6630 C   0  0  0  0  0  0  0  0  0  0  0  0
   -0.0240   -2.2460   -4.5130 O   0  0  0  0  0  0  0  0  0  0  0  0
   -0.6030   -1.2200   -2.5880 N   0  0  0  0  0  0  0  0  0  0  0  0
   -1.6000   -0.9350   -1.7080 C   0  0  0  0  0  0  0  0  0  0  0  0
   -1.3600   -0.2010   -0.6010 N   0  0  0  0  0  0  0  0  0  0  0  0
   -0.0060    0.2540   -0.4120 C   0  0  0  0  0  0  0  0  0  0  0  0
    0.8340   -0.7520    0.3290 C   0  0  2  0  0  0  0  0  0  0  0  0
    0.3080   -1.0180    1.5820 O   0  0  0  0  0  0  0  0  0  0  0  0
    2.2550   -0.3140    0.5050 C   0  0  2  0  0  0  0  0  0  0  0  0
    2.3310    0.8330    1.2920 O   0  0  0  0  0  0  0  0  0  0  0  0
    2.9540   -0.0360   -0.8060 C   0  0  2  0  0  0  0  0  0  0  0  0
    2.9220   -1.1300   -1.6480 O   0  0  0  0  0  0  0  0  0  0  0  0
    4.3650    0.3920   -0.4580 C   0  0  0  0  0  0  0  0  0  0  0  0
    5.0940    0.7410   -1.5920 O   0  0  0  0  0  0  0  0  0  0  0  0
    6.6330    1.1970   -1.0980 P   0  0  1  0  0  0  0  0  0  0  0  0
    6.8780    2.6540   -1.4780 O   0  0  0  0  0  0  0  0  0  0  0  0
    6.8120    1.0980    0.5860 O   0  0  0  0  0  0  0  0  0  0  0  0
    7.8410    0.2780   -1.8010 O   0  0  0  0  0  0  0  0  0  0  0  0
   -2.3420    0.0850    0.2720 C   0  0  0  0  0  0  0  0  0  0  0  0
   -2.1240    0.8390    1.4100 C   0  0  0  0  0  0  0  0  0  0  0  0
   -3.1720    1.1200    2.2950 C   0  0  0  0  0  0  0  0  0  0  0  0
   -2.9320    1.9240    3.5060 C   0  0  0  0  0  0  0  0  0  0  0  0
  1  2  1  0
  2  3  2  0
  2 30  1  0
  3  4  1  0
  4  5  1  0
  4 28  2  0
  5  6  2  0
  6  7  1  0
  6 13  1  0
  7  8  2  0
  7  9  1  0
  9 10  1  0
 10 11  2  0
 10 12  1  0
 12 13  2  0
 13 14  1  0
 14 15  1  0
 14 28  1  0
 15 16  1  0
 16 17  1  1
 16 18  1  0
 18 19  1  1
 18 20  1  0
 20 21  1  6
 20 22  1  0
 22 23  1  0
 23 24  1  0
 24 25  2  0
 24 26  1  1
 24 27  1  0
 28 29  1  0
 29 30  2  0
 30 31  1  0
M  END
