
     RDKit          3D

 31 32  0  0  0  0  0  0  0  0999 V2000
    7.4710   -3.2470    0.8010 C   0  0  0  0  0  0  0  0  0  0  0  0
    7.5400   -1.8720    0.2760 C   0  0  0  0  0  0  0  0  0  0  0  0
    6.4380   -1.1260   -0.0210 C   0  0  0  0  0  0  0  0  0  0  0  0
    6.7630    0.1770   -0.5180 C   0  0  0  0  0  0  0  0  0  0  0  0
    6.0270    1.1680   -0.8460 C   0  0  0  0  0  0  0  0  0  0  0  0
    6.5110    2.4410   -1.3510 O   0  0  0  0  0  0  0  0  0  0  0  0
    6.9810    3.4870    0.0370 P   0  0  0  0  0  0  0  0  0  0  0  0
    7.8000    4.8680   -0.5850 O   0  0  0  0  0  0  0  0  0  0  0  0
    5.5060    4.0210    0.8440 O   0  0  0  0  0  0  0  0  0  0  0  0
    5.2210   -1.7500    0.3390 C   0  0  0  0  0  0  0  0  0  0  0  0
    4.9930   -2.7490    0.9200 O   0  0  0  0  0  0  0  0  0  0  0  0
    3.8490   -0.9040   -0.1900 N   0  0  0  0  0  0  0  0  0  0  0  0
    2.8190   -1.7390    0.6280 C   0  0  0  0  0  0  0  0  0  0  0  0
    3.0100   -2.3290    1.5990 O   0  0  0  0  0  0  0  0  0  0  0  0
    1.6510   -1.4550   -0.2760 N   0  0  0  0  0  0  0  0  0  0  0  0
    0.4830   -1.6660    0.9570 C   0  0  0  0  0  0  0  0  0  0  0  0
    0.9040   -1.9120    2.0060 O   0  0  0  0  0  0  0  0  0  0  0  0
   -0.8550   -1.4800    0.4990 C   0  0  0  0  0  0  0  0  0  0  0  0
   -1.1370   -1.6570   -0.7250 O   0  0  0  0  0  0  0  0  0  0  0  0
   -1.8590   -1.0950    1.3410 O   0  0  0  0  0  0  0  0  0  0  0  0
   -3.1720   -0.8740    1.0270 C   0  0  0  0  0  0  0  0  0  0  0  0
   -3.4210   -0.0060   -0.2080 C   0  0  0  0  0  0  0  0  0  0  0  0
   -4.8390    0.2600   -0.3520 N   0  0  0  0  0  0  0  0  0  0  0  0
   -5.7920   -0.6630   -0.9090 C   0  0  0  0  0  0  0  0  0  0  0  0
   -7.1040    0.0700   -1.1100 C   0  0  1  0  0  0  0  0  0  0  0  0
   -7.7530    0.3720    0.2260 C   0  0  0  0  0  0  0  0  0  0  0  0
   -7.7420    1.8950    0.2980 C   0  0  0  0  0  0  0  0  0  0  0  0
   -6.4970    2.1770   -0.5440 C   0  0  2  0  0  0  0  0  0  0  0  0
   -6.8310    1.3650   -1.7260 N   0  0  0  0  0  0  0  0  0  0  0  0
   -5.3650    1.5110    0.1510 C   0  0  0  0  0  0  0  0  0  0  0  0
   -4.8410    2.0060    1.1720 O   0  0  0  0  0  0  0  0  0  0  0  0
  1  2  1  0
  2  3  2  3
  3  4  1  0
  3 10  1  0
  4  5  2  3
  5  6  1  0
  6  7  1  0
  7  8  1  0
  7  9  1  0
 10 11  2  0
 10 12  1  0
 12 13  1  0
 13 14  2  0
 13 15  1  0
 15 16  1  0
 16 17  2  0
 16 18  1  0
 18 19  2  0
 18 20  1  0
 20 21  1  0
 21 22  1  0
 22 23  1  0
 23 24  1  0
 23 30  1  0
 25 24  1  1
 25 26  1  0
 25 29  1  0
 26 27  1  0
 28 27  1  1
 28 29  1  0
 28 30  1  0
 30 31  2  0
M  END
