
     RDKit          3D

 31 33  0  0  0  0  0  0  0  0999 V2000
   -3.5470    2.4100   -1.3980 C   0  0  0  0  0  0  0  0  0  0  0  0
   -4.4190    1.3430   -0.9180 C   0  0  0  0  0  0  0  0  0  0  0  0
   -4.0780    0.1790   -0.4250 C   0  0  0  0  0  0  0  0  0  0  0  0
   -2.7440   -0.3340   -0.2380 C   0  0  0  0  0  0  0  0  0  0  0  0
   -2.6090   -1.5110    0.2650 O   0  0  0  0  0  0  0  0  0  0  0  0
   -1.5070    0.2800   -0.5330 N   0  0  0  0  0  0  0  0  0  0  0  0
   -0.2620   -0.4100   -0.2670 C   0  0  0  0  0  0  0  0  0  0  0  0
    0.8740    0.2100   -0.5630 C   0  0  0  0  0  0  0  0  0  0  0  0
    1.0950    1.4700   -1.1110 O   0  0  0  0  0  0  0  0  0  0  0  0
    2.5040    1.7980   -1.0610 C   0  0  0  0  0  0  0  0  0  0  0  0
    3.0310    0.8560   -0.0170 C   0  0  2  0  0  0  0  0  0  0  0  0
    4.4580    0.6170    0.0240 C   0  0  0  0  0  0  0  0  0  0  0  0
    5.3010    1.5730    0.0020 O   0  0  0  0  0  0  0  0  0  0  0  0
    5.0210   -0.6910    0.0900 N   0  0  0  0  0  0  0  0  0  0  0  0
    6.4490   -0.8980    0.3280 C   0  0  1  0  0  0  0  0  0  0  0  0
    7.2630   -0.1900   -0.6780 C   0  0  0  0  0  0  0  0  0  0  0  0
    8.0150    0.6890   -0.1240 N   0  0  0  0  0  0  0  0  0  0  0  0
    7.8450    0.7180    1.2530 N   0  0  0  0  0  0  0  0  0  0  0  0
    6.8730   -0.2570    1.5980 C   0  0  0  0  0  0  0  0  0  0  0  0
    6.4480   -0.5340    2.7340 O   0  0  0  0  0  0  0  0  0  0  0  0
    4.1440   -1.7960   -0.0820 C   0  0  0  0  0  0  0  0  0  0  0  0
    4.6250   -2.9450   -0.0330 O   0  0  0  0  0  0  0  0  0  0  0  0
    2.7210   -1.5710   -0.3110 C   0  0  0  0  0  0  0  0  0  0  0  0
    2.2170   -0.3690   -0.3490 C   0  0  0  0  0  0  0  0  0  0  0  0
   -5.2030   -0.6750   -0.0290 C   0  0  0  0  0  0  0  0  0  0  0  0
   -5.1630   -1.8360    0.4690 C   0  0  0  0  0  0  0  0  0  0  0  0
   -6.3870   -2.5090    0.7900 O   0  0  0  0  0  0  0  0  0  0  0  0
   -6.4880   -0.1110   -0.2400 O   0  0  0  0  0  0  0  0  0  0  0  0
   -7.7100   -0.0880    0.9910 P   0  0  0  0  0  0  0  0  0  0  0  0
   -7.1020    0.1940    2.5700 O   0  0  0  0  0  0  0  0  0  0  0  0
   -8.7850   -1.4240    0.9160 O   0  0  0  0  0  0  0  0  0  0  0  0
  1  2  1  0
  2  3  2  3
  3  4  1  0
  3 25  1  0
  4  5  2  0
  4  6  1  0
  6  7  1  0
  7  8  2  3
  8  9  1  0
  8 24  1  0
  9 10  1  0
 11 10  1  6
 11 12  1  0
 11 24  1  0
 12 13  2  0
 12 14  1  0
 15 14  1  6
 14 21  1  0
 15 16  1  0
 15 19  1  0
 16 17  2  0
 17 18  1  0
 18 19  1  0
 19 20  2  0
 21 22  2  0
 21 23  1  0
 23 24  2  0
 25 26  2  3
 25 28  1  0
 26 27  1  0
 28 29  1  0
 29 30  1  0
 29 31  1  0
M  END
