
     RDKit          3D

 19 20  0  0  0  0  0  0  0  0999 V2000
   -4.2150    1.8290    0.2760 C   0  0  0  0  0  0  0  0  0  0  0  0
   -3.7810    1.0620   -0.8230 O   0  0  0  0  0  0  0  0  0  0  0  0
   -2.8470    0.0140   -0.6350 C   0  0  0  0  0  0  0  0  0  0  0  0
   -3.3310   -1.1930   -0.5500 C   0  0  0  0  0  0  0  0  0  0  0  0
   -2.5180   -2.2790   -0.3700 O   0  0  0  0  0  0  0  0  0  0  0  0
   -1.4170    0.3480   -0.5470 C   0  0  0  0  0  0  0  0  0  0  0  0
   -0.9250    1.5760   -0.6490 C   0  0  0  0  0  0  0  0  0  0  0  0
    0.5150    1.5520   -0.5220 C   0  0  0  0  0  0  0  0  0  0  0  0
    0.8970    0.3130   -0.3430 C   0  0  0  0  0  0  0  0  0  0  0  0
    2.3150   -0.0700   -0.1800 C   0  0  0  0  0  0  0  0  0  0  0  0
    2.6300   -1.3660    0.0010 N   0  0  0  0  0  0  0  0  0  0  0  0
    3.9000   -1.7160    0.1480 N   0  0  0  0  0  0  0  0  0  0  0  0
    4.9090   -0.8250    0.1250 C   0  0  0  0  0  0  0  0  0  0  0  0
    6.0920   -1.2190    0.2710 O   0  0  0  0  0  0  0  0  0  0  0  0
    4.6000    0.5060   -0.0590 C   0  0  0  0  0  0  0  0  0  0  0  0
    5.5020    1.3850   -0.0890 O   0  0  0  0  0  0  0  0  0  0  0  0
    3.2840    0.8390   -0.2080 N   0  0  0  0  0  0  0  0  0  0  0  0
   -0.2820   -0.5530   -0.3060 C   0  0  1  0  0  0  0  0  0  0  0  0
   -0.3960   -1.0660    1.0590 N   0  0  0  0  0  0  0  0  0  0  0  0
  1  2  1  0
  2  3  1  0
  3  4  2  3
  3  6  1  0
  4  5  1  0
  6  7  2  0
  6 18  1  0
  7  8  1  0
  8  9  2  0
  9 10  1  0
  9 18  1  0
 10 11  2  0
 10 17  1  0
 11 12  1  0
 12 13  1  0
 13 14  2  0
 13 15  1  0
 15 16  2  0
 15 17  1  0
 18 19  1  1
M  CHG  1  19   1
M  END
