
     RDKit          3D

 19 20  0  0  0  0  0  0  0  0999 V2000
   -1.3880    3.7320   -0.4180 C   0  0  0  0  0  0  0  0  0  0  0  0
   -0.5310    2.6250   -0.5930 O   0  0  0  0  0  0  0  0  0  0  0  0
   -0.9830    1.3460   -0.3100 C   0  0  0  0  0  0  0  0  0  0  0  0
   -2.1570    1.1860    0.3060 C   0  0  0  0  0  0  0  0  0  0  0  0
   -2.7480   -0.1050    0.6610 C   0  0  1  0  0  0  0  0  0  0  0  0
   -4.0610   -0.2620    0.0060 N   0  0  0  0  0  0  0  0  0  0  0  0
   -1.9300   -1.2980    0.2740 C   0  0  1  0  0  0  0  0  0  0  0  0
   -2.6920   -2.2140   -0.5680 N   0  0  0  0  0  0  0  0  0  0  0  0
   -0.6570   -0.9980   -0.3970 C   0  0  0  0  0  0  0  0  0  0  0  0
   -0.1760    0.1910   -0.6880 C   0  0  0  0  0  0  0  0  0  0  0  0
    1.0630    0.3120   -1.3340 O   0  0  0  0  0  0  0  0  0  0  0  0
    2.1970   -0.2840   -0.8740 N   0  0  0  0  0  0  0  0  0  0  0  0
    2.9180   -1.4290   -1.3270 C   0  0  0  0  0  0  0  0  0  0  0  0
    2.9220   -1.8200   -2.5250 O   0  0  0  0  0  0  0  0  0  0  0  0
    3.5980   -2.0110   -0.2030 N   0  0  0  0  0  0  0  0  0  0  0  0
    3.2570   -1.1850    0.9000 C   0  0  0  0  0  0  0  0  0  0  0  0
    3.1890   -1.4580    2.1200 O   0  0  0  0  0  0  0  0  0  0  0  0
    2.9710    0.1630    0.2780 C   0  0  1  0  0  0  0  0  0  0  0  0
    4.3490    0.6460   -0.1770 C   0  0  0  0  0  0  0  0  0  0  0  0
  1  2  1  0
  2  3  1  0
  3  4  2  0
  3 10  1  0
  4  5  1  0
  5  6  1  6
  5  7  1  0
  7  8  1  6
  7  9  1  0
  9 10  2  0
 10 11  1  0
 11 12  1  0
 12 13  1  0
 12 18  1  0
 13 14  2  0
 13 15  1  0
 15 16  1  0
 16 17  2  0
 16 18  1  0
 18 19  1  6
M  CHG  1   8   1
M  END
