
     RDKit          3D

 19 20  0  0  0  0  0  0  0  0999 V2000
   -5.8670    1.7400   -1.4680 N   0  0  0  0  0  0  0  0  0  0  0  0
   -4.6990    0.9710   -1.4980 N   0  0  0  0  0  0  0  0  0  0  0  0
   -4.0740    0.5660   -0.2880 C   0  0  0  0  0  0  0  0  0  0  0  0
   -4.6200    0.9310    0.7850 O   0  0  0  0  0  0  0  0  0  0  0  0
   -2.8610   -0.2320   -0.2080 C   0  0  1  0  0  0  0  0  0  0  0  0
   -1.6650    0.3680   -0.8980 C   0  0  0  0  0  0  0  0  0  0  0  0
   -0.5160   -0.4000   -0.4400 N   0  0  0  0  0  0  0  0  0  0  0  0
    0.7770    0.1650   -0.4700 C   0  0  0  0  0  0  0  0  0  0  0  0
    0.9340    1.3380   -0.8950 O   0  0  0  0  0  0  0  0  0  0  0  0
    1.9760   -0.5610   -0.0200 C   0  0  0  0  0  0  0  0  0  0  0  0
    3.2350    0.2490   -0.1480 C   0  0  2  0  0  0  0  0  0  0  0  0
    3.4640    0.6180   -1.4620 O   0  0  0  0  0  0  0  0  0  0  0  0
    4.3870   -0.6660    0.2880 C   0  0  0  0  0  0  0  0  0  0  0  0
    5.3370    0.3750    0.8870 C   0  0  0  0  0  0  0  0  0  0  0  0
    4.4520    1.1510    1.6250 O   0  0  0  0  0  0  0  0  0  0  0  0
    3.3470    1.3650    0.8330 C   0  0  0  0  0  0  0  0  0  0  0  0
   -0.7920   -1.7420    0.0330 C   0  0  0  0  0  0  0  0  0  0  0  0
   -1.7860   -1.7580    1.1740 C   0  0  0  0  0  0  0  0  0  0  0  0
   -2.4730   -0.4810    1.1670 N   0  0  0  0  0  0  0  0  0  0  0  0
  1  2  1  0
  2  3  1  0
  3  4  2  0
  5  3  1  1
  5  6  1  0
  5 19  1  0
  6  7  1  0
  7  8  1  0
  7 17  1  0
  8  9  2  0
  8 10  1  0
 10 11  1  0
 11 12  1  6
 11 13  1  0
 11 16  1  0
 13 14  1  0
 14 15  1  0
 15 16  1  0
 17 18  1  0
 18 19  1  0
M  CHG  1  19   1
M  END
