
     RDKit          3D

 19 21  0  0  0  0  0  0  0  0999 V2000
   -5.2470    1.6180    0.7060 N   0  0  0  0  0  0  0  0  0  0  0  0
   -4.3860    0.5390    0.3670 C   0  0  0  0  0  0  0  0  0  0  0  0
   -4.7070   -0.5960   -0.2350 N   0  0  0  0  0  0  0  0  0  0  0  0
   -3.6310   -1.3940   -0.3980 C   0  0  0  0  0  0  0  0  0  0  0  0
   -3.5550   -2.6550   -0.9800 O   0  0  0  0  0  0  0  0  0  0  0  0
   -2.5630   -0.6830    0.1520 C   0  0  0  0  0  0  0  0  0  0  0  0
   -3.0400    0.5200    0.6260 C   0  0  0  0  0  0  0  0  0  0  0  0
   -1.8910    1.2150    1.1860 C   0  0  0  0  0  0  0  0  0  0  0  0
   -1.8590    2.3360    1.7240 O   0  0  0  0  0  0  0  0  0  0  0  0
   -0.7090    0.3720    1.0230 C   0  0  0  0  0  0  0  0  0  0  0  0
   -1.1170   -0.7300    0.4190 C   0  0  0  0  0  0  0  0  0  0  0  0
   -0.1330   -1.6890    0.1620 O   0  0  0  0  0  0  0  0  0  0  0  0
    1.1320   -1.2150   -0.2630 C   0  0  0  0  0  0  0  0  0  0  0  0
    1.7040   -0.1420    0.5910 C   0  0  1  0  0  0  0  0  0  0  0  0
    2.4020    0.9500   -0.1700 C   0  0  0  0  0  0  0  0  0  0  0  0
    3.5120    0.4800   -0.9600 N   0  0  0  0  0  0  0  0  0  0  0  0
    4.5630   -0.1060   -0.1790 C   0  0  0  0  0  0  0  0  0  0  0  0
    5.7790    0.5930   -0.3350 O   0  0  0  0  0  0  0  0  0  0  0  0
    0.6570    0.4880    1.3560 N   0  0  0  0  0  0  0  0  0  0  0  0
  1  2  1  0
  2  3  1  0
  2  7  2  0
  3  4  1  0
  4  5  1  0
  4  6  2  0
  6  7  1  0
  6 11  1  0
  7  8  1  0
  8  9  2  0
  8 10  1  0
 10 11  2  0
 10 19  1  0
 11 12  1  0
 12 13  1  0
 13 14  1  0
 14 15  1  6
 14 19  1  0
 15 16  1  0
 16 17  1  0
 17 18  1  0
M  CHG  1  16   1
M  END
