
     RDKit          3D

 19 20  0  0  0  0  0  0  0  0999 V2000
   -0.2190   -2.6280    0.3900 C   0  0  0  0  0  0  0  0  0  0  0  0
    0.3390   -1.2570    0.5260 C   0  0  2  0  0  0  0  0  0  0  0  0
   -0.6110   -0.2260    1.0040 C   0  0  2  0  0  0  0  0  0  0  0  0
   -1.0620   -0.6840    2.2810 O   0  0  0  0  0  0  0  0  0  0  0  0
   -1.7520    0.0960    0.1520 C   0  0  0  0  0  0  0  0  0  0  0  0
   -2.0580   -0.5200   -0.9700 C   0  0  0  0  0  0  0  0  0  0  0  0
   -3.2240   -0.1780   -1.8260 C   0  0  0  0  0  0  0  0  0  0  0  0
   -4.0340    0.8380   -1.3290 O   0  0  0  0  0  0  0  0  0  0  0  0
   -3.7230    1.4770   -0.1720 N   0  0  0  0  0  0  0  0  0  0  0  0
   -2.6970    1.1710    0.5290 C   0  0  0  0  0  0  0  0  0  0  0  0
   -2.4300    1.8750    1.7230 N   0  0  0  0  0  0  0  0  0  0  0  0
    1.1010   -0.9210   -0.6910 C   0  0  0  0  0  0  0  0  0  0  0  0
    2.2500   -0.4000   -0.3150 C   0  0  0  0  0  0  0  0  0  0  0  0
    3.3070    0.0710   -1.1940 N   0  0  0  0  0  0  0  0  0  0  0  0
    3.6980    1.4310   -1.1150 C   0  0  0  0  0  0  0  0  0  0  0  0
    4.7220    1.9710   -1.9380 N   0  0  0  0  0  0  0  0  0  0  0  0
    3.0820    2.1590   -0.2610 O   0  0  0  0  0  0  0  0  0  0  0  0
    2.2660   -0.3760    1.1600 C   0  0  0  0  0  0  0  0  0  0  0  0
    1.3580   -1.3370    1.5280 O   0  0  0  0  0  0  0  0  0  0  0  0
  2  1  1  6
  2  3  1  0
  2 12  1  0
  2 19  1  0
  3  4  1  1
  3  5  1  0
  5  6  2  0
  5 10  1  0
  6  7  1  0
  7  8  1  0
  8  9  1  0
  9 10  2  0
 10 11  1  0
 12 13  2  0
 13 14  1  0
 13 18  1  0
 14 15  1  0
 15 16  1  0
 15 17  2  0
 18 19  1  0
M  CHG  1   9   1
M  END
