
     RDKit          3D

 19 21  0  0  0  0  0  0  0  0999 V2000
    4.2610   -1.0170    0.8180 N   0  0  0  0  0  0  0  0  0  0  0  0
    3.6010   -0.1360   -0.0820 C   0  0  0  0  0  0  0  0  0  0  0  0
    4.2690    0.5970   -1.0270 C   0  0  0  0  0  0  0  0  0  0  0  0
    3.5280    1.3900   -1.8090 N   0  0  0  0  0  0  0  0  0  0  0  0
    2.2020    1.4910   -1.7090 C   0  0  0  0  0  0  0  0  0  0  0  0
    1.5050    2.2400   -2.4490 O   0  0  0  0  0  0  0  0  0  0  0  0
    1.5280    0.7540   -0.7590 N   0  0  0  0  0  0  0  0  0  0  0  0
    2.2040   -0.0520    0.0490 C   0  0  0  0  0  0  0  0  0  0  0  0
    1.5560   -0.8030    1.0120 O   0  0  0  0  0  0  0  0  0  0  0  0
    0.1940   -1.1270    0.8070 C   0  0  0  0  0  0  0  0  0  0  0  0
   -0.4970    0.1680    0.4670 C   0  0  2  0  0  0  0  0  0  0  0  0
    0.0880    0.8860   -0.6740 C   0  0  0  0  0  0  0  0  0  0  0  0
   -0.7010    0.9720    1.7490 C   0  0  2  0  0  0  0  0  0  0  0  0
    0.1760    0.6040    2.7610 O   0  0  0  0  0  0  0  0  0  0  0  0
   -2.0330    0.2290    1.8730 C   0  0  0  0  0  0  0  0  0  0  0  0
   -1.9990    0.0950    0.3870 C   0  0  1  0  0  0  0  0  0  0  0  0
   -2.5240    1.2350   -0.2180 O   0  0  0  0  0  0  0  0  0  0  0  0
   -2.5650   -1.1570   -0.2010 C   0  0  0  0  0  0  0  0  0  0  0  0
   -4.0040   -1.1380   -0.0070 N   0  0  0  0  0  0  0  0  0  0  0  0
  1  2  1  0
  2  3  1  0
  2  8  2  0
  3  4  2  0
  4  5  1  0
  5  6  2  0
  5  7  1  0
  7  8  1  0
  7 12  1  0
  8  9  1  0
  9 10  1  0
 11 10  1  1
 11 12  1  0
 11 13  1  0
 11 16  1  0
 13 14  1  1
 13 15  1  0
 15 16  1  0
 16 17  1  6
 16 18  1  0
 18 19  1  0
M  CHG  1  19   1
M  END
