
     RDKit          3D

 19 20  0  0  0  0  0  0  0  0999 V2000
   -0.2970   -0.7530   -2.3060 N   0  0  0  0  0  0  0  0  0  0  0  0
   -0.8690   -0.6100   -1.0120 C   0  0  0  0  0  0  0  0  0  0  0  0
   -2.2440   -1.0250   -0.8720 N   0  0  0  0  0  0  0  0  0  0  0  0
   -3.0750   -0.4750    0.1410 C   0  0  0  0  0  0  0  0  0  0  0  0
   -3.1430    0.8060    0.4510 C   0  0  0  0  0  0  0  0  0  0  0  0
   -3.9850    1.4040    1.4850 C   0  0  0  0  0  0  0  0  0  0  0  0
   -4.7560    0.4630    2.1580 O   0  0  0  0  0  0  0  0  0  0  0  0
   -4.7280   -0.8700    1.8820 C   0  0  0  0  0  0  0  0  0  0  0  0
   -3.9450   -1.3470    0.9360 C   0  0  0  0  0  0  0  0  0  0  0  0
   -0.2480   -0.1460    0.0070 N   0  0  0  0  0  0  0  0  0  0  0  0
    1.1170    0.3010   -0.0000 C   0  0  1  0  0  0  0  0  0  0  0  0
    2.1280   -0.7810    0.1020 C   0  0  0  0  0  0  0  0  0  0  0  0
    3.3860   -0.1190   -0.4240 C   0  0  2  0  0  0  0  0  0  0  0  0
    4.1280   -0.9820   -1.2050 O   0  0  0  0  0  0  0  0  0  0  0  0
    4.2360    0.3730    0.7400 C   0  0  0  0  0  0  0  0  0  0  0  0
    3.5230    1.2430    1.5490 O   0  0  0  0  0  0  0  0  0  0  0  0
    2.9330    0.9760   -1.2600 N   0  0  0  0  0  0  0  0  0  0  0  0
    1.5140    1.0560   -1.1940 C   0  0  0  0  0  0  0  0  0  0  0  0
    0.7720    1.6750   -2.0310 O   0  0  0  0  0  0  0  0  0  0  0  0
  1  2  1  0
  2  3  1  0
  2 10  2  3
  3  4  1  0
  4  5  2  0
  4  9  1  0
  5  6  1  0
  6  7  1  0
  7  8  1  0
  8  9  2  0
 11 10  1  6
 11 12  1  0
 11 18  1  0
 12 13  1  0
 13 14  1  6
 13 15  1  0
 13 17  1  0
 15 16  1  0
 17 18  1  0
 18 19  2  0
M  CHG  1  10   1
M  END
