
     RDKit          3D

 19 21  0  0  0  0  0  0  0  0999 V2000
   -0.4370   -2.4920   -0.4730 C   0  0  0  0  0  0  0  0  0  0  0  0
   -0.1390   -1.4440    0.5740 C   0  0  1  0  0  0  0  0  0  0  0  0
   -0.3630   -1.9440    1.8600 O   0  0  0  0  0  0  0  0  0  0  0  0
    1.3090   -1.0650    0.4270 C   0  0  0  0  0  0  0  0  0  0  0  0
    1.7010    0.0380   -0.1860 C   0  0  0  0  0  0  0  0  0  0  0  0
    0.7280    0.9460   -0.7520 N   0  0  0  0  0  0  0  0  0  0  0  0
   -0.2900    1.0560    0.2710 C   0  0  1  0  0  0  0  0  0  0  0  0
   -1.1820    2.2230    0.0350 C   0  0  0  0  0  0  0  0  0  0  0  0
   -2.5990    1.9690    0.5060 C   0  0  1  0  0  0  0  0  0  0  0  0
   -3.3690    3.0530    0.0460 O   0  0  0  0  0  0  0  0  0  0  0  0
   -3.1860    0.7260   -0.0570 C   0  0  0  0  0  0  0  0  0  0  0  0
   -2.2890   -0.4240    0.1900 C   0  0  0  0  0  0  0  0  0  0  0  0
   -2.8170   -1.7640    0.2890 N   0  0  0  0  0  0  0  0  0  0  0  0
   -1.0050   -0.2330    0.3260 C   0  0  0  0  0  0  0  0  0  0  0  0
    3.1190    0.1060   -0.1510 N   0  0  0  0  0  0  0  0  0  0  0  0
    3.9280    1.2490   -0.3530 N   0  0  0  0  0  0  0  0  0  0  0  0
    5.1320    0.9350   -0.8250 O   0  0  0  0  0  0  0  0  0  0  0  0
    3.5500   -1.2460    0.1340 C   0  0  0  0  0  0  0  0  0  0  0  0
    2.4470   -1.7440    0.8700 O   0  0  0  0  0  0  0  0  0  0  0  0
  2  1  1  6
  2  3  1  0
  2  4  1  0
  2 14  1  0
  4  5  2  0
  4 19  1  0
  5  6  1  0
  5 15  1  0
  6  7  1  0
  7  8  1  6
  7 14  1  0
  8  9  1  0
  9 10  1  6
  9 11  1  0
 11 12  1  0
 12 13  1  0
 12 14  2  0
 15 16  1  0
 15 18  1  0
 16 17  1  0
 18 19  1  0
M  CHG  1   6   1
M  END
