
     RDKit          3D

 16 17  0  0  0  0  0  0  0  0999 V2000
    0.9690   -3.2870   -0.9910 N   0  0  0  0  0  0  0  0  0  0  0  0
    0.9180   -1.8820   -0.7990 C   0  0  0  0  0  0  0  0  0  0  0  0
    1.2350   -1.1460   -1.7660 O   0  0  0  0  0  0  0  0  0  0  0  0
    0.5040   -1.3430    0.5070 C   0  0  2  0  0  0  0  0  0  0  0  0
   -0.9230   -1.7410    0.8750 C   0  0  0  0  0  0  0  0  0  0  0  0
   -2.1140   -1.1510   -0.3230 S   0  0  0  0  0  0  0  0  0  0  0  0
   -2.2780    0.6190   -0.3970 C   0  0  2  0  0  0  0  0  0  0  0  0
   -2.8360    1.3320    0.7870 C   0  0  0  0  0  0  0  0  0  0  0  0
   -3.5710    2.1500   -0.1030 O   0  0  0  0  0  0  0  0  0  0  0  0
   -3.6610    1.0240   -0.9230 C   0  0  0  0  0  0  0  0  0  0  0  0
    0.5280    0.0860    0.4830 O   0  0  0  0  0  0  0  0  0  0  0  0
    1.7090    0.7650    0.2230 C   0  0  0  0  0  0  0  0  0  0  0  0
    1.9850    1.4650   -0.8640 C   0  0  0  0  0  0  0  0  0  0  0  0
    3.3690    2.0480   -0.7670 C   0  0  0  0  0  0  0  0  0  0  0  0
    3.8060    1.5570    0.5400 N   0  0  0  0  0  0  0  0  0  0  0  0
    2.8810    0.8480    1.0790 C   0  0  0  0  0  0  0  0  0  0  0  0
  1  2  1  0
  2  3  2  0
  2  4  1  0
  4  5  1  6
  4 11  1  0
  5  6  1  0
  7  6  1  1
  7  8  1  0
  7 10  1  0
  8  9  1  0
  9 10  1  0
 11 12  1  0
 12 13  2  0
 12 16  1  0
 13 14  1  0
 14 15  1  0
 15 16  2  0
M  END
