
     RDKit          3D

 16 17  0  0  0  0  0  0  0  0999 V2000
   -4.2410    1.4260    0.1210 N   0  0  0  0  0  0  0  0  0  0  0  0
   -3.5800    0.2180    0.5300 C   0  0  1  0  0  0  0  0  0  0  0  0
   -4.1020   -1.0100   -0.1520 C   0  0  0  0  0  0  0  0  0  0  0  0
   -5.4510   -1.1380    0.1460 O   0  0  0  0  0  0  0  0  0  0  0  0
   -2.0960    0.3540    0.2580 C   0  0  0  0  0  0  0  0  0  0  0  0
   -1.5340    1.3800   -0.2520 N   0  0  0  0  0  0  0  0  0  0  0  0
   -0.1330    1.1680   -0.3670 C   0  0  0  0  0  0  0  0  0  0  0  0
    0.6760    2.0110   -0.8370 O   0  0  0  0  0  0  0  0  0  0  0  0
    0.1350   -0.1550    0.1470 C   0  0  0  0  0  0  0  0  0  0  0  0
    1.2070   -0.8520    0.2830 C   0  0  0  0  0  0  0  0  0  0  0  0
    2.5510   -0.4670   -0.0720 C   0  0  0  0  0  0  0  0  0  0  0  0
    3.6480   -1.2000    0.0750 C   0  0  0  0  0  0  0  0  0  0  0  0
    4.9000   -0.6420   -0.3410 C   0  0  0  0  0  0  0  0  0  0  0  0
    4.8810    0.8690   -0.2790 C   0  0  0  0  0  0  0  0  0  0  0  0
    3.1220    1.0840   -0.7880 S   0  0  0  0  0  0  0  0  0  0  0  0
   -1.1590   -0.6160    0.5270 O   0  0  0  0  0  0  0  0  0  0  0  0
  2  1  1  6
  2  3  1  0
  2  5  1  0
  3  4  1  0
  5  6  2  0
  5 16  1  0
  6  7  1  0
  7  8  2  0
  7  9  1  0
  9 10  2  3
  9 16  1  0
 10 11  1  0
 11 12  2  0
 11 15  1  0
 12 13  1  0
 13 14  1  0
 14 15  1  0
M  END
