
     RDKit          3D

 16 17  0  0  0  0  0  0  0  0999 V2000
    5.6710   -0.9130    0.9560 O   0  0  0  0  0  0  0  0  0  0  0  0
    5.3890    0.3090    0.7150 C   0  0  0  0  0  0  0  0  0  0  0  0
    4.0750    0.7480    0.4840 N   0  0  0  0  0  0  0  0  0  0  0  0
    2.9950   -0.2150    0.5170 C   0  0  1  0  0  0  0  0  0  0  0  0
    1.9670    0.2130    1.4340 N   0  0  0  0  0  0  0  0  0  0  0  0
    0.8460    0.8040    0.8180 C   0  0  0  0  0  0  0  0  0  0  0  0
    0.2870    1.8440    1.2310 O   0  0  0  0  0  0  0  0  0  0  0  0
    0.4270    0.0710   -0.3460 C   0  0  0  0  0  0  0  0  0  0  0  0
   -0.6140   -0.3880   -0.9180 C   0  0  0  0  0  0  0  0  0  0  0  0
   -2.0320   -0.3860   -0.6130 C   0  0  0  0  0  0  0  0  0  0  0  0
   -2.9740   -0.9320   -1.4190 C   0  0  0  0  0  0  0  0  0  0  0  0
   -4.3050   -0.7710   -0.8290 C   0  0  0  0  0  0  0  0  0  0  0  0
   -4.0640   -0.0820    0.4400 C   0  0  0  0  0  0  0  0  0  0  0  0
   -2.7400    0.1240    0.5270 C   0  0  0  0  0  0  0  0  0  0  0  0
   -2.2310    0.7670    1.6460 O   0  0  0  0  0  0  0  0  0  0  0  0
    2.1130   -0.2820   -1.0650 S   0  0  0  0  0  0  0  0  0  0  0  0
  1  2  2  0
  2  3  1  0
  4  3  1  6
  4  5  1  0
  4 16  1  0
  5  6  1  0
  6  7  2  0
  6  8  1  0
  8  9  2  3
  8 16  1  0
  9 10  1  0
 10 11  2  0
 10 14  1  0
 11 12  1  0
 12 13  1  0
 13 14  2  0
 14 15  1  0
M  END
