
     RDKit          3D

 16 17  0  0  0  0  0  0  0  0999 V2000
   -2.3150   -1.8190    0.5830 N   0  0  0  0  0  0  0  0  0  0  0  0
   -1.7080   -0.9390   -0.2070 O   0  0  0  0  0  0  0  0  0  0  0  0
   -1.8540    0.4210   -0.3070 C   0  0  0  0  0  0  0  0  0  0  0  0
   -0.8340    1.2280   -0.2550 C   0  0  0  0  0  0  0  0  0  0  0  0
    0.5640    0.9040   -0.0930 C   0  0  0  0  0  0  0  0  0  0  0  0
    1.0030   -0.7790    0.0950 S   0  0  2  0  0  0  0  0  0  0  0  0
    0.6070   -1.6650   -1.0320 O   0  0  0  0  0  0  0  0  0  0  0  0
    0.4910   -1.2710    1.4460 O   0  0  0  0  0  0  0  0  0  0  0  0
    2.7910   -0.9560    0.2240 C   0  0  1  0  0  0  0  0  0  0  0  0
    3.4530   -0.3160   -0.9370 C   0  0  0  0  0  0  0  0  0  0  0  0
    4.4770    0.3470   -0.5820 N   0  0  0  0  0  0  0  0  0  0  0  0
    4.6880    0.2790    0.8320 C   0  0  0  0  0  0  0  0  0  0  0  0
    3.3370   -0.1900    1.3870 C   0  0  0  0  0  0  0  0  0  0  0  0
   -3.2390    0.9620   -0.4830 C   0  0  2  0  0  0  0  0  0  0  0  0
   -4.3520   -0.0350   -0.3360 C   0  0  0  0  0  0  0  0  0  0  0  0
   -4.0890    0.6570   -1.6250 C   0  0  0  0  0  0  0  0  0  0  0  0
  1  2  1  0
  2  3  1  0
  3  4  2  3
 14  3  1  6
  4  5  1  0
  6  5  1  6
  6  7  2  0
  6  8  2  0
  6  9  1  0
  9 10  1  0
  9 13  1  1
 10 11  2  0
 11 12  1  0
 12 13  1  0
 14 15  1  0
 14 16  1  0
 15 16  1  0
M  END
