
     RDKit          3D

 13 13  0  0  0  0  0  0  0  0999 V2000
   -1.8740    0.4760    1.8590 O   0  0  0  0  0  0  0  0  0  0  0  0
   -2.5620    0.2620    0.8380 C   0  0  0  0  0  0  0  0  0  0  0  0
   -3.9300    0.4250    0.9130 O   0  0  0  0  0  0  0  0  0  0  0  0
   -1.9210   -0.1530   -0.4060 C   0  0  0  0  0  0  0  0  0  0  0  0
   -0.4540   -0.2780   -0.3040 C   0  0  0  0  0  0  0  0  0  0  0  0
    0.0640   -1.5020    0.0690 C   0  0  0  0  0  0  0  0  0  0  0  0
    1.4080   -1.7400    0.1980 C   0  0  0  0  0  0  0  0  0  0  0  0
    2.2810   -0.7100   -0.0550 C   0  0  0  0  0  0  0  0  0  0  0  0
    1.8020    0.5340   -0.4310 C   0  0  0  0  0  0  0  0  0  0  0  0
    2.7110    1.5790   -0.6870 N   0  0  0  0  0  0  0  0  0  0  0  0
    2.2830    2.6950   -1.0240 O   0  0  0  0  0  0  0  0  0  0  0  0
    4.0550    1.3910   -0.5720 O   0  0  0  0  0  0  0  0  0  0  0  0
    0.4360    0.7330   -0.5500 C   0  0  0  0  0  0  0  0  0  0  0  0
  1  2  2  0
  2  3  1  0
  2  4  1  0
  4  5  1  0
  5  6  2  0
  5 13  1  0
  6  7  1  0
  7  8  2  0
  8  9  1  0
  9 10  1  0
  9 13  2  0
 10 11  2  0
 10 12  1  0
M  CHG  2  10   1  12  -1
M  END
