
     RDKit          3D

 16 16  0  0  0  0  0  0  0  0999 V2000
   -0.6060    2.7400    1.2270 C   0  0  0  0  0  0  0  0  0  0  0  0
   -1.4150    2.0850    0.1550 C   0  0  0  0  0  0  0  0  0  0  0  0
   -0.7470    0.8120   -0.3150 C   0  0  2  0  0  0  0  0  0  0  0  0
   -1.4820    0.1470   -1.3410 N   0  0  0  0  0  0  0  0  0  0  0  0
   -2.6890   -0.3610   -0.7630 C   0  0  0  0  0  0  0  0  0  0  0  0
   -2.4030   -1.2880    0.3610 C   0  0  1  0  0  0  0  0  0  0  0  0
   -2.1890   -2.6850   -0.2370 C   0  0  0  0  0  0  0  0  0  0  0  0
   -1.4310   -0.9270    1.2230 O   0  0  0  0  0  0  0  0  0  0  0  0
   -0.4470   -0.1000    0.8090 C   0  0  1  0  0  0  0  0  0  0  0  0
    0.7980   -0.8700    0.4520 C   0  0  0  0  0  0  0  0  0  0  0  0
    0.7980   -2.1180    0.5680 O   0  0  0  0  0  0  0  0  0  0  0  0
    1.9380   -0.2380    0.0020 O   0  0  0  0  0  0  0  0  0  0  0  0
    3.0770   -1.0450   -0.3140 C   0  0  0  0  0  0  0  0  0  0  0  0
    4.2070   -0.2210   -0.7780 C   0  0  0  0  0  0  0  0  0  0  0  0
    4.7750    0.7770    0.0470 N   0  0  0  0  0  0  0  0  0  0  0  0
    4.8150   -0.4600   -2.2650 S   0  0  0  0  0  0  0  0  0  0  0  0
  1  2  1  0
  3  2  1  1
  3  4  1  0
  3  9  1  0
  4  5  1  0
  5  6  1  0
  6  7  1  6
  6  8  1  0
  8  9  1  0
  9 10  1  6
 10 11  2  0
 10 12  1  0
 12 13  1  0
 13 14  1  0
 14 15  1  0
 14 16  2  0
M  END
