
     RDKit          3D

 16 17  0  0  0  0  0  0  0  0999 V2000
   -4.3670    1.6030    0.5500 C   0  0  0  0  0  0  0  0  0  0  0  0
   -3.5470    0.5370    0.1340 O   0  0  0  0  0  0  0  0  0  0  0  0
   -2.1750    0.5510    0.4130 C   0  0  0  0  0  0  0  0  0  0  0  0
   -1.7450    1.5410    1.0340 O   0  0  0  0  0  0  0  0  0  0  0  0
   -1.3640   -0.5550   -0.0280 C   0  0  0  0  0  0  0  0  0  0  0  0
   -1.7570   -1.6290   -0.6880 C   0  0  0  0  0  0  0  0  0  0  0  0
   -3.1560   -1.9090   -1.1160 C   0  0  0  0  0  0  0  0  0  0  0  0
   -0.6760   -2.4740   -0.9330 O   0  0  0  0  0  0  0  0  0  0  0  0
    0.5010   -1.7930   -0.6940 N   0  0  0  0  0  0  0  0  0  0  0  0
    0.0820   -0.7030    0.1780 C   0  0  1  0  0  0  0  0  0  0  0  0
    0.8290    0.4770   -0.1700 N   0  0  0  0  0  0  0  0  0  0  0  0
    2.2370    0.4700   -0.0190 C   0  0  0  0  0  0  0  0  0  0  0  0
    2.9420    0.0680    1.0130 C   0  0  0  0  0  0  0  0  0  0  0  0
    4.4010    0.1720    0.8950 C   0  0  0  0  0  0  0  0  0  0  0  0
    4.7760    1.3140   -0.0180 C   0  0  0  0  0  0  0  0  0  0  0  0
    3.4060    1.0590   -1.2410 S   0  0  0  0  0  0  0  0  0  0  0  0
  1  2  1  0
  2  3  1  0
  3  4  2  0
  3  5  1  0
  5  6  2  0
  5 10  1  0
  6  7  1  0
  6  8  1  0
  8  9  1  0
  9 10  1  0
 10 11  1  6
 11 12  1  0
 12 13  2  0
 12 16  1  0
 13 14  1  0
 14 15  1  0
 15 16  1  0
M  END
