
     RDKit          3D

  7  7  0  0  0  0  0  0  0  0999 V2000
    2.0760   -0.7150    0.0460 C   0  0  0  0  0  0  0  0  0  0  0  0
    1.6370    0.7190   -0.0420 C   0  0  0  0  0  0  0  0  0  0  0  0
    0.2280    0.9270    0.4530 C   0  0  0  0  0  0  0  0  0  0  0  0
   -0.7880    0.1470   -0.3070 C   0  0  1  0  0  0  0  0  0  0  0  0
   -0.8330    0.4600   -1.6810 O   0  0  0  0  0  0  0  0  0  0  0  0
   -1.3400   -1.1330    0.1330 C   0  0  0  0  0  0  0  0  0  0  0  0
   -2.1560    0.0920    0.4030 C   0  0  0  0  0  0  0  0  0  0  0  0
  1  2  1  0
  2  3  1  0
  3  4  1  0
  4  5  1  6
  4  6  1  0
  4  7  1  0
  6  7  1  0
M  END
