
     RDKit          3D

  6  5  0  0  0  0  0  0  0  0999 V2000
    2.3820    0.5490   -0.1980 C   0  0  0  0  0  0  0  0  0  0  0  0
    1.8210   -0.6400   -0.3620 C   0  0  0  0  0  0  0  0  0  0  0  0
    0.3680   -0.8820   -0.2200 C   0  0  0  0  0  0  0  0  0  0  0  0
   -0.4010    0.3630    0.1290 C   0  0  0  0  0  0  0  0  0  0  0  0
   -1.8630   -0.0370    0.2410 C   0  0  0  0  0  0  0  0  0  0  0  0
   -2.6810    1.0330    0.5610 O   0  0  0  0  0  0  0  0  0  0  0  0
  1  2  2  0
  2  3  1  0
  3  4  1  0
  4  5  1  0
  5  6  1  0
M  END
