
     RDKit          3D

  6  5  0  0  0  0  0  0  0  0999 V2000
   -1.7260   -0.5330   -0.6270 C   0  0  0  0  0  0  0  0  0  0  0  0
   -0.4380    0.0670   -0.1940 C   0  0  0  0  0  0  0  0  0  0  0  0
   -0.3900    1.5570   -0.1830 C   0  0  0  0  0  0  0  0  0  0  0  0
    0.6000   -0.6720    0.1600 C   0  0  0  0  0  0  0  0  0  0  0  0
    1.8770   -0.0340    0.5890 C   0  0  0  0  0  0  0  0  0  0  0  0
    0.4590   -2.0380    0.1180 O   0  0  0  0  0  0  0  0  0  0  0  0
  1  2  1  0
  2  3  1  0
  2  4  2  3
  4  5  1  0
  4  6  1  0
M  END
