
     RDKit          3D

  7  7  0  0  0  0  0  0  0  0999 V2000
   -2.4600   -0.4080    0.4070 O   0  0  0  0  0  0  0  0  0  0  0  0
   -1.2400   -0.1080   -0.2430 C   0  0  2  0  0  0  0  0  0  0  0  0
   -0.3900   -1.3090   -0.3270 C   0  0  0  0  0  0  0  0  0  0  0  0
    1.0590   -1.1550   -0.1840 C   0  0  0  0  0  0  0  0  0  0  0  0
    1.5640    0.1760    0.2550 C   0  0  0  0  0  0  0  0  0  0  0  0
    0.7050    1.3280   -0.2210 C   0  0  0  0  0  0  0  0  0  0  0  0
   -0.6420    1.0630    0.4700 C   0  0  0  0  0  0  0  0  0  0  0  0
  2  1  1  1
  2  3  1  0
  2  7  1  0
  3  4  1  0
  4  5  1  0
  5  6  1  0
  6  7  1  0
M  END
