
     RDKit          3D

  7  7  0  0  0  0  0  0  0  0999 V2000
    2.3940   -0.5340   -0.5910 O   0  0  0  0  0  0  0  0  0  0  0  0
    1.0600   -0.2440   -0.3000 C   0  0  0  0  0  0  0  0  0  0  0  0
    0.1260   -1.2350   -0.0790 C   0  0  0  0  0  0  0  0  0  0  0  0
   -1.1960   -0.9500    0.2100 C   0  0  0  0  0  0  0  0  0  0  0  0
   -1.6310    0.3590    0.2860 C   0  0  0  0  0  0  0  0  0  0  0  0
   -0.7010    1.3530    0.0650 C   0  0  0  0  0  0  0  0  0  0  0  0
    0.6200    1.0630   -0.2230 C   0  0  0  0  0  0  0  0  0  0  0  0
  1  2  1  0
  2  3  2  0
  2  7  1  0
  3  4  1  0
  4  5  2  0
  5  6  1  0
  6  7  2  0
M  END
