
     RDKit          3D

  7  7  0  0  0  0  0  0  0  0999 V2000
   -0.1070    1.7080    0.4720 C   0  0  0  0  0  0  0  0  0  0  0  0
    0.0240    0.2890   -0.0400 C   0  0  2  0  0  0  0  0  0  0  0  0
    1.2770    0.0410   -0.8360 C   0  0  0  0  0  0  0  0  0  0  0  0
    2.4180    0.2780   -0.1000 O   0  0  0  0  0  0  0  0  0  0  0  0
   -1.2280   -0.2270   -0.7090 C   0  0  0  0  0  0  0  0  0  0  0  0
   -0.9210   -1.5590   -0.0580 C   0  0  0  0  0  0  0  0  0  0  0  0
   -0.2070   -0.7710    1.0170 C   0  0  0  0  0  0  0  0  0  0  0  0
  2  1  1  1
  2  3  1  0
  2  5  1  0
  2  7  1  0
  3  4  1  0
  5  6  1  0
  6  7  1  0
M  END
