
     RDKit          3D

  7  6  0  0  0  0  0  0  0  0999 V2000
   -2.3140    0.1550   -1.0470 C   0  0  0  0  0  0  0  0  0  0  0  0
   -1.4060    0.2810   -0.0990 C   0  0  0  0  0  0  0  0  0  0  0  0
   -1.7890    0.1630    1.3300 C   0  0  0  0  0  0  0  0  0  0  0  0
    0.0260    0.5470   -0.4800 C   0  0  0  0  0  0  0  0  0  0  0  0
    0.8360   -0.5910    0.0590 C   0  0  0  0  0  0  0  0  0  0  0  0
    2.3060   -0.4670   -0.2450 C   0  0  0  0  0  0  0  0  0  0  0  0
    2.8510    0.6960    0.3000 O   0  0  0  0  0  0  0  0  0  0  0  0
  1  2  2  0
  2  3  1  0
  2  4  1  0
  4  5  1  0
  5  6  1  0
  6  7  1  0
M  END
