
     RDKit          3D

 29 32  0  0  0  0  0  0  0  0999 V2000
   -7.1950   -2.0420   -1.8710 C   0  0  0  0  0  0  0  0  0  0  0  0
   -6.9440   -0.8230   -1.1960 O   0  0  0  0  0  0  0  0  0  0  0  0
   -5.8110   -0.0580   -1.4040 C   0  0  0  0  0  0  0  0  0  0  0  0
   -4.9660   -0.4740   -2.2370 O   0  0  0  0  0  0  0  0  0  0  0  0
   -5.5330    1.2190   -0.7070 C   0  0  1  0  0  0  0  0  0  0  0  0
   -6.5350    1.5810    0.1910 O   0  0  0  0  0  0  0  0  0  0  0  0
   -6.0330    1.7550    1.4640 C   0  0  0  0  0  0  0  0  0  0  0  0
   -6.6760    2.0860    2.5180 O   0  0  0  0  0  0  0  0  0  0  0  0
   -4.6060    1.4880    1.3910 C   0  0  0  0  0  0  0  0  0  0  0  0
   -3.6160    1.5110    2.3500 C   0  0  0  0  0  0  0  0  0  0  0  0
   -2.3030    1.2010    1.9680 C   0  0  0  0  0  0  0  0  0  0  0  0
   -1.3370    1.2370    2.9710 O   0  0  0  0  0  0  0  0  0  0  0  0
   -1.9420    0.8730    0.6880 C   0  0  0  0  0  0  0  0  0  0  0  0
   -0.5990    0.5450    0.2480 C   0  0  0  0  0  0  0  0  0  0  0  0
   -0.4710    0.2650   -0.9960 O   0  0  0  0  0  0  0  0  0  0  0  0
    0.5660    0.4960    1.0070 N   0  0  0  0  0  0  0  0  0  0  0  0
    1.8920    0.1750    0.5580 C   0  0  0  0  0  0  0  0  0  0  0  0
    2.8700   -0.1010    1.5270 C   0  0  0  0  0  0  0  0  0  0  0  0
    4.1580   -0.4000    1.1780 C   0  0  0  0  0  0  0  0  0  0  0  0
    4.5780   -0.4480   -0.1350 C   0  0  0  0  0  0  0  0  0  0  0  0
    5.9470   -0.7660   -0.4980 C   0  0  0  0  0  0  0  0  0  0  0  0
    6.9360   -1.0400    0.3250 C   0  0  0  0  0  0  0  0  0  0  0  0
    8.1670   -1.3060   -0.4690 C   0  0  0  0  0  0  0  0  0  0  0  0
    7.7240   -1.1410   -1.8730 C   0  0  0  0  0  0  0  0  0  0  0  0
    6.4380   -0.8290   -1.8640 C   0  0  0  0  0  0  0  0  0  0  0  0
    3.6150   -0.1760   -1.0760 C   0  0  0  0  0  0  0  0  0  0  0  0
    2.2890    0.1330   -0.7480 C   0  0  0  0  0  0  0  0  0  0  0  0
   -2.9890    0.8660   -0.2400 C   0  0  0  0  0  0  0  0  0  0  0  0
   -4.2980    1.1660    0.0960 C   0  0  0  0  0  0  0  0  0  0  0  0
  1  2  1  0
  2  3  1  0
  3  4  2  0
  5  3  1  1
  5  6  1  0
  5 29  1  0
  6  7  1  0
  7  8  2  0
  7  9  1  0
  9 10  2  0
  9 29  1  0
 10 11  1  0
 11 12  1  0
 11 13  2  0
 13 14  1  0
 13 28  1  0
 14 15  2  0
 14 16  1  0
 16 17  1  0
 17 18  2  0
 17 27  1  0
 18 19  1  0
 19 20  2  0
 20 21  1  0
 20 26  1  0
 21 22  2  0
 21 25  1  0
 22 23  1  0
 23 24  1  0
 24 25  2  0
 26 27  2  0
 28 29  2  0
M  END
