
     RDKit          3D

 29 32  0  0  0  0  0  0  0  0999 V2000
    4.7460    3.3100    0.1210 C   0  0  0  0  0  0  0  0  0  0  0  0
    5.3820    2.0570   -0.0050 O   0  0  0  0  0  0  0  0  0  0  0  0
    4.6740    0.8860    0.0960 C   0  0  0  0  0  0  0  0  0  0  0  0
    3.3080    0.9380    0.3270 C   0  0  0  0  0  0  0  0  0  0  0  0
    2.6470   -0.2600    0.4200 C   0  0  0  0  0  0  0  0  0  0  0  0
    1.1740   -0.2300    0.6680 C   0  0  2  0  0  0  0  0  0  0  0  0
    0.8040   -1.1380    1.6270 O   0  0  0  0  0  0  0  0  0  0  0  0
    0.4070   -0.3750   -0.6110 C   0  0  0  0  0  0  0  0  0  0  0  0
   -1.0030   -0.1780   -0.4600 N   0  0  0  0  0  0  0  0  0  0  0  0
   -1.8880   -0.9460    0.2770 C   0  0  0  0  0  0  0  0  0  0  0  0
   -1.3770   -1.9620    0.8840 O   0  0  0  0  0  0  0  0  0  0  0  0
   -3.3250   -0.7330    0.4420 C   0  0  0  0  0  0  0  0  0  0  0  0
   -4.0460   -1.6280    1.2310 C   0  0  0  0  0  0  0  0  0  0  0  0
   -5.4010   -1.5030    1.4390 C   0  0  0  0  0  0  0  0  0  0  0  0
   -6.1180   -0.4770    0.8710 C   0  0  0  0  0  0  0  0  0  0  0  0
   -7.5830   -0.3130    1.0760 C   0  0  0  0  0  0  0  0  0  0  0  0
   -5.4360    0.4230    0.0860 C   0  0  0  0  0  0  0  0  0  0  0  0
   -4.0550    0.2790   -0.1140 C   0  0  0  0  0  0  0  0  0  0  0  0
   -3.4530    1.2060   -0.9000 O   0  0  0  0  0  0  0  0  0  0  0  0
   -4.0280    2.3010   -1.5480 C   0  0  0  0  0  0  0  0  0  0  0  0
   -5.4870    2.3930   -1.2940 C   0  0  0  0  0  0  0  0  0  0  0  0
   -6.1490    1.5440   -0.5500 C   0  0  0  0  0  0  0  0  0  0  0  0
    3.2480   -1.4880    0.2990 C   0  0  0  0  0  0  0  0  0  0  0  0
    4.6220   -1.5230    0.0670 C   0  0  0  0  0  0  0  0  0  0  0  0
    5.2980   -0.3370   -0.0280 C   0  0  0  0  0  0  0  0  0  0  0  0
    6.6620   -0.3780   -0.2580 O   0  0  0  0  0  0  0  0  0  0  0  0
    7.3920   -1.5310   -0.5560 C   0  0  0  0  0  0  0  0  0  0  0  0
    6.7360   -2.7700   -0.0220 C   0  0  0  0  0  0  0  0  0  0  0  0
    5.3210   -2.7000   -0.0680 O   0  0  0  0  0  0  0  0  0  0  0  0
  1  2  1  0
  2  3  1  0
  3  4  2  0
  3 25  1  0
  4  5  1  0
  5  6  1  0
  5 23  2  0
  6  7  1  1
  6  8  1  0
  8  9  1  0
  9 10  1  0
 10 11  2  0
 10 12  1  0
 12 13  2  0
 12 18  1  0
 13 14  1  0
 14 15  2  0
 15 16  1  0
 15 17  1  0
 17 18  2  0
 17 22  1  0
 18 19  1  0
 19 20  1  0
 20 21  1  0
 21 22  2  0
 23 24  1  0
 24 25  2  0
 24 29  1  0
 25 26  1  0
 26 27  1  0
 27 28  1  0
 28 29  1  0
M  END
