
     RDKit          3D

 29 32  0  0  0  0  0  0  0  0999 V2000
    3.5880    1.0460   -1.7530 O   0  0  0  0  0  0  0  0  0  0  0  0
    3.5510    0.4030   -0.5140 C   0  0  2  0  0  0  0  0  0  0  0  0
    4.9160    0.1550   -0.0850 C   0  0  0  0  0  0  0  0  0  0  0  0
    5.2980    0.2580    1.2190 C   0  0  0  0  0  0  0  0  0  0  0  0
    6.6040    0.0120    1.5860 C   0  0  0  0  0  0  0  0  0  0  0  0
    7.5240   -0.3390    0.6300 C   0  0  0  0  0  0  0  0  0  0  0  0
    9.1950   -0.6690    1.0780 Cl  0  0  0  0  0  0  0  0  0  0  0  0
    7.1840   -0.4560   -0.6990 C   0  0  0  0  0  0  0  0  0  0  0  0
    5.8650   -0.2020   -1.0290 C   0  0  0  0  0  0  0  0  0  0  0  0
    2.7270   -0.8560   -0.7160 C   0  0  0  0  0  0  0  0  0  0  0  0
    1.4680   -0.4200   -1.4230 C   0  0  0  0  0  0  0  0  0  0  0  0
    0.6730    0.3870   -0.5050 N   0  0  1  0  0  0  0  0  0  0  0  0
    0.1520   -0.4640    0.5090 C   0  0  0  0  0  0  0  0  0  0  0  0
   -1.2590   -0.1560    0.8740 C   0  0  0  0  0  0  0  0  0  0  0  0
   -2.2550   -0.2350   -0.2450 C   0  0  0  0  0  0  0  0  0  0  0  0
   -3.6260    0.0370    0.3130 C   0  0  1  0  0  0  0  0  0  0  0  0
   -4.6820   -0.0030   -0.7260 C   0  0  0  0  0  0  0  0  0  0  0  0
   -4.4070   -0.4410   -2.0080 C   0  0  0  0  0  0  0  0  0  0  0  0
   -5.3820   -0.4940   -2.9950 C   0  0  0  0  0  0  0  0  0  0  0  0
   -6.6560   -0.0950   -2.6680 C   0  0  0  0  0  0  0  0  0  0  0  0
   -7.5950   -0.1540   -3.6490 F   0  0  0  0  0  0  0  0  0  0  0  0
   -6.9480    0.3440   -1.3960 C   0  0  0  0  0  0  0  0  0  0  0  0
   -5.9690    0.3890   -0.4320 C   0  0  0  0  0  0  0  0  0  0  0  0
   -3.9510   -1.2710    1.5700 S   0  0  0  0  0  0  0  0  0  0  0  0
   -4.0580   -0.4330    3.1460 C   0  0  0  0  0  0  0  0  0  0  0  0
   -3.4660    0.9370    3.0180 C   0  0  0  0  0  0  0  0  0  0  0  0
   -3.6770    1.5120    1.3370 S   0  0  0  0  0  0  0  0  0  0  0  0
    1.3770    1.5510   -0.0440 C   0  0  0  0  0  0  0  0  0  0  0  0
    2.7700    1.2770    0.4420 C   0  0  0  0  0  0  0  0  0  0  0  0
  2  1  1  6
  2  3  1  0
  2 10  1  0
  2 29  1  0
  3  4  2  0
  3  9  1  0
  4  5  1  0
  5  6  2  0
  6  7  1  0
  6  8  1  0
  8  9  2  0
 10 11  1  0
 11 12  1  0
 12 13  1  1
 12 28  1  0
 13 14  1  0
 14 15  1  0
 16 15  1  6
 16 17  1  0
 16 24  1  0
 16 27  1  0
 17 18  2  0
 17 23  1  0
 18 19  1  0
 19 20  2  0
 20 21  1  0
 20 22  1  0
 22 23  2  0
 24 25  1  0
 25 26  1  0
 26 27  1  0
 28 29  1  0
M  CHG  1  12   1
M  END
