
     RDKit          3D

 29 32  0  0  0  0  0  0  0  0999 V2000
    5.8480    2.5670   -0.5020 C   0  0  0  0  0  0  0  0  0  0  0  0
    4.4630    1.9850   -0.6400 C   0  0  0  0  0  0  0  0  0  0  0  0
    3.9430    1.6980   -1.8760 C   0  0  0  0  0  0  0  0  0  0  0  0
    2.6520    1.1580   -1.9610 C   0  0  0  0  0  0  0  0  0  0  0  0
    1.9050    0.9130   -0.8340 C   0  0  0  0  0  0  0  0  0  0  0  0
    0.5710    0.3500   -0.9700 C   0  0  2  0  0  0  0  0  0  0  0  0
   -0.2940    1.0600   -0.1460 O   0  0  0  0  0  0  0  0  0  0  0  0
    0.4800   -1.0890   -0.6580 C   0  0  0  0  0  0  0  0  0  0  0  0
    1.3500   -2.0300   -1.1690 C   0  0  0  0  0  0  0  0  0  0  0  0
    1.2640   -3.3860   -0.8650 C   0  0  0  0  0  0  0  0  0  0  0  0
    0.2740   -3.8330   -0.0170 C   0  0  0  0  0  0  0  0  0  0  0  0
   -0.6050   -2.9060    0.5030 C   0  0  0  0  0  0  0  0  0  0  0  0
   -0.5050   -1.5440    0.1860 C   0  0  0  0  0  0  0  0  0  0  0  0
   -1.4110   -0.6450    0.7310 O   0  0  0  0  0  0  0  0  0  0  0  0
   -2.6280   -0.3540    0.1320 C   0  0  0  0  0  0  0  0  0  0  0  0
   -2.9540   -0.9060   -0.9420 O   0  0  0  0  0  0  0  0  0  0  0  0
   -3.5170    0.6030    0.7760 C   0  0  0  0  0  0  0  0  0  0  0  0
   -3.1810    1.2210    1.9600 C   0  0  0  0  0  0  0  0  0  0  0  0
   -3.9620    2.1010    2.5820 N   0  0  0  0  0  0  0  0  0  0  0  0
   -5.1590    2.4350    2.0600 C   0  0  0  0  0  0  0  0  0  0  0  0
   -5.5600    1.8510    0.8710 C   0  0  0  0  0  0  0  0  0  0  0  0
   -6.8540    2.2040    0.2950 C   0  0  0  0  0  0  0  0  0  0  0  0
   -7.2240    1.6780   -0.7870 O   0  0  0  0  0  0  0  0  0  0  0  0
   -4.7480    0.9400    0.2280 C   0  0  0  0  0  0  0  0  0  0  0  0
    0.4210   -5.2160    0.1110 O   0  0  0  0  0  0  0  0  0  0  0  0
    1.6620   -5.6160   -0.4290 C   0  0  0  0  0  0  0  0  0  0  0  0
    1.9960   -4.5040   -1.2360 O   0  0  0  0  0  0  0  0  0  0  0  0
    2.4220    1.1980    0.4020 C   0  0  0  0  0  0  0  0  0  0  0  0
    3.6930    1.7290    0.4730 C   0  0  0  0  0  0  0  0  0  0  0  0
  1  2  1  0
  2  3  2  0
  2 29  1  0
  3  4  1  0
  4  5  2  0
  5  6  1  0
  5 28  1  0
  6  7  1  1
  6  8  1  0
  8  9  2  0
  8 13  1  0
  9 10  1  0
 10 11  2  0
 10 27  1  0
 11 12  1  0
 11 25  1  0
 12 13  2  0
 13 14  1  0
 14 15  1  0
 15 16  2  0
 15 17  1  0
 17 18  2  0
 17 24  1  0
 18 19  1  0
 19 20  2  0
 20 21  1  0
 21 22  1  0
 21 24  2  0
 22 23  2  0
 25 26  1  0
 26 27  1  0
 28 29  2  0
M  END
