
     RDKit          3D

 31 34  0  0  0  0  0  0  0  0999 V2000
    0.7950   -1.4420   -0.1410 O   0  0  0  0  0  0  0  0  0  0  0  0
    1.0760   -0.2940    0.2550 C   0  0  0  0  0  0  0  0  0  0  0  0
   -0.0640    0.6340    0.6110 C   0  0  0  0  0  0  0  0  0  0  0  0
   -1.3540   -0.0920    0.3890 C   0  0  0  0  0  0  0  0  0  0  0  0
   -2.5330    0.7210    0.7050 C   0  0  0  0  0  0  0  0  0  0  0  0
   -2.4330    1.9240    1.0810 O   0  0  0  0  0  0  0  0  0  0  0  0
   -3.8270    0.1550    0.5900 N   0  0  0  0  0  0  0  0  0  0  0  0
   -3.8840   -1.2200    0.1630 C   0  0  0  0  0  0  0  0  0  0  0  0
   -4.9620   -1.5120   -0.8260 C   0  0  0  0  0  0  0  0  0  0  0  0
   -6.3550   -1.3550   -0.2120 C   0  0  0  0  0  0  0  0  0  0  0  0
   -6.7950    0.0540   -0.5390 C   0  0  1  0  0  0  0  0  0  0  0  0
   -8.2760    0.2440   -0.3570 C   0  0  0  0  0  0  0  0  0  0  0  0
   -8.3950    1.5120    0.4090 C   0  0  0  0  0  0  0  0  0  0  0  0
   -7.2130    1.9050    0.8480 C   0  0  0  0  0  0  0  0  0  0  0  0
   -6.1550    0.9640    0.4420 C   0  0  0  0  0  0  0  0  0  0  0  0
   -4.9130    0.9970    0.9050 C   0  0  0  0  0  0  0  0  0  0  0  0
   -4.6330    2.0090    1.8400 O   0  0  0  0  0  0  0  0  0  0  0  0
    2.3920    0.1540    0.3790 N   0  0  0  0  0  0  0  0  0  0  0  0
    3.5490   -0.6090    0.0860 C   0  0  0  0  0  0  0  0  0  0  0  0
    3.5670   -1.9620   -0.1370 C   0  0  0  0  0  0  0  0  0  0  0  0
    4.7620   -2.6180   -0.4350 C   0  0  0  0  0  0  0  0  0  0  0  0
    5.9560   -1.9410   -0.5170 C   0  0  0  0  0  0  0  0  0  0  0  0
    5.9780   -0.5580   -0.2940 C   0  0  0  0  0  0  0  0  0  0  0  0
    7.2370    0.1410   -0.3800 C   0  0  0  0  0  0  0  0  0  0  0  0
    8.3460   -0.3730    0.2470 C   0  0  0  0  0  0  0  0  0  0  0  0
    9.5790    0.2900    0.1810 C   0  0  0  0  0  0  0  0  0  0  0  0
    9.6740    1.4690   -0.5220 C   0  0  0  0  0  0  0  0  0  0  0  0
    8.5830    1.9900   -1.1490 C   0  0  0  0  0  0  0  0  0  0  0  0
    7.3560    1.3140   -1.0730 C   0  0  0  0  0  0  0  0  0  0  0  0
    5.9880    1.9950   -1.8810 Cl  0  0  0  0  0  0  0  0  0  0  0  0
    4.7840    0.0350   -0.0060 C   0  0  0  0  0  0  0  0  0  0  0  0
  1  2  2  0
  2  3  1  0
  2 18  1  0
  3  4  1  0
  4  5  1  0
  5  6  2  0
  5  7  1  0
  7  8  1  0
  7 16  1  0
  8  9  1  0
  9 10  1  0
 11 10  1  1
 11 12  1  0
 11 15  1  0
 12 13  1  0
 13 14  2  0
 14 15  1  0
 15 16  2  0
 16 17  1  0
 18 19  1  0
 19 20  2  0
 19 31  1  0
 20 21  1  0
 21 22  2  0
 22 23  1  0
 23 24  1  0
 23 31  2  0
 24 25  2  0
 24 29  1  0
 25 26  1  0
 26 27  2  0
 27 28  1  0
 28 29  2  0
 29 30  1  0
M  END
