
     RDKit          3D

 20 20  0  0  0  0  0  0  0  0999 V2000
    5.5010    0.8820    0.1520 O   0  0  0  0  0  0  0  0  0  0  0  0
    5.4320   -0.1000   -0.6110 C   0  0  0  0  0  0  0  0  0  0  0  0
    6.5250   -0.3270   -1.4500 O   0  0  0  0  0  0  0  0  0  0  0  0
    4.2510   -0.9680   -0.6170 C   0  0  0  0  0  0  0  0  0  0  0  0
    3.1390   -0.5350    0.3020 C   0  0  0  0  0  0  0  0  0  0  0  0
    2.5640    0.8050   -0.0250 C   0  0  0  0  0  0  0  0  0  0  0  0
    1.4540    1.2360    0.9260 C   0  0  0  0  0  0  0  0  0  0  0  0
    0.1420    0.2410    0.9870 P   0  0  0  0  0  0  0  0  0  0  0  0
   -0.0690    0.4260   -0.6580 O   0  0  0  0  0  0  0  0  0  0  0  0
   -0.6960    1.2290    1.9960 O   0  0  0  0  0  0  0  0  0  0  0  0
   -1.0760   -0.7260    1.0000 O   0  0  0  0  0  0  0  0  0  0  0  0
   -2.3660   -0.5860    0.6250 C   0  0  0  0  0  0  0  0  0  0  0  0
   -2.6910   -0.8630   -0.6990 C   0  0  0  0  0  0  0  0  0  0  0  0
   -3.9770   -0.7510   -1.1760 C   0  0  0  0  0  0  0  0  0  0  0  0
   -5.0110   -0.3500   -0.3340 C   0  0  0  0  0  0  0  0  0  0  0  0
   -6.3330   -0.2340   -0.8210 N   0  0  0  0  0  0  0  0  0  0  0  0
   -7.2400    0.1220   -0.0620 O   0  0  0  0  0  0  0  0  0  0  0  0
   -6.6150   -0.5130   -2.1240 O   0  0  0  0  0  0  0  0  0  0  0  0
   -4.6910   -0.0760    0.9770 C   0  0  0  0  0  0  0  0  0  0  0  0
   -3.4020   -0.1920    1.4420 C   0  0  0  0  0  0  0  0  0  0  0  0
  1  2  2  0
  2  3  1  0
  2  4  1  0
  4  5  1  0
  5  6  1  0
  6  7  1  0
  7  8  1  0
  8  9  1  0
  8 10  1  0
  8 11  1  0
 11 12  1  0
 12 13  2  0
 12 20  1  0
 13 14  1  0
 14 15  2  0
 15 16  1  0
 15 19  1  0
 16 17  2  0
 16 18  1  0
 19 20  2  0
M  CHG  2  16   1  18  -1
M  END
