
     RDKit          3D

 21 22  0  0  0  0  0  0  0  0999 V2000
   -1.8750    0.4200    1.8180 C   0  0  0  0  0  0  0  0  0  0  0  0
   -1.7620    1.0730    0.4400 C   0  0  2  0  0  0  0  0  0  0  0  0
   -2.6220    2.1280    0.4200 O   0  0  0  0  0  0  0  0  0  0  0  0
   -3.6360    2.1090   -0.4940 C   0  0  0  0  0  0  0  0  0  0  0  0
   -4.2880    0.7830   -0.6500 C   0  0  0  0  0  0  0  0  0  0  0  0
   -5.5000    0.5570   -0.5960 O   0  0  0  0  0  0  0  0  0  0  0  0
   -3.3530   -0.2890   -0.8840 N   0  0  0  0  0  0  0  0  0  0  0  0
   -1.9970    0.0230   -0.5570 C   0  0  0  0  0  0  0  0  0  0  0  0
   -1.0650   -0.6350   -1.1570 N   0  0  0  0  0  0  0  0  0  0  0  0
    0.3040   -0.4540   -0.9540 C   0  0  0  0  0  0  0  0  0  0  0  0
    0.9110    0.4280   -1.6090 O   0  0  0  0  0  0  0  0  0  0  0  0
    1.0850   -1.2500   -0.0020 C   0  0  0  0  0  0  0  0  0  0  0  0
    0.5890   -2.2110    0.7560 C   0  0  0  0  0  0  0  0  0  0  0  0
    1.6560   -2.7010    1.5010 O   0  0  0  0  0  0  0  0  0  0  0  0
    2.6280   -1.7750    1.5420 O   0  0  0  0  0  0  0  0  0  0  0  0
    2.5250   -1.1650    0.3050 C   0  0  2  0  0  0  0  0  0  0  0  0
    2.9900    0.1490    0.3120 O   0  0  0  0  0  0  0  0  0  0  0  0
    3.9460    0.2450   -0.6170 O   0  0  0  0  0  0  0  0  0  0  0  0
    5.2790    0.1930   -0.2610 C   0  0  0  0  0  0  0  0  0  0  0  0
    5.6030    0.0520    0.9550 O   0  0  0  0  0  0  0  0  0  0  0  0
    6.3170    0.2860   -1.1670 O   0  0  0  0  0  0  0  0  0  0  0  0
  2  1  1  1
  2  3  1  0
  2  8  1  0
  3  4  1  0
  4  5  1  0
  5  6  2  0
  5  7  1  0
  7  8  1  0
  8  9  2  3
  9 10  1  0
 10 11  2  0
 10 12  1  0
 12 13  2  0
 12 16  1  0
 13 14  1  0
 14 15  1  0
 15 16  1  0
 16 17  1  1
 17 18  1  0
 18 19  1  0
 19 20  2  0
 19 21  1  0
M  END
