
     RDKit          3D

 19 19  0  0  0  0  0  0  0  0999 V2000
    6.6250   -0.5040    0.3680 C   0  0  0  0  0  0  0  0  0  0  0  0
    5.6470    0.5230    0.9600 C   0  0  2  0  0  0  0  0  0  0  0  0
    4.6220   -0.1900    1.5180 O   0  0  0  0  0  0  0  0  0  0  0  0
    3.6920    0.6420    1.9110 O   0  0  0  0  0  0  0  0  0  0  0  0
    3.5250    1.5490    0.4080 P   0  0  0  0  0  0  0  0  0  0  0  0
    2.4090    0.5100   -0.6830 C   0  0  0  0  0  0  0  0  0  0  0  0
    1.0330    0.3790   -0.0660 C   0  0  0  0  0  0  0  0  0  0  0  0
    0.1920   -0.4650   -0.9970 C   0  0  0  0  0  0  0  0  0  0  0  0
   -1.1870   -0.6480   -0.4770 C   0  0  0  0  0  0  0  0  0  0  0  0
   -1.3740   -1.5260    0.3950 O   0  0  0  0  0  0  0  0  0  0  0  0
   -2.2670    0.0790   -0.8850 O   0  0  0  0  0  0  0  0  0  0  0  0
   -3.5850   -0.0000   -0.4770 C   0  0  2  0  0  0  0  0  0  0  0  0
   -4.1380   -1.3610   -0.7530 C   0  0  0  0  0  0  0  0  0  0  0  0
   -4.3600    1.0010   -1.3560 C   0  0  0  0  0  0  0  0  0  0  0  0
   -3.8670    0.3860    0.9380 C   0  0  0  0  0  0  0  0  0  0  0  0
   -3.2030   -0.3830    1.8790 O   0  0  0  0  0  0  0  0  0  0  0  0
   -3.5450    0.0770    3.4920 P   0  0  0  0  0  0  0  0  0  0  0  0
   -4.7030   -0.6490    4.2650 O   0  0  0  0  0  0  0  0  0  0  0  0
    5.1510    1.2100   -0.1570 O   0  0  0  0  0  0  0  0  0  0  0  0
  2  1  1  6
  2  3  1  0
  2 19  1  0
  3  4  1  0
  4  5  1  0
  5  6  1  0
  5 19  1  0
  6  7  1  0
  7  8  1  0
  8  9  1  0
  9 10  2  0
  9 11  1  0
 11 12  1  0
 12 13  1  1
 12 14  1  0
 12 15  1  0
 15 16  1  0
 16 17  1  0
 17 18  2  0
M  END
