
     RDKit          3D

 19 18  0  0  0  0  0  0  0  0999 V2000
    5.7760   -0.9250    0.1380 C   0  0  0  0  0  0  0  0  0  0  0  0
    5.0430   -1.2690   -0.9660 O   0  0  0  0  0  0  0  0  0  0  0  0
    3.9810   -0.0560   -1.5270 P   0  0  0  0  0  0  0  0  0  0  0  0
    2.3700   -0.2120   -0.9610 O   0  0  0  0  0  0  0  0  0  0  0  0
    2.2860   -0.3490    0.4130 C   0  0  0  0  0  0  0  0  0  0  0  0
    0.7640   -0.4740    0.7120 C   0  0  2  0  0  0  0  0  0  0  0  0
    0.3200   -1.6760   -0.0280 C   0  0  0  0  0  0  0  0  0  0  0  0
    0.1220    0.7970    0.3110 C   0  0  0  0  0  0  0  0  0  0  0  0
   -1.2100    0.9580    0.4930 O   0  0  0  0  0  0  0  0  0  0  0  0
   -2.2700    0.3950   -0.0840 C   0  0  0  0  0  0  0  0  0  0  0  0
   -2.1300   -0.4490   -0.9950 O   0  0  0  0  0  0  0  0  0  0  0  0
   -3.6780    0.7730    0.3570 C   0  0  0  0  0  0  0  0  0  0  0  0
   -4.6290   -0.0360   -0.4870 C   0  0  1  0  0  0  0  0  0  0  0  0
   -4.3630   -1.4930   -0.2560 C   0  0  0  0  0  0  0  0  0  0  0  0
   -6.0380    0.3680   -0.1260 C   0  0  0  0  0  0  0  0  0  0  0  0
   -4.3690    0.3250   -1.8280 O   0  0  0  0  0  0  0  0  0  0  0  0
    4.6960    1.9700   -1.1700 P   0  0  0  0  0  0  0  0  0  0  0  0
    4.3030    2.5120    0.4110 O   0  0  0  0  0  0  0  0  0  0  0  0
    6.3410    2.1980   -1.5860 O   0  0  0  0  0  0  0  0  0  0  0  0
  1  2  1  0
  2  3  1  0
  3  4  1  0
  3 17  1  0
  4  5  1  0
  5  6  1  0
  6  7  1  6
  6  8  1  0
  8  9  1  0
  9 10  1  0
 10 11  2  0
 10 12  1  0
 12 13  1  0
 13 14  1  6
 13 15  1  0
 13 16  1  0
 17 18  1  0
 17 19  1  0
M  END
