
     RDKit          3D

 18 17  0  0  0  0  0  0  0  0999 V2000
   -5.4050    0.5670   -1.4250 C   0  0  0  0  0  0  0  0  0  0  0  0
   -4.4060    0.7450   -0.2730 C   0  0  0  0  0  0  0  0  0  0  0  0
   -4.0550   -0.6850    0.1560 C   0  0  0  0  0  0  0  0  0  0  0  0
   -3.0790   -0.6410    1.2820 C   0  0  0  0  0  0  0  0  0  0  0  0
   -1.7990    0.0550    0.9210 C   0  0  0  0  0  0  0  0  0  0  0  0
   -1.1310   -0.5440   -0.1250 O   0  0  0  0  0  0  0  0  0  0  0  0
    0.3200    0.4100   -0.3870 P   0  0  0  0  0  0  0  0  0  0  0  0
    1.3730   -0.4070   -1.4980 O   0  0  0  0  0  0  0  0  0  0  0  0
    2.6840   -0.0860   -1.1400 C   0  0  0  0  0  0  0  0  0  0  0  0
    3.5910   -0.8040   -2.1150 C   0  0  0  0  0  0  0  0  0  0  0  0
    4.9430   -0.5700   -1.8740 O   0  0  0  0  0  0  0  0  0  0  0  0
    5.5680    0.6530   -1.8900 C   0  0  0  0  0  0  0  0  0  0  0  0
    4.8860    1.6650   -2.1420 O   0  0  0  0  0  0  0  0  0  0  0  0
    6.9440    0.7560   -1.6300 O   0  0  0  0  0  0  0  0  0  0  0  0
    1.1860    0.6230    1.1270 O   0  0  0  0  0  0  0  0  0  0  0  0
    1.4850   -0.4280    1.9790 C   0  0  0  0  0  0  0  0  0  0  0  0
    2.2210   -0.1160    3.2270 C   0  0  0  0  0  0  0  0  0  0  0  0
    1.1270   -1.5930    1.6680 O   0  0  0  0  0  0  0  0  0  0  0  0
  1  2  1  0
  2  3  1  0
  3  4  1  0
  4  5  1  0
  5  6  1  0
  6  7  1  0
  7  8  1  0
  7 15  1  0
  8  9  1  0
  9 10  1  0
 10 11  1  0
 11 12  1  0
 12 13  2  0
 12 14  1  0
 15 16  1  0
 16 17  1  0
 16 18  2  0
M  END
