
     RDKit          3D

 18 17  0  0  0  0  0  0  0  0999 V2000
   -3.5930   -0.5090   -1.2060 C   0  0  0  0  0  0  0  0  0  0  0  0
   -2.9000   -0.4610    0.1460 C   0  0  2  0  0  0  0  0  0  0  0  0
   -3.6810    0.3780    1.1150 C   0  0  0  0  0  0  0  0  0  0  0  0
   -5.3650   -0.3280    1.3520 P   0  0  0  0  0  0  0  0  0  0  0  0
   -6.5600    0.8480    0.9150 O   0  0  0  0  0  0  0  0  0  0  0  0
   -5.5840   -1.7860    0.4190 O   0  0  0  0  0  0  0  0  0  0  0  0
   -1.5720    0.1360   -0.0580 C   0  0  0  0  0  0  0  0  0  0  0  0
   -1.2300    1.1730    0.5680 O   0  0  0  0  0  0  0  0  0  0  0  0
   -0.6070   -0.3760   -0.9350 O   0  0  0  0  0  0  0  0  0  0  0  0
    0.6600    0.2640   -1.0740 C   0  0  0  0  0  0  0  0  0  0  0  0
    1.3990    0.2850    0.2060 C   0  0  0  0  0  0  0  0  0  0  0  0
    0.8670   -0.2930    1.1680 O   0  0  0  0  0  0  0  0  0  0  0  0
    2.6900    0.9300    0.4160 C   0  0  0  0  0  0  0  0  0  0  0  0
    3.8910    0.1430   -0.0140 C   0  0  2  0  0  0  0  0  0  0  0  0
    4.0410   -1.1870    0.6730 C   0  0  0  0  0  0  0  0  0  0  0  0
    5.1070    0.9730    0.4200 C   0  0  0  0  0  0  0  0  0  0  0  0
    3.8760   -0.1070   -1.8360 P   0  0  0  0  0  0  0  0  0  0  0  0
    4.3930   -1.4380   -2.4220 O   0  0  0  0  0  0  0  0  0  0  0  0
  2  1  1  6
  2  3  1  0
  2  7  1  0
  3  4  1  0
  4  5  1  0
  4  6  1  0
  7  8  2  0
  7  9  1  0
  9 10  1  0
 10 11  1  0
 11 12  2  0
 11 13  1  0
 13 14  1  0
 14 15  1  1
 14 16  1  0
 14 17  1  0
 17 18  2  0
M  END
