
     RDKit          3D

 21 22  0  0  0  0  0  0  0  0999 V2000
   -0.7530   -0.9120    1.8580 O   0  0  0  0  0  0  0  0  0  0  0  0
   -0.1540   -0.0480    1.1480 C   0  0  0  0  0  0  0  0  0  0  0  0
   -0.8260    1.1330    0.8810 O   0  0  0  0  0  0  0  0  0  0  0  0
   -2.0760    1.3130    1.3840 O   0  0  0  0  0  0  0  0  0  0  0  0
   -3.1290    0.6850    0.7350 C   0  0  0  0  0  0  0  0  0  0  0  0
   -3.5890   -0.5050    1.1480 N   0  0  0  0  0  0  0  0  0  0  0  0
   -4.6230   -1.0700    0.4720 C   0  0  0  0  0  0  0  0  0  0  0  0
   -5.2160   -0.4690   -0.6200 C   0  0  0  0  0  0  0  0  0  0  0  0
   -6.2730   -1.0650   -1.2980 O   0  0  0  0  0  0  0  0  0  0  0  0
   -4.7120    0.7540   -1.0120 C   0  0  0  0  0  0  0  0  0  0  0  0
   -3.6730    1.3110   -0.3240 N   0  0  0  0  0  0  0  0  0  0  0  0
    1.1880   -0.2960    0.6360 C   0  0  0  0  0  0  0  0  0  0  0  0
    1.8600   -1.4080    0.8680 C   0  0  0  0  0  0  0  0  0  0  0  0
    3.2160   -1.5140    0.2800 C   0  0  0  0  0  0  0  0  0  0  0  0
    3.9360   -0.2090    0.1960 C   0  0  2  0  0  0  0  0  0  0  0  0
    4.9440   -0.1370    1.1740 O   0  0  0  0  0  0  0  0  0  0  0  0
    6.1190   -0.0310    0.6050 O   0  0  0  0  0  0  0  0  0  0  0  0
    3.1420    0.9020    0.3460 O   0  0  0  0  0  0  0  0  0  0  0  0
    1.8570    0.7380   -0.1910 C   0  0  1  0  0  0  0  0  0  0  0  0
    2.0410    0.2730   -1.5110 O   0  0  0  0  0  0  0  0  0  0  0  0
    1.5570    1.1660   -2.3420 O   0  0  0  0  0  0  0  0  0  0  0  0
  1  2  2  0
  2  3  1  0
  2 12  1  0
  3  4  1  0
  4  5  1  0
  5  6  2  0
  5 11  1  0
  6  7  1  0
  7  8  2  0
  8  9  1  0
  8 10  1  0
 10 11  2  0
 12 13  2  0
 12 19  1  0
 13 14  1  0
 14 15  1  0
 15 16  1  1
 15 18  1  0
 16 17  1  0
 18 19  1  0
 19 20  1  6
 20 21  1  0
M  END
