
     RDKit          3D

 13 13  0  0  0  0  0  0  0  0999 V2000
    4.4110    1.0210   -0.3630 C   0  0  0  0  0  0  0  0  0  0  0  0
    3.0100    0.8170   -0.3050 O   0  0  0  0  0  0  0  0  0  0  0  0
    2.4930   -0.4370   -0.1410 C   0  0  0  0  0  0  0  0  0  0  0  0
    3.2980   -1.4050   -0.0430 O   0  0  0  0  0  0  0  0  0  0  0  0
    1.0510   -0.7670   -0.0660 C   0  0  0  0  0  0  0  0  0  0  0  0
    0.2380    0.3810   -0.1850 O   0  0  0  0  0  0  0  0  0  0  0  0
   -1.1330    0.2060   -0.1310 C   0  0  0  0  0  0  0  0  0  0  0  0
   -1.9750    1.2880   -0.2410 C   0  0  0  0  0  0  0  0  0  0  0  0
   -3.3390    1.1130   -0.1870 C   0  0  0  0  0  0  0  0  0  0  0  0
   -3.8440   -0.1460   -0.0220 N   0  0  0  0  0  0  0  0  0  0  0  0
   -5.2120   -0.3120    0.0310 O   0  0  0  0  0  0  0  0  0  0  0  0
   -3.0680   -1.2270    0.0890 C   0  0  0  0  0  0  0  0  0  0  0  0
   -1.6850   -1.0600    0.0360 C   0  0  0  0  0  0  0  0  0  0  0  0
  1  2  1  0
  2  3  1  0
  3  4  2  0
  3  5  1  0
  5  6  1  0
  6  7  1  0
  7  8  2  0
  7 13  1  0
  8  9  1  0
  9 10  2  0
 10 11  1  0
 10 12  1  0
 12 13  2  0
M  CHG  2  10   1  11  -1
M  END
