
     RDKit          3D

 13 13  0  0  0  0  0  0  0  0999 V2000
   -2.5270   -1.2470   -1.4130 O   0  0  0  0  0  0  0  0  0  0  0  0
   -2.7660   -0.8320   -0.2660 N   0  0  0  0  0  0  0  0  0  0  0  0
   -2.8500   -1.8060    0.7280 O   0  0  0  0  0  0  0  0  0  0  0  0
   -2.9370    0.5490   -0.0160 C   0  0  0  0  0  0  0  0  0  0  0  0
   -1.9190    1.2530    0.8190 C   0  0  0  0  0  0  0  0  0  0  0  0
   -0.6430    1.3180    0.4390 O   0  0  0  0  0  0  0  0  0  0  0  0
    0.4690    0.6450    0.1630 C   0  0  0  0  0  0  0  0  0  0  0  0
    0.5730   -0.7180    0.2590 C   0  0  0  0  0  0  0  0  0  0  0  0
    1.7520   -1.3960   -0.0400 C   0  0  0  0  0  0  0  0  0  0  0  0
    2.8770   -0.7140   -0.4480 C   0  0  0  0  0  0  0  0  0  0  0  0
    4.0490   -1.3890   -0.7450 O   0  0  0  0  0  0  0  0  0  0  0  0
    2.7720    0.6510   -0.5420 C   0  0  0  0  0  0  0  0  0  0  0  0
    1.6320    1.3420   -0.2580 C   0  0  0  0  0  0  0  0  0  0  0  0
  1  2  2  0
  2  3  1  0
  2  4  1  0
  4  5  1  0
  5  6  1  0
  6  7  1  0
  7  8  2  0
  7 13  1  0
  8  9  1  0
  9 10  2  0
 10 11  1  0
 10 12  1  0
 12 13  2  0
M  CHG  2   2   1   3  -1
M  END
