
     RDKit          3D

 13 12  0  0  0  0  0  0  0  0999 V2000
   -2.4330    1.2980    0.5380 C   0  0  0  0  0  0  0  0  0  0  0  0
   -2.3130   -0.0450   -0.1510 C   0  0  2  0  0  0  0  0  0  0  0  0
   -3.4050   -0.1990   -1.1910 C   0  0  0  0  0  0  0  0  0  0  0  0
   -2.5170   -1.1790    0.8510 C   0  0  0  0  0  0  0  0  0  0  0  0
   -1.0290   -0.1940   -0.7530 O   0  0  0  0  0  0  0  0  0  0  0  0
    0.0930   -0.1380    0.0300 C   0  0  0  0  0  0  0  0  0  0  0  0
   -0.0510    0.0440    1.2630 O   0  0  0  0  0  0  0  0  0  0  0  0
    1.4850   -0.2820   -0.4980 C   0  0  0  0  0  0  0  0  0  0  0  0
    2.4750   -0.1740    0.6090 C   0  0  0  0  0  0  0  0  0  0  0  0
    3.8990   -0.3120    0.1870 C   0  0  0  0  0  0  0  0  0  0  0  0
    4.3370    0.6940   -0.7350 N   0  0  0  0  0  0  0  0  0  0  0  0
    3.6010    1.6240   -1.0780 O   0  0  0  0  0  0  0  0  0  0  0  0
    5.6060    0.6260   -1.2360 O   0  0  0  0  0  0  0  0  0  0  0  0
  2  1  1  1
  2  3  1  0
  2  4  1  0
  2  5  1  0
  5  6  1  0
  6  7  2  0
  6  8  1  0
  8  9  1  0
  9 10  1  0
 10 11  1  0
 11 12  2  0
 11 13  1  0
M  CHG  2  11   1  13  -1
M  END
