
     RDKit          3D

 13 13  0  0  0  0  0  0  0  0999 V2000
    4.1540    0.2480   -0.4550 C   0  0  0  0  0  0  0  0  0  0  0  0
    2.9800    0.5420    0.4240 C   0  0  0  0  0  0  0  0  0  0  0  0
    3.2010    1.1740    1.4760 O   0  0  0  0  0  0  0  0  0  0  0  0
    1.6990    0.1300    0.0850 O   0  0  0  0  0  0  0  0  0  0  0  0
    0.6630    0.4640    0.9920 C   0  0  0  0  0  0  0  0  0  0  0  0
   -0.6580   -0.0410    0.5020 C   0  0  0  0  0  0  0  0  0  0  0  0
   -1.1180   -1.2900    0.8350 C   0  0  0  0  0  0  0  0  0  0  0  0
   -2.3450   -1.7240    0.3630 C   0  0  0  0  0  0  0  0  0  0  0  0
   -3.1160   -0.9560   -0.4220 N   0  0  0  0  0  0  0  0  0  0  0  0
   -4.3460   -1.4140   -0.8840 O   0  0  0  0  0  0  0  0  0  0  0  0
   -2.6620    0.2610   -0.7430 C   0  0  0  0  0  0  0  0  0  0  0  0
   -3.5010    1.0280   -1.5650 O   0  0  0  0  0  0  0  0  0  0  0  0
   -1.4520    0.7420   -0.3030 C   0  0  0  0  0  0  0  0  0  0  0  0
  1  2  1  0
  2  3  2  0
  2  4  1  0
  4  5  1  0
  5  6  1  0
  6  7  2  0
  6 13  1  0
  7  8  1  0
  8  9  2  0
  9 10  1  0
  9 11  1  0
 11 12  1  0
 11 13  2  0
M  CHG  2   9   1  10  -1
M  END
