
     RDKit          3D

 13 13  0  0  0  0  0  0  0  0999 V2000
   -2.1030   -0.2700    2.4900 C   0  0  0  0  0  0  0  0  0  0  0  0
   -2.2250    0.6100    1.4140 O   0  0  0  0  0  0  0  0  0  0  0  0
   -1.2860    0.6830    0.3790 C   0  0  0  0  0  0  0  0  0  0  0  0
   -1.4530    1.5690   -0.6620 C   0  0  0  0  0  0  0  0  0  0  0  0
   -0.5340    1.6490   -1.6860 C   0  0  0  0  0  0  0  0  0  0  0  0
    0.5740    0.8340   -1.6790 C   0  0  0  0  0  0  0  0  0  0  0  0
    1.5200    0.8760   -2.6790 O   0  0  0  0  0  0  0  0  0  0  0  0
    0.7750   -0.0730   -0.6440 C   0  0  0  0  0  0  0  0  0  0  0  0
    1.9590   -0.9550   -0.6120 C   0  0  0  0  0  0  0  0  0  0  0  0
    2.0250   -1.8400    0.5100 N   0  0  0  0  0  0  0  0  0  0  0  0
    2.9520   -1.7770    1.3360 O   0  0  0  0  0  0  0  0  0  0  0  0
    1.0590   -2.7910    0.7050 O   0  0  0  0  0  0  0  0  0  0  0  0
   -0.1660   -0.1210    0.3580 C   0  0  0  0  0  0  0  0  0  0  0  0
  1  2  1  0
  2  3  1  0
  3  4  2  0
  3 13  1  0
  4  5  1  0
  5  6  2  0
  6  7  1  0
  6  8  1  0
  8  9  1  0
  8 13  2  0
  9 10  1  0
 10 11  2  0
 10 12  1  0
M  CHG  2  10   1  12  -1
M  END
