
     RDKit          3D

 13 13  0  0  0  0  0  0  0  0999 V2000
   -2.4380   -2.4100    0.1050 C   0  0  0  0  0  0  0  0  0  0  0  0
   -2.0210   -1.0620    0.2180 O   0  0  0  0  0  0  0  0  0  0  0  0
   -0.7140   -0.6720    0.1160 C   0  0  0  0  0  0  0  0  0  0  0  0
    0.2580   -1.6360   -0.1080 C   0  0  0  0  0  0  0  0  0  0  0  0
    1.5640   -1.2680   -0.2120 C   0  0  0  0  0  0  0  0  0  0  0  0
    1.9260    0.0510   -0.0960 C   0  0  0  0  0  0  0  0  0  0  0  0
    3.2850    0.4220   -0.2060 N   0  0  0  0  0  0  0  0  0  0  0  0
    3.6290    1.6050   -0.1040 O   0  0  0  0  0  0  0  0  0  0  0  0
    4.2330   -0.5300   -0.4270 O   0  0  0  0  0  0  0  0  0  0  0  0
    0.9270    1.0100    0.1310 C   0  0  0  0  0  0  0  0  0  0  0  0
   -0.4050    0.6670    0.2400 C   0  0  0  0  0  0  0  0  0  0  0  0
   -1.3920    1.5850    0.4610 O   0  0  0  0  0  0  0  0  0  0  0  0
   -1.2380    2.9540    0.6070 C   0  0  0  0  0  0  0  0  0  0  0  0
  1  2  1  0
  2  3  1  0
  3  4  2  0
  3 11  1  0
  4  5  1  0
  5  6  2  0
  6  7  1  0
  6 10  1  0
  7  8  2  0
  7  9  1  0
 10 11  2  0
 11 12  1  0
 12 13  1  0
M  CHG  2   7   1   9  -1
M  END
