
     RDKit          3D

 13 13  0  0  0  0  0  0  0  0999 V2000
    2.9830    0.1240    1.5620 O   0  0  0  0  0  0  0  0  0  0  0  0
    2.8640    0.3660    0.3290 C   0  0  0  0  0  0  0  0  0  0  0  0
    3.5380    1.5230   -0.0940 O   0  0  0  0  0  0  0  0  0  0  0  0
    2.0850   -0.5090   -0.5370 C   0  0  0  0  0  0  0  0  0  0  0  0
    0.6270   -0.3490   -0.2900 C   0  0  0  0  0  0  0  0  0  0  0  0
    0.1500    0.2150    0.8580 C   0  0  0  0  0  0  0  0  0  0  0  0
   -1.2320    0.3240    1.0390 C   0  0  0  0  0  0  0  0  0  0  0  0
   -2.1470   -0.1170    0.0980 C   0  0  0  0  0  0  0  0  0  0  0  0
   -3.5340    0.0150    0.3090 N   0  0  0  0  0  0  0  0  0  0  0  0
   -4.3320   -0.3630   -0.5490 O   0  0  0  0  0  0  0  0  0  0  0  0
   -3.9920    0.5680    1.4600 O   0  0  0  0  0  0  0  0  0  0  0  0
   -1.6360   -0.6870   -1.0620 C   0  0  0  0  0  0  0  0  0  0  0  0
   -0.2760   -0.7970   -1.2460 C   0  0  0  0  0  0  0  0  0  0  0  0
  1  2  2  0
  2  3  1  0
  2  4  1  0
  4  5  1  0
  5  6  2  0
  5 13  1  0
  6  7  1  0
  7  8  2  0
  8  9  1  0
  8 12  1  0
  9 10  2  0
  9 11  1  0
 12 13  2  0
M  CHG  2   9   1  11  -1
M  END
