
     RDKit          3D

 27 31  0  0  0  0  0  0  0  0999 V2000
   -3.9010    0.6890    3.7520 C   0  0  0  0  0  0  0  0  0  0  0  0
   -4.5060   -0.0450    2.6070 C   0  0  0  0  0  0  0  0  0  0  0  0
   -5.7020   -0.6250    2.5520 N   0  0  0  0  0  0  0  0  0  0  0  0
   -5.9120   -1.1940    1.3570 C   0  0  0  0  0  0  0  0  0  0  0  0
   -4.7540   -0.9560    0.5910 C   0  0  0  0  0  0  0  0  0  0  0  0
   -3.9440   -0.2610    1.3940 N   0  0  0  0  0  0  0  0  0  0  0  0
   -2.6690    0.1470    0.9300 C   0  0  0  0  0  0  0  0  0  0  0  0
   -2.2720   -0.1510   -0.2850 C   0  0  0  0  0  0  0  0  0  0  0  0
   -0.9450    0.3050   -0.6940 C   0  0  0  0  0  0  0  0  0  0  0  0
   -0.0680    0.5370    0.1940 N   0  0  0  0  0  0  0  0  0  0  0  0
    1.2460    0.9770   -0.0260 C   0  0  0  0  0  0  0  0  0  0  0  0
    1.4600    2.2320   -0.5430 C   0  0  0  0  0  0  0  0  0  0  0  0
    2.7670    2.5990   -0.7340 C   0  0  0  0  0  0  0  0  0  0  0  0
    3.8040    1.7060   -0.4030 C   0  0  0  0  0  0  0  0  0  0  0  0
    3.5760    0.4640    0.1090 C   0  0  0  0  0  0  0  0  0  0  0  0
    4.5810   -0.5140    0.4780 C   0  0  0  0  0  0  0  0  0  0  0  0
    4.2910   -1.7780    1.0190 C   0  0  0  0  0  0  0  0  0  0  0  0
    5.4660   -2.4510    1.2500 C   0  0  0  0  0  0  0  0  0  0  0  0
    6.4310   -1.6140    0.8580 N   0  0  0  0  0  0  0  0  0  0  0  0
    5.8880   -0.4670    0.4020 N   0  0  0  0  0  0  0  0  0  0  0  0
    6.7420    0.5910   -0.0810 C   0  0  0  0  0  0  0  0  0  0  0  0
    2.2480    0.1560    0.2760 N   0  0  0  0  0  0  0  0  0  0  0  0
   -0.6920    0.4740   -2.1690 C   0  0  0  0  0  0  0  0  0  0  0  0
   -1.9270    0.0870   -2.9600 C   0  0  0  0  0  0  0  0  0  0  0  0
   -2.5440   -1.1820   -2.4720 C   0  0  0  0  0  0  0  0  0  0  0  0
   -3.1230   -0.8960   -1.1460 N   0  0  0  0  0  0  0  0  0  0  0  0
   -4.4250   -1.3480   -0.8020 C   0  0  0  0  0  0  0  0  0  0  0  0
  1  2  1  0
  2  3  2  0
  2  6  1  0
  3  4  1  0
  4  5  2  0
  5  6  1  0
  5 27  1  0
  6  7  1  0
  7  8  2  0
  8  9  1  0
  8 26  1  0
  9 10  2  3
  9 23  1  0
 10 11  1  0
 11 12  2  0
 11 22  1  0
 12 13  1  0
 13 14  2  0
 14 15  1  0
 15 16  1  0
 15 22  2  0
 16 17  2  0
 16 20  1  0
 17 18  1  0
 18 19  2  0
 19 20  1  0
 20 21  1  0
 23 24  1  0
 24 25  1  0
 25 26  1  0
 26 27  1  0
M  END
