
     RDKit          3D

 27 30  0  0  0  0  0  0  0  0999 V2000
    6.4270    2.2820    1.6780 C   0  0  0  0  0  0  0  0  0  0  0  0
    6.2230    0.9890    1.6600 C   0  0  0  0  0  0  0  0  0  0  0  0
    4.9550    0.4390    1.2430 C   0  0  0  0  0  0  0  0  0  0  0  0
    4.7630   -0.8490    1.2290 N   0  0  0  0  0  0  0  0  0  0  0  0
    3.5230   -1.4150    0.8230 C   0  0  0  0  0  0  0  0  0  0  0  0
    3.0720   -2.6230    1.3200 C   0  0  0  0  0  0  0  0  0  0  0  0
    1.8690   -3.1580    0.9160 C   0  0  0  0  0  0  0  0  0  0  0  0
    1.0930   -2.5320    0.0310 N   0  0  0  0  0  0  0  0  0  0  0  0
    1.4960   -1.3530   -0.4770 C   0  0  0  0  0  0  0  0  0  0  0  0
    2.6960   -0.7860   -0.0960 C   0  0  0  0  0  0  0  0  0  0  0  0
    0.5360   -0.9440   -1.3360 N   0  0  0  0  0  0  0  0  0  0  0  0
   -0.4420   -1.8160   -1.3830 N   0  0  0  0  0  0  0  0  0  0  0  0
   -1.6560   -2.0810   -1.9680 C   0  0  0  0  0  0  0  0  0  0  0  0
   -2.3450   -1.3280   -2.8900 N   0  0  0  0  0  0  0  0  0  0  0  0
   -2.8780   -0.2490   -2.9380 C   0  0  0  0  0  0  0  0  0  0  0  0
   -3.0680    0.8240   -2.0090 C   0  0  0  0  0  0  0  0  0  0  0  0
   -3.6240    1.9860   -2.4500 C   0  0  0  0  0  0  0  0  0  0  0  0
   -3.9320    3.2370   -1.7590 C   0  0  0  0  0  0  0  0  0  0  0  0
   -3.4160    3.6290   -0.5900 C   0  0  0  0  0  0  0  0  0  0  0  0
   -2.4390    2.9480    0.2970 C   0  0  0  0  0  0  0  0  0  0  0  0
   -2.1440    1.6640    0.3060 C   0  0  0  0  0  0  0  0  0  0  0  0
   -2.7510    0.6580   -0.5900 C   0  0  0  0  0  0  0  0  0  0  0  0
   -3.1290   -0.4970   -0.0710 C   0  0  0  0  0  0  0  0  0  0  0  0
   -2.8520   -0.7880    1.3660 C   0  0  0  0  0  0  0  0  0  0  0  0
   -2.0040   -3.2870   -1.4070 N   0  0  0  0  0  0  0  0  0  0  0  0
   -1.0860   -3.7010   -0.5700 N   0  0  0  0  0  0  0  0  0  0  0  0
   -0.1140   -2.8020   -0.5450 C   0  0  0  0  0  0  0  0  0  0  0  0
  1  2  2  0
  2  3  1  0
  3  4  2  3
  4  5  1  0
  5  6  1  0
  5 10  2  0
  6  7  2  0
  7  8  1  0
  8  9  1  0
  8 27  1  0
  9 10  1  0
  9 11  2  0
 11 12  1  0
 12 13  1  0
 12 27  1  0
 13 14  1  0
 13 25  2  0
 14 15  2  3
 15 16  1  0
 16 17  2  0
 16 22  1  0
 17 18  1  0
 18 19  2  0
 19 20  1  0
 20 21  2  0
 21 22  1  0
 22 23  2  3
 23 24  1  0
 25 26  1  0
 26 27  2  0
M  END
