
     RDKit          3D

 26 30  0  0  0  0  0  0  0  0999 V2000
    6.0050    1.8370   -1.2110 C   0  0  0  0  0  0  0  0  0  0  0  0
    4.7290    1.8150   -0.7390 C   0  0  0  0  0  0  0  0  0  0  0  0
    4.1860    0.7960    0.0270 C   0  0  0  0  0  0  0  0  0  0  0  0
    2.9360    0.8040    0.4680 N   0  0  0  0  0  0  0  0  0  0  0  0
    2.3700   -0.1800    1.2170 C   0  0  0  0  0  0  0  0  0  0  0  0
    0.9670   -0.1240    1.6690 C   0  0  0  0  0  0  0  0  0  0  0  0
    0.0170   -0.0970    0.6600 N   0  0  0  0  0  0  0  0  0  0  0  0
   -0.0350    0.8660   -0.3470 C   0  0  0  0  0  0  0  0  0  0  0  0
   -0.3680    0.3280   -1.7130 C   0  0  0  0  0  0  0  0  0  0  0  0
   -1.6450   -0.4140   -1.6610 C   0  0  0  0  0  0  0  0  0  0  0  0
   -1.9890   -1.0690   -0.3430 C   0  0  2  0  0  0  0  0  0  0  0  0
   -3.4620   -1.0530   -0.1490 C   0  0  0  0  0  0  0  0  0  0  0  0
   -4.3670   -2.0020   -0.4850 N   0  0  0  0  0  0  0  0  0  0  0  0
   -5.5750   -1.7230   -0.0540 N   0  0  0  0  0  0  0  0  0  0  0  0
   -5.5500   -0.5300    0.6130 C   0  0  0  0  0  0  0  0  0  0  0  0
   -6.4660    0.2660    1.1900 N   0  0  0  0  0  0  0  0  0  0  0  0
   -6.1470    1.4610    1.7160 C   0  0  0  0  0  0  0  0  0  0  0  0
   -4.8700    1.8720    1.6580 N   0  0  0  0  0  0  0  0  0  0  0  0
   -3.9210    1.1130    1.0890 C   0  0  0  0  0  0  0  0  0  0  0  0
   -4.2290   -0.1360    0.5420 C   0  0  0  0  0  0  0  0  0  0  0  0
   -1.0890   -0.9530    0.7930 C   0  0  0  0  0  0  0  0  0  0  0  0
    3.2150   -1.2270    1.4980 C   0  0  0  0  0  0  0  0  0  0  0  0
    4.5210   -1.2840    1.0650 C   0  0  0  0  0  0  0  0  0  0  0  0
    5.0520   -0.2740    0.3130 C   0  0  0  0  0  0  0  0  0  0  0  0
    6.3260   -0.2380   -0.1690 C   0  0  0  0  0  0  0  0  0  0  0  0
    6.8430    0.7870   -0.9310 N   0  0  0  0  0  0  0  0  0  0  0  0
  1  2  2  0
  1 26  1  0
  2  3  1  0
  3  4  2  0
  3 24  1  0
  4  5  1  0
  5  6  1  0
  5 22  2  0
  6  7  1  0
  7  8  1  0
  7 21  1  0
  8  9  1  0
  9 10  1  0
 10 11  1  0
 11 12  1  1
 11 21  1  0
 12 13  2  0
 12 20  1  0
 13 14  1  0
 14 15  1  0
 15 16  2  0
 15 20  1  0
 16 17  1  0
 17 18  2  0
 18 19  1  0
 19 20  2  0
 22 23  1  0
 23 24  2  0
 24 25  1  0
 25 26  2  0
M  END
