
     RDKit          3D

 27 30  0  0  0  0  0  0  0  0999 V2000
    6.4690    0.4270   -0.7460 C   0  0  0  0  0  0  0  0  0  0  0  0
    5.7560   -0.3830    0.3020 C   0  0  0  0  0  0  0  0  0  0  0  0
    4.8380    0.4080    1.0650 N   0  0  0  0  0  0  0  0  0  0  0  0
    3.5550    0.6590    0.8450 C   0  0  0  0  0  0  0  0  0  0  0  0
    3.0790    1.4710    1.8480 C   0  0  0  0  0  0  0  0  0  0  0  0
    1.7310    2.0360    2.0690 C   0  0  0  0  0  0  0  0  0  0  0  0
    0.8060    1.6370    1.0360 N   0  0  0  0  0  0  0  0  0  0  0  0
   -0.4560    1.4160    1.3000 C   0  0  0  0  0  0  0  0  0  0  0  0
   -1.3690    1.0290    0.3120 N   0  0  0  0  0  0  0  0  0  0  0  0
   -1.7960   -0.1250    0.0300 C   0  0  0  0  0  0  0  0  0  0  0  0
   -2.7370   -0.4970   -0.9950 C   0  0  0  0  0  0  0  0  0  0  0  0
   -3.4120    0.1390   -1.9000 C   0  0  0  0  0  0  0  0  0  0  0  0
   -3.5110    1.5120   -2.2750 C   0  0  0  0  0  0  0  0  0  0  0  0
   -4.3220    1.9120   -3.2930 C   0  0  0  0  0  0  0  0  0  0  0  0
   -4.2410    3.3630   -3.4740 C   0  0  0  0  0  0  0  0  0  0  0  0
   -3.2940    3.7910   -2.4550 C   0  0  0  0  0  0  0  0  0  0  0  0
   -2.8810    2.7050   -1.7690 C   0  0  0  0  0  0  0  0  0  0  0  0
   -2.8370   -1.9560   -0.8380 N   0  0  0  0  0  0  0  0  0  0  0  0
   -2.0940   -2.3660    0.1030 C   0  0  0  0  0  0  0  0  0  0  0  0
   -1.8670   -3.7290    0.6210 C   0  0  0  0  0  0  0  0  0  0  0  0
   -2.5930   -4.8420   -0.0150 C   0  0  0  0  0  0  0  0  0  0  0  0
   -1.0400   -3.9100    1.6160 C   0  0  0  0  0  0  0  0  0  0  0  0
   -0.3270   -2.8040    2.2380 C   0  0  0  0  0  0  0  0  0  0  0  0
   -0.4930   -1.5470    1.8090 C   0  0  0  0  0  0  0  0  0  0  0  0
   -1.3860   -1.3240    0.7310 N   0  0  0  0  0  0  0  0  0  0  0  0
    4.1210    1.6890    2.6630 N   0  0  0  0  0  0  0  0  0  0  0  0
    5.1770    1.0470    2.1870 N   0  0  0  0  0  0  0  0  0  0  0  0
  1  2  1  0
  2  3  1  0
  3  4  1  0
  3 27  1  0
  4  5  2  0
  5  6  1  0
  5 26  1  0
  6  7  1  0
  7  8  2  3
  8  9  1  0
  9 10  2  3
 10 11  1  0
 10 25  1  0
 11 12  2  3
 11 18  1  0
 12 13  1  0
 13 14  2  0
 13 17  1  0
 14 15  1  0
 15 16  1  0
 16 17  2  0
 18 19  2  0
 19 20  1  0
 19 25  1  0
 20 21  1  0
 20 22  2  0
 22 23  1  0
 23 24  2  0
 24 25  1  0
 26 27  2  0
M  END
