
     RDKit          3D

 12 12  0  0  0  0  0  0  0  0999 V2000
    2.1530    1.1670   -1.1600 O   0  0  0  0  0  0  0  0  0  0  0  0
    2.4440    0.6260   -0.0710 C   0  0  0  0  0  0  0  0  0  0  0  0
    3.6630    1.0120    0.5470 O   0  0  0  0  0  0  0  0  0  0  0  0
    1.5610   -0.3690    0.5550 C   0  0  0  0  0  0  0  0  0  0  0  0
    0.1320   -0.2850    0.1470 C   0  0  0  0  0  0  0  0  0  0  0  0
   -0.4110    0.9270   -0.2520 C   0  0  0  0  0  0  0  0  0  0  0  0
   -1.7600    0.9600   -0.6050 C   0  0  0  0  0  0  0  0  0  0  0  0
   -2.3480    2.1360   -1.0100 O   0  0  0  0  0  0  0  0  0  0  0  0
   -2.5130   -0.1820   -0.5520 C   0  0  0  0  0  0  0  0  0  0  0  0
   -1.9660   -1.3800   -0.1540 C   0  0  0  0  0  0  0  0  0  0  0  0
   -0.6070   -1.4290    0.2060 C   0  0  0  0  0  0  0  0  0  0  0  0
   -0.0840   -2.6810    0.6200 O   0  0  0  0  0  0  0  0  0  0  0  0
  1  2  2  0
  2  3  1  0
  2  4  1  0
  4  5  1  0
  5  6  2  0
  5 11  1  0
  6  7  1  0
  7  8  1  0
  7  9  2  0
  9 10  1  0
 10 11  2  0
 11 12  1  0
M  END
