
     RDKit          3D

 27 31  0  0  0  0  0  0  0  0999 V2000
    2.8250    2.7190   -1.5730 C   0  0  0  0  0  0  0  0  0  0  0  0
    2.5520    2.6510   -0.0770 C   0  0  0  0  0  0  0  0  0  0  0  0
    1.1130    2.3540    0.1190 C   0  0  0  0  0  0  0  0  0  0  0  0
    0.1320    3.2820    0.2540 N   0  0  0  0  0  0  0  0  0  0  0  0
   -1.0370    2.7150    0.3520 N   0  0  0  0  0  0  0  0  0  0  0  0
   -2.3140    3.3510    0.5050 C   0  0  0  0  0  0  0  0  0  0  0  0
   -3.4810    2.7430    0.6000 C   0  0  0  0  0  0  0  0  0  0  0  0
   -4.5250    3.7720    0.7440 C   0  0  0  0  0  0  0  0  0  0  0  0
   -3.7760    5.0420    0.7160 C   0  0  0  0  0  0  0  0  0  0  0  0
   -2.5380    4.7570    0.5810 N   0  0  0  0  0  0  0  0  0  0  0  0
   -0.8450    1.3820    0.2840 C   0  0  0  0  0  0  0  0  0  0  0  0
   -1.6840    0.3340    0.3550 N   0  0  0  0  0  0  0  0  0  0  0  0
   -1.2700   -0.9360    0.2910 C   0  0  0  0  0  0  0  0  0  0  0  0
   -2.2110   -2.0300    0.3720 N   0  0  0  0  0  0  0  0  0  0  0  0
   -3.6310   -1.8510    0.5140 C   0  0  0  0  0  0  0  0  0  0  0  0
   -4.2620   -3.0630   -0.1190 C   0  0  0  0  0  0  0  0  0  0  0  0
   -3.2250   -4.1280    0.0470 C   0  0  0  0  0  0  0  0  0  0  0  0
   -1.9020   -3.4440    0.3250 C   0  0  0  0  0  0  0  0  0  0  0  0
    0.0330   -1.1630    0.1520 N   0  0  0  0  0  0  0  0  0  0  0  0
    0.9720   -0.1810    0.0690 C   0  0  0  0  0  0  0  0  0  0  0  0
    2.3270   -0.5160   -0.0710 N   0  0  0  0  0  0  0  0  0  0  0  0
    3.0230   -0.5140   -1.3280 C   0  0  0  0  0  0  0  0  0  0  0  0
    3.5140   -1.9490   -1.5100 C   0  0  0  0  0  0  0  0  0  0  0  0
    4.5080   -2.2300   -0.4420 C   0  0  0  0  0  0  0  0  0  0  0  0
    4.3740   -1.5010    0.8370 C   0  0  0  0  0  0  0  0  0  0  0  0
    3.0290   -0.9180    1.1510 C   0  0  0  0  0  0  0  0  0  0  0  0
    0.5340    1.1210    0.1340 C   0  0  0  0  0  0  0  0  0  0  0  0
  1  2  1  0
  2  3  1  0
  3  4  2  0
  3 27  1  0
  4  5  1  0
  5  6  1  0
  5 11  1  0
  6  7  2  0
  6 10  1  0
  7  8  1  0
  8  9  1  0
  9 10  2  0
 11 12  2  0
 11 27  1  0
 12 13  1  0
 13 14  1  0
 13 19  2  0
 14 15  1  0
 14 18  1  0
 15 16  1  0
 16 17  1  0
 17 18  1  0
 19 20  1  0
 20 21  1  0
 20 27  2  0
 21 22  1  0
 21 26  1  0
 22 23  1  0
 23 24  1  0
 24 25  1  0
 25 26  1  0
M  END
