
     RDKit          3D

 27 31  0  0  0  0  0  0  0  0999 V2000
    7.6190    0.4320    1.7720 C   0  0  0  0  0  0  0  0  0  0  0  0
    7.1480    1.2250    0.5740 C   0  0  0  0  0  0  0  0  0  0  0  0
    5.6750    1.1380    0.5280 C   0  0  0  0  0  0  0  0  0  0  0  0
    4.9090    2.0420    1.1600 N   0  0  0  0  0  0  0  0  0  0  0  0
    3.5660    2.0150    1.1540 C   0  0  0  0  0  0  0  0  0  0  0  0
    2.9460    0.9850    0.4500 C   0  0  0  0  0  0  0  0  0  0  0  0
    3.7020    0.0460   -0.2060 C   0  0  0  0  0  0  0  0  0  0  0  0
    5.0560    0.1510   -0.1460 N   0  0  0  0  0  0  0  0  0  0  0  0
    3.0290   -1.0230   -0.9320 C   0  0  0  0  0  0  0  0  0  0  0  0
    1.6910   -1.0500   -0.9310 C   0  0  0  0  0  0  0  0  0  0  0  0
    0.8900   -0.1010   -0.2680 N   0  0  0  0  0  0  0  0  0  0  0  0
   -0.5570   -0.2120   -0.3100 C   0  0  2  0  0  0  0  0  0  0  0  0
   -0.9180   -1.5210    0.2980 C   0  0  0  0  0  0  0  0  0  0  0  0
   -2.2940   -1.9710   -0.0060 C   0  0  0  0  0  0  0  0  0  0  0  0
   -2.9890   -1.0350   -0.8410 N   0  0  0  0  0  0  0  0  0  0  0  0
   -4.3050   -0.6290   -0.4950 C   0  0  0  0  0  0  0  0  0  0  0  0
   -5.3410   -0.8260   -1.3610 N   0  0  0  0  0  0  0  0  0  0  0  0
   -6.5980   -0.4640   -1.0940 C   0  0  0  0  0  0  0  0  0  0  0  0
   -6.8480    0.1360    0.1160 C   0  0  0  0  0  0  0  0  0  0  0  0
   -5.8610    0.3590    1.0180 N   0  0  0  0  0  0  0  0  0  0  0  0
   -5.8340    0.9120    2.2420 C   0  0  0  0  0  0  0  0  0  0  0  0
   -4.5730    0.8730    2.6870 N   0  0  0  0  0  0  0  0  0  0  0  0
   -3.7680    0.3030    1.7750 C   0  0  0  0  0  0  0  0  0  0  0  0
   -4.6120   -0.0230    0.7040 C   0  0  0  0  0  0  0  0  0  0  0  0
   -2.3380   -0.5470   -2.0300 C   0  0  0  0  0  0  0  0  0  0  0  0
   -0.9360   -0.1140   -1.7720 C   0  0  0  0  0  0  0  0  0  0  0  0
    1.4780    0.9830    0.4590 C   0  0  0  0  0  0  0  0  0  0  0  0
  1  2  1  0
  2  3  1  0
  3  4  2  0
  3  8  1  0
  4  5  1  0
  5  6  2  0
  6  7  1  0
  6 27  1  0
  7  8  2  0
  7  9  1  0
  9 10  2  0
 10 11  1  0
 12 11  1  6
 11 27  1  0
 12 13  1  0
 12 26  1  0
 13 14  1  0
 14 15  1  0
 15 16  1  0
 15 25  1  0
 16 17  2  0
 16 24  1  0
 17 18  1  0
 18 19  2  0
 19 20  1  0
 20 21  1  0
 20 24  1  0
 21 22  2  0
 22 23  1  0
 23 24  2  0
 25 26  1  0
M  END
