
     RDKit          3D

 27 31  0  0  0  0  0  0  0  0999 V2000
    7.5620   -0.2150    1.0710 C   0  0  0  0  0  0  0  0  0  0  0  0
    7.0890    0.0910   -0.1910 C   0  0  0  0  0  0  0  0  0  0  0  0
    5.7900   -0.1490   -0.5470 C   0  0  0  0  0  0  0  0  0  0  0  0
    4.9050   -0.7070    0.3480 C   0  0  0  0  0  0  0  0  0  0  0  0
    3.5450   -0.9660    0.0020 N   0  0  0  0  0  0  0  0  0  0  0  0
    2.6510   -0.0110   -0.2450 C   0  0  0  0  0  0  0  0  0  0  0  0
    1.4490   -0.6160   -0.5450 C   0  0  0  0  0  0  0  0  0  0  0  0
    0.2090    0.0810   -0.8760 C   0  0  1  0  0  0  0  0  0  0  0  0
   -0.3210   -0.2830   -2.2510 C   0  0  0  0  0  0  0  0  0  0  0  0
   -1.2240    0.8880   -2.6780 C   0  0  0  0  0  0  0  0  0  0  0  0
   -1.9470    1.4250   -1.4400 C   0  0  0  0  0  0  0  0  0  0  0  0
   -2.1210    0.3700   -0.4730 N   0  0  0  0  0  0  0  0  0  0  0  0
   -3.3610   -0.1540   -0.0590 C   0  0  0  0  0  0  0  0  0  0  0  0
   -3.7070   -1.4370   -0.3130 N   0  0  0  0  0  0  0  0  0  0  0  0
   -4.8870   -1.9430    0.0650 C   0  0  0  0  0  0  0  0  0  0  0  0
   -5.8010   -1.1690    0.7330 C   0  0  0  0  0  0  0  0  0  0  0  0
   -5.4930    0.1550    1.0200 C   0  0  0  0  0  0  0  0  0  0  0  0
   -6.3910    0.9550    1.6930 C   0  0  0  0  0  0  0  0  0  0  0  0
   -6.0340    2.2240    1.9430 N   0  0  0  0  0  0  0  0  0  0  0  0
   -4.8620    2.6950    1.5580 N   0  0  0  0  0  0  0  0  0  0  0  0
   -3.9700    1.9620    0.9090 C   0  0  0  0  0  0  0  0  0  0  0  0
   -4.2580    0.6480    0.6120 C   0  0  0  0  0  0  0  0  0  0  0  0
   -0.9090   -0.2180    0.1180 C   0  0  0  0  0  0  0  0  0  0  0  0
    1.6650   -1.9360   -0.4680 N   0  0  0  0  0  0  0  0  0  0  0  0
    2.9460   -2.1430   -0.1340 N   0  0  0  0  0  0  0  0  0  0  0  0
    5.3650   -1.0150    1.6060 C   0  0  0  0  0  0  0  0  0  0  0  0
    6.6700   -0.7720    1.9550 C   0  0  0  0  0  0  0  0  0  0  0  0
  1  2  2  0
  1 27  1  0
  2  3  1  0
  3  4  2  0
  4  5  1  0
  4 26  1  0
  5  6  1  0
  5 25  1  0
  6  7  2  0
  8  7  1  1
  7 24  1  0
  8  9  1  0
  8 23  1  0
  9 10  1  0
 10 11  1  0
 11 12  1  0
 12 13  1  0
 12 23  1  0
 13 14  2  0
 13 22  1  0
 14 15  1  0
 15 16  2  0
 16 17  1  0
 17 18  2  0
 17 22  1  0
 18 19  1  0
 19 20  2  0
 20 21  1  0
 21 22  2  0
 24 25  2  0
 26 27  2  0
M  END
