
     RDKit          3D

 20 20  0  0  0  0  0  0  0  0999 V2000
    5.1850    1.2880    0.7690 C   0  0  0  0  0  0  0  0  0  0  0  0
    4.4010    0.1860    0.3950 O   0  0  0  0  0  0  0  0  0  0  0  0
    3.2610    0.3830   -0.3710 C   0  0  0  0  0  0  0  0  0  0  0  0
    2.9640    1.5440   -0.7070 O   0  0  0  0  0  0  0  0  0  0  0  0
    2.3980   -0.7450   -0.7930 C   0  0  0  0  0  0  0  0  0  0  0  0
    1.1880   -0.9070    0.0570 C   0  0  2  0  0  0  0  0  0  0  0  0
    1.6740   -1.1590    1.4930 C   0  0  0  0  0  0  0  0  0  0  0  0
    0.4800   -2.0470   -0.2920 O   0  0  0  0  0  0  0  0  0  0  0  0
   -0.4690   -1.8510   -1.2830 C   0  0  0  0  0  0  0  0  0  0  0  0
   -1.6140   -1.0190   -0.7620 C   0  0  1  0  0  0  0  0  0  0  0  0
   -2.2410   -0.2760   -1.7200 O   0  0  0  0  0  0  0  0  0  0  0  0
   -2.6530   -1.9840   -0.1820 C   0  0  0  0  0  0  0  0  0  0  0  0
   -3.1630   -2.8230   -1.1820 O   0  0  0  0  0  0  0  0  0  0  0  0
   -1.0930   -0.2050    0.4020 C   0  0  2  0  0  0  0  0  0  0  0  0
   -2.0480    0.7140    1.0260 C   0  0  1  0  0  0  0  0  0  0  0  0
   -1.4310    1.4080    2.0940 O   0  0  0  0  0  0  0  0  0  0  0  0
   -2.7690    1.7100    0.2150 C   0  0  0  0  0  0  0  0  0  0  0  0
   -1.9450    2.7560   -0.3520 N   0  0  0  0  0  0  0  0  0  0  0  0
    0.2830    0.3160    0.0950 C   0  0  2  0  0  0  0  0  0  0  0  0
    0.4230    1.0010   -1.0690 O   0  0  0  0  0  0  0  0  0  0  0  0
  1  2  1  0
  2  3  1  0
  3  4  2  0
  3  5  1  0
  5  6  1  0
  6  7  1  1
  6  8  1  0
  6 19  1  0
  8  9  1  0
  9 10  1  0
 10 11  1  6
 10 12  1  0
 10 14  1  0
 12 13  1  0
 14 15  1  6
 14 19  1  0
 15 16  1  1
 15 17  1  0
 17 18  1  0
 19 20  1  6
M  CHG  1  18   1
M  END
