
     RDKit          3D

 20 20  0  0  0  0  0  0  0  0999 V2000
   -0.6160   -1.4050    2.8620 N   0  0  0  0  0  0  0  0  0  0  0  0
   -0.7180   -0.2590    1.9830 C   0  0  0  0  0  0  0  0  0  0  0  0
   -0.8850   -0.7460    0.5400 C   0  0  2  0  0  0  0  0  0  0  0  0
    0.1700   -1.5110    0.1280 O   0  0  0  0  0  0  0  0  0  0  0  0
    1.4080   -0.9460    0.1440 C   0  0  0  0  0  0  0  0  0  0  0  0
    1.5900    0.1690   -0.6280 O   0  0  0  0  0  0  0  0  0  0  0  0
    2.8610    0.6740   -0.5530 C   0  0  0  0  0  0  0  0  0  0  0  0
    3.9370   -0.2750   -0.9940 C   0  0  1  0  0  0  0  0  0  0  0  0
    3.7330   -0.6430   -2.3140 O   0  0  0  0  0  0  0  0  0  0  0  0
    5.3050    0.4220   -0.9670 C   0  0  0  0  0  0  0  0  0  0  0  0
    5.2900    1.5370   -1.8030 O   0  0  0  0  0  0  0  0  0  0  0  0
   -1.0880    0.3870   -0.4070 C   0  0  0  0  0  0  0  0  0  0  0  0
   -2.5220    0.6770   -0.7430 C   0  0  2  0  0  0  0  0  0  0  0  0
   -2.9590   -0.1010   -1.8400 O   0  0  0  0  0  0  0  0  0  0  0  0
   -2.6230    2.1240   -1.2150 C   0  0  0  0  0  0  0  0  0  0  0  0
   -2.2160    3.0080   -0.2170 O   0  0  0  0  0  0  0  0  0  0  0  0
   -3.4820    0.4450    0.3690 C   0  0  0  0  0  0  0  0  0  0  0  0
   -3.3510   -0.9020    0.9810 C   0  0  0  0  0  0  0  0  0  0  0  0
   -2.1090   -1.6550    0.5810 C   0  0  1  0  0  0  0  0  0  0  0  0
   -2.2750   -2.3500   -0.6160 O   0  0  0  0  0  0  0  0  0  0  0  0
  1  2  1  0
  3  2  1  1
  3  4  1  0
  3 12  1  0
  3 19  1  0
  4  5  1  0
  5  6  1  0
  6  7  1  0
  7  8  1  0
  8  9  1  6
  8 10  1  0
 10 11  1  0
 12 13  1  0
 13 14  1  6
 13 15  1  0
 13 17  1  0
 15 16  1  0
 17 18  1  0
 18 19  1  0
 19 20  1  6
M  CHG  1   1   1
M  END
