
     RDKit          3D

 20 20  0  0  0  0  0  0  0  0999 V2000
    5.1620    1.1080    0.1700 C   0  0  0  0  0  0  0  0  0  0  0  0
    5.3590   -0.1820    0.5780 O   0  0  0  0  0  0  0  0  0  0  0  0
    4.2430   -0.8990    0.9450 C   0  0  0  0  0  0  0  0  0  0  0  0
    3.2940   -1.0160   -0.1920 C   0  0  0  0  0  0  0  0  0  0  0  0
    2.1450   -1.7310    0.1010 O   0  0  0  0  0  0  0  0  0  0  0  0
    1.3590   -1.2680    1.0970 C   0  0  0  0  0  0  0  0  0  0  0  0
    0.7580    0.0810    0.9640 C   0  0  1  0  0  0  0  0  0  0  0  0
    1.6890    1.0780    0.8300 O   0  0  0  0  0  0  0  0  0  0  0  0
   -0.3410    0.1930   -0.0650 C   0  0  2  0  0  0  0  0  0  0  0  0
    0.2220   -0.1660   -1.4220 C   0  0  0  0  0  0  0  0  0  0  0  0
   -0.9190    1.5740   -0.0610 C   0  0  0  0  0  0  0  0  0  0  0  0
   -2.1660    1.6370    0.6500 O   0  0  0  0  0  0  0  0  0  0  0  0
   -3.1970    0.8460    0.1000 C   0  0  0  0  0  0  0  0  0  0  0  0
   -4.4500    1.2120    0.1520 C   0  0  0  0  0  0  0  0  0  0  0  0
   -5.4290    0.4180   -0.3950 O   0  0  0  0  0  0  0  0  0  0  0  0
   -4.7990    2.3990    0.7560 O   0  0  0  0  0  0  0  0  0  0  0  0
   -2.7070   -0.4150   -0.5270 C   0  0  2  0  0  0  0  0  0  0  0  0
   -3.6980   -1.4700   -0.5080 N   0  0  0  0  0  0  0  0  0  0  0  0
   -1.4550   -0.8180    0.2240 C   0  0  2  0  0  0  0  0  0  0  0  0
   -1.7360   -0.7070    1.5780 O   0  0  0  0  0  0  0  0  0  0  0  0
  1  2  1  0
  2  3  1  0
  3  4  1  0
  4  5  1  0
  5  6  1  0
  6  7  1  0
  7  8  1  6
  7  9  1  0
  9 10  1  6
  9 11  1  0
  9 19  1  0
 11 12  1  0
 12 13  1  0
 13 14  2  3
 13 17  1  0
 14 15  1  0
 14 16  1  0
 17 18  1  1
 17 19  1  0
 19 20  1  1
M  CHG  1  18   1
M  END
