
     RDKit          3D

 20 21  0  0  0  0  0  0  0  0999 V2000
   -4.9420    0.1860   -1.4790 N   0  0  0  0  0  0  0  0  0  0  0  0
   -3.8880    0.7830   -0.6780 C   0  0  0  0  0  0  0  0  0  0  0  0
   -2.5480    0.0970   -0.9580 C   0  0  2  0  0  0  0  0  0  0  0  0
   -2.6480   -1.3470   -0.6210 C   0  0  0  0  0  0  0  0  0  0  0  0
   -1.5150   -1.8580    0.2370 C   0  0  0  0  0  0  0  0  0  0  0  0
   -1.2920   -1.0260    1.4630 C   0  0  0  0  0  0  0  0  0  0  0  0
   -1.5440    0.4400    1.2450 C   0  0  1  0  0  0  0  0  0  0  0  0
   -0.6560    1.2510    1.9200 O   0  0  0  0  0  0  0  0  0  0  0  0
    0.6180    1.2460    1.4530 C   0  0  0  0  0  0  0  0  0  0  0  0
    0.8260    0.9730    0.0230 C   0  0  1  0  0  0  0  0  0  0  0  0
    2.0480    0.0830   -0.1340 C   0  0  0  0  0  0  0  0  0  0  0  0
    3.1520    0.6230    0.5270 O   0  0  0  0  0  0  0  0  0  0  0  0
    4.2280   -0.2400    0.3420 C   0  0  1  0  0  0  0  0  0  0  0  0
    5.3540    0.5580   -0.3110 C   0  0  0  0  0  0  0  0  0  0  0  0
    4.9610    1.0770   -1.5340 O   0  0  0  0  0  0  0  0  0  0  0  0
    4.7170   -0.6490    1.6030 O   0  0  0  0  0  0  0  0  0  0  0  0
    4.7210   -1.9650    1.6670 O   0  0  0  0  0  0  0  0  0  0  0  0
   -0.2100    0.3760   -0.6520 O   0  0  0  0  0  0  0  0  0  0  0  0
   -1.4620    0.7840   -0.2050 C   0  0  1  0  0  0  0  0  0  0  0  0
   -1.5520    2.1550   -0.4230 O   0  0  0  0  0  0  0  0  0  0  0  0
  1  2  1  0
  3  2  1  1
  3  4  1  0
  3 19  1  0
  4  5  1  0
  5  6  1  0
  7  6  1  6
  7  8  1  0
  7 19  1  0
  8  9  1  0
  9 10  1  0
 10 11  1  1
 10 18  1  0
 11 12  1  0
 12 13  1  0
 13 14  1  1
 13 16  1  0
 14 15  1  0
 16 17  1  0
 18 19  1  0
 19 20  1  1
M  CHG  1   1   1
M  END
