
     RDKit          3D

 20 20  0  0  0  0  0  0  0  0999 V2000
   -4.0530   -0.2700   -0.6800 N   0  0  0  0  0  0  0  0  0  0  0  0
   -2.8130    0.4210   -0.5500 C   0  0  0  0  0  0  0  0  0  0  0  0
   -1.7960   -0.2670    0.3030 C   0  0  2  0  0  0  0  0  0  0  0  0
   -0.6490    0.4970    0.3500 O   0  0  0  0  0  0  0  0  0  0  0  0
   -0.8070    1.7120    0.9880 C   0  0  0  0  0  0  0  0  0  0  0  0
   -0.5400    2.8240   -0.0050 C   0  0  1  0  0  0  0  0  0  0  0  0
   -0.8250    4.0350    0.6100 O   0  0  0  0  0  0  0  0  0  0  0  0
    0.9320    2.7750   -0.3940 C   0  0  0  0  0  0  0  0  0  0  0  0
    1.4220    1.4820   -0.2140 O   0  0  0  0  0  0  0  0  0  0  0  0
    2.3760    1.2240   -1.1690 C   0  0  0  0  0  0  0  0  0  0  0  0
    3.3910    0.1970   -0.6750 C   0  0  1  0  0  0  0  0  0  0  0  0
    4.3240    0.8060    0.1430 O   0  0  0  0  0  0  0  0  0  0  0  0
    2.6550   -0.9160    0.0620 C   0  0  0  0  0  0  0  0  0  0  0  0
    1.5940   -1.3680   -0.6980 O   0  0  0  0  0  0  0  0  0  0  0  0
    1.2460   -2.6840   -0.3980 C   0  0  0  0  0  0  0  0  0  0  0  0
    0.5000   -2.7920    0.8830 C   0  0  0  0  0  0  0  0  0  0  0  0
    1.1300   -3.4140    1.9740 O   0  0  0  0  0  0  0  0  0  0  0  0
   -0.7250   -2.3130    0.9890 C   0  0  0  0  0  0  0  0  0  0  0  0
   -1.4470   -1.6450   -0.1270 C   0  0  1  0  0  0  0  0  0  0  0  0
   -2.6530   -2.3620   -0.2970 O   0  0  0  0  0  0  0  0  0  0  0  0
  1  2  1  0
  3  2  1  6
  3  4  1  0
  3 19  1  0
  4  5  1  0
  5  6  1  0
  6  7  1  1
  6  8  1  0
  8  9  1  0
  9 10  1  0
 10 11  1  0
 11 12  1  1
 11 13  1  0
 13 14  1  0
 14 15  1  0
 15 16  1  0
 16 17  1  0
 16 18  2  0
 18 19  1  0
 19 20  1  1
M  CHG  1   1   1
M  END
