
     RDKit          3D

 20 20  0  0  0  0  0  0  0  0999 V2000
   -1.9580   -2.3980   -1.2030 C   0  0  0  0  0  0  0  0  0  0  0  0
   -2.1710   -1.0580   -1.1300 O   0  0  0  0  0  0  0  0  0  0  0  0
   -2.2570   -0.4700    0.0770 C   0  0  1  0  0  0  0  0  0  0  0  0
   -1.1540    0.5240    0.3950 C   0  0  1  0  0  0  0  0  0  0  0  0
    0.0720   -0.0690    0.5090 O   0  0  0  0  0  0  0  0  0  0  0  0
    0.5760    0.1380    1.7870 C   0  0  0  0  0  0  0  0  0  0  0  0
    1.9290   -0.5430    1.8410 C   0  0  0  0  0  0  0  0  0  0  0  0
    2.7920   -0.0170    0.9060 O   0  0  0  0  0  0  0  0  0  0  0  0
    4.0120   -0.6710    0.9940 C   0  0  2  0  0  0  0  0  0  0  0  0
    4.9510    0.2670    1.4120 O   0  0  0  0  0  0  0  0  0  0  0  0
    4.3730   -1.3060   -0.3200 C   0  0  1  0  0  0  0  0  0  0  0  0
    3.3770   -2.2220   -0.6450 O   0  0  0  0  0  0  0  0  0  0  0  0
    4.5430   -0.3030   -1.4280 C   0  0  0  0  0  0  0  0  0  0  0  0
    5.5070    0.6350   -1.1830 O   0  0  0  0  0  0  0  0  0  0  0  0
   -1.1500    1.6800   -0.6010 C   0  0  0  0  0  0  0  0  0  0  0  0
   -2.5650    2.0800   -0.8330 C   0  0  2  0  0  0  0  0  0  0  0  0
   -2.6280    3.4740   -0.8980 O   0  0  0  0  0  0  0  0  0  0  0  0
   -3.5120    1.6520    0.2630 C   0  0  0  0  0  0  0  0  0  0  0  0
   -3.5990    0.1500    0.3890 C   0  0  1  0  0  0  0  0  0  0  0  0
   -4.6690   -0.3860   -0.4240 N   0  0  0  0  0  0  0  0  0  0  0  0
  1  2  1  0
  3  2  1  6
  3  4  1  0
  3 19  1  0
  4  5  1  6
  4 15  1  0
  5  6  1  0
  6  7  1  0
  7  8  1  0
  8  9  1  0
  9 10  1  6
  9 11  1  0
 11 12  1  6
 11 13  1  0
 13 14  1  0
 15 16  1  0
 16 17  1  1
 16 18  1  0
 18 19  1  0
 19 20  1  6
M  CHG  1  20   1
M  END
