
     RDKit          3D

 20 21  0  0  0  0  0  0  0  0999 V2000
    4.7370    0.2540   -1.0300 N   0  0  0  0  0  0  0  0  0  0  0  0
    3.6470    1.1290   -0.7150 C   0  0  0  0  0  0  0  0  0  0  0  0
    2.6510    0.6650    0.2710 C   0  0  1  0  0  0  0  0  0  0  0  0
    1.7460    1.7680    0.4310 O   0  0  0  0  0  0  0  0  0  0  0  0
    1.8330   -0.4960   -0.1540 C   0  0  1  0  0  0  0  0  0  0  0  0
    2.6160   -1.7310   -0.4290 C   0  0  0  0  0  0  0  0  0  0  0  0
    1.9310   -2.8300    0.1100 O   0  0  0  0  0  0  0  0  0  0  0  0
    0.6990   -2.4030    0.5200 C   0  0  0  0  0  0  0  0  0  0  0  0
    0.8890   -0.9670    0.9420 C   0  0  1  0  0  0  0  0  0  0  0  0
    1.5730   -0.9500    2.1400 O   0  0  0  0  0  0  0  0  0  0  0  0
   -0.3900   -0.1850    0.9880 C   0  0  0  0  0  0  0  0  0  0  0  0
   -1.0640   -0.2070   -0.2100 O   0  0  0  0  0  0  0  0  0  0  0  0
   -2.2560    0.4990   -0.2190 C   0  0  2  0  0  0  0  0  0  0  0  0
   -1.9580    1.9640    0.0080 C   0  0  0  0  0  0  0  0  0  0  0  0
   -1.1180    2.3710   -1.0290 O   0  0  0  0  0  0  0  0  0  0  0  0
   -3.1630   -0.0850    0.7960 C   0  0  0  0  0  0  0  0  0  0  0  0
   -4.4940    0.2810    0.7010 O   0  0  0  0  0  0  0  0  0  0  0  0
   -5.0230    0.0940   -0.5640 C   0  0  0  0  0  0  0  0  0  0  0  0
   -3.9950   -0.2350   -1.6000 C   0  0  0  0  0  0  0  0  0  0  0  0
   -2.7990    0.3770   -1.4740 O   0  0  0  0  0  0  0  0  0  0  0  0
  1  2  1  0
  2  3  1  0
  3  4  1  6
  3  5  1  0
  5  6  1  1
  5  9  1  0
  6  7  1  0
  7  8  1  0
  8  9  1  0
  9 10  1  1
  9 11  1  0
 11 12  1  0
 12 13  1  0
 13 14  1  1
 13 16  1  0
 13 20  1  0
 14 15  1  0
 16 17  1  0
 17 18  1  0
 18 19  1  0
 19 20  1  0
M  CHG  1   1   1
M  END
