
     RDKit          3D

 41 43  0  0  0  0  0  0  0  0999 V2000
    2.8140    4.9600   -0.0340 C   0  0  0  0  0  0  0  0  0  0  0  0
    1.6550    4.4710    0.3900 C   0  0  0  0  0  0  0  0  0  0  0  0
    1.3420    3.0640    0.2940 C   0  0  0  0  0  0  0  0  0  0  0  0
    0.1870    2.5480    0.6720 C   0  0  0  0  0  0  0  0  0  0  0  0
   -0.0780    1.1090    0.5710 C   0  0  0  0  0  0  0  0  0  0  0  0
    1.0180    0.4160   -0.2880 C   0  0  0  0  0  0  0  0  0  0  0  0
    0.9870    0.9000   -1.6970 C   0  0  0  0  0  0  0  0  0  0  0  0
    2.0680    0.2810   -2.5200 C   0  0  0  0  0  0  0  0  0  0  0  0
    1.9160   -0.4570   -3.5960 C   0  0  0  0  0  0  0  0  0  0  0  0
    3.2400   -0.8780   -4.1160 C   0  0  0  0  0  0  0  0  0  0  0  0
    4.1830   -0.2660   -3.1720 C   0  0  0  0  0  0  0  0  0  0  0  0
    3.5000    0.3960   -2.2620 C   0  0  0  0  0  0  0  0  0  0  0  0
    4.1300    1.0700   -1.2500 F   0  0  0  0  0  0  0  0  0  0  0  0
   -1.0090    0.3520    1.0010 C   0  0  0  0  0  0  0  0  0  0  0  0
   -2.1940    0.5670    1.8050 C   0  0  0  0  0  0  0  0  0  0  0  0
   -2.4000    1.6910    2.6240 N   0  0  0  0  0  0  0  0  0  0  0  0
   -1.4760    1.9230    3.7320 C   0  0  0  0  0  0  0  0  0  0  0  0
   -0.5460    1.1180    3.8900 O   0  0  0  0  0  0  0  0  0  0  0  0
   -1.6300    3.0250    4.6040 N   0  0  0  0  0  0  0  0  0  0  0  0
   -0.6850    3.2280    5.7100 C   0  0  0  0  0  0  0  0  0  0  0  0
   -0.8320   -1.1120    0.6310 C   0  0  0  0  0  0  0  0  0  0  0  0
   -0.1090   -2.0360    1.3500 C   0  0  0  0  0  0  0  0  0  0  0  0
   -0.1840   -3.2610    0.7120 C   0  0  0  0  0  0  0  0  0  0  0  0
    0.4190   -4.5140    1.1100 C   0  0  0  0  0  0  0  0  0  0  0  0
    0.2790   -5.5710    0.4470 O   0  0  0  0  0  0  0  0  0  0  0  0
    1.2010   -4.6260    2.2680 O   0  0  0  0  0  0  0  0  0  0  0  0
    1.7880   -5.8500    2.6570 C   0  0  0  0  0  0  0  0  0  0  0  0
   -0.9460   -3.0390   -0.3670 N   0  0  0  0  0  0  0  0  0  0  0  0
   -1.3370   -1.7460   -0.4170 N   0  0  0  0  0  0  0  0  0  0  0  0
   -2.1540   -1.2240   -1.4440 C   0  0  0  0  0  0  0  0  0  0  0  0
   -2.4900   -0.0150   -1.3950 O   0  0  0  0  0  0  0  0  0  0  0  0
   -2.6460   -1.9950   -2.5770 C   0  0  0  0  0  0  0  0  0  0  0  0
   -3.8740   -1.7930   -3.1520 N   0  0  0  0  0  0  0  0  0  0  0  0
   -4.0490   -2.6270   -4.1810 C   0  0  0  0  0  0  0  0  0  0  0  0
   -2.9360   -3.4200   -4.3300 C   0  0  0  0  0  0  0  0  0  0  0  0
   -2.0750   -3.0010   -3.3130 C   0  0  0  0  0  0  0  0  0  0  0  0
   -0.4900   -3.6620   -3.0480 Cl  0  0  0  0  0  0  0  0  0  0  0  0
   -0.8980    3.5730    0.8380 C   0  0  1  0  0  0  0  0  0  0  0  0
   -2.0880    3.0340    0.3040 F   0  0  0  0  0  0  0  0  0  0  0  0
   -0.9410    4.3000    1.9090 F   0  0  0  0  0  0  0  0  0  0  0  0
   -0.5950    4.8030   -0.5530 Cl  0  0  0  0  0  0  0  0  0  0  0  0
  1  2  2  0
  2  3  1  0
  3  4  2  3
  4  5  1  0
  4 38  1  0
  5  6  1  0
  5 14  2  3
  6  7  1  0
  7  8  1  0
  8  9  2  0
  8 12  1  0
  9 10  1  0
 10 11  1  0
 11 12  2  0
 12 13  1  0
 14 15  1  0
 14 21  1  0
 15 16  1  0
 16 17  1  0
 17 18  2  0
 17 19  1  0
 19 20  1  0
 21 22  2  0
 21 29  1  0
 22 23  1  0
 23 24  1  0
 23 28  2  0
 24 25  2  0
 24 26  1  0
 26 27  1  0
 28 29  1  0
 29 30  1  0
 30 31  2  0
 30 32  1  0
 32 33  1  0
 32 36  2  0
 33 34  1  0
 34 35  2  0
 35 36  1  0
 36 37  1  0
 38 39  1  6
 38 40  1  0
 38 41  1  0
M  END
