
     RDKit          3D

 41 45  0  0  0  0  0  0  0  0999 V2000
    0.4260   -2.4490    1.5650 O   0  0  0  0  0  0  0  0  0  0  0  0
    0.5410   -1.0400    0.9880 S   0  0  2  0  0  0  0  0  0  0  0  0
    1.2820   -0.2540    2.0300 O   0  0  0  0  0  0  0  0  0  0  0  0
   -1.0610   -0.5030    0.7660 N   0  0  0  0  0  0  0  0  0  0  0  0
   -1.9870   -0.9780    1.7280 C   0  0  0  0  0  0  0  0  0  0  0  0
   -2.1570   -0.1390    2.9230 C   0  0  0  0  0  0  0  0  0  0  0  0
   -3.1610    0.8050    2.9370 C   0  0  0  0  0  0  0  0  0  0  0  0
   -3.3090    1.5840    4.0640 C   0  0  0  0  0  0  0  0  0  0  0  0
   -2.4680    1.4150    5.1450 C   0  0  0  0  0  0  0  0  0  0  0  0
   -1.4810    0.4760    5.1110 C   0  0  0  0  0  0  0  0  0  0  0  0
   -1.3050   -0.3140    4.0120 C   0  0  0  0  0  0  0  0  0  0  0  0
   -1.2390    0.7840    0.2370 C   0  0  2  0  0  0  0  0  0  0  0  0
   -2.1970    0.7280   -0.9270 C   0  0  0  0  0  0  0  0  0  0  0  0
   -3.4650    0.2260   -0.5170 O   0  0  0  0  0  0  0  0  0  0  0  0
   -4.5060    0.0800   -1.3940 C   0  0  0  0  0  0  0  0  0  0  0  0
   -5.7100   -0.4110   -0.9350 C   0  0  0  0  0  0  0  0  0  0  0  0
   -6.8090   -0.5840   -1.7800 C   0  0  0  0  0  0  0  0  0  0  0  0
   -6.7120   -0.2610   -3.1170 C   0  0  0  0  0  0  0  0  0  0  0  0
   -5.5080    0.2310   -3.5780 C   0  0  0  0  0  0  0  0  0  0  0  0
   -4.4270    0.3990   -2.7400 C   0  0  0  0  0  0  0  0  0  0  0  0
    0.0000    1.5300   -0.1420 C   0  0  2  0  0  0  0  0  0  0  0  0
   -0.3960    2.8670   -0.3880 O   0  0  0  0  0  0  0  0  0  0  0  0
    0.6960    1.0470   -1.3580 C   0  0  1  0  0  0  0  0  0  0  0  0
    1.3310    2.1460   -1.9820 O   0  0  0  0  0  0  0  0  0  0  0  0
    1.7880    0.0400   -1.0890 C   0  0  1  0  0  0  0  0  0  0  0  0
    2.9690    0.6710   -0.3780 C   0  0  0  0  0  0  0  0  0  0  0  0
    3.3630    1.8810   -1.0390 O   0  0  0  0  0  0  0  0  0  0  0  0
    4.4040    2.6520   -0.6060 C   0  0  0  0  0  0  0  0  0  0  0  0
    4.7430    3.8080   -1.2770 C   0  0  0  0  0  0  0  0  0  0  0  0
    5.7990    4.5550   -0.8080 C   0  0  0  0  0  0  0  0  0  0  0  0
    6.4960    4.1420    0.3140 C   0  0  0  0  0  0  0  0  0  0  0  0
    6.1430    2.9850    0.9700 C   0  0  0  0  0  0  0  0  0  0  0  0
    5.0970    2.2310    0.5180 C   0  0  0  0  0  0  0  0  0  0  0  0
    1.3340   -1.1680   -0.4970 N   0  0  0  0  0  0  0  0  0  0  0  0
    2.4570   -2.0730   -0.3780 C   0  0  0  0  0  0  0  0  0  0  0  0
    1.9870   -3.4420   -0.6960 C   0  0  0  0  0  0  0  0  0  0  0  0
    1.5220   -3.6660   -1.9780 C   0  0  0  0  0  0  0  0  0  0  0  0
    1.0670   -4.9030   -2.3790 C   0  0  0  0  0  0  0  0  0  0  0  0
    1.0750   -5.9420   -1.4810 C   0  0  0  0  0  0  0  0  0  0  0  0
    1.5300   -5.7500   -0.2040 C   0  0  0  0  0  0  0  0  0  0  0  0
    1.9820   -4.4910    0.1700 C   0  0  0  0  0  0  0  0  0  0  0  0
  1  2  2  0
  2  3  2  0
  2  4  1  6
  2 34  1  0
  4  5  1  0
  4 12  1  0
  5  6  1  0
  6  7  2  0
  6 11  1  0
  7  8  1  0
  8  9  2  0
  9 10  1  0
 10 11  2  0
 12 13  1  6
 12 21  1  0
 13 14  1  0
 14 15  1  0
 15 16  2  0
 15 20  1  0
 16 17  1  0
 17 18  2  0
 18 19  1  0
 19 20  2  0
 21 22  1  6
 21 23  1  0
 23 24  1  1
 23 25  1  0
 25 26  1  1
 25 34  1  0
 26 27  1  0
 27 28  1  0
 28 29  2  0
 28 33  1  0
 29 30  1  0
 30 31  2  0
 31 32  1  0
 32 33  2  0
 34 35  1  0
 35 36  1  0
 36 37  2  0
 36 41  1  0
 37 38  1  0
 38 39  2  0
 39 40  1  0
 40 41  2  0
M  END
