
     RDKit          3D

 41 43  0  0  0  0  0  0  0  0999 V2000
  -10.0840    0.3230   -3.2630 C   0  0  0  0  0  0  0  0  0  0  0  0
   -9.3230    0.1210   -2.1440 O   0  0  0  0  0  0  0  0  0  0  0  0
   -7.9430    0.2660   -1.9540 C   0  0  0  0  0  0  0  0  0  0  0  0
   -7.4310    0.1390   -0.5750 C   0  0  0  0  0  0  0  0  0  0  0  0
   -8.2290   -0.1210    0.4000 C   0  0  0  0  0  0  0  0  0  0  0  0
   -9.6690   -0.3440    0.4400 C   0  0  0  0  0  0  0  0  0  0  0  0
  -10.2960    0.6310    1.2650 F   0  0  0  0  0  0  0  0  0  0  0  0
   -6.0420    0.2650   -0.3620 N   0  0  0  0  0  0  0  0  0  0  0  0
   -5.3250   -0.2000    0.7740 C   0  0  0  0  0  0  0  0  0  0  0  0
   -5.9210   -0.7820    1.6740 O   0  0  0  0  0  0  0  0  0  0  0  0
   -3.9100   -0.0020    0.8920 N   0  0  0  0  0  0  0  0  0  0  0  0
   -3.1170   -0.4090    1.9750 C   0  0  0  0  0  0  0  0  0  0  0  0
   -3.6600   -0.8480    3.1510 C   0  0  0  0  0  0  0  0  0  0  0  0
   -2.8810   -1.2060    4.2620 C   0  0  0  0  0  0  0  0  0  0  0  0
   -1.5210   -1.1180    4.1860 C   0  0  0  0  0  0  0  0  0  0  0  0
   -0.9500   -0.6750    3.0020 C   0  0  0  0  0  0  0  0  0  0  0  0
   -1.7190   -0.3230    1.9050 C   0  0  0  0  0  0  0  0  0  0  0  0
   -1.1540    0.0770    0.6820 N   0  0  0  0  0  0  0  0  0  0  0  0
    0.1950    0.3800    0.4670 C   0  0  0  0  0  0  0  0  0  0  0  0
    1.0320    0.3250    1.3850 O   0  0  0  0  0  0  0  0  0  0  0  0
    0.6400    0.7730   -0.8670 N   0  0  0  0  0  0  0  0  0  0  0  0
    2.0420    1.0790   -1.0510 C   0  0  0  0  0  0  0  0  0  0  0  0
    2.8860   -0.0990   -0.7260 C   0  0  0  0  0  0  0  0  0  0  0  0
    2.3170   -1.1540   -0.3610 O   0  0  0  0  0  0  0  0  0  0  0  0
    4.3030   -0.0620   -0.8160 N   0  0  0  0  0  0  0  0  0  0  0  0
    4.9220    1.1680   -1.2310 C   0  0  0  0  0  0  0  0  0  0  0  0
    6.4110    1.1640   -1.0340 C   0  0  0  0  0  0  0  0  0  0  0  0
    7.0970    0.2760   -0.3730 C   0  0  0  0  0  0  0  0  0  0  0  0
    8.5360    0.2480   -0.1700 C   0  0  0  0  0  0  0  0  0  0  0  0
    9.0790   -0.6050    0.8090 C   0  0  0  0  0  0  0  0  0  0  0  0
   10.4290   -0.7240    1.0290 C   0  0  0  0  0  0  0  0  0  0  0  0
   11.3160    0.0140    0.2740 C   0  0  0  0  0  0  0  0  0  0  0  0
   10.8160    0.8420   -0.6750 C   0  0  0  0  0  0  0  0  0  0  0  0
   11.6630    1.5750   -1.4260 F   0  0  0  0  0  0  0  0  0  0  0  0
    9.4270    0.9700   -0.9110 C   0  0  0  0  0  0  0  0  0  0  0  0
    8.9620    2.0440   -2.2210 Cl  0  0  0  0  0  0  0  0  0  0  0  0
    6.3440   -0.8800    0.2340 C   0  0  0  0  0  0  0  0  0  0  0  0
    5.0980   -1.2340   -0.4940 C   0  0  0  0  0  0  0  0  0  0  0  0
   -7.2640    0.5050   -3.0440 C   0  0  0  0  0  0  0  0  0  0  0  0
   -8.0130    0.5810   -4.2240 F   0  0  0  0  0  0  0  0  0  0  0  0
   -5.5500    0.7130   -3.2390 Cl  0  0  0  0  0  0  0  0  0  0  0  0
  1  2  1  0
  2  3  1  0
  3  4  1  0
  3 39  2  3
  4  5  2  3
  4  8  1  0
  5  6  1  0
  6  7  1  0
  8  9  1  0
  9 10  2  0
  9 11  1  0
 11 12  1  0
 12 13  2  0
 12 17  1  0
 13 14  1  0
 14 15  2  0
 15 16  1  0
 16 17  2  0
 17 18  1  0
 18 19  1  0
 19 20  2  0
 19 21  1  0
 21 22  1  0
 22 23  1  0
 23 24  2  0
 23 25  1  0
 25 26  1  0
 25 38  1  0
 26 27  1  0
 27 28  2  0
 28 29  1  0
 28 37  1  0
 29 30  2  0
 29 35  1  0
 30 31  1  0
 31 32  2  0
 32 33  1  0
 33 34  1  0
 33 35  2  0
 35 36  1  0
 37 38  1  0
 39 40  1  0
 39 41  1  0
M  END
