
     RDKit          3D

 41 43  0  0  0  0  0  0  0  0999 V2000
   -3.0460   -3.2430    0.9020 C   0  0  0  0  0  0  0  0  0  0  0  0
   -3.1490   -1.9340    1.0490 C   0  0  0  0  0  0  0  0  0  0  0  0
   -3.8240   -1.0780    0.0220 C   0  0  0  0  0  0  0  0  0  0  0  0
   -4.9570   -0.3710    0.5890 N   0  0  0  0  0  0  0  0  0  0  0  0
   -6.1010   -1.1720    0.9540 C   0  0  0  0  0  0  0  0  0  0  0  0
   -4.8560    1.0320    0.7770 C   0  0  0  0  0  0  0  0  0  0  0  0
   -3.5850    1.6280    0.8180 C   0  0  0  0  0  0  0  0  0  0  0  0
   -3.4430    2.9780    1.0190 C   0  0  0  0  0  0  0  0  0  0  0  0
   -2.1140    3.5460    1.0540 N   0  0  0  0  0  0  0  0  0  0  0  0
   -1.0110    2.6860    0.9980 C   0  0  0  0  0  0  0  0  0  0  0  0
   -0.5420    2.0110   -0.0570 C   0  0  0  0  0  0  0  0  0  0  0  0
    0.6510    1.1850    0.2670 C   0  0  0  0  0  0  0  0  0  0  0  0
    1.1190    1.1730    1.4360 O   0  0  0  0  0  0  0  0  0  0  0  0
    1.2850    0.4160   -0.6660 O   0  0  0  0  0  0  0  0  0  0  0  0
    2.4060   -0.3590   -0.3770 C   0  0  0  0  0  0  0  0  0  0  0  0
    3.6040    0.1120   -0.8430 C   0  0  0  0  0  0  0  0  0  0  0  0
    4.7220   -0.6430   -0.5630 C   0  0  0  0  0  0  0  0  0  0  0  0
    4.6130   -1.7980    0.1450 C   0  0  0  0  0  0  0  0  0  0  0  0
    5.6970   -2.6030    0.5130 N   0  0  0  0  0  0  0  0  0  0  0  0
    6.9660   -2.3220    0.0200 C   0  0  0  0  0  0  0  0  0  0  0  0
    7.3540   -1.4640   -0.7700 O   0  0  0  0  0  0  0  0  0  0  0  0
    8.0210   -3.0950    0.4560 N   0  0  0  0  0  0  0  0  0  0  0  0
    9.3280   -2.9820    0.0810 C   0  0  0  0  0  0  0  0  0  0  0  0
   10.1920   -2.4000   -0.7370 O   0  0  0  0  0  0  0  0  0  0  0  0
    9.8880   -3.8570    0.9500 N   0  0  0  0  0  0  0  0  0  0  0  0
   11.1730   -3.9620    0.8270 F   0  0  0  0  0  0  0  0  0  0  0  0
    3.3650   -2.2410    0.6020 C   0  0  0  0  0  0  0  0  0  0  0  0
    3.2450   -3.3890    1.3060 F   0  0  0  0  0  0  0  0  0  0  0  0
    2.2550   -1.5070    0.3330 C   0  0  0  0  0  0  0  0  0  0  0  0
   -1.0420    2.1220   -1.4030 C   0  0  0  0  0  0  0  0  0  0  0  0
   -1.8280    3.1710   -1.7940 C   0  0  0  0  0  0  0  0  0  0  0  0
   -2.3670    3.2230   -3.0840 C   0  0  0  0  0  0  0  0  0  0  0  0
   -3.1460    4.2900   -3.4240 F   0  0  0  0  0  0  0  0  0  0  0  0
   -2.1360    2.2350   -4.0100 C   0  0  0  0  0  0  0  0  0  0  0  0
   -1.3480    1.1760   -3.6290 C   0  0  0  0  0  0  0  0  0  0  0  0
   -1.0290   -0.1050   -4.7810 Cl  0  0  0  0  0  0  0  0  0  0  0  0
   -0.8200    1.1410   -2.3410 C   0  0  0  0  0  0  0  0  0  0  0  0
   -4.5660    3.7540    1.1840 C   0  0  0  0  0  0  0  0  0  0  0  0
   -5.8290    3.2030    1.1500 C   0  0  0  0  0  0  0  0  0  0  0  0
   -5.9700    1.8400    0.9460 C   0  0  0  0  0  0  0  0  0  0  0  0
   -7.5750    1.1150    0.8870 Cl  0  0  0  0  0  0  0  0  0  0  0  0
  1  2  2  0
  2  3  1  0
  3  4  1  0
  4  5  1  0
  4  6  1  0
  6  7  2  0
  6 40  1  0
  7  8  1  0
  8  9  1  0
  8 38  2  0
  9 10  1  0
 10 11  2  3
 11 12  1  0
 11 30  1  0
 12 13  2  0
 12 14  1  0
 14 15  1  0
 15 16  2  0
 15 29  1  0
 16 17  1  0
 17 18  2  0
 18 19  1  0
 18 27  1  0
 19 20  1  0
 20 21  2  0
 20 22  1  0
 22 23  1  0
 23 24  1  0
 23 25  2  3
 25 26  1  0
 27 28  1  0
 27 29  2  0
 30 31  2  0
 30 37  1  0
 31 32  1  0
 32 33  1  0
 32 34  2  0
 34 35  1  0
 35 36  1  0
 35 37  2  0
 38 39  1  0
 39 40  2  0
 40 41  1  0
M  END
