
     RDKit          3D

 41 43  0  0  0  0  0  0  0  0999 V2000
    1.9470   -4.9190   -1.8990 C   0  0  0  0  0  0  0  0  0  0  0  0
    1.1720   -3.6490   -1.6930 C   0  0  0  0  0  0  0  0  0  0  0  0
   -0.1010   -3.5200   -2.1330 C   0  0  0  0  0  0  0  0  0  0  0  0
   -0.7760   -2.3220   -1.9240 C   0  0  0  0  0  0  0  0  0  0  0  0
   -0.2200   -1.2380   -1.2870 C   0  0  0  0  0  0  0  0  0  0  0  0
   -0.8940   -0.0260   -1.0600 N   0  0  0  0  0  0  0  0  0  0  0  0
   -2.1620    0.3250   -1.5950 C   0  0  0  0  0  0  0  0  0  0  0  0
   -2.7550   -0.4740   -2.3510 O   0  0  0  0  0  0  0  0  0  0  0  0
   -2.7880    1.6300   -1.2750 C   0  0  0  0  0  0  0  0  0  0  0  0
   -2.5160    2.7200   -2.1140 C   0  0  0  0  0  0  0  0  0  0  0  0
   -3.0940    3.9290   -1.8410 C   0  0  0  0  0  0  0  0  0  0  0  0
   -3.9240    4.0870   -0.7750 C   0  0  0  0  0  0  0  0  0  0  0  0
   -4.2100    2.9930    0.0820 C   0  0  0  0  0  0  0  0  0  0  0  0
   -5.0420    3.1820    1.1040 O   0  0  0  0  0  0  0  0  0  0  0  0
   -5.0420    3.6000    2.3560 C   0  0  2  0  0  0  0  0  0  0  0  0
   -6.4080    3.5550    2.8250 F   0  0  0  0  0  0  0  0  0  0  0  0
   -4.7170    4.9690    2.5150 F   0  0  0  0  0  0  0  0  0  0  0  0
   -4.1520    2.7600    3.6130 Cl  0  0  0  0  0  0  0  0  0  0  0  0
   -3.6180    1.7490   -0.1890 C   0  0  0  0  0  0  0  0  0  0  0  0
   -3.8910    0.5580    0.5830 C   0  0  0  0  0  0  0  0  0  0  0  0
   -5.0140   -0.2400    0.2970 C   0  0  0  0  0  0  0  0  0  0  0  0
   -5.3270   -1.3720    1.0080 C   0  0  0  0  0  0  0  0  0  0  0  0
   -6.5140   -2.2070    0.6950 C   0  0  0  0  0  0  0  0  0  0  0  0
   -4.5110   -1.7610    2.0580 C   0  0  0  0  0  0  0  0  0  0  0  0
   -4.7510   -2.8630    2.8070 F   0  0  0  0  0  0  0  0  0  0  0  0
   -3.4070   -1.0050    2.3630 C   0  0  0  0  0  0  0  0  0  0  0  0
   -3.1130    0.1450    1.6200 C   0  0  0  0  0  0  0  0  0  0  0  0
   -1.6750    1.0350    2.0670 Cl  0  0  0  0  0  0  0  0  0  0  0  0
    1.1030   -1.3860   -0.8360 C   0  0  0  0  0  0  0  0  0  0  0  0
    1.7300   -0.3130   -0.1690 N   0  0  0  0  0  0  0  0  0  0  0  0
    3.0820   -0.2420    0.2410 C   0  0  0  0  0  0  0  0  0  0  0  0
    3.8580   -1.1790    0.0220 O   0  0  0  0  0  0  0  0  0  0  0  0
    3.5920    0.9250    0.9260 N   0  0  0  0  0  0  0  0  0  0  0  0
    4.9750    0.9630    1.3230 C   0  0  0  0  0  0  0  0  0  0  0  0
    5.8850    0.8430    0.1390 C   0  0  0  0  0  0  0  0  0  0  0  0
    5.3380    0.7280   -1.0050 O   0  0  0  0  0  0  0  0  0  0  0  0
    7.2910    0.8520    0.2510 N   0  0  0  0  0  0  0  0  0  0  0  0
    8.1090    0.7240   -0.9490 C   0  0  0  0  0  0  0  0  0  0  0  0
    7.9870    0.9880    1.4770 C   0  0  0  0  0  0  0  0  0  0  0  0
    7.8700    0.1840    2.4490 N   0  0  0  0  0  0  0  0  0  0  0  0
    1.7720   -2.5870   -1.0470 C   0  0  0  0  0  0  0  0  0  0  0  0
  1  2  1  0
  2  3  2  0
  2 41  1  0
  3  4  1  0
  4  5  2  0
  5  6  1  0
  5 29  1  0
  6  7  1  0
  7  8  2  0
  7  9  1  0
  9 10  2  0
  9 19  1  0
 10 11  1  0
 11 12  2  0
 12 13  1  0
 13 14  1  0
 13 19  2  0
 14 15  1  0
 15 16  1  1
 15 17  1  0
 15 18  1  0
 19 20  1  0
 20 21  2  0
 20 27  1  0
 21 22  1  0
 22 23  1  0
 22 24  2  0
 24 25  1  0
 24 26  1  0
 26 27  2  0
 27 28  1  0
 29 30  1  0
 29 41  2  0
 30 31  1  0
 31 32  2  0
 31 33  1  0
 33 34  1  0
 34 35  1  0
 35 36  2  0
 35 37  1  0
 37 38  1  0
 37 39  1  0
 39 40  2  0
M  END
