
     RDKit          3D

 41 43  0  0  0  0  0  0  0  0999 V2000
    8.1020   -2.3030    2.6730 C   0  0  0  0  0  0  0  0  0  0  0  0
    6.7980   -1.8370    2.1020 C   0  0  0  0  0  0  0  0  0  0  0  0
    6.8030   -0.8130    1.4070 O   0  0  0  0  0  0  0  0  0  0  0  0
    5.5900   -2.5250    2.3350 N   0  0  0  0  0  0  0  0  0  0  0  0
    4.3090   -2.1940    1.8600 C   0  0  0  0  0  0  0  0  0  0  0  0
    3.9910   -1.1180    1.0660 C   0  0  0  0  0  0  0  0  0  0  0  0
    2.6760   -0.8810    0.6490 C   0  0  0  0  0  0  0  0  0  0  0  0
    2.3750    0.2040   -0.1480 C   0  0  0  0  0  0  0  0  0  0  0  0
    1.0530    0.4430   -0.5670 C   0  0  0  0  0  0  0  0  0  0  0  0
    0.7940    1.6080   -1.4130 C   0  0  0  0  0  0  0  0  0  0  0  0
   -0.3660    1.8260   -1.7910 O   0  0  0  0  0  0  0  0  0  0  0  0
    1.7820    2.5220   -1.8420 N   0  0  0  0  0  0  0  0  0  0  0  0
    1.6000    3.6640   -2.6580 C   0  0  0  0  0  0  0  0  0  0  0  0
    0.4520    4.1040   -3.2090 C   0  0  0  0  0  0  0  0  0  0  0  0
    0.3970    5.2550   -4.0020 C   0  0  0  0  0  0  0  0  0  0  0  0
    1.5320    5.9770   -4.2420 C   0  0  0  0  0  0  0  0  0  0  0  0
    1.5100    7.4280   -5.2310 Cl  0  0  0  0  0  0  0  0  0  0  0  0
    2.7160    5.5630   -3.7010 C   0  0  0  0  0  0  0  0  0  0  0  0
    2.7430    4.4320   -2.9270 C   0  0  0  0  0  0  0  0  0  0  0  0
    0.0380   -0.3970   -0.1930 C   0  0  0  0  0  0  0  0  0  0  0  0
   -1.3130   -0.2240   -0.5720 N   0  0  0  0  0  0  0  0  0  0  0  0
   -2.2890   -1.1930   -0.1010 C   0  0  0  0  0  0  0  0  0  0  0  0
   -1.8670   -2.1270    0.6150 O   0  0  0  0  0  0  0  0  0  0  0  0
   -3.6810   -1.0920   -0.4360 C   0  0  0  0  0  0  0  0  0  0  0  0
   -4.0820   -0.1560   -1.1520 O   0  0  0  0  0  0  0  0  0  0  0  0
   -4.6320   -2.0480    0.0340 N   0  0  0  0  0  0  0  0  0  0  0  0
   -6.0240   -1.9590   -0.2940 C   0  0  0  0  0  0  0  0  0  0  0  0
   -6.5660   -0.6370    0.1310 C   0  0  0  0  0  0  0  0  0  0  0  0
   -6.6260   -0.2510    1.4980 C   0  0  0  0  0  0  0  0  0  0  0  0
   -6.2630   -1.0090    2.5030 C   0  0  0  0  0  0  0  0  0  0  0  0
   -6.3830   -0.4680    3.7730 F   0  0  0  0  0  0  0  0  0  0  0  0
   -5.8380   -2.2540    2.3510 F   0  0  0  0  0  0  0  0  0  0  0  0
   -7.0000    0.1890   -0.8330 C   0  0  0  0  0  0  0  0  0  0  0  0
   -6.9120   -0.2460   -2.1440 F   0  0  0  0  0  0  0  0  0  0  0  0
   -7.5560    1.5050   -0.5920 C   0  0  0  0  0  0  0  0  0  0  0  0
   -6.5770    2.7760   -1.4080 Cl  0  0  0  0  0  0  0  0  0  0  0  0
    0.3780   -1.4640    0.5990 N   0  0  0  0  0  0  0  0  0  0  0  0
    1.6330   -1.7020    1.0050 C   0  0  0  0  0  0  0  0  0  0  0  0
    1.9640   -2.7770    1.8010 C   0  0  0  0  0  0  0  0  0  0  0  0
    3.2430   -3.0290    2.2220 C   0  0  0  0  0  0  0  0  0  0  0  0
    3.5040   -4.2360    3.0930 C   0  0  0  0  0  0  0  0  0  0  0  0
  1  2  1  0
  2  3  2  0
  2  4  1  0
  4  5  1  0
  5  6  2  0
  5 40  1  0
  6  7  1  0
  7  8  2  0
  7 38  1  0
  8  9  1  0
  9 10  1  0
  9 20  2  0
 10 11  2  0
 10 12  1  0
 12 13  1  0
 13 14  2  0
 13 19  1  0
 14 15  1  0
 15 16  2  0
 16 17  1  0
 16 18  1  0
 18 19  2  0
 20 21  1  0
 20 37  1  0
 21 22  1  0
 22 23  2  0
 22 24  1  0
 24 25  2  0
 24 26  1  0
 26 27  1  0
 27 28  1  0
 28 29  1  0
 28 33  2  3
 29 30  2  3
 30 31  1  0
 30 32  1  0
 33 34  1  0
 33 35  1  0
 35 36  1  0
 37 38  2  0
 38 39  1  0
 39 40  2  0
 40 41  1  0
M  END
