
     RDKit          3D

 41 43  0  0  0  0  0  0  0  0999 V2000
   -6.9500   -5.8920   -1.2250 C   0  0  0  0  0  0  0  0  0  0  0  0
   -5.6310   -5.3540   -1.1170 O   0  0  0  0  0  0  0  0  0  0  0  0
   -5.4100   -3.9910   -1.0600 C   0  0  0  0  0  0  0  0  0  0  0  0
   -6.4750   -3.0880   -1.1060 C   0  0  0  0  0  0  0  0  0  0  0  0
   -6.2140   -1.7390   -1.0460 C   0  0  0  0  0  0  0  0  0  0  0  0
   -7.2650   -0.8900   -1.0940 F   0  0  0  0  0  0  0  0  0  0  0  0
   -4.9200   -1.2760   -0.9430 C   0  0  0  0  0  0  0  0  0  0  0  0
   -3.8280   -2.1390   -0.8950 C   0  0  0  0  0  0  0  0  0  0  0  0
   -2.4530   -1.6870   -0.7680 C   0  0  0  0  0  0  0  0  0  0  0  0
   -2.1980   -0.7030    0.1110 C   0  0  0  0  0  0  0  0  0  0  0  0
   -0.8740   -0.2760    0.2200 N   0  0  0  0  0  0  0  0  0  0  0  0
   -0.3650    0.7760   -0.3000 C   0  0  0  0  0  0  0  0  0  0  0  0
    1.0390    1.0640   -0.0820 C   0  0  0  0  0  0  0  0  0  0  0  0
    1.7660    0.2410    0.6260 C   0  0  0  0  0  0  0  0  0  0  0  0
    3.1850    0.4050    0.9340 C   0  0  0  0  0  0  0  0  0  0  0  0
    4.1950   -0.4250    0.5430 N   0  0  0  0  0  0  0  0  0  0  0  0
    5.3680   -0.0070    1.0350 C   0  0  0  0  0  0  0  0  0  0  0  0
    6.6630   -0.6800    0.7800 C   0  0  0  0  0  0  0  0  0  0  0  0
    7.7220   -0.2730    1.3020 O   0  0  0  0  0  0  0  0  0  0  0  0
    6.7100   -1.8110   -0.0760 N   0  0  0  0  0  0  0  0  0  0  0  0
    7.9080   -2.5390   -0.3990 C   0  0  0  0  0  0  0  0  0  0  0  0
    7.6010   -3.6290   -1.2980 N   0  0  0  0  0  0  0  0  0  0  0  0
    5.1160    1.1140    1.7600 C   0  0  0  0  0  0  0  0  0  0  0  0
    3.7440    1.3930    1.7110 C   0  0  0  0  0  0  0  0  0  0  0  0
    2.9570    2.7300    2.5380 Cl  0  0  0  0  0  0  0  0  0  0  0  0
    1.6180    2.2200   -0.7140 C   0  0  0  0  0  0  0  0  0  0  0  0
    2.9080    2.5730   -0.7400 N   0  0  0  0  0  0  0  0  0  0  0  0
    3.0600    3.7240   -1.4320 C   0  0  0  0  0  0  0  0  0  0  0  0
    4.3340    4.4790   -1.7120 C   0  0  0  0  0  0  0  0  0  0  0  0
    1.7880    4.0710   -1.8370 C   0  0  0  0  0  0  0  0  0  0  0  0
    1.4840    5.2750   -2.6290 C   0  0  0  0  0  0  0  0  0  0  0  0
    0.9650    3.1580   -1.3940 O   0  0  0  0  0  0  0  0  0  0  0  0
   -3.2120   -0.1920    0.8270 O   0  0  0  0  0  0  0  0  0  0  0  0
   -3.4250    0.8890    1.6200 C   0  0  1  0  0  0  0  0  0  0  0  0
   -3.1890    2.1790    0.8230 C   0  0  0  0  0  0  0  0  0  0  0  0
   -4.9100    0.8450    2.0390 C   0  0  0  0  0  0  0  0  0  0  0  0
   -2.6410    0.9810    2.9020 C   0  0  2  0  0  0  0  0  0  0  0  0
   -1.2780    1.0080    2.7180 F   0  0  0  0  0  0  0  0  0  0  0  0
   -2.9220   -0.0570    3.7610 F   0  0  0  0  0  0  0  0  0  0  0  0
   -3.0880    2.4910    3.7780 Cl  0  0  0  0  0  0  0  0  0  0  0  0
   -4.1280   -3.5000   -0.9570 C   0  0  0  0  0  0  0  0  0  0  0  0
  1  2  1  0
  2  3  1  0
  3  4  2  0
  3 41  1  0
  4  5  1  0
  5  6  1  0
  5  7  2  0
  7  8  1  0
  8  9  1  0
  8 41  2  0
  9 10  2  3
 10 11  1  0
 10 33  1  0
 11 12  2  3
 12 13  1  0
 13 14  2  3
 13 26  1  0
 14 15  1  0
 15 16  1  0
 15 24  2  0
 16 17  1  0
 17 18  1  0
 17 23  2  0
 18 19  2  0
 18 20  1  0
 20 21  1  0
 21 22  1  0
 23 24  1  0
 24 25  1  0
 26 27  2  0
 26 32  1  0
 27 28  1  0
 28 29  1  0
 28 30  2  0
 30 31  1  0
 30 32  1  0
 33 34  1  0
 34 35  1  6
 34 36  1  0
 34 37  1  0
 37 38  1  6
 37 39  1  0
 37 40  1  0
M  END
