
     RDKit          3D

 41 43  0  0  0  0  0  0  0  0999 V2000
   -3.2070    0.0430    5.3230 C   0  0  0  0  0  0  0  0  0  0  0  0
   -4.0570   -0.8740    4.9170 C   0  0  0  0  0  0  0  0  0  0  0  0
   -4.0960   -1.3090    3.5370 C   0  0  0  0  0  0  0  0  0  0  0  0
   -4.9760   -2.2310    3.1470 C   0  0  0  0  0  0  0  0  0  0  0  0
   -5.9400   -2.8430    4.0790 C   0  0  0  0  0  0  0  0  0  0  0  0
   -3.2160   -0.7350    2.5980 N   0  0  0  0  0  0  0  0  0  0  0  0
   -1.8100   -0.9080    2.6550 C   0  0  0  0  0  0  0  0  0  0  0  0
   -1.3070   -1.6000    3.5690 O   0  0  0  0  0  0  0  0  0  0  0  0
   -0.9140   -0.2870    1.6520 C   0  0  0  0  0  0  0  0  0  0  0  0
    0.5440   -0.5210    1.8580 C   0  0  0  0  0  0  0  0  0  0  0  0
    1.2850    0.1440    0.7790 N   0  0  0  0  0  0  0  0  0  0  0  0
    1.7660    1.4890    0.8020 C   0  0  0  0  0  0  0  0  0  0  0  0
    1.6350    2.2630    1.7720 O   0  0  0  0  0  0  0  0  0  0  0  0
    2.3950    1.7040   -0.4950 C   0  0  0  0  0  0  0  0  0  0  0  0
    2.9770    2.7810   -0.9640 C   0  0  0  0  0  0  0  0  0  0  0  0
    3.0820    4.0110   -0.1790 C   0  0  0  0  0  0  0  0  0  0  0  0
    2.2200    5.0060   -0.8010 C   0  0  0  0  0  0  0  0  0  0  0  0
    1.5470    4.8640   -1.8750 O   0  0  0  0  0  0  0  0  0  0  0  0
    2.0280    6.2830   -0.2370 N   0  0  0  0  0  0  0  0  0  0  0  0
    1.2250    7.2350   -0.8750 C   0  0  0  0  0  0  0  0  0  0  0  0
    0.5370    8.1130   -0.4180 N   0  0  0  0  0  0  0  0  0  0  0  0
   -0.1490    8.8400   -1.4660 C   0  0  0  0  0  0  0  0  0  0  0  0
    0.5510    8.5440   -2.5480 C   0  0  0  0  0  0  0  0  0  0  0  0
    1.6750    8.0280   -2.2010 C   0  0  0  0  0  0  0  0  0  0  0  0
    2.9260    8.0840   -2.5990 F   0  0  0  0  0  0  0  0  0  0  0  0
    2.2510    0.4330   -1.2370 C   0  0  0  0  0  0  0  0  0  0  0  0
    2.6640    0.0490   -2.5150 C   0  0  0  0  0  0  0  0  0  0  0  0
    2.4050   -1.2190   -2.9700 C   0  0  0  0  0  0  0  0  0  0  0  0
    1.7320   -2.1640   -2.1990 C   0  0  0  0  0  0  0  0  0  0  0  0
    1.5250   -3.4380   -2.7670 N   0  0  0  0  0  0  0  0  0  0  0  0
    0.6750   -4.4620   -2.2910 C   0  0  0  0  0  0  0  0  0  0  0  0
    0.0180   -4.2350   -1.2450 O   0  0  0  0  0  0  0  0  0  0  0  0
    0.5030   -5.7570   -2.9190 C   0  0  0  0  0  0  0  0  0  0  0  0
   -0.6100   -6.9000   -2.2090 Cl  0  0  0  0  0  0  0  0  0  0  0  0
    1.1490   -6.0810   -3.9980 C   0  0  0  0  0  0  0  0  0  0  0  0
    0.9340   -7.4410   -4.6130 C   0  0  1  0  0  0  0  0  0  0  0  0
    0.4560   -8.2910   -3.6710 F   0  0  0  0  0  0  0  0  0  0  0  0
   -0.0100   -7.3100   -5.6380 F   0  0  0  0  0  0  0  0  0  0  0  0
    2.4800   -8.0600   -5.2580 Cl  0  0  0  0  0  0  0  0  0  0  0  0
    1.3410   -1.7700   -0.9620 C   0  0  0  0  0  0  0  0  0  0  0  0
    1.5860   -0.4880   -0.4650 C   0  0  0  0  0  0  0  0  0  0  0  0
  1  2  2  0
  2  3  1  0
  3  4  2  3
  3  6  1  0
  4  5  1  0
  6  7  1  0
  7  8  2  0
  7  9  1  0
  9 10  1  0
 10 11  1  0
 11 12  1  0
 11 41  1  0
 12 13  2  0
 12 14  1  0
 14 15  2  3
 14 26  1  0
 15 16  1  0
 16 17  1  0
 17 18  2  0
 17 19  1  0
 19 20  1  0
 20 21  2  0
 20 24  1  0
 21 22  1  0
 22 23  2  0
 23 24  2  0
 24 25  1  0
 26 27  2  0
 26 41  1  0
 27 28  1  0
 28 29  2  0
 29 30  1  0
 29 40  1  0
 30 31  1  0
 31 32  2  0
 31 33  1  0
 33 34  1  0
 33 35  2  3
 35 36  1  0
 36 37  1  1
 36 38  1  0
 36 39  1  0
 40 41  2  0
M  END
