
     RDKit          3D

 40 44  0  0  0  0  0  0  0  0999 V2000
    8.6720   -2.3200    2.1960 C   0  0  0  0  0  0  0  0  0  0  0  0
    9.2170   -1.9100    0.5160 S   0  0  0  0  0  0  0  0  0  0  0  0
    7.7390   -1.6940   -0.5180 C   0  0  0  0  0  0  0  0  0  0  0  0
    7.0090   -0.4890   -0.0150 C   0  0  1  0  0  0  0  0  0  0  0  0
    7.8060    0.7840   -0.0660 C   0  0  1  0  0  0  0  0  0  0  0  0
    8.3620    1.3660   -1.3080 C   0  0  0  0  0  0  0  0  0  0  0  0
    7.2550    2.0680   -0.5430 C   0  0  0  0  0  0  0  0  0  0  0  0
    5.6600   -0.3540   -0.6100 N   0  0  0  0  0  0  0  0  0  0  0  0
    5.5020   -0.2480   -2.0220 C   0  0  0  0  0  0  0  0  0  0  0  0
    4.5720   -0.3990    0.2650 C   0  0  0  0  0  0  0  0  0  0  0  0
    4.8180   -0.5890    1.5330 O   0  0  0  0  0  0  0  0  0  0  0  0
    3.1570   -0.2640   -0.0240 C   0  0  0  0  0  0  0  0  0  0  0  0
    2.5480   -0.0080   -1.2200 C   0  0  0  0  0  0  0  0  0  0  0  0
    1.1630    0.0200   -0.9530 C   0  0  0  0  0  0  0  0  0  0  0  0
    1.0070   -0.2190    0.3800 C   0  0  0  0  0  0  0  0  0  0  0  0
   -0.2360   -0.2910    1.1280 C   0  0  0  0  0  0  0  0  0  0  0  0
   -0.0790   -0.5250    2.3810 O   0  0  0  0  0  0  0  0  0  0  0  0
   -1.5430   -0.1310    0.6100 N   0  0  0  0  0  0  0  0  0  0  0  0
   -1.8190    0.1290   -0.7510 C   0  0  0  0  0  0  0  0  0  0  0  0
   -2.1980    1.2330   -1.3420 C   0  0  0  0  0  0  0  0  0  0  0  0
   -2.4400    2.5050   -0.8060 N   0  0  0  0  0  0  0  0  0  0  0  0
   -3.7640    3.0330   -0.9550 C   0  0  0  0  0  0  0  0  0  0  0  0
   -4.8480    2.0730   -1.2580 C   0  0  0  0  0  0  0  0  0  0  0  0
   -4.5890    0.7260   -1.0990 O   0  0  0  0  0  0  0  0  0  0  0  0
   -5.4500   -0.3550   -0.8390 C   0  0  0  0  0  0  0  0  0  0  0  0
   -5.7160   -1.3180   -1.8140 C   0  0  0  0  0  0  0  0  0  0  0  0
   -6.5520   -2.3980   -1.6220 C   0  0  0  0  0  0  0  0  0  0  0  0
   -7.1370   -2.4970   -0.3850 C   0  0  0  0  0  0  0  0  0  0  0  0
   -6.8880   -1.5750    0.5640 N   0  0  0  0  0  0  0  0  0  0  0  0
   -7.3280   -1.4740    1.8560 C   0  0  0  0  0  0  0  0  0  0  0  0
   -8.2730   -2.4620    2.4720 C   0  0  0  0  0  0  0  0  0  0  0  0
   -6.7880   -0.3950    2.4140 N   0  0  0  0  0  0  0  0  0  0  0  0
   -5.9680    0.2450    1.4840 C   0  0  0  0  0  0  0  0  0  0  0  0
   -6.0740   -0.5220    0.3820 C   0  0  0  0  0  0  0  0  0  0  0  0
   -5.2540    1.4600    1.8040 C   0  0  0  0  0  0  0  0  0  0  0  0
   -5.9960    2.5690    1.8870 O   0  0  0  0  0  0  0  0  0  0  0  0
   -3.9110    1.7340    2.0590 N   0  0  0  0  0  0  0  0  0  0  0  0
   -2.7900    0.9190    2.4260 C   0  0  0  0  0  0  0  0  0  0  0  0
   -2.6080   -0.3250    1.6360 C   0  0  0  0  0  0  0  0  0  0  0  0
    2.2030   -0.3760    0.8670 O   0  0  0  0  0  0  0  0  0  0  0  0
  1  2  1  0
  2  3  1  0
  4  3  1  6
  4  5  1  0
  4  8  1  0
  5  6  1  6
  5  7  1  0
  6  7  1  0
  8  9  1  0
  8 10  1  0
 10 11  2  0
 10 12  1  0
 12 13  2  0
 12 40  1  0
 13 14  1  0
 14 15  2  0
 15 16  1  0
 15 40  1  0
 16 17  2  0
 16 18  1  0
 18 19  1  0
 18 39  1  0
 19 20  2  0
 20 21  1  0
 21 22  1  0
 22 23  1  0
 23 24  1  0
 24 25  1  0
 25 26  2  0
 25 34  1  0
 26 27  1  0
 27 28  2  0
 28 29  1  0
 29 30  1  0
 29 34  1  0
 30 31  1  0
 30 32  2  0
 32 33  1  0
 33 34  2  0
 33 35  1  0
 35 36  2  0
 35 37  1  0
 37 38  1  0
 38 39  1  0
M  CHG  1  21   1
M  END
