
     RDKit          3D

 40 44  0  0  0  0  0  0  0  0999 V2000
   -2.4640    4.8850   -2.7690 C   0  0  0  0  0  0  0  0  0  0  0  0
   -2.0540    3.5180   -2.9010 O   0  0  0  0  0  0  0  0  0  0  0  0
   -2.3530    2.5900   -1.9210 C   0  0  0  0  0  0  0  0  0  0  0  0
   -3.0000    3.0400   -0.9280 O   0  0  0  0  0  0  0  0  0  0  0  0
   -1.9340    1.1560   -2.0400 C   0  0  0  0  0  0  0  0  0  0  0  0
   -2.2980    0.3700   -0.8710 N   0  0  2  0  0  0  0  0  0  0  0  0
   -0.9930   -0.0910   -0.3090 C   0  0  0  0  0  0  0  0  0  0  0  0
   -0.0950    0.9460    0.0970 C   0  0  0  0  0  0  0  0  0  0  0  0
   -0.2650    2.1880    0.0450 O   0  0  0  0  0  0  0  0  0  0  0  0
    1.1730    0.5440    0.6400 N   0  0  0  0  0  0  0  0  0  0  0  0
    1.5100   -0.8380    0.7550 C   0  0  0  0  0  0  0  0  0  0  0  0
    2.8160   -1.1390    0.0490 C   0  0  0  0  0  0  0  0  0  0  0  0
    3.6630    0.0370   -0.0250 N   0  0  0  0  0  0  0  0  0  0  0  0
    5.0480   -0.3280   -0.2400 C   0  0  2  0  0  0  0  0  0  0  0  0
    5.6410   -1.1380    0.8680 C   0  0  0  0  0  0  0  0  0  0  0  0
    7.1400   -0.8610    0.9760 C   0  0  0  0  0  0  0  0  0  0  0  0
    7.7510   -0.7400   -0.3990 C   0  0  0  0  0  0  0  0  0  0  0  0
    7.1690    0.4180   -1.1720 C   0  0  0  0  0  0  0  0  0  0  0  0
    5.8860    0.8840   -0.4850 C   0  0  0  0  0  0  0  0  0  0  0  0
    3.4980    0.8350    1.1760 C   0  0  0  0  0  0  0  0  0  0  0  0
    2.1550    1.5210    1.0930 C   0  0  0  0  0  0  0  0  0  0  0  0
   -2.9570   -0.8320   -1.0900 C   0  0  1  0  0  0  0  0  0  0  0  0
   -3.0920   -1.6790    0.0890 C   0  0  0  0  0  0  0  0  0  0  0  0
   -3.2180   -1.6520    1.3290 C   0  0  0  0  0  0  0  0  0  0  0  0
   -3.3100   -2.9640    2.0980 C   0  0  0  0  0  0  0  0  0  0  0  0
   -3.3720   -0.4920    2.2330 C   0  0  0  0  0  0  0  0  0  0  0  0
   -2.6370   -0.3820    3.3820 C   0  0  0  0  0  0  0  0  0  0  0  0
   -2.8170    0.6710    4.2260 C   0  0  0  0  0  0  0  0  0  0  0  0
   -3.7620    1.6430    3.9080 C   0  0  0  0  0  0  0  0  0  0  0  0
   -4.4860    1.5390    2.7800 N   0  0  0  0  0  0  0  0  0  0  0  0
   -4.2950    0.4940    1.9600 C   0  0  0  0  0  0  0  0  0  0  0  0
   -3.1950   -3.2650   -0.8910 S   0  0  0  0  0  0  0  0  0  0  0  0
   -4.3270   -2.4290   -2.0530 C   0  0  0  0  0  0  0  0  0  0  0  0
   -5.2730   -2.9640   -2.8110 N   0  0  0  0  0  0  0  0  0  0  0  0
   -6.0850   -2.1600   -3.5180 C   0  0  0  0  0  0  0  0  0  0  0  0
   -7.0020   -2.6430   -4.2550 O   0  0  0  0  0  0  0  0  0  0  0  0
   -5.9150   -0.8330   -3.4370 N   0  0  0  0  0  0  0  0  0  0  0  0
   -4.9640   -0.2630   -2.6800 C   0  0  0  0  0  0  0  0  0  0  0  0
   -4.8670    0.9670   -2.6490 O   0  0  0  0  0  0  0  0  0  0  0  0
   -4.0960   -1.0440   -1.9310 C   0  0  0  0  0  0  0  0  0  0  0  0
  1  2  1  0
  2  3  1  0
  3  4  2  0
  3  5  1  0
  6  5  1  6
  6  7  1  0
  6 22  1  0
  7  8  1  0
  8  9  2  0
  8 10  1  0
 10 11  1  0
 10 21  1  0
 11 12  1  0
 12 13  1  0
 14 13  1  1
 13 20  1  0
 14 15  1  0
 14 19  1  0
 15 16  1  0
 16 17  1  0
 17 18  1  0
 18 19  1  0
 20 21  1  0
 22 23  1  1
 22 40  1  0
 23 24  2  3
 23 32  1  0
 24 25  1  0
 24 26  1  0
 26 27  2  0
 26 31  1  0
 27 28  1  0
 28 29  2  0
 29 30  1  0
 30 31  2  0
 32 33  1  0
 33 34  1  0
 33 40  2  0
 34 35  1  0
 35 36  2  0
 35 37  1  0
 37 38  1  0
 38 39  2  0
 38 40  1  0
M  CHG  1   6   1
M  END
