
     RDKit          3D

 39 42  0  0  0  0  0  0  0  0999 V2000
   11.8020   -1.5900   -0.1570 C   0  0  0  0  0  0  0  0  0  0  0  0
   11.5020   -0.5720   -1.2140 C   0  0  0  0  0  0  0  0  0  0  0  0
   10.1120   -0.3780   -1.4480 O   0  0  0  0  0  0  0  0  0  0  0  0
    9.3090    0.0240   -0.3780 C   0  0  0  0  0  0  0  0  0  0  0  0
    9.8850    0.1840    0.7290 O   0  0  0  0  0  0  0  0  0  0  0  0
    7.9000    0.2540   -0.5170 C   0  0  0  0  0  0  0  0  0  0  0  0
    7.2170    0.1760   -1.7090 C   0  0  0  0  0  0  0  0  0  0  0  0
    5.8800    0.3980   -1.8310 C   0  0  0  0  0  0  0  0  0  0  0  0
    5.1760    0.7220   -0.6900 C   0  0  0  0  0  0  0  0  0  0  0  0
    3.8500    0.9920   -0.6250 N   0  0  0  0  0  0  0  0  0  0  0  0
    2.9170    1.3000   -1.7790 C   0  0  0  0  0  0  0  0  0  0  0  0
    3.3310    1.3050   -2.8840 O   0  0  0  0  0  0  0  0  0  0  0  0
    1.7190    1.5180   -1.1620 N   0  0  0  0  0  0  0  0  0  0  0  0
    0.7980    1.9570   -2.5970 C   0  0  0  0  0  0  0  0  0  0  0  0
    1.4100    2.0740   -3.5390 O   0  0  0  0  0  0  0  0  0  0  0  0
   -0.5910    2.0500   -2.1930 C   0  0  0  0  0  0  0  0  0  0  0  0
   -0.9550    3.0040   -1.2030 C   0  0  0  0  0  0  0  0  0  0  0  0
   -2.2600    2.9320   -0.7110 C   0  0  0  0  0  0  0  0  0  0  0  0
   -3.0590    2.0190   -1.1740 N   0  0  0  0  0  0  0  0  0  0  0  0
   -2.8330    1.0810   -2.0940 C   0  0  0  0  0  0  0  0  0  0  0  0
   -3.6050   -0.0700   -2.3760 N   0  0  0  0  0  0  0  0  0  0  0  0
   -4.4290   -0.6660   -1.4120 C   0  0  0  0  0  0  0  0  0  0  0  0
   -5.0010   -0.2720   -0.3330 C   0  0  0  0  0  0  0  0  0  0  0  0
   -5.0550    1.0130    0.3600 C   0  0  0  0  0  0  0  0  0  0  0  0
   -5.4930    2.0950   -0.0610 O   0  0  0  0  0  0  0  0  0  0  0  0
   -4.4640    0.7070    1.6830 C   0  0  2  0  0  0  0  0  0  0  0  0
   -3.0080    0.6510    1.8220 C   0  0  0  0  0  0  0  0  0  0  0  0
   -2.1950   -0.2310    1.0980 N   0  0  0  0  0  0  0  0  0  0  0  0
   -0.8800    0.0520    1.4530 O   0  0  0  0  0  0  0  0  0  0  0  0
   -5.2330   -0.5840    2.0080 C   0  0  1  0  0  0  0  0  0  0  0  0
   -6.2610   -0.2080    2.9130 N   0  0  0  0  0  0  0  0  0  0  0  0
   -7.5400   -0.7750    2.8550 C   0  0  0  0  0  0  0  0  0  0  0  0
   -7.8360   -1.7050    1.7260 C   0  0  2  0  0  0  0  0  0  0  0  0
   -7.5990   -3.1590    2.0730 C   0  0  0  0  0  0  0  0  0  0  0  0
   -7.1090   -1.3510    0.4720 C   0  0  0  0  0  0  0  0  0  0  0  0
   -5.6530   -1.1870    0.7140 C   0  0  1  0  0  0  0  0  0  0  0  0
   -1.5110    1.1460   -2.6070 C   0  0  0  0  0  0  0  0  0  0  0  0
    5.8700    0.8050    0.5350 C   0  0  0  0  0  0  0  0  0  0  0  0
    7.1950    0.5810    0.6410 C   0  0  0  0  0  0  0  0  0  0  0  0
  1  2  1  0
  2  3  1  0
  3  4  1  0
  4  5  2  0
  4  6  1  0
  6  7  2  0
  6 39  1  0
  7  8  1  0
  8  9  2  0
  9 10  1  0
  9 38  1  0
 10 11  1  0
 11 12  2  0
 11 13  1  0
 13 14  1  0
 14 15  2  0
 14 16  1  0
 16 17  2  0
 16 37  1  0
 17 18  1  0
 18 19  2  0
 19 20  1  0
 20 21  1  0
 20 37  2  0
 21 22  1  0
 22 23  2  3
 23 24  1  0
 23 36  1  0
 24 25  2  0
 24 26  1  0
 26 27  1  6
 26 30  1  0
 27 28  1  0
 28 29  1  0
 30 31  1  1
 30 36  1  0
 31 32  1  0
 32 33  1  0
 33 34  1  1
 33 35  1  0
 36 35  1  6
 38 39  2  0
M  END
