
     RDKit          3D

 40 43  0  0  0  0  0  0  0  0999 V2000
    8.8370   -3.0960    1.1300 C   0  0  0  0  0  0  0  0  0  0  0  0
    8.2460   -1.9260    1.8500 C   0  0  0  0  0  0  0  0  0  0  0  0
    7.9130   -1.9650    3.0570 O   0  0  0  0  0  0  0  0  0  0  0  0
    8.0480   -0.7800    1.1520 O   0  0  0  0  0  0  0  0  0  0  0  0
    7.4920    0.4300    1.4520 C   0  0  0  0  0  0  0  0  0  0  0  0
    7.5270    1.1510    0.1100 C   0  0  0  0  0  0  0  0  0  0  0  0
    8.7170    1.5230   -0.4310 C   0  0  0  0  0  0  0  0  0  0  0  0
    8.6790    2.2750   -1.6200 C   0  0  0  0  0  0  0  0  0  0  0  0
    9.8350    2.6460   -2.1760 F   0  0  0  0  0  0  0  0  0  0  0  0
    7.4510    2.6000   -2.1750 C   0  0  0  0  0  0  0  0  0  0  0  0
    6.2690    2.2120   -1.6110 C   0  0  0  0  0  0  0  0  0  0  0  0
    6.3060    1.4540   -0.4200 C   0  0  0  0  0  0  0  0  0  0  0  0
    5.0610    0.9120    0.1450 C   0  0  0  0  0  0  0  0  0  0  0  0
    5.1010   -0.6160    0.2960 C   0  0  0  0  0  0  0  0  0  0  0  0
    3.7540   -1.0930    0.2280 N   0  0  0  0  0  0  0  0  0  0  0  0
    2.6440   -0.6330    1.0090 C   0  0  0  0  0  0  0  0  0  0  0  0
    2.7910    0.1770    1.9400 O   0  0  0  0  0  0  0  0  0  0  0  0
    1.3910   -1.0970    0.6400 N   0  0  0  0  0  0  0  0  0  0  0  0
    0.0490   -0.7490    0.9030 C   0  0  0  0  0  0  0  0  0  0  0  0
   -0.1120    0.6180    0.2400 C   0  0  0  0  0  0  0  0  0  0  0  0
    0.8900    1.5400    0.0770 C   0  0  0  0  0  0  0  0  0  0  0  0
    0.2950    2.6930   -0.3560 N   0  0  0  0  0  0  0  0  0  0  0  0
   -1.0010    2.4920   -0.4560 N   0  0  0  0  0  0  0  0  0  0  0  0
   -1.2900    1.1750   -0.0870 C   0  0  0  0  0  0  0  0  0  0  0  0
   -2.5980    0.6160   -0.3120 C   0  0  0  0  0  0  0  0  0  0  0  0
   -3.4510    0.2720    0.6700 C   0  0  0  0  0  0  0  0  0  0  0  0
   -4.7510   -0.1220    0.3100 C   0  0  0  0  0  0  0  0  0  0  0  0
   -5.1670   -0.1640   -0.9870 C   0  0  0  0  0  0  0  0  0  0  0  0
   -6.6260   -0.2660   -1.2290 C   0  0  1  0  0  0  0  0  0  0  0  0
   -7.3520   -1.5140   -1.2290 C   0  0  1  0  0  0  0  0  0  0  0  0
   -6.8620   -2.3750   -2.2390 O   0  0  0  0  0  0  0  0  0  0  0  0
   -7.5930   -2.3030   -0.0150 C   0  0  0  0  0  0  0  0  0  0  0  0
   -8.9870   -2.1290    0.3940 N   0  0  0  0  0  0  0  0  0  0  0  0
   -9.1770   -0.7670    0.8190 C   0  0  0  0  0  0  0  0  0  0  0  0
   -8.0030   -0.3160    1.3930 O   0  0  0  0  0  0  0  0  0  0  0  0
   -7.6260    0.8960    0.8290 C   0  0  0  0  0  0  0  0  0  0  0  0
   -7.2770    0.9420   -0.5660 C   0  0  2  0  0  0  0  0  0  0  0  0
   -8.2590    1.4310   -1.3880 O   0  0  0  0  0  0  0  0  0  0  0  0
   -4.2710    0.1780   -1.9510 N   0  0  0  0  0  0  0  0  0  0  0  0
   -3.0390    0.5530   -1.6560 C   0  0  0  0  0  0  0  0  0  0  0  0
  1  2  1  0
  2  3  2  0
  2  4  1  0
  4  5  1  0
  5  6  1  0
  6  7  2  0
  6 12  1  0
  7  8  1  0
  8  9  1  0
  8 10  2  0
 10 11  1  0
 11 12  2  0
 12 13  1  0
 13 14  1  0
 14 15  1  0
 15 16  1  0
 16 17  2  0
 16 18  1  0
 18 19  1  0
 19 20  1  0
 20 21  2  0
 20 24  1  0
 21 22  1  0
 22 23  1  0
 23 24  2  0
 24 25  1  0
 25 26  2  0
 25 40  1  0
 26 27  1  0
 27 28  2  0
 29 28  1  1
 28 39  1  0
 29 30  1  0
 29 37  1  0
 30 31  1  6
 30 32  1  0
 32 33  1  0
 33 34  1  0
 34 35  1  0
 35 36  1  0
 36 37  1  0
 37 38  1  6
 39 40  2  0
M  END
