
     RDKit          3D

 39 43  0  0  0  0  0  0  0  0999 V2000
   -2.0790   -5.3200   -0.6640 C   0  0  0  0  0  0  0  0  0  0  0  0
   -1.5530   -4.9290   -1.8020 C   0  0  0  0  0  0  0  0  0  0  0  0
   -0.1840   -4.3740   -1.8320 C   0  0  0  0  0  0  0  0  0  0  0  0
    0.4760   -4.2890   -0.5730 N   0  0  0  0  0  0  0  0  0  0  0  0
    0.6540   -3.1610    0.2500 C   0  0  0  0  0  0  0  0  0  0  0  0
    1.2790   -3.2330    1.3560 O   0  0  0  0  0  0  0  0  0  0  0  0
    0.1270   -1.8070   -0.1280 C   0  0  1  0  0  0  0  0  0  0  0  0
   -1.3450   -1.9760   -0.2630 C   0  0  0  0  0  0  0  0  0  0  0  0
   -2.0940   -0.7500    0.2090 N   0  0  0  0  0  0  0  0  0  0  0  0
   -3.0060   -0.2130   -0.6610 C   0  0  0  0  0  0  0  0  0  0  0  0
   -3.2220   -0.9480   -1.7620 O   0  0  0  0  0  0  0  0  0  0  0  0
   -3.7550    1.0060   -0.5680 C   0  0  0  0  0  0  0  0  0  0  0  0
   -3.6730    1.9150    0.3600 C   0  0  0  0  0  0  0  0  0  0  0  0
   -4.4810    3.1530    0.4030 C   0  0  0  0  0  0  0  0  0  0  0  0
   -5.3430    3.3800   -0.5370 C   0  0  0  0  0  0  0  0  0  0  0  0
   -6.2760    4.5150   -0.7530 C   0  0  0  0  0  0  0  0  0  0  0  0
   -6.9860    4.1490   -1.9970 C   0  0  0  0  0  0  0  0  0  0  0  0
   -7.8790    4.8210   -2.5480 O   0  0  0  0  0  0  0  0  0  0  0  0
   -6.4700    2.8840   -2.4640 C   0  0  0  0  0  0  0  0  0  0  0  0
   -5.5400    2.4370   -1.6470 C   0  0  0  0  0  0  0  0  0  0  0  0
   -4.7270    1.2740   -1.6160 N   0  0  0  0  0  0  0  0  0  0  0  0
   -1.6940   -0.4570    1.5250 C   0  0  0  0  0  0  0  0  0  0  0  0
   -0.2840    0.0970    1.3780 C   0  0  0  0  0  0  0  0  0  0  0  0
    0.6080   -0.8000    0.7620 N   0  0  2  0  0  0  0  0  0  0  0  0
    1.6570    0.0240    0.1430 C   0  0  2  0  0  0  0  0  0  0  0  0
    2.7240   -0.7610   -0.5050 C   0  0  0  0  0  0  0  0  0  0  0  0
    2.1580    0.9740    1.1710 C   0  0  0  0  0  0  0  0  0  0  0  0
    3.2330    1.8640    0.6840 C   0  0  0  0  0  0  0  0  0  0  0  0
    3.8130    2.8320    1.4850 C   0  0  0  0  0  0  0  0  0  0  0  0
    4.7810    3.4880    0.7600 C   0  0  0  0  0  0  0  0  0  0  0  0
    5.6740    4.6030    1.1660 C   0  0  2  0  0  0  0  0  0  0  0  0
    6.4930    5.3300    0.1980 C   0  0  0  0  0  0  0  0  0  0  0  0
    7.1620    4.3050    1.0830 C   0  0  0  0  0  0  0  0  0  0  0  0
    4.7910    2.9300   -0.4620 N   0  0  0  0  0  0  0  0  0  0  0  0
    3.8610    1.9620   -0.4920 N   0  0  0  0  0  0  0  0  0  0  0  0
    1.2020   -5.7780    0.0190 S   0  0  1  0  0  0  0  0  0  0  0  0
    0.9520   -5.8300    1.7720 C   0  0  0  0  0  0  0  0  0  0  0  0
    0.4620   -6.9410   -0.5690 O   0  0  0  0  0  0  0  0  0  0  0  0
    2.6320   -5.8730   -0.3560 O   0  0  0  0  0  0  0  0  0  0  0  0
  1  2  2  0
  2  3  1  0
  3  4  1  0
  4  5  1  0
  4 36  1  0
  5  6  2  0
  7  5  1  1
  7  8  1  0
  7 24  1  0
  8  9  1  0
  9 10  1  0
  9 22  1  0
 10 11  2  0
 10 12  1  0
 12 13  2  0
 12 21  1  0
 13 14  1  0
 14 15  2  0
 15 16  1  0
 15 20  1  0
 16 17  1  0
 17 18  2  0
 17 19  1  0
 19 20  2  0
 20 21  1  0
 22 23  1  0
 24 23  1  6
 24 25  1  0
 25 26  1  1
 25 27  1  0
 27 28  1  0
 28 29  1  0
 28 35  2  0
 29 30  2  0
 31 30  1  6
 30 34  1  0
 31 32  1  0
 31 33  1  0
 32 33  1  0
 34 35  1  0
 36 37  1  1
 36 38  2  0
 36 39  2  0
M  CHG  1  24   1
M  END
