
     RDKit          3D

 40 44  0  0  0  0  0  0  0  0999 V2000
    9.6690    2.1980   -1.3170 C   0  0  0  0  0  0  0  0  0  0  0  0
    8.6730    1.3500   -0.7710 O   0  0  0  0  0  0  0  0  0  0  0  0
    8.7260    0.8690    0.5130 C   0  0  0  0  0  0  0  0  0  0  0  0
    9.8010    1.2310    1.3030 C   0  0  0  0  0  0  0  0  0  0  0  0
    9.8920    0.7730    2.5900 C   0  0  0  0  0  0  0  0  0  0  0  0
    8.8970   -0.0420    3.0560 C   0  0  0  0  0  0  0  0  0  0  0  0
    7.8210   -0.4000    2.2530 C   0  0  0  0  0  0  0  0  0  0  0  0
    7.7000    0.0400    0.9640 C   0  0  0  0  0  0  0  0  0  0  0  0
    6.6600   -0.2560    0.0610 N   0  0  0  0  0  0  0  0  0  0  0  0
    5.5320   -1.0770    0.3080 C   0  0  0  0  0  0  0  0  0  0  0  0
    5.3810   -1.6200    1.4020 O   0  0  0  0  0  0  0  0  0  0  0  0
    4.4940   -1.3040   -0.7620 C   0  0  0  0  0  0  0  0  0  0  0  0
    3.4370   -2.2260   -0.2210 C   0  0  0  0  0  0  0  0  0  0  0  0
    2.4230   -2.4190   -1.3470 C   0  0  0  0  0  0  0  0  0  0  0  0
    1.7270   -0.8170   -1.7870 S   0  0  0  0  0  0  0  0  0  0  0  0
    0.7400   -0.1900   -0.4120 C   0  0  2  0  0  0  0  0  0  0  0  0
   -0.4980   -1.0820   -0.1950 C   0  0  0  0  0  0  0  0  0  0  0  0
   -1.4710   -0.5600   -1.2340 C   0  0  1  0  0  0  0  0  0  0  0  0
   -2.8530   -0.8750   -0.8300 C   0  0  0  0  0  0  0  0  0  0  0  0
   -3.0660   -2.1070   -0.7370 O   0  0  0  0  0  0  0  0  0  0  0  0
   -3.8610    0.0580   -0.5680 N   0  0  0  0  0  0  0  0  0  0  0  0
   -3.6230    1.4680   -0.3210 C   0  0  0  0  0  0  0  0  0  0  0  0
   -4.4180    1.8580    0.9320 C   0  0  0  0  0  0  0  0  0  0  0  0
   -3.8990    2.8250    1.7540 C   0  0  0  0  0  0  0  0  0  0  0  0
   -4.6340    3.3730    2.7920 C   0  0  0  0  0  0  0  0  0  0  0  0
   -5.9120    2.9170    2.9790 C   0  0  0  0  0  0  0  0  0  0  0  0
   -6.4110    1.9370    2.1370 C   0  0  0  0  0  0  0  0  0  0  0  0
   -7.6210    1.5390    2.3510 N   0  0  0  0  0  0  0  0  0  0  0  0
   -5.6590    1.4250    1.1360 N   0  0  0  0  0  0  0  0  0  0  0  0
   -6.1430    0.2960    0.4420 C   0  0  0  0  0  0  0  0  0  0  0  0
   -7.3720    0.0050    0.6800 N   0  0  0  0  0  0  0  0  0  0  0  0
   -8.1610   -1.1070    0.1100 C   0  0  0  0  0  0  0  0  0  0  0  0
   -7.8440   -1.1390   -1.3350 N   0  0  0  0  0  0  0  0  0  0  0  0
   -6.7590   -2.0430   -1.5890 C   0  0  0  0  0  0  0  0  0  0  0  0
   -5.4610   -1.3110   -1.4000 C   0  0  0  0  0  0  0  0  0  0  0  0
   -4.4450   -1.4480   -2.4620 C   0  0  0  0  0  0  0  0  0  0  0  0
   -5.1990   -0.4170   -0.4830 C   0  0  0  0  0  0  0  0  0  0  0  0
   -1.1220    0.7590   -1.3940 O   0  0  0  0  0  0  0  0  0  0  0  0
    0.1030    1.0770   -0.8270 C   0  0  0  0  0  0  0  0  0  0  0  0
    0.5330    2.2520   -0.7170 O   0  0  0  0  0  0  0  0  0  0  0  0
  1  2  1  0
  2  3  1  0
  3  4  2  0
  3  8  1  0
  4  5  1  0
  5  6  2  0
  6  7  1  0
  7  8  2  0
  8  9  1  0
  9 10  1  0
 10 11  2  0
 10 12  1  0
 12 13  1  0
 13 14  1  0
 14 15  1  0
 16 15  1  6
 16 17  1  0
 16 39  1  0
 17 18  1  0
 18 19  1  1
 18 38  1  0
 19 20  2  0
 19 21  1  0
 21 22  1  0
 21 37  1  0
 22 23  1  0
 23 24  2  0
 23 29  1  0
 24 25  1  0
 25 26  2  0
 26 27  1  0
 27 28  2  0
 27 29  1  0
 29 30  1  0
 30 31  2  0
 30 37  1  0
 31 32  1  0
 32 33  1  0
 33 34  1  0
 34 35  1  0
 35 36  1  0
 35 37  2  0
 38 39  1  0
 39 40  2  0
M  CHG  1  33   1
M  END
