
     RDKit          3D

 40 44  0  0  0  0  0  0  0  0999 V2000
   -7.7180    2.6130   -1.8380 C   0  0  0  0  0  0  0  0  0  0  0  0
   -6.5040    2.3350   -1.0640 N   0  0  0  0  0  0  0  0  0  0  0  0
   -5.9000    3.3460   -0.2890 C   0  0  0  0  0  0  0  0  0  0  0  0
   -6.4270    4.5130   -0.2830 O   0  0  0  0  0  0  0  0  0  0  0  0
   -4.6940    3.1180    0.5050 C   0  0  0  0  0  0  0  0  0  0  0  0
   -4.2860    1.7330    0.4380 N   0  0  0  0  0  0  0  0  0  0  0  0
   -5.1380    0.7300    0.9670 C   0  0  0  0  0  0  0  0  0  0  0  0
   -6.2440    1.0860    1.4900 O   0  0  0  0  0  0  0  0  0  0  0  0
   -4.7610   -0.6790    0.9130 C   0  0  0  0  0  0  0  0  0  0  0  0
   -3.4770   -0.9780    0.3660 N   0  0  0  0  0  0  0  0  0  0  0  0
   -2.2480   -0.5600    0.9370 C   0  0  0  0  0  0  0  0  0  0  0  0
   -2.3980    0.1280    2.0190 O   0  0  0  0  0  0  0  0  0  0  0  0
   -0.8980   -0.8320    0.4190 C   0  0  2  0  0  0  0  0  0  0  0  0
   -0.6770   -1.1700   -0.9760 C   0  0  1  0  0  0  0  0  0  0  0  0
    0.5690   -0.7220   -1.7220 C   0  0  0  0  0  0  0  0  0  0  0  0
    0.5700   -0.6130   -2.9510 O   0  0  0  0  0  0  0  0  0  0  0  0
    1.7200   -0.4370   -0.9690 N   0  0  0  0  0  0  0  0  0  0  0  0
    2.9640   -0.0150   -1.5190 C   0  0  0  0  0  0  0  0  0  0  0  0
    3.3000   -0.1730   -2.8280 C   0  0  0  0  0  0  0  0  0  0  0  0
    4.5090    0.2770   -3.3090 C   0  0  0  0  0  0  0  0  0  0  0  0
    5.3740    0.8910   -2.4360 C   0  0  0  0  0  0  0  0  0  0  0  0
    6.5990    1.4000   -2.6230 N   0  0  0  0  0  0  0  0  0  0  0  0
    7.0380    1.8660   -1.4980 N   0  0  0  0  0  0  0  0  0  0  0  0
    6.1140    1.6900   -0.4890 C   0  0  0  0  0  0  0  0  0  0  0  0
    6.3530    2.0890    0.8970 C   0  0  0  0  0  0  0  0  0  0  0  0
    5.4760    2.1600    1.8550 C   0  0  0  0  0  0  0  0  0  0  0  0
    5.7630    2.5720    3.2750 C   0  0  0  0  0  0  0  0  0  0  0  0
    7.1050    2.8550    3.4720 O   0  0  0  0  0  0  0  0  0  0  0  0
    8.0720    2.7980    2.4990 C   0  0  0  0  0  0  0  0  0  0  0  0
    7.7420    2.4400    1.2790 C   0  0  0  0  0  0  0  0  0  0  0  0
    8.6870    2.3710    0.2870 F   0  0  0  0  0  0  0  0  0  0  0  0
    5.0490    1.0660   -1.0820 C   0  0  0  0  0  0  0  0  0  0  0  0
    3.8470    0.6140   -0.6200 C   0  0  0  0  0  0  0  0  0  0  0  0
   -0.3850   -2.1890    0.0970 C   0  0  2  0  0  0  0  0  0  0  0  0
   -1.1710   -3.4160    0.1530 C   0  0  0  0  0  0  0  0  0  0  0  0
   -2.1480   -3.9420   -0.6670 C   0  0  0  0  0  0  0  0  0  0  0  0
   -2.5370   -5.1330   -0.1190 C   0  0  0  0  0  0  0  0  0  0  0  0
   -1.8030   -5.3180    1.0160 C   0  0  0  0  0  0  0  0  0  0  0  0
   -1.8470   -6.4680    1.9840 C   0  0  0  0  0  0  0  0  0  0  0  0
   -1.0240   -4.3060    1.1410 O   0  0  0  0  0  0  0  0  0  0  0  0
  1  2  1  0
  2  3  1  0
  3  4  2  0
  3  5  1  0
  5  6  1  0
  6  7  1  0
  7  8  2  0
  7  9  1  0
  9 10  1  0
 10 11  1  0
 11 12  2  0
 13 11  1  6
 13 14  1  0
 13 34  1  0
 14 15  1  1
 14 34  1  0
 15 16  2  0
 15 17  1  0
 17 18  1  0
 18 19  2  0
 18 33  1  0
 19 20  1  0
 20 21  2  0
 21 22  1  0
 21 32  1  0
 22 23  1  0
 23 24  2  0
 24 25  1  0
 24 32  1  0
 25 26  2  0
 25 30  1  0
 26 27  1  0
 27 28  1  0
 28 29  1  0
 29 30  2  0
 30 31  1  0
 32 33  2  0
 34 35  1  6
 35 36  2  0
 35 40  1  0
 36 37  1  0
 37 38  2  0
 38 39  1  0
 38 40  1  0
M  END
