
     RDKit          3D

 40 44  0  0  0  0  0  0  0  0999 V2000
   -0.8340    2.2080   -2.1620 O   0  0  0  0  0  0  0  0  0  0  0  0
   -0.7190    1.5450   -1.0740 C   0  0  0  0  0  0  0  0  0  0  0  0
    0.5880    1.2200   -0.6210 N   0  0  0  0  0  0  0  0  0  0  0  0
    1.6710    1.7670   -1.4370 C   0  0  0  0  0  0  0  0  0  0  0  0
    2.1030    0.9250   -2.5400 C   0  0  0  0  0  0  0  0  0  0  0  0
    1.3160   -0.0170   -3.1280 C   0  0  0  0  0  0  0  0  0  0  0  0
    1.7680   -0.8100   -4.1860 C   0  0  0  0  0  0  0  0  0  0  0  0
    3.0300   -0.6500   -4.6570 C   0  0  0  0  0  0  0  0  0  0  0  0
    3.8570    0.3040   -4.0780 C   0  0  0  0  0  0  0  0  0  0  0  0
    3.3960    1.0800   -3.0320 C   0  0  0  0  0  0  0  0  0  0  0  0
    0.9350    0.4670    0.5570 C   0  0  2  0  0  0  0  0  0  0  0  0
    2.3840    0.1230    0.6690 C   0  0  0  0  0  0  0  0  0  0  0  0
    2.9360   -0.6340   -0.3540 O   0  0  0  0  0  0  0  0  0  0  0  0
    4.2730   -0.9460   -0.2780 C   0  0  0  0  0  0  0  0  0  0  0  0
    4.9030   -1.6790   -1.2400 C   0  0  0  0  0  0  0  0  0  0  0  0
    6.2650   -1.9910   -1.1580 C   0  0  0  0  0  0  0  0  0  0  0  0
    7.0040   -1.5570   -0.0860 C   0  0  0  0  0  0  0  0  0  0  0  0
    6.3820   -0.8190    0.8900 C   0  0  0  0  0  0  0  0  0  0  0  0
    5.0300   -0.5200    0.7890 C   0  0  0  0  0  0  0  0  0  0  0  0
    0.0060   -0.6000    0.9910 C   0  0  2  0  0  0  0  0  0  0  0  0
    0.7280   -1.8040    1.2610 O   0  0  0  0  0  0  0  0  0  0  0  0
   -1.1080   -0.9970    0.1040 C   0  0  1  0  0  0  0  0  0  0  0  0
   -1.5660   -2.2990    0.3610 O   0  0  0  0  0  0  0  0  0  0  0  0
   -2.3220   -0.0770    0.1250 C   0  0  1  0  0  0  0  0  0  0  0  0
   -3.0010   -0.0480    1.4390 C   0  0  0  0  0  0  0  0  0  0  0  0
   -3.2890   -1.2900    1.9240 O   0  0  0  0  0  0  0  0  0  0  0  0
   -4.0620   -2.3310    1.5580 C   0  0  0  0  0  0  0  0  0  0  0  0
   -4.8920   -2.4310    0.4690 C   0  0  0  0  0  0  0  0  0  0  0  0
   -5.6160   -3.5850    0.2440 C   0  0  0  0  0  0  0  0  0  0  0  0
   -5.5600   -4.6790    1.0680 C   0  0  0  0  0  0  0  0  0  0  0  0
   -4.7260   -4.5730    2.1600 C   0  0  0  0  0  0  0  0  0  0  0  0
   -3.9920   -3.4510    2.4200 C   0  0  0  0  0  0  0  0  0  0  0  0
   -1.9670    1.2080   -0.4320 N   0  0  0  0  0  0  0  0  0  0  0  0
   -2.9300    2.2980   -0.4020 C   0  0  0  0  0  0  0  0  0  0  0  0
   -2.5740    3.1980    0.7400 C   0  0  0  0  0  0  0  0  0  0  0  0
   -1.4350    3.9830    0.6860 C   0  0  0  0  0  0  0  0  0  0  0  0
   -1.1260    4.8130    1.7600 C   0  0  0  0  0  0  0  0  0  0  0  0
   -1.8980    4.8990    2.8910 C   0  0  0  0  0  0  0  0  0  0  0  0
   -3.0250    4.1110    2.9220 C   0  0  0  0  0  0  0  0  0  0  0  0
   -3.3490    3.2720    1.8480 C   0  0  0  0  0  0  0  0  0  0  0  0
  1  2  2  0
  2  3  1  0
  2 33  1  0
  3  4  1  0
  3 11  1  0
  4  5  1  0
  5  6  2  0
  5 10  1  0
  6  7  1  0
  7  8  2  0
  8  9  1  0
  9 10  2  0
 11 12  1  6
 11 20  1  0
 12 13  1  0
 13 14  1  0
 14 15  2  0
 14 19  1  0
 15 16  1  0
 16 17  2  0
 17 18  1  0
 18 19  2  0
 20 21  1  6
 20 22  1  0
 22 23  1  1
 22 24  1  0
 24 25  1  1
 24 33  1  0
 25 26  1  0
 26 27  1  0
 27 28  2  0
 27 32  1  0
 28 29  1  0
 29 30  2  0
 30 31  1  0
 31 32  2  0
 33 34  1  0
 34 35  1  0
 35 36  2  0
 35 40  1  0
 36 37  1  0
 37 38  2  0
 38 39  1  0
 39 40  2  0
M  END
