
     RDKit          3D

 31 33  0  0  0  0  0  0  0  0999 V2000
    7.0870   -0.1530    2.5320 O   0  0  0  0  0  0  0  0  0  0  0  0
    6.1740   -0.9830    2.2810 C   0  0  0  0  0  0  0  0  0  0  0  0
    6.3740   -2.2770    2.7250 O   0  0  0  0  0  0  0  0  0  0  0  0
    4.9810   -0.5700    1.5560 C   0  0  0  0  0  0  0  0  0  0  0  0
    4.8560    0.7450    1.1440 C   0  0  0  0  0  0  0  0  0  0  0  0
    3.7260    1.1250    0.4610 C   0  0  0  0  0  0  0  0  0  0  0  0
    2.6840    0.2500    0.1560 C   0  0  0  0  0  0  0  0  0  0  0  0
    1.5650    0.7380   -0.5530 N   0  0  0  0  0  0  0  0  0  0  0  0
    0.4040    0.0220   -0.9090 C   0  0  0  0  0  0  0  0  0  0  0  0
    0.2940   -1.1730   -0.5900 O   0  0  0  0  0  0  0  0  0  0  0  0
   -0.7200    0.6780   -1.6740 C   0  0  2  0  0  0  0  0  0  0  0  0
   -1.1750    1.8790   -0.8750 C   0  0  0  0  0  0  0  0  0  0  0  0
   -2.3040    2.5350   -1.6470 C   0  0  0  0  0  0  0  0  0  0  0  0
   -1.7510    3.0810   -3.3240 P   0  0  0  0  0  0  0  0  0  0  0  0
   -2.4260    4.6500   -3.7200 O   0  0  0  0  0  0  0  0  0  0  0  0
   -0.0350    3.2140   -3.4470 O   0  0  0  0  0  0  0  0  0  0  0  0
   -1.7440   -0.2850   -1.8850 N   0  0  0  0  0  0  0  0  0  0  0  0
   -2.3900   -0.9220   -0.7960 C   0  0  0  0  0  0  0  0  0  0  0  0
   -2.2550   -0.5780    0.4380 N   0  0  0  0  0  0  0  0  0  0  0  0
   -3.0600   -1.4510    1.2400 C   0  0  0  0  0  0  0  0  0  0  0  0
   -3.2970   -1.5500    2.5710 N   0  0  0  0  0  0  0  0  0  0  0  0
   -4.1180   -2.4890    3.0680 C   0  0  0  0  0  0  0  0  0  0  0  0
   -4.3430   -2.5860    4.3070 O   0  0  0  0  0  0  0  0  0  0  0  0
   -4.7360   -3.3620    2.2790 O   0  0  0  0  0  0  0  0  0  0  0  0
   -4.5520   -3.3260    0.9710 C   0  0  0  0  0  0  0  0  0  0  0  0
   -5.1130   -4.1280    0.1920 O   0  0  0  0  0  0  0  0  0  0  0  0
   -3.7120   -2.3690    0.4440 C   0  0  0  0  0  0  0  0  0  0  0  0
   -3.2930   -2.0530   -0.9300 C   0  0  0  0  0  0  0  0  0  0  0  0
   -3.6580   -2.6540   -1.9800 O   0  0  0  0  0  0  0  0  0  0  0  0
    2.8410   -1.0370    0.5770 C   0  0  0  0  0  0  0  0  0  0  0  0
    3.9790   -1.4720    1.2790 C   0  0  0  0  0  0  0  0  0  0  0  0
  1  2  2  0
  2  3  1  0
  2  4  1  0
  4  5  2  0
  4 31  1  0
  5  6  1  0
  6  7  2  0
  7  8  1  0
  7 30  1  0
  8  9  1  0
  9 10  2  0
  9 11  1  0
 11 12  1  1
 11 17  1  0
 12 13  1  0
 13 14  1  0
 14 15  1  0
 14 16  1  0
 17 18  1  0
 18 19  2  0
 18 28  1  0
 19 20  1  0
 20 21  1  0
 20 27  2  0
 21 22  1  0
 22 23  2  0
 22 24  1  0
 24 25  1  0
 25 26  2  0
 25 27  1  0
 27 28  1  0
 28 29  2  0
 30 31  2  0
M  END
