
     RDKit          3D

 31 33  0  0  0  0  0  0  0  0999 V2000
   -9.0200    0.9260    1.5870 N   0  0  0  0  0  0  0  0  0  0  0  0
   -7.7320    0.4850    2.0100 C   0  0  0  0  0  0  0  0  0  0  0  0
   -7.5200    0.1550    3.2020 O   0  0  0  0  0  0  0  0  0  0  0  0
   -6.6720    0.4170    1.0690 N   0  0  0  0  0  0  0  0  0  0  0  0
   -5.3710   -0.0290    1.4980 C   0  0  2  0  0  0  0  0  0  0  0  0
   -4.2160    0.8140    1.0010 C   0  0  0  0  0  0  0  0  0  0  0  0
   -3.9330   -0.1280   -0.0570 N   0  0  0  0  0  0  0  0  0  0  0  0
   -3.1480   -0.1160   -1.2350 C   0  0  0  0  0  0  0  0  0  0  0  0
   -2.4900    0.9210   -1.5330 O   0  0  0  0  0  0  0  0  0  0  0  0
   -3.0510   -1.1840   -2.0980 O   0  0  0  0  0  0  0  0  0  0  0  0
   -2.2450   -1.1150   -3.2690 C   0  0  0  0  0  0  0  0  0  0  0  0
   -0.8900   -0.8690   -2.8880 O   0  0  0  0  0  0  0  0  0  0  0  0
   -0.1700   -1.7050   -2.0860 C   0  0  0  0  0  0  0  0  0  0  0  0
   -0.6910   -2.7590   -1.6380 O   0  0  0  0  0  0  0  0  0  0  0  0
    1.2180   -1.3970   -1.7300 C   0  0  2  0  0  0  0  0  0  0  0  0
    1.8180   -2.4870   -0.8220 C   0  0  0  0  0  0  0  0  0  0  0  0
    3.0410   -1.7210   -0.2250 C   0  0  0  0  0  0  0  0  0  0  0  0
    2.7530   -0.3500   -0.3700 N   0  0  0  0  0  0  0  0  0  0  0  0
    3.5270    0.8030   -0.1800 C   0  0  0  0  0  0  0  0  0  0  0  0
    2.9740    1.9580   -0.4610 O   0  0  0  0  0  0  0  0  0  0  0  0
    4.8870    0.9270    0.2930 C   0  0  0  0  0  0  0  0  0  0  0  0
    5.4670    2.1290    0.3790 C   0  0  0  0  0  0  0  0  0  0  0  0
    6.8310    2.3190    0.8470 C   0  0  1  0  0  0  0  0  0  0  0  0
    7.6160    2.9160   -0.1690 O   0  0  0  0  0  0  0  0  0  0  0  0
    6.8770    3.5510    2.2600 P   0  0  0  0  0  0  0  0  0  0  0  0
    8.1890    4.3120    2.6040 O   0  0  0  0  0  0  0  0  0  0  0  0
    7.4690    1.1640    1.2450 O   0  0  0  0  0  0  0  0  0  0  0  0
    6.9280   -0.0740    1.1790 C   0  0  0  0  0  0  0  0  0  0  0  0
    5.6700   -0.2040    0.7170 C   0  0  0  0  0  0  0  0  0  0  0  0
    1.3370   -0.2420   -0.7680 C   0  0  0  0  0  0  0  0  0  0  0  0
   -4.7860   -1.0930    0.5830 C   0  0  0  0  0  0  0  0  0  0  0  0
  1  2  1  0
  2  3  2  0
  2  4  1  0
  5  4  1  6
  5  6  1  0
  5 31  1  0
  6  7  1  0
  7  8  1  0
  7 31  1  0
  8  9  2  0
  8 10  1  0
 10 11  1  0
 11 12  1  0
 12 13  1  0
 13 14  2  0
 15 13  1  1
 15 16  1  0
 15 30  1  0
 16 17  1  0
 17 18  1  0
 18 19  1  0
 18 30  1  0
 19 20  2  0
 19 21  1  0
 21 22  2  0
 21 29  1  0
 22 23  1  0
 23 24  1  6
 23 25  1  0
 23 27  1  0
 25 26  2  0
 27 28  1  0
 28 29  2  0
M  END
