
     RDKit          3D

 31 33  0  0  0  0  0  0  0  0999 V2000
    0.3720   -1.7650    0.2100 O   0  0  0  0  0  0  0  0  0  0  0  0
    1.5480   -1.3280    0.2300 C   0  0  0  0  0  0  0  0  0  0  0  0
    2.5770   -2.3090    0.0870 N   0  0  0  0  0  0  0  0  0  0  0  0
    2.2900   -3.7150   -0.0700 C   0  0  0  0  0  0  0  0  0  0  0  0
    3.5950   -4.4670   -0.1930 C   0  0  0  0  0  0  0  0  0  0  0  0
    4.3920   -4.2880    0.9510 O   0  0  0  0  0  0  0  0  0  0  0  0
    1.8230    0.0810    0.3880 C   0  0  0  0  0  0  0  0  0  0  0  0
    0.8110    0.9180    0.5130 C   0  0  0  0  0  0  0  0  0  0  0  0
   -0.5410    0.4850    0.4980 N   0  0  0  0  0  0  0  0  0  0  0  0
   -1.1430    0.3760   -0.6350 C   0  0  0  0  0  0  0  0  0  0  0  0
   -0.5380    0.6570   -1.8070 N   0  0  0  0  0  0  0  0  0  0  0  0
   -1.1810    0.5380   -2.9820 C   0  0  0  0  0  0  0  0  0  0  0  0
   -2.4570    0.1270   -2.9580 N   0  0  0  0  0  0  0  0  0  0  0  0
   -3.1280   -0.1740   -1.8060 C   0  0  0  0  0  0  0  0  0  0  0  0
   -2.4740   -0.0520   -0.6010 C   0  0  0  0  0  0  0  0  0  0  0  0
   -3.0320   -0.3860    0.6880 C   0  0  0  0  0  0  0  0  0  0  0  0
   -2.3180   -1.0290    1.5450 O   0  0  0  0  0  0  0  0  0  0  0  0
   -4.3890   -0.0070    1.0410 C   0  0  0  0  0  0  0  0  0  0  0  0
   -4.8920   -0.3970    2.2320 C   0  0  0  0  0  0  0  0  0  0  0  0
   -6.2540   -0.0730    2.6960 C   0  0  0  0  0  0  0  0  0  0  0  0
   -6.9730    0.7640    1.8390 O   0  0  0  0  0  0  0  0  0  0  0  0
   -6.4940    1.1830    0.6250 C   0  0  0  0  0  0  0  0  0  0  0  0
   -5.2700    0.8180    0.2450 C   0  0  0  0  0  0  0  0  0  0  0  0
    1.0940    2.2840    0.6660 O   0  0  0  0  0  0  0  0  0  0  0  0
    2.4000    2.7850    0.7880 C   0  0  0  0  0  0  0  0  0  0  0  0
    3.3100    1.9090   -0.0500 C   0  0  1  0  0  0  0  0  0  0  0  0
    4.6490    2.2400    0.1250 O   0  0  0  0  0  0  0  0  0  0  0  0
    5.4440    2.6630   -1.3340 P   0  0  0  0  0  0  0  0  0  0  0  0
    7.0170    3.2910   -0.9300 O   0  0  0  0  0  0  0  0  0  0  0  0
    4.6030    3.8980   -2.2130 O   0  0  0  0  0  0  0  0  0  0  0  0
    3.1400    0.5820    0.4120 O   0  0  0  0  0  0  0  0  0  0  0  0
  1  2  2  0
  2  3  1  0
  2  7  1  0
  3  4  1  0
  4  5  1  0
  5  6  1  0
  7  8  2  0
  7 31  1  0
  8  9  1  0
  8 24  1  0
  9 10  2  3
 10 11  1  0
 10 15  1  0
 11 12  2  0
 12 13  1  0
 13 14  1  0
 14 15  2  0
 15 16  1  0
 16 17  2  0
 16 18  1  0
 18 19  2  0
 18 23  1  0
 19 20  1  0
 20 21  1  0
 21 22  1  0
 22 23  2  0
 24 25  1  0
 25 26  1  0
 26 27  1  1
 26 31  1  0
 27 28  1  0
 28 29  1  0
 28 30  1  0
M  END
