
     RDKit          3D

 31 33  0  0  0  0  0  0  0  0999 V2000
    4.1210    2.7080    1.9950 C   0  0  0  0  0  0  0  0  0  0  0  0
    4.3700    1.3140    1.4610 C   0  0  1  0  0  0  0  0  0  0  0  0
    3.1540    0.5170    1.3490 C   0  0  0  0  0  0  0  0  0  0  0  0
    2.3850    0.1650    2.2920 O   0  0  0  0  0  0  0  0  0  0  0  0
    2.9680    0.1910   -0.0250 N   0  0  0  0  0  0  0  0  0  0  0  0
    2.0910   -0.5180   -0.9830 C   0  0  0  0  0  0  0  0  0  0  0  0
    1.0660   -1.3880   -0.4500 C   0  0  0  0  0  0  0  0  0  0  0  0
    0.6710   -1.1280    0.7760 O   0  0  0  0  0  0  0  0  0  0  0  0
    0.4040   -2.4860   -0.9810 N   0  0  0  0  0  0  0  0  0  0  0  0
   -0.6500   -3.1650   -0.2010 C   0  0  0  0  0  0  0  0  0  0  0  0
   -1.7700   -2.2080    0.0350 C   0  0  0  0  0  0  0  0  0  0  0  0
   -2.2530   -1.8100   -1.2150 O   0  0  0  0  0  0  0  0  0  0  0  0
   -3.5460   -0.7080   -1.1410 P   0  0  0  0  0  0  0  0  0  0  0  0
   -4.9880   -1.2880   -1.8990 O   0  0  0  0  0  0  0  0  0  0  0  0
   -3.8630   -0.0190    0.5360 C   0  0  1  0  0  0  0  0  0  0  0  0
   -4.2930    1.4250    0.3720 C   0  0  0  0  0  0  0  0  0  0  0  0
   -4.5620    1.9810    1.7470 C   0  0  0  0  0  0  0  0  0  0  0  0
   -5.7230    1.1600    2.3220 C   0  0  0  0  0  0  0  0  0  0  0  0
   -5.2760   -0.1340    2.4360 O   0  0  0  0  0  0  0  0  0  0  0  0
   -4.9970   -0.7450    1.2380 C   0  0  0  0  0  0  0  0  0  0  0  0
    2.5980   -0.3690   -2.1810 C   0  0  0  0  0  0  0  0  0  0  0  0
    2.0870   -0.8570   -3.4480 C   0  0  0  0  0  0  0  0  0  0  0  0
    0.8610   -1.5130   -3.6500 N   0  0  0  0  0  0  0  0  0  0  0  0
    2.7410   -0.7290   -4.5430 O   0  0  0  0  0  0  0  0  0  0  0  0
    3.8110    0.4230   -2.1150 N   0  0  0  0  0  0  0  0  0  0  0  0
    4.6830    0.8450   -3.1320 C   0  0  0  0  0  0  0  0  0  0  0  0
    4.5470    0.6030   -4.3340 O   0  0  0  0  0  0  0  0  0  0  0  0
    5.8370    1.6170   -2.8450 O   0  0  0  0  0  0  0  0  0  0  0  0
    4.0310    0.7720   -0.7200 C   0  0  0  0  0  0  0  0  0  0  0  0
    4.8620    1.4260    0.0730 C   0  0  0  0  0  0  0  0  0  0  0  0
    6.0170    2.1090   -0.3440 O   0  0  0  0  0  0  0  0  0  0  0  0
  2  1  1  6
  2  3  1  0
  2 30  1  0
  3  4  2  0
  3  5  1  0
  5  6  1  0
  5 29  1  0
  6  7  1  0
  6 21  2  0
  7  8  2  0
  7  9  1  0
  9 10  1  0
 10 11  1  0
 11 12  1  0
 12 13  1  0
 13 14  1  0
 15 13  1  6
 15 16  1  0
 15 20  1  0
 16 17  1  0
 17 18  1  0
 18 19  1  0
 19 20  1  0
 21 22  1  0
 21 25  1  0
 22 23  1  0
 22 24  2  0
 25 26  1  0
 25 29  1  0
 26 27  2  0
 26 28  1  0
 29 30  2  0
 30 31  1  0
M  END
