
     RDKit          3D

 30 32  0  0  0  0  0  0  0  0999 V2000
    0.0610   -4.6370    2.3370 C   0  0  0  0  0  0  0  0  0  0  0  0
    0.0690   -3.5500    1.4450 O   0  0  0  0  0  0  0  0  0  0  0  0
   -0.3460   -2.2830    1.7700 C   0  0  0  0  0  0  0  0  0  0  0  0
   -0.7630   -2.0330    2.9120 O   0  0  0  0  0  0  0  0  0  0  0  0
   -0.2770   -1.2340    0.7140 C   0  0  2  0  0  0  0  0  0  0  0  0
    1.1300   -1.1420    0.2920 C   0  0  0  0  0  0  0  0  0  0  0  0
    1.7910    0.0070    0.0930 N   0  0  0  0  0  0  0  0  0  0  0  0
    3.0400   -0.2980   -0.2800 C   0  0  0  0  0  0  0  0  0  0  0  0
    4.0790    0.6690   -0.5970 C   0  0  0  0  0  0  0  0  0  0  0  0
    5.3400    0.2540   -0.9700 C   0  0  0  0  0  0  0  0  0  0  0  0
    6.3440    1.1790   -1.2740 C   0  0  0  0  0  0  0  0  0  0  0  0
    6.0570    2.5270   -1.1960 C   0  0  0  0  0  0  0  0  0  0  0  0
    7.0300    3.4640   -1.4910 O   0  0  0  0  0  0  0  0  0  0  0  0
    4.8020    2.9130   -0.8240 C   0  0  0  0  0  0  0  0  0  0  0  0
    3.8470    1.9840   -0.5340 N   0  0  0  0  0  0  0  0  0  0  0  0
    3.1300   -1.6400   -0.3070 N   0  0  0  0  0  0  0  0  0  0  0  0
    1.9900   -2.1000    0.0350 O   0  0  0  0  0  0  0  0  0  0  0  0
   -0.7150    0.1050    1.2450 C   0  0  0  0  0  0  0  0  0  0  0  0
   -1.2790    0.8340    0.1040 N   0  0  0  0  0  0  0  0  0  0  0  0
   -2.2890    1.7540    0.5500 C   0  0  0  0  0  0  0  0  0  0  0  0
   -2.8340    2.6110   -0.5520 C   0  0  1  0  0  0  0  0  0  0  0  0
   -3.4150    1.8650   -1.5610 O   0  0  0  0  0  0  0  0  0  0  0  0
   -4.1800    3.6830    0.1720 P   0  0  0  0  0  0  0  0  0  0  0  0
   -5.6720    2.7860    0.1210 O   0  0  0  0  0  0  0  0  0  0  0  0
   -4.3350    5.1790   -0.6840 O   0  0  0  0  0  0  0  0  0  0  0  0
   -1.7210   -0.1640   -0.8180 C   0  0  0  0  0  0  0  0  0  0  0  0
   -1.2370   -1.4940   -0.3770 C   0  0  1  0  0  0  0  0  0  0  0  0
   -0.7120   -2.3580   -1.4890 C   0  0  0  0  0  0  0  0  0  0  0  0
   -2.4180   -2.2680    0.2280 C   0  0  0  0  0  0  0  0  0  0  0  0
   -3.3410   -2.5270   -0.7830 O   0  0  0  0  0  0  0  0  0  0  0  0
  1  2  1  0
  2  3  1  0
  3  4  2  0
  5  3  1  1
  5  6  1  0
  5 18  1  0
  5 27  1  0
  6  7  2  0
  6 17  1  0
  7  8  1  0
  8  9  1  0
  8 16  2  0
  9 10  2  0
  9 15  1  0
 10 11  1  0
 11 12  2  0
 12 13  1  0
 12 14  1  0
 14 15  2  0
 16 17  1  0
 18 19  1  0
 19 20  1  0
 19 26  1  0
 20 21  1  0
 21 22  1  6
 21 23  1  0
 23 24  1  0
 23 25  1  0
 26 27  1  0
 27 28  1  6
 27 29  1  0
 29 30  1  0
M  END
