
     RDKit          3D

 31 33  0  0  0  0  0  0  0  0999 V2000
   -6.3720   -2.0120    3.2030 O   0  0  0  0  0  0  0  0  0  0  0  0
   -5.5240   -2.9270    3.3510 C   0  0  0  0  0  0  0  0  0  0  0  0
   -4.3230   -2.9490    2.5510 C   0  0  0  0  0  0  0  0  0  0  0  0
   -4.0650   -2.0030    1.6270 C   0  0  0  0  0  0  0  0  0  0  0  0
   -2.8570   -2.0560    0.8460 C   0  0  0  0  0  0  0  0  0  0  0  0
   -2.4120   -1.2690   -0.0700 C   0  0  0  0  0  0  0  0  0  0  0  0
   -2.9860   -0.0480   -0.6240 C   0  0  0  0  0  0  0  0  0  0  0  0
   -3.6890    0.8650    0.0260 C   0  0  0  0  0  0  0  0  0  0  0  0
   -4.2350    2.0570   -0.5880 C   0  0  0  0  0  0  0  0  0  0  0  0
   -4.1180    2.3900   -1.8180 N   0  0  0  0  0  0  0  0  0  0  0  0
   -4.7350    3.5620   -2.1080 O   0  0  0  0  0  0  0  0  0  0  0  0
   -5.2500    4.0900   -0.9020 C   0  0  0  0  0  0  0  0  0  0  0  0
   -4.9740    3.0540    0.0110 O   0  0  0  0  0  0  0  0  0  0  0  0
   -2.5870   -0.0220   -2.0140 N   0  0  0  0  0  0  0  0  0  0  0  0
   -1.7930   -1.2080   -2.2470 C   0  0  0  0  0  0  0  0  0  0  0  0
   -1.6910   -1.8580   -3.3010 O   0  0  0  0  0  0  0  0  0  0  0  0
   -1.1490   -1.4250   -0.9030 C   0  0  1  0  0  0  0  0  0  0  0  0
   -0.2270   -0.2960   -0.6460 C   0  0  0  0  0  0  0  0  0  0  0  0
    0.9740   -0.9450   -0.1850 N   0  0  0  0  0  0  0  0  0  0  0  0
    2.1010   -0.2910    0.4230 C   0  0  0  0  0  0  0  0  0  0  0  0
    3.1060    0.1310   -0.6120 C   0  0  0  0  0  0  0  0  0  0  0  0
    2.9510   -0.0770   -1.8330 O   0  0  0  0  0  0  0  0  0  0  0  0
    4.2800    0.7940   -0.1590 N   0  0  0  0  0  0  0  0  0  0  0  0
    5.2580    1.2030   -1.1650 C   0  0  0  0  0  0  0  0  0  0  0  0
    6.4120    1.8790   -0.4950 C   0  0  0  0  0  0  0  0  0  0  0  0
    7.1880    0.6860    0.6870 P   0  0  0  0  0  0  0  0  0  0  0  0
    8.9130    0.9040    0.6730 O   0  0  0  0  0  0  0  0  0  0  0  0
    6.8010   -0.9540    0.2830 O   0  0  0  0  0  0  0  0  0  0  0  0
    0.8270   -2.3330   -0.4430 C   0  0  0  0  0  0  0  0  0  0  0  0
    1.7950   -3.1570   -0.3960 O   0  0  0  0  0  0  0  0  0  0  0  0
   -0.5180   -2.6300   -0.7480 O   0  0  0  0  0  0  0  0  0  0  0  0
  1  2  2  0
  2  3  1  0
  3  4  2  3
  4  5  1  0
  5  6  2  3
  6  7  1  0
  6 17  1  0
  7  8  2  3
  7 14  1  0
  8  9  1  0
  9 10  2  0
  9 13  1  0
 10 11  1  0
 11 12  1  0
 12 13  1  0
 14 15  1  0
 15 16  2  0
 15 17  1  0
 17 18  1  1
 17 31  1  0
 18 19  1  0
 19 20  1  0
 19 29  1  0
 20 21  1  0
 21 22  2  0
 21 23  1  0
 23 24  1  0
 24 25  1  0
 25 26  1  0
 26 27  1  0
 26 28  1  0
 29 30  2  0
 29 31  1  0
M  END
