
     RDKit          3D

 31 33  0  0  0  0  0  0  0  0999 V2000
   -5.5450   -1.3090    1.4300 C   0  0  0  0  0  0  0  0  0  0  0  0
   -4.1770   -1.0420    1.1180 C   0  0  0  0  0  0  0  0  0  0  0  0
   -3.7370   -0.3990   -0.0290 C   0  0  0  0  0  0  0  0  0  0  0  0
   -2.2960   -0.2740   -0.0680 C   0  0  0  0  0  0  0  0  0  0  0  0
   -1.7190   -0.7940    0.9830 O   0  0  0  0  0  0  0  0  0  0  0  0
   -1.4620    0.2930   -1.0140 N   0  0  0  0  0  0  0  0  0  0  0  0
   -0.0590    0.3570   -0.9430 C   0  0  0  0  0  0  0  0  0  0  0  0
    0.7820   -0.0550   -0.0600 C   0  0  0  0  0  0  0  0  0  0  0  0
    0.5880   -0.7080    1.1350 O   0  0  0  0  0  0  0  0  0  0  0  0
    1.8220   -1.0950    1.7440 C   0  0  0  0  0  0  0  0  0  0  0  0
    2.7440   -1.1010    0.5600 C   0  0  2  0  0  0  0  0  0  0  0  0
    4.1340   -0.9730    0.8980 C   0  0  0  0  0  0  0  0  0  0  0  0
    4.6420   -1.6030    1.9050 O   0  0  0  0  0  0  0  0  0  0  0  0
    5.0650   -0.1500    0.1620 N   0  0  0  0  0  0  0  0  0  0  0  0
    6.4870   -0.3470    0.3620 C   0  0  1  0  0  0  0  0  0  0  0  0
    7.2170   -0.5980   -0.8700 C   0  0  0  0  0  0  0  0  0  0  0  0
    8.1300    0.2820   -1.0140 N   0  0  0  0  0  0  0  0  0  0  0  0
    8.1670    1.2100    0.0250 N   0  0  0  0  0  0  0  0  0  0  0  0
    7.1360    0.8540    0.9350 C   0  0  0  0  0  0  0  0  0  0  0  0
    6.8620    1.4700    2.0090 O   0  0  0  0  0  0  0  0  0  0  0  0
    4.5430    0.8030   -0.7150 C   0  0  0  0  0  0  0  0  0  0  0  0
    5.2880    1.5510   -1.3700 O   0  0  0  0  0  0  0  0  0  0  0  0
    3.0770    0.8940   -0.8390 C   0  0  0  0  0  0  0  0  0  0  0  0
    2.2630    0.1270   -0.1970 C   0  0  0  0  0  0  0  0  0  0  0  0
   -4.7120    0.0330   -0.9600 C   0  0  0  0  0  0  0  0  0  0  0  0
   -4.6720    0.6320   -2.0880 C   0  0  0  0  0  0  0  0  0  0  0  0
   -3.7540    1.1330   -2.9310 O   0  0  0  0  0  0  0  0  0  0  0  0
   -6.1190   -0.2580   -0.5690 O   0  0  0  0  0  0  0  0  0  0  0  0
   -7.2370    1.0490   -0.8970 P   0  0  0  0  0  0  0  0  0  0  0  0
   -8.8380    0.4550   -1.1390 O   0  0  0  0  0  0  0  0  0  0  0  0
   -7.2250    2.2570    0.3250 O   0  0  0  0  0  0  0  0  0  0  0  0
  1  2  1  0
  2  3  2  3
  3  4  1  0
  3 25  1  0
  4  5  2  0
  4  6  1  0
  6  7  1  0
  7  8  2  3
  8  9  1  0
  8 24  1  0
  9 10  1  0
 11 10  1  1
 11 12  1  0
 11 24  1  0
 12 13  2  0
 12 14  1  0
 15 14  1  6
 14 21  1  0
 15 16  1  0
 15 19  1  0
 16 17  2  0
 17 18  1  0
 18 19  1  0
 19 20  2  0
 21 22  2  0
 21 23  1  0
 23 24  2  0
 25 26  2  3
 25 28  1  0
 26 27  1  0
 28 29  1  0
 29 30  1  0
 29 31  1  0
M  END
