
     RDKit          3D

 31 33  0  0  0  0  0  0  0  0999 V2000
   -5.6830   -1.9010    1.8590 C   0  0  0  0  0  0  0  0  0  0  0  0
   -4.5130   -1.2250    1.2940 C   0  0  0  0  0  0  0  0  0  0  0  0
   -4.4860    0.1660    1.2020 C   0  0  0  0  0  0  0  0  0  0  0  0
   -3.3990    0.8300    0.6760 C   0  0  0  0  0  0  0  0  0  0  0  0
   -3.3500    2.1730    0.5760 N   0  0  0  0  0  0  0  0  0  0  0  0
   -2.3120    2.8320    0.0700 C   0  0  0  0  0  0  0  0  0  0  0  0
   -2.2410    4.1930   -0.0550 C   0  0  0  0  0  0  0  0  0  0  0  0
   -3.2020    4.8990    0.3370 O   0  0  0  0  0  0  0  0  0  0  0  0
   -1.1620    4.7870   -0.5890 N   0  0  0  0  0  0  0  0  0  0  0  0
   -0.1130    4.0390   -1.0180 C   0  0  0  0  0  0  0  0  0  0  0  0
    0.8870    4.5860   -1.5130 O   0  0  0  0  0  0  0  0  0  0  0  0
   -0.1380    2.6850   -0.9150 N   0  0  0  0  0  0  0  0  0  0  0  0
   -1.1710    2.0320   -0.3980 C   0  0  0  0  0  0  0  0  0  0  0  0
   -1.2110    0.6960   -0.3010 N   0  0  0  0  0  0  0  0  0  0  0  0
   -0.1010   -0.0870   -0.7270 C   0  0  0  0  0  0  0  0  0  0  0  0
    0.8870   -0.4550    0.3510 C   0  0  2  0  0  0  0  0  0  0  0  0
    1.4980    0.5920    0.9780 O   0  0  0  0  0  0  0  0  0  0  0  0
    1.8350   -1.5180   -0.0880 C   0  0  2  0  0  0  0  0  0  0  0  0
    2.5710   -2.1020    0.9360 O   0  0  0  0  0  0  0  0  0  0  0  0
    2.7470   -1.1750   -1.2190 C   0  0  2  0  0  0  0  0  0  0  0  0
    3.2940   -2.4080   -1.6940 O   0  0  0  0  0  0  0  0  0  0  0  0
    3.9920   -0.3970   -0.7700 C   0  0  0  0  0  0  0  0  0  0  0  0
    4.7770   -0.2960   -1.9320 O   0  0  0  0  0  0  0  0  0  0  0  0
    6.2100    0.5450   -1.6170 P   0  0  2  0  0  0  0  0  0  0  0  0
    7.1380    0.3590   -2.7790 O   0  0  0  0  0  0  0  0  0  0  0  0
    6.9110   -0.0280   -0.1770 O   0  0  0  0  0  0  0  0  0  0  0  0
    5.8850    2.1940   -1.4350 O   0  0  0  0  0  0  0  0  0  0  0  0
   -2.3130    0.0820    0.2300 C   0  0  0  0  0  0  0  0  0  0  0  0
   -2.3600   -1.2830    0.3290 C   0  0  0  0  0  0  0  0  0  0  0  0
   -3.4490   -1.9450    0.8570 C   0  0  0  0  0  0  0  0  0  0  0  0
   -3.4400   -3.4030    0.9360 C   0  0  0  0  0  0  0  0  0  0  0  0
  1  2  1  0
  2  3  2  0
  2 30  1  0
  3  4  1  0
  4  5  1  0
  4 28  2  0
  5  6  2  0
  6  7  1  0
  6 13  1  0
  7  8  2  0
  7  9  1  0
  9 10  1  0
 10 11  2  0
 10 12  1  0
 12 13  2  0
 13 14  1  0
 14 15  1  0
 14 28  1  0
 15 16  1  0
 16 17  1  6
 16 18  1  0
 18 19  1  1
 18 20  1  0
 20 21  1  1
 20 22  1  0
 22 23  1  0
 23 24  1  0
 24 25  2  0
 24 26  1  1
 24 27  1  0
 28 29  1  0
 29 30  2  0
 30 31  1  0
M  END
