
     RDKit          3D

 13 13  0  0  0  0  0  0  0  0999 V2000
    2.9670    1.8340   -0.6100 O   0  0  0  0  0  0  0  0  0  0  0  0
    2.3240    0.9510    0.2560 C   0  0  0  0  0  0  0  0  0  0  0  0
    1.3930    0.2090   -0.4610 O   0  0  0  0  0  0  0  0  0  0  0  0
    0.7040   -0.6930    0.3070 C   0  0  2  0  0  0  0  0  0  0  0  0
    1.0710   -2.0640   -0.3150 C   0  0  0  0  0  0  0  0  0  0  0  0
    0.3520   -2.1320   -1.4780 O   0  0  0  0  0  0  0  0  0  0  0  0
   -0.6980   -1.2160   -1.4120 C   0  0  0  0  0  0  0  0  0  0  0  0
   -0.7570   -0.8210    0.0260 C   0  0  1  0  0  0  0  0  0  0  0  0
   -1.1540   -1.9880    0.7370 O   0  0  0  0  0  0  0  0  0  0  0  0
   -1.6630    0.2400    0.4080 C   0  0  1  0  0  0  0  0  0  0  0  0
   -1.5750    0.4690    1.7870 O   0  0  0  0  0  0  0  0  0  0  0  0
   -1.6590    1.5380   -0.2930 C   0  0  0  0  0  0  0  0  0  0  0  0
   -0.5650    2.3430   -0.1100 O   0  0  0  0  0  0  0  0  0  0  0  0
  1  2  1  0
  2  3  1  0
  4  3  1  6
  4  5  1  0
  4  8  1  0
  5  6  1  0
  6  7  1  0
  7  8  1  0
  8  9  1  1
  8 10  1  0
 10 11  1  1
 10 12  1  0
 12 13  1  0
M  END
