
     RDKit          3D

 13 13  0  0  0  0  0  0  0  0999 V2000
   -2.7430    1.5810    0.5840 O   0  0  0  0  0  0  0  0  0  0  0  0
   -1.5750    1.3390   -0.1480 C   0  0  0  0  0  0  0  0  0  0  0  0
   -1.1540   -0.0650    0.1350 C   0  0  1  0  0  0  0  0  0  0  0  0
   -2.2490   -0.9550   -0.4470 C   0  0  0  0  0  0  0  0  0  0  0  0
   -1.6650   -2.1520   -0.7890 O   0  0  0  0  0  0  0  0  0  0  0  0
   -0.2970   -2.0420   -0.6640 C   0  0  0  0  0  0  0  0  0  0  0  0
    0.0230   -0.5480   -0.6440 C   0  0  1  0  0  0  0  0  0  0  0  0
   -0.0220   -0.1180   -1.9540 O   0  0  0  0  0  0  0  0  0  0  0  0
    1.3460   -0.4120    0.0170 C   0  0  2  0  0  0  0  0  0  0  0  0
    1.5450   -1.3190    1.0480 O   0  0  0  0  0  0  0  0  0  0  0  0
    1.6760    0.9570    0.5260 C   0  0  0  0  0  0  0  0  0  0  0  0
    1.7810    1.8510   -0.5270 O   0  0  0  0  0  0  0  0  0  0  0  0
    2.9800    2.3630   -0.6590 O   0  0  0  0  0  0  0  0  0  0  0  0
  1  2  1  0
  3  2  1  6
  3  4  1  0
  3  7  1  0
  4  5  1  0
  5  6  1  0
  6  7  1  0
  7  8  1  6
  7  9  1  0
  9 10  1  1
  9 11  1  0
 11 12  1  0
 12 13  1  0
M  END
