
     RDKit          3D

 12 12  0  0  0  0  0  0  0  0999 V2000
    2.8040    0.2190    0.8170 C   0  0  0  0  0  0  0  0  0  0  0  0
    1.6610    0.7730    1.1920 O   0  0  0  0  0  0  0  0  0  0  0  0
    0.4520    0.2440    1.1800 C   0  0  0  0  0  0  0  0  0  0  0  0
   -0.1860   -0.1800   -0.0820 C   0  0  1  0  0  0  0  0  0  0  0  0
    0.4600   -1.2530   -0.8810 C   0  0  0  0  0  0  0  0  0  0  0  0
    0.5580   -2.4040   -0.0910 O   0  0  0  0  0  0  0  0  0  0  0  0
   -1.6730   -0.5120    0.1230 C   0  0  1  0  0  0  0  0  0  0  0  0
   -1.8790   -1.1600    1.3300 O   0  0  0  0  0  0  0  0  0  0  0  0
   -2.3640    0.6530    0.0350 O   0  0  0  0  0  0  0  0  0  0  0  0
   -1.5480    1.7050   -0.2550 C   0  0  0  0  0  0  0  0  0  0  0  0
   -0.3600    1.0940   -0.9340 C   0  0  2  0  0  0  0  0  0  0  0  0
   -0.6930    0.6680   -2.1980 O   0  0  0  0  0  0  0  0  0  0  0  0
  1  2  1  0
  2  3  1  0
  4  3  1  1
  4  5  1  0
  4  7  1  0
  4 11  1  0
  5  6  1  0
  7  8  1  1
  7  9  1  0
  9 10  1  0
 10 11  1  0
 11 12  1  6
M  END
