
     RDKit          3D

 12 13  0  0  0  0  0  0  0  0999 V2000
   -1.6620   -2.2460   -0.3550 O   0  0  0  0  0  0  0  0  0  0  0  0
   -1.5280   -0.9920   -0.9220 C   0  0  0  0  0  0  0  0  0  0  0  0
   -1.1120   -0.0250    0.1230 C   0  0  2  0  0  0  0  0  0  0  0  0
   -0.9370    1.3860   -0.3980 C   0  0  1  0  0  0  0  0  0  0  0  0
   -2.1410    2.0110   -0.6700 O   0  0  0  0  0  0  0  0  0  0  0  0
   -0.2840    1.9940    0.6700 O   0  0  0  0  0  0  0  0  0  0  0  0
    0.6240    1.1000    1.1810 C   0  0  2  0  0  0  0  0  0  0  0  0
    1.8610    1.3380    0.6690 O   0  0  0  0  0  0  0  0  0  0  0  0
    2.2040    0.3700   -0.2280 C   0  0  0  0  0  0  0  0  0  0  0  0
    1.2750   -0.8000   -0.0540 C   0  0  1  0  0  0  0  0  0  0  0  0
    2.0060   -1.8180    0.6000 O   0  0  0  0  0  0  0  0  0  0  0  0
    0.1830   -0.2820    0.7870 C   0  0  2  0  0  0  0  0  0  0  0  0
  1  2  1  0
  3  2  1  6
  3  4  1  0
  3 12  1  0
  4  5  1  1
  4  6  1  0
  7  6  1  6
  7  8  1  0
  7 12  1  0
  8  9  1  0
  9 10  1  0
 10 11  1  1
 12 10  1  6
M  END
