
     RDKit          3D

 12 12  0  0  0  0  0  0  0  0999 V2000
    2.7530    0.2700   -0.7520 O   0  0  0  0  0  0  0  0  0  0  0  0
    1.9970   -0.8560   -0.5250 C   0  0  0  0  0  0  0  0  0  0  0  0
    0.5410   -0.7100   -0.8330 C   0  0  1  0  0  0  0  0  0  0  0  0
   -0.0510   -1.9620   -0.5410 O   0  0  0  0  0  0  0  0  0  0  0  0
   -0.1490    0.2790    0.0430 C   0  0  2  0  0  0  0  0  0  0  0  0
    0.3930    1.6780   -0.0290 C   0  0  0  0  0  0  0  0  0  0  0  0
    0.2740    2.1340   -1.3330 O   0  0  0  0  0  0  0  0  0  0  0  0
   -0.2800   -0.2170    1.4590 C   0  0  0  0  0  0  0  0  0  0  0  0
   -1.1820   -1.2540    1.3240 O   0  0  0  0  0  0  0  0  0  0  0  0
   -2.1450   -0.8880    0.4220 C   0  0  0  0  0  0  0  0  0  0  0  0
   -1.6320    0.2930   -0.3670 C   0  0  2  0  0  0  0  0  0  0  0  0
   -1.7940    0.1680   -1.7220 O   0  0  0  0  0  0  0  0  0  0  0  0
  1  2  1  0
  2  3  1  0
  3  4  1  1
  3  5  1  0
  5  6  1  1
  5  8  1  0
  5 11  1  0
  6  7  1  0
  8  9  1  0
  9 10  1  0
 10 11  1  0
 11 12  1  6
M  END
