
     RDKit          3D

 13 13  0  0  0  0  0  0  0  0999 V2000
   -2.4040    1.7120   -0.8870 C   0  0  0  0  0  0  0  0  0  0  0  0
   -1.2190    1.0070   -0.9510 O   0  0  0  0  0  0  0  0  0  0  0  0
   -0.8840    0.4740    0.2680 C   0  0  1  0  0  0  0  0  0  0  0  0
   -0.7260    1.4690    1.2480 O   0  0  0  0  0  0  0  0  0  0  0  0
   -1.8780   -0.5420    0.7090 C   0  0  0  0  0  0  0  0  0  0  0  0
   -1.9760   -1.5840   -0.1990 O   0  0  0  0  0  0  0  0  0  0  0  0
    0.4790   -0.1790    0.1030 C   0  0  2  0  0  0  0  0  0  0  0  0
    0.4420   -1.1690   -0.8480 O   0  0  0  0  0  0  0  0  0  0  0  0
    0.9820   -0.6830    1.4160 C   0  0  0  0  0  0  0  0  0  0  0  0
    2.2720   -0.1650    1.6700 O   0  0  0  0  0  0  0  0  0  0  0  0
    3.1070   -0.4800    0.6010 C   0  0  0  0  0  0  0  0  0  0  0  0
    2.5500    0.1020   -0.6680 C   0  0  0  0  0  0  0  0  0  0  0  0
    1.3830    0.8020   -0.3690 O   0  0  0  0  0  0  0  0  0  0  0  0
  1  2  1  0
  2  3  1  0
  3  4  1  1
  3  5  1  0
  3  7  1  0
  5  6  1  0
  7  8  1  6
  7  9  1  0
  7 13  1  0
  9 10  1  0
 10 11  1  0
 11 12  1  0
 12 13  1  0
M  END
