
     RDKit          3D

 12 12  0  0  0  0  0  0  0  0999 V2000
    3.3290    0.6640    0.1380 C   0  0  0  0  0  0  0  0  0  0  0  0
    2.1100    0.3700    0.7300 O   0  0  0  0  0  0  0  0  0  0  0  0
    1.2090   -0.0920   -0.2130 C   0  0  2  0  0  0  0  0  0  0  0  0
    0.0320    0.8470   -0.3250 C   0  0  0  0  0  0  0  0  0  0  0  0
   -1.2330    0.2670    0.2610 C   0  0  1  0  0  0  0  0  0  0  0  0
   -2.3850    1.1190   -0.2860 C   0  0  0  0  0  0  0  0  0  0  0  0
   -2.2220    2.4510    0.1020 O   0  0  0  0  0  0  0  0  0  0  0  0
   -1.4680   -1.1530   -0.1640 C   0  0  1  0  0  0  0  0  0  0  0  0
   -2.5060   -1.2440   -1.1080 O   0  0  0  0  0  0  0  0  0  0  0  0
   -0.3590   -1.7510   -0.7240 O   0  0  0  0  0  0  0  0  0  0  0  0
    0.7800   -1.5200    0.0630 C   0  0  1  0  0  0  0  0  0  0  0  0
    1.7770   -2.3700   -0.4270 O   0  0  0  0  0  0  0  0  0  0  0  0
  1  2  1  0
  3  2  1  1
  3  4  1  0
  3 11  1  0
  4  5  1  0
  5  6  1  6
  5  8  1  0
  6  7  1  0
  8  9  1  6
  8 10  1  0
 10 11  1  0
 11 12  1  6
M  END
