
     RDKit          3D

 12 12  0  0  0  0  0  0  0  0999 V2000
    0.7360   -1.6240    0.9850 O   0  0  0  0  0  0  0  0  0  0  0  0
    0.3950   -0.6050    0.3530 C   0  0  0  0  0  0  0  0  0  0  0  0
    1.4260    0.3530   -0.0840 C   0  0  0  0  0  0  0  0  0  0  0  0
    2.8000   -0.1390    0.3630 C   0  0  0  0  0  0  0  0  0  0  0  0
    3.7980    0.8950   -0.1220 C   0  0  0  0  0  0  0  0  0  0  0  0
    5.0980    0.5480    0.2320 O   0  0  0  0  0  0  0  0  0  0  0  0
   -1.0010   -0.3840    0.0610 C   0  0  0  0  0  0  0  0  0  0  0  0
   -1.9200   -1.2440    0.4540 C   0  0  0  0  0  0  0  0  0  0  0  0
   -3.3520   -1.2030    0.2620 C   0  0  0  0  0  0  0  0  0  0  0  0
   -4.0360    0.0680    0.0060 C   0  0  0  0  0  0  0  0  0  0  0  0
   -2.9080    1.4470    0.1100 S   0  0  0  0  0  0  0  0  0  0  0  0
   -1.3700    0.8450   -0.6960 C   0  0  0  0  0  0  0  0  0  0  0  0
  1  2  2  0
  2  3  1  0
  2  7  1  0
  3  4  1  0
  4  5  1  0
  5  6  1  0
  7  8  2  0
  7 12  1  0
  8  9  1  0
  9 10  1  0
 10 11  1  0
 11 12  1  0
M  END
