
     RDKit          3D

 12 12  0  0  0  0  0  0  0  0999 V2000
    3.4670    0.8110    0.5430 C   0  0  0  0  0  0  0  0  0  0  0  0
    2.0120    0.3930    0.7350 C   0  0  0  0  0  0  0  0  0  0  0  0
    1.3960    0.2430   -0.6320 C   0  0  0  0  0  0  0  0  0  0  0  0
   -0.0440   -0.1680   -0.5700 C   0  0  2  0  0  0  0  0  0  0  0  0
   -0.5140   -0.2780   -1.8800 O   0  0  0  0  0  0  0  0  0  0  0  0
   -0.8430    0.8210    0.2190 C   0  0  0  0  0  0  0  0  0  0  0  0
   -2.2120    1.0750   -0.3740 C   0  0  0  0  0  0  0  0  0  0  0  0
   -3.2160    0.0500    0.1060 C   0  0  0  0  0  0  0  0  0  0  0  0
   -2.9900   -1.5450   -0.7090 S   0  0  0  0  0  0  0  0  0  0  0  0
   -1.3600   -2.2000   -0.4630 C   0  0  0  0  0  0  0  0  0  0  0  0
   -1.2070   -3.3550   -0.7950 O   0  0  0  0  0  0  0  0  0  0  0  0
   -0.1690   -1.5370    0.0880 C   0  0  0  0  0  0  0  0  0  0  0  0
  1  2  1  0
  2  3  1  0
  3  4  1  0
  4  5  1  6
  4  6  1  0
  4 12  1  0
  6  7  1  0
  7  8  1  0
  8  9  1  0
  9 10  1  0
 10 11  2  0
 10 12  1  0
M  END
