
     RDKit          3D

 12 12  0  0  0  0  0  0  0  0999 V2000
    3.6160    0.0790    0.3070 C   0  0  0  0  0  0  0  0  0  0  0  0
    2.1890   -0.0450   -0.2430 C   0  0  0  0  0  0  0  0  0  0  0  0
    1.2110    0.3220    0.8300 C   0  0  0  0  0  0  0  0  0  0  0  0
   -0.1730    0.1770    0.2150 C   0  0  0  0  0  0  0  0  0  0  0  0
   -0.9960    1.1840    0.1150 C   0  0  0  0  0  0  0  0  0  0  0  0
   -0.9110    2.5790    0.4860 C   0  0  0  0  0  0  0  0  0  0  0  0
    0.0950    3.0990    1.0290 O   0  0  0  0  0  0  0  0  0  0  0  0
   -1.9710    3.4410    0.2530 O   0  0  0  0  0  0  0  0  0  0  0  0
   -2.5020    0.5030   -0.6390 S   0  0  0  0  0  0  0  0  0  0  0  0
   -2.1200   -1.2300   -0.1190 C   0  0  1  0  0  0  0  0  0  0  0  0
   -2.7610   -2.2180   -1.0160 C   0  0  0  0  0  0  0  0  0  0  0  0
   -0.6250   -1.1150   -0.3140 C   0  0  0  0  0  0  0  0  0  0  0  0
  1  2  1  0
  2  3  1  0
  3  4  1  0
  4  5  2  0
  4 12  1  0
  5  6  1  0
  5  9  1  0
  6  7  2  0
  6  8  1  0
  9 10  1  0
 10 11  1  6
 10 12  1  0
M  END
