
     RDKit          3D

 12 12  0  0  0  0  0  0  0  0999 V2000
    4.5200    1.1880    0.0110 C   0  0  0  0  0  0  0  0  0  0  0  0
    3.7290    0.4180    1.0110 C   0  0  0  0  0  0  0  0  0  0  0  0
    1.9760    0.5590    0.6650 S   0  0  0  0  0  0  0  0  0  0  0  0
    1.5610   -0.2580   -0.9050 C   0  0  0  0  0  0  0  0  0  0  0  0
    0.0470   -0.0600   -1.0660 C   0  0  0  0  0  0  0  0  0  0  0  0
   -0.5180   -0.6890    0.0730 O   0  0  0  0  0  0  0  0  0  0  0  0
   -1.9340   -0.6400    0.1590 C   0  0  0  0  0  0  0  0  0  0  0  0
   -2.4550    0.5650    0.2150 C   0  0  0  0  0  0  0  0  0  0  0  0
   -3.9160    0.7350    0.3060 C   0  0  0  0  0  0  0  0  0  0  0  0
   -4.5680   -0.4910    0.3220 O   0  0  0  0  0  0  0  0  0  0  0  0
   -4.0220   -1.7440    0.2620 C   0  0  0  0  0  0  0  0  0  0  0  0
   -2.7090   -1.8630    0.1810 C   0  0  0  0  0  0  0  0  0  0  0  0
  1  2  1  0
  2  3  1  0
  3  4  1  0
  4  5  1  0
  5  6  1  0
  6  7  1  0
  7  8  2  0
  7 12  1  0
  8  9  1  0
  9 10  1  0
 10 11  1  0
 11 12  2  0
M  END
