
     RDKit          3D

 12 13  0  0  0  0  0  0  0  0999 V2000
   -0.5460    2.8200   -0.3560 O   0  0  0  0  0  0  0  0  0  0  0  0
    0.1390    1.7900   -0.2210 C   0  0  0  0  0  0  0  0  0  0  0  0
    1.5300    1.8760   -0.2250 O   0  0  0  0  0  0  0  0  0  0  0  0
    2.3930    0.8800    0.3080 C   0  0  0  0  0  0  0  0  0  0  0  0
    2.3520   -0.3870   -0.5100 C   0  0  0  0  0  0  0  0  0  0  0  0
    1.1940   -1.2200   -0.1560 N   0  0  0  0  0  0  0  0  0  0  0  0
   -0.1580   -0.7920   -0.0450 C   0  0  0  0  0  0  0  0  0  0  0  0
   -1.0410   -1.7690    0.0990 C   0  0  0  0  0  0  0  0  0  0  0  0
   -2.3910   -1.5370    0.2210 O   0  0  0  0  0  0  0  0  0  0  0  0
   -2.9700   -0.2560    0.2060 C   0  0  0  0  0  0  0  0  0  0  0  0
   -1.9760    0.8260    0.0450 C   0  0  0  0  0  0  0  0  0  0  0  0
   -0.6870    0.5710   -0.0690 C   0  0  0  0  0  0  0  0  0  0  0  0
  1  2  2  0
  2  3  1  0
  2 12  1  0
  3  4  1  0
  4  5  1  0
  5  6  1  0
  6  7  1  0
  7  8  2  0
  7 12  1  0
  8  9  1  0
  9 10  1  0
 10 11  1  0
 11 12  2  0
M  END
