
     RDKit          3D

 12 12  0  0  0  0  0  0  0  0999 V2000
    5.3860    1.1250   -0.4000 C   0  0  0  0  0  0  0  0  0  0  0  0
    4.2840   -0.0680    0.3990 S   0  0  0  0  0  0  0  0  0  0  0  0
    2.5960    0.3330   -0.0480 C   0  0  0  0  0  0  0  0  0  0  0  0
    1.5850   -0.6090    0.5710 C   0  0  0  0  0  0  0  0  0  0  0  0
    0.2110   -0.1280    0.0920 C   0  0  0  0  0  0  0  0  0  0  0  0
   -0.7920   -0.9620    0.6310 O   0  0  0  0  0  0  0  0  0  0  0  0
   -2.1140   -0.7060    0.3250 C   0  0  0  0  0  0  0  0  0  0  0  0
   -2.6500    0.4800    0.5040 C   0  0  0  0  0  0  0  0  0  0  0  0
   -4.0820    0.7730    0.1780 C   0  0  0  0  0  0  0  0  0  0  0  0
   -4.7360   -0.3530   -0.3230 O   0  0  0  0  0  0  0  0  0  0  0  0
   -4.1870   -1.5880   -0.5120 C   0  0  0  0  0  0  0  0  0  0  0  0
   -2.9300   -1.7990   -0.2130 C   0  0  0  0  0  0  0  0  0  0  0  0
  1  2  1  0
  2  3  1  0
  3  4  1  0
  4  5  1  0
  5  6  1  0
  6  7  1  0
  7  8  2  0
  7 12  1  0
  8  9  1  0
  9 10  1  0
 10 11  1  0
 11 12  2  0
M  END
