
     RDKit          3D

 23 25  0  0  0  0  0  0  0  0999 V2000
   -1.9120   -1.3610    0.3730 O   0  0  0  0  0  0  0  0  0  0  0  0
   -2.3670   -0.2340    0.1250 C   0  0  0  0  0  0  0  0  0  0  0  0
   -3.7690   -0.0430    0.1290 O   0  0  0  0  0  0  0  0  0  0  0  0
   -4.7430   -1.4560    0.4940 P   0  0  0  0  0  0  0  0  0  0  0  0
   -4.0810   -2.9030   -0.1660 O   0  0  0  0  0  0  0  0  0  0  0  0
   -6.3930   -1.2130   -0.0140 O   0  0  0  0  0  0  0  0  0  0  0  0
   -1.4740    0.8680   -0.1650 C   0  0  0  0  0  0  0  0  0  0  0  0
   -1.9610    2.1230   -0.4410 N   0  0  0  0  0  0  0  0  0  0  0  0
   -0.9140    2.9030   -0.6600 C   0  0  0  0  0  0  0  0  0  0  0  0
   -0.8880    4.2640   -0.9800 O   0  0  0  0  0  0  0  0  0  0  0  0
    0.1990    2.1710   -0.5280 N   0  0  0  0  0  0  0  0  0  0  0  0
   -0.1060    0.8910   -0.2180 C   0  0  0  0  0  0  0  0  0  0  0  0
    0.8050   -0.2180    0.0100 C   0  0  0  0  0  0  0  0  0  0  0  0
    0.5250   -1.4910    0.3180 N   0  0  0  0  0  0  0  0  0  0  0  0
    1.6230   -2.1980    0.4450 C   0  0  0  0  0  0  0  0  0  0  0  0
    2.6920   -1.3640    0.2120 C   0  0  0  0  0  0  0  0  0  0  0  0
    4.0280   -1.5990    0.2210 N   0  0  0  0  0  0  0  0  0  0  0  0
    4.8860   -0.6160   -0.0390 C   0  0  0  0  0  0  0  0  0  0  0  0
    6.1300   -0.8700   -0.0230 O   0  0  0  0  0  0  0  0  0  0  0  0
    4.4070    0.5920   -0.3060 N   0  0  0  0  0  0  0  0  0  0  0  0
    3.0630    0.8260   -0.3130 C   0  0  0  0  0  0  0  0  0  0  0  0
    2.6740    1.9870   -0.5720 O   0  0  0  0  0  0  0  0  0  0  0  0
    2.1700   -0.1490   -0.0540 N   0  0  0  0  0  0  0  0  0  0  0  0
  1  2  2  0
  2  3  1  0
  2  7  1  0
  3  4  1  0
  4  5  1  0
  4  6  1  0
  7  8  1  0
  7 12  2  0
  8  9  1  0
  9 10  1  0
  9 11  2  0
 11 12  1  0
 12 13  1  0
 13 14  2  0
 13 23  1  0
 14 15  1  0
 15 16  2  0
 16 17  1  0
 16 23  1  0
 17 18  1  0
 18 19  2  0
 18 20  1  0
 20 21  1  0
 21 22  2  0
 21 23  1  0
M  END
