
     RDKit          3D

 23 25  0  0  0  0  0  0  0  0999 V2000
   -6.6140   -1.7860    0.7080 O   0  0  0  0  0  0  0  0  0  0  0  0
   -5.6050   -1.2400    0.1690 C   0  0  0  0  0  0  0  0  0  0  0  0
   -4.6180   -2.0780   -0.4170 N   0  0  0  0  0  0  0  0  0  0  0  0
   -3.3610   -1.9000   -1.0320 C   0  0  0  0  0  0  0  0  0  0  0  0
   -2.6630   -0.6490   -0.7230 C   0  0  0  0  0  0  0  0  0  0  0  0
   -1.3530   -0.5780   -0.9330 O   0  0  0  0  0  0  0  0  0  0  0  0
   -0.9040    0.5950   -0.6070 C   0  0  0  0  0  0  0  0  0  0  0  0
    0.2100    1.4020   -0.5270 C   0  0  0  0  0  0  0  0  0  0  0  0
    1.5100    1.0750   -0.8740 O   0  0  0  0  0  0  0  0  0  0  0  0
    2.4150    0.5240    0.0130 C   0  0  0  0  0  0  0  0  0  0  0  0
    2.0760    0.2920    1.2000 O   0  0  0  0  0  0  0  0  0  0  0  0
    3.7480    0.1950   -0.3630 N   0  0  0  0  0  0  0  0  0  0  0  0
    4.6350   -0.3760    0.6110 C   0  0  0  0  0  0  0  0  0  0  0  0
    6.2820   -0.6870   -0.1860 P   0  0  0  0  0  0  0  0  0  0  0  0
    7.0640    0.8430   -0.4650 O   0  0  0  0  0  0  0  0  0  0  0  0
    7.2710   -1.6920    0.8020 O   0  0  0  0  0  0  0  0  0  0  0  0
   -0.1520    2.6020   -0.0450 N   0  0  0  0  0  0  0  0  0  0  0  0
   -1.4540    2.6010    0.1890 N   0  0  0  0  0  0  0  0  0  0  0  0
   -1.9380    1.3790   -0.1490 C   0  0  0  0  0  0  0  0  0  0  0  0
   -3.0510    0.5710   -0.2290 C   0  0  0  0  0  0  0  0  0  0  0  0
   -4.3790    0.9820    0.1530 C   0  0  0  0  0  0  0  0  0  0  0  0
   -4.5370    2.2040    0.4890 O   0  0  0  0  0  0  0  0  0  0  0  0
   -5.5530    0.1870    0.2030 N   0  0  0  0  0  0  0  0  0  0  0  0
  1  2  2  0
  2  3  1  0
  2 23  1  0
  3  4  1  0
  4  5  1  0
  5  6  1  0
  5 20  2  0
  6  7  1  0
  7  8  2  0
  7 19  1  0
  8  9  1  0
  8 17  1  0
  9 10  1  0
 10 11  2  0
 10 12  1  0
 12 13  1  0
 13 14  1  0
 14 15  1  0
 14 16  1  0
 17 18  1  0
 18 19  2  0
 19 20  1  0
 20 21  1  0
 21 22  2  0
 21 23  1  0
M  END
