
     RDKit          3D

 22 23  0  0  0  0  0  0  0  0999 V2000
   -0.6180   -3.0530    1.5810 N   0  0  0  0  0  0  0  0  0  0  0  0
   -0.3080   -2.0470    0.8550 C   0  0  0  0  0  0  0  0  0  0  0  0
    1.0340   -1.7830    1.0430 N   0  0  0  0  0  0  0  0  0  0  0  0
    1.9190   -1.1550    0.2200 C   0  0  0  0  0  0  0  0  0  0  0  0
    1.3930   -0.8290   -0.8570 O   0  0  0  0  0  0  0  0  0  0  0  0
    3.2840   -0.9310    0.6060 C   0  0  0  0  0  0  0  0  0  0  0  0
    4.0370   -0.3440   -0.2600 C   0  0  0  0  0  0  0  0  0  0  0  0
    5.3800   -0.1200    0.1060 N   0  0  0  0  0  0  0  0  0  0  0  0
    5.8220    1.4220    0.8870 P   0  0  0  0  0  0  0  0  0  0  0  0
    5.3200    2.7130   -0.1820 O   0  0  0  0  0  0  0  0  0  0  0  0
    7.5090    1.5200    1.2170 O   0  0  0  0  0  0  0  0  0  0  0  0
   -1.4060   -1.2970    0.3820 N   0  0  0  0  0  0  0  0  0  0  0  0
   -2.2800   -0.5680    1.2980 C   0  0  0  0  0  0  0  0  0  0  0  0
   -2.0290   -0.3300    2.4820 O   0  0  0  0  0  0  0  0  0  0  0  0
   -3.4480   -0.2150    0.5160 C   0  0  1  0  0  0  0  0  0  0  0  0
   -3.8930    1.2230    0.6970 C   0  0  2  0  0  0  0  0  0  0  0  0
   -4.7190    1.3880    1.7880 O   0  0  0  0  0  0  0  0  0  0  0  0
   -4.5980    1.4660   -0.6210 C   0  0  0  0  0  0  0  0  0  0  0  0
   -3.6150    0.8520   -1.6030 C   0  0  0  0  0  0  0  0  0  0  0  0
   -2.8890   -0.1260   -0.8420 N   0  0  0  0  0  0  0  0  0  0  0  0
   -1.8120   -1.0160   -0.9210 C   0  0  0  0  0  0  0  0  0  0  0  0
   -1.3110   -1.4740   -2.0180 O   0  0  0  0  0  0  0  0  0  0  0  0
  1  2  2  0
  2  3  1  0
  2 12  1  0
  3  4  1  0
  4  5  2  0
  4  6  1  0
  6  7  2  3
  7  8  1  0
  8  9  1  0
  9 10  1  0
  9 11  1  0
 12 13  1  0
 12 21  1  0
 13 14  2  0
 15 13  1  1
 15 16  1  0
 15 20  1  0
 16 17  1  1
 16 18  1  0
 18 19  1  0
 19 20  1  0
 20 21  1  0
 21 22  2  0
M  END
