
     RDKit          3D

 23 24  0  0  0  0  0  0  0  0999 V2000
    3.6530   -2.2230    0.1970 N   0  0  0  0  0  0  0  0  0  0  0  0
    3.4920   -0.9210    0.1430 C   0  0  0  0  0  0  0  0  0  0  0  0
    4.6710   -0.1750   -0.0820 N   0  0  0  0  0  0  0  0  0  0  0  0
    4.5970    1.5920    0.3390 P   0  0  0  0  0  0  0  0  0  0  0  0
    5.5260    2.4210   -0.8710 O   0  0  0  0  0  0  0  0  0  0  0  0
    2.8950    2.0030    0.0480 O   0  0  0  0  0  0  0  0  0  0  0  0
    1.9270    1.0260    0.2560 C   0  0  0  0  0  0  0  0  0  0  0  0
    0.7290    1.5100    0.4050 N   0  0  0  0  0  0  0  0  0  0  0  0
   -0.4120    0.8190    0.6200 O   0  0  0  0  0  0  0  0  0  0  0  0
   -1.6500    1.4550    0.6800 C   0  0  1  0  0  0  0  0  0  0  0  0
   -1.5850    2.9100    0.7830 C   0  0  0  0  0  0  0  0  0  0  0  0
   -2.6400    3.5780    0.8440 O   0  0  0  0  0  0  0  0  0  0  0  0
   -0.3800    3.5820    0.8170 O   0  0  0  0  0  0  0  0  0  0  0  0
   -2.4390    1.0050   -0.5560 C   0  0  0  0  0  0  0  0  0  0  0  0
   -3.6830    0.2650   -0.1730 C   0  0  0  0  0  0  0  0  0  0  0  0
   -3.3870   -0.7370    0.7260 O   0  0  0  0  0  0  0  0  0  0  0  0
   -3.1640   -1.9750    0.1150 C   0  0  0  0  0  0  0  0  0  0  0  0
   -1.7450   -2.4240    0.3950 C   0  0  0  0  0  0  0  0  0  0  0  0
   -0.8900   -2.2720   -0.7460 N   0  0  0  0  0  0  0  0  0  0  0  0
    0.2850   -1.4900   -0.6830 C   0  0  0  0  0  0  0  0  0  0  0  0
    0.6180   -0.8790   -1.7570 O   0  0  0  0  0  0  0  0  0  0  0  0
    1.1290   -1.3440    0.5280 C   0  0  0  0  0  0  0  0  0  0  0  0
    2.1890   -0.3600    0.3040 N   0  0  0  0  0  0  0  0  0  0  0  0
  1  2  2  0
  2  3  1  0
  2 23  1  0
  3  4  1  0
  4  5  1  0
  4  6  1  0
  6  7  1  0
  7  8  2  0
  7 23  1  0
  8  9  1  0
  9 10  1  0
 10 11  1  6
 10 14  1  0
 11 12  2  0
 11 13  1  0
 14 15  1  0
 15 16  1  0
 16 17  1  0
 17 18  1  0
 18 19  1  0
 19 20  1  0
 20 21  2  0
 20 22  1  0
 22 23  1  0
M  END
