
     RDKit          3D

  9  8  0  0  0  0  0  0  0  0999 V2000
    1.9080    0.8570    1.4360 O   0  0  0  0  0  0  0  0  0  0  0  0
    1.9600    0.3710    0.1410 C   0  0  0  0  0  0  0  0  0  0  0  0
    3.0070   -0.2640   -0.1710 O   0  0  0  0  0  0  0  0  0  0  0  0
    0.6690    0.8290   -0.4960 C   0  0  0  0  0  0  0  0  0  0  0  0
   -0.0050   -0.3400   -0.8570 O   0  0  0  0  0  0  0  0  0  0  0  0
   -1.4420   -0.3480   -0.3190 P   0  0  0  0  0  0  0  0  0  0  0  0
   -1.7850    1.1450   -0.7530 O   0  0  0  0  0  0  0  0  0  0  0  0
   -1.7900   -1.6340   -1.2410 O   0  0  0  0  0  0  0  0  0  0  0  0
   -0.7310   -0.5550    1.2090 O   0  0  0  0  0  0  0  0  0  0  0  0
  1  2  2  0
  2  3  1  0
  2  4  1  0
  4  5  1  0
  5  6  1  0
  6  7  1  0
  6  8  1  0
  6  9  1  0
M  END
