
     RDKit          3D

 23 25  0  0  0  0  0  0  0  0999 V2000
    3.6200    0.8110    1.8480 O   0  0  0  0  0  0  0  0  0  0  0  0
    3.5600    0.8920    0.6100 C   0  0  0  0  0  0  0  0  0  0  0  0
    4.8580    1.3730   -0.0110 C   0  0  0  0  0  0  0  0  0  0  0  0
    5.2620    0.1570   -0.6360 O   0  0  0  0  0  0  0  0  0  0  0  0
    6.7160   -0.3990   -0.0080 P   0  0  0  0  0  0  0  0  0  0  0  0
    8.0810    0.5030   -0.2890 O   0  0  0  0  0  0  0  0  0  0  0  0
    6.8390   -2.0840   -0.2260 O   0  0  0  0  0  0  0  0  0  0  0  0
    2.4520    0.5510   -0.1680 N   0  0  0  0  0  0  0  0  0  0  0  0
    1.3730   -0.0200    0.5290 C   0  0  0  0  0  0  0  0  0  0  0  0
    1.1560   -0.0480    1.8390 N   0  0  0  0  0  0  0  0  0  0  0  0
    0.0350   -0.7000    2.1480 N   0  0  0  0  0  0  0  0  0  0  0  0
   -0.4480   -1.0780    0.9350 C   0  0  0  0  0  0  0  0  0  0  0  0
   -1.7240   -1.8460    0.7760 C   0  0  0  0  0  0  0  0  0  0  0  0
   -2.4920   -1.1220   -0.2630 N   0  0  0  0  0  0  0  0  0  0  0  0
   -2.0430    0.2780   -0.3630 C   0  0  0  0  0  0  0  0  0  0  0  0
   -3.4240    0.7860   -0.1070 C   0  0  1  0  0  0  0  0  0  0  0  0
   -4.0850    1.1440   -1.2700 O   0  0  0  0  0  0  0  0  0  0  0  0
   -5.4290    1.2890   -0.9790 C   0  0  0  0  0  0  0  0  0  0  0  0
   -5.9260    0.0050   -0.5390 N   0  0  0  0  0  0  0  0  0  0  0  0
   -4.9970   -1.0220   -0.1990 C   0  0  0  0  0  0  0  0  0  0  0  0
   -5.3140   -2.1960   -0.3970 O   0  0  0  0  0  0  0  0  0  0  0  0
   -3.7020   -0.6030    0.3730 C   0  0  1  0  0  0  0  0  0  0  0  0
    0.3310   -0.6810   -0.0280 O   0  0  0  0  0  0  0  0  0  0  0  0
  1  2  2  0
  2  3  1  0
  2  8  1  0
  3  4  1  0
  4  5  1  0
  5  6  1  0
  5  7  1  0
  8  9  1  0
  9 10  2  0
  9 23  1  0
 10 11  1  0
 11 12  2  0
 12 13  1  0
 12 23  1  0
 13 14  1  0
 14 15  1  0
 22 14  1  6
 16 15  1  6
 16 17  1  0
 16 22  1  0
 17 18  1  0
 18 19  1  0
 19 20  1  0
 20 21  2  0
 20 22  1  0
M  END
