
     RDKit          3D

 23 25  0  0  0  0  0  0  0  0999 V2000
   -4.7420   -0.7780    1.1710 N   0  0  0  0  0  0  0  0  0  0  0  0
   -3.9540    0.1190    0.9320 C   0  0  0  0  0  0  0  0  0  0  0  0
   -2.7750    0.0450    1.6770 N   0  0  0  0  0  0  0  0  0  0  0  0
   -1.4680    0.3280    1.2910 C   0  0  0  0  0  0  0  0  0  0  0  0
   -1.4340    0.6110    0.0480 O   0  0  0  0  0  0  0  0  0  0  0  0
   -0.3710    0.3120    2.0700 O   0  0  0  0  0  0  0  0  0  0  0  0
    0.8490    0.6140    1.4320 C   0  0  0  0  0  0  0  0  0  0  0  0
    1.2180    1.9140    1.2190 C   0  0  0  0  0  0  0  0  0  0  0  0
    2.4120    2.2350    0.5840 C   0  0  0  0  0  0  0  0  0  0  0  0
    3.2110    1.1880    0.1790 C   0  0  0  0  0  0  0  0  0  0  0  0
    2.8550   -0.1250    0.3870 C   0  0  0  0  0  0  0  0  0  0  0  0
    1.6490   -0.4190    1.0280 C   0  0  0  0  0  0  0  0  0  0  0  0
    3.8750   -0.9490   -0.1370 N   0  0  0  0  0  0  0  0  0  0  0  0
    4.2910   -2.2290   -0.6010 C   0  0  0  0  0  0  0  0  0  0  0  0
    3.6380   -3.2760   -0.4080 O   0  0  0  0  0  0  0  0  0  0  0  0
    5.5770   -1.9850   -1.3000 C   0  0  0  0  0  0  0  0  0  0  0  0
    5.7520   -0.6150   -1.2440 O   0  0  0  0  0  0  0  0  0  0  0  0
    4.9950   -0.1290   -0.2580 N   0  0  0  0  0  0  0  0  0  0  0  0
    4.4550    1.0990   -0.4770 O   0  0  0  0  0  0  0  0  0  0  0  0
   -4.5640    1.2660    0.2530 N   0  0  0  0  0  0  0  0  0  0  0  0
   -5.5200    1.0400   -1.1920 P   0  0  0  0  0  0  0  0  0  0  0  0
   -4.8790   -0.1690   -2.2320 O   0  0  0  0  0  0  0  0  0  0  0  0
   -7.1390    0.5950   -0.7500 O   0  0  0  0  0  0  0  0  0  0  0  0
  1  2  2  0
  2  3  1  0
  2 20  1  0
  3  4  1  0
  4  5  2  0
  4  6  1  0
  6  7  1  0
  7  8  2  0
  7 12  1  0
  8  9  1  0
  9 10  2  0
 10 11  1  0
 10 19  1  0
 11 12  2  0
 11 13  1  0
 13 14  1  0
 13 18  1  0
 14 15  2  0
 14 16  1  0
 16 17  1  0
 17 18  1  0
 18 19  1  0
 20 21  1  0
 21 22  1  0
 21 23  1  0
M  END
