
     RDKit          3D

 20 20  0  0  0  0  0  0  0  0999 V2000
   -3.1700   -1.9410    0.1150 N   0  0  0  0  0  0  0  0  0  0  0  0
   -2.9330   -0.6500    0.6980 C   0  0  2  0  0  0  0  0  0  0  0  0
   -4.1850    0.1980    0.7800 C   0  0  0  0  0  0  0  0  0  0  0  0
   -3.8050    1.4990    0.9730 O   0  0  0  0  0  0  0  0  0  0  0  0
   -3.6820    2.4350   -0.4520 P   0  0  0  0  0  0  0  0  0  0  0  0
   -3.1120    4.0300    0.0130 O   0  0  0  0  0  0  0  0  0  0  0  0
   -2.5330    1.8120   -1.5860 O   0  0  0  0  0  0  0  0  0  0  0  0
   -2.4920    0.4410   -1.4680 C   0  0  0  0  0  0  0  0  0  0  0  0
   -1.8850    0.1050   -0.1200 C   0  0  1  0  0  0  0  0  0  0  0  0
   -1.5850    1.2600    0.6000 O   0  0  0  0  0  0  0  0  0  0  0  0
   -0.6900   -0.7320   -0.3380 C   0  0  0  0  0  0  0  0  0  0  0  0
   -0.8410   -1.8040   -0.9780 O   0  0  0  0  0  0  0  0  0  0  0  0
    0.6010   -0.4080    0.1220 N   0  0  0  0  0  0  0  0  0  0  0  0
    1.7650   -1.2270   -0.0920 C   0  0  0  0  0  0  0  0  0  0  0  0
    2.9870   -0.5860    0.5330 C   0  0  0  0  0  0  0  0  0  0  0  0
    4.2200   -1.4290    0.3200 C   0  0  0  0  0  0  0  0  0  0  0  0
    5.3600   -0.8760    0.8810 O   0  0  0  0  0  0  0  0  0  0  0  0
    5.8820    0.3490    0.5220 C   0  0  0  0  0  0  0  0  0  0  0  0
    5.3050    1.0150   -0.3650 O   0  0  0  0  0  0  0  0  0  0  0  0
    7.0270    0.8760    1.1060 O   0  0  0  0  0  0  0  0  0  0  0  0
  2  1  1  6
  2  3  1  0
  2  9  1  0
  3  4  1  0
  4  5  1  0
  5  6  1  0
  5  7  1  0
  7  8  1  0
  8  9  1  0
  9 10  1  1
  9 11  1  0
 11 12  2  0
 11 13  1  0
 13 14  1  0
 14 15  1  0
 15 16  1  0
 16 17  1  0
 17 18  1  0
 18 19  2  0
 18 20  1  0
M  END
