
     RDKit          3D

 20 21  0  0  0  0  0  0  0  0999 V2000
   -5.8190   -1.2520    1.2400 O   0  0  0  0  0  0  0  0  0  0  0  0
   -5.0420   -0.8110    0.3700 C   0  0  0  0  0  0  0  0  0  0  0  0
   -3.6010   -0.5920    0.6610 C   0  0  0  0  0  0  0  0  0  0  0  0
   -3.1250    0.0900   -0.6150 C   0  0  2  0  0  0  0  0  0  0  0  0
   -4.1420   -0.1850   -1.6700 C   0  0  0  0  0  0  0  0  0  0  0  0
   -5.3090   -0.4920   -0.9300 O   0  0  0  0  0  0  0  0  0  0  0  0
   -1.8580   -0.3970   -0.8810 O   0  0  0  0  0  0  0  0  0  0  0  0
   -1.1190    0.2240    0.1780 C   0  0  1  0  0  0  0  0  0  0  0  0
    0.3490    0.0610   -0.2220 C   0  0  0  0  0  0  0  0  0  0  0  0
    0.6700   -0.5600   -1.1000 O   0  0  0  0  0  0  0  0  0  0  0  0
    1.1600    0.7650    0.6960 N   0  0  0  0  0  0  0  0  0  0  0  0
    2.5340    0.8290    0.6090 C   0  0  0  0  0  0  0  0  0  0  0  0
    3.2220   -0.5810    0.4870 C   0  0  0  0  0  0  0  0  0  0  0  0
    4.5230   -0.2430    0.6620 O   0  0  0  0  0  0  0  0  0  0  0  0
    5.5990   -0.4330   -0.5400 P   0  0  0  0  0  0  0  0  0  0  0  0
    5.2560   -1.2880   -1.9430 O   0  0  0  0  0  0  0  0  0  0  0  0
    7.2340   -0.1110   -0.1730 O   0  0  0  0  0  0  0  0  0  0  0  0
   -1.5580    1.5930    0.0790 N   0  0  0  0  0  0  0  0  0  0  0  0
   -2.9020    1.5490   -0.3790 C   0  0  0  0  0  0  0  0  0  0  0  0
   -3.6930    2.5080   -0.4860 O   0  0  0  0  0  0  0  0  0  0  0  0
  1  2  2  0
  2  3  1  0
  2  6  1  0
  4  3  1  1
  4  5  1  0
  4  7  1  0
  4 19  1  0
  5  6  1  0
  7  8  1  0
  8  9  1  6
  8 18  1  0
  9 10  2  0
  9 11  1  0
 11 12  1  0
 12 13  1  0
 13 14  1  0
 14 15  1  0
 15 16  1  0
 15 17  1  0
 18 19  1  0
 19 20  2  0
M  END
