
     RDKit          3D

 20 20  0  0  0  0  0  0  0  0999 V2000
    6.1650   -0.5200    0.0740 C   0  0  0  0  0  0  0  0  0  0  0  0
    4.8540   -0.0350    0.3040 O   0  0  0  0  0  0  0  0  0  0  0  0
    3.7170   -0.7580   -0.0150 C   0  0  0  0  0  0  0  0  0  0  0  0
    3.8610   -1.8920   -0.5290 O   0  0  0  0  0  0  0  0  0  0  0  0
    2.4350   -0.2810    0.2110 O   0  0  0  0  0  0  0  0  0  0  0  0
    1.2850   -0.9860   -0.1000 C   0  0  0  0  0  0  0  0  0  0  0  0
    1.4180   -2.1130   -0.6100 O   0  0  0  0  0  0  0  0  0  0  0  0
   -0.0190   -0.4850    0.1370 N   0  0  0  0  0  0  0  0  0  0  0  0
   -0.2770    0.8110    0.7270 C   0  0  0  0  0  0  0  0  0  0  0  0
   -1.6080    1.2670    0.2140 C   0  0  1  0  0  0  0  0  0  0  0  0
   -1.3470    2.1910   -1.3720 P   0  0  0  0  0  0  0  0  0  0  0  0
    0.0520    3.2200   -1.1600 O   0  0  0  0  0  0  0  0  0  0  0  0
   -2.7170    3.2300   -1.6400 O   0  0  0  0  0  0  0  0  0  0  0  0
   -2.3250   -0.0330    0.0040 C   0  0  2  0  0  0  0  0  0  0  0  0
   -3.1730   -0.3180    1.2290 C   0  0  0  0  0  0  0  0  0  0  0  0
   -2.2880   -0.3970    2.3650 N   0  0  0  0  0  0  0  0  0  0  0  0
   -1.2740   -1.1010   -0.1320 C   0  0  1  0  0  0  0  0  0  0  0  0
   -1.3920   -1.6340   -1.5080 C   0  0  0  0  0  0  0  0  0  0  0  0
   -0.4720   -1.5400   -2.3470 O   0  0  0  0  0  0  0  0  0  0  0  0
   -2.5680   -2.2580   -1.8730 O   0  0  0  0  0  0  0  0  0  0  0  0
  1  2  1  0
  2  3  1  0
  3  4  2  0
  3  5  1  0
  5  6  1  0
  6  7  2  0
  6  8  1  0
  8  9  1  0
  8 17  1  0
  9 10  1  0
 10 11  1  6
 10 14  1  0
 11 12  1  0
 11 13  1  0
 14 15  1  1
 14 17  1  0
 15 16  1  0
 17 18  1  6
 18 19  2  0
 18 20  1  0
M  END
