
     RDKit          3D

 20 21  0  0  0  0  0  0  0  0999 V2000
   -0.5430    1.5100   -1.4220 O   0  0  0  0  0  0  0  0  0  0  0  0
   -1.6000    0.9690   -1.0080 C   0  0  0  0  0  0  0  0  0  0  0  0
   -2.8590    1.0930   -1.7060 N   0  0  0  0  0  0  0  0  0  0  0  0
   -4.1000    1.0410   -0.9470 C   0  0  0  0  0  0  0  0  0  0  0  0
   -3.9520    0.1680    0.2600 C   0  0  2  0  0  0  0  0  0  0  0  0
   -5.1060    0.1440    1.0330 O   0  0  0  0  0  0  0  0  0  0  0  0
   -2.7330    0.5320    1.0760 C   0  0  0  0  0  0  0  0  0  0  0  0
   -1.5880    0.2110    0.1790 N   0  0  0  0  0  0  0  0  0  0  0  0
   -0.6430   -0.7010    0.5990 C   0  0  0  0  0  0  0  0  0  0  0  0
   -0.7950   -1.0970    1.8330 O   0  0  0  0  0  0  0  0  0  0  0  0
    0.4780   -1.2980   -0.0770 C   0  0  0  0  0  0  0  0  0  0  0  0
    0.9210   -1.2020   -1.3110 C   0  0  0  0  0  0  0  0  0  0  0  0
    2.0890   -1.9980   -1.4920 O   0  0  0  0  0  0  0  0  0  0  0  0
    2.5900   -2.1140   -0.1990 C   0  0  1  0  0  0  0  0  0  0  0  0
    3.5120   -1.0180    0.2220 C   0  0  0  0  0  0  0  0  0  0  0  0
    2.9670    0.2380    0.2060 O   0  0  0  0  0  0  0  0  0  0  0  0
    4.2270    1.3420    0.7330 P   0  0  0  0  0  0  0  0  0  0  0  0
    4.0750    2.8790   -0.0310 O   0  0  0  0  0  0  0  0  0  0  0  0
    5.7920    0.6940    0.3830 O   0  0  0  0  0  0  0  0  0  0  0  0
    1.4130   -2.2010    0.5410 O   0  0  0  0  0  0  0  0  0  0  0  0
  1  2  2  0
  2  3  1  0
  2  8  1  0
  3  4  1  0
  4  5  1  0
  5  6  1  1
  5  7  1  0
  7  8  1  0
  8  9  1  0
  9 10  2  0
  9 11  1  0
 11 12  2  0
 11 20  1  0
 12 13  1  0
 13 14  1  0
 14 15  1  1
 14 20  1  0
 15 16  1  0
 16 17  1  0
 17 18  1  0
 17 19  1  0
M  END
