
     RDKit          3D

 20 21  0  0  0  0  0  0  0  0999 V2000
    6.6600   -0.0870    0.5250 O   0  0  0  0  0  0  0  0  0  0  0  0
    5.4700    0.2300    0.2960 C   0  0  0  0  0  0  0  0  0  0  0  0
    4.9070    0.7630   -0.8860 N   0  0  0  0  0  0  0  0  0  0  0  0
    3.4770    0.9850   -0.7230 C   0  0  0  0  0  0  0  0  0  0  0  0
    3.2890    0.7500    0.7430 C   0  0  1  0  0  0  0  0  0  0  0  0
    2.0980   -0.1300    1.0210 C   0  0  0  0  0  0  0  0  0  0  0  0
    2.2390   -1.2410    1.5980 O   0  0  0  0  0  0  0  0  0  0  0  0
    0.8200    0.2490    0.6560 O   0  0  0  0  0  0  0  0  0  0  0  0
   -0.2550   -0.6080    0.9390 C   0  0  1  0  0  0  0  0  0  0  0  0
   -1.2760    0.0180    1.8070 C   0  0  0  0  0  0  0  0  0  0  0  0
   -1.0800    0.8980    2.6050 O   0  0  0  0  0  0  0  0  0  0  0  0
   -2.5610   -0.6370    1.5070 C   0  0  0  0  0  0  0  0  0  0  0  0
   -2.4080   -1.0050    0.0900 N   0  0  0  0  0  0  0  0  0  0  0  0
   -3.5590   -1.3030   -0.7390 C   0  0  0  0  0  0  0  0  0  0  0  0
   -4.1750    0.2490   -1.5510 P   0  0  0  0  0  0  0  0  0  0  0  0
   -2.9430    1.4630   -1.4430 O   0  0  0  0  0  0  0  0  0  0  0  0
   -5.6120    0.8330   -0.7450 O   0  0  0  0  0  0  0  0  0  0  0  0
   -1.0270   -1.0020   -0.2380 C   0  0  0  0  0  0  0  0  0  0  0  0
   -0.5650   -1.2930   -1.3630 O   0  0  0  0  0  0  0  0  0  0  0  0
    4.4290    0.1060    1.2220 O   0  0  0  0  0  0  0  0  0  0  0  0
  1  2  2  0
  2  3  1  0
  2 20  1  0
  3  4  1  0
  4  5  1  0
  5  6  1  6
  5 20  1  0
  6  7  2  0
  6  8  1  0
  9  8  1  6
  9 10  1  0
  9 18  1  0
 10 11  2  0
 10 12  1  0
 12 13  1  0
 13 14  1  0
 13 18  1  0
 14 15  1  0
 15 16  1  0
 15 17  1  0
 18 19  2  0
M  END
