
     RDKit          3D

 21 22  0  0  0  0  0  0  0  0999 V2000
    0.8800   -1.4010   -1.2070 O   0  0  0  0  0  0  0  0  0  0  0  0
    0.6410   -0.5030   -0.3430 C   0  0  0  0  0  0  0  0  0  0  0  0
    1.6530    0.1400    0.2840 O   0  0  0  0  0  0  0  0  0  0  0  0
    2.9950   -0.2750    0.1130 C   0  0  0  0  0  0  0  0  0  0  0  0
    3.9550    0.6660    0.8650 C   0  0  0  0  0  0  0  0  0  0  0  0
    5.1090   -0.0290    0.8080 O   0  0  0  0  0  0  0  0  0  0  0  0
    6.2100   -0.1380   -0.3620 P   0  0  0  0  0  0  0  0  0  0  0  0
    6.4140    1.0720   -1.4750 O   0  0  0  0  0  0  0  0  0  0  0  0
    5.9190   -1.7630   -1.1930 O   0  0  0  0  0  0  0  0  0  0  0  0
   -0.7150   -0.1860    0.0040 N   0  0  0  0  0  0  0  0  0  0  0  0
   -0.9560    0.7990    0.9890 C   0  0  0  0  0  0  0  0  0  0  0  0
   -2.2280    1.5640    0.8120 C   0  0  0  0  0  0  0  0  0  0  0  0
   -3.3180    0.5300    0.6240 C   0  0  1  0  0  0  0  0  0  0  0  0
   -4.5380    1.1320    0.5560 O   0  0  0  0  0  0  0  0  0  0  0  0
   -5.5860    0.4700    0.2730 O   0  0  0  0  0  0  0  0  0  0  0  0
   -5.3490   -0.8390   -0.0220 N   0  0  0  0  0  0  0  0  0  0  0  0
   -4.2280   -1.1300   -0.8070 C   0  0  0  0  0  0  0  0  0  0  0  0
   -4.2840   -2.0560   -1.6460 O   0  0  0  0  0  0  0  0  0  0  0  0
   -2.9890   -0.2420   -0.6430 C   0  0  1  0  0  0  0  0  0  0  0  0
   -2.9880    0.6190   -1.7230 O   0  0  0  0  0  0  0  0  0  0  0  0
   -1.7780   -1.0210   -0.4960 C   0  0  0  0  0  0  0  0  0  0  0  0
  1  2  2  0
  2  3  1  0
  2 10  1  0
  3  4  1  0
  4  5  1  0
  5  6  1  0
  6  7  1  0
  7  8  1  0
  7  9  1  0
 10 11  1  0
 10 21  1  0
 11 12  1  0
 13 12  1  6
 13 14  1  0
 13 19  1  0
 14 15  1  0
 15 16  1  0
 16 17  1  0
 17 18  2  0
 17 19  1  0
 19 20  1  6
 19 21  1  0
M  END
