
     RDKit          3D

 23 23  0  0  0  0  0  0  0  0999 V2000
   -8.6260    0.6540    1.4730 C   0  0  0  0  0  0  0  0  0  0  0  0
   -8.0430    0.3880    0.3270 C   0  0  0  0  0  0  0  0  0  0  0  0
   -6.6030    0.4540    0.1890 C   0  0  0  0  0  0  0  0  0  0  0  0
   -6.0730    0.1750   -0.9910 C   0  0  0  0  0  0  0  0  0  0  0  0
   -6.9580   -0.2000   -2.1430 C   0  0  0  0  0  0  0  0  0  0  0  0
   -5.8290    0.8110    1.3780 C   0  0  0  0  0  0  0  0  0  0  0  0
   -4.4390    0.8430    1.2240 O   0  0  0  0  0  0  0  0  0  0  0  0
   -3.6340   -0.2430    0.9200 C   0  0  0  0  0  0  0  0  0  0  0  0
   -4.1730   -1.3620    0.7760 O   0  0  0  0  0  0  0  0  0  0  0  0
   -2.2070   -0.0800    0.7740 N   0  0  0  0  0  0  0  0  0  0  0  0
   -1.4470   -1.2590    0.4580 C   0  0  0  0  0  0  0  0  0  0  0  0
    0.0230   -0.9090    0.3390 C   0  0  2  0  0  0  0  0  0  0  0  0
    0.6900   -2.0880    0.0330 O   0  0  0  0  0  0  0  0  0  0  0  0
    0.5080   -0.3420    1.6490 C   0  0  0  0  0  0  0  0  0  0  0  0
    2.2600    0.0720    1.4810 S   0  0  0  0  0  0  0  0  0  0  0  0
    3.2220   -1.4350    1.2660 C   0  0  0  0  0  0  0  0  0  0  0  0
    4.7020   -1.0430    1.1370 C   0  0  0  0  0  0  0  0  0  0  0  0
    4.7880   -0.2240    0.0320 O   0  0  0  0  0  0  0  0  0  0  0  0
    6.0750    0.2250   -0.2350 C   0  0  2  0  0  0  0  0  0  0  0  0
    6.1960    1.7200   -0.1560 C   0  0  0  0  0  0  0  0  0  0  0  0
    7.0460    2.1520   -1.3030 C   0  0  0  0  0  0  0  0  0  0  0  0
    7.2100    0.9930   -2.2350 C   0  0  0  0  0  0  0  0  0  0  0  0
    6.5570   -0.1920   -1.6010 C   0  0  0  0  0  0  0  0  0  0  0  0
  1  2  2  0
  2  3  1  0
  3  4  2  3
  3  6  1  0
  4  5  1  0
  6  7  1  0
  7  8  1  0
  8  9  2  0
  8 10  1  0
 10 11  1  0
 11 12  1  0
 12 13  1  1
 12 14  1  0
 14 15  1  0
 15 16  1  0
 16 17  1  0
 17 18  1  0
 19 18  1  6
 19 20  1  0
 19 23  1  0
 20 21  1  0
 21 22  1  0
 22 23  1  0
M  END
