
     RDKit          3D

 23 23  0  0  0  0  0  0  0  0999 V2000
    5.7010   -1.1910   -1.3140 C   0  0  0  0  0  0  0  0  0  0  0  0
    4.6400   -2.1560   -1.7800 C   0  0  0  0  0  0  0  0  0  0  0  0
    3.4600   -2.1270   -0.8110 C   0  0  1  0  0  0  0  0  0  0  0  0
    3.9310   -2.4980    0.4380 O   0  0  0  0  0  0  0  0  0  0  0  0
    2.8860   -0.7430   -0.8020 C   0  0  0  0  0  0  0  0  0  0  0  0
    1.7440   -0.6880    0.1270 C   0  0  0  0  0  0  0  0  0  0  0  0
    1.4070   -1.7160    0.7510 O   0  0  0  0  0  0  0  0  0  0  0  0
    1.0310    0.4820    0.3230 O   0  0  0  0  0  0  0  0  0  0  0  0
   -0.0690    0.5400    1.2150 C   0  0  2  0  0  0  0  0  0  0  0  0
   -1.3740    0.7370    0.4860 C   0  0  0  0  0  0  0  0  0  0  0  0
   -1.5950   -0.3770   -0.3810 O   0  0  0  0  0  0  0  0  0  0  0  0
   -2.7420   -0.4460   -1.1790 C   0  0  0  0  0  0  0  0  0  0  0  0
   -2.9330    0.3800   -2.1870 C   0  0  0  0  0  0  0  0  0  0  0  0
   -4.1420    0.2580   -2.9770 C   0  0  0  0  0  0  0  0  0  0  0  0
   -5.0270   -0.6700   -2.6770 C   0  0  0  0  0  0  0  0  0  0  0  0
   -4.9330   -1.6450   -1.5870 C   0  0  0  0  0  0  0  0  0  0  0  0
   -3.6940   -1.4780   -0.8210 C   0  0  0  0  0  0  0  0  0  0  0  0
   -3.4370   -2.2690    0.2000 N   0  0  0  0  0  0  0  0  0  0  0  0
   -4.6410   -3.4950    0.5700 S   0  0  0  0  0  0  0  0  0  0  0  0
    0.1290    1.4270    2.3870 C   0  0  0  0  0  0  0  0  0  0  0  0
    0.4000    2.8650    2.1270 C   0  0  1  0  0  0  0  0  0  0  0  0
   -0.6780    3.6130    1.3910 C   0  0  0  0  0  0  0  0  0  0  0  0
    0.5300    3.5340    3.5070 C   0  0  0  0  0  0  0  0  0  0  0  0
  1  2  1  0
  2  3  1  0
  3  4  1  1
  3  5  1  0
  5  6  1  0
  6  7  2  0
  6  8  1  0
  8  9  1  0
  9 10  1  6
  9 20  1  0
 10 11  1  0
 11 12  1  0
 12 13  2  0
 12 17  1  0
 13 14  1  0
 14 15  2  0
 15 16  1  0
 16 17  1  0
 17 18  2  3
 18 19  1  0
 20 21  1  0
 21 22  1  1
 21 23  1  0
M  END
