
     RDKit          3D

 23 23  0  0  0  0  0  0  0  0999 V2000
    6.4630    0.4480    2.4260 C   0  0  0  0  0  0  0  0  0  0  0  0
    5.5300    0.5810    1.4060 O   0  0  0  0  0  0  0  0  0  0  0  0
    6.0700    0.1010    0.2300 C   0  0  0  0  0  0  0  0  0  0  0  0
    5.0890    0.2220   -0.9270 C   0  0  0  0  0  0  0  0  0  0  0  0
    3.8300   -0.5620   -0.6500 C   0  0  0  0  0  0  0  0  0  0  0  0
    2.9060   -0.4070   -1.8370 C   0  0  1  0  0  0  0  0  0  0  0  0
    2.5760    1.0310   -2.0340 C   0  0  0  0  0  0  0  0  0  0  0  0
    3.7180   -0.7440   -2.9730 O   0  0  0  0  0  0  0  0  0  0  0  0
    1.7940   -1.3780   -1.8550 C   0  0  0  0  0  0  0  0  0  0  0  0
    0.8190   -1.3630   -0.8400 N   0  0  0  0  0  0  0  0  0  0  0  0
   -0.1130   -0.3770   -0.4780 C   0  0  0  0  0  0  0  0  0  0  0  0
   -0.1300    0.6810   -1.1360 O   0  0  0  0  0  0  0  0  0  0  0  0
   -1.0550   -0.5650    0.6480 C   0  0  0  0  0  0  0  0  0  0  0  0
   -1.0550   -1.6220    1.3220 O   0  0  0  0  0  0  0  0  0  0  0  0
   -1.9880    0.5520    0.9300 C   0  0  0  0  0  0  0  0  0  0  0  0
   -3.0810    0.2170    2.3080 S   0  0  0  0  0  0  0  0  0  0  0  0
   -4.2330   -1.1130    1.9820 C   0  0  0  0  0  0  0  0  0  0  0  0
   -5.2220   -0.7570    0.9030 C   0  0  0  0  0  0  0  0  0  0  0  0
   -5.3950   -1.3860   -0.2460 C   0  0  0  0  0  0  0  0  0  0  0  0
   -6.4610   -0.7140   -1.0070 C   0  0  0  0  0  0  0  0  0  0  0  0
   -6.8830    0.3890   -0.1500 C   0  0  0  0  0  0  0  0  0  0  0  0
   -6.1500    0.3420    0.9530 C   0  0  0  0  0  0  0  0  0  0  0  0
   -6.2510    1.2950    2.1130 C   0  0  0  0  0  0  0  0  0  0  0  0
  1  2  1  0
  2  3  1  0
  3  4  1  0
  4  5  1  0
  5  6  1  0
  6  7  1  6
  6  8  1  0
  6  9  1  0
  9 10  1  0
 10 11  1  0
 11 12  2  0
 11 13  1  0
 13 14  2  0
 13 15  1  0
 15 16  1  0
 16 17  1  0
 17 18  1  0
 18 19  2  0
 18 22  1  0
 19 20  1  0
 20 21  1  0
 21 22  2  0
 22 23  1  0
M  END
