
     RDKit          3D

 23 23  0  0  0  0  0  0  0  0999 V2000
   -4.0930    2.0760    0.9510 C   0  0  0  0  0  0  0  0  0  0  0  0
   -4.3460    0.6190    0.5280 C   0  0  0  0  0  0  0  0  0  0  0  0
   -3.2970    0.3010   -0.4990 C   0  0  1  0  0  0  0  0  0  0  0  0
   -1.9080    0.4530    0.0660 C   0  0  0  0  0  0  0  0  0  0  0  0
   -1.6340   -0.4330    1.2260 C   0  0  0  0  0  0  0  0  0  0  0  0
   -0.2920   -0.2850    1.7690 N   0  0  0  0  0  0  0  0  0  0  0  0
    0.8790   -0.5510    0.9860 C   0  0  0  0  0  0  0  0  0  0  0  0
    0.6980   -0.9180   -0.1940 O   0  0  0  0  0  0  0  0  0  0  0  0
    2.2350   -0.3940    1.5580 C   0  0  0  0  0  0  0  0  0  0  0  0
    3.3210   -0.6260    0.8540 C   0  0  0  0  0  0  0  0  0  0  0  0
    3.5580   -1.0600   -0.5370 C   0  0  0  0  0  0  0  0  0  0  0  0
    4.3630    0.0240   -1.2330 C   0  0  1  0  0  0  0  0  0  0  0  0
    3.6440    1.3390   -1.2440 C   0  0  0  0  0  0  0  0  0  0  0  0
    5.7360    0.1820   -0.6460 C   0  0  0  0  0  0  0  0  0  0  0  0
    4.5560   -0.3990   -2.5700 O   0  0  0  0  0  0  0  0  0  0  0  0
    4.7110   -0.2630    1.9780 S   0  0  0  0  0  0  0  0  0  0  0  0
    3.7030    0.7910    3.1160 C   0  0  0  0  0  0  0  0  0  0  0  0
    2.4260   -0.0020    2.9200 C   0  0  0  0  0  0  0  0  0  0  0  0
    1.6980   -0.2230    3.9450 O   0  0  0  0  0  0  0  0  0  0  0  0
   -3.5420   -0.9880   -1.1700 C   0  0  0  0  0  0  0  0  0  0  0  0
   -4.8250   -0.9840   -1.9070 C   0  0  0  0  0  0  0  0  0  0  0  0
   -5.3270   -2.2590   -2.5710 C   0  0  0  0  0  0  0  0  0  0  0  0
   -5.5430   -0.0080   -2.0330 O   0  0  0  0  0  0  0  0  0  0  0  0
  1  2  1  0
  3  2  1  1
  3  4  1  0
  3 20  1  0
  4  5  1  0
  5  6  1  0
  6  7  1  0
  7  8  2  0
  7  9  1  0
  9 10  2  0
  9 18  1  0
 10 11  1  0
 10 16  1  0
 11 12  1  0
 12 13  1  6
 12 14  1  0
 12 15  1  0
 16 17  1  0
 17 18  1  0
 18 19  2  0
 20 21  1  0
 21 22  1  0
 21 23  2  0
M  END
