
     RDKit          3D

 22 22  0  0  0  0  0  0  0  0999 V2000
    7.4980    0.5170   -0.0460 C   0  0  0  0  0  0  0  0  0  0  0  0
    6.4000   -0.3400   -0.6170 C   0  0  0  0  0  0  0  0  0  0  0  0
    5.4880   -0.8460    0.5140 C   0  0  0  0  0  0  0  0  0  0  0  0
    4.8750    0.3500    1.2310 C   0  0  0  0  0  0  0  0  0  0  0  0
    3.8730    1.3590    0.1180 S   0  0  0  0  0  0  0  0  0  0  0  0
    2.3970    0.4520   -0.3270 C   0  0  0  0  0  0  0  0  0  0  0  0
    2.0980   -0.6630    0.3250 C   0  0  0  0  0  0  0  0  0  0  0  0
    0.8490   -1.3820   -0.0940 C   0  0  0  0  0  0  0  0  0  0  0  0
   -0.2120   -0.4290   -0.3200 N   0  0  0  0  0  0  0  0  0  0  0  0
   -1.5630   -0.6690    0.1280 C   0  0  0  0  0  0  0  0  0  0  0  0
   -1.7180   -1.7500    0.7310 O   0  0  0  0  0  0  0  0  0  0  0  0
   -2.6160    0.2930   -0.1270 C   0  0  0  0  0  0  0  0  0  0  0  0
   -4.0320   -0.1320   -0.0590 C   0  0  2  0  0  0  0  0  0  0  0  0
   -4.5060   -1.1250   -1.0260 C   0  0  0  0  0  0  0  0  0  0  0  0
   -3.9360   -2.4910   -1.0740 C   0  0  0  0  0  0  0  0  0  0  0  0
   -4.1370   -3.2160    0.1240 O   0  0  0  0  0  0  0  0  0  0  0  0
   -4.8130    1.0630   -0.1550 O   0  0  0  0  0  0  0  0  0  0  0  0
   -5.5010    1.2990    1.0150 C   0  0  0  0  0  0  0  0  0  0  0  0
   -6.3060    2.5640    0.8450 C   0  0  0  0  0  0  0  0  0  0  0  0
    0.0630    0.8050   -1.0030 C   0  0  0  0  0  0  0  0  0  0  0  0
    1.4970    0.9740   -1.3980 C   0  0  1  0  0  0  0  0  0  0  0  0
    1.7260    2.3470   -1.5200 O   0  0  0  0  0  0  0  0  0  0  0  0
  1  2  1  0
  2  3  1  0
  3  4  1  0
  4  5  1  0
  5  6  1  0
  6  7  2  0
  6 21  1  0
  7  8  1  0
  8  9  1  0
  9 10  1  0
  9 20  1  0
 10 11  2  0
 10 12  1  0
 13 12  1  6
 13 14  1  0
 13 17  1  0
 14 15  1  0
 15 16  1  0
 17 18  1  0
 18 19  1  0
 20 21  1  0
 21 22  1  1
M  END
