
     RDKit          3D

 23 23  0  0  0  0  0  0  0  0999 V2000
    4.5640   -2.3310    1.4080 C   0  0  0  0  0  0  0  0  0  0  0  0
    4.8920   -1.2960    2.1390 C   0  0  0  0  0  0  0  0  0  0  0  0
    5.2930   -1.5860    3.5900 C   0  0  0  0  0  0  0  0  0  0  0  0
    4.8700    0.0820    1.7510 C   0  0  0  0  0  0  0  0  0  0  0  0
    5.3320    0.9510    2.6990 C   0  0  0  0  0  0  0  0  0  0  0  0
    4.5070    0.6910    0.4780 C   0  0  0  0  0  0  0  0  0  0  0  0
    3.1720    0.8930    0.1030 N   0  0  0  0  0  0  0  0  0  0  0  0
    2.0590    0.0940   -0.1220 C   0  0  0  0  0  0  0  0  0  0  0  0
    2.1130   -1.1130   -0.0020 O   0  0  0  0  0  0  0  0  0  0  0  0
    0.7290    0.7260   -0.5290 C   0  0  1  0  0  0  0  0  0  0  0  0
    0.9820    1.4580   -1.8220 C   0  0  0  0  0  0  0  0  0  0  0  0
   -0.5230    2.2750   -2.3900 S   0  0  0  0  0  0  0  0  0  0  0  0
   -0.9780    3.5960   -1.2310 C   0  0  0  0  0  0  0  0  0  0  0  0
   -0.2100   -0.4030   -0.7510 C   0  0  0  0  0  0  0  0  0  0  0  0
   -1.5760   -0.0360   -1.1540 C   0  0  0  0  0  0  0  0  0  0  0  0
   -1.8760   -0.1260   -2.3800 O   0  0  0  0  0  0  0  0  0  0  0  0
   -2.5520    0.3980   -0.3030 O   0  0  0  0  0  0  0  0  0  0  0  0
   -3.8660    0.7680   -0.6170 C   0  0  0  0  0  0  0  0  0  0  0  0
   -4.6280   -0.3700   -1.2470 C   0  0  1  0  0  0  0  0  0  0  0  0
   -4.7100   -1.5730   -0.3610 C   0  0  0  0  0  0  0  0  0  0  0  0
   -5.9840   -2.2300   -0.8330 C   0  0  0  0  0  0  0  0  0  0  0  0
   -6.7730   -1.0580   -1.3100 C   0  0  0  0  0  0  0  0  0  0  0  0
   -5.9180   -0.0260   -1.5560 O   0  0  0  0  0  0  0  0  0  0  0  0
  1  2  2  0
  2  3  1  0
  2  4  1  0
  4  5  2  0
  4  6  1  0
  6  7  1  0
  7  8  1  0
  8  9  2  0
  8 10  1  0
 10 11  1  6
 10 14  1  0
 11 12  1  0
 12 13  1  0
 14 15  1  0
 15 16  2  0
 15 17  1  0
 17 18  1  0
 19 18  1  1
 19 20  1  0
 19 23  1  0
 20 21  1  0
 21 22  1  0
 22 23  1  0
M  END
