
     RDKit          3D

 20 20  0  0  0  0  0  0  0  0999 V2000
    5.9720    0.1710   -0.9810 C   0  0  0  0  0  0  0  0  0  0  0  0
    4.6270    0.5320   -0.7760 O   0  0  0  0  0  0  0  0  0  0  0  0
    3.6530   -0.3550   -0.3510 C   0  0  0  0  0  0  0  0  0  0  0  0
    3.9650   -1.5540   -0.1290 O   0  0  0  0  0  0  0  0  0  0  0  0
    2.3260    0.0180   -0.1530 O   0  0  0  0  0  0  0  0  0  0  0  0
    1.3680   -0.8900    0.2750 C   0  0  0  0  0  0  0  0  0  0  0  0
    1.6710   -2.0890    0.4980 O   0  0  0  0  0  0  0  0  0  0  0  0
    0.0510   -0.4510    0.4550 N   0  0  0  0  0  0  0  0  0  0  0  0
   -1.0820   -1.2740    0.9000 C   0  0  0  0  0  0  0  0  0  0  0  0
   -2.0890   -0.9260   -0.1990 C   0  0  1  0  0  0  0  0  0  0  0  0
   -3.7950   -1.4260    0.2390 P   0  0  0  0  0  0  0  0  0  0  0  0
   -4.1960   -0.8280    1.8240 O   0  0  0  0  0  0  0  0  0  0  0  0
   -3.8480   -3.1590    0.3230 O   0  0  0  0  0  0  0  0  0  0  0  0
   -1.9060    0.5680   -0.2960 C   0  0  2  0  0  0  0  0  0  0  0  0
   -1.8880    0.9200   -1.7680 C   0  0  0  0  0  0  0  0  0  0  0  0
   -1.7180    2.3310   -2.0010 N   0  0  0  0  0  0  0  0  0  0  0  0
   -0.5300    0.8690    0.2620 C   0  0  1  0  0  0  0  0  0  0  0  0
   -0.5990    1.5090    1.5920 C   0  0  0  0  0  0  0  0  0  0  0  0
   -1.0740    2.6710    1.6700 O   0  0  0  0  0  0  0  0  0  0  0  0
   -0.1740    0.9130    2.7690 O   0  0  0  0  0  0  0  0  0  0  0  0
  1  2  1  0
  2  3  1  0
  3  4  2  0
  3  5  1  0
  5  6  1  0
  6  7  2  0
  6  8  1  0
  8  9  1  0
  8 17  1  0
  9 10  1  0
 10 11  1  1
 10 14  1  0
 11 12  1  0
 11 13  1  0
 14 15  1  6
 14 17  1  0
 15 16  1  0
 17 18  1  1
 18 19  2  0
 18 20  1  0
M  END
