
     RDKit          3D

 20 21  0  0  0  0  0  0  0  0999 V2000
   -3.2600    3.0000   -1.4110 N   0  0  0  0  0  0  0  0  0  0  0  0
   -2.8980    1.8960   -0.8530 C   0  0  0  0  0  0  0  0  0  0  0  0
   -1.5090    1.5380   -0.9310 N   0  0  0  0  0  0  0  0  0  0  0  0
   -0.9270    0.6340   -0.2190 C   0  0  0  0  0  0  0  0  0  0  0  0
    0.5160    0.4510   -0.4860 C   0  0  0  0  0  0  0  0  0  0  0  0
    1.2190    1.1320   -1.3770 C   0  0  0  0  0  0  0  0  0  0  0  0
    2.5510    0.6750   -1.3400 O   0  0  0  0  0  0  0  0  0  0  0  0
    2.6850    0.0950   -0.0490 C   0  0  2  0  0  0  0  0  0  0  0  0
    3.7400   -0.9790   -0.0250 C   0  0  0  0  0  0  0  0  0  0  0  0
    4.9460   -0.3970   -0.3910 O   0  0  0  0  0  0  0  0  0  0  0  0
    6.2450   -1.5410   -0.4000 P   0  0  0  0  0  0  0  0  0  0  0  0
    7.7730   -0.7870   -0.0620 O   0  0  0  0  0  0  0  0  0  0  0  0
    6.0200   -2.8190    0.7230 O   0  0  0  0  0  0  0  0  0  0  0  0
    1.3760   -0.4460    0.1320 O   0  0  0  0  0  0  0  0  0  0  0  0
   -1.4780   -0.1770    0.7530 O   0  0  0  0  0  0  0  0  0  0  0  0
   -2.7820   -0.1890    1.3060 C   0  0  0  0  0  0  0  0  0  0  0  0
   -3.8420   -0.1340    0.2350 C   0  0  1  0  0  0  0  0  0  0  0  0
   -5.1740   -0.5850    0.7940 C   0  0  0  0  0  0  0  0  0  0  0  0
   -6.1570   -0.5430   -0.1680 O   0  0  0  0  0  0  0  0  0  0  0  0
   -3.9510    1.2040   -0.2420 O   0  0  0  0  0  0  0  0  0  0  0  0
  1  2  2  0
  2  3  1  0
  2 20  1  0
  3  4  2  0
  4  5  1  0
  4 15  1  0
  5  6  2  0
  5 14  1  0
  6  7  1  0
  7  8  1  0
  8  9  1  6
  8 14  1  0
  9 10  1  0
 10 11  1  0
 11 12  1  0
 11 13  1  0
 15 16  1  0
 16 17  1  0
 17 18  1  1
 17 20  1  0
 18 19  1  0
M  END
