
     RDKit          3D

 21 22  0  0  0  0  0  0  0  0999 V2000
   -5.6110    0.6370    2.7510 O   0  0  0  0  0  0  0  0  0  0  0  0
   -4.4980   -0.3320    2.2250 P   0  0  0  0  0  0  0  0  0  0  0  0
   -3.3290    0.3040    1.1460 O   0  0  0  0  0  0  0  0  0  0  0  0
   -3.7250    0.2100   -0.1890 C   0  0  0  0  0  0  0  0  0  0  0  0
   -2.6730    0.7780   -1.1150 C   0  0  0  0  0  0  0  0  0  0  0  0
   -1.4070    0.0990   -1.0110 N   0  0  0  0  0  0  0  0  0  0  0  0
   -1.1740   -1.0160   -1.8570 C   0  0  0  0  0  0  0  0  0  0  0  0
   -2.0820   -1.3760   -2.6710 O   0  0  0  0  0  0  0  0  0  0  0  0
    0.0380   -1.6740   -1.7640 O   0  0  0  0  0  0  0  0  0  0  0  0
    1.0080   -1.2660   -0.8740 C   0  0  0  0  0  0  0  0  0  0  0  0
    1.9570   -2.0340   -0.6160 O   0  0  0  0  0  0  0  0  0  0  0  0
    0.9500    0.0510   -0.2220 C   0  0  2  0  0  0  0  0  0  0  0  0
    1.8290    0.9940   -1.0190 C   0  0  0  0  0  0  0  0  0  0  0  0
    3.1070    0.5980   -0.5590 O   0  0  0  0  0  0  0  0  0  0  0  0
    2.9600    0.4880    0.8230 C   0  0  2  0  0  0  0  0  0  0  0  0
    3.9020   -0.4950    1.4160 C   0  0  0  0  0  0  0  0  0  0  0  0
    3.4880   -1.5130    2.0280 O   0  0  0  0  0  0  0  0  0  0  0  0
    5.2770   -0.3260    1.3180 O   0  0  0  0  0  0  0  0  0  0  0  0
    1.5990    0.0710    1.0700 N   0  0  0  0  0  0  0  0  0  0  0  0
   -0.4230    0.5620   -0.0660 C   0  0  0  0  0  0  0  0  0  0  0  0
   -0.7120    1.3630    0.8520 O   0  0  0  0  0  0  0  0  0  0  0  0
  1  2  2  0
  2  3  1  0
  3  4  1  0
  4  5  1  0
  5  6  1  0
  6  7  1  0
  6 20  1  0
  7  8  2  0
  7  9  1  0
  9 10  1  0
 10 11  2  0
 10 12  1  0
 12 13  1  6
 12 19  1  0
 12 20  1  0
 13 14  1  0
 14 15  1  0
 15 16  1  6
 15 19  1  0
 16 17  2  0
 16 18  1  0
 20 21  2  0
M  END
