
     RDKit          3D

 27 29  0  0  0  0  0  0  0  0999 V2000
    7.2530    1.0830   -1.6370 N   0  0  0  0  0  0  0  0  0  0  0  0
    6.3900    0.2240   -0.9090 C   0  0  0  0  0  0  0  0  0  0  0  0
    6.8800   -0.8680   -0.2950 N   0  0  0  0  0  0  0  0  0  0  0  0
    6.0900   -1.7050    0.4030 C   0  0  0  0  0  0  0  0  0  0  0  0
    4.7730   -1.4640    0.5040 N   0  0  0  0  0  0  0  0  0  0  0  0
    4.1950   -0.3790   -0.0890 C   0  0  0  0  0  0  0  0  0  0  0  0
    5.0370    0.4580   -0.7970 C   0  0  0  0  0  0  0  0  0  0  0  0
    4.2350    1.4370   -1.2770 N   0  0  0  0  0  0  0  0  0  0  0  0
    2.9630    1.1960   -0.8720 C   0  0  0  0  0  0  0  0  0  0  0  0
    2.9240    0.0860   -0.1430 N   0  0  0  0  0  0  0  0  0  0  0  0
    1.8170   -0.5550    0.4900 C   0  0  2  0  0  0  0  0  0  0  0  0
    0.6040   -0.3490   -0.1930 O   0  0  0  0  0  0  0  0  0  0  0  0
   -0.2860   -0.9630    0.6880 C   0  0  2  0  0  0  0  0  0  0  0  0
   -1.7140   -0.7220    0.3370 C   0  0  0  0  0  0  0  0  0  0  0  0
   -2.0860    0.6050    0.3280 O   0  0  0  0  0  0  0  0  0  0  0  0
   -3.6280    0.9470   -0.0460 P   0  0  0  0  0  0  0  0  0  0  0  0
   -3.3210    2.1100   -0.9960 O   0  0  0  0  0  0  0  0  0  0  0  0
   -4.4780    2.0080    0.9550 O   0  0  0  0  0  0  0  0  0  0  0  0
   -4.3940    0.1590   -1.2690 O   0  0  0  0  0  0  0  0  0  0  0  0
   -5.9960   -0.0220   -1.1590 P   0  0  0  0  0  0  0  0  0  0  0  0
   -7.0290    1.1680   -0.7690 O   0  0  0  0  0  0  0  0  0  0  0  0
   -6.6920   -1.4960   -1.7040 O   0  0  0  0  0  0  0  0  0  0  0  0
   -5.9320   -0.6250    0.2380 O   0  0  0  0  0  0  0  0  0  0  0  0
    0.0930   -0.5650    2.0750 C   0  0  1  0  0  0  0  0  0  0  0  0
    0.3010   -1.6660    2.8820 O   0  0  0  0  0  0  0  0  0  0  0  0
    1.4750    0.0650    1.8420 C   0  0  1  0  0  0  0  0  0  0  0  0
    2.3720   -0.2780    2.8250 O   0  0  0  0  0  0  0  0  0  0  0  0
  1  2  1  0
  2  3  2  0
  2  7  1  0
  3  4  1  0
  4  5  2  0
  5  6  1  0
  6  7  2  0
  6 10  1  0
  7  8  1  0
  8  9  2  0
  9 10  1  0
 11 10  1  6
 11 12  1  0
 11 26  1  0
 12 13  1  0
 13 14  1  6
 13 24  1  0
 14 15  1  0
 15 16  1  0
 16 17  1  0
 16 18  1  0
 16 19  1  0
 19 20  1  0
 20 21  1  0
 20 22  1  0
 20 23  1  0
 24 25  1  1
 24 26  1  0
 26 27  1  1
M  END
