
     RDKit          3D

 21 21  0  0  0  0  0  0  0  0999 V2000
    0.5170   -0.8550   -1.2310 O   0  0  0  0  0  0  0  0  0  0  0  0
    0.9150   -0.5200   -0.1520 C   0  0  0  0  0  0  0  0  0  0  0  0
    2.2640   -0.9100    0.3080 N   0  0  0  0  0  0  0  0  0  0  0  0
    3.1770   -1.6770   -0.4240 C   0  0  0  0  0  0  0  0  0  0  0  0
    4.4650   -1.7600    0.5590 C   0  0  0  0  0  0  0  0  0  0  0  0
    4.6730   -0.4750    0.8150 O   0  0  0  0  0  0  0  0  0  0  0  0
    6.1790    0.1800    0.2870 P   0  0  0  0  0  0  0  0  0  0  0  0
    5.9070    1.9580    0.2700 O   0  0  0  0  0  0  0  0  0  0  0  0
    6.3220   -0.1820   -1.4950 O   0  0  0  0  0  0  0  0  0  0  0  0
    0.1520    0.2380    0.8030 N   0  0  0  0  0  0  0  0  0  0  0  0
   -1.2440    0.6040    0.5580 C   0  0  2  0  0  0  0  0  0  0  0  0
   -2.0840   -0.4840    1.1720 C   0  0  0  0  0  0  0  0  0  0  0  0
   -2.7850   -1.1280    0.1410 O   0  0  0  0  0  0  0  0  0  0  0  0
   -4.0910   -0.5850    0.1080 C   0  0  0  0  0  0  0  0  0  0  0  0
   -4.1100    0.9140   -0.1240 C   0  0  1  0  0  0  0  0  0  0  0  0
   -5.3300    1.2330   -0.7650 O   0  0  0  0  0  0  0  0  0  0  0  0
   -4.0370    1.6410    1.0270 O   0  0  0  0  0  0  0  0  0  0  0  0
   -5.0240    1.3460    1.8710 O   0  0  0  0  0  0  0  0  0  0  0  0
   -2.9610    1.3600   -1.0180 C   0  0  0  0  0  0  0  0  0  0  0  0
   -3.1890    2.1750   -1.7890 O   0  0  0  0  0  0  0  0  0  0  0  0
   -1.5460    0.7740   -0.8790 C   0  0  0  0  0  0  0  0  0  0  0  0
  1  2  2  0
  2  3  1  0
  2 10  1  0
  3  4  1  0
  4  5  1  0
  5  6  1  0
  6  7  1  0
  7  8  1  0
  7  9  1  0
 11 10  1  6
 11 12  1  0
 11 21  1  0
 12 13  1  0
 13 14  1  0
 14 15  1  0
 15 16  1  6
 15 17  1  0
 15 19  1  0
 17 18  1  0
 19 20  2  0
 19 21  1  0
M  END
