
     RDKit          3D

 20 21  0  0  0  0  0  0  0  0999 V2000
   -3.1110   -0.8100   -1.2500 N   0  0  0  0  0  0  0  0  0  0  0  0
   -2.4990    0.1510   -0.3610 C   0  0  2  0  0  0  0  0  0  0  0  0
   -1.5050   -0.4780    0.5520 C   0  0  0  0  0  0  0  0  0  0  0  0
   -0.2100   -0.4200    0.6410 C   0  0  0  0  0  0  0  0  0  0  0  0
    0.6700    0.3590   -0.2330 C   0  0  0  0  0  0  0  0  0  0  0  0
    0.3280    1.0680   -1.1850 O   0  0  0  0  0  0  0  0  0  0  0  0
    2.0840    0.3070    0.0240 N   0  0  0  0  0  0  0  0  0  0  0  0
    2.9990    1.0590   -0.8110 C   0  0  0  0  0  0  0  0  0  0  0  0
    4.3000    0.8660   -0.3880 O   0  0  0  0  0  0  0  0  0  0  0  0
    4.7520   -0.7940   -0.4650 P   0  0  0  0  0  0  0  0  0  0  0  0
    5.0770   -1.4610    1.0930 O   0  0  0  0  0  0  0  0  0  0  0  0
    6.0620   -1.0480   -1.5670 O   0  0  0  0  0  0  0  0  0  0  0  0
    0.2510   -1.2580    1.7860 C   0  0  0  0  0  0  0  0  0  0  0  0
   -0.8740   -1.8970    2.2560 O   0  0  0  0  0  0  0  0  0  0  0  0
   -1.9710   -1.4330    1.5930 C   0  0  0  0  0  0  0  0  0  0  0  0
   -3.1980   -1.7340    1.7920 O   0  0  0  0  0  0  0  0  0  0  0  0
   -3.5860    0.8460    0.5050 C   0  0  0  0  0  0  0  0  0  0  0  0
   -3.8800    2.0210   -0.1740 O   0  0  0  0  0  0  0  0  0  0  0  0
   -3.2270    1.8890   -1.4090 C   0  0  0  0  0  0  0  0  0  0  0  0
   -2.0440    1.2300   -1.0510 O   0  0  0  0  0  0  0  0  0  0  0  0
  2  1  1  6
  2  3  1  0
  2 17  1  0
  2 20  1  0
  3  4  2  0
  3 15  1  0
  4  5  1  0
  4 13  1  0
  5  6  2  0
  5  7  1  0
  7  8  1  0
  8  9  1  0
  9 10  1  0
 10 11  1  0
 10 12  1  0
 13 14  1  0
 14 15  1  0
 15 16  2  0
 17 18  1  0
 18 19  1  0
 19 20  1  0
M  END
