
     RDKit          3D

 21 22  0  0  0  0  0  0  0  0999 V2000
    1.2170    0.0410   -1.7610 O   0  0  0  0  0  0  0  0  0  0  0  0
    0.6330    0.2590   -0.6760 C   0  0  0  0  0  0  0  0  0  0  0  0
    1.3860    0.8350    0.3360 O   0  0  0  0  0  0  0  0  0  0  0  0
    2.7330    1.1830    0.2320 C   0  0  0  0  0  0  0  0  0  0  0  0
    3.6490    0.0430   -0.0740 C   0  0  0  0  0  0  0  0  0  0  0  0
    4.9550    0.5740   -0.1420 O   0  0  0  0  0  0  0  0  0  0  0  0
    6.1060   -0.6710   -0.4950 P   0  0  0  0  0  0  0  0  0  0  0  0
    5.5110   -2.2430   -0.1230 O   0  0  0  0  0  0  0  0  0  0  0  0
    7.6400   -0.3450    0.2240 O   0  0  0  0  0  0  0  0  0  0  0  0
   -0.7350   -0.0870   -0.5500 N   0  0  0  0  0  0  0  0  0  0  0  0
   -1.3970   -0.6770   -1.6780 C   0  0  0  0  0  0  0  0  0  0  0  0
   -2.7080   -1.3070   -1.2550 C   0  0  0  0  0  0  0  0  0  0  0  0
   -3.4800   -0.2720   -0.5260 C   0  0  1  0  0  0  0  0  0  0  0  0
   -4.8020   -0.5570   -0.3450 O   0  0  0  0  0  0  0  0  0  0  0  0
   -5.4890    0.3480    0.2460 O   0  0  0  0  0  0  0  0  0  0  0  0
   -4.8280    1.3090    0.8890 N   0  0  0  0  0  0  0  0  0  0  0  0
   -3.5660    1.0380    1.4460 C   0  0  0  0  0  0  0  0  0  0  0  0
   -3.1180    1.6760    2.4010 O   0  0  0  0  0  0  0  0  0  0  0  0
   -2.7980   -0.0530    0.8330 C   0  0  1  0  0  0  0  0  0  0  0  0
   -3.0350   -1.1950    1.6370 O   0  0  0  0  0  0  0  0  0  0  0  0
   -1.3500    0.1890    0.7220 C   0  0  0  0  0  0  0  0  0  0  0  0
  1  2  2  0
  2  3  1  0
  2 10  1  0
  3  4  1  0
  4  5  1  0
  5  6  1  0
  6  7  1  0
  7  8  1  0
  7  9  1  0
 10 11  1  0
 10 21  1  0
 11 12  1  0
 13 12  1  1
 13 14  1  0
 13 19  1  0
 14 15  1  0
 15 16  1  0
 16 17  1  0
 17 18  2  0
 17 19  1  0
 19 20  1  1
 19 21  1  0
M  END
