
     RDKit          3D

 20 21  0  0  0  0  0  0  0  0999 V2000
   -6.6420   -1.1720   -1.0170 O   0  0  0  0  0  0  0  0  0  0  0  0
   -5.4910   -0.8640   -0.6130 C   0  0  0  0  0  0  0  0  0  0  0  0
   -5.2290   -0.3290    0.6750 N   0  0  0  0  0  0  0  0  0  0  0  0
   -3.7980   -0.1260    0.7410 C   0  0  0  0  0  0  0  0  0  0  0  0
   -3.4240   -0.0230   -0.7190 C   0  0  1  0  0  0  0  0  0  0  0  0
   -2.0030   -0.2970   -0.9630 C   0  0  0  0  0  0  0  0  0  0  0  0
   -1.6860   -1.2990   -1.6410 O   0  0  0  0  0  0  0  0  0  0  0  0
   -1.0230    0.5140   -0.4680 O   0  0  0  0  0  0  0  0  0  0  0  0
    0.3540    0.3330   -0.6480 C   0  0  1  0  0  0  0  0  0  0  0  0
    1.0190    1.4650   -1.3300 C   0  0  0  0  0  0  0  0  0  0  0  0
    0.6020    2.3680   -2.0010 O   0  0  0  0  0  0  0  0  0  0  0  0
    2.4830    1.2780   -1.0060 C   0  0  0  0  0  0  0  0  0  0  0  0
    2.4330    0.6730    0.3190 N   0  0  0  0  0  0  0  0  0  0  0  0
    3.5550    0.5510    1.2230 C   0  0  0  0  0  0  0  0  0  0  0  0
    4.4900   -1.0130    0.9980 P   0  0  0  0  0  0  0  0  0  0  0  0
    3.6110   -2.2280    0.1650 O   0  0  0  0  0  0  0  0  0  0  0  0
    6.0520   -0.7600    0.2730 O   0  0  0  0  0  0  0  0  0  0  0  0
    1.1150    0.2150    0.6020 C   0  0  0  0  0  0  0  0  0  0  0  0
    0.7330   -0.2040    1.7400 O   0  0  0  0  0  0  0  0  0  0  0  0
   -4.2760   -0.9800   -1.3160 O   0  0  0  0  0  0  0  0  0  0  0  0
  1  2  2  0
  2  3  1  0
  2 20  1  0
  3  4  1  0
  4  5  1  0
  5  6  1  1
  5 20  1  0
  6  7  2  0
  6  8  1  0
  9  8  1  1
  9 10  1  0
  9 18  1  0
 10 11  2  0
 10 12  1  0
 12 13  1  0
 13 14  1  0
 13 18  1  0
 14 15  1  0
 15 16  1  0
 15 17  1  0
 18 19  2  0
M  END
