
     RDKit          3D

 20 20  0  0  0  0  0  0  0  0999 V2000
    2.8430    0.8390    1.0390 N   0  0  0  0  0  0  0  0  0  0  0  0
    2.4520   -0.4840    0.5370 C   0  0  2  0  0  0  0  0  0  0  0  0
    3.7250   -1.1820    0.1350 C   0  0  0  0  0  0  0  0  0  0  0  0
    4.0380   -0.8470   -1.1540 O   0  0  0  0  0  0  0  0  0  0  0  0
    4.0560    0.8150   -1.5010 P   0  0  0  0  0  0  0  0  0  0  0  0
    5.5110    1.6130   -0.9910 O   0  0  0  0  0  0  0  0  0  0  0  0
    2.7060    1.6960   -0.9880 O   0  0  0  0  0  0  0  0  0  0  0  0
    1.4970    1.0580   -1.0850 C   0  0  0  0  0  0  0  0  0  0  0  0
    1.5500   -0.3900   -0.6560 C   0  0  1  0  0  0  0  0  0  0  0  0
    1.9670   -1.1390   -1.7320 O   0  0  0  0  0  0  0  0  0  0  0  0
    0.1630   -0.8300   -0.2960 C   0  0  0  0  0  0  0  0  0  0  0  0
   -0.4230   -1.7310   -0.9290 O   0  0  0  0  0  0  0  0  0  0  0  0
   -0.4570   -0.1890    0.7850 N   0  0  0  0  0  0  0  0  0  0  0  0
   -1.7830   -0.5320    1.2070 C   0  0  0  0  0  0  0  0  0  0  0  0
   -2.7720   -0.2770    0.1240 C   0  0  0  0  0  0  0  0  0  0  0  0
   -4.1380   -0.6620    0.6660 C   0  0  0  0  0  0  0  0  0  0  0  0
   -5.1520   -0.4610   -0.2770 O   0  0  0  0  0  0  0  0  0  0  0  0
   -5.4750    0.7570   -0.8550 C   0  0  0  0  0  0  0  0  0  0  0  0
   -4.8200    1.7730   -0.5200 O   0  0  0  0  0  0  0  0  0  0  0  0
   -6.5030    0.8480   -1.7840 O   0  0  0  0  0  0  0  0  0  0  0  0
  2  1  1  6
  2  3  1  0
  2  9  1  0
  3  4  1  0
  4  5  1  0
  5  6  1  0
  5  7  1  0
  7  8  1  0
  8  9  1  0
  9 10  1  6
  9 11  1  0
 11 12  2  0
 11 13  1  0
 13 14  1  0
 14 15  1  0
 15 16  1  0
 16 17  1  0
 17 18  1  0
 18 19  2  0
 18 20  1  0
M  END
