
     RDKit          3D

  8  8  0  0  0  0  0  0  0  0999 V2000
   -1.2990   -1.0550    0.2580 C   0  0  0  0  0  0  0  0  0  0  0  0
   -0.1870   -0.1030    0.0300 C   0  0  0  0  0  0  0  0  0  0  0  0
    1.1010   -0.3850   -0.0670 C   0  0  0  0  0  0  0  0  0  0  0  0
    1.6400   -1.6950    0.0370 N   0  0  0  0  0  0  0  0  0  0  0  0
    1.7890    0.8700   -0.2890 C   0  0  0  0  0  0  0  0  0  0  0  0
    0.9310    1.8580   -0.3210 N   0  0  0  0  0  0  0  0  0  0  0  0
   -0.3820    1.3460   -0.1250 C   0  0  0  0  0  0  0  0  0  0  0  0
   -1.4990    1.9830   -0.0890 N   0  0  0  0  0  0  0  0  0  0  0  0
  1  2  1  0
  2  3  2  0
  2  7  1  0
  3  4  1  0
  3  5  1  0
  5  6  2  0
  6  7  1  0
  7  8  2  0
M  CHG  1   8   1
M  END
