
     RDKit          3D

 21 21  0  0  0  0  0  0  0  0999 V2000
   -5.3000    1.0250   -0.1260 N   0  0  0  0  0  0  0  0  0  0  0  0
   -4.2520    0.0170   -0.1150 C   0  0  0  0  0  0  0  0  0  0  0  0
   -4.5610   -1.1900   -0.0340 O   0  0  0  0  0  0  0  0  0  0  0  0
   -2.8950    0.4080   -0.1960 N   0  0  0  0  0  0  0  0  0  0  0  0
   -1.7570   -0.4650   -0.2110 C   0  0  0  0  0  0  0  0  0  0  0  0
   -1.9040   -1.7220   -0.4980 C   0  0  0  0  0  0  0  0  0  0  0  0
   -0.8990   -2.8050   -0.5730 C   0  0  0  0  0  0  0  0  0  0  0  0
    0.7550   -2.2370   -0.3250 S   0  0  0  0  0  0  0  0  0  0  0  0
    0.6900   -0.4500    0.0470 C   0  0  0  0  0  0  0  0  0  0  0  0
    2.0050    0.1660    0.1430 C   0  0  0  0  0  0  0  0  0  0  0  0
    2.1870    1.3810    0.2090 O   0  0  0  0  0  0  0  0  0  0  0  0
    3.1500   -0.6000    0.1690 O   0  0  0  0  0  0  0  0  0  0  0  0
    4.4240   -0.1060    0.2520 C   0  0  0  0  0  0  0  0  0  0  0  0
    4.9770    0.7290   -0.8290 C   0  0  1  0  0  0  0  0  0  0  0  0
    4.2640    1.8650   -1.0320 F   0  0  0  0  0  0  0  0  0  0  0  0
    6.2480    1.1520   -0.3930 F   0  0  0  0  0  0  0  0  0  0  0  0
   -0.4580    0.1920    0.0710 C   0  0  0  0  0  0  0  0  0  0  0  0
   -0.5240    1.6290    0.5250 C   0  0  2  0  0  0  0  0  0  0  0  0
   -0.7510    2.5070   -0.4900 F   0  0  0  0  0  0  0  0  0  0  0  0
    0.4910    2.0080    1.3080 F   0  0  0  0  0  0  0  0  0  0  0  0
   -1.6400    1.6470    1.4270 F   0  0  0  0  0  0  0  0  0  0  0  0
  1  2  1  0
  2  3  2  0
  2  4  1  0
  4  5  1  0
  5  6  2  0
  5 17  1  0
  6  7  1  0
  7  8  1  0
  8  9  1  0
  9 10  1  0
  9 17  2  0
 10 11  2  0
 10 12  1  0
 12 13  1  0
 13 14  1  0
 14 15  1  1
 14 16  1  0
 17 18  1  0
 18 19  1  6
 18 20  1  0
 18 21  1  0
M  END
