
     RDKit          3D

  8  8  0  0  0  0  0  0  0  0999 V2000
   -1.8610    0.8840    0.4400 N   0  0  0  0  0  0  0  0  0  0  0  0
   -1.7620   -0.5060    0.0360 C   0  0  0  0  0  0  0  0  0  0  0  0
   -0.7010   -0.6660   -1.0630 C   0  0  0  0  0  0  0  0  0  0  0  0
    0.6060   -0.1930   -0.4790 C   0  0  0  0  0  0  0  0  0  0  0  0
    1.1140    1.0510   -0.5020 N   0  0  0  0  0  0  0  0  0  0  0  0
    2.3000    1.0810    0.1220 C   0  0  0  0  0  0  0  0  0  0  0  0
    2.5640   -0.1700    0.5570 C   0  0  0  0  0  0  0  0  0  0  0  0
    1.5160   -0.9290    0.1780 N   0  0  0  0  0  0  0  0  0  0  0  0
  1  2  1  0
  2  3  1  0
  3  4  1  0
  4  5  2  0
  4  8  1  0
  5  6  1  0
  6  7  2  0
  7  8  1  0
M  CHG  1   1   1
M  END
