
     RDKit          3D

  8  7  0  0  0  0  0  0  0  0999 V2000
   -2.2910   -1.4140   -0.3940 C   0  0  0  0  0  0  0  0  0  0  0  0
   -1.9600   -0.1810   -0.0840 C   0  0  0  0  0  0  0  0  0  0  0  0
   -2.8730    0.7010    0.5550 N   0  0  0  0  0  0  0  0  0  0  0  0
   -0.6320    0.2790   -0.4070 N   0  0  0  0  0  0  0  0  0  0  0  0
    0.4030   -0.1520    0.2020 C   0  0  0  0  0  0  0  0  0  0  0  0
    1.7010    0.3640   -0.1860 C   0  0  0  0  0  0  0  0  0  0  0  0
    2.9200   -0.1210    0.5060 C   0  0  0  0  0  0  0  0  0  0  0  0
    1.8350    1.2390   -1.1220 N   0  0  0  0  0  0  0  0  0  0  0  0
  1  2  2  0
  2  3  1  0
  2  4  1  0
  4  5  2  3
  5  6  1  0
  6  7  1  0
  6  8  2  0
M  CHG  1   4   1
M  END
