
     RDKit          3D

  8  7  0  0  0  0  0  0  0  0999 V2000
    0.8990    2.0680   -0.7650 C   0  0  0  0  0  0  0  0  0  0  0  0
    1.0130    1.3130    0.2740 N   0  0  0  0  0  0  0  0  0  0  0  0
    0.9120   -0.1000    0.2020 C   0  0  0  0  0  0  0  0  0  0  0  0
    2.0320   -1.0030    0.5600 C   0  0  0  0  0  0  0  0  0  0  0  0
   -0.2220   -0.6510   -0.1990 C   0  0  0  0  0  0  0  0  0  0  0  0
   -0.3940   -2.0510   -0.2950 N   0  0  0  0  0  0  0  0  0  0  0  0
   -1.3540    0.1570   -0.5630 N   0  0  0  0  0  0  0  0  0  0  0  0
   -2.4180    0.4600    0.3590 C   0  0  0  0  0  0  0  0  0  0  0  0
  1  2  2  0
  2  3  1  0
  3  4  1  0
  3  5  2  3
  5  6  1  0
  5  7  1  0
  7  8  1  0
M  CHG  1   2   1
M  END
