
     RDKit          3D

  8  8  0  0  0  0  0  0  0  0999 V2000
   -1.3650   -1.8070   -0.1590 C   0  0  0  0  0  0  0  0  0  0  0  0
   -0.9750   -0.4140   -0.0590 N   0  0  0  0  0  0  0  0  0  0  0  0
   -1.9000    0.7000   -0.0190 C   0  0  0  0  0  0  0  0  0  0  0  0
   -1.0540    1.9290    0.0360 C   0  0  0  0  0  0  0  0  0  0  0  0
    0.2940    1.3990    0.0690 N   0  0  0  0  0  0  0  0  0  0  0  0
    0.3150    0.1150    0.0160 C   0  0  0  0  0  0  0  0  0  0  0  0
    1.5870   -0.6790    0.0360 C   0  0  0  0  0  0  0  0  0  0  0  0
    2.7520    0.1810    0.1190 N   0  0  0  0  0  0  0  0  0  0  0  0
  1  2  1  0
  2  3  1  0
  2  6  1  0
  3  4  1  0
  4  5  1  0
  5  6  2  0
  6  7  1  0
  7  8  1  0
M  CHG  1   8   1
M  END
