
     RDKit          3D

 21 23  0  0  0  0  0  0  0  0999 V2000
    5.3260   -1.6330    0.0500 C   0  0  0  0  0  0  0  0  0  0  0  0
    3.9690   -1.6050    0.0520 C   0  0  0  0  0  0  0  0  0  0  0  0
    3.3050   -2.8920    0.2380 C   0  0  0  0  0  0  0  0  0  0  0  0
    3.3350   -0.3480   -0.1230 C   0  0  0  0  0  0  0  0  0  0  0  0
    2.0870   -0.0130   -0.1650 C   0  0  0  0  0  0  0  0  0  0  0  0
    1.7890    1.3860   -0.3610 N   0  0  0  0  0  0  0  0  0  0  0  0
    0.6140    1.8680   -0.4240 C   0  0  0  0  0  0  0  0  0  0  0  0
    0.3650    3.6060   -0.6690 S   0  0  0  0  0  0  0  0  0  0  0  0
    1.9030    4.5180   -0.8050 C   0  0  0  0  0  0  0  0  0  0  0  0
    1.5630    5.9830   -1.0110 C   0  0  0  0  0  0  0  0  0  0  0  0
   -0.5080    1.0110   -0.2980 N   0  0  0  0  0  0  0  0  0  0  0  0
   -1.7840    1.2590   -0.3270 N   0  0  0  0  0  0  0  0  0  0  0  0
   -2.5150    0.1410   -0.1660 C   0  0  0  0  0  0  0  0  0  0  0  0
   -1.6040   -0.8830   -0.0250 C   0  0  0  0  0  0  0  0  0  0  0  0
   -0.3410   -0.3220   -0.1100 C   0  0  0  0  0  0  0  0  0  0  0  0
    0.9950   -0.8730   -0.0380 N   0  0  0  0  0  0  0  0  0  0  0  0
   -1.8350   -2.3140    0.1790 C   0  0  0  0  0  0  0  0  0  0  0  0
   -2.9110   -2.5590    1.2160 C   0  0  0  0  0  0  0  0  0  0  0  0
   -4.2380   -2.2470    0.5500 C   0  0  0  0  0  0  0  0  0  0  0  0
   -4.5910   -0.8220    0.8160 C   0  0  0  0  0  0  0  0  0  0  0  0
   -3.9750    0.1490   -0.1610 C   0  0  0  0  0  0  0  0  0  0  0  0
  1  2  2  0
  2  3  1  0
  2  4  1  0
  4  5  2  3
  5  6  1  0
  5 16  1  0
  6  7  2  0
  7  8  1  0
  7 11  1  0
  8  9  1  0
  9 10  1  0
 11 12  1  0
 11 15  1  0
 12 13  2  0
 13 14  1  0
 13 21  1  0
 14 15  2  0
 14 17  1  0
 15 16  1  0
 17 18  1  0
 18 19  1  0
 19 20  1  0
 20 21  1  0
M  END
