
     RDKit          3D

 21 23  0  0  0  0  0  0  0  0999 V2000
    4.7440    2.1460    0.5990 C   0  0  0  0  0  0  0  0  0  0  0  0
    4.9430    0.9110    0.1750 C   0  0  0  0  0  0  0  0  0  0  0  0
    5.9560    0.4100   -0.7340 C   0  0  0  0  0  0  0  0  0  0  0  0
    5.7730   -0.8840   -0.8650 C   0  0  0  0  0  0  0  0  0  0  0  0
    4.6410   -1.3140   -0.0600 C   0  0  0  0  0  0  0  0  0  0  0  0
    4.1580   -0.2570    0.5480 C   0  0  0  0  0  0  0  0  0  0  0  0
    3.0490   -0.2320    1.4270 N   0  0  0  0  0  0  0  0  0  0  0  0
    1.7310    0.0710    0.9670 C   0  0  0  0  0  0  0  0  0  0  0  0
    1.1310   -0.9970    0.0750 C   0  0  0  0  0  0  0  0  0  0  0  0
   -0.1760   -0.5710   -0.3250 N   0  0  0  0  0  0  0  0  0  0  0  0
   -1.3660   -0.7780    0.2600 C   0  0  0  0  0  0  0  0  0  0  0  0
   -2.3080   -0.1630   -0.5050 C   0  0  0  0  0  0  0  0  0  0  0  0
   -3.7750   -0.0770   -0.3250 C   0  0  0  0  0  0  0  0  0  0  0  0
   -4.4390    0.6100   -1.2450 C   0  0  0  0  0  0  0  0  0  0  0  0
   -5.8650    0.8870   -1.3670 C   0  0  0  0  0  0  0  0  0  0  0  0
   -6.7920    0.9940   -0.4120 C   0  0  0  0  0  0  0  0  0  0  0  0
   -6.4980    0.8150    1.3470 S   0  0  0  0  0  0  0  0  0  0  0  0
   -5.3390   -0.5450    1.6040 C   0  0  0  0  0  0  0  0  0  0  0  0
   -4.2870   -0.7560    0.8280 C   0  0  0  0  0  0  0  0  0  0  0  0
   -1.6830    0.4110   -1.5480 N   0  0  0  0  0  0  0  0  0  0  0  0
   -0.4110    0.1480   -1.4090 N   0  0  0  0  0  0  0  0  0  0  0  0
  1  2  2  0
  2  3  1  0
  2  6  1  0
  3  4  2  0
  4  5  1  0
  5  6  2  0
  6  7  1  0
  7  8  1  0
  8  9  1  0
  9 10  1  0
 10 11  1  0
 10 21  1  0
 11 12  2  0
 12 13  1  0
 12 20  1  0
 13 14  2  0
 13 19  1  0
 14 15  1  0
 15 16  2  0
 16 17  1  0
 17 18  1  0
 18 19  2  0
 20 21  2  0
M  END
