
     RDKit          3D

 21 23  0  0  0  0  0  0  0  0999 V2000
    6.3300    0.0510    0.7230 C   0  0  0  0  0  0  0  0  0  0  0  0
    4.8600    0.2610    0.9300 C   0  0  0  0  0  0  0  0  0  0  0  0
    3.9730   -0.3470    0.1760 C   0  0  0  0  0  0  0  0  0  0  0  0
    2.5510   -0.1520    0.3680 C   0  0  0  0  0  0  0  0  0  0  0  0
    1.5730   -0.6860   -0.3020 C   0  0  0  0  0  0  0  0  0  0  0  0
    0.2400   -0.3590    0.0510 N   0  0  0  0  0  0  0  0  0  0  0  0
   -0.1060   -0.1810    1.4380 C   0  0  0  0  0  0  0  0  0  0  0  0
   -0.5290    1.2350    1.6180 C   0  0  0  0  0  0  0  0  0  0  0  0
   -1.2140    1.8780    0.4830 C   0  0  0  0  0  0  0  0  0  0  0  0
   -1.7180    0.9780   -0.5960 C   0  0  2  0  0  0  0  0  0  0  0  0
   -3.1040    0.5320   -0.2700 C   0  0  0  0  0  0  0  0  0  0  0  0
   -3.7120    0.9090    0.8840 N   0  0  0  0  0  0  0  0  0  0  0  0
   -4.9540    0.5260    1.2080 C   0  0  0  0  0  0  0  0  0  0  0  0
   -5.6760   -0.2850    0.3570 C   0  0  0  0  0  0  0  0  0  0  0  0
   -5.0990   -0.6720   -0.7890 N   0  0  0  0  0  0  0  0  0  0  0  0
   -3.8470   -0.2780   -1.1020 C   0  0  0  0  0  0  0  0  0  0  0  0
   -3.2320   -0.6960   -2.3370 N   0  0  0  0  0  0  0  0  0  0  0  0
   -0.8230   -0.1870   -0.9040 C   0  0  0  0  0  0  0  0  0  0  0  0
    1.7810   -1.6130   -1.4060 C   0  0  0  0  0  0  0  0  0  0  0  0
    2.9480   -2.0160   -1.8550 C   0  0  0  0  0  0  0  0  0  0  0  0
    4.4790   -1.4630   -1.1470 S   0  0  0  0  0  0  0  0  0  0  0  0
  1  2  1  0
  2  3  2  3
  3  4  1  0
  3 21  1  0
  4  5  2  0
  5  6  1  0
  5 19  1  0
  6  7  1  0
  6 18  1  0
  7  8  1  0
  8  9  1  0
  9 10  1  0
 10 11  1  1
 10 18  1  0
 11 12  2  0
 11 16  1  0
 12 13  1  0
 13 14  2  0
 14 15  1  0
 15 16  2  0
 16 17  1  0
 19 20  2  0
 20 21  1  0
M  END
