
     RDKit          3D

 21 23  0  0  0  0  0  0  0  0999 V2000
   -5.5280   -0.2890   -0.8790 C   0  0  0  0  0  0  0  0  0  0  0  0
   -4.2360   -0.3810   -1.0310 C   0  0  0  0  0  0  0  0  0  0  0  0
   -3.7610   -1.1020   -2.1520 C   0  0  0  0  0  0  0  0  0  0  0  0
   -2.4260   -1.2390   -2.3740 C   0  0  0  0  0  0  0  0  0  0  0  0
   -1.5200   -0.6720   -1.5030 C   0  0  0  0  0  0  0  0  0  0  0  0
   -0.1700   -0.6600   -1.4950 N   0  0  0  0  0  0  0  0  0  0  0  0
    0.2430    0.0300   -0.4300 C   0  0  0  0  0  0  0  0  0  0  0  0
    1.6640    0.2680   -0.0700 C   0  0  2  0  0  0  0  0  0  0  0  0
    2.3770    0.9000   -1.2190 C   0  0  0  0  0  0  0  0  0  0  0  0
    2.4710   -1.3190    0.2960 S   0  0  0  0  0  0  0  0  0  0  0  0
    4.1750   -0.9570    0.7190 C   0  0  0  0  0  0  0  0  0  0  0  0
    4.5550   -0.6980    1.9920 N   0  0  0  0  0  0  0  0  0  0  0  0
    5.8300   -0.4260    2.3160 C   0  0  0  0  0  0  0  0  0  0  0  0
    6.8100   -0.4010    1.3470 C   0  0  0  0  0  0  0  0  0  0  0  0
    6.4270   -0.6630    0.0470 C   0  0  0  0  0  0  0  0  0  0  0  0
    5.1410   -0.9280   -0.2170 N   0  0  0  0  0  0  0  0  0  0  0  0
   -0.8600    0.4480    0.2270 N   0  0  0  0  0  0  0  0  0  0  0  0
   -1.9740    0.0270   -0.4170 C   0  0  0  0  0  0  0  0  0  0  0  0
   -3.3640    0.1870   -0.1590 C   0  0  0  0  0  0  0  0  0  0  0  0
   -3.6490    0.8710    0.9010 C   0  0  0  0  0  0  0  0  0  0  0  0
   -4.9120    1.2740    1.5300 C   0  0  0  0  0  0  0  0  0  0  0  0
  1  2  2  0
  2  3  1  0
  2 19  1  0
  3  4  2  0
  4  5  1  0
  5  6  1  0
  5 18  2  0
  6  7  2  0
  7  8  1  0
  7 17  1  0
  8  9  1  6
  8 10  1  0
 10 11  1  0
 11 12  2  0
 11 16  1  0
 12 13  1  0
 13 14  2  0
 14 15  1  0
 15 16  2  0
 17 18  1  0
 18 19  1  0
 19 20  2  3
 20 21  1  0
M  END
