
     RDKit          3D

 21 23  0  0  0  0  0  0  0  0999 V2000
   -2.8740   -2.5270    0.3730 C   0  0  0  0  0  0  0  0  0  0  0  0
   -3.7280   -1.3090    0.1210 C   0  0  0  0  0  0  0  0  0  0  0  0
   -3.3810   -0.1340    0.6020 C   0  0  0  0  0  0  0  0  0  0  0  0
   -2.2030    0.0070    1.3630 N   0  0  0  0  0  0  0  0  0  0  0  0
   -0.9370    0.4420    0.7850 C   0  0  0  0  0  0  0  0  0  0  0  0
    0.1720    0.6680    1.0390 N   0  0  0  0  0  0  0  0  0  0  0  0
    1.1620    1.0680    0.2900 C   0  0  0  0  0  0  0  0  0  0  0  0
    2.5880    1.3410    0.7020 C   0  0  0  0  0  0  0  0  0  0  0  0
    3.3070    0.1200    0.5370 N   0  0  0  0  0  0  0  0  0  0  0  0
    4.6990    0.2180    0.8950 C   0  0  0  0  0  0  0  0  0  0  0  0
    5.3700   -0.9710    0.2260 C   0  0  0  0  0  0  0  0  0  0  0  0
    4.2870   -1.5590   -0.6810 C   0  0  0  0  0  0  0  0  0  0  0  0
    3.3770   -0.3320   -0.8310 C   0  0  2  0  0  0  0  0  0  0  0  0
    4.1220    0.6300   -1.7250 C   0  0  0  0  0  0  0  0  0  0  0  0
    0.8120    1.2520   -1.0560 C   0  0  0  0  0  0  0  0  0  0  0  0
   -0.9540    0.8140   -1.0740 S   0  0  0  0  0  0  0  0  0  0  0  0
   -4.2010    0.9850    0.3480 N   0  0  0  0  0  0  0  0  0  0  0  0
   -3.8640    2.3010    0.8550 C   0  0  0  0  0  0  0  0  0  0  0  0
   -5.3790    0.7980   -0.4230 C   0  0  0  0  0  0  0  0  0  0  0  0
   -5.7620   -0.3530   -0.9220 C   0  0  0  0  0  0  0  0  0  0  0  0
   -4.9440   -1.5590   -0.6890 C   0  0  0  0  0  0  0  0  0  0  0  0
  1  2  1  0
  2  3  2  0
  2 21  1  0
  3  4  1  0
  3 17  1  0
  4  5  1  0
  5  6  2  0
  5 16  1  0
  6  7  1  0
  7  8  1  0
  7 15  2  0
  8  9  1  0
  9 10  1  0
  9 13  1  0
 10 11  1  0
 11 12  1  0
 12 13  1  0
 13 14  1  6
 15 16  1  0
 17 18  1  0
 17 19  1  0
 19 20  2  0
 20 21  1  0
M  END
