
     RDKit          3D

 21 23  0  0  0  0  0  0  0  0999 V2000
    4.2390    1.0090    1.4990 C   0  0  0  0  0  0  0  0  0  0  0  0
    3.7620   -0.0550    0.9630 C   0  0  0  0  0  0  0  0  0  0  0  0
    4.7560   -1.5320    0.4910 S   0  0  0  0  0  0  0  0  0  0  0  0
    3.3930   -2.6330    1.1530 C   0  0  0  0  0  0  0  0  0  0  0  0
    2.2490   -1.8130    0.7040 C   0  0  0  0  0  0  0  0  0  0  0  0
    2.4300   -0.5200    0.6030 C   0  0  0  0  0  0  0  0  0  0  0  0
    1.3240    0.3900    0.1980 C   0  0  0  0  0  0  0  0  0  0  0  0
   -0.0020    0.0490    0.2090 N   0  0  0  0  0  0  0  0  0  0  0  0
   -0.7960    0.9970   -0.2690 C   0  0  0  0  0  0  0  0  0  0  0  0
   -2.2410    1.0650   -0.4910 C   0  0  0  0  0  0  0  0  0  0  0  0
   -2.8010    2.3340   -0.7550 C   0  0  0  0  0  0  0  0  0  0  0  0
   -4.1110    2.4310   -0.9670 N   0  0  0  0  0  0  0  0  0  0  0  0
   -4.9100    1.3580   -0.9360 C   0  0  0  0  0  0  0  0  0  0  0  0
   -4.3710    0.1660   -0.6870 N   0  0  0  0  0  0  0  0  0  0  0  0
   -3.0320   -0.0330   -0.4580 C   0  0  0  0  0  0  0  0  0  0  0  0
   -2.5780   -1.3360   -0.2820 N   0  0  0  0  0  0  0  0  0  0  0  0
   -1.8410   -2.0130   -1.3270 C   0  0  0  0  0  0  0  0  0  0  0  0
   -2.8490   -2.0590    0.9330 C   0  0  0  0  0  0  0  0  0  0  0  0
    0.0940    2.0260   -0.6100 C   0  0  0  0  0  0  0  0  0  0  0  0
    1.3970    1.6470   -0.3230 C   0  0  0  0  0  0  0  0  0  0  0  0
    2.5610    2.5200   -0.6350 C   0  0  0  0  0  0  0  0  0  0  0  0
  1  2  2  0
  2  3  1  0
  2  6  1  0
  3  4  1  0
  4  5  1  0
  5  6  2  0
  6  7  1  0
  7  8  1  0
  7 20  2  0
  8  9  1  0
  9 10  1  0
  9 19  2  0
 10 11  2  0
 10 15  1  0
 11 12  1  0
 12 13  2  0
 13 14  1  0
 14 15  2  0
 15 16  1  0
 16 17  1  0
 16 18  1  0
 19 20  1  0
 20 21  1  0
M  END
