
     RDKit          3D

 21 23  0  0  0  0  0  0  0  0999 V2000
    4.5790   -2.4960   -1.0490 C   0  0  0  0  0  0  0  0  0  0  0  0
    3.6520   -1.4610   -0.5650 C   0  0  0  0  0  0  0  0  0  0  0  0
    2.2930   -1.6320   -0.6680 C   0  0  0  0  0  0  0  0  0  0  0  0
    1.4150   -0.6920   -0.2280 N   0  0  0  0  0  0  0  0  0  0  0  0
    0.1030   -0.6530   -0.2300 N   0  0  0  0  0  0  0  0  0  0  0  0
   -0.3280    0.4970    0.3170 C   0  0  0  0  0  0  0  0  0  0  0  0
   -1.7470    0.9140    0.4960 C   0  0  0  0  0  0  0  0  0  0  0  0
   -2.2450    1.6620   -0.6760 C   0  0  0  0  0  0  0  0  0  0  0  0
   -3.2660    1.2340   -1.3710 C   0  0  0  0  0  0  0  0  0  0  0  0
   -3.9410    0.0260   -1.0240 N   0  0  0  0  0  0  0  0  0  0  0  0
   -5.3330    0.0130   -0.6970 C   0  0  0  0  0  0  0  0  0  0  0  0
   -6.4570    0.3040   -1.3670 C   0  0  0  0  0  0  0  0  0  0  0  0
   -7.2860   -0.0120   -0.2240 C   0  0  0  0  0  0  0  0  0  0  0  0
   -6.1820   -0.3010    0.4440 C   0  0  0  0  0  0  0  0  0  0  0  0
   -5.8070   -0.8620    2.0960 S   0  0  0  0  0  0  0  0  0  0  0  0
    0.7820    1.1710    0.6590 N   0  0  0  0  0  0  0  0  0  0  0  0
    1.8850    0.4410    0.3240 C   0  0  0  0  0  0  0  0  0  0  0  0
    3.2300    0.6190    0.4300 C   0  0  0  0  0  0  0  0  0  0  0  0
    3.7380    1.8750    1.0440 C   0  0  0  0  0  0  0  0  0  0  0  0
    4.1670   -0.3130   -0.0040 C   0  0  0  0  0  0  0  0  0  0  0  0
    5.6150   -0.0460    0.1470 C   0  0  0  0  0  0  0  0  0  0  0  0
  1  2  1  0
  2  3  2  0
  2 20  1  0
  3  4  1  0
  4  5  1  0
  4 17  1  0
  5  6  2  0
  6  7  1  0
  6 16  1  0
  7  8  1  0
  8  9  2  3
  9 10  1  0
 10 11  1  0
 11 12  2  0
 11 14  1  0
 12 13  1  0
 13 14  2  0
 14 15  1  0
 16 17  2  0
 17 18  1  0
 18 19  1  0
 18 20  2  0
 20 21  1  0
M  END
