
     RDKit          3D

 21 23  0  0  0  0  0  0  0  0999 V2000
    6.7930   -0.9620   -0.7760 C   0  0  0  0  0  0  0  0  0  0  0  0
    5.7060   -0.3310   -0.4480 C   0  0  0  0  0  0  0  0  0  0  0  0
    4.3720   -0.8750   -0.6510 C   0  0  0  0  0  0  0  0  0  0  0  0
    3.4940    0.0240   -0.2080 C   0  0  0  0  0  0  0  0  0  0  0  0
    2.0640   -0.1680   -0.2460 C   0  0  0  0  0  0  0  0  0  0  0  0
    1.2070    0.7860    0.2220 C   0  0  0  0  0  0  0  0  0  0  0  0
   -0.1530    0.5360    0.1550 C   0  0  0  0  0  0  0  0  0  0  0  0
   -0.6450   -0.6350   -0.3670 C   0  0  0  0  0  0  0  0  0  0  0  0
   -2.0350   -0.8680   -0.4250 N   0  0  0  0  0  0  0  0  0  0  0  0
   -2.9360    0.1400    0.0690 C   0  0  0  0  0  0  0  0  0  0  0  0
   -4.3800   -0.2510   -0.0600 C   0  0  2  0  0  0  0  0  0  0  0  0
   -4.7080   -0.4880   -1.5210 C   0  0  0  0  0  0  0  0  0  0  0  0
   -5.2140    0.8700    0.5190 C   0  0  0  0  0  0  0  0  0  0  0  0
   -4.6790   -1.5090    0.7050 C   0  0  0  0  0  0  0  0  0  0  0  0
    0.2440   -1.5360   -0.8120 N   0  0  0  0  0  0  0  0  0  0  0  0
    1.5560   -1.3000   -0.7490 N   0  0  0  0  0  0  0  0  0  0  0  0
    4.2500    1.2090    0.3110 C   0  0  0  0  0  0  0  0  0  0  0  0
    3.8080    2.4010    0.8740 N   0  0  0  0  0  0  0  0  0  0  0  0
    5.3700    3.2350    1.2020 S   0  0  0  0  0  0  0  0  0  0  0  0
    6.4150    1.9780    0.5880 C   0  0  0  0  0  0  0  0  0  0  0  0
    5.5330    1.0160    0.1770 C   0  0  0  0  0  0  0  0  0  0  0  0
  1  2  2  0
  2  3  1  0
  2 21  1  0
  3  4  2  0
  4  5  1  0
  4 17  1  0
  5  6  2  0
  5 16  1  0
  6  7  1  0
  7  8  2  0
  8  9  1  0
  8 15  1  0
  9 10  1  0
 10 11  1  0
 11 12  1  6
 11 13  1  0
 11 14  1  0
 15 16  2  0
 17 18  2  0
 17 21  1  0
 18 19  1  0
 19 20  1  0
 20 21  2  0
M  END
