
     RDKit          3D

 12 12  0  0  0  0  0  0  0  0999 V2000
   -3.5070    0.7860    0.3300 N   0  0  0  0  0  0  0  0  0  0  0  0
   -2.4360    0.0050    0.5500 O   0  0  0  0  0  0  0  0  0  0  0  0
   -2.1430   -0.8120   -0.5370 C   0  0  0  0  0  0  0  0  0  0  0  0
   -0.6870   -1.8000   -0.0840 S   0  0  0  0  0  0  0  0  0  0  0  0
    0.7630   -0.8100    0.1030 C   0  0  0  0  0  0  0  0  0  0  0  0
    1.9060   -1.4770    0.4490 N   0  0  0  0  0  0  0  0  0  0  0  0
    3.0450   -0.8500    0.6120 N   0  0  0  0  0  0  0  0  0  0  0  0
    3.1290    0.4720    0.4440 C   0  0  0  0  0  0  0  0  0  0  0  0
    4.5480    1.2220    0.6500 S   0  0  0  0  0  0  0  0  0  0  0  0
    2.0010    1.1630    0.0980 N   0  0  0  0  0  0  0  0  0  0  0  0
    0.8220    0.5550   -0.0760 C   0  0  0  0  0  0  0  0  0  0  0  0
   -0.2500    1.1440   -0.3950 O   0  0  0  0  0  0  0  0  0  0  0  0
  1  2  1  0
  2  3  1  0
  3  4  1  0
  4  5  1  0
  5  6  2  0
  5 11  1  0
  6  7  1  0
  7  8  1  0
  8  9  2  0
  8 10  1  0
 10 11  1  0
 11 12  2  0
M  END
