
     RDKit          3D

 20 22  0  0  0  0  0  0  0  0999 V2000
   -5.4220    0.1320    0.1230 N   0  0  0  0  0  0  0  0  0  0  0  0
   -4.0290   -0.0560    0.1360 C   0  0  0  0  0  0  0  0  0  0  0  0
   -3.4050   -1.2220    0.5260 C   0  0  0  0  0  0  0  0  0  0  0  0
   -2.0720   -1.3590    0.5230 N   0  0  0  0  0  0  0  0  0  0  0  0
   -1.2730   -0.3570    0.1370 C   0  0  0  0  0  0  0  0  0  0  0  0
    0.1970   -0.5070    0.1340 C   0  0  0  0  0  0  0  0  0  0  0  0
    0.7270   -1.6890    0.5330 C   0  0  0  0  0  0  0  0  0  0  0  0
    2.1010   -1.8300    0.5310 C   0  0  0  0  0  0  0  0  0  0  0  0
    2.9540   -0.8210    0.1400 C   0  0  0  0  0  0  0  0  0  0  0  0
    4.3270   -0.9240    0.1240 C   0  0  0  0  0  0  0  0  0  0  0  0
    5.1130   -2.5790    0.6810 Br  0  0  0  0  0  0  0  0  0  0  0  0
    5.1400    0.1310   -0.2810 C   0  0  0  0  0  0  0  0  0  0  0  0
    4.5390    1.3170   -0.6790 C   0  0  0  0  0  0  0  0  0  0  0  0
    5.6010    2.7950   -1.2440 Br  0  0  0  0  0  0  0  0  0  0  0  0
    3.1530    1.4140   -0.6610 C   0  0  0  0  0  0  0  0  0  0  0  0
    2.3480    0.3600   -0.2560 C   0  0  0  0  0  0  0  0  0  0  0  0
    1.0030    0.4900   -0.2500 N   0  0  0  0  0  0  0  0  0  0  0  0
   -1.8490    0.7930   -0.2490 N   0  0  0  0  0  0  0  0  0  0  0  0
   -3.1890    0.9670   -0.2590 C   0  0  0  0  0  0  0  0  0  0  0  0
   -3.7520    2.2010   -0.6760 N   0  0  0  0  0  0  0  0  0  0  0  0
  1  2  1  0
  2  3  2  0
  2 19  1  0
  3  4  1  0
  4  5  2  0
  5  6  1  0
  5 18  1  0
  6  7  2  0
  6 17  1  0
  7  8  1  0
  8  9  2  0
  9 10  1  0
  9 16  1  0
 10 11  1  0
 10 12  2  0
 12 13  1  0
 13 14  1  0
 13 15  2  0
 15 16  1  0
 16 17  2  0
 18 19  2  0
 19 20  1  0
M  END
