
     RDKit          3D

 13 13  0  0  0  0  0  0  0  0999 V2000
   -3.2860    0.0860    0.7340 N   0  0  0  0  0  0  0  0  0  0  0  0
   -2.7840   -0.2190   -0.5670 C   0  0  0  0  0  0  0  0  0  0  0  0
   -3.7670   -0.1570   -1.8580 S   0  0  0  0  0  0  0  0  0  0  0  0
   -1.3760   -0.6030   -0.7510 C   0  0  0  0  0  0  0  0  0  0  0  0
   -0.4770    0.3320   -0.1190 N   0  0  0  0  0  0  0  0  0  0  0  0
    0.9390    0.0480   -0.0070 C   0  0  0  0  0  0  0  0  0  0  0  0
    1.3310   -1.1500   -0.2510 N   0  0  0  0  0  0  0  0  0  0  0  0
    3.0410   -1.1360   -0.0190 S   0  0  1  0  0  0  0  0  0  0  0  0
    3.4270   -2.0140    1.1420 O   0  0  0  0  0  0  0  0  0  0  0  0
    3.7810   -1.4540   -1.2630 O   0  0  0  0  0  0  0  0  0  0  0  0
    3.1510    0.5340    0.4010 N   0  0  0  0  0  0  0  0  0  0  0  0
    1.9560    0.9780    0.3530 C   0  0  0  0  0  0  0  0  0  0  0  0
    1.7050    2.3420    0.6550 O   0  0  0  0  0  0  0  0  0  0  0  0
  1  2  1  0
  2  3  2  0
  2  4  1  0
  4  5  1  0
  5  6  1  0
  6  7  2  0
  6 12  1  0
  8  7  1  6
  8  9  2  0
  8 10  2  0
  8 11  1  0
 11 12  2  0
 12 13  1  0
M  END
