
     RDKit          3D

 13 13  0  0  0  0  0  0  0  0999 V2000
   -4.3780   -0.3490   -0.3080 C   0  0  0  0  0  0  0  0  0  0  0  0
   -3.0170    0.8000   -0.2640 S   0  0  1  0  0  0  0  0  0  0  0  0
   -3.3360    2.1100   -0.8900 O   0  0  0  0  0  0  0  0  0  0  0  0
   -2.7230    1.0600    1.1920 O   0  0  0  0  0  0  0  0  0  0  0  0
   -1.6510    0.1070   -1.0650 N   0  0  0  0  0  0  0  0  0  0  0  0
   -0.4430    0.1160   -0.3200 C   0  0  0  0  0  0  0  0  0  0  0  0
   -0.3560    0.6040    0.8300 O   0  0  0  0  0  0  0  0  0  0  0  0
    0.7370   -0.4220   -0.8050 N   0  0  0  0  0  0  0  0  0  0  0  0
    1.9060   -0.3140   -0.0240 C   0  0  0  0  0  0  0  0  0  0  0  0
    2.8370   -1.0750   -0.1830 N   0  0  0  0  0  0  0  0  0  0  0  0
    3.9310   -0.9600    0.5910 N   0  0  0  0  0  0  0  0  0  0  0  0
    4.4260    0.4310    0.5930 C   0  0  0  0  0  0  0  0  0  0  0  0
    2.7090    1.0510    0.9420 S   0  0  0  0  0  0  0  0  0  0  0  0
  2  1  1  1
  2  3  2  0
  2  4  2  0
  2  5  1  0
  5  6  1  0
  6  7  2  0
  6  8  1  0
  8  9  1  0
  9 10  2  0
  9 13  1  0
 10 11  1  0
 11 12  1  0
 12 13  1  0
M  END
