
     RDKit          3D

 13 13  0  0  0  0  0  0  0  0999 V2000
   -4.4170   -0.0140    0.4360 C   0  0  0  0  0  0  0  0  0  0  0  0
   -2.9600    0.2640    0.5460 C   0  0  0  0  0  0  0  0  0  0  0  0
   -2.6110    1.0660    1.4700 O   0  0  0  0  0  0  0  0  0  0  0  0
   -2.0260   -0.3200   -0.3140 N   0  0  0  0  0  0  0  0  0  0  0  0
   -0.6400    0.0300   -0.1060 C   0  0  0  0  0  0  0  0  0  0  0  0
   -0.0430    0.7790    0.7140 N   0  0  0  0  0  0  0  0  0  0  0  0
    1.2370    0.9110    0.6740 N   0  0  0  0  0  0  0  0  0  0  0  0
    1.9900    0.3880   -0.0830 C   0  0  0  0  0  0  0  0  0  0  0  0
    3.6840    0.2580   -0.5160 S   0  0  1  0  0  0  0  0  0  0  0  0
    4.4930   -0.9870    0.3260 N   0  0  0  0  0  0  0  0  0  0  0  0
    3.7890   -0.0750   -2.0000 O   0  0  0  0  0  0  0  0  0  0  0  0
    4.3770    1.5710   -0.3030 O   0  0  0  0  0  0  0  0  0  0  0  0
    0.7130   -0.6020   -1.0900 S   0  0  0  0  0  0  0  0  0  0  0  0
  1  2  1  0
  2  3  2  0
  2  4  1  0
  4  5  1  0
  5  6  2  0
  5 13  1  0
  6  7  1  0
  7  8  2  0
  8  9  1  0
  8 13  1  0
  9 10  1  1
  9 11  2  0
  9 12  2  0
M  END
