
     RDKit          3D

 13 13  0  0  0  0  0  0  0  0999 V2000
    2.2090   -1.9730   -0.0150 O   0  0  0  0  0  0  0  0  0  0  0  0
    2.4730   -0.7830   -0.0190 C   0  0  0  0  0  0  0  0  0  0  0  0
    4.2230   -0.3570   -0.0470 S   0  0  0  0  0  0  0  0  0  0  0  0
    1.4730    0.2020   -0.0030 N   0  0  0  0  0  0  0  0  0  0  0  0
    0.1030    0.0570    0.0190 N   0  0  0  0  0  0  0  0  0  0  0  0
   -0.5960   -1.0650    0.0300 C   0  0  0  0  0  0  0  0  0  0  0  0
   -0.0500   -2.1850    0.0220 O   0  0  0  0  0  0  0  0  0  0  0  0
   -1.9560   -1.1280    0.0520 N   0  0  0  0  0  0  0  0  0  0  0  0
   -2.6630   -0.0060    0.0630 C   0  0  0  0  0  0  0  0  0  0  0  0
   -3.9150    0.0090    0.0830 O   0  0  0  0  0  0  0  0  0  0  0  0
   -2.0120    1.1520    0.0520 N   0  0  0  0  0  0  0  0  0  0  0  0
   -0.6740    1.1910    0.0310 C   0  0  0  0  0  0  0  0  0  0  0  0
    0.1150    2.6330    0.0180 S   0  0  0  0  0  0  0  0  0  0  0  0
  1  2  2  0
  2  3  1  0
  2  4  1  0
  4  5  1  0
  5  6  1  0
  5 12  1  0
  6  7  2  0
  6  8  1  0
  8  9  1  0
  9 10  2  0
  9 11  1  0
 11 12  1  0
 12 13  2  0
M  END
