
     RDKit          3D

 13 13  0  0  0  0  0  0  0  0999 V2000
   -3.5830    1.2170   -0.4660 N   0  0  0  0  0  0  0  0  0  0  0  0
   -3.3750   -0.1660   -0.3080 C   0  0  0  0  0  0  0  0  0  0  0  0
   -4.3540   -0.9430   -0.3250 O   0  0  0  0  0  0  0  0  0  0  0  0
   -2.0110   -0.6780   -0.1250 C   0  0  0  0  0  0  0  0  0  0  0  0
   -1.0060    0.3390   -0.1280 N   0  0  0  0  0  0  0  0  0  0  0  0
    0.3500   -0.0580    0.0430 C   0  0  0  0  0  0  0  0  0  0  0  0
    0.6280   -1.2890    0.1920 O   0  0  0  0  0  0  0  0  0  0  0  0
    1.3950    0.8750    0.0510 O   0  0  0  0  0  0  0  0  0  0  0  0
    2.7330    0.4220    0.2260 C   0  0  0  0  0  0  0  0  0  0  0  0
    3.0390   -0.7640    0.3730 N   0  0  0  0  0  0  0  0  0  0  0  0
    4.2730   -1.2570    0.5430 N   0  0  0  0  0  0  0  0  0  0  0  0
    5.5390   -0.1090    0.0510 S   0  0  0  0  0  0  0  0  0  0  0  0
    4.1390    1.5430    0.2490 S   0  0  0  0  0  0  0  0  0  0  0  0
  1  2  1  0
  2  3  2  0
  2  4  1  0
  4  5  1  0
  5  6  1  0
  6  7  2  0
  6  8  1  0
  8  9  1  0
  9 10  2  0
  9 13  1  0
 10 11  1  0
 11 12  1  0
 12 13  1  0
M  END
