
     RDKit          3D

 14 13  0  0  0  0  0  0  0  0999 V2000
    3.3490    0.6850   -1.5740 O   0  0  0  0  0  0  0  0  0  0  0  0
    3.9720    1.0010   -0.5470 C   0  0  0  0  0  0  0  0  0  0  0  0
    5.3800    1.0630   -0.5240 O   0  0  0  0  0  0  0  0  0  0  0  0
    3.2800    1.2980    0.5970 O   0  0  0  0  0  0  0  0  0  0  0  0
    1.8980    1.2930    0.7940 C   0  0  0  0  0  0  0  0  0  0  0  0
    1.2360   -0.0400    0.6310 C   0  0  2  0  0  0  0  0  0  0  0  0
    1.3730   -0.5920   -0.6160 O   0  0  0  0  0  0  0  0  0  0  0  0
   -0.2400    0.0860    1.0280 C   0  0  0  0  0  0  0  0  0  0  0  0
   -0.9480   -1.2250    0.8820 C   0  0  0  0  0  0  0  0  0  0  0  0
   -2.2840   -1.1630    1.2370 O   0  0  0  0  0  0  0  0  0  0  0  0
   -2.9430   -0.2460    0.4310 C   0  0  0  0  0  0  0  0  0  0  0  0
   -2.8380   -0.6840   -1.3650 P   0  0  0  0  0  0  0  0  0  0  0  0
   -3.0270    0.6930   -2.3870 O   0  0  0  0  0  0  0  0  0  0  0  0
   -3.8950   -1.9690   -1.7870 O   0  0  0  0  0  0  0  0  0  0  0  0
  1  2  2  0
  2  3  1  0
  2  4  1  0
  4  5  1  0
  5  6  1  0
  6  7  1  6
  6  8  1  0
  8  9  1  0
  9 10  1  0
 10 11  1  0
 11 12  1  0
 12 13  1  0
 12 14  1  0
M  END
