
     RDKit          3D

 14 13  0  0  0  0  0  0  0  0999 V2000
   -4.6170   -0.0080    1.4210 C   0  0  0  0  0  0  0  0  0  0  0  0
   -3.5980   -0.0400    0.3390 C   0  0  2  0  0  0  0  0  0  0  0  0
   -2.6890    0.9960    0.4150 O   0  0  0  0  0  0  0  0  0  0  0  0
   -4.1420   -0.1110   -0.9150 O   0  0  0  0  0  0  0  0  0  0  0  0
   -2.8060   -1.2120    0.5370 O   0  0  0  0  0  0  0  0  0  0  0  0
   -1.4830   -1.2250   -0.4730 P   0  0  0  0  0  0  0  0  0  0  0  0
   -1.6440   -0.3300   -1.9740 O   0  0  0  0  0  0  0  0  0  0  0  0
    0.0920   -1.0710    0.1310 O   0  0  0  0  0  0  0  0  0  0  0  0
    0.6630    0.1740   -0.0890 C   0  0  0  0  0  0  0  0  0  0  0  0
    1.8840   -0.1550   -0.9860 C   0  0  0  0  0  0  0  0  0  0  0  0
    2.6850   -1.0020   -0.2530 O   0  0  0  0  0  0  0  0  0  0  0  0
    4.0380   -0.7060   -0.5940 C   0  0  0  0  0  0  0  0  0  0  0  0
    4.3450    0.5770    0.2370 C   0  0  0  0  0  0  0  0  0  0  0  0
    4.2590    0.1800    1.5460 O   0  0  0  0  0  0  0  0  0  0  0  0
  2  1  1  1
  2  3  1  0
  2  4  1  0
  2  5  1  0
  5  6  1  0
  6  7  1  0
  6  8  1  0
  8  9  1  0
  9 10  1  0
 10 11  1  0
 11 12  1  0
 12 13  1  0
 13 14  1  0
M  END
