
     RDKit          3D

 28 29  0  0  0  0  0  0  0  0999 V2000
    5.9380    1.8170    0.2660 C   0  0  0  0  0  0  0  0  0  0  0  0
    5.5320    0.5120   -0.3720 C   0  0  1  0  0  0  0  0  0  0  0  0
    6.2550    0.3570   -1.6890 C   0  0  0  0  0  0  0  0  0  0  0  0
    5.9470   -0.5940    0.5910 C   0  0  0  0  0  0  0  0  0  0  0  0
    4.1590    0.4000   -0.5870 O   0  0  0  0  0  0  0  0  0  0  0  0
    3.1840    0.4480    0.3820 C   0  0  0  0  0  0  0  0  0  0  0  0
    3.5660    0.6070    1.5730 O   0  0  0  0  0  0  0  0  0  0  0  0
    1.8200    0.3200    0.0250 N   0  0  0  0  0  0  0  0  0  0  0  0
    1.5690    0.1450   -1.3860 C   0  0  0  0  0  0  0  0  0  0  0  0
    0.4310   -0.7270   -1.7010 C   0  0  0  0  0  0  0  0  0  0  0  0
    0.6720   -1.8140   -2.1990 O   0  0  0  0  0  0  0  0  0  0  0  0
   -1.0310   -0.4440   -1.4830 C   0  0  0  0  0  0  0  0  0  0  0  0
   -1.2180    0.1850   -0.1220 C   0  0  1  0  0  0  0  0  0  0  0  0
   -2.5740    0.0950    0.2260 O   0  0  0  0  0  0  0  0  0  0  0  0
   -3.1580   -0.9170    0.9670 C   0  0  0  0  0  0  0  0  0  0  0  0
   -4.3850   -1.3520    0.8180 C   0  0  0  0  0  0  0  0  0  0  0  0
   -5.3580   -0.8770   -0.1270 C   0  0  0  0  0  0  0  0  0  0  0  0
   -6.5640   -1.4730   -0.1250 C   0  0  0  0  0  0  0  0  0  0  0  0
   -6.8750   -2.5060    0.7450 O   0  0  0  0  0  0  0  0  0  0  0  0
   -5.1440    0.2060   -1.1030 C   0  0  0  0  0  0  0  0  0  0  0  0
   -4.7920    1.8440   -0.3480 P   0  0  0  0  0  0  0  0  0  0  0  0
   -5.1760    1.8490    1.3490 O   0  0  0  0  0  0  0  0  0  0  0  0
   -5.6160    3.1240   -1.1810 O   0  0  0  0  0  0  0  0  0  0  0  0
   -2.2850   -1.4950    1.9700 N   0  0  0  0  0  0  0  0  0  0  0  0
   -0.9770   -0.9630    2.0590 C   0  0  0  0  0  0  0  0  0  0  0  0
   -0.4320   -0.8760    3.1740 O   0  0  0  0  0  0  0  0  0  0  0  0
   -0.2900   -0.5250    0.8370 C   0  0  2  0  0  0  0  0  0  0  0  0
    0.8740    0.3850    1.1160 C   0  0  0  0  0  0  0  0  0  0  0  0
  2  1  1  1
  2  3  1  0
  2  4  1  0
  2  5  1  0
  5  6  1  0
  6  7  2  0
  6  8  1  0
  8  9  1  0
  8 28  1  0
  9 10  1  0
 10 11  2  0
 10 12  1  0
 13 12  1  6
 13 14  1  0
 13 27  1  0
 14 15  1  0
 15 16  2  3
 15 24  1  0
 16 17  1  0
 17 18  2  3
 17 20  1  0
 18 19  1  0
 20 21  1  0
 21 22  1  0
 21 23  1  0
 24 25  1  0
 25 26  2  0
 25 27  1  0
 27 28  1  1
M  END
