
     RDKit          3D

 14 13  0  0  0  0  0  0  0  0999 V2000
   -1.6310   -0.5220    0.2250 O   0  0  0  0  0  0  0  0  0  0  0  0
   -1.4970    0.7330    0.1440 C   0  0  0  0  0  0  0  0  0  0  0  0
   -2.4540    1.4760    0.8130 O   0  0  0  0  0  0  0  0  0  0  0  0
   -3.5300    0.9990    1.5500 C   0  0  0  0  0  0  0  0  0  0  0  0
   -4.4700    0.1940    0.6890 C   0  0  0  0  0  0  0  0  0  0  0  0
   -5.5560   -0.2910    1.4140 O   0  0  0  0  0  0  0  0  0  0  0  0
   -0.4630    1.3210   -0.5680 O   0  0  0  0  0  0  0  0  0  0  0  0
    0.5010    0.5450   -1.2370 C   0  0  0  0  0  0  0  0  0  0  0  0
    1.2460   -0.2770   -0.2100 C   0  0  0  0  0  0  0  0  0  0  0  0
    2.2280   -1.0920   -0.7500 O   0  0  0  0  0  0  0  0  0  0  0  0
    3.2120   -0.3970   -1.4220 C   0  0  0  0  0  0  0  0  0  0  0  0
    4.0770    0.8220   -0.3140 P   0  0  0  0  0  0  0  0  0  0  0  0
    3.9460    0.3280    1.3530 O   0  0  0  0  0  0  0  0  0  0  0  0
    5.7830    0.8260   -0.7180 O   0  0  0  0  0  0  0  0  0  0  0  0
  1  2  2  0
  2  3  1  0
  2  7  1  0
  3  4  1  0
  4  5  1  0
  5  6  1  0
  7  8  1  0
  8  9  1  0
  9 10  1  0
 10 11  1  0
 11 12  1  0
 12 13  1  0
 12 14  1  0
M  END
