
     RDKit          3D

 14 13  0  0  0  0  0  0  0  0999 V2000
   -0.8270    0.3990   -1.5510 C   0  0  0  0  0  0  0  0  0  0  0  0
   -0.9050   -0.4990   -0.3360 C   0  0  1  0  0  0  0  0  0  0  0  0
   -1.0230   -1.7950   -0.7750 O   0  0  0  0  0  0  0  0  0  0  0  0
    0.3510   -0.3810    0.5030 C   0  0  0  0  0  0  0  0  0  0  0  0
    1.4190   -0.7340   -0.3310 O   0  0  0  0  0  0  0  0  0  0  0  0
    2.5510   -0.6600    0.3170 O   0  0  0  0  0  0  0  0  0  0  0  0
    3.4720    0.0600   -0.4180 C   0  0  0  0  0  0  0  0  0  0  0  0
    4.7880    0.1370    0.3550 C   0  0  0  0  0  0  0  0  0  0  0  0
    5.2710   -1.1430    0.5750 O   0  0  0  0  0  0  0  0  0  0  0  0
   -2.1360   -0.0670    0.4460 C   0  0  0  0  0  0  0  0  0  0  0  0
   -3.2160   -0.1760   -0.4100 O   0  0  0  0  0  0  0  0  0  0  0  0
   -4.7100    0.2620    0.2650 P   0  0  0  0  0  0  0  0  0  0  0  0
   -4.9790   -0.3730    1.8460 O   0  0  0  0  0  0  0  0  0  0  0  0
   -5.0680    1.9470    0.1560 O   0  0  0  0  0  0  0  0  0  0  0  0
  2  1  1  6
  2  3  1  0
  2  4  1  0
  2 10  1  0
  4  5  1  0
  5  6  1  0
  6  7  1  0
  7  8  1  0
  8  9  1  0
 10 11  1  0
 11 12  1  0
 12 13  1  0
 12 14  1  0
M  END
