
     RDKit          3D

 27 28  0  0  0  0  0  0  0  0999 V2000
    3.6680   -2.0190   -1.3800 C   0  0  0  0  0  0  0  0  0  0  0  0
    2.8460   -1.0840   -1.9190 O   0  0  0  0  0  0  0  0  0  0  0  0
    1.5030   -1.1570   -1.5700 C   0  0  2  0  0  0  0  0  0  0  0  0
    0.8210   -2.4180   -1.9410 C   0  0  0  0  0  0  0  0  0  0  0  0
   -0.1000   -2.2660   -3.1600 C   0  0  0  0  0  0  0  0  0  0  0  0
   -1.2400   -1.3980   -2.7340 C   0  0  0  0  0  0  0  0  0  0  0  0
   -0.6550   -0.0730   -2.2730 C   0  0  2  0  0  0  0  0  0  0  0  0
    0.8410   -0.0420   -2.4040 C   0  0  0  0  0  0  0  0  0  0  0  0
   -0.9830    0.0870   -0.8920 N   0  0  0  0  0  0  0  0  0  0  0  0
   -2.3180    0.3970   -0.5160 C   0  0  0  0  0  0  0  0  0  0  0  0
   -3.2200    0.5340   -1.3860 O   0  0  0  0  0  0  0  0  0  0  0  0
   -2.6870    0.5610    0.8080 O   0  0  0  0  0  0  0  0  0  0  0  0
   -4.0190    0.8710    1.1930 C   0  0  2  0  0  0  0  0  0  0  0  0
   -4.0690    0.9790    2.7030 C   0  0  0  0  0  0  0  0  0  0  0  0
   -5.0090   -0.1630    0.7580 C   0  0  0  0  0  0  0  0  0  0  0  0
   -4.4120    2.1980    0.5440 C   0  0  0  0  0  0  0  0  0  0  0  0
    0.0220   -0.0650    0.0790 C   0  0  0  0  0  0  0  0  0  0  0  0
   -0.1820    0.3920    1.2540 O   0  0  0  0  0  0  0  0  0  0  0  0
    1.3380   -0.7280   -0.1430 C   0  0  1  0  0  0  0  0  0  0  0  0
    1.5400   -1.7680    0.8780 C   0  0  0  0  0  0  0  0  0  0  0  0
    2.3710    0.3450    0.1070 C   0  0  0  0  0  0  0  0  0  0  0  0
    3.1410    0.7530   -0.8100 O   0  0  0  0  0  0  0  0  0  0  0  0
    2.5020    0.9270    1.3980 N   0  0  0  0  0  0  0  0  0  0  0  0
    3.5070    1.9580    1.6000 C   0  0  0  0  0  0  0  0  0  0  0  0
    3.5320    2.5920    3.3170 P   0  0  0  0  0  0  0  0  0  0  0  0
    3.8340    4.3010    3.2900 O   0  0  0  0  0  0  0  0  0  0  0  0
    4.8290    1.8470    4.1970 O   0  0  0  0  0  0  0  0  0  0  0  0
  1  2  1  0
  3  2  1  6
  3  4  1  0
  3  8  1  0
  3 19  1  0
  4  5  1  0
  5  6  1  0
  7  6  1  1
  7  8  1  0
  7  9  1  0
  9 10  1  0
  9 17  1  0
 10 11  2  0
 10 12  1  0
 12 13  1  0
 13 14  1  1
 13 15  1  0
 13 16  1  0
 17 18  2  0
 17 19  1  0
 19 20  1  1
 19 21  1  0
 21 22  2  0
 21 23  1  0
 23 24  1  0
 24 25  1  0
 25 26  1  0
 25 27  1  0
M  END
