
     RDKit          3D

 40 42  0  0  0  0  0  0  0  0999 V2000
   -2.9930   -2.3000    2.2330 C   0  0  0  0  0  0  0  0  0  0  0  0
   -2.8730   -1.3860    1.0230 C   0  0  0  0  0  0  0  0  0  0  0  0
   -2.3440   -1.9740   -0.0440 C   0  0  0  0  0  0  0  0  0  0  0  0
   -2.0460   -1.4890   -1.3640 C   0  0  0  0  0  0  0  0  0  0  0  0
   -3.0010   -1.6600   -2.2690 O   0  0  0  0  0  0  0  0  0  0  0  0
   -0.8550   -0.8470   -1.8400 N   0  0  0  0  0  0  0  0  0  0  0  0
    0.4750   -1.3940   -1.9420 C   0  0  2  0  0  0  0  0  0  0  0  0
    1.0070   -1.0250   -3.3010 C   0  0  0  0  0  0  0  0  0  0  0  0
    0.4190   -2.9490   -1.9710 C   0  0  0  0  0  0  0  0  0  0  0  0
    1.8970   -3.2590   -2.0250 C   0  0  2  0  0  0  0  0  0  0  0  0
    2.1760   -4.7050   -1.6660 C   0  0  0  0  0  0  0  0  0  0  0  0
    2.4340   -2.3140   -1.0060 C   0  0  0  0  0  0  0  0  0  0  0  0
    1.3840   -1.2130   -0.8150 C   0  0  1  0  0  0  0  0  0  0  0  0
    1.9010   -0.0200   -0.4350 O   0  0  0  0  0  0  0  0  0  0  0  0
    3.0180    0.7270   -0.7710 C   0  0  0  0  0  0  0  0  0  0  0  0
    4.0320    0.9670    0.0520 C   0  0  0  0  0  0  0  0  0  0  0  0
    4.0580    0.4400    1.4510 C   0  0  0  0  0  0  0  0  0  0  0  0
    5.2820   -0.4370    1.6110 C   0  0  1  0  0  0  0  0  0  0  0  0
    5.3440   -0.9900    3.0190 C   0  0  0  0  0  0  0  0  0  0  0  0
    5.3130   -1.5000    0.7270 O   0  0  0  0  0  0  0  0  0  0  0  0
    3.1600    1.3330   -2.1120 C   0  0  0  0  0  0  0  0  0  0  0  0
    4.2960    1.0490   -2.6670 O   0  0  0  0  0  0  0  0  0  0  0  0
    2.2200    2.1400   -2.7910 N   0  0  0  0  0  0  0  0  0  0  0  0
    1.6650    3.3500   -2.4200 N   0  0  0  0  0  0  0  0  0  0  0  0
    1.6240    3.9680   -1.1530 C   0  0  0  0  0  0  0  0  0  0  0  0
    2.2930    5.0770   -1.0280 O   0  0  0  0  0  0  0  0  0  0  0  0
    0.9280    3.5450    0.0690 C   0  0  0  0  0  0  0  0  0  0  0  0
   -0.4750    3.6250   -0.0340 O   0  0  0  0  0  0  0  0  0  0  0  0
   -1.2810    2.5770   -0.2830 C   0  0  0  0  0  0  0  0  0  0  0  0
   -2.0070    2.5160   -1.2990 O   0  0  0  0  0  0  0  0  0  0  0  0
   -1.3540    1.4050    0.6680 C   0  0  0  0  0  0  0  0  0  0  0  0
   -2.6330    1.0340    0.9070 O   0  0  0  0  0  0  0  0  0  0  0  0
   -3.4010   -0.0370    1.1820 C   0  0  0  0  0  0  0  0  0  0  0  0
   -4.6930    0.1150    1.6090 C   0  0  0  0  0  0  0  0  0  0  0  0
   -5.5540   -1.0650    1.9060 C   0  0  0  0  0  0  0  0  0  0  0  0
   -5.2830    1.4060    1.8150 C   0  0  0  0  0  0  0  0  0  0  0  0
   -6.5390    1.3860    2.2170 O   0  0  0  0  0  0  0  0  0  0  0  0
   -4.7110    2.7470    1.6500 C   0  0  1  0  0  0  0  0  0  0  0  0
   -5.6730    3.7870    1.1180 C   0  0  0  0  0  0  0  0  0  0  0  0
   -5.2060    3.8480    2.5700 C   0  0  0  0  0  0  0  0  0  0  0  0
  1  2  1  0
  2  3  2  0
  2 33  1  0
  3  4  1  0
  4  5  2  0
  4  6  1  0
  6  7  1  0
  7  8  1  6
  7  9  1  0
  7 13  1  0
  9 10  1  0
 10 11  1  1
 10 12  1  0
 13 12  1  6
 13 14  1  0
 14 15  1  0
 15 16  2  3
 15 21  1  0
 16 17  1  0
 17 18  1  0
 18 19  1  1
 18 20  1  0
 21 22  2  0
 21 23  1  0
 23 24  1  0
 24 25  1  0
 25 26  2  0
 25 27  1  0
 27 28  1  0
 28 29  1  0
 29 30  2  0
 29 31  1  0
 31 32  1  0
 32 33  1  0
 33 34  2  3
 34 35  1  0
 34 36  1  0
 36 37  2  0
 38 36  1  1
 38 39  1  0
 38 40  1  0
 39 40  1  0
M  END
