
     RDKit          3D

 49 52  0  0  0  0  0  0  0  0999 V2000
    6.5780    2.0280    2.6410 C   0  0  0  0  0  0  0  0  0  0  0  0
    5.9480    0.6510    2.6320 C   0  0  0  0  0  0  0  0  0  0  0  0
    4.7880    0.5880    1.6570 C   0  0  2  0  0  0  0  0  0  0  0  0
    4.1900   -0.7630    1.6570 C   0  0  0  0  0  0  0  0  0  0  0  0
    5.1990    1.1760    0.3580 C   0  0  2  0  0  0  0  0  0  0  0  0
    4.1940    1.2490   -0.6740 N   0  0  0  0  0  0  0  0  0  0  0  0
    2.8350    1.0490   -0.8000 C   0  0  0  0  0  0  0  0  0  0  0  0
    2.1020    2.1490   -0.7770 O   0  0  0  0  0  0  0  0  0  0  0  0
    1.9390   -0.0840   -0.9640 C   0  0  1  0  0  0  0  0  0  0  0  0
    0.5150    0.3170   -0.8540 N   0  0  0  0  0  0  0  0  0  0  0  0
   -0.4050   -0.7370   -0.9230 C   0  0  0  0  0  0  0  0  0  0  0  0
   -1.5940   -0.5990   -0.0220 C   0  0  1  0  0  0  0  0  0  0  0  0
   -1.2960   -0.5050    1.3360 O   0  0  0  0  0  0  0  0  0  0  0  0
   -2.6890    0.3240   -0.4740 C   0  0  2  0  0  0  0  0  0  0  0  0
   -2.3150    1.7420   -0.1720 C   0  0  0  0  0  0  0  0  0  0  0  0
   -3.3500    2.7470   -0.5470 C   0  0  0  0  0  0  0  0  0  0  0  0
   -3.4700    3.3170   -1.7890 C   0  0  0  0  0  0  0  0  0  0  0  0
   -4.4590    4.2500   -1.9850 C   0  0  0  0  0  0  0  0  0  0  0  0
   -5.3290    4.6250   -0.9670 C   0  0  0  0  0  0  0  0  0  0  0  0
   -6.3350    5.5620   -1.1360 O   0  0  0  0  0  0  0  0  0  0  0  0
   -5.2170    4.0540    0.2950 C   0  0  0  0  0  0  0  0  0  0  0  0
   -4.2160    3.1130    0.4850 C   0  0  0  0  0  0  0  0  0  0  0  0
   -3.9120   -0.0670    0.2140 N   0  0  0  0  0  0  0  0  0  0  0  0
   -5.0330   -0.5830   -0.5080 C   0  0  0  0  0  0  0  0  0  0  0  0
   -4.8920   -0.6640   -1.7580 O   0  0  0  0  0  0  0  0  0  0  0  0
   -6.3000   -1.0140    0.0740 C   0  0  2  0  0  0  0  0  0  0  0  0
   -7.4460   -0.3240   -0.6340 C   0  0  1  0  0  0  0  0  0  0  0  0
   -8.7820   -0.7520   -0.0370 C   0  0  0  0  0  0  0  0  0  0  0  0
   -7.3010    1.1600   -0.7430 C   0  0  0  0  0  0  0  0  0  0  0  0
   -6.3670   -0.9800    1.4980 N   0  0  0  0  0  0  0  0  0  0  0  0
   -6.5980   -2.1510    2.3680 C   0  0  0  0  0  0  0  0  0  0  0  0
   -5.6190   -1.8840    3.4640 C   0  0  0  0  0  0  0  0  0  0  0  0
   -5.6180   -0.3790    3.6840 C   0  0  0  0  0  0  0  0  0  0  0  0
   -6.2460    0.1140    2.4030 C   0  0  0  0  0  0  0  0  0  0  0  0
   -6.5990    1.2850    2.1840 O   0  0  0  0  0  0  0  0  0  0  0  0
    2.0700   -0.8540   -2.2510 C   0  0  0  0  0  0  0  0  0  0  0  0
    3.3640   -1.6300   -2.3240 C   0  0  0  0  0  0  0  0  0  0  0  0
    3.4700   -2.9020   -1.8120 C   0  0  0  0  0  0  0  0  0  0  0  0
    4.7240   -3.5670   -1.8680 C   0  0  0  0  0  0  0  0  0  0  0  0
    5.8500   -3.0140   -2.4060 C   0  0  0  0  0  0  0  0  0  0  0  0
    5.7070   -1.7560   -2.9040 C   0  0  0  0  0  0  0  0  0  0  0  0
    4.4700   -1.0380   -2.8750 C   0  0  0  0  0  0  0  0  0  0  0  0
    7.0790   -3.6890   -2.4440 O   0  0  0  0  0  0  0  0  0  0  0  0
    8.0120   -3.5580   -1.3780 C   0  0  0  0  0  0  0  0  0  0  0  0
    8.2310   -2.1320   -0.9420 C   0  0  0  0  0  0  0  0  0  0  0  0
    7.2790   -1.6720    0.1370 C   0  0  0  0  0  0  0  0  0  0  0  0
    7.4050   -0.2320    0.2570 N   0  0  0  0  0  0  0  0  0  0  0  0
    6.5330    0.7750   -0.1430 C   0  0  0  0  0  0  0  0  0  0  0  0
    6.9040    1.5370   -1.1300 O   0  0  0  0  0  0  0  0  0  0  0  0
  1  2  1  0
  2  3  1  0
  3  4  1  6
  3  5  1  0
  5  6  1  6
  5 48  1  0
  6  7  1  0
  7  8  2  0
  7  9  1  0
  9 10  1  6
  9 36  1  0
 10 11  1  0
 11 12  1  0
 12 13  1  1
 12 14  1  0
 14 15  1  1
 14 23  1  0
 15 16  1  0
 16 17  2  0
 16 22  1  0
 17 18  1  0
 18 19  2  0
 19 20  1  0
 19 21  1  0
 21 22  2  0
 23 24  1  0
 24 25  2  0
 24 26  1  0
 26 27  1  0
 26 30  1  1
 27 28  1  1
 27 29  1  0
 30 31  1  0
 30 34  1  0
 31 32  1  0
 32 33  1  0
 33 34  1  0
 34 35  2  0
 36 37  1  0
 37 38  2  0
 37 42  1  0
 38 39  1  0
 39 40  2  0
 40 41  1  0
 40 43  1  0
 41 42  2  0
 43 44  1  0
 44 45  1  0
 45 46  1  0
 46 47  1  0
 47 48  1  0
 48 49  2  0
M  CHG  1  10   1
M  END
