
     RDKit          3D

 40 42  0  0  0  0  0  0  0  0999 V2000
    4.2070   -3.2740    2.1740 C   0  0  0  0  0  0  0  0  0  0  0  0
    2.9930   -2.8500    2.9360 C   0  0  0  0  0  0  0  0  0  0  0  0
    2.0620   -2.1270    2.1650 O   0  0  0  0  0  0  0  0  0  0  0  0
    2.3710   -0.9290    1.5400 C   0  0  0  0  0  0  0  0  0  0  0  0
    3.5420   -0.5160    1.7010 O   0  0  0  0  0  0  0  0  0  0  0  0
    1.4270   -0.1410    0.7240 C   0  0  1  0  0  0  0  0  0  0  0  0
    2.1840    1.0270    0.2330 N   0  0  0  0  0  0  0  0  0  0  0  0
    3.2970    0.7710   -0.5830 C   0  0  0  0  0  0  0  0  0  0  0  0
    3.6550   -0.4150   -0.9010 O   0  0  0  0  0  0  0  0  0  0  0  0
    4.1140    1.7720   -1.1210 O   0  0  0  0  0  0  0  0  0  0  0  0
    5.2260    1.4610   -1.9390 C   0  0  2  0  0  0  0  0  0  0  0  0
    4.8660    0.7120   -3.1790 C   0  0  0  0  0  0  0  0  0  0  0  0
    6.1460    0.5540   -1.1130 C   0  0  0  0  0  0  0  0  0  0  0  0
    5.9650    2.7190   -2.3380 C   0  0  0  0  0  0  0  0  0  0  0  0
    0.8860   -0.8990   -0.4510 C   0  0  0  0  0  0  0  0  0  0  0  0
   -0.5230   -0.2860   -0.5750 C   0  0  2  0  0  0  0  0  0  0  0  0
   -0.3870    1.0030   -0.9220 O   0  0  0  0  0  0  0  0  0  0  0  0
   -0.4050    1.9820   -1.8060 C   0  0  0  0  0  0  0  0  0  0  0  0
    0.4020    1.9330   -2.8320 O   0  0  0  0  0  0  0  0  0  0  0  0
   -1.2320    3.2060   -1.8280 C   0  0  0  0  0  0  0  0  0  0  0  0
   -2.5010    3.3460   -2.0860 C   0  0  0  0  0  0  0  0  0  0  0  0
   -3.5230    2.3580   -2.4380 C   0  0  1  0  0  0  0  0  0  0  0  0
   -3.9610    2.4780   -3.8940 C   0  0  0  0  0  0  0  0  0  0  0  0
   -3.2020    0.9590   -2.1480 C   0  0  0  0  0  0  0  0  0  0  0  0
   -3.8690    0.3300   -1.2570 C   0  0  0  0  0  0  0  0  0  0  0  0
   -4.0110   -0.9300   -1.0920 C   0  0  0  0  0  0  0  0  0  0  0  0
   -4.5490   -1.4350    0.1630 C   0  0  0  0  0  0  0  0  0  0  0  0
   -4.2600   -0.9200    1.3490 C   0  0  0  0  0  0  0  0  0  0  0  0
   -4.8960   -1.5560    2.5150 C   0  0  0  0  0  0  0  0  0  0  0  0
   -4.6890   -1.1330    3.7780 C   0  0  0  0  0  0  0  0  0  0  0  0
   -5.4530   -1.9540    4.7410 C   0  0  0  0  0  0  0  0  0  0  0  0
   -6.1200   -2.8900    3.9460 O   0  0  0  0  0  0  0  0  0  0  0  0
   -5.7970   -2.6640    2.6040 C   0  0  0  0  0  0  0  0  0  0  0  0
   -6.2460   -3.3510    1.6260 O   0  0  0  0  0  0  0  0  0  0  0  0
   -3.3650    0.2100    1.5270 C   0  0  0  0  0  0  0  0  0  0  0  0
   -3.7990    1.1090    2.3450 O   0  0  0  0  0  0  0  0  0  0  0  0
   -2.1260    0.4880    0.9670 N   0  0  0  0  0  0  0  0  0  0  0  0
   -0.9530   -0.3570    0.8790 C   0  0  1  0  0  0  0  0  0  0  0  0
   -1.1060   -1.7180    1.4400 C   0  0  0  0  0  0  0  0  0  0  0  0
    0.2380    0.3070    1.5390 C   0  0  0  0  0  0  0  0  0  0  0  0
  1  2  1  0
  2  3  1  0
  3  4  1  0
  4  5  2  0
  4  6  1  0
  6  7  1  6
  6 15  1  0
  6 40  1  0
  7  8  1  0
  8  9  2  0
  8 10  1  0
 10 11  1  0
 11 12  1  6
 11 13  1  0
 11 14  1  0
 16 15  1  1
 16 17  1  0
 16 38  1  0
 17 18  1  0
 18 19  2  0
 18 20  1  0
 20 21  2  0
 21 22  1  0
 22 23  1  6
 22 24  1  0
 24 25  2  0
 25 26  2  0
 26 27  1  0
 27 28  2  0
 28 29  1  0
 28 35  1  0
 29 30  2  0
 29 33  1  0
 30 31  1  0
 31 32  1  0
 32 33  1  0
 33 34  2  0
 35 36  2  0
 35 37  1  0
 37 38  1  0
 38 39  1  1
 38 40  1  0
M  END
