
     RDKit          3D

 40 42  0  0  0  0  0  0  0  0999 V2000
   -6.2990   -3.7040    0.2200 C   0  0  0  0  0  0  0  0  0  0  0  0
   -4.9910   -3.6330   -0.5050 C   0  0  0  0  0  0  0  0  0  0  0  0
   -4.1850   -2.3700   -0.1520 C   0  0  1  0  0  0  0  0  0  0  0  0
   -4.9010   -1.1230   -0.4850 C   0  0  0  0  0  0  0  0  0  0  0  0
   -5.7100   -0.4760    0.5680 C   0  0  2  0  0  0  0  0  0  0  0  0
   -7.0950   -0.6900    0.3350 O   0  0  0  0  0  0  0  0  0  0  0  0
   -5.5270    0.9670    0.7890 C   0  0  0  0  0  0  0  0  0  0  0  0
   -5.0440    1.8270   -0.3030 C   0  0  0  0  0  0  0  0  0  0  0  0
   -4.6910    3.2100    0.2850 C   0  0  0  0  0  0  0  0  0  0  0  0
   -3.2730    3.1640    0.8220 C   0  0  0  0  0  0  0  0  0  0  0  0
   -2.4500    2.8300   -0.2030 O   0  0  0  0  0  0  0  0  0  0  0  0
   -1.2100    2.3880    0.0630 C   0  0  2  0  0  0  0  0  0  0  0  0
   -0.0320    3.2650   -0.1950 C   0  0  0  0  0  0  0  0  0  0  0  0
    0.4550    3.9400   -1.1570 C   0  0  0  0  0  0  0  0  0  0  0  0
    1.6230    4.8190   -1.4530 C   0  0  0  0  0  0  0  0  0  0  0  0
    2.5430    4.1930   -2.2600 O   0  0  0  0  0  0  0  0  0  0  0  0
    3.5860    3.5430   -1.7480 C   0  0  0  0  0  0  0  0  0  0  0  0
    3.1730    2.4630   -0.7820 C   0  0  0  0  0  0  0  0  0  0  0  0
    2.4620    1.3480   -1.4880 C   0  0  0  0  0  0  0  0  0  0  0  0
    2.2850    0.1140   -0.7320 C   0  0  1  0  0  0  0  0  0  0  0  0
    3.4020    0.0560    0.1910 O   0  0  0  0  0  0  0  0  0  0  0  0
    4.4140   -0.8550    0.1030 C   0  0  0  0  0  0  0  0  0  0  0  0
    4.3800   -1.6960   -0.8310 O   0  0  0  0  0  0  0  0  0  0  0  0
    5.5600   -0.9010    1.0630 C   0  0  0  0  0  0  0  0  0  0  0  0
    6.5230   -1.9750    0.7130 C   0  0  0  0  0  0  0  0  0  0  0  0
    6.8000   -2.9580    1.5390 C   0  0  0  0  0  0  0  0  0  0  0  0
    7.7400   -4.0280    1.2350 C   0  0  0  0  0  0  0  0  0  0  0  0
    8.0050   -4.9570    2.0030 O   0  0  0  0  0  0  0  0  0  0  0  0
    8.3550   -3.9170   -0.0670 N   0  0  0  0  0  0  0  0  0  0  0  0
    8.4930   -2.5720   -0.6010 C   0  0  0  0  0  0  0  0  0  0  0  0
    7.1420   -1.9140   -0.6160 C   0  0  0  0  0  0  0  0  0  0  0  0
    1.1120   -0.2680   -0.0130 C   0  0  0  0  0  0  0  0  0  0  0  0
    1.3410   -1.4010    0.6250 O   0  0  0  0  0  0  0  0  0  0  0  0
   -0.1760    0.1720    0.2210 N   0  0  0  0  0  0  0  0  0  0  0  0
   -0.8300   -0.2760    1.4780 C   0  0  0  0  0  0  0  0  0  0  0  0
   -1.3900   -1.6720    1.3260 C   0  0  2  0  0  0  0  0  0  0  0  0
   -1.1750   -2.2540    0.1160 O   0  0  0  0  0  0  0  0  0  0  0  0
   -2.8840   -1.6360    1.6630 C   0  0  0  0  0  0  0  0  0  0  0  0
   -3.6570   -2.5490    1.0700 O   0  0  0  0  0  0  0  0  0  0  0  0
   -1.0450    1.0040   -0.5850 C   0  0  0  0  0  0  0  0  0  0  0  0
  1  2  1  0
  3  2  1  1
  3  4  1  0
  3 39  1  0
  4  5  1  0
  5  6  1  6
  5  7  1  0
  7  8  1  0
  8  9  1  0
  9 10  1  0
 10 11  1  0
 12 11  1  6
 12 13  1  0
 12 40  1  0
 13 14  2  0
 14 15  1  0
 15 16  1  0
 16 17  1  0
 17 18  1  0
 18 19  1  0
 19 20  1  0
 20 21  1  1
 20 32  1  0
 21 22  1  0
 22 23  2  0
 22 24  1  0
 24 25  1  0
 25 26  2  0
 25 31  1  0
 26 27  1  0
 27 28  2  0
 27 29  1  0
 29 30  1  0
 30 31  1  0
 32 33  2  0
 32 34  1  0
 34 35  1  0
 34 40  1  0
 35 36  1  0
 36 37  1  6
 36 38  1  0
 38 39  1  0
M  END
