
     RDKit          3D

 40 42  0  0  0  0  0  0  0  0999 V2000
    7.2230   -1.0880   -1.9450 C   0  0  0  0  0  0  0  0  0  0  0  0
    6.3290   -0.7700   -0.7940 C   0  0  0  0  0  0  0  0  0  0  0  0
    6.6620    0.0440    0.2680 C   0  0  0  0  0  0  0  0  0  0  0  0
    5.5450    0.0480    1.0770 C   0  0  0  0  0  0  0  0  0  0  0  0
    4.6010   -0.7650    0.4560 C   0  0  0  0  0  0  0  0  0  0  0  0
    3.2660   -1.0140    1.0190 C   0  0  2  0  0  0  0  0  0  0  0  0
    2.4520   -1.8460    0.0250 C   0  0  0  0  0  0  0  0  0  0  0  0
    2.1840   -3.1530    0.5890 N   0  0  0  0  0  0  0  0  0  0  0  0
    1.0130   -3.9130    0.3800 C   0  0  0  0  0  0  0  0  0  0  0  0
    0.4560   -4.4990    1.3420 O   0  0  0  0  0  0  0  0  0  0  0  0
    0.3370   -4.0980   -0.9500 C   0  0  0  0  0  0  0  0  0  0  0  0
   -1.0810   -3.9700   -0.9350 N   0  0  0  0  0  0  0  0  0  0  0  0
   -1.8920   -4.7560   -0.0060 C   0  0  0  0  0  0  0  0  0  0  0  0
   -1.6070   -5.8760    0.5200 O   0  0  0  0  0  0  0  0  0  0  0  0
   -3.1720   -4.0810    0.2920 C   0  0  0  0  0  0  0  0  0  0  0  0
   -3.0850   -2.8820   -0.5640 C   0  0  1  0  0  0  0  0  0  0  0  0
   -4.4200   -2.6220   -1.2040 C   0  0  0  0  0  0  0  0  0  0  0  0
   -5.5310   -2.3750   -0.2560 C   0  0  0  0  0  0  0  0  0  0  0  0
   -5.8010   -3.4120    0.6280 O   0  0  0  0  0  0  0  0  0  0  0  0
   -2.5730   -1.6560    0.1750 C   0  0  0  0  0  0  0  0  0  0  0  0
   -1.8600   -0.7060   -0.7210 C   0  0  0  0  0  0  0  0  0  0  0  0
   -1.9730    0.6220   -0.6120 C   0  0  0  0  0  0  0  0  0  0  0  0
   -2.8130    1.3050    0.4050 C   0  0  0  0  0  0  0  0  0  0  0  0
   -2.2540    2.6720    0.7250 C   0  0  2  0  0  0  0  0  0  0  0  0
   -3.1460    3.7970    0.3150 C   0  0  2  0  0  0  0  0  0  0  0  0
   -4.3660    3.6820    0.9740 O   0  0  0  0  0  0  0  0  0  0  0  0
   -3.3660    3.9190   -1.1680 C   0  0  0  0  0  0  0  0  0  0  0  0
   -4.0290    2.8090   -1.6910 O   0  0  0  0  0  0  0  0  0  0  0  0
   -0.8550    2.8280    0.1680 C   0  0  0  0  0  0  0  0  0  0  0  0
   -0.0350    3.8270    0.9860 C   0  0  0  0  0  0  0  0  0  0  0  0
    1.2810    3.2310    1.4140 C   0  0  0  0  0  0  0  0  0  0  0  0
    2.3560    3.3280    0.3790 C   0  0  2  0  0  0  0  0  0  0  0  0
    1.8060    3.3240   -1.0350 C   0  0  0  0  0  0  0  0  0  0  0  0
    3.3570    2.1910    0.4800 C   0  0  0  0  0  0  0  0  0  0  0  0
    3.0140    1.3810    1.6810 C   0  0  0  0  0  0  0  0  0  0  0  0
    3.1500    1.9770    2.7830 O   0  0  0  0  0  0  0  0  0  0  0  0
    2.5940    0.1020    1.4870 O   0  0  0  0  0  0  0  0  0  0  0  0
   -2.0340   -3.2300   -1.6160 C   0  0  0  0  0  0  0  0  0  0  0  0
   -2.3470   -2.7530   -2.7370 O   0  0  0  0  0  0  0  0  0  0  0  0
    5.1090   -1.2330   -0.6570 O   0  0  0  0  0  0  0  0  0  0  0  0
  1  2  1  0
  2  3  2  0
  2 40  1  0
  3  4  1  0
  4  5  2  0
  6  5  1  6
  5 40  1  0
  6  7  1  0
  6 37  1  0
  7  8  1  0
  8  9  1  0
  9 10  2  0
  9 11  1  0
 11 12  1  0
 12 13  1  0
 12 38  1  0
 13 14  2  0
 13 15  1  0
 15 16  1  0
 16 17  1  6
 16 20  1  0
 16 38  1  0
 17 18  1  0
 18 19  1  0
 20 21  1  0
 21 22  2  0
 22 23  1  0
 24 23  1  6
 24 25  1  0
 24 29  1  0
 25 26  1  1
 25 27  1  0
 27 28  1  0
 29 30  1  0
 30 31  1  0
 31 32  1  0
 32 33  1  6
 32 34  1  0
 34 35  1  0
 35 36  2  0
 35 37  1  0
 38 39  2  0
M  END
