
     RDKit          3D

 40 41  0  0  0  0  0  0  0  0999 V2000
   -7.1460   -2.8210   -1.4010 C   0  0  0  0  0  0  0  0  0  0  0  0
   -6.8650   -1.7630   -0.4020 C   0  0  1  0  0  0  0  0  0  0  0  0
   -6.9260   -2.2100    1.0260 C   0  0  0  0  0  0  0  0  0  0  0  0
   -5.5310   -1.0360   -0.6480 C   0  0  0  0  0  0  0  0  0  0  0  0
   -4.7290   -1.5330   -1.5460 C   0  0  0  0  0  0  0  0  0  0  0  0
   -3.4050   -1.1240   -2.0420 C   0  0  2  0  0  0  0  0  0  0  0  0
   -3.2830   -1.7180   -3.4790 C   0  0  0  0  0  0  0  0  0  0  0  0
   -2.2500   -1.7770   -1.3100 C   0  0  0  0  0  0  0  0  0  0  0  0
   -1.2260   -0.9590   -0.9240 O   0  0  0  0  0  0  0  0  0  0  0  0
   -0.7450    0.2560   -1.1510 C   0  0  0  0  0  0  0  0  0  0  0  0
   -0.1030    0.6850   -2.1810 O   0  0  0  0  0  0  0  0  0  0  0  0
   -0.9080    1.3590   -0.1440 C   0  0  2  0  0  0  0  0  0  0  0  0
   -1.3230    2.6170   -0.9190 C   0  0  0  0  0  0  0  0  0  0  0  0
    0.4800    1.7040    0.3580 C   0  0  0  0  0  0  0  0  0  0  0  0
    1.3000    2.0300   -0.5050 O   0  0  0  0  0  0  0  0  0  0  0  0
    0.8350    1.6600    1.7280 N   0  0  0  0  0  0  0  0  0  0  0  0
    2.0790    1.9290    2.3300 C   0  0  0  0  0  0  0  0  0  0  0  0
    3.2470    1.0520    2.1200 C   0  0  2  0  0  0  0  0  0  0  0  0
    3.0660   -0.3250    2.7620 C   0  0  0  0  0  0  0  0  0  0  0  0
    4.3680    1.6180    2.8320 O   0  0  0  0  0  0  0  0  0  0  0  0
    3.7290    0.9380    0.7130 C   0  0  0  0  0  0  0  0  0  0  0  0
    4.9730    0.1400    0.6690 N   0  0  0  0  0  0  0  0  0  0  0  0
    5.5830   -0.0780   -0.5760 C   0  0  0  0  0  0  0  0  0  0  0  0
    5.0300    0.4260   -1.6010 O   0  0  0  0  0  0  0  0  0  0  0  0
    6.8210   -0.8490   -0.7820 C   0  0  0  0  0  0  0  0  0  0  0  0
    7.4360   -1.3930    0.2300 C   0  0  0  0  0  0  0  0  0  0  0  0
    8.6990   -2.1900    0.0890 C   0  0  0  0  0  0  0  0  0  0  0  0
    9.4520   -1.6870   -1.1050 C   0  0  1  0  0  0  0  0  0  0  0  0
   10.6600   -2.5320   -1.3990 C   0  0  0  0  0  0  0  0  0  0  0  0
    8.4810   -1.7110   -2.2590 C   0  0  0  0  0  0  0  0  0  0  0  0
    8.7430   -2.3580   -3.3030 O   0  0  0  0  0  0  0  0  0  0  0  0
    7.3230   -0.9880   -2.0790 O   0  0  0  0  0  0  0  0  0  0  0  0
   -1.7270    1.0730    0.9230 O   0  0  0  0  0  0  0  0  0  0  0  0
   -2.6610    1.8500    1.5800 C   0  0  0  0  0  0  0  0  0  0  0  0
   -2.4840    2.4380    2.6860 O   0  0  0  0  0  0  0  0  0  0  0  0
   -4.0290    2.0770    1.0170 C   0  0  1  0  0  0  0  0  0  0  0  0
   -4.9970    1.8500    2.1570 C   0  0  0  0  0  0  0  0  0  0  0  0
   -4.2130    3.4730    0.4910 C   0  0  0  0  0  0  0  0  0  0  0  0
   -4.2920    1.0230   -0.0370 C   0  0  0  0  0  0  0  0  0  0  0  0
   -5.4350    0.1270    0.2440 C   0  0  0  0  0  0  0  0  0  0  0  0
  2  1  1  6
  2  3  1  0
  2  4  1  0
  4  5  2  0
  4 40  1  0
  5  6  1  0
  6  7  1  6
  6  8  1  0
  8  9  1  0
  9 10  1  0
 10 11  2  0
 10 12  1  0
 12 13  1  6
 12 14  1  0
 12 33  1  0
 14 15  2  0
 14 16  1  0
 16 17  1  0
 17 18  1  0
 18 19  1  1
 18 20  1  0
 18 21  1  0
 21 22  1  0
 22 23  1  0
 23 24  2  0
 23 25  1  0
 25 26  2  0
 25 32  1  0
 26 27  1  0
 27 28  1  0
 28 29  1  6
 28 30  1  0
 30 31  2  0
 30 32  1  0
 33 34  1  0
 34 35  2  0
 34 36  1  0
 36 37  1  1
 36 38  1  0
 36 39  1  0
 39 40  1  0
M  END
