
     RDKit          3D

 40 41  0  0  0  0  0  0  0  0999 V2000
    1.8870    5.1760   -0.7490 C   0  0  0  0  0  0  0  0  0  0  0  0
    1.2900    4.6010    0.4790 C   0  0  1  0  0  0  0  0  0  0  0  0
    0.4880    3.3360    0.1680 C   0  0  0  0  0  0  0  0  0  0  0  0
    0.0330    2.6610    1.4130 C   0  0  0  0  0  0  0  0  0  0  0  0
   -0.9600    1.7850    1.4700 C   0  0  0  0  0  0  0  0  0  0  0  0
   -1.7770    1.3300    0.3210 C   0  0  1  0  0  0  0  0  0  0  0  0
   -1.1350    1.4440   -0.9010 O   0  0  0  0  0  0  0  0  0  0  0  0
   -2.1310   -0.1420    0.5770 C   0  0  1  0  0  0  0  0  0  0  0  0
   -3.5250   -0.3910    0.0540 C   0  0  0  0  0  0  0  0  0  0  0  0
   -3.9890   -1.8240    0.2540 C   0  0  1  0  0  0  0  0  0  0  0  0
   -3.0190   -2.6980   -0.5030 C   0  0  0  0  0  0  0  0  0  0  0  0
   -3.9680   -2.2190    1.6970 C   0  0  0  0  0  0  0  0  0  0  0  0
   -4.3960   -3.5290    1.8330 O   0  0  0  0  0  0  0  0  0  0  0  0
   -5.3470   -1.9540   -0.3780 C   0  0  1  0  0  0  0  0  0  0  0  0
   -6.3460   -0.9920    0.2530 C   0  0  0  0  0  0  0  0  0  0  0  0
   -5.3210   -1.6470   -1.8540 C   0  0  0  0  0  0  0  0  0  0  0  0
   -5.9540   -3.3290   -0.2210 C   0  0  0  0  0  0  0  0  0  0  0  0
   -1.1620   -0.8910   -0.0400 O   0  0  0  0  0  0  0  0  0  0  0  0
   -0.0300   -1.1400    0.7320 C   0  0  0  0  0  0  0  0  0  0  0  0
    1.0750   -1.4550   -0.3000 C   0  0  0  0  0  0  0  0  0  0  0  0
    1.3710   -0.3640   -1.0820 O   0  0  0  0  0  0  0  0  0  0  0  0
    2.4580    0.1360   -1.6790 C   0  0  0  0  0  0  0  0  0  0  0  0
    2.6050    0.0620   -2.9370 O   0  0  0  0  0  0  0  0  0  0  0  0
    3.5430    0.8000   -0.9220 C   0  0  1  0  0  0  0  0  0  0  0  0
    3.3770    0.7370    0.5710 C   0  0  0  0  0  0  0  0  0  0  0  0
    4.7960    0.1410   -1.1810 O   0  0  0  0  0  0  0  0  0  0  0  0
    5.0290   -1.1890   -0.8870 C   0  0  0  0  0  0  0  0  0  0  0  0
    5.5220   -1.5970    0.3460 C   0  0  0  0  0  0  0  0  0  0  0  0
    5.7570   -2.9300    0.6440 C   0  0  0  0  0  0  0  0  0  0  0  0
    5.4990   -3.8980   -0.3010 C   0  0  0  0  0  0  0  0  0  0  0  0
    5.0140   -3.5200   -1.5210 C   0  0  0  0  0  0  0  0  0  0  0  0
    4.7820   -2.1730   -1.8050 C   0  0  0  0  0  0  0  0  0  0  0  0
    3.7330    2.1950   -1.4130 C   0  0  0  0  0  0  0  0  0  0  0  0
    3.3120    2.3590   -2.6190 O   0  0  0  0  0  0  0  0  0  0  0  0
    4.2870    3.2770   -0.7440 N   0  0  0  0  0  0  0  0  0  0  0  0
    4.4110    3.5550    0.6320 C   0  0  0  0  0  0  0  0  0  0  0  0
    5.6460    3.6880    1.0380 O   0  0  0  0  0  0  0  0  0  0  0  0
    3.4330    3.7090    1.6120 N   0  0  0  0  0  0  0  0  0  0  0  0
    2.2030    4.3740    1.6010 C   0  0  0  0  0  0  0  0  0  0  0  0
    1.7890    4.8680    2.7280 O   0  0  0  0  0  0  0  0  0  0  0  0
  2  1  1  6
  2  3  1  0
  2 39  1  0
  3  4  1  0
  4  5  2  0
  5  6  1  0
  6  7  1  6
  6  8  1  0
  8  9  1  6
  8 18  1  0
  9 10  1  0
 10 11  1  6
 10 12  1  0
 10 14  1  0
 12 13  1  0
 14 15  1  1
 14 16  1  0
 14 17  1  0
 18 19  1  0
 19 20  1  0
 20 21  1  0
 21 22  1  0
 22 23  2  0
 22 24  1  0
 24 25  1  1
 24 26  1  0
 24 33  1  0
 26 27  1  0
 27 28  2  0
 27 32  1  0
 28 29  1  0
 29 30  2  0
 30 31  1  0
 31 32  2  0
 33 34  2  0
 33 35  1  0
 35 36  1  0
 36 37  2  0
 36 38  1  0
 38 39  1  0
 39 40  2  0
M  END
