
     RDKit          3D

 39 40  0  0  0  0  0  0  0  0999 V2000
   -5.9990   -3.1710   -0.0170 C   0  0  0  0  0  0  0  0  0  0  0  0
   -4.7960   -2.3310   -0.4540 C   0  0  0  0  0  0  0  0  0  0  0  0
   -4.1700   -1.6710    0.7400 C   0  0  2  0  0  0  0  0  0  0  0  0
   -5.1190   -0.7610    1.4730 C   0  0  0  0  0  0  0  0  0  0  0  0
   -6.0920   -0.0260    0.6310 C   0  0  0  0  0  0  0  0  0  0  0  0
   -5.5570    1.2220   -0.0200 C   0  0  0  0  0  0  0  0  0  0  0  0
   -5.2240    2.3090    0.9550 C   0  0  0  0  0  0  0  0  0  0  0  0
   -4.7910    3.5250    0.1640 C   0  0  0  0  0  0  0  0  0  0  0  0
   -3.3400    3.8830    0.3710 C   0  0  0  0  0  0  0  0  0  0  0  0
   -2.5140    2.7990    0.5640 O   0  0  0  0  0  0  0  0  0  0  0  0
   -1.6990    2.5140   -0.5220 C   0  0  1  0  0  0  0  0  0  0  0  0
   -0.4970    3.4100   -0.4520 C   0  0  0  0  0  0  0  0  0  0  0  0
    0.5860    2.9150    0.4530 C   0  0  0  0  0  0  0  0  0  0  0  0
    1.8690    2.6560   -0.3470 C   0  0  0  0  0  0  0  0  0  0  0  0
    2.6020    1.5070    0.3190 C   0  0  0  0  0  0  0  0  0  0  0  0
    4.0670    1.6020   -0.0600 C   0  0  2  0  0  0  0  0  0  0  0  0
    4.1880    1.0590   -1.3520 O   0  0  0  0  0  0  0  0  0  0  0  0
    4.9420    0.8670    0.9270 C   0  0  2  0  0  0  0  0  0  0  0  0
    6.2760    1.4940    1.1000 C   0  0  0  0  0  0  0  0  0  0  0  0
    6.6020    1.8930    2.2360 O   0  0  0  0  0  0  0  0  0  0  0  0
    7.0940    1.6050   -0.0100 O   0  0  0  0  0  0  0  0  0  0  0  0
    8.3820    2.1990    0.1110 C   0  0  0  0  0  0  0  0  0  0  0  0
    5.0920   -0.5690    0.4040 C   0  0  1  0  0  0  0  0  0  0  0  0
    5.5050   -1.4440    1.5590 C   0  0  0  0  0  0  0  0  0  0  0  0
    3.9130   -0.9140   -0.1860 O   0  0  0  0  0  0  0  0  0  0  0  0
    3.6450   -2.2770   -0.2240 C   0  0  2  0  0  0  0  0  0  0  0  0
    4.5830   -2.8630   -1.2730 C   0  0  0  0  0  0  0  0  0  0  0  0
    2.2000   -2.5130   -0.6190 C   0  0  0  0  0  0  0  0  0  0  0  0
    2.0520   -3.7660   -1.3290 N   0  0  0  0  0  0  0  0  0  0  0  0
    0.8090   -4.3070   -1.7280 C   0  0  0  0  0  0  0  0  0  0  0  0
    0.8250   -4.9860   -2.8140 O   0  0  0  0  0  0  0  0  0  0  0  0
   -0.4650   -4.1740   -1.0420 C   0  0  0  0  0  0  0  0  0  0  0  0
   -1.2390   -5.2110   -1.0200 O   0  0  0  0  0  0  0  0  0  0  0  0
   -0.9350   -3.0010   -0.3910 N   0  0  0  0  0  0  0  0  0  0  0  0
   -0.9480   -1.6650   -0.9450 C   0  0  0  0  0  0  0  0  0  0  0  0
   -2.3280   -1.0150   -0.8770 C   0  0  1  0  0  0  0  0  0  0  0  0
   -2.8990   -0.9450    0.4890 C   0  0  0  0  0  0  0  0  0  0  0  0
   -2.1790    0.3070   -1.3480 O   0  0  0  0  0  0  0  0  0  0  0  0
   -1.3060    1.0470   -0.5640 C   0  0  0  0  0  0  0  0  0  0  0  0
  1  2  1  0
  3  2  1  6
  3  4  1  0
  3 37  1  0
  4  5  1  0
  5  6  1  0
  6  7  1  0
  7  8  1  0
  8  9  1  0
  9 10  1  0
 10 11  1  0
 11 12  1  1
 11 39  1  0
 12 13  1  0
 13 14  1  0
 14 15  1  0
 15 16  1  0
 16 17  1  6
 16 18  1  0
 18 19  1  6
 18 23  1  0
 19 20  2  0
 19 21  1  0
 21 22  1  0
 23 24  1  1
 23 25  1  0
 25 26  1  0
 26 27  1  6
 26 28  1  0
 28 29  1  0
 29 30  1  0
 30 31  2  0
 30 32  1  0
 32 33  2  0
 32 34  1  0
 34 35  1  0
 36 35  1  1
 36 37  1  0
 36 38  1  0
 38 39  1  0
M  END
