
     RDKit          3D

 40 41  0  0  0  0  0  0  0  0999 V2000
   -0.4590    5.7360   -0.5740 C   0  0  0  0  0  0  0  0  0  0  0  0
   -1.1180    4.7370    0.3650 C   0  0  0  0  0  0  0  0  0  0  0  0
   -1.4700    3.4840   -0.3520 C   0  0  0  0  0  0  0  0  0  0  0  0
   -2.1290    2.4480    0.5150 C   0  0  1  0  0  0  0  0  0  0  0  0
   -3.4380    2.9980    1.1130 C   0  0  0  0  0  0  0  0  0  0  0  0
   -2.5350    1.2250   -0.2860 C   0  0  0  0  0  0  0  0  0  0  0  0
   -2.5250    0.1080    0.5330 O   0  0  0  0  0  0  0  0  0  0  0  0
   -2.6510   -1.0770   -0.1540 C   0  0  2  0  0  0  0  0  0  0  0  0
   -3.8150   -1.9080    0.3380 C   0  0  0  0  0  0  0  0  0  0  0  0
   -5.1370   -1.2220    0.2100 C   0  0  2  0  0  0  0  0  0  0  0  0
   -5.2300   -0.0340    0.9160 O   0  0  0  0  0  0  0  0  0  0  0  0
   -6.1800   -2.1950    0.7770 C   0  0  0  0  0  0  0  0  0  0  0  0
   -5.8960   -2.5210    2.2270 C   0  0  0  0  0  0  0  0  0  0  0  0
   -5.5400   -1.0070   -1.2400 C   0  0  0  0  0  0  0  0  0  0  0  0
   -5.4430   -2.2000   -1.9420 O   0  0  0  0  0  0  0  0  0  0  0  0
   -1.3280   -1.8500   -0.0290 C   0  0  0  0  0  0  0  0  0  0  0  0
   -0.7220   -2.0590   -1.3690 C   0  0  0  0  0  0  0  0  0  0  0  0
   -1.5820   -2.5250   -2.2280 O   0  0  0  0  0  0  0  0  0  0  0  0
    0.5610   -1.8380   -1.8130 N   0  0  0  0  0  0  0  0  0  0  0  0
    1.8450   -2.3940   -1.3700 C   0  0  2  0  0  0  0  0  0  0  0  0
    1.8710   -2.8380    0.0300 C   0  0  2  0  0  0  0  0  0  0  0  0
    3.2320   -3.3850    0.3850 C   0  0  0  0  0  0  0  0  0  0  0  0
    0.9200   -4.0450    0.1380 C   0  0  0  0  0  0  0  0  0  0  0  0
    2.9620   -1.5820   -1.8850 C   0  0  0  0  0  0  0  0  0  0  0  0
    3.7890   -2.3620   -2.5360 O   0  0  0  0  0  0  0  0  0  0  0  0
    3.3060   -0.2450   -1.8360 N   0  0  0  0  0  0  0  0  0  0  0  0
    3.7760    0.6760   -0.8430 C   0  0  2  0  0  0  0  0  0  0  0  0
    5.0360    1.4150   -1.3430 C   0  0  0  0  0  0  0  0  0  0  0  0
    6.2650    0.5810   -1.2600 C   0  0  0  0  0  0  0  0  0  0  0  0
    6.5120    0.3180    0.2320 C   0  0  0  0  0  0  0  0  0  0  0  0
    5.3550   -0.5430    0.6790 C   0  0  0  0  0  0  0  0  0  0  0  0
    4.0270    0.1700    0.5250 C   0  0  1  0  0  0  0  0  0  0  0  0
    4.0520    1.2930    1.5640 C   0  0  0  0  0  0  0  0  0  0  0  0
    2.7990    1.8140   -0.6680 C   0  0  0  0  0  0  0  0  0  0  0  0
    2.8250    2.7860   -1.5050 O   0  0  0  0  0  0  0  0  0  0  0  0
    1.9100    1.8410    0.3330 O   0  0  0  0  0  0  0  0  0  0  0  0
    0.8280    1.0950    0.7230 C   0  0  0  0  0  0  0  0  0  0  0  0
    0.0130    1.9210    1.6870 C   0  0  0  0  0  0  0  0  0  0  0  0
    0.6580    2.4870    2.6050 O   0  0  0  0  0  0  0  0  0  0  0  0
   -1.3360    2.0600    1.5940 O   0  0  0  0  0  0  0  0  0  0  0  0
  1  2  1  0
  2  3  1  0
  3  4  1  0
  4  5  1  1
  4  6  1  0
  4 40  1  0
  6  7  1  0
  7  8  1  0
  8  9  1  1
  8 16  1  0
  9 10  1  0
 10 11  1  1
 10 12  1  0
 10 14  1  0
 12 13  1  0
 14 15  1  0
 16 17  1  0
 17 18  2  0
 17 19  1  0
 20 19  1  1
 20 21  1  0
 20 24  1  0
 21 22  1  6
 21 23  1  0
 24 25  2  0
 24 26  1  0
 26 27  1  0
 27 28  1  6
 27 32  1  0
 27 34  1  0
 28 29  1  0
 29 30  1  0
 30 31  1  0
 31 32  1  0
 32 33  1  1
 34 35  2  0
 34 36  1  0
 36 37  1  0
 37 38  1  0
 38 39  2  0
 38 40  1  0
M  END
