
     RDKit          3D

 40 42  0  0  0  0  0  0  0  0999 V2000
    5.5210   -0.7570   -1.7390 C   0  0  0  0  0  0  0  0  0  0  0  0
    4.8110   -1.1250   -0.4590 C   0  0  0  0  0  0  0  0  0  0  0  0
    3.8090   -0.1580   -0.0380 C   0  0  0  0  0  0  0  0  0  0  0  0
    4.1760    1.0510    0.5770 C   0  0  0  0  0  0  0  0  0  0  0  0
    5.5740    1.4920    0.8700 C   0  0  1  0  0  0  0  0  0  0  0  0
    6.2370    1.7590   -0.3420 O   0  0  0  0  0  0  0  0  0  0  0  0
    5.5050    2.8190    1.5930 C   0  0  0  0  0  0  0  0  0  0  0  0
    4.7310    2.6910    2.8970 C   0  0  0  0  0  0  0  0  0  0  0  0
    3.1050    1.7370    0.8550 O   0  0  0  0  0  0  0  0  0  0  0  0
    2.0160    1.0840    0.4740 C   0  0  0  0  0  0  0  0  0  0  0  0
    2.4360   -0.1270   -0.0990 C   0  0  0  0  0  0  0  0  0  0  0  0
    1.4880   -1.0920   -0.6420 C   0  0  1  0  0  0  0  0  0  0  0  0
    1.9770   -2.0700   -1.6490 C   0  0  0  0  0  0  0  0  0  0  0  0
    2.0030   -3.4140   -0.9480 C   0  0  0  0  0  0  0  0  0  0  0  0
    1.6470   -3.1010    0.4990 C   0  0  0  0  0  0  0  0  0  0  0  0
    0.7130   -1.9010    0.3980 C   0  0  2  0  0  0  0  0  0  0  0  0
   -0.5070   -2.1940   -0.1510 O   0  0  0  0  0  0  0  0  0  0  0  0
   -1.6100   -2.8760    0.0510 C   0  0  0  0  0  0  0  0  0  0  0  0
   -1.8280   -4.0240   -0.4470 O   0  0  0  0  0  0  0  0  0  0  0  0
   -2.7180   -2.3630    0.8900 C   0  0  1  0  0  0  0  0  0  0  0  0
   -2.7270   -3.0070    2.2650 C   0  0  0  0  0  0  0  0  0  0  0  0
   -2.8950   -4.5250    2.1240 C   0  0  0  0  0  0  0  0  0  0  0  0
   -2.6370   -0.9310    1.0750 N   0  0  0  0  0  0  0  0  0  0  0  0
   -3.6440    0.0160    0.8670 C   0  0  0  0  0  0  0  0  0  0  0  0
   -3.9320    0.7780    1.8610 O   0  0  0  0  0  0  0  0  0  0  0  0
   -4.4260    0.2570   -0.3580 C   0  0  2  0  0  0  0  0  0  0  0  0
   -4.1180   -0.6670   -1.4920 C   0  0  0  0  0  0  0  0  0  0  0  0
   -4.4670    1.6570   -0.8420 C   0  0  1  0  0  0  0  0  0  0  0  0
   -5.6640    1.7590   -1.6180 O   0  0  0  0  0  0  0  0  0  0  0  0
   -4.6400    2.7090    0.2330 C   0  0  0  0  0  0  0  0  0  0  0  0
   -5.9110    2.4920    0.9570 C   0  0  0  0  0  0  0  0  0  0  0  0
   -3.3730    2.1120   -1.7400 C   0  0  0  0  0  0  0  0  0  0  0  0
   -2.4510    1.1300   -2.1360 O   0  0  0  0  0  0  0  0  0  0  0  0
   -1.1540    1.3390   -2.5410 C   0  0  0  0  0  0  0  0  0  0  0  0
   -0.7270    0.8380   -3.5910 O   0  0  0  0  0  0  0  0  0  0  0  0
   -0.2610    2.1720   -1.7060 C   0  0  2  0  0  0  0  0  0  0  0  0
    1.1160    2.1460   -2.3090 C   0  0  0  0  0  0  0  0  0  0  0  0
   -0.3320    1.6180   -0.3710 N   0  0  0  0  0  0  0  0  0  0  0  0
    0.6410    1.5280    0.6200 C   0  0  0  0  0  0  0  0  0  0  0  0
    0.2220    1.8950    1.8010 O   0  0  0  0  0  0  0  0  0  0  0  0
  1  2  1  0
  2  3  1  0
  3  4  2  0
  3 11  1  0
  4  5  1  0
  4  9  1  0
  5  6  1  6
  5  7  1  0
  7  8  1  0
  9 10  1  0
 10 11  2  0
 10 39  1  0
 11 12  1  0
 12 13  1  6
 12 16  1  0
 13 14  1  0
 14 15  1  0
 16 15  1  6
 16 17  1  0
 17 18  1  0
 18 19  2  0
 18 20  1  0
 20 21  1  1
 20 23  1  0
 21 22  1  0
 23 24  1  0
 24 25  2  0
 24 26  1  0
 26 27  1  6
 26 28  1  0
 28 29  1  6
 28 30  1  0
 28 32  1  0
 30 31  1  0
 32 33  1  0
 33 34  1  0
 34 35  2  0
 34 36  1  0
 36 37  1  6
 36 38  1  0
 38 39  1  0
 39 40  2  0
M  END
