
     RDKit          3D

 39 43  0  0  0  0  0  0  0  0999 V2000
   -8.0400   -5.6890   -0.1770 C   0  0  0  0  0  0  0  0  0  0  0  0
   -6.7170   -4.9710   -0.0800 C   0  0  0  0  0  0  0  0  0  0  0  0
   -6.8200   -3.5710   -0.3750 N   0  0  0  0  0  0  0  0  0  0  0  0
   -5.6710   -2.7520   -0.3410 C   0  0  0  0  0  0  0  0  0  0  0  0
   -4.4420   -3.3300   -0.0250 C   0  0  0  0  0  0  0  0  0  0  0  0
   -3.3180   -2.5420    0.0110 C   0  0  0  0  0  0  0  0  0  0  0  0
   -3.3410   -1.1660   -0.2580 C   0  0  0  0  0  0  0  0  0  0  0  0
   -2.1440   -0.3990   -0.2100 N   0  0  0  0  0  0  0  0  0  0  0  0
   -1.7830    0.5210   -1.2610 C   0  0  0  0  0  0  0  0  0  0  0  0
   -2.1920    1.9180   -1.0130 C   0  0  0  0  0  0  0  0  0  0  0  0
   -2.8240    2.3820    0.1130 C   0  0  0  0  0  0  0  0  0  0  0  0
   -3.1700    3.6890    0.3210 C   0  0  0  0  0  0  0  0  0  0  0  0
   -2.8670    4.6070   -0.6630 C   0  0  0  0  0  0  0  0  0  0  0  0
   -3.1940    5.9570   -0.5110 O   0  0  0  0  0  0  0  0  0  0  0  0
   -2.2320    4.1820   -1.8100 C   0  0  0  0  0  0  0  0  0  0  0  0
   -1.8940    2.8460   -1.9890 C   0  0  0  0  0  0  0  0  0  0  0  0
   -1.2550    2.4860   -3.1690 O   0  0  0  0  0  0  0  0  0  0  0  0
   -1.2630   -0.5910    0.8850 C   0  0  0  0  0  0  0  0  0  0  0  0
   -1.5880   -1.4650    1.7580 O   0  0  0  0  0  0  0  0  0  0  0  0
   -0.0180    0.1500    1.0660 C   0  0  0  0  0  0  0  0  0  0  0  0
    0.5190    1.0870    0.3130 N   0  0  0  0  0  0  0  0  0  0  0  0
    1.6950    1.5230    0.8340 C   0  0  0  0  0  0  0  0  0  0  0  0
    2.4890    2.5470    0.2060 C   0  0  0  0  0  0  0  0  0  0  0  0
    3.8970    2.4900    0.3630 N   0  0  0  0  0  0  0  0  0  0  0  0
    4.4400    1.3560   -0.4020 C   0  0  0  0  0  0  0  0  0  0  0  0
    5.9100    1.2520   -0.0420 C   0  0  0  0  0  0  0  0  0  0  0  0
    6.5580    0.1290   -0.7650 C   0  0  0  0  0  0  0  0  0  0  0  0
    7.1470    0.2910   -2.0020 C   0  0  0  0  0  0  0  0  0  0  0  0
    7.7390   -0.7800   -2.6380 C   0  0  0  0  0  0  0  0  0  0  0  0
    7.7690   -2.0210   -2.0870 N   0  0  0  0  0  0  0  0  0  0  0  0
    7.2050   -2.2080   -0.8860 C   0  0  0  0  0  0  0  0  0  0  0  0
    6.6070   -1.1600   -0.2260 C   0  0  0  0  0  0  0  0  0  0  0  0
    1.8400    0.7930    1.9510 N   0  0  0  0  0  0  0  0  0  0  0  0
    2.9690    0.9330    2.8340 C   0  0  2  0  0  0  0  0  0  0  0  0
    4.0350   -0.0580    2.9310 C   0  0  0  0  0  0  0  0  0  0  0  0
    3.0170   -0.1030    4.0010 C   0  0  0  0  0  0  0  0  0  0  0  0
    0.8210   -0.0350    2.1050 N   0  0  0  0  0  0  0  0  0  0  0  0
   -4.5510   -0.6160   -0.5650 C   0  0  0  0  0  0  0  0  0  0  0  0
   -5.6850   -1.4080   -0.6010 C   0  0  0  0  0  0  0  0  0  0  0  0
  1  2  1  0
  2  3  1  0
  3  4  1  0
  4  5  2  0
  4 39  1  0
  5  6  1  0
  6  7  2  0
  7  8  1  0
  7 38  1  0
  8  9  1  0
  8 18  1  0
  9 10  1  0
 10 11  2  0
 10 16  1  0
 11 12  1  0
 12 13  2  0
 13 14  1  0
 13 15  1  0
 15 16  2  0
 16 17  1  0
 18 19  2  0
 18 20  1  0
 20 21  1  0
 20 37  2  0
 21 22  2  0
 22 23  1  0
 22 33  1  0
 23 24  1  0
 24 25  1  0
 25 26  1  0
 26 27  1  0
 27 28  2  0
 27 32  1  0
 28 29  1  0
 29 30  2  0
 30 31  1  0
 31 32  2  0
 34 33  1  6
 33 37  1  0
 34 35  1  0
 34 36  1  0
 35 36  1  0
 38 39  2  0
M  CHG  1  24   1
M  END
