
     RDKit          3D

 39 43  0  0  0  0  0  0  0  0999 V2000
   -0.2790   -2.3660   -1.4440 C   0  0  0  0  0  0  0  0  0  0  0  0
   -0.5810   -1.1080   -0.8840 O   0  0  0  0  0  0  0  0  0  0  0  0
    0.4360   -0.3250   -0.4140 C   0  0  0  0  0  0  0  0  0  0  0  0
    1.7330   -0.7880   -0.5010 C   0  0  0  0  0  0  0  0  0  0  0  0
    2.7980   -0.0430   -0.0480 C   0  0  0  0  0  0  0  0  0  0  0  0
    4.1070   -0.6060   -0.2140 N   0  0  0  0  0  0  0  0  0  0  0  0
    5.1760   -0.2510    0.6080 C   0  0  0  0  0  0  0  0  0  0  0  0
    4.9220    0.6120    1.5460 O   0  0  0  0  0  0  0  0  0  0  0  0
    6.5070   -0.7090    0.5550 N   0  0  0  0  0  0  0  0  0  0  0  0
    7.4270   -0.2590    1.4320 N   0  0  0  0  0  0  0  0  0  0  0  0
    8.6100   -0.8340    1.1860 C   0  0  0  0  0  0  0  0  0  0  0  0
    9.6760   -0.6120    1.8470 O   0  0  0  0  0  0  0  0  0  0  0  0
    8.4360   -1.6720    0.1250 C   0  0  0  0  0  0  0  0  0  0  0  0
    9.3470   -2.4930   -0.5130 C   0  0  0  0  0  0  0  0  0  0  0  0
    8.9460   -3.2570   -1.5710 C   0  0  0  0  0  0  0  0  0  0  0  0
    7.6400   -3.1750   -1.9590 C   0  0  0  0  0  0  0  0  0  0  0  0
    6.7050   -2.3470   -1.3200 C   0  0  0  0  0  0  0  0  0  0  0  0
    7.1140   -1.5800   -0.2560 C   0  0  0  0  0  0  0  0  0  0  0  0
    2.5680    1.1720    0.4970 C   0  0  0  0  0  0  0  0  0  0  0  0
    1.2380    1.6350    0.5830 C   0  0  0  0  0  0  0  0  0  0  0  0
    0.1960    0.8870    0.1310 C   0  0  0  0  0  0  0  0  0  0  0  0
   -1.1450    1.3910    0.2640 N   0  0  0  0  0  0  0  0  0  0  0  0
   -1.9460    0.7800    1.2430 C   0  0  0  0  0  0  0  0  0  0  0  0
   -3.0860   -0.0910    1.0240 C   0  0  0  0  0  0  0  0  0  0  0  0
   -4.2650    0.2380    0.3820 N   0  0  0  0  0  0  0  0  0  0  0  0
   -4.3260    0.4530   -1.0060 C   0  0  0  0  0  0  0  0  0  0  0  0
   -5.6170   -0.0620   -1.6190 C   0  0  0  0  0  0  0  0  0  0  0  0
   -5.7590   -1.5380   -1.4490 C   0  0  0  0  0  0  0  0  0  0  0  0
   -5.2620   -1.9120   -0.0810 C   0  0  2  0  0  0  0  0  0  0  0  0
   -6.0230   -3.0940    0.4730 C   0  0  0  0  0  0  0  0  0  0  0  0
   -7.4290   -2.8540    0.6030 N   0  0  0  0  0  0  0  0  0  0  0  0
   -5.3020   -0.7260    0.8120 C   0  0  0  0  0  0  0  0  0  0  0  0
   -1.4830    2.4440   -0.6620 C   0  0  0  0  0  0  0  0  0  0  0  0
   -1.8420    3.7570   -0.1250 C   0  0  0  0  0  0  0  0  0  0  0  0
   -0.8980    4.4640    0.6820 N   0  0  0  0  0  0  0  0  0  0  0  0
   -0.8680    4.3390    2.0370 C   0  0  0  0  0  0  0  0  0  0  0  0
    0.1280    5.1250    2.5230 C   0  0  0  0  0  0  0  0  0  0  0  0
    0.7290    5.7500    1.4540 C   0  0  0  0  0  0  0  0  0  0  0  0
    0.0750    5.3240    0.3220 C   0  0  0  0  0  0  0  0  0  0  0  0
  1  2  1  0
  2  3  1  0
  3  4  2  0
  3 21  1  0
  4  5  1  0
  5  6  1  0
  5 19  2  0
  6  7  1  0
  7  8  2  0
  7  9  1  0
  9 10  1  0
  9 18  1  0
 10 11  1  0
 11 12  2  0
 11 13  1  0
 13 14  2  0
 13 18  1  0
 14 15  1  0
 15 16  2  0
 16 17  1  0
 17 18  2  0
 19 20  1  0
 20 21  2  0
 21 22  1  0
 22 23  1  0
 22 33  1  0
 23 24  1  0
 24 25  1  0
 25 26  1  0
 25 32  1  0
 26 27  1  0
 27 28  1  0
 28 29  1  0
 29 30  1  1
 29 32  1  0
 30 31  1  0
 33 34  1  0
 34 35  1  0
 35 36  1  0
 35 39  1  0
 36 37  2  0
 37 38  1  0
 38 39  2  0
M  CHG  1  31   1
M  END
