
     RDKit          3D

 39 43  0  0  0  0  0  0  0  0999 V2000
   -7.5940   -4.0190   -4.1770 C   0  0  0  0  0  0  0  0  0  0  0  0
   -8.1990   -3.1040   -3.0560 C   0  0  2  0  0  0  0  0  0  0  0  0
   -9.5490   -2.7930   -3.6290 C   0  0  0  0  0  0  0  0  0  0  0  0
   -7.3650   -1.8210   -3.1710 C   0  0  0  0  0  0  0  0  0  0  0  0
   -7.1550   -1.1650   -4.2570 N   0  0  0  0  0  0  0  0  0  0  0  0
   -6.3510   -0.1550   -4.0190 N   0  0  0  0  0  0  0  0  0  0  0  0
   -6.0200   -0.1530   -2.7150 C   0  0  0  0  0  0  0  0  0  0  0  0
   -5.3110    0.9290   -2.0260 C   0  0  0  0  0  0  0  0  0  0  0  0
   -5.8750    2.2430   -2.3930 C   0  0  0  0  0  0  0  0  0  0  0  0
   -6.3820    3.4050   -2.7400 N   0  0  0  0  0  0  0  0  0  0  0  0
   -6.6740   -1.2660   -2.0670 C   0  0  0  0  0  0  0  0  0  0  0  0
   -6.7780   -1.6070   -0.6680 C   0  0  0  0  0  0  0  0  0  0  0  0
   -6.0910   -1.2410    0.2380 N   0  0  0  0  0  0  0  0  0  0  0  0
   -5.2390   -0.7420    1.1230 N   0  0  0  0  0  0  0  0  0  0  0  0
   -3.8440   -0.8860    0.6920 C   0  0  0  0  0  0  0  0  0  0  0  0
   -3.5710   -1.4210   -0.3790 O   0  0  0  0  0  0  0  0  0  0  0  0
   -2.7300   -0.4070    1.4980 C   0  0  0  0  0  0  0  0  0  0  0  0
   -2.6420    0.9460    1.9070 C   0  0  0  0  0  0  0  0  0  0  0  0
   -1.5850    1.3620    2.5930 C   0  0  0  0  0  0  0  0  0  0  0  0
   -0.4810    0.5890    2.9890 C   0  0  0  0  0  0  0  0  0  0  0  0
    0.5740    1.0430    3.6840 O   0  0  0  0  0  0  0  0  0  0  0  0
    1.8260    1.2920    3.1220 C   0  0  0  0  0  0  0  0  0  0  0  0
    2.4040    0.5660    2.1280 C   0  0  0  0  0  0  0  0  0  0  0  0
    3.6960    0.9340    1.6690 C   0  0  0  0  0  0  0  0  0  0  0  0
    4.4050    1.9930    2.1660 C   0  0  0  0  0  0  0  0  0  0  0  0
    5.7060    2.3820    1.7370 N   0  0  0  0  0  0  0  0  0  0  0  0
    6.9180    1.6060    2.1020 C   0  0  0  0  0  0  0  0  0  0  0  0
    7.5430    1.6180    0.6900 C   0  0  2  0  0  0  0  0  0  0  0  0
    8.7800    0.9460    0.6000 N   0  0  0  0  0  0  0  0  0  0  0  0
    8.5000   -0.3830    0.0360 C   0  0  2  0  0  0  0  0  0  0  0  0
    8.5340   -1.5260    0.9780 C   0  0  0  0  0  0  0  0  0  0  0  0
    9.5700   -1.3660   -0.1470 C   0  0  0  0  0  0  0  0  0  0  0  0
    7.6240    3.1480    0.5330 C   0  0  0  0  0  0  0  0  0  0  0  0
    6.2000    3.4520    0.9770 C   0  0  0  0  0  0  0  0  0  0  0  0
    5.6250    4.5230    0.6780 O   0  0  0  0  0  0  0  0  0  0  0  0
    3.7880    2.7330    3.1840 C   0  0  0  0  0  0  0  0  0  0  0  0
    2.5560    2.3800    3.6260 C   0  0  0  0  0  0  0  0  0  0  0  0
   -0.5950   -0.7600    2.5650 C   0  0  0  0  0  0  0  0  0  0  0  0
   -1.6840   -1.2270    1.8480 C   0  0  0  0  0  0  0  0  0  0  0  0
  2  1  1  6
  2  3  1  0
  2  4  1  0
  4  5  2  0
  4 11  1  0
  5  6  1  0
  6  7  1  0
  7  8  1  0
  7 11  2  0
  8  9  1  0
  9 10  3  0
 11 12  1  0
 12 13  2  3
 13 14  1  0
 14 15  1  0
 15 16  2  0
 15 17  1  0
 17 18  2  0
 17 39  1  0
 18 19  1  0
 19 20  2  0
 20 21  1  0
 20 38  1  0
 21 22  1  0
 22 23  2  0
 22 37  1  0
 23 24  1  0
 24 25  2  0
 25 26  1  0
 25 36  1  0
 26 27  1  0
 26 34  1  0
 27 28  1  0
 28 29  1  1
 28 33  1  0
 30 29  1  1
 30 31  1  0
 30 32  1  0
 31 32  1  0
 33 34  1  0
 34 35  2  0
 36 37  2  0
 38 39  2  0
M  CHG  1  29   1
M  END
