
     RDKit          3D

 39 41  0  0  0  0  0  0  0  0999 V2000
   -6.1760    2.8120    0.8960 C   0  0  0  0  0  0  0  0  0  0  0  0
   -6.4130    1.8880   -0.2780 C   0  0  2  0  0  0  0  0  0  0  0  0
   -6.9630    2.7130   -1.4200 C   0  0  0  0  0  0  0  0  0  0  0  0
   -7.5090    0.9270    0.1300 C   0  0  0  0  0  0  0  0  0  0  0  0
   -5.2250    1.2260   -0.7130 N   0  0  0  0  0  0  0  0  0  0  0  0
   -4.4350    0.3710    0.0720 C   0  0  0  0  0  0  0  0  0  0  0  0
   -4.7720    0.1500    1.2600 O   0  0  0  0  0  0  0  0  0  0  0  0
   -3.2080   -0.2930   -0.4330 C   0  0  2  0  0  0  0  0  0  0  0  0
   -3.6310   -1.1270   -1.6220 C   0  0  0  0  0  0  0  0  0  0  0  0
   -4.3480   -2.3670   -1.1050 C   0  0  0  0  0  0  0  0  0  0  0  0
   -3.2880   -3.2210   -0.4470 C   0  0  0  0  0  0  0  0  0  0  0  0
   -2.1350   -2.3640    0.1040 C   0  0  0  0  0  0  0  0  0  0  0  0
   -2.5910   -1.1230    0.6020 N   0  0  1  0  0  0  0  0  0  0  0  0
   -1.5920   -0.3460    1.2460 C   0  0  0  0  0  0  0  0  0  0  0  0
   -0.4110   -0.9450    1.8580 C   0  0  1  0  0  0  0  0  0  0  0  0
   -0.6880   -1.9150    2.8240 O   0  0  0  0  0  0  0  0  0  0  0  0
    0.6980   -1.3530    1.0010 C   0  0  2  0  0  0  0  0  0  0  0  0
    1.8200   -1.8240    1.9280 C   0  0  0  0  0  0  0  0  0  0  0  0
    3.1880   -2.0120    1.3130 C   0  0  0  0  0  0  0  0  0  0  0  0
    3.3940   -2.4010   -0.0020 C   0  0  0  0  0  0  0  0  0  0  0  0
    4.6940   -2.4670   -0.5720 C   0  0  0  0  0  0  0  0  0  0  0  0
    5.8200   -2.1550    0.1290 C   0  0  0  0  0  0  0  0  0  0  0  0
    5.6360   -1.7840    1.4240 C   0  0  0  0  0  0  0  0  0  0  0  0
    4.3510   -1.7070    2.0280 C   0  0  0  0  0  0  0  0  0  0  0  0
    7.1160   -2.1880   -0.4310 O   0  0  0  0  0  0  0  0  0  0  0  0
    7.6280   -0.9770   -1.0510 C   0  0  0  0  0  0  0  0  0  0  0  0
    7.2620    0.2500   -0.3000 C   0  0  0  0  0  0  0  0  0  0  0  0
    5.9460    0.9060   -0.7070 C   0  0  0  0  0  0  0  0  0  0  0  0
    5.1730    1.3580    0.4780 C   0  0  0  0  0  0  0  0  0  0  0  0
    5.9080    1.8950    1.4050 O   0  0  0  0  0  0  0  0  0  0  0  0
    3.7920    1.2860    0.7260 N   0  0  0  0  0  0  0  0  0  0  0  0
    2.6820    1.6840   -0.0530 C   0  0  1  0  0  0  0  0  0  0  0  0
    3.1300    2.3920   -1.3440 C   0  0  0  0  0  0  0  0  0  0  0  0
    1.9600    2.8070   -2.1470 C   0  0  0  0  0  0  0  0  0  0  0  0
    1.3150    4.0300   -1.7880 N   0  0  0  0  0  0  0  0  0  0  0  0
    1.5090    2.1420   -3.1230 O   0  0  0  0  0  0  0  0  0  0  0  0
    1.5340    0.7970   -0.2570 C   0  0  0  0  0  0  0  0  0  0  0  0
    0.6060    1.5610   -0.8200 O   0  0  0  0  0  0  0  0  0  0  0  0
    1.1390   -0.4920   -0.0660 N   0  0  0  0  0  0  0  0  0  0  0  0
  2  1  1  1
  2  3  1  0
  2  4  1  0
  2  5  1  0
  5  6  1  0
  6  7  2  0
  8  6  1  1
  8  9  1  0
  8 13  1  0
  9 10  1  0
 10 11  1  0
 11 12  1  0
 12 13  1  0
 13 14  1  6
 14 15  1  0
 15 16  1  6
 15 17  1  0
 17 18  1  1
 17 39  1  0
 18 19  1  0
 19 20  2  0
 19 24  1  0
 20 21  1  0
 21 22  2  0
 22 23  1  0
 22 25  1  0
 23 24  2  0
 25 26  1  0
 26 27  1  0
 27 28  1  0
 28 29  1  0
 29 30  2  0
 29 31  1  0
 31 32  1  0
 32 33  1  6
 32 37  1  0
 33 34  1  0
 34 35  1  0
 34 36  2  0
 37 38  2  0
 37 39  1  0
M  CHG  1  13   1
M  END
