
     RDKit          3D

 39 43  0  0  0  0  0  0  0  0999 V2000
    5.0470    2.0570   -0.8620 C   0  0  0  0  0  0  0  0  0  0  0  0
    5.1820    2.0810    0.5620 N   0  0  0  0  0  0  0  0  0  0  0  0
    4.4870    1.3080    1.4720 C   0  0  0  0  0  0  0  0  0  0  0  0
    4.8320    1.5560    2.7440 O   0  0  0  0  0  0  0  0  0  0  0  0
    3.4770    0.2980    1.3550 C   0  0  0  0  0  0  0  0  0  0  0  0
    2.9910   -0.0960    0.0820 N   0  0  0  0  0  0  0  0  0  0  0  0
    1.9580   -1.1290    0.0370 C   0  0  0  0  0  0  0  0  0  0  0  0
    1.5670   -1.6000    1.1220 O   0  0  0  0  0  0  0  0  0  0  0  0
    1.4800   -1.5110   -1.3070 C   0  0  0  0  0  0  0  0  0  0  0  0
    0.4400   -2.5420   -1.2800 C   0  0  0  0  0  0  0  0  0  0  0  0
    0.6580   -3.8690   -1.2770 N   0  0  0  0  0  0  0  0  0  0  0  0
   -0.5030   -4.5170   -1.2530 N   0  0  0  0  0  0  0  0  0  0  0  0
   -0.7450   -5.9210   -1.2410 C   0  0  0  0  0  0  0  0  0  0  0  0
   -1.7360   -6.4760   -0.4590 C   0  0  0  0  0  0  0  0  0  0  0  0
   -1.9450   -7.8560   -0.4710 C   0  0  0  0  0  0  0  0  0  0  0  0
   -1.1880   -8.7070   -1.2490 C   0  0  0  0  0  0  0  0  0  0  0  0
   -0.1990   -8.1430   -2.0280 C   0  0  0  0  0  0  0  0  0  0  0  0
    0.5850   -9.0180   -2.8310 N   0  0  0  0  0  0  0  0  0  0  0  0
    0.0160   -6.7690   -2.0210 C   0  0  0  0  0  0  0  0  0  0  0  0
   -1.4630   -3.5570   -1.2420 C   0  0  0  0  0  0  0  0  0  0  0  0
   -2.6980   -3.8070   -1.2190 O   0  0  0  0  0  0  0  0  0  0  0  0
   -0.9060   -2.3360   -1.2580 N   0  0  0  0  0  0  0  0  0  0  0  0
   -1.6230   -1.0840   -1.2560 C   0  0  0  0  0  0  0  0  0  0  0  0
   -1.8850   -0.5860    0.1480 C   0  0  0  0  0  0  0  0  0  0  0  0
   -2.6040    0.6730    0.1440 N   0  0  1  0  0  0  0  0  0  0  0  0
   -3.9780    0.4220    0.3730 C   0  0  0  0  0  0  0  0  0  0  0  0
   -4.8110    1.5970    0.7370 C   0  0  0  0  0  0  0  0  0  0  0  0
   -4.0850    2.6990    1.4450 C   0  0  2  0  0  0  0  0  0  0  0  0
   -4.9010    3.9250    1.3360 C   0  0  0  0  0  0  0  0  0  0  0  0
   -5.4750    4.5340    2.3580 C   0  0  0  0  0  0  0  0  0  0  0  0
   -6.2150    5.7320    1.8970 C   0  0  0  0  0  0  0  0  0  0  0  0
   -5.9790    5.7190    0.4420 C   0  0  0  0  0  0  0  0  0  0  0  0
   -5.2280    4.6860    0.1270 C   0  0  0  0  0  0  0  0  0  0  0  0
   -2.6720    2.9050    0.9510 C   0  0  0  0  0  0  0  0  0  0  0  0
   -1.9830    1.5450    1.1120 C   0  0  0  0  0  0  0  0  0  0  0  0
    6.1940    3.0610    1.0710 C   0  0  2  0  0  0  0  0  0  0  0  0
    6.0150    4.4330    0.4870 C   0  0  0  0  0  0  0  0  0  0  0  0
    7.4230    4.3750   -0.0780 C   0  0  0  0  0  0  0  0  0  0  0  0
    7.5000    2.9230    0.3590 C   0  0  0  0  0  0  0  0  0  0  0  0
  1  2  1  0
  2  3  1  0
 36  2  1  6
  3  4  2  0
  3  5  1  0
  5  6  1  0
  6  7  1  0
  7  8  2  0
  7  9  1  0
  9 10  1  0
 10 11  2  0
 10 22  1  0
 11 12  1  0
 12 13  1  0
 12 20  1  0
 13 14  2  0
 13 19  1  0
 14 15  1  0
 15 16  2  0
 16 17  1  0
 17 18  1  0
 17 19  2  0
 20 21  2  0
 20 22  1  0
 22 23  1  0
 23 24  1  0
 25 24  1  1
 25 26  1  0
 25 35  1  0
 26 27  1  0
 27 28  1  0
 28 29  1  6
 28 34  1  0
 29 30  2  0
 29 33  1  0
 30 31  1  0
 31 32  1  0
 32 33  2  0
 34 35  1  0
 36 37  1  0
 36 39  1  0
 37 38  1  0
 38 39  1  0
M  CHG  1  25   1
M  END
