
     RDKit          3D

 39 43  0  0  0  0  0  0  0  0999 V2000
   -4.8520   -7.7160    0.6760 C   0  0  0  0  0  0  0  0  0  0  0  0
   -5.4020   -6.4600    0.3430 O   0  0  0  0  0  0  0  0  0  0  0  0
   -4.6160   -5.3470    0.3560 C   0  0  0  0  0  0  0  0  0  0  0  0
   -3.2870   -5.4480    0.6940 C   0  0  0  0  0  0  0  0  0  0  0  0
   -2.4640   -4.3140    0.7120 C   0  0  0  0  0  0  0  0  0  0  0  0
   -2.9420   -3.0670    0.3980 C   0  0  0  0  0  0  0  0  0  0  0  0
   -2.1360   -1.8520    0.3980 C   0  0  0  0  0  0  0  0  0  0  0  0
   -0.8070   -1.8790    0.7280 C   0  0  0  0  0  0  0  0  0  0  0  0
   -0.0110   -0.7230    0.7340 C   0  0  0  0  0  0  0  0  0  0  0  0
    1.3600   -0.7770    1.0860 N   0  0  0  0  0  0  0  0  0  0  0  0
    2.1520    0.4070    1.0580 C   0  0  2  0  0  0  0  0  0  0  0  0
    2.2070    0.9190   -0.3660 C   0  0  0  0  0  0  0  0  0  0  0  0
    3.1110   -0.1700   -0.9680 C   0  0  0  0  0  0  0  0  0  0  0  0
    4.0040   -0.5310    0.0160 O   0  0  0  0  0  0  0  0  0  0  0  0
    3.6100   -0.0120    1.2130 C   0  0  1  0  0  0  0  0  0  0  0  0
    4.3800    1.1660    1.7110 C   0  0  0  0  0  0  0  0  0  0  0  0
    5.7680    0.9730    1.9460 N   0  0  0  0  0  0  0  0  0  0  0  0
    6.5010    0.7700    0.7400 C   0  0  0  0  0  0  0  0  0  0  0  0
    8.0040    0.6140    1.0330 C   0  0  0  0  0  0  0  0  0  0  0  0
    8.6910    0.4020   -0.2770 C   0  0  0  0  0  0  0  0  0  0  0  0
   10.1200    0.2440   -0.1180 N   0  0  0  0  0  0  0  0  0  0  0  0
   -0.6480    0.4080    0.3930 N   0  0  0  0  0  0  0  0  0  0  0  0
   -1.9440    0.4820    0.0630 C   0  0  0  0  0  0  0  0  0  0  0  0
   -2.5440    1.7740   -0.2920 C   0  0  0  0  0  0  0  0  0  0  0  0
   -3.8510    1.8840   -0.6400 C   0  0  0  0  0  0  0  0  0  0  0  0
   -4.3820    3.1170   -0.9680 C   0  0  0  0  0  0  0  0  0  0  0  0
   -3.5750    4.2470   -0.9410 C   0  0  0  0  0  0  0  0  0  0  0  0
   -4.0700    5.5240   -1.2690 N   0  0  0  0  0  0  0  0  0  0  0  0
   -5.3500    5.8840   -1.1940 C   0  0  0  0  0  0  0  0  0  0  0  0
   -5.4510    7.2010   -1.5930 C   0  0  0  0  0  0  0  0  0  0  0  0
   -4.1780    7.6140   -1.9090 C   0  0  0  0  0  0  0  0  0  0  0  0
   -3.3790    6.5650   -1.6970 N   0  0  0  0  0  0  0  0  0  0  0  0
   -2.2450    4.1430   -0.5890 C   0  0  0  0  0  0  0  0  0  0  0  0
   -1.7590    2.9050   -0.2710 C   0  0  0  0  0  0  0  0  0  0  0  0
   -2.6580   -0.6530    0.0740 N   0  0  0  0  0  0  0  0  0  0  0  0
   -4.2940   -2.9800    0.0560 C   0  0  0  0  0  0  0  0  0  0  0  0
   -5.1010   -4.0970    0.0390 C   0  0  0  0  0  0  0  0  0  0  0  0
   -6.4270   -3.9920   -0.2990 O   0  0  0  0  0  0  0  0  0  0  0  0
   -6.9850   -2.7310   -0.6340 C   0  0  0  0  0  0  0  0  0  0  0  0
  1  2  1  0
  2  3  1  0
  3  4  2  0
  3 37  1  0
  4  5  1  0
  5  6  2  0
  6  7  1  0
  6 36  1  0
  7  8  2  0
  7 35  1  0
  8  9  1  0
  9 10  1  0
  9 22  2  0
 11 10  1  6
 11 12  1  0
 11 15  1  0
 12 13  1  0
 13 14  1  0
 14 15  1  0
 15 16  1  6
 16 17  1  0
 17 18  1  0
 18 19  1  0
 19 20  1  0
 20 21  1  0
 22 23  1  0
 23 24  1  0
 23 35  2  0
 24 25  2  0
 24 34  1  0
 25 26  1  0
 26 27  2  0
 27 28  1  0
 27 33  1  0
 28 29  1  0
 28 32  1  0
 29 30  2  0
 30 31  1  0
 31 32  2  0
 33 34  2  0
 36 37  2  0
 37 38  1  0
 38 39  1  0
M  CHG  1  21   1
M  END
