
     RDKit          3D

 20 22  0  0  0  0  0  0  0  0999 V2000
   -1.5320    0.4370   -2.2090 C   0  0  0  0  0  0  0  0  0  0  0  0
   -1.3930    0.6350   -0.7340 C   0  0  1  0  0  0  0  0  0  0  0  0
   -2.7600    0.5920   -0.1260 C   0  0  0  0  0  0  0  0  0  0  0  0
   -3.2880    1.5890    0.5490 C   0  0  0  0  0  0  0  0  0  0  0  0
   -4.6270    1.5850    1.1610 C   0  0  0  0  0  0  0  0  0  0  0  0
   -5.2850    0.3750    0.9380 O   0  0  0  0  0  0  0  0  0  0  0  0
   -4.7680   -0.6980    0.2350 C   0  0  0  0  0  0  0  0  0  0  0  0
   -3.5610   -0.6130   -0.2820 C   0  0  0  0  0  0  0  0  0  0  0  0
   -0.4790   -0.2800   -0.0900 N   0  0  1  0  0  0  0  0  0  0  0  0
   -0.0000   -1.2340   -1.0250 C   0  0  0  0  0  0  0  0  0  0  0  0
    0.9760   -2.2270   -0.4850 C   0  0  0  0  0  0  0  0  0  0  0  0
    2.4140   -1.7870   -0.5910 C   0  0  0  0  0  0  0  0  0  0  0  0
    2.7330   -0.5600    0.1980 C   0  0  2  0  0  0  0  0  0  0  0  0
    3.2070    0.5490   -0.6660 C   0  0  0  0  0  0  0  0  0  0  0  0
    4.1010    1.3490    0.2580 C   0  0  0  0  0  0  0  0  0  0  0  0
    4.6780    0.2730    1.0970 C   0  0  0  0  0  0  0  0  0  0  0  0
    5.7030    0.3670    1.8060 O   0  0  0  0  0  0  0  0  0  0  0  0
    3.9030   -0.8660    0.9780 O   0  0  0  0  0  0  0  0  0  0  0  0
    1.6580   -0.2010    1.1650 C   0  0  0  0  0  0  0  0  0  0  0  0
    0.4780    0.4770    0.6220 C   0  0  0  0  0  0  0  0  0  0  0  0
  2  1  1  6
  2  3  1  0
  2  9  1  0
  3  4  2  0
  3  8  1  0
  4  5  1  0
  5  6  1  0
  6  7  1  0
  7  8  2  0
  9 10  1  6
  9 20  1  0
 10 11  1  0
 11 12  1  0
 13 12  1  6
 13 14  1  0
 13 18  1  0
 13 19  1  0
 14 15  1  0
 15 16  1  0
 16 17  2  0
 16 18  1  0
 19 20  1  0
M  CHG  1   9   1
M  END
