
     RDKit          3D

 25 27  0  0  0  0  0  0  0  0999 V2000
   -6.2160    2.8410    0.1470 C   0  0  0  0  0  0  0  0  0  0  0  0
   -4.7660    2.8710   -0.0880 C   0  0  0  0  0  0  0  0  0  0  0  0
   -3.9770    1.8630   -0.2510 C   0  0  0  0  0  0  0  0  0  0  0  0
   -4.3400    0.4680   -0.2410 C   0  0  0  0  0  0  0  0  0  0  0  0
   -5.5670   -0.1140   -0.0620 C   0  0  0  0  0  0  0  0  0  0  0  0
   -5.4010   -1.4980   -0.1370 C   0  0  0  0  0  0  0  0  0  0  0  0
   -4.0720   -1.6740   -0.3590 C   0  0  0  0  0  0  0  0  0  0  0  0
   -3.3790   -3.0030   -0.5180 C   0  0  0  0  0  0  0  0  0  0  0  0
   -3.4030   -0.5220   -0.4280 N   0  0  0  0  0  0  0  0  0  0  0  0
   -1.9930   -0.3370   -0.6500 C   0  0  0  0  0  0  0  0  0  0  0  0
   -1.5260    0.1070   -1.8680 C   0  0  0  0  0  0  0  0  0  0  0  0
   -0.1850    0.2870   -2.0900 C   0  0  0  0  0  0  0  0  0  0  0  0
    0.7910    0.0360   -1.1060 C   0  0  0  0  0  0  0  0  0  0  0  0
    2.1410    0.2570   -1.4430 N   0  0  0  0  0  0  0  0  0  0  0  0
    3.2780    0.0290   -0.5850 C   0  0  0  0  0  0  0  0  0  0  0  0
    3.0550   -0.3950    0.5400 O   0  0  0  0  0  0  0  0  0  0  0  0
    4.5940    0.2990   -1.0620 C   0  0  0  0  0  0  0  0  0  0  0  0
    5.7560    0.1980   -0.5460 C   0  0  0  0  0  0  0  0  0  0  0  0
    6.3300   -0.2180    0.7180 C   0  0  0  0  0  0  0  0  0  0  0  0
    7.6550   -0.2160    0.9810 C   0  0  0  0  0  0  0  0  0  0  0  0
    7.8880   -0.6930    2.3440 C   0  0  0  0  0  0  0  0  0  0  0  0
    6.6150   -0.9750    2.8630 N   0  0  0  0  0  0  0  0  0  0  0  0
    5.7320   -0.7060    1.9430 C   0  0  0  0  0  0  0  0  0  0  0  0
    0.2890   -0.4020    0.0850 C   0  0  0  0  0  0  0  0  0  0  0  0
   -1.0690   -0.5880    0.3230 C   0  0  0  0  0  0  0  0  0  0  0  0
  1  2  1  0
  2  3  2  3
  3  4  1  0
  4  5  2  0
  4  9  1  0
  5  6  1  0
  6  7  2  0
  7  8  1  0
  7  9  1  0
  9 10  1  0
 10 11  2  0
 10 25  1  0
 11 12  1  0
 12 13  2  0
 13 14  1  0
 13 24  1  0
 14 15  1  0
 15 16  2  0
 15 17  1  0
 17 18  2  3
 18 19  1  0
 19 20  2  0
 19 23  1  0
 20 21  1  0
 21 22  1  0
 22 23  2  0
 24 25  2  0
M  END
