
     RDKit          3D

 20 22  0  0  0  0  0  0  0  0999 V2000
    4.8990    1.2290    0.3320 C   0  0  0  0  0  0  0  0  0  0  0  0
    5.5420    0.0290    0.9690 C   0  0  0  0  0  0  0  0  0  0  0  0
    4.6430   -0.4230    1.9620 O   0  0  0  0  0  0  0  0  0  0  0  0
    3.9730   -1.4970    1.4320 C   0  0  0  0  0  0  0  0  0  0  0  0
    2.9540   -1.1140    0.3790 C   0  0  1  0  0  0  0  0  0  0  0  0
    1.7550   -0.4390    1.0000 C   0  0  0  0  0  0  0  0  0  0  0  0
    0.6680   -0.2890    0.0500 N   0  0  1  0  0  0  0  0  0  0  0  0
   -0.0030   -1.5350   -0.0830 C   0  0  0  0  0  0  0  0  0  0  0  0
   -1.4210   -1.5500    0.3840 C   0  0  0  0  0  0  0  0  0  0  0  0
   -2.3780   -0.8790   -0.5760 C   0  0  0  0  0  0  0  0  0  0  0  0
   -2.5310    0.6080   -0.2690 C   0  0  1  0  0  0  0  0  0  0  0  0
   -3.4720    1.1720   -1.3090 C   0  0  0  0  0  0  0  0  0  0  0  0
   -4.8920    1.2330   -0.8600 C   0  0  0  0  0  0  0  0  0  0  0  0
   -5.2280    0.3050    0.2620 C   0  0  0  0  0  0  0  0  0  0  0  0
   -4.1300    0.1150    1.2560 C   0  0  0  0  0  0  0  0  0  0  0  0
   -2.9960    0.8410    1.0030 O   0  0  0  0  0  0  0  0  0  0  0  0
   -1.1740    1.2320   -0.5100 C   0  0  0  0  0  0  0  0  0  0  0  0
   -0.1580    0.7970    0.5140 C   0  0  0  0  0  0  0  0  0  0  0  0
    3.4840   -0.4430   -0.6880 O   0  0  0  0  0  0  0  0  0  0  0  0
    3.7020    0.8920   -0.5090 C   0  0  0  0  0  0  0  0  0  0  0  0
  1  2  1  0
  1 20  1  0
  2  3  1  0
  3  4  1  0
  4  5  1  0
  5  6  1  1
  5 19  1  0
  7  6  1  1
  7  8  1  0
  7 18  1  0
  8  9  1  0
  9 10  1  0
 11 10  1  6
 11 12  1  0
 11 16  1  0
 11 17  1  0
 12 13  1  0
 13 14  1  0
 14 15  1  0
 15 16  1  0
 17 18  1  0
 19 20  1  0
M  CHG  1   7   1
M  END
