
     RDKit          3D

 20 22  0  0  0  0  0  0  0  0999 V2000
    3.8660    0.5450    0.9790 C   0  0  0  0  0  0  0  0  0  0  0  0
    2.8590   -0.2410    0.1510 C   0  0  0  0  0  0  0  0  0  0  0  0
    2.6380   -1.5020    0.3910 C   0  0  0  0  0  0  0  0  0  0  0  0
    1.7720   -2.4900   -0.1990 C   0  0  0  0  0  0  0  0  0  0  0  0
    2.2290   -3.6660   -0.5200 O   0  0  0  0  0  0  0  0  0  0  0  0
    0.3800   -2.3520   -0.5050 C   0  0  2  0  0  0  0  0  0  0  0  0
   -0.2680   -1.4100    0.4700 C   0  0  0  0  0  0  0  0  0  0  0  0
   -1.5600   -1.0190   -0.2980 C   0  0  1  0  0  0  0  0  0  0  0  0
   -2.4360   -2.1290    0.0020 C   0  0  0  0  0  0  0  0  0  0  0  0
   -1.7220   -3.3640   -0.5870 C   0  0  0  0  0  0  0  0  0  0  0  0
   -0.4020   -3.4900   -0.3570 O   0  0  0  0  0  0  0  0  0  0  0  0
   -1.6790    0.3230   -0.0680 N   0  0  1  0  0  0  0  0  0  0  0  0
   -2.5030    1.2130   -0.7940 C   0  0  0  0  0  0  0  0  0  0  0  0
   -1.7540    2.5410   -0.9840 C   0  0  0  0  0  0  0  0  0  0  0  0
   -0.4810    2.6440   -0.1370 C   0  0  1  0  0  0  0  0  0  0  0  0
   -0.7590    2.1400    1.2110 C   0  0  0  0  0  0  0  0  0  0  0  0
   -1.5740    0.8400    1.2820 C   0  0  0  0  0  0  0  0  0  0  0  0
    0.6560    2.3500   -0.8080 O   0  0  0  0  0  0  0  0  0  0  0  0
    1.7850    1.9520   -0.2560 C   0  0  0  0  0  0  0  0  0  0  0  0
    2.2400    0.6250   -0.8960 C   0  0  0  0  0  0  0  0  0  0  0  0
  1  2  1  0
  2  3  2  0
  2 20  1  0
  3  4  1  0
  4  5  2  0
  4  6  1  0
  6  7  1  0
  6 11  1  1
  7  8  1  0
  8  9  1  1
  8 12  1  0
  9 10  1  0
 10 11  1  0
 12 13  1  0
 12 17  1  1
 13 14  1  0
 14 15  1  0
 15 16  1  1
 15 18  1  0
 16 17  1  0
 18 19  1  0
 19 20  1  0
M  CHG  1  12   1
M  END
