
     RDKit          3D

 17 17  0  0  0  0  0  0  0  0999 V2000
    5.5800    0.7310    0.1790 C   0  0  0  0  0  0  0  0  0  0  0  0
    4.9970   -0.6100   -0.1650 C   0  0  0  0  0  0  0  0  0  0  0  0
    3.5890   -0.5130   -0.0590 O   0  0  0  0  0  0  0  0  0  0  0  0
    2.7330   -1.5610   -0.3050 C   0  0  0  0  0  0  0  0  0  0  0  0
    3.2510   -2.6570   -0.6430 O   0  0  0  0  0  0  0  0  0  0  0  0
    1.2750   -1.3650   -0.1680 C   0  0  0  0  0  0  0  0  0  0  0  0
    0.9430    0.3250    0.3260 S   0  0  0  0  0  0  0  0  0  0  0  0
   -0.7880    0.6480    0.5140 C   0  0  0  0  0  0  0  0  0  0  0  0
   -1.7190   -0.3450    0.2880 C   0  0  0  0  0  0  0  0  0  0  0  0
   -3.0390   -0.0950    0.4320 N   0  0  0  0  0  0  0  0  0  0  0  0
   -3.9480   -1.1990    0.1730 C   0  0  0  0  0  0  0  0  0  0  0  0
   -4.3750   -1.2490   -1.2660 C   0  0  0  0  0  0  0  0  0  0  0  0
   -3.4870    1.1270    0.8010 C   0  0  0  0  0  0  0  0  0  0  0  0
   -4.7280    1.3110    0.9230 O   0  0  0  0  0  0  0  0  0  0  0  0
   -2.5540    2.1100    1.0250 C   0  0  0  0  0  0  0  0  0  0  0  0
   -1.1950    1.9050    0.8910 C   0  0  0  0  0  0  0  0  0  0  0  0
   -0.2270    2.9210    1.1220 N   0  0  0  0  0  0  0  0  0  0  0  0
  1  2  1  0
  2  3  1  0
  3  4  1  0
  4  5  2  0
  4  6  1  0
  6  7  1  0
  7  8  1  0
  8  9  2  0
  8 16  1  0
  9 10  1  0
 10 11  1  0
 10 13  1  0
 11 12  1  0
 13 14  2  0
 13 15  1  0
 15 16  2  0
 16 17  1  0
M  END
