
     RDKit          3D

 17 17  0  0  0  0  0  0  0  0999 V2000
   -4.2390   -0.9550   -0.5460 C   0  0  0  0  0  0  0  0  0  0  0  0
   -3.8940    0.1120    0.4670 C   0  0  1  0  0  0  0  0  0  0  0  0
   -5.1490    0.6620    1.0530 C   0  0  0  0  0  0  0  0  0  0  0  0
   -3.1690   -0.4690    1.5190 O   0  0  0  0  0  0  0  0  0  0  0  0
   -3.1200    1.2250   -0.1900 C   0  0  0  0  0  0  0  0  0  0  0  0
   -1.5900    0.7610   -0.8490 S   0  0  2  0  0  0  0  0  0  0  0  0
   -0.9190    2.0150   -1.4300 O   0  0  0  0  0  0  0  0  0  0  0  0
   -1.6150   -0.2360   -1.9230 O   0  0  0  0  0  0  0  0  0  0  0  0
   -0.4490    0.1930    0.4240 C   0  0  0  0  0  0  0  0  0  0  0  0
    0.7810   -0.1900   -0.3270 C   0  0  0  0  0  0  0  0  0  0  0  0
    1.9810   -0.4420    0.4790 N   0  0  0  0  0  0  0  0  0  0  0  0
    2.9660   -1.0730   -0.4140 C   0  0  0  0  0  0  0  0  0  0  0  0
    4.2750   -0.4490   -0.2560 C   0  0  0  0  0  0  0  0  0  0  0  0
    4.7890    0.3670    0.6820 C   0  0  0  0  0  0  0  0  0  0  0  0
    6.0700    0.7960    0.2650 C   0  0  0  0  0  0  0  0  0  0  0  0
    6.2540    0.1980   -0.9400 C   0  0  0  0  0  0  0  0  0  0  0  0
    5.2030   -0.5450   -1.2600 N   0  0  0  0  0  0  0  0  0  0  0  0
  2  1  1  6
  2  3  1  0
  2  4  1  0
  2  5  1  0
  6  5  1  1
  6  7  2  0
  6  8  2  0
  6  9  1  0
  9 10  1  0
 10 11  1  0
 11 12  1  0
 12 13  1  0
 13 14  2  0
 13 17  1  0
 14 15  1  0
 15 16  2  0
 16 17  1  0
M  END
