
     RDKit          3D

 17 17  0  0  0  0  0  0  0  0999 V2000
    4.9640    1.1240   -2.5410 N   0  0  0  0  0  0  0  0  0  0  0  0
    4.1960    0.1000   -1.9000 C   0  0  0  0  0  0  0  0  0  0  0  0
    3.3200   -0.5150   -2.5430 O   0  0  0  0  0  0  0  0  0  0  0  0
    4.4330   -0.2340   -0.4920 C   0  0  0  0  0  0  0  0  0  0  0  0
    3.4420   -1.1890    0.0990 C   0  0  0  0  0  0  0  0  0  0  0  0
    2.0510   -0.5990    0.0700 C   0  0  0  0  0  0  0  0  0  0  0  0
    1.0810   -1.5640    0.6630 C   0  0  0  0  0  0  0  0  0  0  0  0
    1.4540   -2.6760    1.0880 O   0  0  0  0  0  0  0  0  0  0  0  0
   -0.3210   -1.2350    0.7610 N   0  0  0  0  0  0  0  0  0  0  0  0
   -1.2420   -2.1440    1.3190 C   0  0  0  0  0  0  0  0  0  0  0  0
   -0.7680   -3.2510    1.7140 O   0  0  0  0  0  0  0  0  0  0  0  0
   -2.9280   -1.8290    1.4860 S   0  0  0  0  0  0  0  0  0  0  0  0
   -3.5780   -0.2590    1.0350 C   0  0  2  0  0  0  0  0  0  0  0  0
   -3.4940    0.1270   -0.4110 C   0  0  0  0  0  0  0  0  0  0  0  0
   -3.7680    1.6240   -0.3880 C   0  0  0  0  0  0  0  0  0  0  0  0
   -3.8660    2.0390    1.0590 C   0  0  0  0  0  0  0  0  0  0  0  0
   -3.0220    0.9430    1.7350 C   0  0  0  0  0  0  0  0  0  0  0  0
  1  2  1  0
  2  3  2  0
  2  4  1  0
  4  5  1  0
  5  6  1  0
  6  7  1  0
  7  8  2  0
  7  9  1  0
  9 10  1  0
 10 11  2  0
 10 12  1  0
 13 12  1  6
 13 14  1  0
 13 17  1  0
 14 15  1  0
 15 16  1  0
 16 17  1  0
M  END
