
     RDKit          3D

 17 17  0  0  0  0  0  0  0  0999 V2000
   -3.6560    2.0320   -0.6970 C   0  0  0  0  0  0  0  0  0  0  0  0
   -2.3990    1.2320   -0.5350 C   0  0  0  0  0  0  0  0  0  0  0  0
   -1.2540    1.8190   -0.2750 C   0  0  0  0  0  0  0  0  0  0  0  0
   -0.0100    1.1050   -0.1070 C   0  0  0  0  0  0  0  0  0  0  0  0
   -0.0060   -0.1580   -0.2110 O   0  0  0  0  0  0  0  0  0  0  0  0
    1.1810    1.8220    0.1690 N   0  0  0  0  0  0  0  0  0  0  0  0
    2.3760    1.0580    0.3230 C   0  0  0  0  0  0  0  0  0  0  0  0
    3.6420    1.4590    0.5870 C   0  0  0  0  0  0  0  0  0  0  0  0
    4.5980    0.5100    0.6830 C   0  0  0  0  0  0  0  0  0  0  0  0
    4.2720   -0.7690    0.5180 C   0  0  0  0  0  0  0  0  0  0  0  0
    5.0760   -2.0210    0.5600 C   0  0  0  0  0  0  0  0  0  0  0  0
    2.5210   -0.6980    0.2050 S   0  0  0  0  0  0  0  0  0  0  0  0
   -2.4200   -0.1820   -0.6690 N   0  0  0  0  0  0  0  0  0  0  0  0
   -3.2170   -0.9390    0.2340 C   0  0  0  0  0  0  0  0  0  0  0  0
   -3.8700   -0.3210    1.1130 O   0  0  0  0  0  0  0  0  0  0  0  0
   -3.2720   -2.4420    0.1330 C   0  0  0  0  0  0  0  0  0  0  0  0
   -4.1000   -2.9670    1.0990 O   0  0  0  0  0  0  0  0  0  0  0  0
  1  2  1  0
  2  3  2  3
  2 13  1  0
  3  4  1  0
  4  5  2  0
  4  6  1  0
  6  7  1  0
  7  8  2  0
  7 12  1  0
  8  9  1  0
  9 10  2  0
 10 11  1  0
 10 12  1  0
 13 14  1  0
 14 15  2  0
 14 16  1  0
 16 17  1  0
M  END
