
     RDKit          3D

 17 17  0  0  0  0  0  0  0  0999 V2000
   -4.7810    0.1970   -2.1990 C   0  0  0  0  0  0  0  0  0  0  0  0
   -4.3440    0.1610   -0.9280 C   0  0  0  0  0  0  0  0  0  0  0  0
   -4.5540   -1.1060   -0.1820 C   0  0  0  0  0  0  0  0  0  0  0  0
   -3.7320    1.3820   -0.3790 C   0  0  0  0  0  0  0  0  0  0  0  0
   -2.2750    1.2720   -0.0470 C   0  0  0  0  0  0  0  0  0  0  0  0
   -1.9540    0.2310    0.9740 C   0  0  0  0  0  0  0  0  0  0  0  0
   -0.5340    0.2440    1.2450 N   0  0  0  0  0  0  0  0  0  0  0  0
    0.4350   -0.0300    0.2550 C   0  0  0  0  0  0  0  0  0  0  0  0
    0.1190   -0.3100   -0.9200 O   0  0  0  0  0  0  0  0  0  0  0  0
    1.8130    0.0190    0.6200 N   0  0  0  0  0  0  0  0  0  0  0  0
    2.8500   -0.2470   -0.3300 C   0  0  2  0  0  0  0  0  0  0  0  0
    3.6560   -1.4540    0.0420 C   0  0  0  0  0  0  0  0  0  0  0  0
    4.5940   -1.0530    1.1500 C   0  0  0  0  0  0  0  0  0  0  0  0
    5.1910    0.5110    0.4870 S   0  0  1  0  0  0  0  0  0  0  0  0
    5.3990    1.5170    1.5530 O   0  0  0  0  0  0  0  0  0  0  0  0
    6.3940    0.2720   -0.3560 O   0  0  0  0  0  0  0  0  0  0  0  0
    3.7670    0.9020   -0.5380 C   0  0  0  0  0  0  0  0  0  0  0  0
  1  2  2  0
  2  3  1  0
  2  4  1  0
  4  5  1  0
  5  6  1  0
  6  7  1  0
  7  8  1  0
  8  9  2  0
  8 10  1  0
 11 10  1  1
 11 12  1  0
 11 17  1  0
 12 13  1  0
 14 13  1  1
 14 15  2  0
 14 16  2  0
 14 17  1  0
M  END
