
     RDKit          3D

 17 17  0  0  0  0  0  0  0  0999 V2000
   -6.5030   -0.1370    0.4860 C   0  0  0  0  0  0  0  0  0  0  0  0
   -5.0360   -0.3950    0.8130 C   0  0  0  0  0  0  0  0  0  0  0  0
   -4.1770    0.6820    0.1990 C   0  0  0  0  0  0  0  0  0  0  0  0
   -2.7360    0.4360    0.5420 C   0  0  0  0  0  0  0  0  0  0  0  0
   -2.2980   -0.8830    0.0170 C   0  0  0  0  0  0  0  0  0  0  0  0
   -0.8440   -1.1870    0.3090 C   0  0  0  0  0  0  0  0  0  0  0  0
    0.0480   -0.2270   -0.2620 N   0  0  0  0  0  0  0  0  0  0  0  0
    1.4620   -0.4330   -0.0370 C   0  0  0  0  0  0  0  0  0  0  0  0
    1.8000   -1.4180    0.6290 O   0  0  0  0  0  0  0  0  0  0  0  0
    2.4250    0.4420   -0.5470 N   0  0  0  0  0  0  0  0  0  0  0  0
    3.8520    0.3300   -0.3830 C   0  0  0  0  0  0  0  0  0  0  0  0
    4.4870   -0.5780    0.2510 C   0  0  0  0  0  0  0  0  0  0  0  0
    5.9680   -0.5030    0.2960 C   0  0  0  0  0  0  0  0  0  0  0  0
    6.1980    1.2320   -0.0350 S   0  0  1  0  0  0  0  0  0  0  0  0
    6.1280    2.0580    1.1990 O   0  0  0  0  0  0  0  0  0  0  0  0
    7.4190    1.4910   -0.8580 O   0  0  0  0  0  0  0  0  0  0  0  0
    4.7060    1.4010   -1.0270 C   0  0  0  0  0  0  0  0  0  0  0  0
  1  2  1  0
  2  3  1  0
  3  4  1  0
  4  5  1  0
  5  6  1  0
  6  7  1  0
  7  8  1  0
  8  9  2  0
  8 10  1  0
 10 11  1  0
 11 12  2  0
 11 17  1  0
 12 13  1  0
 14 13  1  1
 14 15  2  0
 14 16  2  0
 14 17  1  0
M  END
