
     RDKit          3D

 13 13  0  0  0  0  0  0  0  0999 V2000
   -3.5770   -0.5000    1.7140 O   0  0  0  0  0  0  0  0  0  0  0  0
   -3.5430   -0.2800    0.4900 N   0  0  0  0  0  0  0  0  0  0  0  0
   -4.7200   -0.2100   -0.2260 O   0  0  0  0  0  0  0  0  0  0  0  0
   -2.2580   -0.1020   -0.1540 C   0  0  0  0  0  0  0  0  0  0  0  0
   -1.1870   -0.2350    0.8730 C   0  0  0  0  0  0  0  0  0  0  0  0
    0.1760   -0.0740    0.3430 C   0  0  0  0  0  0  0  0  0  0  0  0
    1.0020   -1.1570    0.1400 C   0  0  0  0  0  0  0  0  0  0  0  0
    2.2930   -0.9870   -0.3640 C   0  0  0  0  0  0  0  0  0  0  0  0
    3.0950   -2.0900   -0.5550 O   0  0  0  0  0  0  0  0  0  0  0  0
    2.7730    0.2680   -0.6710 C   0  0  0  0  0  0  0  0  0  0  0  0
    1.9600    1.3470   -0.4730 C   0  0  0  0  0  0  0  0  0  0  0  0
    0.6680    1.1700    0.0320 C   0  0  0  0  0  0  0  0  0  0  0  0
   -0.1800    2.2480    0.2420 O   0  0  0  0  0  0  0  0  0  0  0  0
  1  2  2  0
  2  3  1  0
  2  4  1  0
  4  5  1  0
  5  6  1  0
  6  7  2  0
  6 12  1  0
  7  8  1  0
  8  9  1  0
  8 10  2  0
 10 11  1  0
 11 12  2  0
 12 13  1  0
M  CHG  2   2   1   3  -1
M  END
