
     RDKit          3D

 13 13  0  0  0  0  0  0  0  0999 V2000
    3.6380   -0.5210    0.3620 C   0  0  0  0  0  0  0  0  0  0  0  0
    2.3190   -0.9890    0.4490 O   0  0  0  0  0  0  0  0  0  0  0  0
    1.2200   -0.1900    0.1270 C   0  0  0  0  0  0  0  0  0  0  0  0
    1.4500    1.1050   -0.2920 C   0  0  0  0  0  0  0  0  0  0  0  0
    0.3370    1.8720   -0.6050 C   0  0  0  0  0  0  0  0  0  0  0  0
   -0.9470    1.3620   -0.5020 C   0  0  0  0  0  0  0  0  0  0  0  0
   -2.0260    2.1610   -0.8230 O   0  0  0  0  0  0  0  0  0  0  0  0
   -1.1670    0.0700   -0.0830 C   0  0  0  0  0  0  0  0  0  0  0  0
   -2.5680   -0.4690    0.0260 C   0  0  0  0  0  0  0  0  0  0  0  0
   -2.6050   -1.8280    0.4710 N   0  0  0  0  0  0  0  0  0  0  0  0
   -3.2030   -2.0860    1.5560 O   0  0  0  0  0  0  0  0  0  0  0  0
   -2.0490   -2.8900   -0.1730 O   0  0  0  0  0  0  0  0  0  0  0  0
   -0.0630   -0.6950    0.2280 C   0  0  0  0  0  0  0  0  0  0  0  0
  1  2  1  0
  2  3  1  0
  3  4  2  0
  3 13  1  0
  4  5  1  0
  5  6  2  0
  6  7  1  0
  6  8  1  0
  8  9  1  0
  8 13  2  0
  9 10  1  0
 10 11  2  0
 10 12  1  0
M  CHG  2  10   1  12  -1
M  END
