
     RDKit          3D

 13 13  0  0  0  0  0  0  0  0999 V2000
    0.8200   -0.1730    1.0950 O   0  0  0  0  0  0  0  0  0  0  0  0
    1.0800   -0.4860   -0.0860 C   0  0  0  0  0  0  0  0  0  0  0  0
    2.3990   -0.8340   -0.6390 C   0  0  0  0  0  0  0  0  0  0  0  0
    3.5290   -0.7160    0.3210 C   0  0  0  0  0  0  0  0  0  0  0  0
    3.7500    0.6130    0.8070 N   0  0  0  0  0  0  0  0  0  0  0  0
    4.8530    1.2100    0.5850 O   0  0  0  0  0  0  0  0  0  0  0  0
    2.8220    1.3020    1.5170 O   0  0  0  0  0  0  0  0  0  0  0  0
   -0.0300   -0.4960   -0.9560 O   0  0  0  0  0  0  0  0  0  0  0  0
   -1.2860   -0.1680   -0.4560 C   0  0  0  0  0  0  0  0  0  0  0  0
   -2.1770   -0.9850    0.0740 C   0  0  0  0  0  0  0  0  0  0  0  0
   -3.3970   -0.1980    0.4800 C   0  0  0  0  0  0  0  0  0  0  0  0
   -3.3100    0.9680   -0.5210 C   0  0  0  0  0  0  0  0  0  0  0  0
   -1.8200    1.2140   -0.4530 C   0  0  0  0  0  0  0  0  0  0  0  0
  1  2  2  0
  2  3  1  0
  2  8  1  0
  3  4  1  0
  4  5  1  0
  5  6  2  0
  5  7  1  0
  8  9  1  0
  9 10  2  0
  9 13  1  0
 10 11  1  0
 11 12  1  0
 12 13  1  0
M  CHG  2   5   1   7  -1
M  END
