
     RDKit          3D

 13 13  0  0  0  0  0  0  0  0999 V2000
    2.4420   -2.3770    0.7440 C   0  0  0  0  0  0  0  0  0  0  0  0
    1.5260   -1.5030    1.3260 O   0  0  0  0  0  0  0  0  0  0  0  0
    0.6760   -0.6720    0.6150 C   0  0  0  0  0  0  0  0  0  0  0  0
    0.6440   -0.6210   -0.7560 C   0  0  0  0  0  0  0  0  0  0  0  0
   -0.2210    0.2230   -1.4170 C   0  0  0  0  0  0  0  0  0  0  0  0
   -0.2300    0.2520   -2.8120 O   0  0  0  0  0  0  0  0  0  0  0  0
   -1.0990    1.0600   -0.7490 C   0  0  0  0  0  0  0  0  0  0  0  0
   -2.0050    1.9430   -1.5240 C   0  0  0  0  0  0  0  0  0  0  0  0
   -1.0630    1.0040    0.6270 C   0  0  0  0  0  0  0  0  0  0  0  0
   -0.1950    0.1580    1.2880 C   0  0  0  0  0  0  0  0  0  0  0  0
   -0.1980    0.1400    2.7000 N   0  0  0  0  0  0  0  0  0  0  0  0
    0.0670   -0.9040    3.2870 O   0  0  0  0  0  0  0  0  0  0  0  0
   -0.4930    1.2740    3.4170 O   0  0  0  0  0  0  0  0  0  0  0  0
  1  2  1  0
  2  3  1  0
  3  4  2  0
  3 10  1  0
  4  5  1  0
  5  6  1  0
  5  7  2  0
  7  8  1  0
  7  9  1  0
  9 10  2  0
 10 11  1  0
 11 12  2  0
 11 13  1  0
M  CHG  2  11   1  13  -1
M  END
