
     RDKit          3D

 19 21  0  0  0  0  0  0  0  0999 V2000
    5.3650    0.3100    1.1080 O   0  0  0  0  0  0  0  0  0  0  0  0
    4.3390    0.7140    0.5280 C   0  0  0  0  0  0  0  0  0  0  0  0
    4.4080    1.8710   -0.1680 N   0  0  0  0  0  0  0  0  0  0  0  0
    3.3190    2.3310   -0.8040 C   0  0  0  0  0  0  0  0  0  0  0  0
    2.1530    1.6410   -0.7500 N   0  0  0  0  0  0  0  0  0  0  0  0
    2.0490    0.4780   -0.0620 C   0  0  0  0  0  0  0  0  0  0  0  0
    1.0200   -0.4090    0.1430 C   0  0  0  0  0  0  0  0  0  0  0  0
   -0.3330   -0.2970   -0.3590 C   0  0  2  0  0  0  0  0  0  0  0  0
   -1.2680    0.3890    0.5550 N   0  0  0  0  0  0  0  0  0  0  0  0
   -2.4710    0.2410   -0.2440 C   0  0  2  0  0  0  0  0  0  0  0  0
   -3.7220    0.7560    0.3980 C   0  0  0  0  0  0  0  0  0  0  0  0
   -3.5510    2.1140    0.6470 O   0  0  0  0  0  0  0  0  0  0  0  0
   -2.5060   -1.2600   -0.4450 C   0  0  1  0  0  0  0  0  0  0  0  0
   -3.0540   -1.5790   -1.6860 O   0  0  0  0  0  0  0  0  0  0  0  0
   -1.0560   -1.6640   -0.3620 C   0  0  1  0  0  0  0  0  0  0  0  0
   -0.6540   -2.3860   -1.4940 O   0  0  0  0  0  0  0  0  0  0  0  0
    1.5210   -1.4170    0.9280 C   0  0  0  0  0  0  0  0  0  0  0  0
    2.8130   -1.1530    1.1860 N   0  0  0  0  0  0  0  0  0  0  0  0
    3.1660    0.0120    0.5870 C   0  0  0  0  0  0  0  0  0  0  0  0
  1  2  2  0
  2  3  1  0
  2 19  1  0
  3  4  1  0
  4  5  2  0
  5  6  1  0
  6  7  1  0
  6 19  2  0
  8  7  1  1
  7 17  2  0
  8  9  1  0
  8 15  1  0
  9 10  1  0
 10 11  1  1
 10 13  1  0
 11 12  1  0
 13 14  1  6
 13 15  1  0
 15 16  1  6
 17 18  1  0
 18 19  1  0
M  CHG  1   9   1
M  END
