
     RDKit          3D

 26 28  0  0  0  0  0  0  0  0999 V2000
    7.7830   -1.7990   -0.4570 O   0  0  0  0  0  0  0  0  0  0  0  0
    7.1710   -1.3360    0.5300 C   0  0  0  0  0  0  0  0  0  0  0  0
    7.4080   -1.8820    1.7760 O   0  0  0  0  0  0  0  0  0  0  0  0
    6.2070   -0.2240    0.3950 C   0  0  0  0  0  0  0  0  0  0  0  0
    6.1420    0.1620   -0.9960 N   0  0  0  0  0  0  0  0  0  0  0  0
    5.0280    1.4650   -1.2380 S   0  0  2  0  0  0  0  0  0  0  0  0
    5.0500    1.9480   -2.6490 O   0  0  0  0  0  0  0  0  0  0  0  0
    5.4810    2.5970   -0.3550 O   0  0  0  0  0  0  0  0  0  0  0  0
    3.4180    0.9280   -0.7540 C   0  0  0  0  0  0  0  0  0  0  0  0
    2.5710    0.3360   -1.6580 C   0  0  0  0  0  0  0  0  0  0  0  0
    1.3080   -0.0830   -1.2740 C   0  0  0  0  0  0  0  0  0  0  0  0
    0.8170    0.0570    0.0150 C   0  0  0  0  0  0  0  0  0  0  0  0
   -0.4600   -0.3890    0.3910 N   0  0  0  0  0  0  0  0  0  0  0  0
   -1.1540   -1.3930   -0.3590 C   0  0  0  0  0  0  0  0  0  0  0  0
   -2.5700   -0.9690   -0.7030 C   0  0  0  0  0  0  0  0  0  0  0  0
   -3.2760   -0.4010    0.5130 C   0  0  2  0  0  0  0  0  0  0  0  0
   -4.6700   -0.0600    0.2570 C   0  0  0  0  0  0  0  0  0  0  0  0
   -5.6850   -0.6680    0.9480 C   0  0  0  0  0  0  0  0  0  0  0  0
   -7.0140   -0.3530    0.7140 C   0  0  0  0  0  0  0  0  0  0  0  0
   -7.3630    0.5910   -0.2290 C   0  0  0  0  0  0  0  0  0  0  0  0
   -6.3480    1.2090   -0.9290 C   0  0  0  0  0  0  0  0  0  0  0  0
   -5.0080    0.8830   -0.6860 C   0  0  0  0  0  0  0  0  0  0  0  0
   -2.4470    0.7670    0.9980 C   0  0  0  0  0  0  0  0  0  0  0  0
   -1.1420    0.1530    1.5390 C   0  0  0  0  0  0  0  0  0  0  0  0
    1.7080    0.6650    0.9090 C   0  0  0  0  0  0  0  0  0  0  0  0
    2.9670    1.0860    0.5350 C   0  0  0  0  0  0  0  0  0  0  0  0
  1  2  2  0
  2  3  1  0
  2  4  1  0
  4  5  1  0
  6  5  1  6
  6  7  2  0
  6  8  2  0
  6  9  1  0
  9 10  2  0
  9 26  1  0
 10 11  1  0
 11 12  2  0
 12 13  1  0
 12 25  1  0
 13 14  1  0
 13 24  1  0
 14 15  1  0
 15 16  1  0
 16 17  1  6
 16 23  1  0
 17 18  2  0
 17 22  1  0
 18 19  1  0
 19 20  2  0
 20 21  1  0
 21 22  2  0
 23 24  1  0
 25 26  2  0
M  END
