
     RDKit          3D

 28 32  0  0  0  0  0  0  0  0999 V2000
    7.5710   -1.7220   -1.1670 Cl  0  0  0  0  0  0  0  0  0  0  0  0
    7.0140   -0.2500   -0.3740 C   0  0  0  0  0  0  0  0  0  0  0  0
    7.9610    0.6710    0.0170 C   0  0  0  0  0  0  0  0  0  0  0  0
    7.5520    1.8410    0.6450 C   0  0  0  0  0  0  0  0  0  0  0  0
    6.2110    2.0800    0.8750 C   0  0  0  0  0  0  0  0  0  0  0  0
    5.3000    1.1330    0.4680 C   0  0  0  0  0  0  0  0  0  0  0  0
    3.9530    1.3320    0.6780 C   0  0  0  0  0  0  0  0  0  0  0  0
    3.0420    0.3570    0.2570 C   0  0  0  0  0  0  0  0  0  0  0  0
    1.7010    0.2790    0.3260 N   0  0  0  0  0  0  0  0  0  0  0  0
    1.2810   -0.8530   -0.2150 N   0  0  0  0  0  0  0  0  0  0  0  0
   -0.1060   -1.2260   -0.2920 C   0  0  0  0  0  0  0  0  0  0  0  0
   -0.5590   -2.1580   -1.1910 C   0  0  0  0  0  0  0  0  0  0  0  0
   -1.8960   -2.4960   -1.2410 C   0  0  0  0  0  0  0  0  0  0  0  0
   -2.8260   -1.9090   -0.3920 C   0  0  0  0  0  0  0  0  0  0  0  0
   -4.1990   -2.2560   -0.4370 N   0  0  0  0  0  0  0  0  0  0  0  0
   -5.1520   -1.5730    0.4030 C   0  0  0  0  0  0  0  0  0  0  0  0
   -5.2270   -0.1170    0.0800 C   0  0  0  0  0  0  0  0  0  0  0  0
   -6.0090    0.6990    0.8700 C   0  0  0  0  0  0  0  0  0  0  0  0
   -6.1400    2.0600    0.6430 C   0  0  0  0  0  0  0  0  0  0  0  0
   -5.4600    2.6190   -0.4160 C   0  0  0  0  0  0  0  0  0  0  0  0
   -4.6890    1.7740   -1.1840 C   0  0  0  0  0  0  0  0  0  0  0  0
   -4.5770    0.4550   -0.9430 N   0  0  0  0  0  0  0  0  0  0  0  0
   -2.3850   -0.9710    0.5140 C   0  0  0  0  0  0  0  0  0  0  0  0
   -1.0300   -0.6430    0.5510 C   0  0  0  0  0  0  0  0  0  0  0  0
    2.3350   -1.5010   -0.6310 N   0  0  0  0  0  0  0  0  0  0  0  0
    3.4540   -0.8030   -0.3670 C   0  0  0  0  0  0  0  0  0  0  0  0
    4.7720   -0.9690   -0.5580 N   0  0  0  0  0  0  0  0  0  0  0  0
    5.6710   -0.0490   -0.1630 C   0  0  0  0  0  0  0  0  0  0  0  0
  1  2  1  0
  2  3  2  0
  2 28  1  0
  3  4  1  0
  4  5  2  0
  5  6  1  0
  6  7  2  0
  6 28  1  0
  7  8  1  0
  8  9  2  0
  8 26  1  0
  9 10  1  0
 10 11  1  0
 10 25  1  0
 11 12  2  0
 11 24  1  0
 12 13  1  0
 13 14  2  0
 14 15  1  0
 14 23  1  0
 15 16  1  0
 16 17  1  0
 17 18  2  0
 17 22  1  0
 18 19  1  0
 19 20  2  0
 20 21  1  0
 21 22  2  0
 23 24  2  0
 25 26  2  0
 26 27  1  0
 27 28  2  0
M  END
