
     RDKit          3D

 28 32  0  0  0  0  0  0  0  0999 V2000
    5.9380    0.9320    0.4700 C   0  0  0  0  0  0  0  0  0  0  0  0
    4.5240    0.5810    0.6420 C   0  0  0  0  0  0  0  0  0  0  0  0
    3.5910    1.2410   -0.0340 C   0  0  0  0  0  0  0  0  0  0  0  0
    3.9500    2.3510   -0.9830 C   0  0  0  0  0  0  0  0  0  0  0  0
    3.3780    1.9230   -2.6130 Cl  0  0  0  0  0  0  0  0  0  0  0  0
    2.1800    0.8730    0.1640 C   0  0  0  0  0  0  0  0  0  0  0  0
    1.9430   -0.5560    0.2610 N   0  0  0  0  0  0  0  0  0  0  0  0
    0.6340   -1.0270    0.0390 C   0  0  0  0  0  0  0  0  0  0  0  0
   -0.4220   -0.0960    0.1010 C   0  0  0  0  0  0  0  0  0  0  0  0
   -1.7270   -0.4790   -0.0720 C   0  0  0  0  0  0  0  0  0  0  0  0
   -2.0540   -1.8130   -0.3180 C   0  0  0  0  0  0  0  0  0  0  0  0
   -3.3710   -2.1770   -0.4940 C   0  0  0  0  0  0  0  0  0  0  0  0
   -3.6210   -3.4690   -0.7300 N   0  0  0  0  0  0  0  0  0  0  0  0
   -2.6180   -4.3620   -0.7890 C   0  0  0  0  0  0  0  0  0  0  0  0
   -1.3480   -3.9910   -0.6170 N   0  0  0  0  0  0  0  0  0  0  0  0
   -1.0150   -2.6990   -0.3740 C   0  0  0  0  0  0  0  0  0  0  0  0
    0.3220   -2.3410   -0.2010 C   0  0  0  0  0  0  0  0  0  0  0  0
    1.3510   -3.4270   -0.3110 C   0  0  0  0  0  0  0  0  0  0  0  0
   -4.3650   -1.2660   -0.4340 N   0  0  0  0  0  0  0  0  0  0  0  0
   -4.0580    0.0150   -0.1990 C   0  0  0  0  0  0  0  0  0  0  0  0
   -5.0930    0.8040   -0.1740 N   0  0  0  0  0  0  0  0  0  0  0  0
   -5.1860    2.2220    0.0440 C   0  0  0  0  0  0  0  0  0  0  0  0
   -4.2530    3.0820   -0.7100 C   0  0  0  0  0  0  0  0  0  0  0  0
   -2.8690    2.5480   -0.9430 C   0  0  0  0  0  0  0  0  0  0  0  0
   -2.3890    1.7500    0.2420 C   0  0  0  0  0  0  0  0  0  0  0  0
   -2.7460    0.3930   -0.0200 N   0  0  0  0  0  0  0  0  0  0  0  0
    3.0940   -1.3430    0.6130 C   0  0  0  0  0  0  0  0  0  0  0  0
    4.0240   -0.5010    1.5400 C   0  0  0  0  0  0  0  0  0  0  0  0
  1  2  1  0
  2  3  2  0
  2 28  1  0
  3  4  1  0
  3  6  1  0
  4  5  1  0
  6  7  1  0
  7  8  1  0
  7 27  1  0
  8  9  2  0
  8 17  1  0
  9 10  1  0
 10 11  2  0
 10 26  1  0
 11 12  1  0
 11 16  1  0
 12 13  2  0
 12 19  1  0
 13 14  1  0
 14 15  2  0
 15 16  1  0
 16 17  2  0
 17 18  1  0
 19 20  1  0
 20 21  2  0
 20 26  1  0
 21 22  1  0
 22 23  1  0
 23 24  1  0
 24 25  1  0
 25 26  1  0
 27 28  1  0
M  END
