
     RDKit          3D

 28 32  0  0  0  0  0  0  0  0999 V2000
   10.4000   -0.3280   -0.1830 Cl  0  0  0  0  0  0  0  0  0  0  0  0
    8.6870   -0.2270    0.0730 C   0  0  0  0  0  0  0  0  0  0  0  0
    7.8090   -0.2580   -0.9780 C   0  0  0  0  0  0  0  0  0  0  0  0
    6.4340   -0.1730   -0.7230 C   0  0  0  0  0  0  0  0  0  0  0  0
    5.9030   -0.0600    0.5230 C   0  0  0  0  0  0  0  0  0  0  0  0
    4.5320    0.0280    0.8200 N   0  0  0  0  0  0  0  0  0  0  0  0
    3.4780    0.0150   -0.0950 C   0  0  0  0  0  0  0  0  0  0  0  0
    3.5940   -0.0850   -1.4250 N   0  0  0  0  0  0  0  0  0  0  0  0
    2.5680   -0.0950   -2.2800 C   0  0  0  0  0  0  0  0  0  0  0  0
    1.3310    0.0030   -1.7510 N   0  0  0  0  0  0  0  0  0  0  0  0
    1.1220    0.1050   -0.4340 C   0  0  0  0  0  0  0  0  0  0  0  0
   -0.2000    0.2120    0.1710 C   0  0  0  0  0  0  0  0  0  0  0  0
   -1.2610    0.2070   -0.6610 C   0  0  0  0  0  0  0  0  0  0  0  0
   -2.6230    0.3260   -0.1710 C   0  0  1  0  0  0  0  0  0  0  0  0
   -3.6780   -0.5640   -0.7690 C   0  0  0  0  0  0  0  0  0  0  0  0
   -4.7280   -0.2690    0.2570 N   0  0  0  0  0  0  0  0  0  0  0  0
   -6.0800   -0.0290   -0.0760 C   0  0  0  0  0  0  0  0  0  0  0  0
   -6.8600    0.9610    0.3130 C   0  0  0  0  0  0  0  0  0  0  0  0
   -8.2050    0.8270   -0.2730 C   0  0  0  0  0  0  0  0  0  0  0  0
   -8.1150   -0.4080   -1.0830 C   0  0  0  0  0  0  0  0  0  0  0  0
   -6.8950   -0.8840   -0.9590 C   0  0  0  0  0  0  0  0  0  0  0  0
   -4.0330   -0.3060    1.4630 N   0  0  0  0  0  0  0  0  0  0  0  0
   -2.7790    0.0310    1.2770 C   0  0  0  0  0  0  0  0  0  0  0  0
   -1.5990    0.0860    2.1420 C   0  0  0  0  0  0  0  0  0  0  0  0
   -0.3690    0.1630    1.6160 C   0  0  0  0  0  0  0  0  0  0  0  0
    2.1920    0.1100    0.3690 N   0  0  0  0  0  0  0  0  0  0  0  0
    6.8380   -0.0310    1.5750 C   0  0  0  0  0  0  0  0  0  0  0  0
    8.1830   -0.1120    1.3560 C   0  0  0  0  0  0  0  0  0  0  0  0
  1  2  1  0
  2  3  2  0
  2 28  1  0
  3  4  1  0
  4  5  2  0
  5  6  1  0
  5 27  1  0
  6  7  1  0
  7  8  2  0
  7 26  1  0
  8  9  1  0
  9 10  2  0
 10 11  1  0
 11 12  1  0
 11 26  2  0
 12 13  2  0
 12 25  1  0
 13 14  1  0
 14 15  1  6
 14 23  1  0
 15 16  1  0
 16 17  1  0
 16 22  1  0
 17 18  2  0
 17 21  1  0
 18 19  1  0
 19 20  1  0
 20 21  2  0
 22 23  2  0
 23 24  1  0
 24 25  2  0
 27 28  2  0
M  END
