
     RDKit          3D

 28 31  0  0  0  0  0  0  0  0999 V2000
   -6.0180    2.1410   -1.7930 C   0  0  0  0  0  0  0  0  0  0  0  0
   -5.5820    2.0550   -0.3680 C   0  0  0  0  0  0  0  0  0  0  0  0
   -5.3430    0.6980    0.0500 N   0  0  0  0  0  0  0  0  0  0  0  0
   -6.4760   -0.1990    0.1550 C   0  0  0  0  0  0  0  0  0  0  0  0
   -6.0190   -1.5790   -0.1890 C   0  0  0  0  0  0  0  0  0  0  0  0
   -4.8330   -2.0170    0.6370 C   0  0  0  0  0  0  0  0  0  0  0  0
   -3.7660   -0.9590    0.6180 C   0  0  0  0  0  0  0  0  0  0  0  0
   -2.4330   -1.2920    0.9240 N   0  0  0  0  0  0  0  0  0  0  0  0
   -1.3290   -0.7220    0.2540 C   0  0  0  0  0  0  0  0  0  0  0  0
   -1.5260    0.0180   -0.8850 C   0  0  0  0  0  0  0  0  0  0  0  0
   -0.4600    0.5890   -1.5390 C   0  0  0  0  0  0  0  0  0  0  0  0
    0.8100    0.4220   -1.0540 C   0  0  0  0  0  0  0  0  0  0  0  0
    1.8500    0.9740   -1.6820 N   0  0  0  0  0  0  0  0  0  0  0  0
    3.0980    0.8060   -1.2000 C   0  0  0  0  0  0  0  0  0  0  0  0
    3.3350    0.0610   -0.0460 C   0  0  0  0  0  0  0  0  0  0  0  0
    4.6890   -0.0500    0.3760 N   0  0  0  0  0  0  0  0  0  0  0  0
    5.5280   -1.1040   -0.0690 C   0  0  0  0  0  0  0  0  0  0  0  0
    4.9420   -2.1030   -1.0010 C   0  0  0  0  0  0  0  0  0  0  0  0
    6.7830   -1.1800    0.3390 C   0  0  0  0  0  0  0  0  0  0  0  0
    7.4230   -0.2170    1.2640 C   0  0  0  0  0  0  0  0  0  0  0  0
    6.4710    0.8400    1.6690 C   0  0  0  0  0  0  0  0  0  0  0  0
    7.1180    2.0600    2.7800 Cl  0  0  0  0  0  0  0  0  0  0  0  0
    5.2310    0.9100    1.2620 C   0  0  0  0  0  0  0  0  0  0  0  0
    4.3470    2.0140    1.7260 C   0  0  0  0  0  0  0  0  0  0  0  0
    2.3000   -0.4840    0.5730 N   0  0  0  0  0  0  0  0  0  0  0  0
    1.0340   -0.3140    0.0850 C   0  0  0  0  0  0  0  0  0  0  0  0
   -0.0370   -0.8780    0.7260 C   0  0  0  0  0  0  0  0  0  0  0  0
   -4.0490    0.2700    0.3440 N   0  0  0  0  0  0  0  0  0  0  0  0
  1  2  1  0
  2  3  1  0
  3  4  1  0
  3 28  1  0
  4  5  1  0
  5  6  1  0
  6  7  1  0
  7  8  1  0
  7 28  2  0
  8  9  1  0
  9 10  2  0
  9 27  1  0
 10 11  1  0
 11 12  2  0
 12 13  1  0
 12 26  1  0
 13 14  2  0
 14 15  1  0
 15 16  1  0
 15 25  2  0
 16 17  1  0
 16 23  1  0
 17 18  1  0
 17 19  2  0
 19 20  1  0
 20 21  1  0
 21 22  1  0
 21 23  2  0
 23 24  1  0
 25 26  1  0
 26 27  2  0
M  END
