
     RDKit          3D

 27 29  0  0  0  0  0  0  0  0999 V2000
    1.8350    4.4680    2.0150 C   0  0  0  0  0  0  0  0  0  0  0  0
    2.2230    3.1380    1.4810 C   0  0  0  0  0  0  0  0  0  0  0  0
    3.4330    2.7620    1.5990 O   0  0  0  0  0  0  0  0  0  0  0  0
    1.2860    2.3030    0.8560 N   0  0  0  0  0  0  0  0  0  0  0  0
    1.6330    0.9950    0.3290 C   0  0  0  0  0  0  0  0  0  0  0  0
    2.8180    0.6440    0.4640 O   0  0  0  0  0  0  0  0  0  0  0  0
    0.6360    0.1500   -0.3290 C   0  0  1  0  0  0  0  0  0  0  0  0
    1.4610   -0.8450   -1.1470 C   0  0  0  0  0  0  0  0  0  0  0  0
    1.5270   -0.9810   -2.5020 C   0  0  0  0  0  0  0  0  0  0  0  0
    2.4120   -2.0170   -2.7490 C   0  0  0  0  0  0  0  0  0  0  0  0
    2.8450   -2.4640   -1.5260 C   0  0  0  0  0  0  0  0  0  0  0  0
    3.8020   -3.5570   -1.2150 C   0  0  0  0  0  0  0  0  0  0  0  0
    2.2560   -1.7370   -0.5410 N   0  0  0  0  0  0  0  0  0  0  0  0
   -0.2500   -0.6830    0.5800 C   0  0  2  0  0  0  0  0  0  0  0  0
   -1.2030   -1.4000   -0.3480 C   0  0  0  0  0  0  0  0  0  0  0  0
   -1.3670   -2.6590   -0.2800 O   0  0  0  0  0  0  0  0  0  0  0  0
   -1.9400   -0.6880   -1.3180 N   0  0  0  0  0  0  0  0  0  0  0  0
   -2.8610   -1.3500   -2.2160 C   0  0  1  0  0  0  0  0  0  0  0  0
   -3.7970   -0.5770   -3.0620 C   0  0  0  0  0  0  0  0  0  0  0  0
   -2.5370   -1.0360   -3.6860 C   0  0  0  0  0  0  0  0  0  0  0  0
   -0.9120    0.0310    1.6690 C   0  0  0  0  0  0  0  0  0  0  0  0
   -2.2220    0.1200    1.7130 C   0  0  0  0  0  0  0  0  0  0  0  0
   -3.0980    0.7780    2.6910 C   0  0  0  0  0  0  0  0  0  0  0  0
   -2.2120    1.3790    4.0820 S   0  0  0  0  0  0  0  0  0  0  0  0
   -2.5760    2.8230    4.3660 O   0  0  0  0  0  0  0  0  0  0  0  0
   -0.4950    1.1480    3.8130 C   0  0  0  0  0  0  0  0  0  0  0  0
   -0.0490    0.5600    2.7500 C   0  0  0  0  0  0  0  0  0  0  0  0
  1  2  1  0
  2  3  2  0
  2  4  1  0
  4  5  1  0
  5  6  2  0
  7  5  1  1
  7  8  1  0
  7 14  1  0
  8  9  2  0
  8 13  1  0
  9 10  1  0
 10 11  2  0
 11 12  1  0
 11 13  1  0
 14 15  1  6
 14 21  1  0
 15 16  2  0
 15 17  1  0
 18 17  1  1
 18 19  1  0
 18 20  1  0
 19 20  1  0
 21 22  2  0
 21 27  1  0
 22 23  1  0
 24 23  1  6
 24 25  2  0
 24 26  1  0
 26 27  2  0
M  END
