
     RDKit          3D

 28 32  0  0  0  0  0  0  0  0999 V2000
   -0.1180    4.5450   -0.3530 C   0  0  0  0  0  0  0  0  0  0  0  0
    0.0020    3.2730    0.4070 C   0  0  0  0  0  0  0  0  0  0  0  0
   -0.4790    3.2140    1.6890 C   0  0  0  0  0  0  0  0  0  0  0  0
   -0.3740    2.0550    2.3950 C   0  0  0  0  0  0  0  0  0  0  0  0
    0.2030    0.9360    1.8600 C   0  0  0  0  0  0  0  0  0  0  0  0
    0.3100   -0.5190    2.8410 Cl  0  0  0  0  0  0  0  0  0  0  0  0
    0.6960    0.9640    0.5730 C   0  0  0  0  0  0  0  0  0  0  0  0
    1.3140   -0.2280   -0.0330 C   0  0  0  0  0  0  0  0  0  0  0  0
    2.6390   -0.2920   -0.2370 N   0  0  0  0  0  0  0  0  0  0  0  0
    3.2900   -1.3320   -0.7760 C   0  0  0  0  0  0  0  0  0  0  0  0
    4.7010   -1.3410   -0.9660 N   0  0  0  0  0  0  0  0  0  0  0  0
    5.3570   -0.8050   -2.0020 C   0  0  0  0  0  0  0  0  0  0  0  0
    6.6830   -1.0240   -1.8120 N   0  0  0  0  0  0  0  0  0  0  0  0
    6.8370   -1.6890   -0.6690 C   0  0  0  0  0  0  0  0  0  0  0  0
    5.5950   -1.8750   -0.1610 N   0  0  0  0  0  0  0  0  0  0  0  0
    2.5250   -2.3840   -1.1330 N   0  0  0  0  0  0  0  0  0  0  0  0
    1.1960   -2.3910   -0.9600 C   0  0  0  0  0  0  0  0  0  0  0  0
    0.5370   -1.3060   -0.4000 C   0  0  0  0  0  0  0  0  0  0  0  0
   -0.9080   -1.3140   -0.2170 C   0  0  0  0  0  0  0  0  0  0  0  0
   -1.6310   -2.2110    0.5050 C   0  0  0  0  0  0  0  0  0  0  0  0
   -2.9890   -1.8730    0.4340 C   0  0  0  0  0  0  0  0  0  0  0  0
   -4.1480   -2.4010    0.9500 C   0  0  0  0  0  0  0  0  0  0  0  0
   -5.3690   -1.8140    0.6860 C   0  0  0  0  0  0  0  0  0  0  0  0
   -5.4520   -0.6830   -0.1020 C   0  0  0  0  0  0  0  0  0  0  0  0
   -4.2630   -0.1840   -0.6010 C   0  0  0  0  0  0  0  0  0  0  0  0
   -3.0340   -0.7410   -0.3600 C   0  0  0  0  0  0  0  0  0  0  0  0
   -1.7600   -0.4270   -0.7380 N   0  0  0  0  0  0  0  0  0  0  0  0
    0.5820    2.1460   -0.1310 C   0  0  0  0  0  0  0  0  0  0  0  0
  1  2  1  0
  2  3  2  0
  2 28  1  0
  3  4  1  0
  4  5  2  0
  5  6  1  0
  5  7  1  0
  7  8  1  0
  7 28  2  0
  8  9  2  0
  8 18  1  0
  9 10  1  0
 10 11  1  0
 10 16  2  0
 11 12  1  0
 11 15  1  0
 12 13  2  0
 13 14  1  0
 14 15  2  0
 16 17  1  0
 17 18  2  0
 18 19  1  0
 19 20  2  0
 19 27  1  0
 20 21  1  0
 21 22  2  0
 21 26  1  0
 22 23  1  0
 23 24  2  0
 24 25  1  0
 25 26  2  0
 26 27  1  0
M  END
