
     RDKit          3D

 28 32  0  0  0  0  0  0  0  0999 V2000
    0.6250   -3.0240    3.0390 Cl  0  0  0  0  0  0  0  0  0  0  0  0
    0.0980   -1.5630    2.2260 C   0  0  0  0  0  0  0  0  0  0  0  0
    0.9890   -0.5380    2.2150 N   0  0  0  0  0  0  0  0  0  0  0  0
    0.6500    0.6120    1.6080 C   0  0  0  0  0  0  0  0  0  0  0  0
    1.5420    1.7130    1.5690 N   0  0  0  0  0  0  0  0  0  0  0  0
    2.8150    1.6110    2.1750 C   0  0  0  0  0  0  0  0  0  0  0  0
    3.9110    1.2150    1.5290 C   0  0  0  0  0  0  0  0  0  0  0  0
    3.7240    0.8750    0.0940 C   0  0  0  0  0  0  0  0  0  0  0  0
    4.9880    0.4420   -0.5530 C   0  0  0  0  0  0  0  0  0  0  0  0
    5.1940    0.0700   -1.7960 C   0  0  0  0  0  0  0  0  0  0  0  0
    6.6110   -0.2660   -1.9610 C   0  0  0  0  0  0  0  0  0  0  0  0
    7.1990   -0.0380   -0.6400 C   0  0  0  0  0  0  0  0  0  0  0  0
    6.2390    0.3810    0.1920 C   0  0  0  0  0  0  0  0  0  0  0  0
    6.2590    0.7510    1.6090 C   0  0  0  0  0  0  0  0  0  0  0  0
    5.1680    1.1220    2.1590 N   0  0  0  0  0  0  0  0  0  0  0  0
   -0.5630    0.7080    1.0310 N   0  0  0  0  0  0  0  0  0  0  0  0
   -1.4540   -0.2940    1.0330 C   0  0  0  0  0  0  0  0  0  0  0  0
   -2.7490   -0.1670    0.4090 N   0  0  0  0  0  0  0  0  0  0  0  0
   -3.0490    1.0870   -0.2470 C   0  0  0  0  0  0  0  0  0  0  0  0
   -4.5520    1.3290   -0.0490 C   0  0  0  0  0  0  0  0  0  0  0  0
   -5.2070    0.2040   -0.7670 C   0  0  0  0  0  0  0  0  0  0  0  0
   -6.2290    0.3890   -1.6720 C   0  0  0  0  0  0  0  0  0  0  0  0
   -6.7990   -0.7050   -2.3150 C   0  0  0  0  0  0  0  0  0  0  0  0
   -6.3660   -1.9960   -2.0710 C   0  0  0  0  0  0  0  0  0  0  0  0
   -5.3430   -2.1760   -1.1650 C   0  0  0  0  0  0  0  0  0  0  0  0
   -4.7650   -1.0770   -0.5150 C   0  0  0  0  0  0  0  0  0  0  0  0
   -3.6680   -1.2580    0.4630 C   0  0  0  0  0  0  0  0  0  0  0  0
   -1.1100   -1.4530    1.6460 N   0  0  0  0  0  0  0  0  0  0  0  0
  1  2  1  0
  2  3  2  0
  2 28  1  0
  3  4  1  0
  4  5  1  0
  4 16  2  0
  5  6  1  0
  6  7  2  3
  7  8  1  0
  7 15  1  0
  8  9  1  0
  9 10  2  0
  9 13  1  0
 10 11  1  0
 11 12  1  0
 12 13  2  0
 13 14  1  0
 14 15  2  0
 16 17  1  0
 17 18  1  0
 17 28  2  0
 18 19  1  0
 18 27  1  0
 19 20  1  0
 20 21  1  0
 21 22  2  0
 21 26  1  0
 22 23  1  0
 23 24  2  0
 24 25  1  0
 25 26  2  0
 26 27  1  0
M  END
