
     RDKit          3D

 19 19  0  0  0  0  0  0  0  0999 V2000
    4.1200    1.6410    1.5480 N   0  0  0  0  0  0  0  0  0  0  0  0
    4.8710    0.4780    1.0800 C   0  0  0  0  0  0  0  0  0  0  0  0
    4.0570   -0.2020   -0.0080 C   0  0  1  0  0  0  0  0  0  0  0  0
    4.7810   -1.4670   -0.4480 C   0  0  0  0  0  0  0  0  0  0  0  0
    6.0380   -1.2030   -0.9530 O   0  0  0  0  0  0  0  0  0  0  0  0
    2.7980   -0.6250    0.4820 O   0  0  0  0  0  0  0  0  0  0  0  0
    1.5970   -0.1830   -0.0240 C   0  0  0  0  0  0  0  0  0  0  0  0
    1.6220    0.6320   -0.9620 O   0  0  0  0  0  0  0  0  0  0  0  0
    0.2750   -0.6550    0.5240 C   0  0  0  0  0  0  0  0  0  0  0  0
   -0.8190   -0.0390   -0.1830 N   0  0  0  0  0  0  0  0  0  0  0  0
   -2.0430   -0.4250    0.4790 C   0  0  0  0  0  0  0  0  0  0  0  0
   -3.2340    0.1370   -0.2230 C   0  0  0  0  0  0  0  0  0  0  0  0
   -3.0320    0.8750   -1.3000 C   0  0  0  0  0  0  0  0  0  0  0  0
   -4.2110    1.4290   -1.9920 C   0  0  0  0  0  0  0  0  0  0  0  0
   -4.1420    2.1380   -3.0140 O   0  0  0  0  0  0  0  0  0  0  0  0
   -5.4920    1.1200   -1.4380 N   0  0  0  0  0  0  0  0  0  0  0  0
   -5.6050   -0.1320   -0.7190 C   0  0  0  0  0  0  0  0  0  0  0  0
   -4.5600   -0.1760    0.3520 C   0  0  1  0  0  0  0  0  0  0  0  0
   -4.4980   -1.4160    0.9810 O   0  0  0  0  0  0  0  0  0  0  0  0
  1  2  1  0
  3  2  1  1
  3  4  1  0
  3  6  1  0
  4  5  1  0
  6  7  1  0
  7  8  2  0
  7  9  1  0
  9 10  1  0
 10 11  1  0
 11 12  1  0
 12 13  2  0
 12 18  1  0
 13 14  1  0
 14 15  2  0
 14 16  1  0
 16 17  1  0
 17 18  1  0
 18 19  1  6
M  CHG  2   1   1  10   1
M  END
