
     RDKit          3D

 20 22  0  0  0  0  0  0  0  0999 V2000
    2.7920    2.0290   -0.0680 C   0  0  0  0  0  0  0  0  0  0  0  0
    3.2640    0.7480   -0.5610 N   0  0  0  0  0  0  0  0  0  0  0  0
    4.4570    0.6890   -1.2340 C   0  0  0  0  0  0  0  0  0  0  0  0
    4.6990   -0.6170   -1.5250 C   0  0  0  0  0  0  0  0  0  0  0  0
    3.6580   -1.3030   -1.0270 N   0  0  0  0  0  0  0  0  0  0  0  0
    2.7720   -0.4810   -0.4370 C   0  0  0  0  0  0  0  0  0  0  0  0
    1.5480   -0.9190    0.3100 C   0  0  0  0  0  0  0  0  0  0  0  0
    1.7510   -1.8870    1.3270 C   0  0  0  0  0  0  0  0  0  0  0  0
    0.1500   -2.1690    1.9370 S   0  0  0  0  0  0  0  0  0  0  0  0
   -0.7050   -1.0680    0.8910 C   0  0  0  0  0  0  0  0  0  0  0  0
   -2.0700   -0.7690    0.7770 C   0  0  0  0  0  0  0  0  0  0  0  0
   -2.9570   -1.4220    1.6710 N   0  0  0  0  0  0  0  0  0  0  0  0
   -2.4950    0.1270   -0.1790 C   0  0  0  0  0  0  0  0  0  0  0  0
   -3.8940    0.4390   -0.3000 C   0  0  0  0  0  0  0  0  0  0  0  0
   -4.2790    1.2660   -1.1840 N   0  0  0  0  0  0  0  0  0  0  0  0
   -4.8450   -0.1650    0.5520 N   0  0  0  0  0  0  0  0  0  0  0  0
   -1.5290    0.6470   -0.9360 N   0  0  0  0  0  0  0  0  0  0  0  0
   -0.2280    0.3840   -0.8510 C   0  0  0  0  0  0  0  0  0  0  0  0
    0.5300    0.9650   -1.6580 O   0  0  0  0  0  0  0  0  0  0  0  0
    0.2750   -0.5280    0.1170 C   0  0  0  0  0  0  0  0  0  0  0  0
  1  2  1  0
  2  3  1  0
  2  6  1  0
  3  4  2  0
  4  5  1  0
  5  6  2  0
  6  7  1  0
  7  8  2  0
  7 20  1  0
  8  9  1  0
  9 10  1  0
 10 11  1  0
 10 20  2  0
 11 12  1  0
 11 13  2  0
 13 14  1  0
 13 17  1  0
 14 15  2  0
 14 16  1  0
 17 18  1  0
 18 19  2  0
 18 20  1  0
M  END
