
     RDKit          3D

 20 20  0  0  0  0  0  0  0  0999 V2000
   -1.8740   -2.3550   -0.2980 C   0  0  0  0  0  0  0  0  0  0  0  0
   -2.0710   -1.1190    0.5340 C   0  0  1  0  0  0  0  0  0  0  0  0
   -1.9010   -1.4500    1.8970 O   0  0  0  0  0  0  0  0  0  0  0  0
   -1.1200   -0.0440    0.1940 C   0  0  0  0  0  0  0  0  0  0  0  0
    0.3400   -0.2970    0.4160 C   0  0  2  0  0  0  0  0  0  0  0  0
    1.0600    0.8980   -0.0140 N   0  0  0  0  0  0  0  0  0  0  0  0
    2.4300    0.7540   -0.3100 C   0  0  1  0  0  0  0  0  0  0  0  0
    2.9810    2.2070   -0.2620 C   0  0  0  0  0  0  0  0  0  0  0  0
    4.3770    2.2420   -0.5430 N   0  0  0  0  0  0  0  0  0  0  0  0
    3.2490   -0.0040    0.6340 C   0  0  0  0  0  0  0  0  0  0  0  0
    4.6360   -0.2780    0.4280 N   0  0  0  0  0  0  0  0  0  0  0  0
    2.7490   -0.4540    1.6890 O   0  0  0  0  0  0  0  0  0  0  0  0
    0.9190   -1.5280   -0.0460 C   0  0  0  0  0  0  0  0  0  0  0  0
    0.8770   -2.7820    0.6710 N   0  0  0  0  0  0  0  0  0  0  0  0
    1.5380   -1.6110   -1.1530 O   0  0  0  0  0  0  0  0  0  0  0  0
   -3.5170   -0.6240    0.3610 C   0  0  1  0  0  0  0  0  0  0  0  0
   -3.6860    0.4910    1.1770 O   0  0  0  0  0  0  0  0  0  0  0  0
   -4.4730    1.3920    0.4790 C   0  0  0  0  0  0  0  0  0  0  0  0
   -4.4550    0.9310   -0.9430 C   0  0  0  0  0  0  0  0  0  0  0  0
   -3.6790   -0.2170   -0.9420 O   0  0  0  0  0  0  0  0  0  0  0  0
  2  1  1  6
  2  3  1  0
  2  4  1  0
  2 16  1  0
  5  4  1  6
  5  6  1  0
  5 13  1  0
  6  7  1  0
  7  8  1  1
  7 10  1  0
  8  9  1  0
 10 11  1  0
 10 12  2  0
 13 14  1  0
 13 15  2  0
 16 17  1  1
 16 20  1  0
 17 18  1  0
 18 19  1  0
 19 20  1  0
M  CHG  2   6   1   9   1
M  END
