
     RDKit          3D

 19 20  0  0  0  0  0  0  0  0999 V2000
    5.1400   -0.8460    0.4960 N   0  0  0  0  0  0  0  0  0  0  0  0
    4.1180    0.0200    0.8170 N   0  0  0  0  0  0  0  0  0  0  0  0
    3.4750    0.5940   -0.3510 C   0  0  0  0  0  0  0  0  0  0  0  0
    2.3650    1.5330    0.0100 C   0  0  1  0  0  0  0  0  0  0  0  0
    1.8330    2.0150   -1.2040 O   0  0  0  0  0  0  0  0  0  0  0  0
    1.2440    0.7660    0.6790 C   0  0  0  0  0  0  0  0  0  0  0  0
    0.8500   -0.2980   -0.1820 N   0  0  0  0  0  0  0  0  0  0  0  0
   -0.5630   -0.5880   -0.1580 C   0  0  1  0  0  0  0  0  0  0  0  0
   -0.7470   -1.8460   -0.9840 C   0  0  0  0  0  0  0  0  0  0  0  0
   -0.2840   -1.5480   -2.2700 O   0  0  0  0  0  0  0  0  0  0  0  0
   -1.1040   -0.8120    1.2150 C   0  0  0  0  0  0  0  0  0  0  0  0
   -2.6160   -0.7770    0.9640 C   0  0  0  0  0  0  0  0  0  0  0  0
   -2.7440    0.3470   -0.0100 C   0  0  1  0  0  0  0  0  0  0  0  0
   -3.8550    0.1540   -1.0120 C   0  0  0  0  0  0  0  0  0  0  0  0
   -5.0250    0.6380   -0.3390 N   0  0  0  0  0  0  0  0  0  0  0  0
   -4.5680    1.4400    0.7370 C   0  0  0  0  0  0  0  0  0  0  0  0
   -5.3320    1.9870    1.5730 O   0  0  0  0  0  0  0  0  0  0  0  0
   -3.1610    1.5020    0.6920 O   0  0  0  0  0  0  0  0  0  0  0  0
   -1.4100    0.5320   -0.6850 C   0  0  0  0  0  0  0  0  0  0  0  0
  1  2  1  0
  2  3  1  0
  3  4  1  0
  4  5  1  6
  4  6  1  0
  6  7  1  0
  7  8  1  0
  8  9  1  6
  8 11  1  0
  8 19  1  0
  9 10  1  0
 11 12  1  0
 13 12  1  1
 13 14  1  0
 13 18  1  0
 13 19  1  0
 14 15  1  0
 15 16  1  0
 16 17  2  0
 16 18  1  0
M  CHG  2   1   1   7   1
M  END
