
     RDKit          3D

 15 15  0  0  0  0  0  0  0  0999 V2000
    4.3790    1.3190   -0.5980 N   0  0  0  0  0  0  0  0  0  0  0  0
    3.9510    0.0690   -0.4360 O   0  0  0  0  0  0  0  0  0  0  0  0
    2.5620   -0.0090   -0.6850 C   0  0  0  0  0  0  0  0  0  0  0  0
    2.0480   -0.7210    0.5380 C   0  0  1  0  0  0  0  0  0  0  0  0
    2.5440    0.1120    1.6220 O   0  0  0  0  0  0  0  0  0  0  0  0
    0.5670   -0.6940    0.6370 C   0  0  2  0  0  0  0  0  0  0  0  0
    0.2330   -2.0260    1.0810 O   0  0  0  0  0  0  0  0  0  0  0  0
   -0.1310   -0.5000   -0.6700 C   0  0  0  0  0  0  0  0  0  0  0  0
   -1.5170   -0.0280   -0.3950 C   0  0  1  0  0  0  0  0  0  0  0  0
   -2.3950    0.0380   -1.6050 C   0  0  0  0  0  0  0  0  0  0  0  0
   -3.7460   -0.0450   -1.3070 O   0  0  0  0  0  0  0  0  0  0  0  0
   -2.2330   -0.6940    0.7260 C   0  0  0  0  0  0  0  0  0  0  0  0
   -3.2270    0.2670    1.0250 O   0  0  0  0  0  0  0  0  0  0  0  0
   -2.5480    1.4690    0.9470 C   0  0  0  0  0  0  0  0  0  0  0  0
   -1.4720    1.3010    0.1360 O   0  0  0  0  0  0  0  0  0  0  0  0
  1  2  1  0
  2  3  1  0
  3  4  1  0
  4  5  1  1
  4  6  1  0
  6  7  1  6
  6  8  1  0
  9  8  1  6
  9 10  1  0
  9 12  1  0
  9 15  1  0
 10 11  1  0
 12 13  1  0
 13 14  1  0
 14 15  1  0
M  END
