
     RDKit          3D

 15 15  0  0  0  0  0  0  0  0999 V2000
    2.4240   -2.3710   -1.1260 O   0  0  0  0  0  0  0  0  0  0  0  0
    1.5860   -1.7340   -0.2290 C   0  0  2  0  0  0  0  0  0  0  0  0
    0.2630   -1.3950   -0.7930 C   0  0  0  0  0  0  0  0  0  0  0  0
   -0.8380   -2.0780   -0.0980 N   0  0  0  0  0  0  0  0  0  0  0  0
   -1.8720   -1.1310    0.2950 C   0  0  2  0  0  0  0  0  0  0  0  0
   -2.4280   -1.6190    1.4830 O   0  0  0  0  0  0  0  0  0  0  0  0
   -2.8790   -1.0410   -0.6600 O   0  0  0  0  0  0  0  0  0  0  0  0
   -1.2860    0.0810    0.5820 O   0  0  0  0  0  0  0  0  0  0  0  0
   -1.9010    1.1670   -0.0010 C   0  0  0  0  0  0  0  0  0  0  0  0
   -1.2460    2.4210    0.5470 C   0  0  0  0  0  0  0  0  0  0  0  0
   -0.0790    2.7510   -0.0980 O   0  0  0  0  0  0  0  0  0  0  0  0
    1.0360    2.0550    0.4300 C   0  0  0  0  0  0  0  0  0  0  0  0
    1.8990    1.5700   -0.6660 C   0  0  0  0  0  0  0  0  0  0  0  0
    2.5780    0.4450   -0.5530 O   0  0  0  0  0  0  0  0  0  0  0  0
    2.3440   -0.5200    0.3180 C   0  0  0  0  0  0  0  0  0  0  0  0
  2  1  1  6
  2  3  1  0
  2 15  1  0
  3  4  1  0
  4  5  1  0
  5  6  1  1
  5  7  1  0
  5  8  1  0
  8  9  1  0
  9 10  1  0
 10 11  1  0
 11 12  1  0
 12 13  1  0
 13 14  1  0
 14 15  1  0
M  END
