
     RDKit          3D

 15 15  0  0  0  0  0  0  0  0999 V2000
    1.9060   -0.0960    1.5300 C   0  0  0  0  0  0  0  0  0  0  0  0
    1.4860   -0.2700    0.0850 C   0  0  2  0  0  0  0  0  0  0  0  0
    2.6440   -0.1490   -0.8090 C   0  0  0  0  0  0  0  0  0  0  0  0
    2.6700    0.7850   -1.8730 N   0  0  0  0  0  0  0  0  0  0  0  0
    3.6450   -0.8850   -0.6380 O   0  0  0  0  0  0  0  0  0  0  0  0
    0.4860    0.6310   -0.2700 O   0  0  0  0  0  0  0  0  0  0  0  0
   -0.5490    0.5870    0.6310 C   0  0  1  0  0  0  0  0  0  0  0  0
   -1.6330    1.5630    0.1990 C   0  0  0  0  0  0  0  0  0  0  0  0
   -1.0640    2.8560    0.1670 O   0  0  0  0  0  0  0  0  0  0  0  0
   -1.1510   -0.7500    0.8450 C   0  0  1  0  0  0  0  0  0  0  0  0
   -2.3550   -1.0130   -0.0410 C   0  0  0  0  0  0  0  0  0  0  0  0
   -2.9720   -2.1980    0.3520 O   0  0  0  0  0  0  0  0  0  0  0  0
   -0.2780   -1.8370    0.6890 O   0  0  0  0  0  0  0  0  0  0  0  0
    0.8910   -1.6290   -0.0280 C   0  0  0  0  0  0  0  0  0  0  0  0
    1.4470   -2.4890   -0.7370 O   0  0  0  0  0  0  0  0  0  0  0  0
  2  1  1  1
  2  3  1  0
  2  6  1  0
  2 14  1  0
  3  4  1  0
  3  5  2  0
  6  7  1  0
  7  8  1  6
  7 10  1  0
  8  9  1  0
 10 11  1  6
 10 13  1  0
 11 12  1  0
 13 14  1  0
 14 15  2  0
M  END
