
     RDKit          3D

 15 15  0  0  0  0  0  0  0  0999 V2000
   -2.6980    1.8220   -0.6670 N   0  0  0  0  0  0  0  0  0  0  0  0
   -2.9070    0.7120    0.2060 C   0  0  1  0  0  0  0  0  0  0  0  0
   -3.8610   -0.2230   -0.4830 C   0  0  0  0  0  0  0  0  0  0  0  0
   -5.0520   -0.3610   -0.1770 O   0  0  0  0  0  0  0  0  0  0  0  0
   -3.0870   -0.8290   -1.4700 O   0  0  0  0  0  0  0  0  0  0  0  0
   -1.7120   -0.7460   -1.1390 C   0  0  0  0  0  0  0  0  0  0  0  0
   -1.6890   -0.1860    0.2540 C   0  0  2  0  0  0  0  0  0  0  0  0
   -1.8570   -1.2270    1.1410 O   0  0  0  0  0  0  0  0  0  0  0  0
   -0.4350    0.5870    0.5630 C   0  0  0  0  0  0  0  0  0  0  0  0
    0.7460   -0.3590    0.5990 C   0  0  0  0  0  0  0  0  0  0  0  0
    1.8840    0.3890    0.8860 O   0  0  0  0  0  0  0  0  0  0  0  0
    3.0160   -0.3940    0.9390 C   0  0  2  0  0  0  0  0  0  0  0  0
    3.5800   -0.2610    2.2120 O   0  0  0  0  0  0  0  0  0  0  0  0
    4.0240    0.1110   -0.0990 C   0  0  0  0  0  0  0  0  0  0  0  0
    3.4250    0.0190   -1.3570 O   0  0  0  0  0  0  0  0  0  0  0  0
  2  1  1  6
  2  3  1  0
  2  7  1  0
  3  4  2  0
  3  5  1  0
  5  6  1  0
  6  7  1  0
  7  8  1  1
  7  9  1  0
  9 10  1  0
 10 11  1  0
 11 12  1  0
 12 13  1  1
 12 14  1  0
 14 15  1  0
M  END
