
     RDKit          3D

 15 15  0  0  0  0  0  0  0  0999 V2000
    4.9190   -1.2620    0.1390 N   0  0  0  0  0  0  0  0  0  0  0  0
    4.1040   -0.3840   -0.4840 O   0  0  0  0  0  0  0  0  0  0  0  0
    2.8090   -0.4210    0.1060 C   0  0  0  0  0  0  0  0  0  0  0  0
    1.9900    0.5850   -0.6550 C   0  0  2  0  0  0  0  0  0  0  0  0
    2.6610    1.8240   -0.5130 O   0  0  0  0  0  0  0  0  0  0  0  0
    0.5730    0.7330   -0.1630 C   0  0  2  0  0  0  0  0  0  0  0  0
    0.6100    1.0890    1.1910 O   0  0  0  0  0  0  0  0  0  0  0  0
   -0.1990   -0.5130   -0.3770 C   0  0  1  0  0  0  0  0  0  0  0  0
    0.2930   -1.5960    0.3310 O   0  0  0  0  0  0  0  0  0  0  0  0
   -1.6790   -0.3510   -0.1290 C   0  0  2  0  0  0  0  0  0  0  0  0
   -2.2900    0.7520   -0.9310 C   0  0  0  0  0  0  0  0  0  0  0  0
   -3.6840    0.5630   -0.8790 O   0  0  0  0  0  0  0  0  0  0  0  0
   -4.1720    0.4960    0.3960 C   0  0  0  0  0  0  0  0  0  0  0  0
   -3.3380   -0.2460    1.3710 C   0  0  0  0  0  0  0  0  0  0  0  0
   -1.9830   -0.1400    1.1970 O   0  0  0  0  0  0  0  0  0  0  0  0
  1  2  1  0
  2  3  1  0
  3  4  1  0
  4  5  1  1
  4  6  1  0
  6  7  1  1
  6  8  1  0
  8  9  1  1
  8 10  1  0
 10 11  1  6
 10 15  1  0
 11 12  1  0
 12 13  1  0
 13 14  1  0
 14 15  1  0
M  END
