
     RDKit          3D

 14 14  0  0  0  0  0  0  0  0999 V2000
    3.6640    1.6120    0.5680 C   0  0  0  0  0  0  0  0  0  0  0  0
    2.6890    0.8040    1.2180 O   0  0  0  0  0  0  0  0  0  0  0  0
    1.5820    0.4210    0.5170 C   0  0  0  0  0  0  0  0  0  0  0  0
    1.4910   -0.7790   -0.0560 C   0  0  0  0  0  0  0  0  0  0  0  0
    2.5350   -1.7120    0.0330 N   0  0  0  0  0  0  0  0  0  0  0  0
    0.2080   -1.0260   -0.7810 C   0  0  1  0  0  0  0  0  0  0  0  0
    0.0450   -2.3690   -1.1080 O   0  0  0  0  0  0  0  0  0  0  0  0
   -0.9090   -0.6290    0.1600 C   0  0  2  0  0  0  0  0  0  0  0  0
   -2.1280   -0.8240   -0.5260 O   0  0  0  0  0  0  0  0  0  0  0  0
   -3.3690   -0.5820   -0.0220 C   0  0  0  0  0  0  0  0  0  0  0  0
   -4.1160    0.3690   -0.5360 C   0  0  0  0  0  0  0  0  0  0  0  0
   -5.3660    0.6240   -0.0380 O   0  0  0  0  0  0  0  0  0  0  0  0
   -0.7660    0.6260    0.6900 O   0  0  0  0  0  0  0  0  0  0  0  0
    0.3740    1.2930    0.3220 C   0  0  0  0  0  0  0  0  0  0  0  0
  1  2  1  0
  2  3  1  0
  3  4  2  0
  3 14  1  0
  4  5  1  0
  4  6  1  0
  6  7  1  1
  6  8  1  0
  8  9  1  6
  8 13  1  0
  9 10  1  0
 10 11  2  3
 11 12  1  0
 13 14  1  0
M  END
