
     RDKit          3D

 23 26  0  0  0  0  0  0  0  0999 V2000
    0.8990   -2.9690   -3.0990 C   0  0  0  0  0  0  0  0  0  0  0  0
    0.1460   -2.1510   -2.2210 O   0  0  0  0  0  0  0  0  0  0  0  0
    0.7520   -1.3020   -1.2990 C   0  0  0  0  0  0  0  0  0  0  0  0
    2.1240   -1.2240   -1.2040 C   0  0  0  0  0  0  0  0  0  0  0  0
    2.7130   -0.3630   -0.2700 C   0  0  0  0  0  0  0  0  0  0  0  0
    1.9490    0.4140    0.5650 C   0  0  0  0  0  0  0  0  0  0  0  0
    0.5710    0.3020    0.4350 C   0  0  0  0  0  0  0  0  0  0  0  0
   -0.0450   -0.5350   -0.4750 C   0  0  0  0  0  0  0  0  0  0  0  0
   -1.5440   -0.5950   -0.5580 C   0  0  1  0  0  0  0  0  0  0  0  0
   -2.1100   -1.4930    0.4820 C   0  0  0  0  0  0  0  0  0  0  0  0
   -3.1500   -0.9310    1.3380 C   0  0  0  0  0  0  0  0  0  0  0  0
   -3.7030   -1.7960    2.3600 N   0  0  0  0  0  0  0  0  0  0  0  0
   -3.6090    0.2530    1.2600 N   0  0  0  0  0  0  0  0  0  0  0  0
   -3.1060    1.1400    0.2790 C   0  0  0  0  0  0  0  0  0  0  0  0
   -2.1190    0.7590   -0.6070 C   0  0  0  0  0  0  0  0  0  0  0  0
   -1.8660    1.8400   -1.4160 C   0  0  0  0  0  0  0  0  0  0  0  0
   -2.6740    2.8390   -1.0290 N   0  0  0  0  0  0  0  0  0  0  0  0
   -3.4150    2.4330   -0.0220 N   0  0  0  0  0  0  0  0  0  0  0  0
   -4.4260    3.1840    0.7100 C   0  0  0  0  0  0  0  0  0  0  0  0
    2.5570    1.2850    1.5030 N   0  0  0  0  0  0  0  0  0  0  0  0
    3.9570    1.0770    1.8020 C   0  0  0  0  0  0  0  0  0  0  0  0
    4.6670    0.9810    0.4440 C   0  0  0  0  0  0  0  0  0  0  0  0
    4.2030   -0.3050   -0.1980 C   0  0  0  0  0  0  0  0  0  0  0  0
  1  2  1  0
  2  3  1  0
  3  4  2  0
  3  8  1  0
  4  5  1  0
  5  6  2  0
  5 23  1  0
  6  7  1  0
  6 20  1  0
  7  8  2  0
  9  8  1  1
  9 10  1  0
  9 15  1  0
 10 11  1  0
 11 12  1  0
 11 13  2  0
 13 14  1  0
 14 15  2  0
 14 18  1  0
 15 16  1  0
 16 17  2  0
 17 18  1  0
 18 19  1  0
 20 21  1  0
 21 22  1  0
 22 23  1  0
M  END
