
     RDKit          3D

 28 28  0  0  0  0  0  0  0  0999 V2000
   -3.4460    1.5670    3.9140 C   0  0  0  0  0  0  0  0  0  0  0  0
   -3.1930    1.4660    2.5460 O   0  0  0  0  0  0  0  0  0  0  0  0
   -2.2000    0.6850    1.9800 C   0  0  0  0  0  0  0  0  0  0  0  0
   -1.5120    0.0440    2.8170 O   0  0  0  0  0  0  0  0  0  0  0  0
   -2.0180    0.6490    0.5690 C   0  0  0  0  0  0  0  0  0  0  0  0
   -2.8500    1.3510   -0.2290 C   0  0  0  0  0  0  0  0  0  0  0  0
   -3.9270    2.1320    0.4040 C   0  0  0  0  0  0  0  0  0  0  0  0
   -2.8010    1.4460   -1.6580 N   0  0  0  0  0  0  0  0  0  0  0  0
   -1.7990    0.9570   -2.5420 C   0  0  0  0  0  0  0  0  0  0  0  0
   -1.5420    1.8240   -3.8940 S   0  0  0  0  0  0  0  0  0  0  0  0
   -0.9940   -0.2240   -2.3620 N   0  0  0  0  0  0  0  0  0  0  0  0
   -1.0710   -1.0300   -1.1350 C   0  0  1  0  0  0  0  0  0  0  0  0
   -0.5160   -2.3580   -1.2260 C   0  0  0  0  0  0  0  0  0  0  0  0
   -0.8410   -0.1670    0.0290 C   0  0  0  0  0  0  0  0  0  0  0  0
    0.2000   -0.0440    0.6970 C   0  0  0  0  0  0  0  0  0  0  0  0
    1.6000   -0.4780    0.7450 C   0  0  0  0  0  0  0  0  0  0  0  0
    2.2470   -0.0930    1.8460 C   0  0  0  0  0  0  0  0  0  0  0  0
    3.5490   -0.2750    2.3040 C   0  0  0  0  0  0  0  0  0  0  0  0
    4.5360   -0.8920    1.7770 N   0  0  0  0  0  0  0  0  0  0  0  0
    3.8910    0.3130    3.5800 O   0  0  0  0  0  0  0  0  0  0  0  0
    2.3780   -0.9810   -0.3400 C   0  0  0  0  0  0  0  0  0  0  0  0
    3.5280   -1.4250   -0.1610 O   0  0  0  0  0  0  0  0  0  0  0  0
    1.9510   -1.0060   -1.6440 O   0  0  0  0  0  0  0  0  0  0  0  0
    2.6080   -1.4430   -2.7860 C   0  0  0  0  0  0  0  0  0  0  0  0
    3.8480   -0.7140   -3.1690 C   0  0  1  0  0  0  0  0  0  0  0  0
    4.8070   -0.7740   -2.2030 F   0  0  0  0  0  0  0  0  0  0  0  0
    4.3690   -1.2560   -4.3400 F   0  0  0  0  0  0  0  0  0  0  0  0
    3.5980    0.6240   -3.4660 F   0  0  0  0  0  0  0  0  0  0  0  0
  1  2  1  0
  2  3  1  0
  3  4  2  0
  3  5  1  0
  5  6  2  0
  5 14  1  0
  6  7  1  0
  6  8  1  0
  8  9  1  0
  9 10  2  0
  9 11  1  0
 11 12  1  0
 12 13  1  6
 12 14  1  0
 14 15  2  3
 15 16  1  0
 16 17  2  3
 16 21  1  0
 17 18  1  0
 18 19  2  0
 18 20  1  0
 21 22  2  0
 21 23  1  0
 23 24  1  0
 24 25  1  0
 25 26  1  1
 25 27  1  0
 25 28  1  0
M  END
