
     RDKit          3D

 16 18  0  0  0  0  0  0  0  0999 V2000
   -4.9290    0.7830   -0.2910 N   0  0  0  0  0  0  0  0  0  0  0  0
   -3.6300    0.2780    0.0060 C   0  0  0  0  0  0  0  0  0  0  0  0
   -3.5070   -0.8290    0.8220 C   0  0  0  0  0  0  0  0  0  0  0  0
   -2.2710   -1.3530    1.1370 C   0  0  0  0  0  0  0  0  0  0  0  0
   -1.1220   -0.7580    0.6260 C   0  0  0  0  0  0  0  0  0  0  0  0
    0.1430   -1.2350    0.9050 C   0  0  0  0  0  0  0  0  0  0  0  0
    1.2880   -0.6490    0.4000 C   0  0  0  0  0  0  0  0  0  0  0  0
    2.5440   -1.1410    0.6900 C   0  0  0  0  0  0  0  0  0  0  0  0
    3.6500   -0.5150    0.1590 C   0  0  0  0  0  0  0  0  0  0  0  0
    3.5330    0.5890   -0.6560 C   0  0  0  0  0  0  0  0  0  0  0  0
    4.7290    1.1980   -1.1810 N   0  0  0  0  0  0  0  0  0  0  0  0
    2.2770    1.0770   -0.9430 C   0  0  0  0  0  0  0  0  0  0  0  0
    1.1490    0.4660   -0.4210 C   0  0  0  0  0  0  0  0  0  0  0  0
   -0.0950    0.9200   -0.6840 N   0  0  0  0  0  0  0  0  0  0  0  0
   -1.2110    0.3500   -0.1920 C   0  0  0  0  0  0  0  0  0  0  0  0
   -2.4790    0.8530   -0.4900 C   0  0  0  0  0  0  0  0  0  0  0  0
  1  2  1  0
  2  3  2  0
  2 16  1  0
  3  4  1  0
  4  5  2  0
  5  6  1  0
  5 15  1  0
  6  7  2  0
  7  8  1  0
  7 13  1  0
  8  9  2  0
  9 10  1  0
 10 11  1  0
 10 12  2  0
 12 13  1  0
 13 14  2  0
 14 15  1  0
 15 16  2  0
M  END
