
     RDKit          3D

 28 29  0  0  0  0  0  0  0  0999 V2000
    3.5530    2.5100    4.0360 N   0  0  0  0  0  0  0  0  0  0  0  0
    3.6800    2.0180    2.7320 C   0  0  0  0  0  0  0  0  0  0  0  0
    4.7110    1.3510    2.4160 O   0  0  0  0  0  0  0  0  0  0  0  0
    2.4690    2.2710    1.4700 S   0  0  0  0  0  0  0  0  0  0  0  0
    2.9210    1.5090   -0.0670 C   0  0  0  0  0  0  0  0  0  0  0  0
    2.5570    0.1950   -0.3530 C   0  0  0  0  0  0  0  0  0  0  0  0
    2.8700   -0.4230   -1.5360 C   0  0  0  0  0  0  0  0  0  0  0  0
    2.5350   -1.7110   -1.8510 O   0  0  0  0  0  0  0  0  0  0  0  0
    1.8900   -2.6350   -1.1200 C   0  0  0  0  0  0  0  0  0  0  0  0
    0.5390   -2.5140   -0.6380 C   0  0  0  0  0  0  0  0  0  0  0  0
    0.1580   -3.5230    0.0450 O   0  0  0  0  0  0  0  0  0  0  0  0
   -0.4700   -1.4630   -0.7830 C   0  0  0  0  0  0  0  0  0  0  0  0
   -1.6780   -1.8280   -0.1000 O   0  0  0  0  0  0  0  0  0  0  0  0
   -2.7950   -0.9990   -0.0360 C   0  0  0  0  0  0  0  0  0  0  0  0
   -2.8490    0.2300   -0.6220 C   0  0  0  0  0  0  0  0  0  0  0  0
   -3.9870    1.0030   -0.5190 C   0  0  0  0  0  0  0  0  0  0  0  0
   -4.0230    2.2180   -1.1110 F   0  0  0  0  0  0  0  0  0  0  0  0
   -5.0650    0.5370    0.1720 C   0  0  0  0  0  0  0  0  0  0  0  0
   -6.5160    1.5410    0.2970 S   0  0  0  0  0  0  0  0  0  0  0  0
   -5.0140   -0.7240    0.7730 C   0  0  0  0  0  0  0  0  0  0  0  0
   -6.1510   -1.1790    1.4850 N   0  0  0  0  0  0  0  0  0  0  0  0
   -3.8850   -1.5040    0.6770 C   0  0  0  0  0  0  0  0  0  0  0  0
   -3.8630   -2.7180    1.2730 F   0  0  0  0  0  0  0  0  0  0  0  0
    3.5940    0.3460   -2.4820 C   0  0  0  0  0  0  0  0  0  0  0  0
    3.9030   -0.2790   -3.6690 O   0  0  0  0  0  0  0  0  0  0  0  0
    3.9700    1.6440   -2.2350 C   0  0  0  0  0  0  0  0  0  0  0  0
    3.6310    2.2180   -1.0290 C   0  0  0  0  0  0  0  0  0  0  0  0
    3.9840    3.4940   -0.7410 F   0  0  0  0  0  0  0  0  0  0  0  0
  1  2  1  0
  2  3  2  0
  2  4  1  0
  4  5  1  0
  5  6  2  0
  5 27  1  0
  6  7  1  0
  7  8  1  0
  7 24  2  0
  8  9  1  0
  9 10  1  0
 10 11  2  0
 10 12  1  0
 12 13  1  0
 13 14  1  0
 14 15  2  0
 14 22  1  0
 15 16  1  0
 16 17  1  0
 16 18  2  0
 18 19  1  0
 18 20  1  0
 20 21  1  0
 20 22  2  0
 22 23  1  0
 24 25  1  0
 24 26  1  0
 26 27  2  0
 27 28  1  0
M  END
