
     RDKit          3D

 28 29  0  0  0  0  0  0  0  0999 V2000
   -4.7600   -2.5010    0.9090 C   0  0  0  0  0  0  0  0  0  0  0  0
   -3.4490   -1.8390    0.5900 C   0  0  0  0  0  0  0  0  0  0  0  0
   -3.5590   -0.3320    0.5850 C   0  0  0  0  0  0  0  0  0  0  0  0
   -4.7030    0.0890    0.8430 O   0  0  0  0  0  0  0  0  0  0  0  0
   -2.3960    0.4770    0.2980 C   0  0  0  0  0  0  0  0  0  0  0  0
   -2.3420    1.7890    0.2580 C   0  0  0  0  0  0  0  0  0  0  0  0
   -3.4570    2.5870    0.5040 N   0  0  0  0  0  0  0  0  0  0  0  0
   -3.5010    4.0200    0.5190 C   0  0  0  0  0  0  0  0  0  0  0  0
   -4.5620    4.6390    0.7410 O   0  0  0  0  0  0  0  0  0  0  0  0
   -1.9790    4.8880    0.2060 S   0  0  0  0  0  0  0  0  0  0  0  0
   -0.7440    3.6350   -0.0780 C   0  0  0  0  0  0  0  0  0  0  0  0
   -1.0120    2.3570   -0.0300 C   0  0  0  0  0  0  0  0  0  0  0  0
    0.1230    1.5000   -0.2920 N   0  0  0  0  0  0  0  0  0  0  0  0
    0.2180    0.7110   -1.4350 C   0  0  0  0  0  0  0  0  0  0  0  0
   -0.8150    0.8600   -2.2170 O   0  0  0  0  0  0  0  0  0  0  0  0
    1.2000   -0.2090   -1.9110 C   0  0  0  0  0  0  0  0  0  0  0  0
    2.3500   -0.6800   -1.5140 C   0  0  0  0  0  0  0  0  0  0  0  0
    3.0010   -0.2850   -0.2450 C   0  0  0  0  0  0  0  0  0  0  0  0
    4.1700   -0.7820    0.1240 C   0  0  0  0  0  0  0  0  0  0  0  0
    4.7670   -0.3560    1.3890 C   0  0  0  0  0  0  0  0  0  0  0  0
    4.1640    0.4840    2.1200 O   0  0  0  0  0  0  0  0  0  0  0  0
    6.0680   -0.8900    1.8300 C   0  0  1  0  0  0  0  0  0  0  0  0
    5.9730   -2.2770    1.9630 F   0  0  0  0  0  0  0  0  0  0  0  0
    7.0220   -0.6630    0.8500 F   0  0  0  0  0  0  0  0  0  0  0  0
    6.4140   -0.2950    3.0220 F   0  0  0  0  0  0  0  0  0  0  0  0
    2.9900   -1.5940   -2.3200 O   0  0  0  0  0  0  0  0  0  0  0  0
    2.1370   -2.4190   -3.0800 C   0  0  0  0  0  0  0  0  0  0  0  0
    0.9550   -1.0820   -3.5300 S   0  0  0  0  0  0  0  0  0  0  0  0
  1  2  1  0
  2  3  1  0
  3  4  2  0
  3  5  1  0
  5  6  2  3
  6  7  1  0
  6 12  1  0
  7  8  1  0
  8  9  2  0
  8 10  1  0
 10 11  1  0
 11 12  2  0
 12 13  1  0
 13 14  1  0
 14 15  2  0
 14 16  1  0
 16 17  2  0
 16 28  1  0
 17 18  1  0
 17 26  1  0
 18 19  2  3
 19 20  1  0
 20 21  2  0
 20 22  1  0
 22 23  1  1
 22 24  1  0
 22 25  1  0
 26 27  1  0
 27 28  1  0
M  END
