
     RDKit          3D

 23 25  0  0  0  0  0  0  0  0999 V2000
   -3.6420   -2.0860    0.7520 C   0  0  0  0  0  0  0  0  0  0  0  0
   -3.9650   -1.3040   -0.2970 C   0  0  0  0  0  0  0  0  0  0  0  0
   -3.4120    0.0330   -0.4020 C   0  0  0  0  0  0  0  0  0  0  0  0
   -3.6800    0.8480   -1.3900 C   0  0  0  0  0  0  0  0  0  0  0  0
   -3.1430    2.1860   -1.5210 C   0  0  0  0  0  0  0  0  0  0  0  0
   -2.3710    2.7670   -0.7530 N   0  0  0  0  0  0  0  0  0  0  0  0
   -1.7850    2.4060    0.3970 N   0  0  0  0  0  0  0  0  0  0  0  0
   -0.4090    1.9690    0.3810 C   0  0  0  0  0  0  0  0  0  0  0  0
    0.2210    1.9290   -0.6940 O   0  0  0  0  0  0  0  0  0  0  0  0
    0.1960    1.5830    1.6510 C   0  0  0  0  0  0  0  0  0  0  0  0
    1.6030    1.1100    1.6090 C   0  0  2  0  0  0  0  0  0  0  0  0
    2.5870    2.1220    1.0610 C   0  0  0  0  0  0  0  0  0  0  0  0
    3.8500    1.2470    1.0380 C   0  0  0  0  0  0  0  0  0  0  0  0
    3.3360   -0.0340    0.6180 N   0  0  0  0  0  0  0  0  0  0  0  0
    4.1570   -1.0980    0.1420 C   0  0  0  0  0  0  0  0  0  0  0  0
    5.3750   -1.3800    0.4650 N   0  0  0  0  0  0  0  0  0  0  0  0
    5.8360   -2.5490   -0.2550 C   0  0  0  0  0  0  0  0  0  0  0  0
    4.6610   -2.9040   -1.0640 C   0  0  0  0  0  0  0  0  0  0  0  0
    3.7330   -2.0720   -0.8200 N   0  0  0  0  0  0  0  0  0  0  0  0
    1.8730   -0.0830    0.7480 C   0  0  0  0  0  0  0  0  0  0  0  0
   -4.6000    0.3210   -2.4230 C   0  0  0  0  0  0  0  0  0  0  0  0
   -5.1310   -0.8760   -2.3830 C   0  0  0  0  0  0  0  0  0  0  0  0
   -4.8800   -1.8500   -1.3080 C   0  0  0  0  0  0  0  0  0  0  0  0
  1  2  2  0
  2  3  1  0
  2 23  1  0
  3  4  2  0
  4  5  1  0
  4 21  1  0
  5  6  2  3
  6  7  1  0
  7  8  1  0
  8  9  2  0
  8 10  1  0
 11 10  1  6
 11 12  1  0
 11 20  1  0
 12 13  1  0
 13 14  1  0
 14 15  1  0
 14 20  1  0
 15 16  2  0
 15 19  1  0
 16 17  1  0
 17 18  1  0
 18 19  2  0
 21 22  2  0
 22 23  1  0
M  END
