
     RDKit          3D

 28 29  0  0  0  0  0  0  0  0999 V2000
    1.9220   -0.4310   -0.5470 O   0  0  0  0  0  0  0  0  0  0  0  0
    1.9760    0.7950   -0.3460 C   0  0  0  0  0  0  0  0  0  0  0  0
    3.2190    1.5790   -0.7370 C   0  0  0  0  0  0  0  0  0  0  0  0
    4.1980    1.8350    0.7190 S   0  0  0  0  0  0  0  0  0  0  0  0
    4.9830    0.3910    1.4310 C   0  0  0  0  0  0  0  0  0  0  0  0
    6.1420   -0.1290    0.5990 C   0  0  0  0  0  0  0  0  0  0  0  0
    7.3600   -0.0900    1.1230 C   0  0  0  0  0  0  0  0  0  0  0  0
    8.4060   -0.7610   -0.1170 S   0  0  1  0  0  0  0  0  0  0  0  0
    9.3530    0.2910   -0.6420 O   0  0  0  0  0  0  0  0  0  0  0  0
    9.1090   -2.0070    0.3200 O   0  0  0  0  0  0  0  0  0  0  0  0
    7.1460   -1.0830   -1.2800 C   0  0  0  0  0  0  0  0  0  0  0  0
    7.2840   -1.6530   -2.5180 F   0  0  0  0  0  0  0  0  0  0  0  0
    6.0350   -0.6710   -0.7000 C   0  0  0  0  0  0  0  0  0  0  0  0
    0.9110    1.4960    0.2440 N   0  0  0  0  0  0  0  0  0  0  0  0
   -0.2870    0.9230    0.6570 N   0  0  0  0  0  0  0  0  0  0  0  0
   -1.3460    0.6610   -0.2450 C   0  0  0  0  0  0  0  0  0  0  0  0
   -1.1990    0.9440   -1.4760 O   0  0  0  0  0  0  0  0  0  0  0  0
   -2.6020    0.0840    0.1800 C   0  0  0  0  0  0  0  0  0  0  0  0
   -2.8890   -0.2510    1.4140 C   0  0  0  0  0  0  0  0  0  0  0  0
   -4.1480   -0.8400    1.8970 C   0  0  2  0  0  0  0  0  0  0  0  0
   -4.6130   -0.1140    3.0040 F   0  0  0  0  0  0  0  0  0  0  0  0
   -3.8750   -2.1160    2.4630 F   0  0  0  0  0  0  0  0  0  0  0  0
   -5.1960   -0.9760    0.8900 C   0  0  0  0  0  0  0  0  0  0  0  0
   -4.8550   -0.6070   -0.4860 C   0  0  0  0  0  0  0  0  0  0  0  0
   -5.8480   -0.7650   -1.6020 C   0  0  0  0  0  0  0  0  0  0  0  0
   -7.1030    0.0150   -1.4080 C   0  0  0  0  0  0  0  0  0  0  0  0
   -7.8140   -0.3320   -0.2670 O   0  0  0  0  0  0  0  0  0  0  0  0
   -3.6840   -0.1260   -0.8050 C   0  0  0  0  0  0  0  0  0  0  0  0
  1  2  2  0
  2  3  1  0
  2 14  1  0
  3  4  1  0
  4  5  1  0
  5  6  1  0
  6  7  2  0
  6 13  1  0
  8  7  1  1
  8  9  2  0
  8 10  2  0
  8 11  1  0
 11 12  1  0
 11 13  2  0
 14 15  1  0
 15 16  1  0
 16 17  2  0
 16 18  1  0
 18 19  2  0
 18 28  1  0
 19 20  1  0
 20 21  1  1
 20 22  1  0
 20 23  1  0
 23 24  1  0
 24 25  1  0
 24 28  2  0
 25 26  1  0
 26 27  1  0
M  END
