
     RDKit          3D

 38 41  0  0  0  0  0  0  0  0999 V2000
   -2.7900    6.5050    0.3320 C   0  0  0  0  0  0  0  0  0  0  0  0
   -2.2910    6.2340   -0.8530 C   0  0  0  0  0  0  0  0  0  0  0  0
   -0.8470    6.1080   -1.1880 C   0  0  0  0  0  0  0  0  0  0  0  0
   -0.4660    4.8760   -1.7030 O   0  0  0  0  0  0  0  0  0  0  0  0
   -0.5240    3.6710   -1.0950 C   0  0  0  0  0  0  0  0  0  0  0  0
   -0.1110    2.5520   -1.8380 C   0  0  0  0  0  0  0  0  0  0  0  0
   -0.1610    1.3220   -1.2480 C   0  0  0  0  0  0  0  0  0  0  0  0
   -0.5900    1.1210    0.0340 C   0  0  0  0  0  0  0  0  0  0  0  0
   -0.5810   -0.2600    0.6040 C   0  0  1  0  0  0  0  0  0  0  0  0
   -2.0270   -0.7790    0.5430 C   0  0  1  0  0  0  0  0  0  0  0  0
   -2.0650   -2.1090    1.2540 C   0  0  0  0  0  0  0  0  0  0  0  0
   -3.3890   -2.7750    1.3780 C   0  0  0  0  0  0  0  0  0  0  0  0
   -4.0690   -3.2030    0.1540 C   0  0  0  0  0  0  0  0  0  0  0  0
   -5.3220   -3.4810    0.3010 O   0  0  0  0  0  0  0  0  0  0  0  0
   -3.5420   -3.3400   -1.1070 O   0  0  0  0  0  0  0  0  0  0  0  0
   -4.4710   -3.7770   -2.1200 C   0  0  0  0  0  0  0  0  0  0  0  0
   -5.0690   -5.1250   -1.7020 C   0  0  0  0  0  0  0  0  0  0  0  0
   -2.8480    0.1000    1.1830 O   0  0  0  0  0  0  0  0  0  0  0  0
   -3.8070    0.7500    0.4830 C   0  0  0  0  0  0  0  0  0  0  0  0
   -4.8560   -0.0660   -0.1990 C   0  0  0  0  0  0  0  0  0  0  0  0
    0.3960   -1.0400   -0.0420 N   0  0  0  0  0  0  0  0  0  0  0  0
    1.3620   -1.5100    0.8620 C   0  0  1  0  0  0  0  0  0  0  0  0
    1.3660   -3.0590    0.8390 C   0  0  0  0  0  0  0  0  0  0  0  0
    2.7590   -1.1360    0.6790 C   0  0  0  0  0  0  0  0  0  0  0  0
    3.6110   -1.5000    1.7310 C   0  0  0  0  0  0  0  0  0  0  0  0
    4.9550   -1.2450    1.7100 C   0  0  0  0  0  0  0  0  0  0  0  0
    5.5300   -0.6080    0.6350 C   0  0  0  0  0  0  0  0  0  0  0  0
    4.7110   -0.2370   -0.4150 C   0  0  0  0  0  0  0  0  0  0  0  0
    3.3400   -0.5020   -0.3840 C   0  0  0  0  0  0  0  0  0  0  0  0
    5.1560    0.4050   -1.5480 O   0  0  0  0  0  0  0  0  0  0  0  0
    6.3280    1.0370   -1.9430 C   0  0  0  0  0  0  0  0  0  0  0  0
    7.4560    1.0300   -0.9670 C   0  0  0  0  0  0  0  0  0  0  0  0
    7.7760   -0.2940   -0.3570 C   0  0  0  0  0  0  0  0  0  0  0  0
    6.9160   -0.4310    0.7740 O   0  0  0  0  0  0  0  0  0  0  0  0
    0.8770   -1.0790    2.2410 C   0  0  0  0  0  0  0  0  0  0  0  0
   -0.1730   -0.1570    2.0150 N   0  0  0  0  0  0  0  0  0  0  0  0
   -0.9950    2.2010    0.7730 C   0  0  0  0  0  0  0  0  0  0  0  0
   -0.9580    3.4460    0.2120 C   0  0  0  0  0  0  0  0  0  0  0  0
  1  2  2  0
  2  3  1  0
  3  4  1  0
  4  5  1  0
  5  6  2  0
  5 38  1  0
  6  7  1  0
  7  8  2  0
  9  8  1  6
  8 37  1  0
  9 10  1  0
  9 21  1  0
  9 36  1  0
 10 11  1  1
 10 18  1  0
 11 12  1  0
 12 13  1  0
 13 14  2  0
 13 15  1  0
 15 16  1  0
 16 17  1  0
 18 19  1  0
 19 20  1  0
 21 22  1  0
 22 23  1  1
 22 24  1  0
 22 35  1  0
 24 25  2  0
 24 29  1  0
 25 26  1  0
 26 27  2  0
 27 28  1  0
 27 34  1  0
 28 29  2  0
 28 30  1  0
 30 31  1  0
 31 32  1  0
 32 33  1  0
 33 34  1  0
 35 36  1  0
 37 38  2  0
M  CHG  1  36   1
M  END
