
     RDKit          3D

 39 42  0  0  0  0  0  0  0  0999 V2000
   11.0090    0.7440    1.9040 C   0  0  0  0  0  0  0  0  0  0  0  0
    9.5120    0.7500    1.8770 C   0  0  0  0  0  0  0  0  0  0  0  0
    8.7210    0.3420    2.9330 C   0  0  0  0  0  0  0  0  0  0  0  0
    7.4190    0.4870    2.5470 C   0  0  0  0  0  0  0  0  0  0  0  0
    7.4480    0.9800    1.2670 C   0  0  0  0  0  0  0  0  0  0  0  0
    6.2560    1.3050    0.4150 C   0  0  1  0  0  0  0  0  0  0  0  0
    6.1630    2.8240    0.4060 C   0  0  0  0  0  0  0  0  0  0  0  0
    6.4980    0.7760   -0.8900 N   0  0  0  0  0  0  0  0  0  0  0  0
    5.3480    0.6330   -1.7270 C   0  0  0  0  0  0  0  0  0  0  0  0
    4.2030   -0.1200   -1.0440 C   0  0  0  0  0  0  0  0  0  0  0  0
    4.6240   -1.4910   -0.6500 C   0  0  0  0  0  0  0  0  0  0  0  0
    3.6550   -2.3540    0.0690 C   0  0  0  0  0  0  0  0  0  0  0  0
    2.4530   -2.6690   -0.5200 O   0  0  0  0  0  0  0  0  0  0  0  0
    1.3580   -1.9170   -0.8000 C   0  0  0  0  0  0  0  0  0  0  0  0
    1.3180   -0.7070   -0.4990 O   0  0  0  0  0  0  0  0  0  0  0  0
    0.2010   -2.5050   -1.4600 C   0  0  0  0  0  0  0  0  0  0  0  0
    0.1740   -3.8300   -1.8190 C   0  0  0  0  0  0  0  0  0  0  0  0
   -0.9350   -4.3830   -2.4480 C   0  0  0  0  0  0  0  0  0  0  0  0
   -2.0480   -3.6320   -2.7370 C   0  0  0  0  0  0  0  0  0  0  0  0
   -2.0280   -2.2940   -2.3780 C   0  0  0  0  0  0  0  0  0  0  0  0
   -0.9330   -1.7400   -1.7540 C   0  0  0  0  0  0  0  0  0  0  0  0
   -0.8850   -0.4260   -1.3900 O   0  0  0  0  0  0  0  0  0  0  0  0
   -1.8530    0.5560   -1.5450 C   0  0  0  0  0  0  0  0  0  0  0  0
   -3.1230    0.2540   -0.8110 C   0  0  0  0  0  0  0  0  0  0  0  0
   -3.2080   -0.7750   -0.1120 O   0  0  0  0  0  0  0  0  0  0  0  0
   -4.2120    1.1380   -0.9180 N   0  0  0  0  0  0  0  0  0  0  0  0
   -5.4750    1.0170   -0.3050 C   0  0  0  0  0  0  0  0  0  0  0  0
   -5.9000   -0.0200    0.4660 C   0  0  0  0  0  0  0  0  0  0  0  0
   -7.1790   -0.0480    1.0400 C   0  0  0  0  0  0  0  0  0  0  0  0
   -8.0750    0.9750    0.8530 C   0  0  0  0  0  0  0  0  0  0  0  0
   -9.4090    0.9800    1.4330 C   0  0  0  0  0  0  0  0  0  0  0  0
  -10.2540    1.9570    1.2480 C   0  0  0  0  0  0  0  0  0  0  0  0
  -11.6340    1.9830    1.8370 C   0  0  0  0  0  0  0  0  0  0  0  0
  -11.9140    0.8490    2.6060 O   0  0  0  0  0  0  0  0  0  0  0  0
  -11.0380   -0.1810    2.8060 C   0  0  0  0  0  0  0  0  0  0  0  0
   -9.8250   -0.1580    2.2620 C   0  0  0  0  0  0  0  0  0  0  0  0
   -7.6580    2.0230    0.0780 C   0  0  0  0  0  0  0  0  0  0  0  0
   -6.4000    2.0520   -0.4860 C   0  0  0  0  0  0  0  0  0  0  0  0
    8.7120    1.1160    0.9220 O   0  0  0  0  0  0  0  0  0  0  0  0
  1  2  1  0
  2  3  2  0
  2 39  1  0
  3  4  1  0
  4  5  2  0
  5  6  1  0
  5 39  1  0
  6  7  1  6
  6  8  1  0
  8  9  1  0
  9 10  1  0
 10 11  1  0
 11 12  1  0
 12 13  1  0
 13 14  1  0
 14 15  2  0
 14 16  1  0
 16 17  2  0
 16 21  1  0
 17 18  1  0
 18 19  2  0
 19 20  1  0
 20 21  2  0
 21 22  1  0
 22 23  1  0
 23 24  1  0
 24 25  2  0
 24 26  1  0
 26 27  1  0
 27 28  2  0
 27 38  1  0
 28 29  1  0
 29 30  2  0
 30 31  1  0
 30 37  1  0
 31 32  2  0
 31 36  1  0
 32 33  1  0
 33 34  1  0
 34 35  1  0
 35 36  2  0
 37 38  2  0
M  CHG  1   8   1
M  END
