
     RDKit          3D

 39 42  0  0  0  0  0  0  0  0999 V2000
    4.9570    4.1040    2.4750 C   0  0  0  0  0  0  0  0  0  0  0  0
    4.5820    4.3990    1.0300 C   0  0  0  0  0  0  0  0  0  0  0  0
    3.6040    3.3730    0.5300 C   0  0  0  0  0  0  0  0  0  0  0  0
    4.2030    1.9810    0.5980 C   0  0  0  0  0  0  0  0  0  0  0  0
    3.2230    1.0120    0.1010 N   0  0  2  0  0  0  0  0  0  0  0  0
    2.6740    0.2250    1.1770 C   0  0  0  0  0  0  0  0  0  0  0  0
    2.5830   -1.2110    0.5740 C   0  0  0  0  0  0  0  0  0  0  0  0
    3.7960   -1.2830   -0.2520 C   0  0  1  0  0  0  0  0  0  0  0  0
    5.0040   -1.2370    0.7340 C   0  0  0  0  0  0  0  0  0  0  0  0
    4.0400   -2.2770   -1.2540 C   0  0  0  0  0  0  0  0  0  0  0  0
    5.0350   -3.0590   -1.0310 O   0  0  0  0  0  0  0  0  0  0  0  0
    3.3770   -2.5810   -2.5110 C   0  0  0  0  0  0  0  0  0  0  0  0
    2.0930   -2.1680   -2.7490 O   0  0  0  0  0  0  0  0  0  0  0  0
    0.9870   -2.6890   -2.1090 C   0  0  0  0  0  0  0  0  0  0  0  0
    1.1320   -3.7090   -1.1960 C   0  0  0  0  0  0  0  0  0  0  0  0
    0.0040   -4.2220   -0.5620 C   0  0  0  0  0  0  0  0  0  0  0  0
   -1.2650   -3.7480   -0.8110 C   0  0  0  0  0  0  0  0  0  0  0  0
   -2.4160   -4.3140   -0.1240 C   0  0  0  0  0  0  0  0  0  0  0  0
   -2.2480   -5.2450    0.7020 O   0  0  0  0  0  0  0  0  0  0  0  0
   -3.6800   -3.8530   -0.3590 O   0  0  0  0  0  0  0  0  0  0  0  0
   -4.8550   -4.3380    0.2560 C   0  0  0  0  0  0  0  0  0  0  0  0
   -1.3810   -2.7250   -1.7310 C   0  0  0  0  0  0  0  0  0  0  0  0
   -0.2950   -2.1880   -2.3790 C   0  0  0  0  0  0  0  0  0  0  0  0
   -0.3370   -1.1630   -3.3040 O   0  0  0  0  0  0  0  0  0  0  0  0
   -1.5600   -0.5660   -3.6320 C   0  0  0  0  0  0  0  0  0  0  0  0
   -2.2290    0.0800   -2.4800 C   0  0  0  0  0  0  0  0  0  0  0  0
   -1.6540    0.2970   -1.2530 C   0  0  0  0  0  0  0  0  0  0  0  0
   -2.3420    0.9060   -0.2100 C   0  0  0  0  0  0  0  0  0  0  0  0
   -3.6590    1.3260   -0.3680 C   0  0  0  0  0  0  0  0  0  0  0  0
   -4.4030    1.9260    0.7160 C   0  0  0  0  0  0  0  0  0  0  0  0
   -3.9500    2.0260    1.9550 C   0  0  0  0  0  0  0  0  0  0  0  0
   -4.6810    2.6170    3.0270 N   0  0  0  0  0  0  0  0  0  0  0  0
   -5.9940    3.1600    2.8700 C   0  0  0  0  0  0  0  0  0  0  0  0
   -6.6830    2.5010    1.6960 C   0  0  0  0  0  0  0  0  0  0  0  0
   -5.7410    2.5160    0.5290 C   0  0  0  0  0  0  0  0  0  0  0  0
   -6.0700    3.0080   -0.5570 O   0  0  0  0  0  0  0  0  0  0  0  0
   -4.2330    1.1070   -1.5990 C   0  0  0  0  0  0  0  0  0  0  0  0
   -3.5320    0.4990   -2.6300 C   0  0  0  0  0  0  0  0  0  0  0  0
    3.8430    0.1500   -0.8640 C   0  0  0  0  0  0  0  0  0  0  0  0
  1  2  1  0
  2  3  1  0
  3  4  1  0
  5  4  1  1
  5  6  1  0
  5 39  1  0
  6  7  1  0
  7  8  1  0
  8  9  1  1
  8 10  1  0
  8 39  1  0
 10 11  2  0
 10 12  1  0
 12 13  1  0
 13 14  1  0
 14 15  2  0
 14 23  1  0
 15 16  1  0
 16 17  2  0
 17 18  1  0
 17 22  1  0
 18 19  2  0
 18 20  1  0
 20 21  1  0
 22 23  2  0
 23 24  1  0
 24 25  1  0
 25 26  1  0
 26 27  2  0
 26 38  1  0
 27 28  1  0
 28 29  2  0
 29 30  1  0
 29 37  1  0
 30 31  2  0
 30 35  1  0
 31 32  1  0
 32 33  1  0
 33 34  1  0
 34 35  1  0
 35 36  2  0
 37 38  2  0
M  CHG  1   5   1
M  END
