
     RDKit          3D

 39 42  0  0  0  0  0  0  0  0999 V2000
    8.9280   -3.3480   -2.7710 C   0  0  0  0  0  0  0  0  0  0  0  0
    8.9460   -2.1760   -3.6790 C   0  0  0  0  0  0  0  0  0  0  0  0
    7.6980   -1.4080   -3.7530 C   0  0  0  0  0  0  0  0  0  0  0  0
    7.1650   -0.7370   -2.6330 N   0  0  0  0  0  0  0  0  0  0  0  0
    6.6830   -1.2150   -1.4200 C   0  0  0  0  0  0  0  0  0  0  0  0
    6.7030   -2.4630   -1.2340 O   0  0  0  0  0  0  0  0  0  0  0  0
    6.1660   -0.3360   -0.3790 C   0  0  0  0  0  0  0  0  0  0  0  0
    5.7430    0.9230   -0.6680 C   0  0  0  0  0  0  0  0  0  0  0  0
    5.2340    1.7670    0.3290 C   0  0  0  0  0  0  0  0  0  0  0  0
    5.1680    1.2780    1.6440 C   0  0  0  0  0  0  0  0  0  0  0  0
    4.6770    2.1100    2.5710 O   0  0  0  0  0  0  0  0  0  0  0  0
    4.4650    1.9520    3.8930 C   0  0  0  0  0  0  0  0  0  0  0  0
    3.4830    0.9700    4.4180 C   0  0  0  0  0  0  0  0  0  0  0  0
    2.1630    1.1030    4.0750 O   0  0  0  0  0  0  0  0  0  0  0  0
    1.4880    1.0440    2.9150 C   0  0  0  0  0  0  0  0  0  0  0  0
    2.1210    0.8140    1.8640 O   0  0  0  0  0  0  0  0  0  0  0  0
    0.0290    1.2360    2.7910 C   0  0  0  0  0  0  0  0  0  0  0  0
   -0.7460    1.5190    3.8940 C   0  0  0  0  0  0  0  0  0  0  0  0
   -2.1280    1.7020    3.7720 C   0  0  0  0  0  0  0  0  0  0  0  0
   -2.7520    1.6040    2.5480 C   0  0  0  0  0  0  0  0  0  0  0  0
   -1.9880    1.3220    1.4460 C   0  0  0  0  0  0  0  0  0  0  0  0
   -0.6050    1.1400    1.5730 C   0  0  0  0  0  0  0  0  0  0  0  0
   -2.9070    1.2690    0.2730 C   0  0  0  0  0  0  0  0  0  0  0  0
   -4.0900    2.0390    0.7570 C   0  0  1  0  0  0  0  0  0  0  0  0
   -5.3480    1.9870    0.0410 C   0  0  0  0  0  0  0  0  0  0  0  0
   -6.0940    0.7430   -0.2000 C   0  0  2  0  0  0  0  0  0  0  0  0
   -6.4460    0.0060    0.9770 N   0  0  0  0  0  0  0  0  0  0  0  0
   -7.7970    0.2530    1.4160 C   0  0  0  0  0  0  0  0  0  0  0  0
   -5.7560   -0.0410   -1.4030 C   0  0  0  0  0  0  0  0  0  0  0  0
   -4.7510    0.2830   -2.2890 C   0  0  0  0  0  0  0  0  0  0  0  0
   -4.4350   -0.4470   -3.4200 C   0  0  0  0  0  0  0  0  0  0  0  0
   -5.1480   -1.5800   -3.7200 C   0  0  0  0  0  0  0  0  0  0  0  0
   -6.1550   -1.9390   -2.8700 C   0  0  0  0  0  0  0  0  0  0  0  0
   -6.4580   -1.2030   -1.7490 C   0  0  0  0  0  0  0  0  0  0  0  0
   -7.4980   -1.5930   -0.8990 O   0  0  0  0  0  0  0  0  0  0  0  0
   -8.3010   -2.7190   -1.0890 C   0  0  0  0  0  0  0  0  0  0  0  0
   -4.0980    1.7410    2.1420 O   0  0  0  0  0  0  0  0  0  0  0  0
    5.5960    0.0110    1.9300 C   0  0  0  0  0  0  0  0  0  0  0  0
    6.1050   -0.8280    0.9240 C   0  0  0  0  0  0  0  0  0  0  0  0
  1  2  1  0
  2  3  1  0
  3  4  1  0
  4  5  1  0
  5  6  2  0
  5  7  1  0
  7  8  2  0
  7 39  1  0
  8  9  1  0
  9 10  2  0
 10 11  1  0
 10 38  1  0
 11 12  1  0
 12 13  1  0
 13 14  1  0
 14 15  1  0
 15 16  2  0
 15 17  1  0
 17 18  2  0
 17 22  1  0
 18 19  1  0
 19 20  2  0
 20 21  1  0
 20 37  1  0
 21 22  2  0
 21 23  1  0
 23 24  1  0
 24 25  1  6
 24 37  1  0
 26 25  1  1
 26 27  1  0
 26 29  1  0
 27 28  1  0
 29 30  2  0
 29 34  1  0
 30 31  1  0
 31 32  2  0
 32 33  1  0
 33 34  2  0
 34 35  1  0
 35 36  1  0
 38 39  2  0
M  CHG  1  27   1
M  END
