
     RDKit          3D

 39 42  0  0  0  0  0  0  0  0999 V2000
   10.1560    0.9680   -0.1750 C   0  0  0  0  0  0  0  0  0  0  0  0
    9.6860    1.8520    0.7580 O   0  0  0  0  0  0  0  0  0  0  0  0
    8.5200    1.4830    1.3230 C   0  0  0  0  0  0  0  0  0  0  0  0
    7.3400    1.4070    0.4020 C   0  0  0  0  0  0  0  0  0  0  0  0
    7.4870    1.7570   -0.7850 O   0  0  0  0  0  0  0  0  0  0  0  0
    6.0880    0.9560    0.8490 N   0  0  0  0  0  0  0  0  0  0  0  0
    4.9030    0.8290    0.1070 C   0  0  0  0  0  0  0  0  0  0  0  0
    4.8450    0.9530   -1.2350 C   0  0  0  0  0  0  0  0  0  0  0  0
    3.6280    0.8310   -1.9060 C   0  0  0  0  0  0  0  0  0  0  0  0
    2.4900    0.5840   -1.1960 C   0  0  0  0  0  0  0  0  0  0  0  0
    2.4910    0.4460    0.1900 C   0  0  0  0  0  0  0  0  0  0  0  0
    1.2450    0.1780    0.9530 C   0  0  0  0  0  0  0  0  0  0  0  0
    0.1870    0.1850    0.0460 O   0  0  0  0  0  0  0  0  0  0  0  0
   -1.0350   -0.0640    0.7130 C   0  0  1  0  0  0  0  0  0  0  0  0
   -1.9110    1.1310    0.4090 C   0  0  0  0  0  0  0  0  0  0  0  0
   -3.2180    1.0360    1.0320 N   0  0  0  0  0  0  0  0  0  0  0  0
   -4.2790    1.3600    0.1110 C   0  0  1  0  0  0  0  0  0  0  0  0
   -5.4590    0.4340    0.4430 C   0  0  0  0  0  0  0  0  0  0  0  0
   -4.7570    2.7680    0.2420 C   0  0  0  0  0  0  0  0  0  0  0  0
   -5.0190    3.3180    1.4680 C   0  0  0  0  0  0  0  0  0  0  0  0
   -5.4560    4.6250    1.5510 C   0  0  0  0  0  0  0  0  0  0  0  0
   -5.6460    5.4170    0.4450 C   0  0  0  0  0  0  0  0  0  0  0  0
   -6.0860    6.7270    0.5420 O   0  0  0  0  0  0  0  0  0  0  0  0
   -6.2680    7.5050   -0.6140 C   0  0  0  0  0  0  0  0  0  0  0  0
   -5.3820    4.8580   -0.7770 C   0  0  0  0  0  0  0  0  0  0  0  0
   -4.9440    3.5570   -0.8880 C   0  0  0  0  0  0  0  0  0  0  0  0
   -1.6040   -1.3120    0.0730 C   0  0  0  0  0  0  0  0  0  0  0  0
   -0.7500   -2.4170    0.2030 O   0  0  0  0  0  0  0  0  0  0  0  0
   -1.1570   -3.6280   -0.3420 C   0  0  0  0  0  0  0  0  0  0  0  0
   -2.3610   -3.7790   -1.0010 C   0  0  0  0  0  0  0  0  0  0  0  0
   -2.7460   -4.9910   -1.5350 C   0  0  0  0  0  0  0  0  0  0  0  0
   -1.9320   -6.1170   -1.4320 C   0  0  0  0  0  0  0  0  0  0  0  0
   -0.7360   -5.9630   -0.7760 C   0  0  0  0  0  0  0  0  0  0  0  0
   -0.3580   -4.7550   -0.2460 C   0  0  0  0  0  0  0  0  0  0  0  0
    0.9450   -4.6080    0.4620 C   0  0  0  0  0  0  0  0  0  0  0  0
    1.2290   -5.9730    1.1050 C   0  0  0  0  0  0  0  0  0  0  0  0
    1.3880   -6.9550   -0.0460 C   0  0  0  0  0  0  0  0  0  0  0  0
    0.1000   -7.0540   -0.6510 O   0  0  0  0  0  0  0  0  0  0  0  0
    3.7150    0.5750    0.7980 C   0  0  0  0  0  0  0  0  0  0  0  0
  1  2  1  0
  2  3  1  0
  3  4  1  0
  4  5  2  0
  4  6  1  0
  6  7  1  0
  7  8  2  0
  7 39  1  0
  8  9  1  0
  9 10  2  0
 10 11  1  0
 11 12  1  0
 11 39  2  0
 12 13  1  0
 13 14  1  0
 14 15  1  6
 14 27  1  0
 15 16  1  0
 16 17  1  0
 17 18  1  1
 17 19  1  0
 19 20  2  0
 19 26  1  0
 20 21  1  0
 21 22  2  0
 22 23  1  0
 22 25  1  0
 23 24  1  0
 25 26  2  0
 27 28  1  0
 28 29  1  0
 29 30  2  0
 29 34  1  0
 30 31  1  0
 31 32  2  0
 32 33  1  0
 33 34  2  0
 33 38  1  0
 34 35  1  0
 35 36  1  0
 36 37  1  0
 37 38  1  0
M  CHG  1  16   1
M  END
