
     RDKit          3D

 25 27  0  0  0  0  0  0  0  0999 V2000
   -2.0110   -2.7780    1.6730 C   0  0  0  0  0  0  0  0  0  0  0  0
   -1.4300   -1.7190    0.7150 C   0  0  2  0  0  0  0  0  0  0  0  0
   -2.3880   -1.7120   -0.4660 C   0  0  0  0  0  0  0  0  0  0  0  0
   -3.0650   -0.4200   -0.7080 C   0  0  1  0  0  0  0  0  0  0  0  0
   -4.2360   -0.0400   -0.0810 O   0  0  0  0  0  0  0  0  0  0  0  0
   -2.9510    0.6570    0.1910 C   0  0  2  0  0  0  0  0  0  0  0  0
   -2.7860    1.9560   -0.5100 C   0  0  0  0  0  0  0  0  0  0  0  0
   -2.1090    2.9980   -0.0900 C   0  0  0  0  0  0  0  0  0  0  0  0
   -1.3580    3.1710    1.1300 C   0  0  0  0  0  0  0  0  0  0  0  0
   -0.3320    2.5090    1.6000 C   0  0  0  0  0  0  0  0  0  0  0  0
    0.3600    1.3780    1.0050 C   0  0  0  0  0  0  0  0  0  0  0  0
    0.8870    0.5380    1.8310 O   0  0  0  0  0  0  0  0  0  0  0  0
    0.5210    1.0920   -0.4330 C   0  0  0  0  0  0  0  0  0  0  0  0
    1.8180    0.3930   -0.6230 C   0  0  0  0  0  0  0  0  0  0  0  0
    2.7960    1.1550   -1.2490 C   0  0  0  0  0  0  0  0  0  0  0  0
    2.5070    2.8100   -1.7410 Cl  0  0  0  0  0  0  0  0  0  0  0  0
    4.0540    0.6410   -1.5140 C   0  0  0  0  0  0  0  0  0  0  0  0
    5.0260    1.4180   -2.1420 O   0  0  0  0  0  0  0  0  0  0  0  0
    4.3040   -0.6420   -1.1410 C   0  0  0  0  0  0  0  0  0  0  0  0
    3.3160   -1.4260   -0.5040 C   0  0  0  0  0  0  0  0  0  0  0  0
    3.7450   -2.6990   -0.2020 O   0  0  0  0  0  0  0  0  0  0  0  0
    2.0640   -0.9080   -0.2410 C   0  0  0  0  0  0  0  0  0  0  0  0
    1.1130   -1.7960    0.4520 C   0  0  0  0  0  0  0  0  0  0  0  0
    1.7000   -2.4810    1.4010 O   0  0  0  0  0  0  0  0  0  0  0  0
   -0.1790   -1.9840    0.2570 O   0  0  0  0  0  0  0  0  0  0  0  0
  2  1  1  1
  2  3  1  0
  2 25  1  0
  4  3  1  1
  4  5  1  0
  4  6  1  0
  6  5  1  6
  6  7  1  0
  7  8  2  0
  8  9  1  0
  9 10  2  0
 10 11  1  0
 11 12  2  0
 11 13  1  0
 13 14  1  0
 14 15  2  0
 14 22  1  0
 15 16  1  0
 15 17  1  0
 17 18  1  0
 17 19  2  0
 19 20  1  0
 20 21  1  0
 20 22  2  0
 22 23  1  0
 23 24  2  0
 23 25  1  0
M  END
