
     RDKit          3D

 18 19  0  0  0  0  0  0  0  0999 V2000
    1.2420   -0.6320    2.0520 C   0  0  0  0  0  0  0  0  0  0  0  0
    0.7960   -0.3860    0.6960 N   0  0  0  0  0  0  0  0  0  0  0  0
    1.7820   -0.2040   -0.3100 C   0  0  0  0  0  0  0  0  0  0  0  0
    3.1490   -0.4250    0.1400 C   0  0  0  0  0  0  0  0  0  0  0  0
    4.1260   -0.2780   -0.7250 C   0  0  0  0  0  0  0  0  0  0  0  0
    5.4800   -0.4840   -0.3260 N   0  0  0  0  0  0  0  0  0  0  0  0
    1.6100    0.1200   -1.5280 N   0  0  0  0  0  0  0  0  0  0  0  0
    0.4720    0.4120   -2.3280 C   0  0  0  0  0  0  0  0  0  0  0  0
   -0.7980    0.3990   -1.9520 C   0  0  0  0  0  0  0  0  0  0  0  0
   -1.3620    0.0890   -0.6490 C   0  0  0  0  0  0  0  0  0  0  0  0
   -2.6560    0.3000   -0.7920 C   0  0  0  0  0  0  0  0  0  0  0  0
   -3.1300    0.7350   -2.0590 N   0  0  0  0  0  0  0  0  0  0  0  0
   -3.6390    0.1350    0.2080 N   0  0  0  0  0  0  0  0  0  0  0  0
   -3.5800   -0.1870    1.6090 C   0  0  0  0  0  0  0  0  0  0  0  0
   -2.4410   -0.9960    2.0270 C   0  0  0  0  0  0  0  0  0  0  0  0
   -2.6620   -1.9830    2.8110 O   0  0  0  0  0  0  0  0  0  0  0  0
   -1.0740   -0.8140    1.6560 N   0  0  0  0  0  0  0  0  0  0  0  0
   -0.6150   -0.3530    0.5170 C   0  0  0  0  0  0  0  0  0  0  0  0
  1  2  1  0
  2  3  1  0
  2 18  1  0
  3  4  1  0
  3  7  2  0
  4  5  2  3
  5  6  1  0
  7  8  1  0
  8  9  2  0
  9 10  1  0
 10 11  2  0
 10 18  1  0
 11 12  1  0
 11 13  1  0
 13 14  1  0
 14 15  1  0
 15 16  2  0
 15 17  1  0
 17 18  2  0
M  END
