
     RDKit          3D

 18 20  0  0  0  0  0  0  0  0999 V2000
    5.8630   -0.2490   -0.5030 C   0  0  0  0  0  0  0  0  0  0  0  0
    4.7770   -1.0100    0.0240 O   0  0  0  0  0  0  0  0  0  0  0  0
    3.4940   -0.4970   -0.0960 C   0  0  0  0  0  0  0  0  0  0  0  0
    2.4080   -1.1820    0.3900 C   0  0  0  0  0  0  0  0  0  0  0  0
    1.1180   -0.6890    0.2810 C   0  0  0  0  0  0  0  0  0  0  0  0
    0.9650    0.5330   -0.3430 C   0  0  0  0  0  0  0  0  0  0  0  0
    2.0570    1.2350   -0.8400 C   0  0  0  0  0  0  0  0  0  0  0  0
    3.2640    0.6920   -0.6950 N   0  0  0  0  0  0  0  0  0  0  0  0
   -0.3610    1.0520   -0.4620 N   0  0  0  0  0  0  0  0  0  0  0  0
   -1.4000    0.4320   -0.0140 C   0  0  0  0  0  0  0  0  0  0  0  0
   -1.3070   -0.8620    0.6550 C   0  0  0  0  0  0  0  0  0  0  0  0
   -2.3660   -1.4380    1.0810 N   0  0  0  0  0  0  0  0  0  0  0  0
   -3.6790   -0.8980    0.9500 C   0  0  0  0  0  0  0  0  0  0  0  0
   -4.7950   -1.6090    1.4540 N   0  0  0  0  0  0  0  0  0  0  0  0
   -3.8620    0.2820    0.3510 C   0  0  0  0  0  0  0  0  0  0  0  0
   -2.7240    0.9770   -0.1470 N   0  0  0  0  0  0  0  0  0  0  0  0
   -2.8300    2.2600   -0.8090 C   0  0  0  0  0  0  0  0  0  0  0  0
    0.0010   -1.4140    0.7930 N   0  0  0  0  0  0  0  0  0  0  0  0
  1  2  1  0
  2  3  1  0
  3  4  2  0
  3  8  1  0
  4  5  1  0
  5  6  2  0
  5 18  1  0
  6  7  1  0
  6  9  1  0
  7  8  2  0
  9 10  2  0
 10 11  1  0
 10 16  1  0
 11 12  2  0
 11 18  1  0
 12 13  1  0
 13 14  1  0
 13 15  2  0
 15 16  1  0
 16 17  1  0
M  END
