
     RDKit          3D

 31 33  0  0  0  0  0  0  0  0999 V2000
   -3.5630    3.4810   -0.2010 C   0  0  0  0  0  0  0  0  0  0  0  0
   -4.7320    2.9010    0.0190 C   0  0  0  0  0  0  0  0  0  0  0  0
   -4.9070    1.6710    0.8280 C   0  0  0  0  0  0  0  0  0  0  0  0
   -5.4960    0.6070    0.0890 N   0  0  0  0  0  0  0  0  0  0  0  0
   -4.6490    0.0480   -0.9570 C   0  0  1  0  0  0  0  0  0  0  0  0
   -4.3100    0.9950   -2.0060 C   0  0  0  0  0  0  0  0  0  0  0  0
   -5.2300    1.7000   -2.5840 O   0  0  0  0  0  0  0  0  0  0  0  0
   -2.9970    1.2070   -2.4540 N   0  0  0  0  0  0  0  0  0  0  0  0
   -1.9140    0.4890   -1.8620 C   0  0  0  0  0  0  0  0  0  0  0  0
   -0.6790    0.7130   -2.2630 C   0  0  0  0  0  0  0  0  0  0  0  0
    0.4440    0.0190   -1.7090 C   0  0  0  0  0  0  0  0  0  0  0  0
    0.6770   -1.3220   -1.4960 C   0  0  0  0  0  0  0  0  0  0  0  0
    1.9330   -1.3970   -0.9290 C   0  0  0  0  0  0  0  0  0  0  0  0
    2.4230   -0.1130   -0.8150 C   0  0  0  0  0  0  0  0  0  0  0  0
    3.7470    0.2420   -0.2530 C   0  0  0  0  0  0  0  0  0  0  0  0
    4.0480    1.4460   -0.1840 O   0  0  0  0  0  0  0  0  0  0  0  0
    4.6550   -0.7230    0.1950 N   0  0  0  0  0  0  0  0  0  0  0  0
    5.9330   -0.5410    0.7500 C   0  0  0  0  0  0  0  0  0  0  0  0
    6.4880    0.6900    0.9780 C   0  0  0  0  0  0  0  0  0  0  0  0
    7.7760    0.8160    1.5440 C   0  0  0  0  0  0  0  0  0  0  0  0
    8.5190   -0.2890    1.8860 C   0  0  0  0  0  0  0  0  0  0  0  0
    9.7450   -0.1480    2.4260 F   0  0  0  0  0  0  0  0  0  0  0  0
    7.9700   -1.5310    1.6610 C   0  0  0  0  0  0  0  0  0  0  0  0
    6.7180   -1.6290    1.1100 C   0  0  0  0  0  0  0  0  0  0  0  0
    6.1770   -2.8600    0.8860 F   0  0  0  0  0  0  0  0  0  0  0  0
    1.5250    0.6800   -1.2810 O   0  0  0  0  0  0  0  0  0  0  0  0
   -2.2680   -0.4400   -0.8050 C   0  0  0  0  0  0  0  0  0  0  0  0
   -3.4820   -0.6400   -0.3980 C   0  0  0  0  0  0  0  0  0  0  0  0
   -3.6850   -1.6380    0.7140 C   0  0  2  0  0  0  0  0  0  0  0  0
   -2.3830   -2.2160    1.1350 C   0  0  0  0  0  0  0  0  0  0  0  0
   -4.4630   -2.6660    0.1370 O   0  0  0  0  0  0  0  0  0  0  0  0
  1  2  2  0
  2  3  1  0
  3  4  1  0
  5  4  1  1
  5  6  1  0
  5 28  1  0
  6  7  2  0
  6  8  1  0
  8  9  1  0
  9 10  2  3
  9 27  1  0
 10 11  1  0
 11 12  2  0
 11 26  1  0
 12 13  1  0
 13 14  2  0
 14 15  1  0
 14 26  1  0
 15 16  2  0
 15 17  1  0
 17 18  1  0
 18 19  2  0
 18 24  1  0
 19 20  1  0
 20 21  2  0
 21 22  1  0
 21 23  1  0
 23 24  2  0
 24 25  1  0
 27 28  2  0
 28 29  1  0
 29 30  1  6
 29 31  1  0
M  END
