
     RDKit          3D

 31 32  0  0  0  0  0  0  0  0999 V2000
    7.6200    3.3830    1.5160 C   0  0  0  0  0  0  0  0  0  0  0  0
    6.3330    2.8900    1.0870 C   0  0  0  0  0  0  0  0  0  0  0  0
    5.8330    2.2980    0.0620 C   0  0  0  0  0  0  0  0  0  0  0  0
    4.4480    2.0150    0.1260 C   0  0  0  0  0  0  0  0  0  0  0  0
    3.7270    1.3940   -0.8530 C   0  0  0  0  0  0  0  0  0  0  0  0
    2.3080    1.1180   -0.7580 C   0  0  0  0  0  0  0  0  0  0  0  0
    1.4900    2.0570   -0.5220 O   0  0  0  0  0  0  0  0  0  0  0  0
    1.7630   -0.2270   -0.9250 C   0  0  0  0  0  0  0  0  0  0  0  0
    2.5640   -1.3620   -0.9720 C   0  0  0  0  0  0  0  0  0  0  0  0
    1.7110   -2.4090   -1.1340 C   0  0  0  0  0  0  0  0  0  0  0  0
    0.4260   -1.9140   -1.1830 C   0  0  0  0  0  0  0  0  0  0  0  0
   -0.8520   -2.6850   -1.3510 C   0  0  1  0  0  0  0  0  0  0  0  0
   -0.5180   -4.1350   -1.0670 C   0  0  0  0  0  0  0  0  0  0  0  0
    0.0490   -4.1960    0.2020 O   0  0  0  0  0  0  0  0  0  0  0  0
   -1.7880   -2.1540   -0.3780 N   0  0  0  0  0  0  0  0  0  0  0  0
   -3.0540   -1.6050   -0.7080 C   0  0  0  0  0  0  0  0  0  0  0  0
   -3.3820   -1.5780   -1.9100 O   0  0  0  0  0  0  0  0  0  0  0  0
   -3.9610   -1.0900    0.2490 N   0  0  0  0  0  0  0  0  0  0  0  0
   -5.2360   -0.5390   -0.0970 C   0  0  0  0  0  0  0  0  0  0  0  0
   -6.0300   -0.0550    1.0650 C   0  0  1  0  0  0  0  0  0  0  0  0
   -5.3300    1.0370    1.8450 C   0  0  0  0  0  0  0  0  0  0  0  0
   -7.3420    0.5000    0.5580 C   0  0  0  0  0  0  0  0  0  0  0  0
   -6.3610   -1.1510    2.0550 C   0  0  0  0  0  0  0  0  0  0  0  0
   -7.1010   -0.5650    3.0830 O   0  0  0  0  0  0  0  0  0  0  0  0
    0.5320   -0.6110   -1.0530 O   0  0  0  0  0  0  0  0  0  0  0  0
    4.4200    1.0250   -1.9780 C   0  0  0  0  0  0  0  0  0  0  0  0
    3.7660    0.4060   -2.9870 F   0  0  0  0  0  0  0  0  0  0  0  0
    5.7650    1.2820   -2.0780 C   0  0  0  0  0  0  0  0  0  0  0  0
    6.5110    1.9280   -1.0560 C   0  0  0  0  0  0  0  0  0  0  0  0
    7.7710    2.0810   -1.3250 C   0  0  0  0  0  0  0  0  0  0  0  0
    8.7540    2.6180   -0.6340 F   0  0  0  0  0  0  0  0  0  0  0  0
  1  2  1  0
  2  3  2  3
  3  4  1  0
  3 29  1  0
  4  5  2  0
  5  6  1  0
  5 26  1  0
  6  7  2  0
  6  8  1  0
  8  9  2  0
  8 25  1  0
  9 10  1  0
 10 11  2  0
 11 12  1  0
 11 25  1  0
 12 13  1  1
 12 15  1  0
 13 14  1  0
 15 16  1  0
 16 17  2  0
 16 18  1  0
 18 19  1  0
 19 20  1  0
 20 21  1  1
 20 22  1  0
 20 23  1  0
 23 24  1  0
 26 27  1  0
 26 28  2  0
 28 29  1  0
 29 30  2  3
 30 31  1  0
M  END
