
     RDKit          3D

 29 30  0  0  0  0  0  0  0  0999 V2000
   -3.6060   -3.5170   -1.4650 C   0  0  0  0  0  0  0  0  0  0  0  0
   -2.1770   -3.7260   -1.1050 C   0  0  0  0  0  0  0  0  0  0  0  0
   -1.6980   -3.0860    0.1130 C   0  0  0  0  0  0  0  0  0  0  0  0
   -1.6940   -1.6530    0.2470 N   0  0  0  0  0  0  0  0  0  0  0  0
   -2.7880   -0.7920    0.3160 C   0  0  0  0  0  0  0  0  0  0  0  0
   -3.9210   -1.3230    0.2880 O   0  0  0  0  0  0  0  0  0  0  0  0
   -2.7010    0.7120    0.4230 C   0  0  0  0  0  0  0  0  0  0  0  0
   -3.9100    1.3860    0.5410 C   0  0  0  0  0  0  0  0  0  0  0  0
   -5.2630    0.9720    0.5910 N   0  0  0  0  0  0  0  0  0  0  0  0
   -6.2790    2.0350    0.7230 C   0  0  0  0  0  0  0  0  0  0  0  0
   -3.4040    3.1380    0.6380 S   0  0  0  0  0  0  0  0  0  0  0  0
   -1.7100    2.8210    0.5170 C   0  0  0  0  0  0  0  0  0  0  0  0
   -0.6250    3.8290    0.5280 C   0  0  0  0  0  0  0  0  0  0  0  0
    0.5700    3.5450    0.4390 O   0  0  0  0  0  0  0  0  0  0  0  0
   -0.9790    5.1800    0.6460 O   0  0  0  0  0  0  0  0  0  0  0  0
    0.0020    6.1980    0.6640 C   0  0  0  0  0  0  0  0  0  0  0  0
   -1.5770    1.4220    0.4080 C   0  0  0  0  0  0  0  0  0  0  0  0
   -0.2150    0.9540    0.2570 N   0  0  0  0  0  0  0  0  0  0  0  0
    0.4000    0.8990   -1.0230 C   0  0  0  0  0  0  0  0  0  0  0  0
   -0.2430    1.2580   -2.0280 O   0  0  0  0  0  0  0  0  0  0  0  0
    1.7960    0.4140   -1.1370 C   0  0  0  0  0  0  0  0  0  0  0  0
    2.3110    0.0640    0.1530 O   0  0  0  0  0  0  0  0  0  0  0  0
    3.5970   -0.4170    0.3150 C   0  0  0  0  0  0  0  0  0  0  0  0
    4.5160    0.3320    0.8950 C   0  0  0  0  0  0  0  0  0  0  0  0
    5.9130   -0.0430    1.1330 C   0  0  0  0  0  0  0  0  0  0  0  0
    6.3000   -1.4030    0.6650 C   0  0  0  0  0  0  0  0  0  0  0  0
    5.2160   -2.1670    0.0310 C   0  0  0  0  0  0  0  0  0  0  0  0
    3.9790   -1.7440   -0.1410 C   0  0  0  0  0  0  0  0  0  0  0  0
    3.0030   -2.6470   -0.8040 C   0  0  0  0  0  0  0  0  0  0  0  0
  1  2  1  0
  2  3  1  0
  3  4  1  0
  4  5  1  0
  5  6  2  0
  5  7  1  0
  7  8  2  0
  7 17  1  0
  8  9  1  0
  8 11  1  0
  9 10  1  0
 11 12  1  0
 12 13  1  0
 12 17  2  0
 13 14  2  0
 13 15  1  0
 15 16  1  0
 17 18  1  0
 18 19  1  0
 19 20  2  0
 19 21  1  0
 21 22  1  0
 22 23  1  0
 23 24  2  0
 23 28  1  0
 24 25  1  0
 25 26  1  0
 26 27  1  0
 27 28  2  0
 28 29  1  0
M  END
