
     RDKit          3D

 29 30  0  0  0  0  0  0  0  0999 V2000
   -5.1020   -0.8150    2.3340 C   0  0  0  0  0  0  0  0  0  0  0  0
   -5.7310   -0.8210    1.2000 C   0  0  0  0  0  0  0  0  0  0  0  0
   -5.0470   -0.5890   -0.0740 C   0  0  0  0  0  0  0  0  0  0  0  0
   -5.7550   -0.5360   -1.1640 C   0  0  0  0  0  0  0  0  0  0  0  0
   -5.1030   -0.2960   -2.4790 C   0  0  0  0  0  0  0  0  0  0  0  0
   -3.5640   -0.7830   -0.1460 C   0  0  0  0  0  0  0  0  0  0  0  0
   -3.2080   -1.9990   -0.7440 C   0  0  0  0  0  0  0  0  0  0  0  0
   -4.0690   -3.0270   -1.2650 N   0  0  0  0  0  0  0  0  0  0  0  0
   -1.4640   -2.0480   -0.6940 S   0  0  0  0  0  0  0  0  0  0  0  0
   -1.2850   -0.3930    0.1530 C   0  0  0  0  0  0  0  0  0  0  0  0
    0.0300   -0.0040    0.6060 C   0  0  0  0  0  0  0  0  0  0  0  0
    0.0600    1.0290    1.3780 O   0  0  0  0  0  0  0  0  0  0  0  0
    1.2750   -0.5730    0.3600 N   0  0  0  0  0  0  0  0  0  0  0  0
    2.3630   -0.0710    1.1480 N   0  0  0  0  0  0  0  0  0  0  0  0
    3.3220    0.8380    0.6810 C   0  0  0  0  0  0  0  0  0  0  0  0
    3.2730    1.2770   -0.4780 O   0  0  0  0  0  0  0  0  0  0  0  0
    4.3830    1.2270    1.6540 C   0  0  0  0  0  0  0  0  0  0  0  0
    5.5350    1.9660    1.1160 C   0  0  0  0  0  0  0  0  0  0  0  0
    6.3380    1.2390    0.1000 C   0  0  0  0  0  0  0  0  0  0  0  0
    5.9780    0.1120   -0.2960 O   0  0  0  0  0  0  0  0  0  0  0  0
    7.4940    1.7910   -0.4210 O   0  0  0  0  0  0  0  0  0  0  0  0
    8.2940    1.1260   -1.3890 C   0  0  0  0  0  0  0  0  0  0  0  0
    1.5720   -1.5920   -0.5450 C   0  0  0  0  0  0  0  0  0  0  0  0
    2.9970   -2.1710   -0.4680 C   0  0  0  0  0  0  0  0  0  0  0  0
    0.8280   -2.0920   -1.3990 O   0  0  0  0  0  0  0  0  0  0  0  0
   -2.5380   -0.0120    0.2780 C   0  0  0  0  0  0  0  0  0  0  0  0
   -2.9410    1.3910    0.7920 C   0  0  2  0  0  0  0  0  0  0  0  0
   -3.1450    2.3800   -0.3380 C   0  0  0  0  0  0  0  0  0  0  0  0
   -1.9820    2.4840    0.6090 C   0  0  0  0  0  0  0  0  0  0  0  0
  1  2  2  0
  2  3  1  0
  3  4  2  3
  3  6  1  0
  4  5  1  0
  6  7  2  0
  6 26  1  0
  7  8  1  0
  7  9  1  0
  9 10  1  0
 10 11  1  0
 10 26  2  0
 11 12  2  0
 11 13  1  0
 13 14  1  0
 13 23  1  0
 14 15  1  0
 15 16  2  0
 15 17  1  0
 17 18  1  0
 18 19  1  0
 19 20  2  0
 19 21  1  0
 21 22  1  0
 23 24  1  0
 23 25  2  0
 27 26  1  6
 27 28  1  0
 27 29  1  0
 28 29  1  0
M  END
