
     RDKit          3D

 29 30  0  0  0  0  0  0  0  0999 V2000
    8.4620    0.4810    1.0720 C   0  0  0  0  0  0  0  0  0  0  0  0
    7.3690    0.4750    2.0530 C   0  0  0  0  0  0  0  0  0  0  0  0
    6.0950    0.3250    1.6140 C   0  0  0  0  0  0  0  0  0  0  0  0
    5.0070    0.3210    2.5660 C   0  0  0  0  0  0  0  0  0  0  0  0
    3.7440    0.2200    2.4880 C   0  0  0  0  0  0  0  0  0  0  0  0
    2.6400    0.0770    1.6540 C   0  0  0  0  0  0  0  0  0  0  0  0
    1.4460    0.0050    2.1870 O   0  0  0  0  0  0  0  0  0  0  0  0
    2.6220   -0.0000    0.2550 N   0  0  0  0  0  0  0  0  0  0  0  0
    1.4930   -0.1320   -0.5960 C   0  0  0  0  0  0  0  0  0  0  0  0
    0.2240   -0.1330   -0.1170 C   0  0  0  0  0  0  0  0  0  0  0  0
   -0.8760   -0.2320   -1.0180 C   0  0  0  0  0  0  0  0  0  0  0  0
   -2.1560   -0.2500   -0.4220 N   0  0  0  0  0  0  0  0  0  0  0  0
   -3.3390    0.0800   -1.1080 C   0  0  0  0  0  0  0  0  0  0  0  0
   -3.3190    0.4220   -2.3010 O   0  0  0  0  0  0  0  0  0  0  0  0
   -4.6260    0.0420   -0.4440 C   0  0  0  0  0  0  0  0  0  0  0  0
   -4.6260   -0.3470    0.7880 O   0  0  0  0  0  0  0  0  0  0  0  0
   -5.8830    0.3780   -0.9690 N   0  0  0  0  0  0  0  0  0  0  0  0
   -7.0740    0.2740   -0.1310 C   0  0  0  0  0  0  0  0  0  0  0  0
   -7.7870    1.3320    0.1170 C   0  0  0  0  0  0  0  0  0  0  0  0
   -9.0220    1.4360    0.9320 C   0  0  0  0  0  0  0  0  0  0  0  0
   -9.4310   -0.0930    1.7520 S   0  0  0  0  0  0  0  0  0  0  0  0
   -8.3000   -1.3520    1.2250 C   0  0  0  0  0  0  0  0  0  0  0  0
   -7.3130   -1.0490    0.4000 C   0  0  0  0  0  0  0  0  0  0  0  0
   -0.6190   -0.3270   -2.3700 C   0  0  0  0  0  0  0  0  0  0  0  0
    0.6740   -0.3210   -2.8470 C   0  0  0  0  0  0  0  0  0  0  0  0
    1.7120   -0.2280   -1.9830 C   0  0  0  0  0  0  0  0  0  0  0  0
    3.0350   -0.2340   -2.4400 O   0  0  0  0  0  0  0  0  0  0  0  0
    5.9760    0.1840    0.2550 O   0  0  0  0  0  0  0  0  0  0  0  0
    6.1320   -1.0700   -0.3540 C   0  0  0  0  0  0  0  0  0  0  0  0
  1  2  1  0
  2  3  2  3
  3  4  1  0
  3 28  1  0
  4  5  2  3
  5  6  1  0
  6  7  2  0
  6  8  1  0
  8  9  1  0
  9 10  2  0
  9 26  1  0
 10 11  1  0
 11 12  1  0
 11 24  2  0
 12 13  1  0
 13 14  2  0
 13 15  1  0
 15 16  2  0
 15 17  1  0
 17 18  1  0
 18 19  2  0
 18 23  1  0
 19 20  1  0
 20 21  1  0
 21 22  1  0
 22 23  2  0
 24 25  1  0
 25 26  2  0
 26 27  1  0
 28 29  1  0
M  END
