
     RDKit          3D

 29 30  0  0  0  0  0  0  0  0999 V2000
    5.6410   -2.0600   -0.4020 C   0  0  0  0  0  0  0  0  0  0  0  0
    6.4150   -1.0010    0.2990 C   0  0  0  0  0  0  0  0  0  0  0  0
    7.7630   -1.1050    0.5680 C   0  0  0  0  0  0  0  0  0  0  0  0
    8.0960    0.0620    1.2170 C   0  0  0  0  0  0  0  0  0  0  0  0
    6.9420    0.8460    1.3260 C   0  0  0  0  0  0  0  0  0  0  0  0
    6.8700    2.1600    1.9510 C   0  0  0  0  0  0  0  0  0  0  0  0
    5.8300    2.9160    2.0720 C   0  0  0  0  0  0  0  0  0  0  0  0
    4.5060    2.5520    1.5770 C   0  0  0  0  0  0  0  0  0  0  0  0
    3.4680    3.3370    1.7120 C   0  0  0  0  0  0  0  0  0  0  0  0
    2.1890    3.0840    1.2820 N   0  0  0  0  0  0  0  0  0  0  0  0
    1.7230    1.9540    0.6180 C   0  0  0  0  0  0  0  0  0  0  0  0
    2.4760    1.0050    0.3340 O   0  0  0  0  0  0  0  0  0  0  0  0
    0.3840    1.7980    0.2210 O   0  0  0  0  0  0  0  0  0  0  0  0
   -0.0320    0.6240   -0.4530 C   0  0  0  0  0  0  0  0  0  0  0  0
   -1.5300    0.7040   -0.7770 C   0  0  0  0  0  0  0  0  0  0  0  0
   -2.3150    0.8360    0.3810 N   0  0  0  0  0  0  0  0  0  0  0  0
   -3.9890    0.9520    0.2690 S   0  0  1  0  0  0  0  0  0  0  0  0
   -4.5040    1.0800    1.7150 O   0  0  0  0  0  0  0  0  0  0  0  0
   -4.4310    2.2660   -0.3570 O   0  0  0  0  0  0  0  0  0  0  0  0
   -4.8230   -0.3900   -0.4320 C   0  0  0  0  0  0  0  0  0  0  0  0
   -5.5670   -1.2640    0.3740 C   0  0  0  0  0  0  0  0  0  0  0  0
   -6.2110   -2.3760   -0.1210 C   0  0  0  0  0  0  0  0  0  0  0  0
   -6.9520   -3.2290    0.7440 N   0  0  0  0  0  0  0  0  0  0  0  0
   -6.1370   -2.6660   -1.4620 C   0  0  0  0  0  0  0  0  0  0  0  0
   -5.4210   -1.8280   -2.2570 C   0  0  0  0  0  0  0  0  0  0  0  0
   -5.3150   -2.1050   -3.7150 C   0  0  0  0  0  0  0  0  0  0  0  0
   -4.7630   -0.6910   -1.7540 C   0  0  0  0  0  0  0  0  0  0  0  0
   -4.0570    0.1860   -2.7030 C   0  0  0  0  0  0  0  0  0  0  0  0
    6.0100    0.1400    0.7600 O   0  0  0  0  0  0  0  0  0  0  0  0
  1  2  1  0
  2  3  2  0
  2 29  1  0
  3  4  1  0
  4  5  2  0
  5  6  1  0
  5 29  1  0
  6  7  2  3
  7  8  1  0
  8  9  2  3
  9 10  1  0
 10 11  1  0
 11 12  2  0
 11 13  1  0
 13 14  1  0
 14 15  1  0
 15 16  1  0
 17 16  1  1
 17 18  2  0
 17 19  2  0
 17 20  1  0
 20 21  2  0
 20 27  1  0
 21 22  1  0
 22 23  1  0
 22 24  2  0
 24 25  1  0
 25 26  1  0
 25 27  2  0
 27 28  1  0
M  END
