
     RDKit          3D

 29 30  0  0  0  0  0  0  0  0999 V2000
   -5.4230   -2.5950    0.7460 C   0  0  0  0  0  0  0  0  0  0  0  0
   -5.7590   -1.3470   -0.0510 C   0  0  1  0  0  0  0  0  0  0  0  0
   -6.9160   -1.7660   -0.9710 C   0  0  0  0  0  0  0  0  0  0  0  0
   -6.2850   -0.2520    0.8460 C   0  0  0  0  0  0  0  0  0  0  0  0
   -4.7400   -0.9330   -0.8750 O   0  0  0  0  0  0  0  0  0  0  0  0
   -3.5270   -0.5990   -0.3810 C   0  0  0  0  0  0  0  0  0  0  0  0
   -3.1890   -0.6080    0.8040 O   0  0  0  0  0  0  0  0  0  0  0  0
   -2.5030   -0.2050   -1.2070 N   0  0  0  0  0  0  0  0  0  0  0  0
   -1.2470    0.2030   -0.7760 C   0  0  0  0  0  0  0  0  0  0  0  0
   -0.5350   -0.1080   -1.9020 N   0  0  0  0  0  0  0  0  0  0  0  0
   -0.5420    1.0680    0.0860 C   0  0  0  0  0  0  0  0  0  0  0  0
    0.6980    1.0350    0.3290 C   0  0  0  0  0  0  0  0  0  0  0  0
    1.8440    0.2310   -0.0620 C   0  0  0  0  0  0  0  0  0  0  0  0
    3.0540    0.5060    0.3850 C   0  0  0  0  0  0  0  0  0  0  0  0
    4.2620   -0.1540    0.1120 C   0  0  0  0  0  0  0  0  0  0  0  0
    5.7620    0.3310    1.0520 S   0  0  0  0  0  0  0  0  0  0  0  0
    6.9000   -0.7860    0.2920 C   0  0  0  0  0  0  0  0  0  0  0  0
    6.0810   -1.4430   -0.6120 C   0  0  0  0  0  0  0  0  0  0  0  0
    4.7850   -1.1150   -0.6850 C   0  0  0  0  0  0  0  0  0  0  0  0
    4.0590   -1.9100   -1.7760 C   0  0  0  0  0  0  0  0  0  0  0  0
    4.7920   -1.6310   -3.0170 N   0  0  0  0  0  0  0  0  0  0  0  0
    6.1440   -2.1270   -2.9540 C   0  0  0  0  0  0  0  0  0  0  0  0
    6.5170   -2.5630   -1.5570 C   0  0  0  0  0  0  0  0  0  0  0  0
   -1.3090    2.2320    0.7230 C   0  0  0  0  0  0  0  0  0  0  0  0
   -0.4530    3.0410    1.4590 O   0  0  0  0  0  0  0  0  0  0  0  0
   -1.0030    4.1430    2.0990 C   0  0  0  0  0  0  0  0  0  0  0  0
   -2.2550    4.3770    1.9950 O   0  0  0  0  0  0  0  0  0  0  0  0
   -0.2210    5.0810    2.9070 C   0  0  0  0  0  0  0  0  0  0  0  0
    1.1140    4.7660    2.9720 O   0  0  0  0  0  0  0  0  0  0  0  0
  2  1  1  1
  2  3  1  0
  2  4  1  0
  2  5  1  0
  5  6  1  0
  6  7  2  0
  6  8  1  0
  8  9  1  0
  9 10  2  0
  9 11  1  0
 11 12  2  3
 11 24  1  0
 12 13  1  0
 13 14  2  3
 14 15  1  0
 15 16  1  0
 15 19  2  0
 16 17  1  0
 17 18  2  0
 18 19  1  0
 18 23  1  0
 19 20  1  0
 20 21  1  0
 21 22  1  0
 22 23  1  0
 24 25  1  0
 25 26  1  0
 26 27  2  0
 26 28  1  0
 28 29  1  0
M  END
