
     RDKit          3D

 29 30  0  0  0  0  0  0  0  0999 V2000
    6.6600   -1.1580    1.1150 C   0  0  0  0  0  0  0  0  0  0  0  0
    5.4960   -0.2720    1.2480 C   0  0  0  0  0  0  0  0  0  0  0  0
    5.4900    0.9670    0.7580 C   0  0  0  0  0  0  0  0  0  0  0  0
    6.7090    1.4980    0.0400 C   0  0  0  0  0  0  0  0  0  0  0  0
    6.5540    3.2330    0.6640 S   0  0  0  0  0  0  0  0  0  0  0  0
    4.7590    3.1890    0.7880 C   0  0  0  0  0  0  0  0  0  0  0  0
    4.4260    1.9240    0.8210 C   0  0  0  0  0  0  0  0  0  0  0  0
    2.9790    1.5140    0.9210 C   0  0  0  0  0  0  0  0  0  0  0  0
    2.5740    0.6970   -0.2360 C   0  0  0  0  0  0  0  0  0  0  0  0
    3.3910    0.4420   -1.1140 O   0  0  0  0  0  0  0  0  0  0  0  0
    1.2430    0.2190   -0.3170 N   0  0  0  0  0  0  0  0  0  0  0  0
    0.7100   -0.5770   -1.3520 C   0  0  0  0  0  0  0  0  0  0  0  0
    1.5230   -1.2260   -2.2500 C   0  0  0  0  0  0  0  0  0  0  0  0
    0.9600   -2.0740   -3.2220 C   0  0  0  0  0  0  0  0  0  0  0  0
   -0.3890   -2.2580   -3.2810 C   0  0  0  0  0  0  0  0  0  0  0  0
   -1.2270   -1.6030   -2.3750 C   0  0  0  0  0  0  0  0  0  0  0  0
   -0.6810   -0.7680   -1.4180 C   0  0  0  0  0  0  0  0  0  0  0  0
   -1.4740   -0.0150   -0.5220 N   0  0  0  0  0  0  0  0  0  0  0  0
   -2.8510   -0.2620   -0.3140 C   0  0  0  0  0  0  0  0  0  0  0  0
   -3.4890   -1.1660   -0.8820 O   0  0  0  0  0  0  0  0  0  0  0  0
   -3.6080    0.5500    0.6000 N   0  0  0  0  0  0  0  0  0  0  0  0
   -4.9940    0.3250    0.8290 C   0  0  0  0  0  0  0  0  0  0  0  0
   -5.3660    0.0370    2.0650 C   0  0  0  0  0  0  0  0  0  0  0  0
   -4.4670   -0.0480    3.1140 O   0  0  0  0  0  0  0  0  0  0  0  0
   -4.6870   -0.9190    4.2180 C   0  0  0  0  0  0  0  0  0  0  0  0
   -5.9860    0.3990   -0.2280 C   0  0  0  0  0  0  0  0  0  0  0  0
   -7.1930    0.1880    0.0480 O   0  0  0  0  0  0  0  0  0  0  0  0
   -5.6750    0.6930   -1.5420 O   0  0  0  0  0  0  0  0  0  0  0  0
   -6.6570    0.7650   -2.5750 C   0  0  0  0  0  0  0  0  0  0  0  0
  1  2  1  0
  2  3  2  3
  3  4  1  0
  3  7  1  0
  4  5  1  0
  5  6  1  0
  6  7  2  0
  7  8  1  0
  8  9  1  0
  9 10  2  0
  9 11  1  0
 11 12  1  0
 12 13  2  0
 12 17  1  0
 13 14  1  0
 14 15  2  0
 15 16  1  0
 16 17  2  0
 17 18  1  0
 18 19  1  0
 19 20  2  0
 19 21  1  0
 21 22  1  0
 22 23  2  3
 22 26  1  0
 23 24  1  0
 24 25  1  0
 26 27  2  0
 26 28  1  0
 28 29  1  0
M  END
