
     RDKit          3D

 29 30  0  0  0  0  0  0  0  0999 V2000
    5.2250    0.1460    2.9040 C   0  0  0  0  0  0  0  0  0  0  0  0
    5.6600    0.7860    1.8520 C   0  0  0  0  0  0  0  0  0  0  0  0
    7.0540    1.1770    2.0610 O   0  0  0  0  0  0  0  0  0  0  0  0
    5.0310    1.1360    0.6290 C   0  0  0  0  0  0  0  0  0  0  0  0
    5.8780    1.8160   -0.2390 C   0  0  0  0  0  0  0  0  0  0  0  0
    7.2330    2.1620   -0.0060 C   0  0  0  0  0  0  0  0  0  0  0  0
    3.7410    0.9880    0.0850 C   0  0  0  0  0  0  0  0  0  0  0  0
    2.5620    0.5590    0.2310 C   0  0  0  0  0  0  0  0  0  0  0  0
    1.8410   -0.1330    1.2690 C   0  0  0  0  0  0  0  0  0  0  0  0
    0.5560   -0.3900    1.0120 O   0  0  0  0  0  0  0  0  0  0  0  0
    2.1690   -0.5950    2.4780 O   0  0  0  0  0  0  0  0  0  0  0  0
    1.2680   -1.2560    3.3370 C   0  0  0  0  0  0  0  0  0  0  0  0
    1.6560    0.8300   -0.9950 C   0  0  0  0  0  0  0  0  0  0  0  0
    2.1920    1.4590   -1.9190 O   0  0  0  0  0  0  0  0  0  0  0  0
    0.0070    0.2980   -1.1030 S   0  0  0  0  0  0  0  0  0  0  0  0
   -0.1020   -1.4110   -1.5990 C   0  0  0  0  0  0  0  0  0  0  0  0
   -1.5010   -1.9080   -1.6750 C   0  0  0  0  0  0  0  0  0  0  0  0
   -1.6540   -3.1150   -1.9400 O   0  0  0  0  0  0  0  0  0  0  0  0
   -2.6270   -1.0950   -1.4670 N   0  0  0  0  0  0  0  0  0  0  0  0
   -3.9870   -1.4680   -1.5090 C   0  0  0  0  0  0  0  0  0  0  0  0
   -4.4570   -2.7330   -1.6980 C   0  0  0  0  0  0  0  0  0  0  0  0
   -5.8300   -3.0380   -1.7140 C   0  0  0  0  0  0  0  0  0  0  0  0
   -6.7530   -2.0460   -1.5360 C   0  0  0  0  0  0  0  0  0  0  0  0
   -6.3090   -0.7510   -1.3420 C   0  0  0  0  0  0  0  0  0  0  0  0
   -7.0030    0.3800   -1.1500 N   0  0  0  0  0  0  0  0  0  0  0  0
   -6.0940    1.3710   -1.0170 C   0  0  0  0  0  0  0  0  0  0  0  0
   -6.3860    2.8030   -0.7950 C   0  0  0  0  0  0  0  0  0  0  0  0
   -4.8490    0.8320   -1.1290 N   0  0  0  0  0  0  0  0  0  0  0  0
   -4.9660   -0.4790   -1.3290 C   0  0  0  0  0  0  0  0  0  0  0  0
  1  2  2  0
  2  3  1  0
  2  4  1  0
  4  5  2  3
  4  7  1  0
  5  6  1  0
  7  8  2  3
  8  9  1  0
  8 13  1  0
  9 10  2  0
  9 11  1  0
 11 12  1  0
 13 14  2  0
 13 15  1  0
 15 16  1  0
 16 17  1  0
 17 18  2  0
 17 19  1  0
 19 20  1  0
 20 21  2  0
 20 29  1  0
 21 22  1  0
 22 23  2  0
 23 24  1  0
 24 25  1  0
 24 29  2  0
 25 26  2  0
 26 27  1  0
 26 28  1  0
 28 29  1  0
M  END
