
     RDKit          3D

 20 21  0  0  0  0  0  0  0  0999 V2000
   -5.5010   -2.0720   -0.3310 N   0  0  0  0  0  0  0  0  0  0  0  0
   -5.2530   -0.7550    0.1410 C   0  0  0  0  0  0  0  0  0  0  0  0
   -6.2150   -0.0220    0.5000 N   0  0  0  0  0  0  0  0  0  0  0  0
   -3.8790   -0.3000    0.1910 C   0  0  0  0  0  0  0  0  0  0  0  0
   -3.5870    0.9630    0.6380 C   0  0  0  0  0  0  0  0  0  0  0  0
   -2.2620    1.3920    0.6830 C   0  0  0  0  0  0  0  0  0  0  0  0
   -1.2070    0.5770    0.2840 C   0  0  0  0  0  0  0  0  0  0  0  0
    0.0870    1.0890    0.3650 N   0  0  0  0  0  0  0  0  0  0  0  0
    1.3040    0.4550   -0.0100 C   0  0  0  0  0  0  0  0  0  0  0  0
    1.2510   -0.6900   -0.4670 O   0  0  0  0  0  0  0  0  0  0  0  0
    2.5590    1.0730    0.1170 N   0  0  0  0  0  0  0  0  0  0  0  0
    3.8170    0.5610   -0.2130 C   0  0  0  0  0  0  0  0  0  0  0  0
    4.9680    1.3280    0.0210 C   0  0  0  0  0  0  0  0  0  0  0  0
    6.2220    0.8720   -0.2870 C   0  0  0  0  0  0  0  0  0  0  0  0
    6.4030   -0.3690   -0.8430 C   0  0  0  0  0  0  0  0  0  0  0  0
    8.0110   -0.9320   -1.2280 Cl  0  0  0  0  0  0  0  0  0  0  0  0
    5.2870   -1.1340   -1.0800 C   0  0  0  0  0  0  0  0  0  0  0  0
    4.0010   -0.6680   -0.7650 C   0  0  0  0  0  0  0  0  0  0  0  0
   -1.5270   -0.6660   -0.1530 C   0  0  0  0  0  0  0  0  0  0  0  0
   -2.8300   -1.1090   -0.2040 C   0  0  0  0  0  0  0  0  0  0  0  0
  1  2  1  0
  2  3  2  0
  2  4  1  0
  4  5  2  0
  4 20  1  0
  5  6  1  0
  6  7  2  0
  7  8  1  0
  7 19  1  0
  8  9  1  0
  9 10  2  0
  9 11  1  0
 11 12  1  0
 12 13  2  0
 12 18  1  0
 13 14  1  0
 14 15  2  0
 15 16  1  0
 15 17  1  0
 17 18  2  0
 19 20  2  0
M  CHG  1   3   1
M  END
