
     RDKit          3D

 16 16  0  0  0  0  0  0  0  0999 V2000
   -3.7620   -1.4780   -1.2690 C   0  0  0  0  0  0  0  0  0  0  0  0
   -3.6680   -0.1850   -0.5260 C   0  0  0  0  0  0  0  0  0  0  0  0
   -4.7470    0.5340   -0.3720 C   0  0  0  0  0  0  0  0  0  0  0  0
   -4.6900    1.7290    0.3070 O   0  0  0  0  0  0  0  0  0  0  0  0
   -3.4970    2.2060    0.8470 C   0  0  0  0  0  0  0  0  0  0  0  0
   -2.3170    1.3450    0.6370 C   0  0  0  0  0  0  0  0  0  0  0  0
   -2.3550    0.1920   -0.0140 C   0  0  0  0  0  0  0  0  0  0  0  0
   -1.2010   -0.6810   -0.2370 C   0  0  0  0  0  0  0  0  0  0  0  0
    0.0810   -0.2010    0.3250 C   0  0  0  0  0  0  0  0  0  0  0  0
    1.1530   -1.2380   -0.0080 C   0  0  2  0  0  0  0  0  0  0  0  0
    0.8630   -2.4700    0.5260 O   0  0  0  0  0  0  0  0  0  0  0  0
    2.5220   -0.7230    0.4310 C   0  0  0  0  0  0  0  0  0  0  0  0
    2.6800    0.5170   -0.1770 O   0  0  0  0  0  0  0  0  0  0  0  0
    3.8740    1.1400    0.1120 C   0  0  0  0  0  0  0  0  0  0  0  0
    5.0640    0.3330   -0.3200 C   0  0  0  0  0  0  0  0  0  0  0  0
    4.9770    0.1480   -1.7020 O   0  0  0  0  0  0  0  0  0  0  0  0
  1  2  1  0
  2  3  2  0
  2  7  1  0
  3  4  1  0
  4  5  1  0
  5  6  1  0
  6  7  2  0
  7  8  1  0
  8  9  1  0
  9 10  1  0
 10 11  1  1
 10 12  1  0
 12 13  1  0
 13 14  1  0
 14 15  1  0
 15 16  1  0
M  END
