
     RDKit          3D

 20 20  0  0  0  0  0  0  0  0999 V2000
    4.5320    2.3040    0.6870 C   0  0  0  0  0  0  0  0  0  0  0  0
    4.3120    0.8860    0.4140 C   0  0  0  0  0  0  0  0  0  0  0  0
    3.0390    0.2970    0.0690 C   0  0  0  0  0  0  0  0  0  0  0  0
    1.9150    0.9790   -0.0400 C   0  0  0  0  0  0  0  0  0  0  0  0
    1.8150    2.7200    0.2230 Cl  0  0  0  0  0  0  0  0  0  0  0  0
    0.7430    0.2470   -0.3880 N   0  0  0  0  0  0  0  0  0  0  0  0
    0.3980   -0.7140    0.3660 C   0  0  0  0  0  0  0  0  0  0  0  0
    1.1560   -1.0720    1.5440 N   0  0  0  0  0  0  0  0  0  0  0  0
   -0.7570   -1.4500    0.0470 N   0  0  0  0  0  0  0  0  0  0  0  0
   -1.9730   -0.8350   -0.3130 C   0  0  0  0  0  0  0  0  0  0  0  0
   -2.2660    0.4990   -0.2230 C   0  0  0  0  0  0  0  0  0  0  0  0
   -3.4880    1.0430   -0.6100 C   0  0  0  0  0  0  0  0  0  0  0  0
   -4.4780    0.2350   -1.1120 C   0  0  0  0  0  0  0  0  0  0  0  0
   -5.7660    0.8340   -1.5150 C   0  0  0  0  0  0  0  0  0  0  0  0
   -4.2040   -1.1110   -1.2100 C   0  0  0  0  0  0  0  0  0  0  0  0
   -5.2680   -1.9910   -1.7510 C   0  0  0  0  0  0  0  0  0  0  0  0
   -2.9930   -1.6430   -0.8260 C   0  0  0  0  0  0  0  0  0  0  0  0
    5.3760    0.0670    0.4890 C   0  0  0  0  0  0  0  0  0  0  0  0
    6.6520    0.5900    0.8240 N   0  0  0  0  0  0  0  0  0  0  0  0
    5.2390   -1.2960    0.2410 O   0  0  0  0  0  0  0  0  0  0  0  0
  1  2  1  0
  2  3  1  0
  2 18  2  3
  3  4  2  3
  4  5  1  0
  4  6  1  0
  6  7  2  3
  7  8  1  0
  7  9  1  0
  9 10  1  0
 10 11  2  0
 10 17  1  0
 11 12  1  0
 12 13  2  0
 13 14  1  0
 13 15  1  0
 15 16  1  0
 15 17  2  0
 18 19  1  0
 18 20  1  0
M  CHG  1   6   1
M  END
