
     RDKit          3D

 20 21  0  0  0  0  0  0  0  0999 V2000
    6.8530   -0.6600   -0.3300 N   0  0  0  0  0  0  0  0  0  0  0  0
    5.4930   -1.0860   -0.5900 C   0  0  0  0  0  0  0  0  0  0  0  0
    4.5110   -0.0530   -0.0900 C   0  0  0  0  0  0  0  0  0  0  0  0
    3.1680   -0.5210   -0.3710 N   0  0  0  0  0  0  0  0  0  0  0  0
    2.0530    0.3180    0.0260 C   0  0  0  0  0  0  0  0  0  0  0  0
    2.2970    1.3950    0.5870 O   0  0  0  0  0  0  0  0  0  0  0  0
    0.7450   -0.1110   -0.2330 N   0  0  0  0  0  0  0  0  0  0  0  0
   -0.4150    0.6280    0.1010 C   0  0  0  0  0  0  0  0  0  0  0  0
   -0.4520    1.9260    0.5320 C   0  0  0  0  0  0  0  0  0  0  0  0
   -1.6630    2.5590    0.8500 C   0  0  0  0  0  0  0  0  0  0  0  0
   -2.8770    1.9190    0.7490 C   0  0  0  0  0  0  0  0  0  0  0  0
   -4.3730    2.7510    1.1530 Cl  0  0  0  0  0  0  0  0  0  0  0  0
   -2.8580    0.6130    0.3170 C   0  0  0  0  0  0  0  0  0  0  0  0
   -4.1170   -0.1160    0.1960 C   0  0  0  0  0  0  0  0  0  0  0  0
   -4.3790   -0.8510   -0.9430 C   0  0  0  0  0  0  0  0  0  0  0  0
   -5.5560   -1.5580   -1.0950 C   0  0  0  0  0  0  0  0  0  0  0  0
   -6.4390   -1.4990   -0.0790 N   0  0  0  0  0  0  0  0  0  0  0  0
   -6.2240   -0.7970    1.0460 C   0  0  0  0  0  0  0  0  0  0  0  0
   -5.0460   -0.0890    1.1970 C   0  0  0  0  0  0  0  0  0  0  0  0
   -1.6650   -0.0010    0.0070 C   0  0  0  0  0  0  0  0  0  0  0  0
  1  2  1  0
  2  3  1  0
  3  4  1  0
  4  5  1  0
  5  6  2  0
  5  7  1  0
  7  8  1  0
  8  9  2  0
  8 20  1  0
  9 10  1  0
 10 11  2  0
 11 12  1  0
 11 13  1  0
 13 14  1  0
 13 20  2  0
 14 15  2  0
 14 19  1  0
 15 16  1  0
 16 17  2  0
 17 18  1  0
 18 19  2  0
M  CHG  1   1   1
M  END
