
     RDKit          3D

 20 21  0  0  0  0  0  0  0  0999 V2000
   -0.4780   -2.1800    1.3210 N   0  0  0  0  0  0  0  0  0  0  0  0
    0.1710   -1.0290    0.7540 C   0  0  0  0  0  0  0  0  0  0  0  0
    1.2780   -0.4240    1.3800 N   0  0  0  0  0  0  0  0  0  0  0  0
    2.4340   -0.0490    0.6490 C   0  0  0  0  0  0  0  0  0  0  0  0
    2.6810   -0.4400   -0.6420 C   0  0  0  0  0  0  0  0  0  0  0  0
    3.8230   -0.0320   -1.3210 C   0  0  0  0  0  0  0  0  0  0  0  0
    4.7350    0.7860   -0.6860 C   0  0  0  0  0  0  0  0  0  0  0  0
    6.1900    1.3300   -1.4940 Cl  0  0  0  0  0  0  0  0  0  0  0  0
    4.5180    1.2020    0.6220 C   0  0  0  0  0  0  0  0  0  0  0  0
    5.4890    2.0520    1.2460 N   0  0  0  0  0  0  0  0  0  0  0  0
    3.3910    0.7850    1.2580 C   0  0  0  0  0  0  0  0  0  0  0  0
   -0.2690   -0.5450   -0.3370 N   0  0  0  0  0  0  0  0  0  0  0  0
   -1.4090   -1.1690   -0.9770 C   0  0  0  0  0  0  0  0  0  0  0  0
   -2.6600   -0.4030   -0.6900 C   0  0  0  0  0  0  0  0  0  0  0  0
   -3.0530    0.6150   -1.5300 C   0  0  0  0  0  0  0  0  0  0  0  0
   -4.2020    1.3390   -1.2900 C   0  0  0  0  0  0  0  0  0  0  0  0
   -4.9870    1.0410   -0.1760 C   0  0  0  0  0  0  0  0  0  0  0  0
   -4.6140    0.0340    0.6720 C   0  0  0  0  0  0  0  0  0  0  0  0
   -5.4170   -0.2360    1.7690 O   0  0  0  0  0  0  0  0  0  0  0  0
   -3.4630   -0.6630    0.3970 C   0  0  0  0  0  0  0  0  0  0  0  0
  1  2  1  0
  2  3  1  0
  2 12  2  3
  3  4  1  0
  4  5  2  0
  4 11  1  0
  5  6  1  0
  6  7  2  0
  7  8  1  0
  7  9  1  0
  9 10  1  0
  9 11  2  0
 12 13  1  0
 13 14  1  0
 14 15  2  0
 14 20  1  0
 15 16  1  0
 16 17  2  0
 17 18  1  0
 18 19  1  0
 18 20  2  0
M  CHG  1  12   1
M  END
