
     RDKit          3D

 20 21  0  0  0  0  0  0  0  0999 V2000
   -3.4270    0.7400    1.1510 C   0  0  0  0  0  0  0  0  0  0  0  0
   -3.2610    0.9950   -0.3090 C   0  0  2  0  0  0  0  0  0  0  0  0
   -4.6830    1.1690   -0.8780 C   0  0  0  0  0  0  0  0  0  0  0  0
   -2.5210   -0.0780   -1.0410 C   0  0  2  0  0  0  0  0  0  0  0  0
   -3.1700   -1.3650   -0.9570 N   0  0  0  0  0  0  0  0  0  0  0  0
   -1.1020   -0.1010   -0.7140 C   0  0  0  0  0  0  0  0  0  0  0  0
   -0.5910    0.8130    0.1770 C   0  0  0  0  0  0  0  0  0  0  0  0
    0.7690    0.8260    0.5200 C   0  0  0  0  0  0  0  0  0  0  0  0
    1.3810    2.0130    1.6740 Cl  0  0  0  0  0  0  0  0  0  0  0  0
    1.6280   -0.0750   -0.0260 C   0  0  0  0  0  0  0  0  0  0  0  0
    3.0480   -0.0900    0.2990 C   0  0  0  0  0  0  0  0  0  0  0  0
    3.7690    1.0820    0.2910 C   0  0  0  0  0  0  0  0  0  0  0  0
    5.0970    1.0530    0.6020 N   0  0  0  0  0  0  0  0  0  0  0  0
    5.7290   -0.0920    0.9190 C   0  0  0  0  0  0  0  0  0  0  0  0
    7.1130   -0.1330    1.2450 N   0  0  0  0  0  0  0  0  0  0  0  0
    5.0020   -1.2320    0.9200 N   0  0  0  0  0  0  0  0  0  0  0  0
    3.6940   -1.2690    0.6240 C   0  0  0  0  0  0  0  0  0  0  0  0
    1.1300   -1.0000   -0.9230 C   0  0  0  0  0  0  0  0  0  0  0  0
   -0.2010   -1.0030   -1.2510 C   0  0  0  0  0  0  0  0  0  0  0  0
   -0.6640   -1.9400   -2.1500 O   0  0  0  0  0  0  0  0  0  0  0  0
  2  1  1  1
  2  3  1  0
  2  4  1  0
  4  5  1  1
  4  6  1  0
  6  7  2  0
  6 19  1  0
  7  8  1  0
  8  9  1  0
  8 10  2  0
 10 11  1  0
 10 18  1  0
 11 12  2  0
 11 17  1  0
 12 13  1  0
 13 14  2  0
 14 15  1  0
 14 16  1  0
 16 17  2  0
 18 19  2  0
 19 20  1  0
M  CHG  1   5   1
M  END
