
     RDKit          3D

 20 21  0  0  0  0  0  0  0  0999 V2000
   -0.6080   -1.2390    2.4670 C   0  0  0  0  0  0  0  0  0  0  0  0
   -1.7800   -0.8300    1.9580 C   0  0  0  0  0  0  0  0  0  0  0  0
   -2.8970   -0.5100    2.8820 C   0  0  0  0  0  0  0  0  0  0  0  0
   -1.9230   -0.7130    0.5370 C   0  0  0  0  0  0  0  0  0  0  0  0
   -0.7720   -1.0490   -0.2890 N   0  0  0  0  0  0  0  0  0  0  0  0
    0.2740   -0.1160   -0.3370 C   0  0  0  0  0  0  0  0  0  0  0  0
    0.1550    1.0670    0.3990 C   0  0  0  0  0  0  0  0  0  0  0  0
    1.1550    2.0060    0.3800 C   0  0  0  0  0  0  0  0  0  0  0  0
    2.2960    1.8080   -0.3620 C   0  0  0  0  0  0  0  0  0  0  0  0
    3.3270    2.7610   -0.3900 N   0  0  0  0  0  0  0  0  0  0  0  0
    2.4120    0.6380   -1.0890 C   0  0  0  0  0  0  0  0  0  0  0  0
    3.5530    0.4640   -1.8170 C   0  0  0  0  0  0  0  0  0  0  0  0
    3.6970   -0.6730   -2.5410 N   0  0  0  0  0  0  0  0  0  0  0  0
    2.7650   -1.5970   -2.5510 N   0  0  0  0  0  0  0  0  0  0  0  0
    1.6090   -1.4690   -1.8400 C   0  0  0  0  0  0  0  0  0  0  0  0
    0.7540   -2.3700   -1.8790 O   0  0  0  0  0  0  0  0  0  0  0  0
    1.3980   -0.3370   -1.0830 C   0  0  0  0  0  0  0  0  0  0  0  0
   -3.0050   -0.3290   -0.0760 C   0  0  0  0  0  0  0  0  0  0  0  0
   -3.0230   -0.2490   -1.5880 C   0  0  0  0  0  0  0  0  0  0  0  0
   -4.5100    0.1260    0.6850 Cl  0  0  0  0  0  0  0  0  0  0  0  0
  1  2  2  0
  2  3  1  0
  2  4  1  0
  4  5  1  0
  4 18  2  3
  5  6  1  0
  6  7  2  0
  6 17  1  0
  7  8  1  0
  8  9  2  0
  9 10  1  0
  9 11  1  0
 11 12  1  0
 11 17  2  0
 12 13  2  0
 13 14  1  0
 14 15  1  0
 15 16  2  0
 15 17  1  0
 18 19  1  0
 18 20  1  0
M  END
