
     RDKit          3D

 19 20  0  0  0  0  0  0  0  0999 V2000
   -5.6710    0.3840    1.1000 N   0  0  0  0  0  0  0  0  0  0  0  0
   -4.3510    0.6280    1.5990 C   0  0  0  0  0  0  0  0  0  0  0  0
   -3.3420    0.1350    0.6150 C   0  0  0  0  0  0  0  0  0  0  0  0
   -2.8930    1.0030   -0.3580 C   0  0  0  0  0  0  0  0  0  0  0  0
   -1.9690    0.6000   -1.2840 C   0  0  0  0  0  0  0  0  0  0  0  0
   -1.4800   -0.6880   -1.2440 C   0  0  0  0  0  0  0  0  0  0  0  0
   -0.4820   -1.1000   -2.2550 C   0  0  0  0  0  0  0  0  0  0  0  0
    0.8750   -0.7960   -1.6880 C   0  0  0  0  0  0  0  0  0  0  0  0
    1.0230   -0.2620   -0.5040 C   0  0  0  0  0  0  0  0  0  0  0  0
    2.3750    0.0070   -0.0160 C   0  0  0  0  0  0  0  0  0  0  0  0
    3.4710   -0.2650   -0.7200 N   0  0  0  0  0  0  0  0  0  0  0  0
    4.7030   -0.0420   -0.3260 N   0  0  0  0  0  0  0  0  0  0  0  0
    4.9170    0.5060    0.8850 C   0  0  0  0  0  0  0  0  0  0  0  0
    6.2630    0.7280    1.2700 N   0  0  0  0  0  0  0  0  0  0  0  0
    3.8460    0.8150    1.6700 C   0  0  0  0  0  0  0  0  0  0  0  0
    2.5590    0.5770    1.2460 C   0  0  0  0  0  0  0  0  0  0  0  0
    1.1850    0.9690    2.2440 Cl  0  0  0  0  0  0  0  0  0  0  0  0
   -1.9210   -1.5860   -0.2660 C   0  0  0  0  0  0  0  0  0  0  0  0
   -2.8530   -1.1540    0.6540 C   0  0  0  0  0  0  0  0  0  0  0  0
  1  2  1  0
  2  3  1  0
  3  4  2  0
  3 19  1  0
  4  5  1  0
  5  6  2  0
  6  7  1  0
  6 18  1  0
  7  8  1  0
  8  9  2  3
  9 10  1  0
 10 11  2  0
 10 16  1  0
 11 12  1  0
 12 13  2  0
 13 14  1  0
 13 15  1  0
 15 16  2  0
 16 17  1  0
 18 19  2  0
M  CHG  1  12   1
M  END
