
     RDKit          3D

 19 20  0  0  0  0  0  0  0  0999 V2000
   -0.5750   -2.4660    0.2670 C   0  0  0  0  0  0  0  0  0  0  0  0
   -0.3800   -1.2390    0.8910 O   0  0  0  0  0  0  0  0  0  0  0  0
   -0.6770   -0.0030    0.3980 C   0  0  0  0  0  0  0  0  0  0  0  0
    0.3720    0.7420    0.0880 C   0  0  0  0  0  0  0  0  0  0  0  0
    1.6860    0.1230    0.3210 C   0  0  0  0  0  0  0  0  0  0  0  0
    2.8380    0.7230    0.0680 C   0  0  0  0  0  0  0  0  0  0  0  0
    3.9940   -0.1660    0.4110 C   0  0  2  0  0  0  0  0  0  0  0  0
    4.8370   -0.3980   -0.7370 N   0  0  0  0  0  0  0  0  0  0  0  0
    3.3150   -1.3610    0.8980 C   0  0  0  0  0  0  0  0  0  0  0  0
    3.8590   -2.4070    1.3120 O   0  0  0  0  0  0  0  0  0  0  0  0
    1.9570   -1.1330    0.8220 O   0  0  0  0  0  0  0  0  0  0  0  0
    0.3650    2.0340   -0.4300 O   0  0  0  0  0  0  0  0  0  0  0  0
   -0.6720    2.8910   -0.7530 C   0  0  0  0  0  0  0  0  0  0  0  0
   -1.9600    2.6540   -0.6410 C   0  0  0  0  0  0  0  0  0  0  0  0
   -2.6660    1.4690   -0.1650 C   0  0  0  0  0  0  0  0  0  0  0  0
   -4.0800    1.5000   -0.1630 N   0  0  0  0  0  0  0  0  0  0  0  0
   -2.0900    0.3370    0.2780 C   0  0  0  0  0  0  0  0  0  0  0  0
   -3.0350   -0.6290    0.6700 N   0  0  0  0  0  0  0  0  0  0  0  0
   -3.9780   -1.0630   -0.2790 N   0  0  0  0  0  0  0  0  0  0  0  0
  1  2  1  0
  2  3  1  0
  3  4  2  0
  3 17  1  0
  4  5  1  0
  4 12  1  0
  5  6  2  0
  5 11  1  0
  6  7  1  0
  7  8  1  6
  7  9  1  0
  9 10  2  0
  9 11  1  0
 12 13  1  0
 13 14  2  0
 14 15  1  0
 15 16  1  0
 15 17  2  0
 17 18  1  0
 18 19  1  0
M  CHG  1   8   1
M  END
