
     RDKit          3D

 19 20  0  0  0  0  0  0  0  0999 V2000
   -3.7900    1.2130    0.8900 C   0  0  0  0  0  0  0  0  0  0  0  0
   -2.7120    0.5480    0.0140 C   0  0  2  0  0  0  0  0  0  0  0  0
   -2.5070    1.4410   -1.0470 O   0  0  0  0  0  0  0  0  0  0  0  0
   -3.1940   -0.7800   -0.4390 C   0  0  0  0  0  0  0  0  0  0  0  0
   -3.3470   -1.5910    0.7070 O   0  0  0  0  0  0  0  0  0  0  0  0
   -1.4330    0.4390    0.7850 C   0  0  0  0  0  0  0  0  0  0  0  0
   -0.2920    0.0120    0.0590 N   0  0  0  0  0  0  0  0  0  0  0  0
   -0.1210   -1.3350   -0.4290 C   0  0  0  0  0  0  0  0  0  0  0  0
    1.3280   -1.7840   -0.2150 C   0  0  2  0  0  0  0  0  0  0  0  0
    1.6850   -1.7820    1.1680 N   0  0  0  0  0  0  0  0  0  0  0  0
    2.2200   -0.8860   -1.0610 C   0  0  2  0  0  0  0  0  0  0  0  0
    3.5180   -1.3510   -1.0960 O   0  0  0  0  0  0  0  0  0  0  0  0
    2.0810    0.4680   -0.5390 C   0  0  0  0  0  0  0  0  0  0  0  0
    3.1330    1.2580   -0.3590 C   0  0  0  0  0  0  0  0  0  0  0  0
    4.5360    1.1440   -0.5550 N   0  0  0  0  0  0  0  0  0  0  0  0
    4.7810    2.3250   -0.1410 C   0  0  0  0  0  0  0  0  0  0  0  0
    3.4150    2.5220    0.0820 O   0  0  0  0  0  0  0  0  0  0  0  0
    0.7460    0.9680   -0.2050 C   0  0  0  0  0  0  0  0  0  0  0  0
    0.5360    2.2320   -0.1570 N   0  0  0  0  0  0  0  0  0  0  0  0
  2  1  1  1
  2  3  1  0
  2  4  1  0
  2  6  1  0
  4  5  1  0
  6  7  1  0
  7  8  1  0
  7 18  1  0
  8  9  1  0
  9 10  1  1
  9 11  1  0
 11 12  1  1
 11 13  1  0
 13 14  2  3
 13 18  1  0
 14 15  1  0
 14 17  1  0
 15 16  2  0
 16 17  1  0
 18 19  2  0
M  CHG  1  10   1
M  END
