
     RDKit          3D

 19 20  0  0  0  0  0  0  0  0999 V2000
    1.1320   -3.5640    0.3940 N   0  0  0  0  0  0  0  0  0  0  0  0
    0.4960   -2.4080   -0.2860 C   0  0  1  0  0  0  0  0  0  0  0  0
   -0.8250   -2.7790   -0.7250 C   0  0  0  0  0  0  0  0  0  0  0  0
   -1.9070   -2.1240   -0.4410 C   0  0  0  0  0  0  0  0  0  0  0  0
   -1.8430   -0.9180    0.3780 C   0  0  0  0  0  0  0  0  0  0  0  0
   -3.0400   -0.2760    0.6360 O   0  0  0  0  0  0  0  0  0  0  0  0
   -3.3410    1.0130    0.3190 C   0  0  0  0  0  0  0  0  0  0  0  0
   -3.3020    2.0450    1.1410 C   0  0  0  0  0  0  0  0  0  0  0  0
   -3.6820    3.2370    0.4550 N   0  0  0  0  0  0  0  0  0  0  0  0
   -3.9740    2.8960   -0.8680 N   0  0  0  0  0  0  0  0  0  0  0  0
   -3.7530    1.5150   -0.9420 N   0  0  0  0  0  0  0  0  0  0  0  0
   -0.6820   -0.5210    0.8120 C   0  0  0  0  0  0  0  0  0  0  0  0
    0.5730   -1.1900    0.5440 C   0  0  2  0  0  0  0  0  0  0  0  0
    1.6150   -0.2300    0.0260 C   0  0  0  0  0  0  0  0  0  0  0  0
    2.2420   -0.5850   -0.9930 O   0  0  0  0  0  0  0  0  0  0  0  0
    1.8950    0.9790    0.6070 O   0  0  0  0  0  0  0  0  0  0  0  0
    2.8750    1.8180    0.0740 C   0  0  0  0  0  0  0  0  0  0  0  0
    4.2560    1.2530    0.0300 C   0  0  0  0  0  0  0  0  0  0  0  0
    5.1180    2.2250   -0.5310 O   0  0  0  0  0  0  0  0  0  0  0  0
  2  1  1  1
  2  3  1  0
  2 13  1  0
  3  4  2  0
  4  5  1  0
  5  6  1  0
  5 12  2  0
  6  7  1  0
  7  8  2  0
  7 11  1  0
  8  9  1  0
  9 10  1  0
 10 11  1  0
 12 13  1  0
 13 14  1  6
 14 15  2  0
 14 16  1  0
 16 17  1  0
 17 18  1  0
 18 19  1  0
M  CHG  1   1   1
M  END
