
     RDKit          3D

 22 22  0  0  0  0  0  0  0  0999 V2000
   -3.6870    3.2190   -0.8520 C   0  0  0  0  0  0  0  0  0  0  0  0
   -2.7100    2.2380   -1.2250 O   0  0  0  0  0  0  0  0  0  0  0  0
   -2.1710    1.4030   -0.2680 C   0  0  0  0  0  0  0  0  0  0  0  0
   -2.5740    1.5470    0.9150 O   0  0  0  0  0  0  0  0  0  0  0  0
   -1.1720    0.3670   -0.5230 C   0  0  1  0  0  0  0  0  0  0  0  0
   -0.8550    0.3630   -1.8810 O   0  0  0  0  0  0  0  0  0  0  0  0
    0.0560    0.7120    0.3190 C   0  0  0  0  0  0  0  0  0  0  0  0
    0.7160   -0.5700    0.6740 C   0  0  2  0  0  0  0  0  0  0  0  0
    0.7790   -0.7650    2.0630 O   0  0  0  0  0  0  0  0  0  0  0  0
    2.0090   -0.6410    0.1840 O   0  0  0  0  0  0  0  0  0  0  0  0
    2.8360    0.3080    0.7280 C   0  0  0  0  0  0  0  0  0  0  0  0
    4.2560    0.2120    0.1750 C   0  0  1  0  0  0  0  0  0  0  0  0
    4.7690   -1.0260    0.4640 O   0  0  0  0  0  0  0  0  0  0  0  0
    4.2330    0.4770   -1.3360 C   0  0  0  0  0  0  0  0  0  0  0  0
    3.7090    1.7340   -1.5940 O   0  0  0  0  0  0  0  0  0  0  0  0
   -0.1680   -1.6580    0.1070 C   0  0  2  0  0  0  0  0  0  0  0  0
    0.3510   -2.0820   -1.1300 O   0  0  0  0  0  0  0  0  0  0  0  0
   -1.5270   -1.0070   -0.1160 C   0  0  1  0  0  0  0  0  0  0  0  0
   -2.3850   -1.1260    1.1040 C   0  0  0  0  0  0  0  0  0  0  0  0
   -1.8420   -0.6010    2.2480 O   0  0  0  0  0  0  0  0  0  0  0  0
   -2.1970   -1.8080   -1.2290 C   0  0  0  0  0  0  0  0  0  0  0  0
   -2.4740   -3.0720   -0.7110 O   0  0  0  0  0  0  0  0  0  0  0  0
  1  2  1  0
  2  3  1  0
  3  4  2  0
  3  5  1  0
  5  6  1  6
  5  7  1  0
  5 18  1  0
  7  8  1  0
  8  9  1  1
  8 10  1  0
  8 16  1  0
 10 11  1  0
 11 12  1  0
 12 13  1  6
 12 14  1  0
 14 15  1  0
 16 17  1  6
 16 18  1  0
 18 19  1  1
 18 21  1  0
 19 20  1  0
 21 22  1  0
M  END
