
     RDKit          3D

 22 22  0  0  0  0  0  0  0  0999 V2000
    1.3810    1.9690   -0.8510 O   0  0  0  0  0  0  0  0  0  0  0  0
    2.0830    1.1650   -0.2050 C   0  0  0  0  0  0  0  0  0  0  0  0
    1.4740   -0.0380    0.2030 O   0  0  0  0  0  0  0  0  0  0  0  0
    0.1910   -0.3650   -0.0620 C   0  0  0  0  0  0  0  0  0  0  0  0
   -0.9780    0.2050    0.5540 C   0  0  0  0  0  0  0  0  0  0  0  0
   -2.2590   -0.2610   -0.1780 C   0  0  1  0  0  0  0  0  0  0  0  0
   -3.5210    0.0040    0.5820 C   0  0  0  0  0  0  0  0  0  0  0  0
   -3.7740    1.3700    1.0740 C   0  0  0  0  0  0  0  0  0  0  0  0
   -5.1040    1.3410    1.5880 O   0  0  0  0  0  0  0  0  0  0  0  0
   -2.4370    0.6050   -1.4780 C   0  0  0  0  0  0  0  0  0  0  0  0
   -3.4300   -0.1460   -2.1170 O   0  0  0  0  0  0  0  0  0  0  0  0
   -3.1690   -1.4730   -1.9530 C   0  0  2  0  0  0  0  0  0  0  0  0
   -4.3030   -2.2080   -1.6260 O   0  0  0  0  0  0  0  0  0  0  0  0
   -2.2180   -1.5820   -0.7740 C   0  0  2  0  0  0  0  0  0  0  0  0
   -2.6390   -2.5240    0.1630 O   0  0  0  0  0  0  0  0  0  0  0  0
    3.5100    1.4290    0.1300 C   0  0  1  0  0  0  0  0  0  0  0  0
    3.7800    1.9850    1.3410 O   0  0  0  0  0  0  0  0  0  0  0  0
    4.1700    0.0610   -0.0510 C   0  0  1  0  0  0  0  0  0  0  0  0
    3.8280   -0.5980   -1.1400 O   0  0  0  0  0  0  0  0  0  0  0  0
    5.6480    0.1930    0.3020 C   0  0  0  0  0  0  0  0  0  0  0  0
    5.7780   -0.7930    1.3070 O   0  0  0  0  0  0  0  0  0  0  0  0
    6.1470    0.0160    2.3910 O   0  0  0  0  0  0  0  0  0  0  0  0
  1  2  2  0
  2  3  1  0
  2 16  1  0
  3  4  1  0
  4  5  1  0
  6  5  1  1
  6  7  1  0
  6 10  1  0
  6 14  1  0
  7  8  1  0
  8  9  1  0
 10 11  1  0
 11 12  1  0
 12 13  1  1
 12 14  1  0
 14 15  1  1
 16 17  1  1
 16 18  1  0
 18 19  1  6
 18 20  1  0
 20 21  1  0
 21 22  1  0
M  END
