
     RDKit          3D

 22 22  0  0  0  0  0  0  0  0999 V2000
   -3.2790    0.7710    0.3180 C   0  0  0  0  0  0  0  0  0  0  0  0
   -3.1150   -0.7040    0.2040 C   0  0  1  0  0  0  0  0  0  0  0  0
   -4.2720   -1.2150   -0.6650 C   0  0  0  0  0  0  0  0  0  0  0  0
   -4.2400   -0.6330   -1.9250 O   0  0  0  0  0  0  0  0  0  0  0  0
   -1.8370   -1.2100   -0.3380 C   0  0  0  0  0  0  0  0  0  0  0  0
   -0.5800   -0.8870    0.4040 C   0  0  2  0  0  0  0  0  0  0  0  0
   -0.7490   -1.4200    1.7090 O   0  0  0  0  0  0  0  0  0  0  0  0
   -0.3300    0.5470    0.5050 C   0  0  0  0  0  0  0  0  0  0  0  0
    1.1480    0.7460    0.9420 C   0  0  2  0  0  0  0  0  0  0  0  0
    1.2870    2.1190    1.1660 O   0  0  0  0  0  0  0  0  0  0  0  0
    1.6670    2.6030    2.4100 C   0  0  0  0  0  0  0  0  0  0  0  0
    1.8740    1.7460    3.3060 O   0  0  0  0  0  0  0  0  0  0  0  0
    1.8120    3.9800    2.6510 O   0  0  0  0  0  0  0  0  0  0  0  0
    1.9210    0.2560   -0.2680 C   0  0  1  0  0  0  0  0  0  0  0  0
    1.6100    1.1690   -1.3020 O   0  0  0  0  0  0  0  0  0  0  0  0
    3.4100    0.3450   -0.0630 C   0  0  0  0  0  0  0  0  0  0  0  0
    4.0560   -0.1580   -1.3040 C   0  0  0  0  0  0  0  0  0  0  0  0
    4.1190    0.5320   -2.3660 O   0  0  0  0  0  0  0  0  0  0  0  0
    4.6380   -1.4250   -1.3820 O   0  0  0  0  0  0  0  0  0  0  0  0
    1.5180   -1.1000   -0.6540 C   0  0  2  0  0  0  0  0  0  0  0  0
    1.4290   -1.1390   -2.0680 O   0  0  0  0  0  0  0  0  0  0  0  0
    0.4200   -1.6490   -0.1490 O   0  0  0  0  0  0  0  0  0  0  0  0
  2  1  1  6
  2  3  1  0
  2  5  1  0
  3  4  1  0
  5  6  1  0
  6  7  1  1
  6  8  1  0
  6 22  1  0
  8  9  1  0
  9 10  1  6
  9 14  1  0
 10 11  1  0
 11 12  2  0
 11 13  1  0
 14 15  1  6
 14 16  1  0
 14 20  1  0
 16 17  1  0
 17 18  2  0
 17 19  1  0
 20 21  1  6
 20 22  1  0
M  END
