
     RDKit          3D

 19 21  0  0  0  0  0  0  0  0999 V2000
   -2.4740    2.0590    0.2330 N   0  0  0  0  0  0  0  0  0  0  0  0
   -2.7130    1.0440   -0.7370 C   0  0  2  0  0  0  0  0  0  0  0  0
   -3.2460   -0.2390   -0.1370 C   0  0  0  0  0  0  0  0  0  0  0  0
   -2.2670   -1.0590    0.1550 C   0  0  0  0  0  0  0  0  0  0  0  0
   -1.7450   -2.3740    0.6920 C   0  0  0  0  0  0  0  0  0  0  0  0
   -0.8360   -2.6540   -0.3140 O   0  0  0  0  0  0  0  0  0  0  0  0
   -0.0920   -1.5030   -0.5020 C   0  0  2  0  0  0  0  0  0  0  0  0
    1.1020   -1.5830    0.4120 C   0  0  0  0  0  0  0  0  0  0  0  0
    2.0020   -0.4740    0.3530 N   0  0  0  0  0  0  0  0  0  0  0  0
    1.9470    0.5480    1.1770 N   0  0  0  0  0  0  0  0  0  0  0  0
    2.8520    1.5610    1.0800 C   0  0  0  0  0  0  0  0  0  0  0  0
    2.7860    2.5280    1.8710 O   0  0  0  0  0  0  0  0  0  0  0  0
    3.8400    1.5490    0.1330 C   0  0  0  0  0  0  0  0  0  0  0  0
    4.6930    2.4630    0.0130 O   0  0  0  0  0  0  0  0  0  0  0  0
    3.8840    0.4900   -0.7060 N   0  0  0  0  0  0  0  0  0  0  0  0
    2.9820   -0.4710   -0.5730 C   0  0  0  0  0  0  0  0  0  0  0  0
    3.0620   -1.4530   -1.3880 O   0  0  0  0  0  0  0  0  0  0  0  0
   -0.9770   -0.3690   -0.1760 C   0  0  1  0  0  0  0  0  0  0  0  0
   -1.3980    0.4900   -1.3480 C   0  0  0  0  0  0  0  0  0  0  0  0
  2  1  1  1
  2  3  1  0
  2 19  1  0
  3  4  2  0
  4  5  1  0
  4 18  1  0
  5  6  1  0
  6  7  1  0
  7  8  1  1
  7 18  1  0
  8  9  1  0
  9 10  1  0
  9 16  1  0
 10 11  1  0
 11 12  2  0
 11 13  1  0
 13 14  2  0
 13 15  1  0
 15 16  1  0
 16 17  2  0
 18 19  1  6
M  CHG  1   1   1
M  END
