
     RDKit          3D

 26 28  0  0  0  0  0  0  0  0999 V2000
    7.3850    2.3690    1.8090 N   0  0  0  0  0  0  0  0  0  0  0  0
    7.3840    1.4370    0.7190 C   0  0  0  0  0  0  0  0  0  0  0  0
    8.5160    1.1460    0.1890 N   0  0  0  0  0  0  0  0  0  0  0  0
    6.1250    0.8530    0.2470 C   0  0  0  0  0  0  0  0  0  0  0  0
    4.9450    1.2050    0.8580 C   0  0  0  0  0  0  0  0  0  0  0  0
    3.7160    0.6670    0.4340 C   0  0  0  0  0  0  0  0  0  0  0  0
    3.6240   -0.2280   -0.5960 C   0  0  0  0  0  0  0  0  0  0  0  0
    2.4300   -0.8150   -1.0600 N   0  0  0  0  0  0  0  0  0  0  0  0
    1.1500   -0.7610   -0.4490 C   0  0  0  0  0  0  0  0  0  0  0  0
    1.0360   -0.1360    0.6210 O   0  0  0  0  0  0  0  0  0  0  0  0
    0.0180   -1.3730   -0.9880 N   0  0  0  0  0  0  0  0  0  0  0  0
   -1.2820   -1.3810   -0.4620 C   0  0  0  0  0  0  0  0  0  0  0  0
   -2.3350   -1.8940   -1.2470 C   0  0  0  0  0  0  0  0  0  0  0  0
   -3.6310   -1.9460   -0.8030 C   0  0  0  0  0  0  0  0  0  0  0  0
   -3.9940   -1.4990    0.4470 C   0  0  0  0  0  0  0  0  0  0  0  0
   -5.3170   -1.5690    0.8630 O   0  0  0  0  0  0  0  0  0  0  0  0
   -6.2230   -0.5370    0.6480 C   0  0  0  0  0  0  0  0  0  0  0  0
   -5.8750    0.6350    0.0060 C   0  0  0  0  0  0  0  0  0  0  0  0
   -6.7870    1.6460   -0.1970 C   0  0  0  0  0  0  0  0  0  0  0  0
   -8.0770    1.4450    0.2690 C   0  0  0  0  0  0  0  0  0  0  0  0
   -8.4460    0.2670    0.9200 C   0  0  0  0  0  0  0  0  0  0  0  0
   -7.5130   -0.7360    1.1140 C   0  0  0  0  0  0  0  0  0  0  0  0
   -2.9900   -0.9950    1.2350 C   0  0  0  0  0  0  0  0  0  0  0  0
   -1.6600   -0.9420    0.7770 C   0  0  0  0  0  0  0  0  0  0  0  0
    4.8460   -0.5710   -1.2030 C   0  0  0  0  0  0  0  0  0  0  0  0
    6.0400   -0.0440   -0.7870 C   0  0  0  0  0  0  0  0  0  0  0  0
  1  2  1  0
  2  3  2  0
  2  4  1  0
  4  5  2  0
  4 26  1  0
  5  6  1  0
  6  7  2  0
  7  8  1  0
  7 25  1  0
  8  9  1  0
  9 10  2  0
  9 11  1  0
 11 12  1  0
 12 13  2  0
 12 24  1  0
 13 14  1  0
 14 15  2  0
 15 16  1  0
 15 23  1  0
 16 17  1  0
 17 18  2  0
 17 22  1  0
 18 19  1  0
 19 20  2  0
 20 21  1  0
 21 22  2  0
 23 24  2  0
 25 26  2  0
M  CHG  1   3   1
M  END
