
     RDKit          3D

 18 19  0  0  0  0  0  0  0  0999 V2000
   -3.5000   -2.7060   -0.9710 C   0  0  0  0  0  0  0  0  0  0  0  0
   -3.0660   -1.6350   -0.0050 C   0  0  1  0  0  0  0  0  0  0  0  0
   -1.6350   -1.6430    0.2160 N   0  0  0  0  0  0  0  0  0  0  0  0
   -1.3240   -0.3300    0.7360 C   0  0  1  0  0  0  0  0  0  0  0  0
    0.0780   -0.0130    0.5400 N   0  0  0  0  0  0  0  0  0  0  0  0
    0.9480    0.3150    1.6100 C   0  0  0  0  0  0  0  0  0  0  0  0
    0.6320    0.6420    2.7860 O   0  0  0  0  0  0  0  0  0  0  0  0
    2.3640    0.2280    1.1700 C   0  0  0  0  0  0  0  0  0  0  0  0
    2.2530   -0.0980   -0.2810 C   0  0  2  0  0  0  0  0  0  0  0  0
    3.1410    0.8550   -1.0490 C   0  0  0  0  0  0  0  0  0  0  0  0
    4.4960    0.6570   -0.5680 N   0  0  0  0  0  0  0  0  0  0  0  0
    0.8350    0.0390   -0.6380 C   0  0  0  0  0  0  0  0  0  0  0  0
    0.3760    0.1780   -1.7910 O   0  0  0  0  0  0  0  0  0  0  0  0
   -2.2160    0.5760   -0.0170 C   0  0  0  0  0  0  0  0  0  0  0  0
   -2.1270    1.8770   -0.1810 C   0  0  0  0  0  0  0  0  0  0  0  0
   -1.0830    2.6490    0.3840 N   0  0  0  0  0  0  0  0  0  0  0  0
   -3.2640   -0.2650   -0.5740 C   0  0  0  0  0  0  0  0  0  0  0  0
   -4.1900    0.0110   -1.3750 O   0  0  0  0  0  0  0  0  0  0  0  0
  2  1  1  6
  2  3  1  0
  2 17  1  0
  3  4  1  0
  4  5  1  6
  4 14  1  0
  5  6  1  0
  5 12  1  0
  6  7  2  0
  6  8  1  0
  8  9  1  0
  9 10  1  6
  9 12  1  0
 10 11  1  0
 12 13  2  0
 14 15  2  3
 14 17  1  0
 15 16  1  0
 17 18  2  0
M  CHG  1  11   1
M  END
