
     RDKit          3D

 30 32  0  0  0  0  0  0  0  0999 V2000
   -3.9990   -5.3530    0.5850 O   0  0  0  0  0  0  0  0  0  0  0  0
   -2.8000   -4.9850    0.5140 C   0  0  0  0  0  0  0  0  0  0  0  0
   -1.8100   -5.9460    0.6830 O   0  0  0  0  0  0  0  0  0  0  0  0
   -2.4050   -3.6550    0.2730 N   0  0  0  0  0  0  0  0  0  0  0  0
   -3.0790   -2.9160   -0.5660 C   0  0  0  0  0  0  0  0  0  0  0  0
   -4.1670   -3.3450   -1.2480 O   0  0  0  0  0  0  0  0  0  0  0  0
   -4.8630   -2.5900   -2.1890 C   0  0  0  0  0  0  0  0  0  0  0  0
   -3.9790   -1.5310   -2.8030 C   0  0  0  0  0  0  0  0  0  0  0  0
   -3.3890   -0.7830   -1.6960 N   0  0  0  0  0  0  0  0  0  0  0  0
   -2.6030   -1.5210   -0.7700 C   0  0  0  0  0  0  0  0  0  0  0  0
   -1.5610   -1.0770   -0.1230 C   0  0  0  0  0  0  0  0  0  0  0  0
   -1.0410    0.2620   -0.2720 C   0  0  0  0  0  0  0  0  0  0  0  0
   -1.5520    1.1330   -1.0590 N   0  0  0  0  0  0  0  0  0  0  0  0
   -1.0930    2.4110   -1.2320 O   0  0  0  0  0  0  0  0  0  0  0  0
   -0.0520    2.7390   -2.1370 C   0  0  0  0  0  0  0  0  0  0  0  0
    0.2260    4.2210   -2.1020 C   0  0  2  0  0  0  0  0  0  0  0  0
    0.6550    4.8890   -0.8550 C   0  0  0  0  0  0  0  0  0  0  0  0
   -0.7730    5.0490   -1.2720 C   0  0  0  0  0  0  0  0  0  0  0  0
    0.1620    0.7030    0.5160 C   0  0  1  0  0  0  0  0  0  0  0  0
   -0.0940    0.6060    1.9950 C   0  0  0  0  0  0  0  0  0  0  0  0
    0.9720    0.2610    2.7630 O   0  0  0  0  0  0  0  0  0  0  0  0
    2.0430    1.1170    2.7370 C   0  0  0  0  0  0  0  0  0  0  0  0
    3.1570    0.6670    1.8240 C   0  0  1  0  0  0  0  0  0  0  0  0
    4.0560   -0.2580    2.6120 C   0  0  0  0  0  0  0  0  0  0  0  0
    5.4740   -0.8870    1.5980 P   0  0  0  0  0  0  0  0  0  0  0  0
    4.9250   -2.3630    0.8270 O   0  0  0  0  0  0  0  0  0  0  0  0
    6.8110   -1.3040    2.6220 O   0  0  0  0  0  0  0  0  0  0  0  0
    2.6570    0.0540    0.5850 C   0  0  0  0  0  0  0  0  0  0  0  0
    3.4990   -0.3590   -0.2390 O   0  0  0  0  0  0  0  0  0  0  0  0
    1.3040   -0.1330    0.1970 N   0  0  0  0  0  0  0  0  0  0  0  0
  1  2  2  0
  2  3  1  0
  2  4  1  0
  4  5  2  3
  5  6  1  0
  5 10  1  0
  6  7  1  0
  7  8  1  0
  8  9  1  0
  9 10  1  0
 10 11  2  3
 11 12  1  0
 12 13  2  3
 19 12  1  6
 13 14  1  0
 14 15  1  0
 16 15  1  1
 16 17  1  0
 16 18  1  0
 17 18  1  0
 19 20  1  0
 19 30  1  0
 20 21  1  0
 21 22  1  0
 22 23  1  0
 23 24  1  1
 23 28  1  0
 24 25  1  0
 25 26  1  0
 25 27  1  0
 28 29  2  0
 28 30  1  0
M  END
