
     RDKit          3D

 31 33  0  0  0  0  0  0  0  0999 V2000
    5.0300   -2.8470    0.9500 C   0  0  0  0  0  0  0  0  0  0  0  0
    4.7700   -1.4450    1.1640 C   0  0  0  0  0  0  0  0  0  0  0  0
    3.5910   -0.8160    0.8970 C   0  0  0  0  0  0  0  0  0  0  0  0
    2.5750   -1.6490    0.3700 C   0  0  0  0  0  0  0  0  0  0  0  0
    2.8340   -2.9300    0.1730 O   0  0  0  0  0  0  0  0  0  0  0  0
    1.2560   -1.3180   -0.0020 N   0  0  0  0  0  0  0  0  0  0  0  0
    0.3470   -2.2890   -0.5260 C   0  0  0  0  0  0  0  0  0  0  0  0
   -0.8760   -2.0830   -0.9000 C   0  0  0  0  0  0  0  0  0  0  0  0
   -1.8030   -3.0290   -1.4170 O   0  0  0  0  0  0  0  0  0  0  0  0
   -3.1270   -2.4630   -1.2530 C   0  0  0  0  0  0  0  0  0  0  0  0
   -2.9770   -1.2500   -0.4020 C   0  0  2  0  0  0  0  0  0  0  0  0
   -3.9580   -0.1980   -0.4830 C   0  0  0  0  0  0  0  0  0  0  0  0
   -5.1730   -0.4670   -0.3620 O   0  0  0  0  0  0  0  0  0  0  0  0
   -3.6260    1.1890   -0.7020 N   0  0  0  0  0  0  0  0  0  0  0  0
   -4.6610    2.1930   -0.5870 C   0  0  1  0  0  0  0  0  0  0  0  0
   -5.7250    1.9220   -1.5880 C   0  0  0  0  0  0  0  0  0  0  0  0
   -6.8420    1.6910   -1.0230 N   0  0  0  0  0  0  0  0  0  0  0  0
   -6.7380    1.7590    0.3670 N   0  0  0  0  0  0  0  0  0  0  0  0
   -5.3860    2.0720    0.6860 C   0  0  0  0  0  0  0  0  0  0  0  0
   -4.9380    2.2110    1.8670 O   0  0  0  0  0  0  0  0  0  0  0  0
   -2.2860    1.5140   -1.0230 C   0  0  0  0  0  0  0  0  0  0  0  0
   -1.9660    2.7310   -1.2300 O   0  0  0  0  0  0  0  0  0  0  0  0
   -1.2970    0.4460   -1.1100 C   0  0  0  0  0  0  0  0  0  0  0  0
   -1.6040   -0.8030   -0.8840 C   0  0  0  0  0  0  0  0  0  0  0  0
    3.6230    0.5700    1.2040 C   0  0  0  0  0  0  0  0  0  0  0  0
    2.8560    1.5890    1.1590 C   0  0  0  0  0  0  0  0  0  0  0  0
    1.5680    1.6670    0.7330 O   0  0  0  0  0  0  0  0  0  0  0  0
    4.9440    0.9750    1.7440 O   0  0  0  0  0  0  0  0  0  0  0  0
    6.1220    1.6200    0.6320 P   0  0  0  0  0  0  0  0  0  0  0  0
    6.3990    0.5610   -0.7110 O   0  0  0  0  0  0  0  0  0  0  0  0
    5.7750    3.2230    0.1250 O   0  0  0  0  0  0  0  0  0  0  0  0
  1  2  1  0
  2  3  2  3
  3  4  1  0
  3 25  1  0
  4  5  2  0
  4  6  1  0
  6  7  1  0
  7  8  2  3
  8  9  1  0
  8 24  1  0
  9 10  1  0
 11 10  1  6
 11 12  1  0
 11 24  1  0
 12 13  2  0
 12 14  1  0
 15 14  1  1
 14 21  1  0
 15 16  1  0
 15 19  1  0
 16 17  2  0
 17 18  1  0
 18 19  1  0
 19 20  2  0
 21 22  2  0
 21 23  1  0
 23 24  2  0
 25 26  2  3
 25 28  1  0
 26 27  1  0
 28 29  1  0
 29 30  1  0
 29 31  1  0
M  END
