
     RDKit          3D

 31 33  0  0  0  0  0  0  0  0999 V2000
   -7.9480    3.3540    1.5390 N   0  0  0  0  0  0  0  0  0  0  0  0
   -7.5930    1.9750    1.5460 C   0  0  0  0  0  0  0  0  0  0  0  0
   -8.3960    1.1410    2.0490 O   0  0  0  0  0  0  0  0  0  0  0  0
   -6.3840    1.4610    1.0190 N   0  0  0  0  0  0  0  0  0  0  0  0
   -6.0260    0.0790    1.0260 C   0  0  2  0  0  0  0  0  0  0  0  0
   -4.6010   -0.1420    1.4540 C   0  0  0  0  0  0  0  0  0  0  0  0
   -4.3260   -0.9280    0.2740 N   0  0  0  0  0  0  0  0  0  0  0  0
   -3.2570   -1.7570   -0.1170 C   0  0  0  0  0  0  0  0  0  0  0  0
   -3.3020   -2.3270   -1.2340 O   0  0  0  0  0  0  0  0  0  0  0  0
   -2.1570   -1.9650    0.6860 O   0  0  0  0  0  0  0  0  0  0  0  0
   -1.0600   -2.7710    0.3680 C   0  0  0  0  0  0  0  0  0  0  0  0
   -0.4100   -2.3280   -0.8050 O   0  0  0  0  0  0  0  0  0  0  0  0
    0.1410   -1.0650   -0.9120 C   0  0  0  0  0  0  0  0  0  0  0  0
    0.0800   -0.2580    0.0440 O   0  0  0  0  0  0  0  0  0  0  0  0
    0.7960   -0.7360   -2.2090 C   0  0  2  0  0  0  0  0  0  0  0  0
    1.9330   -1.7150   -2.4160 C   0  0  0  0  0  0  0  0  0  0  0  0
    3.0130   -1.1240   -1.5270 C   0  0  0  0  0  0  0  0  0  0  0  0
    2.7670    0.2540   -1.3930 N   0  0  0  0  0  0  0  0  0  0  0  0
    3.4570    1.2540   -0.7090 C   0  0  0  0  0  0  0  0  0  0  0  0
    2.9420    2.4390   -0.8110 O   0  0  0  0  0  0  0  0  0  0  0  0
    4.6450    1.1520    0.0820 C   0  0  0  0  0  0  0  0  0  0  0  0
    5.3300    0.0590    0.3270 C   0  0  0  0  0  0  0  0  0  0  0  0
    6.5580    0.0210    1.1580 C   0  0  1  0  0  0  0  0  0  0  0  0
    6.2910   -0.8920    2.2010 O   0  0  0  0  0  0  0  0  0  0  0  0
    7.9580   -0.7090    0.1580 P   0  0  0  0  0  0  0  0  0  0  0  0
    9.4060   -0.2110    0.4090 O   0  0  0  0  0  0  0  0  0  0  0  0
    6.9720    1.2380    1.6810 O   0  0  0  0  0  0  0  0  0  0  0  0
    6.2840    2.3990    1.4470 C   0  0  0  0  0  0  0  0  0  0  0  0
    5.2040    2.3900    0.7120 C   0  0  0  0  0  0  0  0  0  0  0  0
    1.5280    0.5860   -2.1500 C   0  0  0  0  0  0  0  0  0  0  0  0
   -5.5710   -0.5030   -0.2890 C   0  0  0  0  0  0  0  0  0  0  0  0
  1  2  1  0
  2  3  2  0
  2  4  1  0
  5  4  1  6
  5  6  1  0
  5 31  1  0
  6  7  1  0
  7  8  1  0
  7 31  1  0
  8  9  2  0
  8 10  1  0
 10 11  1  0
 11 12  1  0
 12 13  1  0
 13 14  2  0
 15 13  1  1
 15 16  1  0
 15 30  1  0
 16 17  1  0
 17 18  1  0
 18 19  1  0
 18 30  1  0
 19 20  2  0
 19 21  1  0
 21 22  2  0
 21 29  1  0
 22 23  1  0
 23 24  1  1
 23 25  1  0
 23 27  1  0
 25 26  2  0
 27 28  1  0
 28 29  2  0
M  END
