
     RDKit          3D

 31 33  0  0  0  0  0  0  0  0999 V2000
   -0.0660    1.4630   -0.4880 O   0  0  0  0  0  0  0  0  0  0  0  0
   -1.2810    1.3860   -0.2720 C   0  0  0  0  0  0  0  0  0  0  0  0
   -2.0430    2.5860   -0.2620 N   0  0  0  0  0  0  0  0  0  0  0  0
   -1.5000    3.8860   -0.4850 C   0  0  0  0  0  0  0  0  0  0  0  0
   -0.4420    4.2590    0.5330 C   0  0  0  0  0  0  0  0  0  0  0  0
   -0.9870    4.2440    1.8090 O   0  0  0  0  0  0  0  0  0  0  0  0
   -1.9410    0.1060   -0.0300 C   0  0  0  0  0  0  0  0  0  0  0  0
   -1.2200   -1.0010   -0.0420 C   0  0  0  0  0  0  0  0  0  0  0  0
    0.1750   -0.8830   -0.2940 N   0  0  0  0  0  0  0  0  0  0  0  0
    0.9140   -1.8330    0.1580 C   0  0  0  0  0  0  0  0  0  0  0  0
    0.4640   -2.9010    0.8340 N   0  0  0  0  0  0  0  0  0  0  0  0
    1.2550   -3.8760    1.2960 C   0  0  0  0  0  0  0  0  0  0  0  0
    2.5710   -3.8080    1.0830 N   0  0  0  0  0  0  0  0  0  0  0  0
    3.0860   -2.7520    0.4040 C   0  0  0  0  0  0  0  0  0  0  0  0
    2.2820   -1.7380   -0.0760 C   0  0  0  0  0  0  0  0  0  0  0  0
    2.7340   -0.6090   -0.8570 C   0  0  0  0  0  0  0  0  0  0  0  0
    2.1040   -0.2370   -1.8940 O   0  0  0  0  0  0  0  0  0  0  0  0
    3.9190    0.1460   -0.4870 C   0  0  0  0  0  0  0  0  0  0  0  0
    4.6600   -0.0510    0.5740 C   0  0  0  0  0  0  0  0  0  0  0  0
    5.8790    0.7270    0.9430 C   0  0  0  0  0  0  0  0  0  0  0  0
    6.2010    1.7380    0.0580 O   0  0  0  0  0  0  0  0  0  0  0  0
    5.4290    1.9480   -1.0540 C   0  0  0  0  0  0  0  0  0  0  0  0
    4.3620    1.2530   -1.3700 C   0  0  0  0  0  0  0  0  0  0  0  0
   -1.8710   -2.2020    0.1900 O   0  0  0  0  0  0  0  0  0  0  0  0
   -3.1910   -2.2320    0.7600 C   0  0  0  0  0  0  0  0  0  0  0  0
   -3.9870   -1.1410    0.0330 C   0  0  1  0  0  0  0  0  0  0  0  0
   -5.2770   -1.1060    0.5600 O   0  0  0  0  0  0  0  0  0  0  0  0
   -6.3630   -1.5940   -0.6930 P   0  0  0  0  0  0  0  0  0  0  0  0
   -6.0290   -0.6750   -2.1030 O   0  0  0  0  0  0  0  0  0  0  0  0
   -8.0090   -1.5710   -0.2200 O   0  0  0  0  0  0  0  0  0  0  0  0
   -3.3240    0.0740    0.2110 O   0  0  0  0  0  0  0  0  0  0  0  0
  1  2  2  0
  2  3  1  0
  2  7  1  0
  3  4  1  0
  4  5  1  0
  5  6  1  0
  7  8  2  0
  7 31  1  0
  8  9  1  0
  8 24  1  0
  9 10  2  3
 10 11  1  0
 10 15  1  0
 11 12  2  0
 12 13  1  0
 13 14  1  0
 14 15  2  0
 15 16  1  0
 16 17  2  0
 16 18  1  0
 18 19  2  0
 18 23  1  0
 19 20  1  0
 20 21  1  0
 21 22  1  0
 22 23  2  0
 24 25  1  0
 25 26  1  0
 26 27  1  1
 26 31  1  0
 27 28  1  0
 28 29  1  0
 28 30  1  0
M  END
