
     RDKit          3D

 31 33  0  0  0  0  0  0  0  0999 V2000
    6.3530   -1.8590    2.3570 O   0  0  0  0  0  0  0  0  0  0  0  0
    5.7660   -2.0560    1.2710 C   0  0  0  0  0  0  0  0  0  0  0  0
    6.3450   -2.9660    0.3940 O   0  0  0  0  0  0  0  0  0  0  0  0
    4.5310   -1.3710    0.9250 C   0  0  0  0  0  0  0  0  0  0  0  0
    3.9530   -0.4740    1.7800 C   0  0  0  0  0  0  0  0  0  0  0  0
    2.7870    0.1670    1.4420 C   0  0  0  0  0  0  0  0  0  0  0  0
    2.1270   -0.0550    0.2190 C   0  0  0  0  0  0  0  0  0  0  0  0
    0.9370    0.6300   -0.0530 N   0  0  0  0  0  0  0  0  0  0  0  0
    0.2030    0.6280   -1.2380 C   0  0  0  0  0  0  0  0  0  0  0  0
    0.6350   -0.0910   -2.2070 O   0  0  0  0  0  0  0  0  0  0  0  0
   -1.0700    1.4050   -1.4670 C   0  0  2  0  0  0  0  0  0  0  0  0
   -1.3040    2.3760   -0.4130 C   0  0  0  0  0  0  0  0  0  0  0  0
   -0.1970    3.4030   -0.4440 C   0  0  0  0  0  0  0  0  0  0  0  0
   -0.3580    4.6590    0.8980 P   0  0  0  0  0  0  0  0  0  0  0  0
   -2.0550    5.0450    1.1190 O   0  0  0  0  0  0  0  0  0  0  0  0
    0.4050    6.1220    0.3330 O   0  0  0  0  0  0  0  0  0  0  0  0
   -2.0830    0.6250   -2.0360 N   0  0  0  0  0  0  0  0  0  0  0  0
   -2.5850   -0.5430   -1.4010 C   0  0  0  0  0  0  0  0  0  0  0  0
   -2.5460   -0.7290   -0.1270 N   0  0  0  0  0  0  0  0  0  0  0  0
   -3.1370   -2.0100    0.1670 C   0  0  0  0  0  0  0  0  0  0  0  0
   -3.3640   -2.7130    1.2870 N   0  0  0  0  0  0  0  0  0  0  0  0
   -3.9560   -3.9220    1.2350 C   0  0  0  0  0  0  0  0  0  0  0  0
   -4.1770   -4.5990    2.2910 O   0  0  0  0  0  0  0  0  0  0  0  0
   -4.3410   -4.4820    0.1010 O   0  0  0  0  0  0  0  0  0  0  0  0
   -4.1500   -3.8490   -1.0430 C   0  0  0  0  0  0  0  0  0  0  0  0
   -4.5000   -4.3410   -2.1520 O   0  0  0  0  0  0  0  0  0  0  0  0
   -3.5480   -2.6120   -1.0120 C   0  0  0  0  0  0  0  0  0  0  0  0
   -3.2000   -1.6730   -2.0730 C   0  0  0  0  0  0  0  0  0  0  0  0
   -3.4030   -1.8310   -3.3230 O   0  0  0  0  0  0  0  0  0  0  0  0
    2.7180   -0.9520   -0.6210 C   0  0  0  0  0  0  0  0  0  0  0  0
    3.9100   -1.6050   -0.2700 C   0  0  0  0  0  0  0  0  0  0  0  0
  1  2  2  0
  2  3  1  0
  2  4  1  0
  4  5  2  0
  4 31  1  0
  5  6  1  0
  6  7  2  0
  7  8  1  0
  7 30  1  0
  8  9  1  0
  9 10  2  0
  9 11  1  0
 11 12  1  1
 11 17  1  0
 12 13  1  0
 13 14  1  0
 14 15  1  0
 14 16  1  0
 17 18  1  0
 18 19  2  0
 18 28  1  0
 19 20  1  0
 20 21  1  0
 20 27  2  0
 21 22  1  0
 22 23  2  0
 22 24  1  0
 24 25  1  0
 25 26  2  0
 25 27  1  0
 27 28  1  0
 28 29  2  0
 30 31  2  0
M  END
