
     RDKit          3D

 31 32  0  0  0  0  0  0  0  0999 V2000
    7.6260   -1.9270   -0.9580 C   0  0  0  0  0  0  0  0  0  0  0  0
    6.1820   -1.9220   -0.8630 C   0  0  0  0  0  0  0  0  0  0  0  0
    5.4740   -0.7450   -0.7410 C   0  0  0  0  0  0  0  0  0  0  0  0
    6.2110    0.4670   -0.7040 C   0  0  0  0  0  0  0  0  0  0  0  0
    5.9850    1.7450   -0.6260 C   0  0  0  0  0  0  0  0  0  0  0  0
    7.1760    2.5990   -0.6170 O   0  0  0  0  0  0  0  0  0  0  0  0
    7.9690    2.5750    0.9740 P   0  0  0  0  0  0  0  0  0  0  0  0
    8.7640    1.0210    1.1880 O   0  0  0  0  0  0  0  0  0  0  0  0
    6.6820    2.7160    2.1740 O   0  0  0  0  0  0  0  0  0  0  0  0
    4.0720   -0.9560   -0.6310 C   0  0  0  0  0  0  0  0  0  0  0  0
    3.4980   -1.9810   -0.5980 O   0  0  0  0  0  0  0  0  0  0  0  0
    3.1420    0.4590   -0.5490 N   0  0  0  0  0  0  0  0  0  0  0  0
    1.8200   -0.2180   -0.4520 C   0  0  0  0  0  0  0  0  0  0  0  0
    1.6230   -1.3040   -0.0290 O   0  0  0  0  0  0  0  0  0  0  0  0
    0.9900    0.8040   -0.9830 N   0  0  0  0  0  0  0  0  0  0  0  0
   -0.4730    0.3070   -0.1470 C   0  0  0  0  0  0  0  0  0  0  0  0
   -0.3080   -0.5770    0.5690 O   0  0  0  0  0  0  0  0  0  0  0  0
   -1.5350    1.1590   -0.5560 C   0  0  0  0  0  0  0  0  0  0  0  0
   -1.6260    1.7770   -1.6750 O   0  0  0  0  0  0  0  0  0  0  0  0
   -2.6550    1.4380    0.2830 O   0  0  0  0  0  0  0  0  0  0  0  0
   -3.6680    2.2970   -0.2860 C   0  0  0  0  0  0  0  0  0  0  0  0
   -4.4900    1.4270   -1.2630 C   0  0  0  0  0  0  0  0  0  0  0  0
   -5.1780    0.4230   -0.4390 N   0  0  0  0  0  0  0  0  0  0  0  0
   -6.5520    0.6900   -0.0160 C   0  0  0  0  0  0  0  0  0  0  0  0
   -6.8360   -0.1190    1.2560 C   0  0  1  0  0  0  0  0  0  0  0  0
   -7.3140   -1.5110    0.9420 C   0  0  0  0  0  0  0  0  0  0  0  0
   -6.0760   -2.3610    0.9400 C   0  0  0  0  0  0  0  0  0  0  0  0
   -4.9680   -1.3860    1.2510 C   0  0  2  0  0  0  0  0  0  0  0  0
   -5.6440   -0.3240    2.0070 N   0  0  0  0  0  0  0  0  0  0  0  0
   -4.5470   -0.7580   -0.0660 C   0  0  0  0  0  0  0  0  0  0  0  0
   -3.6630   -1.3300   -0.7400 O   0  0  0  0  0  0  0  0  0  0  0  0
  1  2  1  0
  2  3  2  3
  3  4  1  0
  3 10  1  0
  4  5  2  3
  5  6  1  0
  6  7  1  0
  7  8  1  0
  7  9  1  0
 10 11  2  0
 10 12  1  0
 12 13  1  0
 13 14  2  0
 13 15  1  0
 15 16  1  0
 16 17  2  0
 16 18  1  0
 18 19  2  0
 18 20  1  0
 20 21  1  0
 21 22  1  0
 22 23  1  0
 23 24  1  0
 23 30  1  0
 25 24  1  6
 25 26  1  0
 25 29  1  0
 26 27  1  0
 28 27  1  6
 28 29  1  0
 28 30  1  0
 30 31  2  0
M  END
