
     RDKit          3D

 16 17  0  0  0  0  0  0  0  0999 V2000
    3.7130    0.7430    0.4710 C   0  0  0  0  0  0  0  0  0  0  0  0
    2.6700   -0.3410    0.2850 C   0  0  2  0  0  0  0  0  0  0  0  0
    3.3720   -1.6800    0.1690 C   0  0  0  0  0  0  0  0  0  0  0  0
    1.8160   -0.0900   -0.7700 O   0  0  0  0  0  0  0  0  0  0  0  0
    0.4650    0.1000   -0.7830 C   0  0  0  0  0  0  0  0  0  0  0  0
   -0.3540    0.0770    0.3220 C   0  0  0  0  0  0  0  0  0  0  0  0
   -1.7400    0.2820    0.2300 C   0  0  0  0  0  0  0  0  0  0  0  0
   -2.2580    0.5100   -1.0230 C   0  0  0  0  0  0  0  0  0  0  0  0
   -1.4800    0.5390   -2.1260 N   0  0  0  0  0  0  0  0  0  0  0  0
   -0.1580    0.3400   -2.0150 C   0  0  0  0  0  0  0  0  0  0  0  0
    0.5480    0.3700   -3.0450 O   0  0  0  0  0  0  0  0  0  0  0  0
   -3.6920    0.7270   -1.1500 C   0  0  0  0  0  0  0  0  0  0  0  0
   -4.1960    1.3550   -2.1250 O   0  0  0  0  0  0  0  0  0  0  0  0
   -4.8530    0.1160    0.0730 S   0  0  0  0  0  0  0  0  0  0  0  0
   -3.8620   -0.1940    1.5580 C   0  0  0  0  0  0  0  0  0  0  0  0
   -2.5110    0.2470    1.3960 N   0  0  0  0  0  0  0  0  0  0  0  0
  2  1  1  6
  2  3  1  0
  2  4  1  0
  4  5  1  0
  5  6  2  0
  5 10  1  0
  6  7  1  0
  7  8  2  0
  7 16  1  0
  8  9  1  0
  8 12  1  0
  9 10  1  0
 10 11  2  0
 12 13  2  0
 12 14  1  0
 14 15  1  0
 15 16  1  0
M  END
