
     RDKit          3D

 16 17  0  0  0  0  0  0  0  0999 V2000
    4.8080    0.8280    0.2150 C   0  0  0  0  0  0  0  0  0  0  0  0
    3.5060    0.1220    0.0800 C   0  0  0  0  0  0  0  0  0  0  0  0
    2.2440    0.6740   -0.0060 C   0  0  0  0  0  0  0  0  0  0  0  0
    1.3090   -0.3340   -0.1210 C   0  0  0  0  0  0  0  0  0  0  0  0
   -0.1470   -0.1780   -0.2390 C   0  0  0  0  0  0  0  0  0  0  0  0
   -0.7100    1.0800   -0.2410 C   0  0  0  0  0  0  0  0  0  0  0  0
   -2.0690    1.2730   -0.3490 C   0  0  0  0  0  0  0  0  0  0  0  0
   -2.9230    0.2000   -0.4590 C   0  0  0  0  0  0  0  0  0  0  0  0
   -4.2920    0.3030   -0.5710 O   0  0  0  0  0  0  0  0  0  0  0  0
   -5.3800    0.3250    0.7440 S   0  0  0  0  0  0  0  0  0  0  0  0
   -5.6830    1.7180    1.2480 O   0  0  0  0  0  0  0  0  0  0  0  0
   -2.3610   -1.0590   -0.4570 C   0  0  0  0  0  0  0  0  0  0  0  0
   -3.1910   -2.1770   -0.5660 O   0  0  0  0  0  0  0  0  0  0  0  0
   -0.9830   -1.2590   -0.3470 C   0  0  0  0  0  0  0  0  0  0  0  0
    2.0100   -1.4800   -0.1030 N   0  0  0  0  0  0  0  0  0  0  0  0
    3.3090   -1.2050    0.0160 N   0  0  0  0  0  0  0  0  0  0  0  0
  1  2  1  0
  2  3  2  0
  2 16  1  0
  3  4  1  0
  4  5  1  0
  4 15  2  0
  5  6  2  0
  5 14  1  0
  6  7  1  0
  7  8  2  0
  8  9  1  0
  8 12  1  0
  9 10  1  0
 10 11  2  0
 12 13  1  0
 12 14  2  0
 15 16  1  0
M  END
