
     RDKit          3D

 16 16  0  0  0  0  0  0  0  0999 V2000
    5.9430   -0.3300   -0.4440 C   0  0  0  0  0  0  0  0  0  0  0  0
    4.6250   -0.4740    0.2420 C   0  0  0  0  0  0  0  0  0  0  0  0
    4.5730   -0.9370    1.4250 O   0  0  0  0  0  0  0  0  0  0  0  0
    3.4190   -0.1040   -0.4000 N   0  0  0  0  0  0  0  0  0  0  0  0
    2.1540   -0.2550    0.2900 C   0  0  0  0  0  0  0  0  0  0  0  0
    1.0530    0.1940   -0.5770 C   0  0  0  0  0  0  0  0  0  0  0  0
    1.2460    0.6340   -1.7370 O   0  0  0  0  0  0  0  0  0  0  0  0
   -0.2920    0.1400   -0.1120 N   0  0  0  0  0  0  0  0  0  0  0  0
   -1.3590    0.5850   -0.9760 C   0  0  0  0  0  0  0  0  0  0  0  0
   -2.6400    0.4210   -0.2490 C   0  0  0  0  0  0  0  0  0  0  0  0
   -3.4270    1.4430    0.0020 C   0  0  0  0  0  0  0  0  0  0  0  0
   -4.6990    1.3090    0.7190 C   0  0  0  0  0  0  0  0  0  0  0  0
   -4.9800   -0.0170    1.1030 O   0  0  0  0  0  0  0  0  0  0  0  0
   -4.1600   -1.0760    0.8400 C   0  0  0  0  0  0  0  0  0  0  0  0
   -3.0350   -0.9060    0.1970 C   0  0  0  0  0  0  0  0  0  0  0  0
   -2.2470   -2.0230   -0.0380 O   0  0  0  0  0  0  0  0  0  0  0  0
  1  2  1  0
  2  3  2  0
  2  4  1  0
  4  5  1  0
  5  6  1  0
  6  7  2  0
  6  8  1  0
  8  9  1  0
  9 10  1  0
 10 11  2  0
 10 15  1  0
 11 12  1  0
 12 13  1  0
 13 14  1  0
 14 15  2  0
 15 16  1  0
M  END
