
     RDKit          3D

 16 16  0  0  0  0  0  0  0  0999 V2000
   -4.2140   -0.1490   -1.3130 C   0  0  0  0  0  0  0  0  0  0  0  0
   -3.1190    0.6040   -0.6600 C   0  0  0  0  0  0  0  0  0  0  0  0
   -2.4080    0.1270    0.3340 C   0  0  0  0  0  0  0  0  0  0  0  0
   -2.7170   -1.1590    0.7850 O   0  0  0  0  0  0  0  0  0  0  0  0
   -1.3310    0.9010    0.9560 C   0  0  0  0  0  0  0  0  0  0  0  0
   -0.0360    0.2840    0.8820 N   0  0  0  0  0  0  0  0  0  0  0  0
    0.7620    0.5380   -0.1650 C   0  0  0  0  0  0  0  0  0  0  0  0
    0.2840    1.4470   -1.2120 C   0  0  0  0  0  0  0  0  0  0  0  0
    2.0270   -0.0580   -0.2480 C   0  0  0  0  0  0  0  0  0  0  0  0
    3.0400    0.3230   -1.6710 S   0  0  0  0  0  0  0  0  0  0  0  0
    4.5950   -0.5690   -1.5220 C   0  0  0  0  0  0  0  0  0  0  0  0
    2.4240   -0.8810    0.7290 N   0  0  0  0  0  0  0  0  0  0  0  0
    1.6400   -1.1500    1.7880 C   0  0  0  0  0  0  0  0  0  0  0  0
    2.0260   -1.9360    2.7170 O   0  0  0  0  0  0  0  0  0  0  0  0
    0.3990   -0.5470    1.8420 C   0  0  0  0  0  0  0  0  0  0  0  0
   -0.3340   -0.8090    2.8490 O   0  0  0  0  0  0  0  0  0  0  0  0
  1  2  1  0
  2  3  2  3
  3  4  1  0
  3  5  1  0
  5  6  1  0
  6  7  1  0
  6 15  1  0
  7  8  1  0
  7  9  2  0
  9 10  1  0
  9 12  1  0
 10 11  1  0
 12 13  1  0
 13 14  2  0
 13 15  1  0
 15 16  2  0
M  END
