
     RDKit          3D

 16 17  0  0  0  0  0  0  0  0999 V2000
    5.7170   -0.3750    0.1040 C   0  0  0  0  0  0  0  0  0  0  0  0
    4.4180    0.0460   -0.5810 C   0  0  0  0  0  0  0  0  0  0  0  0
    3.3780   -0.2560    0.3290 O   0  0  0  0  0  0  0  0  0  0  0  0
    2.0410   -0.0210    0.0760 C   0  0  0  0  0  0  0  0  0  0  0  0
    1.7200    0.4890   -1.0190 O   0  0  0  0  0  0  0  0  0  0  0  0
    0.8500   -0.4600    1.3330 S   0  0  0  0  0  0  0  0  0  0  0  0
   -0.8050   -0.0520    0.7540 C   0  0  0  0  0  0  0  0  0  0  0  0
   -1.5550   -0.9670    0.0540 C   0  0  0  0  0  0  0  0  0  0  0  0
   -2.8200   -0.6450   -0.3850 C   0  0  0  0  0  0  0  0  0  0  0  0
   -3.7670   -1.3350   -1.0830 N   0  0  0  0  0  0  0  0  0  0  0  0
   -4.8340   -0.5380   -1.2450 C   0  0  0  0  0  0  0  0  0  0  0  0
   -4.5700    0.6710   -0.6470 C   0  0  0  0  0  0  0  0  0  0  0  0
   -3.3060    0.6080   -0.1060 C   0  0  0  0  0  0  0  0  0  0  0  0
   -2.5640    1.5170    0.5870 N   0  0  0  0  0  0  0  0  0  0  0  0
   -1.3310    1.1850    1.0080 C   0  0  0  0  0  0  0  0  0  0  0  0
   -0.6180    2.0130    1.6560 O   0  0  0  0  0  0  0  0  0  0  0  0
  1  2  1  0
  2  3  1  0
  3  4  1  0
  4  5  2  0
  4  6  1  0
  6  7  1  0
  7  8  2  0
  7 15  1  0
  8  9  1  0
  9 10  1  0
  9 13  2  0
 10 11  1  0
 11 12  2  0
 12 13  1  0
 13 14  1  0
 14 15  1  0
 15 16  2  0
M  END
