
     RDKit          3D

 20 21  0  0  0  0  0  0  0  0999 V2000
   -4.3670   -1.5440   -1.6410 O   0  0  0  0  0  0  0  0  0  0  0  0
   -3.1500   -1.4320   -1.2730 C   0  0  0  0  0  0  0  0  0  0  0  0
   -2.3620   -2.5140   -1.5130 O   0  0  0  0  0  0  0  0  0  0  0  0
   -2.7680   -0.1770   -0.6430 C   0  0  0  0  0  0  0  0  0  0  0  0
   -3.7640    0.7930   -0.4810 C   0  0  0  0  0  0  0  0  0  0  0  0
   -3.4310    1.9790    0.1260 C   0  0  0  0  0  0  0  0  0  0  0  0
   -2.1540    2.2590    0.5870 C   0  0  0  0  0  0  0  0  0  0  0  0
   -1.1950    1.2970    0.4190 C   0  0  0  0  0  0  0  0  0  0  0  0
   -1.4820    0.0780   -0.1910 C   0  0  0  0  0  0  0  0  0  0  0  0
   -0.4360   -0.8630   -0.3890 N   0  0  0  0  0  0  0  0  0  0  0  0
    0.8250   -0.6080    0.2190 C   0  0  0  0  0  0  0  0  0  0  0  0
    0.9600   -0.5770    1.5890 C   0  0  0  0  0  0  0  0  0  0  0  0
    2.2070   -0.3180    2.1530 C   0  0  0  0  0  0  0  0  0  0  0  0
    3.3270   -0.0840    1.3930 C   0  0  0  0  0  0  0  0  0  0  0  0
    3.1860   -0.1150    0.0060 C   0  0  0  0  0  0  0  0  0  0  0  0
    4.3460    0.1380   -0.8910 C   0  0  1  0  0  0  0  0  0  0  0  0
    4.0520    1.2570   -1.6410 F   0  0  0  0  0  0  0  0  0  0  0  0
    5.4910    0.3150   -0.1390 F   0  0  0  0  0  0  0  0  0  0  0  0
    4.4900   -0.9390   -1.7550 F   0  0  0  0  0  0  0  0  0  0  0  0
    1.9400   -0.3760   -0.5620 C   0  0  0  0  0  0  0  0  0  0  0  0
  1  2  2  0
  2  3  1  0
  2  4  1  0
  4  5  2  0
  4  9  1  0
  5  6  1  0
  6  7  2  0
  7  8  1  0
  8  9  2  0
  9 10  1  0
 10 11  1  0
 11 12  2  0
 11 20  1  0
 12 13  1  0
 13 14  2  0
 14 15  1  0
 15 16  1  0
 15 20  2  0
 16 17  1  6
 16 18  1  0
 16 19  1  0
M  END
