
     RDKit          3D

 36 40  0  0  0  0  0  0  0  0999 V2000
   -1.7060   -0.9730   -2.2320 O   0  0  0  0  0  0  0  0  0  0  0  0
   -1.7260   -1.9660   -1.4530 C   0  0  0  0  0  0  0  0  0  0  0  0
   -2.5380   -3.0690   -1.8550 N   0  0  0  0  0  0  0  0  0  0  0  0
   -2.0270   -4.4410   -1.6540 C   0  0  0  0  0  0  0  0  0  0  0  0
   -1.1130   -4.4650   -0.4400 C   0  0  0  0  0  0  0  0  0  0  0  0
   -1.5440   -3.3250    0.4960 C   0  0  0  0  0  0  0  0  0  0  0  0
   -0.9810   -2.0440   -0.1980 C   0  0  2  0  0  0  0  0  0  0  0  0
   -1.1730   -0.9390    0.7770 C   0  0  2  0  0  0  0  0  0  0  0  0
   -2.5360   -0.8480    1.3770 C   0  0  0  0  0  0  0  0  0  0  0  0
   -3.6540   -0.4710    0.4940 C   0  0  0  0  0  0  0  0  0  0  0  0
   -3.8310    1.0090    0.2790 C   0  0  2  0  0  0  0  0  0  0  0  0
   -2.6110    1.7390   -0.1620 C   0  0  0  0  0  0  0  0  0  0  0  0
   -1.4040    1.6270    0.6900 C   0  0  0  0  0  0  0  0  0  0  0  0
   -0.7240    0.3680    0.3460 N   0  0  0  0  0  0  0  0  0  0  0  0
    0.4250    0.5010   -0.4380 C   0  0  0  0  0  0  0  0  0  0  0  0
    1.1420   -0.4520   -0.8460 O   0  0  0  0  0  0  0  0  0  0  0  0
    0.8810    1.8620   -0.8520 C   0  0  0  0  0  0  0  0  0  0  0  0
    2.0490    1.8560   -1.6120 O   0  0  0  0  0  0  0  0  0  0  0  0
    3.2910    1.4150   -1.2060 C   0  0  0  0  0  0  0  0  0  0  0  0
    3.5150    0.9290    0.0600 C   0  0  0  0  0  0  0  0  0  0  0  0
    4.7690    0.4910    0.4400 C   0  0  0  0  0  0  0  0  0  0  0  0
    5.8400    0.5210   -0.4230 C   0  0  0  0  0  0  0  0  0  0  0  0
    7.1320    0.0480    0.0390 C   0  0  0  0  0  0  0  0  0  0  0  0
    7.5010    0.1870    1.3550 C   0  0  0  0  0  0  0  0  0  0  0  0
    8.7500   -0.2740    1.7900 C   0  0  0  0  0  0  0  0  0  0  0  0
    9.6320   -0.8740    0.9180 C   0  0  0  0  0  0  0  0  0  0  0  0
    9.2590   -1.0100   -0.3930 C   0  0  0  0  0  0  0  0  0  0  0  0
    8.0120   -0.5500   -0.8310 C   0  0  0  0  0  0  0  0  0  0  0  0
    5.6310    1.0070   -1.6970 C   0  0  0  0  0  0  0  0  0  0  0  0
    4.3810    1.4450   -2.0820 C   0  0  0  0  0  0  0  0  0  0  0  0
   -4.3670    1.7000    1.5150 C   0  0  0  0  0  0  0  0  0  0  0  0
   -4.5180    3.0430    1.2430 O   0  0  0  0  0  0  0  0  0  0  0  0
   -5.8400    3.3940    1.0370 C   0  0  0  0  0  0  0  0  0  0  0  0
   -6.3320    2.8680   -0.2850 C   0  0  0  0  0  0  0  0  0  0  0  0
   -6.1220    1.3780   -0.4380 C   0  0  0  0  0  0  0  0  0  0  0  0
   -4.7810    1.1330   -0.8290 N   0  0  0  0  0  0  0  0  0  0  0  0
  1  2  2  0
  2  3  1  0
  2  7  1  0
  3  4  1  0
  4  5  1  0
  5  6  1  0
  7  6  1  1
  7  8  1  0
  8  9  1  6
  8 14  1  0
  9 10  1  0
 11 10  1  1
 11 12  1  0
 11 31  1  0
 11 36  1  0
 12 13  1  0
 13 14  1  0
 14 15  1  0
 15 16  2  0
 15 17  1  0
 17 18  1  0
 18 19  1  0
 19 20  2  0
 19 30  1  0
 20 21  1  0
 21 22  2  0
 22 23  1  0
 22 29  1  0
 23 24  2  0
 23 28  1  0
 24 25  1  0
 25 26  2  0
 26 27  1  0
 27 28  2  0
 29 30  2  0
 31 32  1  0
 32 33  1  0
 33 34  1  0
 34 35  1  0
 35 36  1  0
M  END
