
     RDKit          3D

 36 40  0  0  0  0  0  0  0  0999 V2000
    8.0970    2.0370   -2.2210 C   0  0  0  0  0  0  0  0  0  0  0  0
    8.0530    0.8190   -3.1100 C   0  0  0  0  0  0  0  0  0  0  0  0
    6.6830    0.2450   -3.2720 C   0  0  0  0  0  0  0  0  0  0  0  0
    6.0700   -0.2020   -1.9700 C   0  0  2  0  0  0  0  0  0  0  0  0
    4.6890   -0.7690   -2.1950 C   0  0  0  0  0  0  0  0  0  0  0  0
    3.9630   -0.7610   -0.8970 N   0  0  0  0  0  0  0  0  0  0  0  0
    2.5800   -0.8150   -0.9020 C   0  0  0  0  0  0  0  0  0  0  0  0
    1.9900   -0.8760   -2.0430 O   0  0  0  0  0  0  0  0  0  0  0  0
    1.7400   -0.8070    0.2740 C   0  0  0  0  0  0  0  0  0  0  0  0
    0.3440   -0.8660    0.1340 C   0  0  0  0  0  0  0  0  0  0  0  0
   -0.4430   -0.8560    1.2240 C   0  0  0  0  0  0  0  0  0  0  0  0
   -1.9240   -0.9060    1.1390 C   0  0  0  0  0  0  0  0  0  0  0  0
   -2.4960   -1.8150    1.7860 O   0  0  0  0  0  0  0  0  0  0  0  0
   -2.7100   -0.0160    0.3930 N   0  0  0  0  0  0  0  0  0  0  0  0
   -4.1210   -0.0650    0.3170 C   0  0  0  0  0  0  0  0  0  0  0  0
   -4.7220   -0.8200   -0.6360 C   0  0  0  0  0  0  0  0  0  0  0  0
   -3.9190   -1.5770   -1.6160 C   0  0  1  0  0  0  0  0  0  0  0  0
   -4.8080   -2.5650   -2.3860 C   0  0  0  0  0  0  0  0  0  0  0  0
   -3.5090   -0.5650   -2.7050 C   0  0  0  0  0  0  0  0  0  0  0  0
   -6.1140   -0.8890   -0.7160 C   0  0  0  0  0  0  0  0  0  0  0  0
   -6.8930   -0.1780    0.1880 C   0  0  0  0  0  0  0  0  0  0  0  0
   -6.3140    0.5900    1.1570 C   0  0  0  0  0  0  0  0  0  0  0  0
   -4.9290    0.6410    1.2140 C   0  0  0  0  0  0  0  0  0  0  0  0
   -4.6250    1.5360    2.3480 C   0  0  1  0  0  0  0  0  0  0  0  0
   -4.9540    2.9460    1.9820 C   0  0  0  0  0  0  0  0  0  0  0  0
   -6.4890    2.9320    1.9950 C   0  0  0  0  0  0  0  0  0  0  0  0
   -6.7510    1.4730    2.2800 C   0  0  2  0  0  0  0  0  0  0  0  0
   -5.7090    1.2210    3.2070 O   0  0  0  0  0  0  0  0  0  0  0  0
    0.0940   -0.7880    2.4950 C   0  0  0  0  0  0  0  0  0  0  0  0
   -0.7670   -0.7790    3.6820 C   0  0  0  0  0  0  0  0  0  0  0  0
    1.4570   -0.7300    2.6280 C   0  0  0  0  0  0  0  0  0  0  0  0
    2.0540   -0.6560    3.9900 C   0  0  0  0  0  0  0  0  0  0  0  0
    2.1990   -0.7430    1.5200 N   0  0  0  0  0  0  0  0  0  0  0  0
    4.8120   -0.6990    0.2390 C   0  0  0  0  0  0  0  0  0  0  0  0
    5.7350    0.5180    0.1930 C   0  0  0  0  0  0  0  0  0  0  0  0
    5.9670    0.8940   -1.1330 O   0  0  0  0  0  0  0  0  0  0  0  0
  1  2  1  0
  2  3  1  0
  4  3  1  6
  4  5  1  0
  4 36  1  0
  5  6  1  0
  6  7  1  0
  6 34  1  0
  7  8  2  0
  7  9  1  0
  9 10  2  0
  9 33  1  0
 10 11  1  0
 11 12  1  0
 11 29  2  0
 12 13  2  0
 12 14  1  0
 14 15  1  0
 15 16  2  0
 15 23  1  0
 16 17  1  0
 16 20  1  0
 17 18  1  6
 17 19  1  0
 20 21  2  0
 21 22  1  0
 22 23  2  0
 22 27  1  0
 23 24  1  0
 24 25  1  6
 24 28  1  0
 25 26  1  0
 27 26  1  6
 27 28  1  0
 29 30  1  0
 29 31  1  0
 31 32  1  0
 31 33  2  0
 34 35  1  0
 35 36  1  0
M  END
