
     RDKit          3D

 36 40  0  0  0  0  0  0  0  0999 V2000
    8.7340    2.7830    0.9580 C   0  0  0  0  0  0  0  0  0  0  0  0
    7.4770    3.1120    0.4360 O   0  0  0  0  0  0  0  0  0  0  0  0
    6.5360    2.1750    0.0260 C   0  0  0  0  0  0  0  0  0  0  0  0
    6.7440    0.8220    0.0940 C   0  0  0  0  0  0  0  0  0  0  0  0
    5.7530   -0.0250   -0.3360 C   0  0  0  0  0  0  0  0  0  0  0  0
    4.5300    0.4330   -0.8440 C   0  0  0  0  0  0  0  0  0  0  0  0
    3.5770   -0.4990   -1.2760 N   0  0  0  0  0  0  0  0  0  0  0  0
    4.0140   -1.4780   -2.2560 C   0  0  0  0  0  0  0  0  0  0  0  0
    3.2190   -2.7610   -2.1420 C   0  0  0  0  0  0  0  0  0  0  0  0
    2.6620   -2.8420   -0.7140 C   0  0  0  0  0  0  0  0  0  0  0  0
    1.5250   -1.7850   -0.7210 C   0  0  1  0  0  0  0  0  0  0  0  0
    0.7720   -1.8930    0.5050 N   0  0  0  0  0  0  0  0  0  0  0  0
   -0.4880   -2.5510    0.5710 C   0  0  0  0  0  0  0  0  0  0  0  0
   -0.9940   -3.0750   -0.4500 O   0  0  0  0  0  0  0  0  0  0  0  0
   -1.1630   -2.6080    1.8500 C   0  0  0  0  0  0  0  0  0  0  0  0
   -0.5300   -3.3950    2.8240 C   0  0  0  0  0  0  0  0  0  0  0  0
   -1.1130   -3.5460    4.0540 C   0  0  0  0  0  0  0  0  0  0  0  0
   -2.3070   -2.9230    4.3100 C   0  0  0  0  0  0  0  0  0  0  0  0
   -2.9000   -2.1600    3.3370 C   0  0  0  0  0  0  0  0  0  0  0  0
   -2.3330   -1.9760    2.0530 C   0  0  0  0  0  0  0  0  0  0  0  0
   -3.0040   -1.0960    1.1270 C   0  0  0  0  0  0  0  0  0  0  0  0
   -4.2130   -0.6030    1.4020 N   0  0  0  0  0  0  0  0  0  0  0  0
   -4.7060    0.2290    0.3700 C   0  0  1  0  0  0  0  0  0  0  0  0
   -4.5380    1.6970    0.5280 C   0  0  0  0  0  0  0  0  0  0  0  0
   -5.3570    2.3460   -0.5930 C   0  0  2  0  0  0  0  0  0  0  0  0
   -5.0620    3.7980   -0.7480 C   0  0  0  0  0  0  0  0  0  0  0  0
   -6.8350    2.1900   -0.2390 C   0  0  0  0  0  0  0  0  0  0  0  0
   -5.0560    1.6570   -1.9120 C   0  0  0  0  0  0  0  0  0  0  0  0
   -3.7330    0.9180   -1.8230 C   0  0  0  0  0  0  0  0  0  0  0  0
   -3.8830   -0.2080   -0.8630 C   0  0  1  0  0  0  0  0  0  0  0  0
   -2.5880   -0.4660   -0.1130 C   0  0  0  0  0  0  0  0  0  0  0  0
   -1.4480   -0.1900   -0.4840 O   0  0  0  0  0  0  0  0  0  0  0  0
    2.2460   -0.4900   -0.7670 C   0  0  0  0  0  0  0  0  0  0  0  0
    1.7690    0.6030   -0.3920 O   0  0  0  0  0  0  0  0  0  0  0  0
    4.3250    1.7980   -0.9100 C   0  0  0  0  0  0  0  0  0  0  0  0
    5.3240    2.6420   -0.4770 C   0  0  0  0  0  0  0  0  0  0  0  0
  1  2  1  0
  2  3  1  0
  3  4  2  0
  3 36  1  0
  4  5  1  0
  5  6  2  0
  6  7  1  0
  6 35  1  0
  7  8  1  0
  7 33  1  0
  8  9  1  0
  9 10  1  0
 10 11  1  0
 11 12  1  1
 11 33  1  0
 12 13  1  0
 13 14  2  0
 13 15  1  0
 15 16  2  0
 15 20  1  0
 16 17  1  0
 17 18  2  0
 18 19  1  0
 19 20  2  0
 20 21  1  0
 21 22  2  0
 21 31  1  0
 22 23  1  0
 23 24  1  1
 23 30  1  0
 24 25  1  0
 25 26  1  6
 25 27  1  0
 25 28  1  0
 28 29  1  0
 30 29  1  6
 30 31  1  0
 31 32  2  0
 33 34  2  0
 35 36  2  0
M  END
