
     RDKit          3D

 36 40  0  0  0  0  0  0  0  0999 V2000
   -8.2370    0.3260   -1.2370 C   0  0  0  0  0  0  0  0  0  0  0  0
   -8.1550    1.0690    0.0680 C   0  0  0  0  0  0  0  0  0  0  0  0
   -7.3180    0.4000    1.1040 C   0  0  0  0  0  0  0  0  0  0  0  0
   -5.9650    0.2600    0.6010 N   0  0  0  0  0  0  0  0  0  0  0  0
   -5.1460    1.4270    0.3770 C   0  0  0  0  0  0  0  0  0  0  0  0
   -3.7500    1.2050    0.9720 C   0  0  2  0  0  0  0  0  0  0  0  0
   -3.9870    0.9980    2.3350 O   0  0  0  0  0  0  0  0  0  0  0  0
   -3.0100    2.4850    0.8140 C   0  0  0  0  0  0  0  0  0  0  0  0
   -2.0910    2.5430   -0.3770 C   0  0  0  0  0  0  0  0  0  0  0  0
   -1.4770    1.2900   -0.6780 N   0  0  0  0  0  0  0  0  0  0  0  0
   -0.0880    1.1470   -0.7650 C   0  0  0  0  0  0  0  0  0  0  0  0
    0.3520   -0.0180   -1.0440 O   0  0  0  0  0  0  0  0  0  0  0  0
    0.8890    2.2180   -0.5640 C   0  0  0  0  0  0  0  0  0  0  0  0
    2.1930    1.7150   -0.7110 O   0  0  0  0  0  0  0  0  0  0  0  0
    2.6300    0.7210    0.1430 C   0  0  0  0  0  0  0  0  0  0  0  0
    1.8680    0.2550    1.0630 O   0  0  0  0  0  0  0  0  0  0  0  0
    3.9650    0.1990   -0.0020 C   0  0  0  0  0  0  0  0  0  0  0  0
    4.4180   -0.7890    0.8330 C   0  0  0  0  0  0  0  0  0  0  0  0
    5.7030   -1.3000    0.7080 C   0  0  0  0  0  0  0  0  0  0  0  0
    6.5680   -0.8210   -0.2740 C   0  0  0  0  0  0  0  0  0  0  0  0
    7.8720   -1.3760   -0.3740 N   0  0  0  0  0  0  0  0  0  0  0  0
    8.3230   -2.5450    0.2880 C   0  0  0  0  0  0  0  0  0  0  0  0
    9.6320   -2.6520    0.1930 C   0  0  0  0  0  0  0  0  0  0  0  0
   10.1770   -1.5130   -0.5720 C   0  0  0  0  0  0  0  0  0  0  0  0
    8.9590   -0.8500   -1.1560 C   0  0  2  0  0  0  0  0  0  0  0  0
    9.0650    0.6630   -1.0860 C   0  0  0  0  0  0  0  0  0  0  0  0
    6.0740    0.1680   -1.0880 C   0  0  0  0  0  0  0  0  0  0  0  0
    4.7950    0.6910   -0.9780 C   0  0  0  0  0  0  0  0  0  0  0  0
   -2.3840    0.1880   -0.8820 C   0  0  0  0  0  0  0  0  0  0  0  0
   -3.1280   -0.0120    0.4180 C   0  0  2  0  0  0  0  0  0  0  0  0
   -4.0520   -1.1420    0.2330 C   0  0  0  0  0  0  0  0  0  0  0  0
   -3.5480   -2.4060   -0.0400 C   0  0  0  0  0  0  0  0  0  0  0  0
   -4.3720   -3.4980   -0.2170 C   0  0  0  0  0  0  0  0  0  0  0  0
   -5.7140   -3.3380   -0.1220 C   0  0  0  0  0  0  0  0  0  0  0  0
   -6.2610   -2.1060    0.1480 C   0  0  0  0  0  0  0  0  0  0  0  0
   -5.4060   -1.0050    0.3240 C   0  0  0  0  0  0  0  0  0  0  0  0
  1  2  1  0
  2  3  1  0
  3  4  1  0
  4  5  1  0
  4 36  1  0
  5  6  1  0
  6  7  1  1
  6  8  1  0
  6 30  1  0
  8  9  1  0
  9 10  1  0
 10 11  1  0
 10 29  1  0
 11 12  2  0
 11 13  1  0
 13 14  1  0
 14 15  1  0
 15 16  2  0
 15 17  1  0
 17 18  2  0
 17 28  1  0
 18 19  1  0
 19 20  2  0
 20 21  1  0
 20 27  1  0
 21 22  1  0
 21 25  1  0
 22 23  2  0
 23 24  1  0
 24 25  1  0
 25 26  1  1
 27 28  2  0
 30 29  1  6
 30 31  1  0
 31 32  2  0
 31 36  1  0
 32 33  1  0
 33 34  2  0
 34 35  1  0
 35 36  2  0
M  END
