
     RDKit          3D

 37 42  0  0  0  0  0  0  0  0999 V2000
    7.4450   -0.3610    2.7530 C   0  0  0  0  0  0  0  0  0  0  0  0
    6.2820   -0.6970    2.2060 C   0  0  0  0  0  0  0  0  0  0  0  0
    5.0400   -0.6420    2.9080 C   0  0  0  0  0  0  0  0  0  0  0  0
    3.8580   -0.9850    2.3380 C   0  0  0  0  0  0  0  0  0  0  0  0
    2.7440   -0.9350    2.9690 O   0  0  0  0  0  0  0  0  0  0  0  0
    1.5720   -0.8290    3.4940 C   0  0  0  0  0  0  0  0  0  0  0  0
    1.3380   -1.2760    4.8220 C   0  0  0  0  0  0  0  0  0  0  0  0
    0.1130   -1.1520    5.3340 N   0  0  0  0  0  0  0  0  0  0  0  0
   -0.8970   -0.6190    4.6340 C   0  0  0  0  0  0  0  0  0  0  0  0
   -0.7060   -0.1680    3.3300 C   0  0  0  0  0  0  0  0  0  0  0  0
   -1.7910    0.3800    2.6430 O   0  0  0  0  0  0  0  0  0  0  0  0
   -1.5100    0.7590    1.3130 C   0  0  0  0  0  0  0  0  0  0  0  0
   -1.5820    1.9920    0.7150 C   0  0  0  0  0  0  0  0  0  0  0  0
   -1.2180    1.8690   -0.5880 N   0  0  0  0  0  0  0  0  0  0  0  0
   -1.1230    2.9200   -1.5580 C   0  0  0  0  0  0  0  0  0  0  0  0
   -2.3370    3.1270   -2.3930 C   0  0  0  0  0  0  0  0  0  0  0  0
   -3.4760    3.4780   -1.6890 N   0  0  0  0  0  0  0  0  0  0  0  0
   -4.1760    2.6240   -0.8670 C   0  0  0  0  0  0  0  0  0  0  0  0
   -5.6270    2.6690   -1.3970 C   0  0  0  0  0  0  0  0  0  0  0  0
   -5.5880    3.5650   -2.6060 C   0  0  0  0  0  0  0  0  0  0  0  0
   -4.3540    4.3920   -2.3040 C   0  0  0  0  0  0  0  0  0  0  0  0
   -0.9070    0.5670   -0.8510 C   0  0  0  0  0  0  0  0  0  0  0  0
   -0.4890   -0.0670   -1.9740 N   0  0  0  0  0  0  0  0  0  0  0  0
   -0.2370   -1.4070   -1.9730 C   0  0  0  0  0  0  0  0  0  0  0  0
    0.1850   -2.0620   -3.0960 C   0  0  0  0  0  0  0  0  0  0  0  0
    0.4280   -3.4130   -3.0430 C   0  0  0  0  0  0  0  0  0  0  0  0
    0.2470   -4.1190   -1.8530 C   0  0  0  0  0  0  0  0  0  0  0  0
    0.5220   -5.5820   -1.8390 C   0  0  0  0  0  0  0  0  0  0  0  0
   -0.1740   -3.4280   -0.7560 C   0  0  0  0  0  0  0  0  0  0  0  0
   -0.4310   -2.0660   -0.7640 C   0  0  0  0  0  0  0  0  0  0  0  0
   -0.8450   -1.4360    0.3490 N   0  0  0  0  0  0  0  0  0  0  0  0
   -1.0880   -0.1160    0.3230 C   0  0  0  0  0  0  0  0  0  0  0  0
    0.5020   -0.2860    2.8090 N   0  0  0  0  0  0  0  0  0  0  0  0
    3.9130   -1.4320    0.9130 C   0  0  0  0  0  0  0  0  0  0  0  0
    5.0060   -1.4870    0.2740 N   0  0  0  0  0  0  0  0  0  0  0  0
    6.2510   -1.1460    0.8130 C   0  0  0  0  0  0  0  0  0  0  0  0
    7.3610   -1.2020    0.1760 N   0  0  0  0  0  0  0  0  0  0  0  0
  1  2  2  0
  2  3  1  0
  2 36  1  0
  3  4  2  0
  4  5  1  0
  4 34  1  0
  5  6  1  0
  6  7  2  0
  6 33  1  0
  7  8  1  0
  8  9  2  0
  9 10  1  0
 10 11  1  0
 10 33  2  0
 11 12  1  0
 12 13  2  0
 12 32  1  0
 13 14  1  0
 14 15  1  0
 14 22  1  0
 15 16  1  0
 16 17  1  0
 17 18  1  0
 17 21  1  0
 18 19  1  0
 19 20  1  0
 20 21  1  0
 22 23  2  0
 22 32  1  0
 23 24  1  0
 24 25  2  0
 24 30  1  0
 25 26  1  0
 26 27  2  0
 27 28  1  0
 27 29  1  0
 29 30  2  0
 30 31  1  0
 31 32  2  0
 34 35  2  0
 35 36  1  0
 36 37  2  0
M  END
