
     RDKit          3D

 37 42  0  0  0  0  0  0  0  0999 V2000
   -8.0890   -1.6140    1.5230 C   0  0  0  0  0  0  0  0  0  0  0  0
   -6.9080   -1.2820    0.6830 C   0  0  0  0  0  0  0  0  0  0  0  0
   -6.2990   -0.0670    0.9160 C   0  0  0  0  0  0  0  0  0  0  0  0
   -5.2050    0.2610    0.1520 C   0  0  0  0  0  0  0  0  0  0  0  0
   -4.5240    1.4590    0.3130 C   0  0  0  0  0  0  0  0  0  0  0  0
   -4.9710    2.4250    1.3280 C   0  0  1  0  0  0  0  0  0  0  0  0
   -4.1540    3.7400    1.3110 C   0  0  0  0  0  0  0  0  0  0  0  0
   -5.6080    3.7030    1.0150 C   0  0  0  0  0  0  0  0  0  0  0  0
   -3.4680    1.6730   -0.4890 N   0  0  0  0  0  0  0  0  0  0  0  0
   -3.0400    0.8040   -1.4240 C   0  0  0  0  0  0  0  0  0  0  0  0
   -1.8350    1.1550   -2.2560 C   0  0  0  0  0  0  0  0  0  0  0  0
   -0.5910    0.6070   -1.5400 C   0  0  0  0  0  0  0  0  0  0  0  0
   -0.4500    1.2080   -0.1710 C   0  0  0  0  0  0  0  0  0  0  0  0
    0.7610    0.6640    0.5090 C   0  0  0  0  0  0  0  0  0  0  0  0
    1.9910    1.0140   -0.2130 C   0  0  0  0  0  0  0  0  0  0  0  0
    1.9450    1.7780   -1.2000 O   0  0  0  0  0  0  0  0  0  0  0  0
    3.2490    0.4560    0.2420 N   0  0  0  0  0  0  0  0  0  0  0  0
    4.4300    0.7910   -0.4440 C   0  0  0  0  0  0  0  0  0  0  0  0
    4.5320    1.6020   -1.5130 N   0  0  0  0  0  0  0  0  0  0  0  0
    5.7780    1.6930   -1.8960 N   0  0  0  0  0  0  0  0  0  0  0  0
    6.4690    0.9450   -1.0780 N   0  0  0  0  0  0  0  0  0  0  0  0
    5.7100    0.3640   -0.1670 N   0  0  0  0  0  0  0  0  0  0  0  0
    6.0250   -0.5070    0.8780 C   0  0  0  0  0  0  0  0  0  0  0  0
    7.0750   -1.0240    1.3440 C   0  0  0  0  0  0  0  0  0  0  0  0
    8.4740   -1.0250    1.0960 C   0  0  0  0  0  0  0  0  0  0  0  0
    9.2940   -1.7810    1.8980 C   0  0  0  0  0  0  0  0  0  0  0  0
   10.7350   -1.8780    1.7630 C   0  0  0  0  0  0  0  0  0  0  0  0
   11.2480   -1.1050    0.7280 O   0  0  0  0  0  0  0  0  0  0  0  0
   10.4810   -0.3370   -0.0980 C   0  0  0  0  0  0  0  0  0  0  0  0
    9.1540   -0.2850    0.0620 C   0  0  0  0  0  0  0  0  0  0  0  0
   -3.6870   -0.3610   -1.5930 N   0  0  0  0  0  0  0  0  0  0  0  0
   -4.7590   -0.6260   -0.8100 C   0  0  0  0  0  0  0  0  0  0  0  0
   -5.3920   -1.8500   -1.0280 C   0  0  0  0  0  0  0  0  0  0  0  0
   -5.2040   -2.9180   -1.8770 C   0  0  0  0  0  0  0  0  0  0  0  0
   -6.1770   -3.8840   -1.6270 C   0  0  0  0  0  0  0  0  0  0  0  0
   -6.9450   -3.3580   -0.6080 C   0  0  0  0  0  0  0  0  0  0  0  0
   -6.4580   -2.1340   -0.2610 N   0  0  0  0  0  0  0  0  0  0  0  0
  1  2  1  0
  2  3  2  0
  2 37  1  0
  3  4  1  0
  4  5  2  0
  4 32  1  0
  6  5  1  6
  5  9  1  0
  6  7  1  0
  6  8  1  0
  7  8  1  0
  9 10  2  0
 10 11  1  0
 10 31  1  0
 11 12  1  0
 12 13  1  0
 13 14  1  0
 14 15  1  0
 15 16  2  0
 15 17  1  0
 17 18  1  0
 18 19  2  0
 18 22  1  0
 19 20  1  0
 20 21  2  0
 21 22  1  0
 22 23  1  0
 23 24  2  3
 24 25  1  0
 25 26  2  0
 25 30  1  0
 26 27  1  0
 27 28  1  0
 28 29  1  0
 29 30  2  0
 31 32  2  0
 32 33  1  0
 33 34  2  0
 33 37  1  0
 34 35  1  0
 35 36  2  0
 36 37  1  0
M  END
