
     RDKit          3D

 24 26  0  0  0  0  0  0  0  0999 V2000
    2.6350   -2.2220   -1.9090 C   0  0  0  0  0  0  0  0  0  0  0  0
    2.0170   -1.1980   -1.0570 C   0  0  0  0  0  0  0  0  0  0  0  0
    0.6190   -1.0880   -0.9220 C   0  0  0  0  0  0  0  0  0  0  0  0
    0.0530   -0.1350   -0.1290 C   0  0  0  0  0  0  0  0  0  0  0  0
   -1.3460    0.0080    0.0320 N   0  0  0  0  0  0  0  0  0  0  0  0
   -2.3560   -0.7520   -0.5520 C   0  0  0  0  0  0  0  0  0  0  0  0
   -2.0500   -1.6940   -1.3230 O   0  0  0  0  0  0  0  0  0  0  0  0
   -3.7820   -0.4670   -0.2770 C   0  0  0  0  0  0  0  0  0  0  0  0
   -4.2380    0.6670    0.3370 C   0  0  0  0  0  0  0  0  0  0  0  0
   -5.5910    0.8840    0.5770 C   0  0  0  0  0  0  0  0  0  0  0  0
   -6.4980   -0.0310    0.2040 N   0  0  0  0  0  0  0  0  0  0  0  0
   -6.0680   -1.1610   -0.4050 C   0  0  0  0  0  0  0  0  0  0  0  0
   -6.9360   -2.0140   -0.7500 O   0  0  0  0  0  0  0  0  0  0  0  0
   -4.7290   -1.4030   -0.6560 C   0  0  0  0  0  0  0  0  0  0  0  0
    0.9340    0.7110    0.5300 C   0  0  0  0  0  0  0  0  0  0  0  0
    0.3320    1.7520    1.3950 C   0  0  0  0  0  0  0  0  0  0  0  0
    2.3130    0.6380    0.4260 C   0  0  0  0  0  0  0  0  0  0  0  0
    3.3470    1.3620    0.9810 C   0  0  0  0  0  0  0  0  0  0  0  0
    4.4890    0.8470    0.5250 N   0  0  0  0  0  0  0  0  0  0  0  0
    6.1130    1.3840    0.9090 S   0  0  2  0  0  0  0  0  0  0  0  0
    6.9930    0.1710    0.9220 O   0  0  0  0  0  0  0  0  0  0  0  0
    6.1110    2.0470    2.2650 O   0  0  0  0  0  0  0  0  0  0  0  0
    4.2170   -0.1730   -0.2950 C   0  0  0  0  0  0  0  0  0  0  0  0
    2.8460   -0.3290   -0.3770 C   0  0  0  0  0  0  0  0  0  0  0  0
  1  2  1  0
  2  3  2  0
  2 24  1  0
  3  4  1  0
  4  5  1  0
  4 15  2  0
  5  6  1  0
  6  7  2  0
  6  8  1  0
  8  9  1  0
  8 14  2  0
  9 10  2  0
 10 11  1  0
 11 12  1  0
 12 13  2  0
 12 14  1  0
 15 16  1  0
 15 17  1  0
 17 18  2  0
 17 24  1  0
 18 19  1  0
 20 19  1  1
 19 23  1  0
 20 21  2  0
 20 22  2  0
 23 24  2  0
M  END
