
     RDKit          3D

 24 26  0  0  0  0  0  0  0  0999 V2000
   -2.7820   -4.2160   -1.2600 C   0  0  0  0  0  0  0  0  0  0  0  0
   -2.9800   -2.8900   -0.8220 O   0  0  0  0  0  0  0  0  0  0  0  0
   -1.9020   -2.0200   -0.7380 C   0  0  0  0  0  0  0  0  0  0  0  0
   -0.6400   -2.4480   -1.0830 C   0  0  0  0  0  0  0  0  0  0  0  0
    0.3840   -1.5480   -0.9820 C   0  0  0  0  0  0  0  0  0  0  0  0
    0.2150   -0.2550   -0.5580 C   0  0  0  0  0  0  0  0  0  0  0  0
    1.2930    0.6460   -0.4650 N   0  0  0  0  0  0  0  0  0  0  0  0
    2.6030    0.2230   -0.8160 C   0  0  0  0  0  0  0  0  0  0  0  0
    3.5850    0.2540    0.0360 C   0  0  0  0  0  0  0  0  0  0  0  0
    4.9800   -0.1510   -0.1930 C   0  0  0  0  0  0  0  0  0  0  0  0
    5.5690   -0.2860   -1.2950 O   0  0  0  0  0  0  0  0  0  0  0  0
    5.5330   -0.3640    1.1730 C   0  0  0  0  0  0  0  0  0  0  0  0
    4.8330    0.5140    1.9610 O   0  0  0  0  0  0  0  0  0  0  0  0
    3.5720    0.7020    1.4570 C   0  0  1  0  0  0  0  0  0  0  0  0
    3.1790    2.1850    1.5070 C   0  0  0  0  0  0  0  0  0  0  0  0
   -1.0770    0.1520   -0.2140 C   0  0  0  0  0  0  0  0  0  0  0  0
   -2.1260   -0.7160   -0.3010 C   0  0  0  0  0  0  0  0  0  0  0  0
   -3.4620   -0.3730    0.0350 N   0  0  0  0  0  0  0  0  0  0  0  0
   -3.8560    0.9170    0.4680 C   0  0  0  0  0  0  0  0  0  0  0  0
   -3.3960    2.0110    0.0040 N   0  0  0  0  0  0  0  0  0  0  0  0
   -3.8770    3.1980    0.5290 C   0  0  0  0  0  0  0  0  0  0  0  0
   -3.2880    4.3430    0.5650 O   0  0  0  0  0  0  0  0  0  0  0  0
   -5.2520    3.0990    1.1150 C   0  0  0  0  0  0  0  0  0  0  0  0
   -5.0780    1.3640    1.7310 S   0  0  0  0  0  0  0  0  0  0  0  0
  1  2  1  0
  2  3  1  0
  3  4  2  0
  3 17  1  0
  4  5  1  0
  5  6  2  0
  6  7  1  0
  6 16  1  0
  7  8  1  0
  8  9  2  3
  9 10  1  0
  9 14  1  0
 10 11  2  0
 10 12  1  0
 12 13  1  0
 13 14  1  0
 14 15  1  6
 16 17  2  0
 17 18  1  0
 18 19  1  0
 19 20  2  0
 19 24  1  0
 20 21  1  0
 21 22  2  0
 21 23  1  0
 23 24  1  0
M  END
