
     RDKit          3D

 24 26  0  0  0  0  0  0  0  0999 V2000
    8.1360    2.0720   -0.2980 C   0  0  0  0  0  0  0  0  0  0  0  0
    7.1710    0.9910    0.0280 C   0  0  0  0  0  0  0  0  0  0  0  0
    7.4680   -0.2940    0.4600 C   0  0  0  0  0  0  0  0  0  0  0  0
    6.2370   -0.9160    0.6260 C   0  0  0  0  0  0  0  0  0  0  0  0
    5.2750    0.0130    0.2900 C   0  0  0  0  0  0  0  0  0  0  0  0
    3.8330   -0.2740    0.3390 C   0  0  0  0  0  0  0  0  0  0  0  0
    3.0280    0.6620    0.0040 N   0  0  0  0  0  0  0  0  0  0  0  0
    1.6500    0.5520   -0.0030 N   0  0  0  0  0  0  0  0  0  0  0  0
    0.9240   -0.4950   -0.5760 C   0  0  0  0  0  0  0  0  0  0  0  0
    1.5510   -1.4250   -1.1360 O   0  0  0  0  0  0  0  0  0  0  0  0
   -0.5630   -0.5210   -0.5300 C   0  0  0  0  0  0  0  0  0  0  0  0
   -1.4790    0.2930   -0.0240 C   0  0  0  0  0  0  0  0  0  0  0  0
   -2.7150   -0.0710   -0.1840 O   0  0  0  0  0  0  0  0  0  0  0  0
   -3.1490   -0.9330   -0.6620 C   0  0  0  0  0  0  0  0  0  0  0  0
   -4.2990   -1.5370   -0.9630 N   0  0  0  0  0  0  0  0  0  0  0  0
   -5.4840   -0.9060   -0.5510 C   0  0  0  0  0  0  0  0  0  0  0  0
   -6.3890   -0.3820   -1.4420 C   0  0  0  0  0  0  0  0  0  0  0  0
   -7.5530    0.2400   -1.0200 C   0  0  0  0  0  0  0  0  0  0  0  0
   -7.8400    0.3540    0.3200 C   0  0  0  0  0  0  0  0  0  0  0  0
   -6.9420   -0.1670    1.2240 C   0  0  0  0  0  0  0  0  0  0  0  0
   -5.7860   -0.7840    0.7830 C   0  0  0  0  0  0  0  0  0  0  0  0
   -4.9120   -1.2930    1.7330 O   0  0  0  0  0  0  0  0  0  0  0  0
   -1.5750   -1.8250   -1.2390 S   0  0  0  0  0  0  0  0  0  0  0  0
    5.8660    1.1140   -0.0540 O   0  0  0  0  0  0  0  0  0  0  0  0
  1  2  1  0
  2  3  2  0
  2 24  1  0
  3  4  1  0
  4  5  2  0
  5  6  1  0
  5 24  1  0
  6  7  2  3
  7  8  1  0
  8  9  1  0
  9 10  2  0
  9 11  1  0
 11 12  2  0
 11 23  1  0
 12 13  1  0
 13 14  1  0
 14 15  2  3
 14 23  1  0
 15 16  1  0
 16 17  2  0
 16 21  1  0
 17 18  1  0
 18 19  2  0
 19 20  1  0
 20 21  2  0
 21 22  1  0
M  END
