
     RDKit          3D

 24 26  0  0  0  0  0  0  0  0999 V2000
    5.7700    1.9500   -0.5160 C   0  0  0  0  0  0  0  0  0  0  0  0
    5.1500    0.5150   -1.4950 S   0  0  0  0  0  0  0  0  0  0  0  0
    4.3520   -0.6700   -0.5500 C   0  0  0  0  0  0  0  0  0  0  0  0
    3.0640   -0.7160    0.0620 C   0  0  0  0  0  0  0  0  0  0  0  0
    2.0600    0.0780   -0.0740 C   0  0  0  0  0  0  0  0  0  0  0  0
    2.0630    1.1910   -0.9190 C   0  0  0  0  0  0  0  0  0  0  0  0
    2.8530    1.8110   -1.8400 N   0  0  0  0  0  0  0  0  0  0  0  0
    0.9390    1.9080   -0.8130 O   0  0  0  0  0  0  0  0  0  0  0  0
    0.7800   -0.0820    0.6380 O   0  0  0  0  0  0  0  0  0  0  0  0
    0.1340   -1.2920    0.9000 C   0  0  0  0  0  0  0  0  0  0  0  0
    0.7150   -2.4960    1.2820 C   0  0  0  0  0  0  0  0  0  0  0  0
   -0.0650   -3.5850    1.4960 C   0  0  0  0  0  0  0  0  0  0  0  0
   -1.4500   -3.5370    1.3450 C   0  0  0  0  0  0  0  0  0  0  0  0
   -1.9760   -2.3590    0.9770 N   0  0  0  0  0  0  0  0  0  0  0  0
   -1.2290   -1.2410    0.7510 C   0  0  0  0  0  0  0  0  0  0  0  0
   -1.8180   -0.0430    0.3710 O   0  0  0  0  0  0  0  0  0  0  0  0
   -3.2080    0.1080    0.1920 C   0  0  1  0  0  0  0  0  0  0  0  0
   -3.8230    1.1230    1.1070 C   0  0  0  0  0  0  0  0  0  0  0  0
   -5.2360    1.3910    0.6770 C   0  0  0  0  0  0  0  0  0  0  0  0
   -5.3710    1.7010   -0.6550 O   0  0  0  0  0  0  0  0  0  0  0  0
   -4.1920    1.7750   -1.3540 C   0  0  0  0  0  0  0  0  0  0  0  0
   -3.4790    0.4440   -1.2690 C   0  0  0  0  0  0  0  0  0  0  0  0
    2.1080   -2.6380    1.4790 N   0  0  0  0  0  0  0  0  0  0  0  0
    3.0470   -1.9260    0.9910 C   0  0  0  0  0  0  0  0  0  0  0  0
  1  2  1  0
  2  3  1  0
  3  4  1  0
  4  5  2  0
  4 24  1  0
  5  6  1  0
  5  9  1  0
  6  7  1  0
  6  8  2  0
  9 10  1  0
 10 11  2  0
 10 15  1  0
 11 12  1  0
 11 23  1  0
 12 13  2  0
 13 14  1  0
 14 15  2  0
 15 16  1  0
 17 16  1  6
 17 18  1  0
 17 22  1  0
 18 19  1  0
 19 20  1  0
 20 21  1  0
 21 22  1  0
 23 24  2  0
M  END
