
     RDKit          3D

 24 26  0  0  0  0  0  0  0  0999 V2000
    8.0190    0.2220   -0.0620 C   0  0  0  0  0  0  0  0  0  0  0  0
    7.5150   -0.3230    1.0250 C   0  0  0  0  0  0  0  0  0  0  0  0
    6.3030   -0.9800    0.9400 O   0  0  0  0  0  0  0  0  0  0  0  0
    5.1790   -0.2870    0.4930 C   0  0  0  0  0  0  0  0  0  0  0  0
    5.1750    0.6140   -0.4190 N   0  0  0  0  0  0  0  0  0  0  0  0
    3.8580    1.1120   -0.6220 C   0  0  0  0  0  0  0  0  0  0  0  0
    3.0050    0.5040    0.1900 C   0  0  0  0  0  0  0  0  0  0  0  0
    1.6120    0.7520    0.2570 N   0  0  0  0  0  0  0  0  0  0  0  0
    0.6310   -0.2460    0.0080 C   0  0  0  0  0  0  0  0  0  0  0  0
    0.9830   -1.3980   -0.2840 O   0  0  0  0  0  0  0  0  0  0  0  0
   -0.8240    0.0670    0.0920 C   0  0  0  0  0  0  0  0  0  0  0  0
   -1.1770    1.2240    0.3860 O   0  0  0  0  0  0  0  0  0  0  0  0
   -1.7560   -0.9450   -0.1600 N   0  0  0  0  0  0  0  0  0  0  0  0
   -3.1590   -0.7390   -0.0930 C   0  0  0  0  0  0  0  0  0  0  0  0
   -3.9200   -1.6470   -0.8440 C   0  0  0  0  0  0  0  0  0  0  0  0
   -5.2670   -1.5290   -0.8110 C   0  0  0  0  0  0  0  0  0  0  0  0
   -5.8940   -0.5180   -0.0390 C   0  0  0  0  0  0  0  0  0  0  0  0
   -7.5630   -0.0840    0.2310 S   0  0  0  0  0  0  0  0  0  0  0  0
   -7.1980    1.3330    1.3690 C   0  0  0  0  0  0  0  0  0  0  0  0
   -5.8450    1.3040    1.4050 C   0  0  0  0  0  0  0  0  0  0  0  0
   -5.1630    0.3800    0.7030 C   0  0  0  0  0  0  0  0  0  0  0  0
   -3.7600    0.2310    0.6480 C   0  0  0  0  0  0  0  0  0  0  0  0
    3.7950   -0.4420    0.9680 C   0  0  0  0  0  0  0  0  0  0  0  0
    3.3740   -1.2110    1.8460 O   0  0  0  0  0  0  0  0  0  0  0  0
  1  2  2  0
  2  3  1  0
  3  4  1  0
  4  5  2  0
  4 23  1  0
  5  6  1  0
  6  7  2  0
  7  8  1  0
  7 23  1  0
  8  9  1  0
  9 10  2  0
  9 11  1  0
 11 12  2  0
 11 13  1  0
 13 14  1  0
 14 15  2  0
 14 22  1  0
 15 16  1  0
 16 17  2  0
 17 18  1  0
 17 21  1  0
 18 19  1  0
 19 20  2  0
 20 21  1  0
 21 22  2  0
 23 24  2  0
M  END
