
     RDKit          3D

 23 24  0  0  0  0  0  0  0  0999 V2000
    6.7600   -0.0510    1.2660 C   0  0  0  0  0  0  0  0  0  0  0  0
    7.2050   -1.6550    0.5500 S   0  0  0  0  0  0  0  0  0  0  0  0
    6.9080   -1.5980   -1.2070 C   0  0  0  0  0  0  0  0  0  0  0  0
    5.6650   -1.7040   -1.6820 C   0  0  0  0  0  0  0  0  0  0  0  0
    4.2590   -1.9030   -0.6120 S   0  0  0  0  0  0  0  0  0  0  0  0
    2.9000   -0.9150   -1.1920 C   0  0  0  0  0  0  0  0  0  0  0  0
    3.0440   -0.2170   -2.2290 O   0  0  0  0  0  0  0  0  0  0  0  0
    1.6390   -0.8760   -0.5300 N   0  0  0  0  0  0  0  0  0  0  0  0
    0.5720   -0.0740   -1.0210 C   0  0  0  0  0  0  0  0  0  0  0  0
    0.8040    0.5930   -2.0650 O   0  0  0  0  0  0  0  0  0  0  0  0
   -0.7170   -0.0170   -0.3690 C   0  0  0  0  0  0  0  0  0  0  0  0
   -1.7020    0.7240   -0.8240 C   0  0  0  0  0  0  0  0  0  0  0  0
   -3.0200    0.8400   -0.2340 C   0  0  0  0  0  0  0  0  0  0  0  0
   -3.4000    0.2080    0.8450 C   0  0  0  0  0  0  0  0  0  0  0  0
   -4.7830    0.3670    1.4120 C   0  0  0  0  0  0  0  0  0  0  0  0
   -5.5330    1.5260    0.8660 C   0  0  0  0  0  0  0  0  0  0  0  0
   -5.3950    1.6140   -0.6400 C   0  0  0  0  0  0  0  0  0  0  0  0
   -3.9580    1.7350   -0.9260 C   0  0  0  0  0  0  0  0  0  0  0  0
   -3.5410    2.6020   -1.7560 O   0  0  0  0  0  0  0  0  0  0  0  0
   -2.5730   -0.6750    1.5840 N   0  0  0  0  0  0  0  0  0  0  0  0
   -0.9590   -0.9640    1.0630 S   0  0  1  0  0  0  0  0  0  0  0  0
   -0.7640   -2.4320    0.7680 O   0  0  0  0  0  0  0  0  0  0  0  0
   -0.0480   -0.5690    2.1830 O   0  0  0  0  0  0  0  0  0  0  0  0
  1  2  1  0
  2  3  1  0
  3  4  2  3
  4  5  1  0
  5  6  1  0
  6  7  2  0
  6  8  1  0
  8  9  1  0
  9 10  2  0
  9 11  1  0
 11 12  2  0
 11 21  1  0
 12 13  1  0
 13 14  2  0
 13 18  1  0
 14 15  1  0
 14 20  1  0
 15 16  1  0
 16 17  1  0
 17 18  1  0
 18 19  2  0
 21 20  1  1
 21 22  2  0
 21 23  2  0
M  END
