
     RDKit          3D

 23 24  0  0  0  0  0  0  0  0999 V2000
   -4.0780   -1.0670   -0.1170 C   0  0  0  0  0  0  0  0  0  0  0  0
   -3.8610    0.2030    0.6690 C   0  0  0  0  0  0  0  0  0  0  0  0
   -2.7270    0.9220    0.2130 O   0  0  0  0  0  0  0  0  0  0  0  0
   -1.4350    0.3480    0.2360 C   0  0  0  0  0  0  0  0  0  0  0  0
   -1.3850   -0.7900    0.6720 O   0  0  0  0  0  0  0  0  0  0  0  0
   -0.2910    1.1340   -0.2490 C   0  0  0  0  0  0  0  0  0  0  0  0
   -0.5500    2.3470   -0.7030 C   0  0  0  0  0  0  0  0  0  0  0  0
    0.3850    3.2070   -1.1800 O   0  0  0  0  0  0  0  0  0  0  0  0
   -1.9080    2.7850   -0.6940 N   0  0  0  0  0  0  0  0  0  0  0  0
   -2.3890    3.6360    0.3940 C   0  0  0  0  0  0  0  0  0  0  0  0
    1.0220    0.5570   -0.3250 N   0  0  0  0  0  0  0  0  0  0  0  0
    1.4570   -0.5840    0.3800 C   0  0  0  0  0  0  0  0  0  0  0  0
    0.7850   -1.2340    1.2540 O   0  0  0  0  0  0  0  0  0  0  0  0
    2.7990   -1.0280    0.0570 C   0  0  0  0  0  0  0  0  0  0  0  0
    3.3240   -2.1940    0.1310 C   0  0  0  0  0  0  0  0  0  0  0  0
    4.6770   -2.6490   -0.1920 C   0  0  0  0  0  0  0  0  0  0  0  0
    5.0230   -3.8060    0.2250 C   0  0  0  0  0  0  0  0  0  0  0  0
    4.0670   -4.5730    0.9770 C   0  0  0  0  0  0  0  0  0  0  0  0
    4.2070   -5.5860    1.6800 O   0  0  0  0  0  0  0  0  0  0  0  0
    2.5170   -3.7350    0.6910 S   0  0  0  0  0  0  0  0  0  0  0  0
    3.5750    0.4930   -0.4890 S   0  0  0  0  0  0  0  0  0  0  0  0
    1.9990    1.0720   -1.2470 C   0  0  0  0  0  0  0  0  0  0  0  0
    1.9090    1.8620   -2.6370 S   0  0  0  0  0  0  0  0  0  0  0  0
  1  2  1  0
  2  3  1  0
  3  4  1  0
  4  5  2  0
  4  6  1  0
  6  7  2  3
  6 11  1  0
  7  8  1  0
  7  9  1  0
  9 10  1  0
 11 12  1  0
 11 22  1  0
 12 13  2  0
 12 14  1  0
 14 15  2  3
 14 21  1  0
 15 16  1  0
 15 20  1  0
 16 17  2  0
 17 18  1  0
 18 19  2  0
 18 20  1  0
 21 22  1  0
 22 23  2  0
M  END
