
     RDKit          3D

 23 25  0  0  0  0  0  0  0  0999 V2000
    2.9240   -1.0450    0.1750 C   0  0  0  0  0  0  0  0  0  0  0  0
    3.4080    0.4210    0.2290 C   0  0  0  0  0  0  0  0  0  0  0  0
    4.6290    0.7480   -0.1580 C   0  0  0  0  0  0  0  0  0  0  0  0
    5.8350   -0.3700   -0.8650 S   0  0  2  0  0  0  0  0  0  0  0  0
    6.6350    0.3820   -1.9150 O   0  0  0  0  0  0  0  0  0  0  0  0
    5.1980   -1.5030   -1.5700 O   0  0  0  0  0  0  0  0  0  0  0  0
    5.0520    2.0950   -0.0340 C   0  0  0  0  0  0  0  0  0  0  0  0
    3.5430    2.8680    0.6910 S   0  0  0  0  0  0  0  0  0  0  0  0
    2.5460    1.3280    0.7390 C   0  0  0  0  0  0  0  0  0  0  0  0
    0.8800    1.4610    1.3230 S   0  0  0  0  0  0  0  0  0  0  0  0
   -0.1470    0.0510    1.1350 C   0  0  0  0  0  0  0  0  0  0  0  0
   -1.5010    0.3850    0.5320 C   0  0  0  0  0  0  0  0  0  0  0  0
   -1.9890    1.5210    0.1540 O   0  0  0  0  0  0  0  0  0  0  0  0
   -3.2090    1.3810   -0.3150 C   0  0  0  0  0  0  0  0  0  0  0  0
   -4.0900    2.4810   -0.8430 C   0  0  0  0  0  0  0  0  0  0  0  0
   -3.5360    0.0490   -0.2350 C   0  0  0  0  0  0  0  0  0  0  0  0
   -4.6430   -0.6950   -0.5600 C   0  0  0  0  0  0  0  0  0  0  0  0
   -5.6530   -0.1480   -1.0550 O   0  0  0  0  0  0  0  0  0  0  0  0
   -4.6650   -2.0410   -0.3520 N   0  0  0  0  0  0  0  0  0  0  0  0
   -3.6240   -2.6480    0.1640 N   0  0  0  0  0  0  0  0  0  0  0  0
   -2.5110   -1.9730    0.5020 C   0  0  0  0  0  0  0  0  0  0  0  0
   -1.5270   -2.5750    0.9960 O   0  0  0  0  0  0  0  0  0  0  0  0
   -2.4440   -0.5950    0.3070 C   0  0  0  0  0  0  0  0  0  0  0  0
  1  2  1  0
  2  3  1  0
  2  9  2  0
  4  3  1  6
  3  7  2  0
  4  5  2  0
  4  6  2  0
  7  8  1  0
  8  9  1  0
  9 10  1  0
 10 11  1  0
 11 12  1  0
 12 13  1  0
 12 23  2  0
 13 14  1  0
 14 15  1  0
 14 16  2  0
 16 17  1  0
 16 23  1  0
 17 18  2  0
 17 19  1  0
 19 20  1  0
 20 21  1  0
 21 22  2  0
 21 23  1  0
M  END
