
     RDKit          3D

 23 24  0  0  0  0  0  0  0  0999 V2000
   -2.2470    4.0210   -0.9480 C   0  0  0  0  0  0  0  0  0  0  0  0
   -1.9260    3.0830   -0.1170 C   0  0  0  0  0  0  0  0  0  0  0  0
   -2.2880    3.4510    1.6290 S   0  0  0  0  0  0  0  0  0  0  0  0
   -1.7650    2.0500    2.5480 C   0  0  0  0  0  0  0  0  0  0  0  0
   -1.9260    2.0480    4.0030 C   0  0  0  0  0  0  0  0  0  0  0  0
   -1.2410    1.0300    1.9280 C   0  0  0  0  0  0  0  0  0  0  0  0
   -1.0230    0.8990    0.4990 C   0  0  0  0  0  0  0  0  0  0  0  0
   -0.4340   -0.3210    0.0920 O   0  0  0  0  0  0  0  0  0  0  0  0
   -1.1750   -1.4200   -0.2410 C   0  0  0  0  0  0  0  0  0  0  0  0
   -2.4540   -1.2300   -0.2000 O   0  0  0  0  0  0  0  0  0  0  0  0
   -0.7500   -2.7570   -0.6270 C   0  0  0  0  0  0  0  0  0  0  0  0
    0.5730   -3.1100   -0.4850 O   0  0  0  0  0  0  0  0  0  0  0  0
    1.6910   -2.6220   -1.0750 C   0  0  0  0  0  0  0  0  0  0  0  0
    1.6030   -1.7030   -1.9010 O   0  0  0  0  0  0  0  0  0  0  0  0
    3.0500   -3.1660   -0.7560 C   0  0  0  0  0  0  0  0  0  0  0  0
    3.2570   -4.1020    0.0700 N   0  0  0  0  0  0  0  0  0  0  0  0
    4.9110   -4.5770    0.2890 S   0  0  0  0  0  0  0  0  0  0  0  0
    5.8350   -3.1840   -0.4770 C   0  0  0  0  0  0  0  0  0  0  0  0
    4.5180   -2.5290   -1.5350 S   0  0  0  0  0  0  0  0  0  0  0  0
   -1.3270    1.8140   -0.4270 C   0  0  0  0  0  0  0  0  0  0  0  0
   -1.0330    1.4880   -1.8250 C   0  0  0  0  0  0  0  0  0  0  0  0
   -1.2880    2.3320   -2.9010 N   0  0  0  0  0  0  0  0  0  0  0  0
   -0.5020    0.3440   -2.0830 O   0  0  0  0  0  0  0  0  0  0  0  0
  1  2  2  0
  2  3  1  0
  2 20  1  0
  3  4  1  0
  4  5  1  0
  4  6  2  0
  6  7  1  0
  7  8  1  0
  7 20  2  0
  8  9  1  0
  9 10  2  0
  9 11  1  0
 11 12  1  0
 12 13  1  0
 13 14  2  0
 13 15  1  0
 15 16  2  0
 15 19  1  0
 16 17  1  0
 17 18  1  0
 18 19  1  0
 20 21  1  0
 21 22  1  0
 21 23  2  0
M  END
