
     RDKit          3D

 23 24  0  0  0  0  0  0  0  0999 V2000
    7.8170    0.3150   -1.7810 C   0  0  0  0  0  0  0  0  0  0  0  0
    6.7320    0.1890   -0.8810 O   0  0  0  0  0  0  0  0  0  0  0  0
    5.4710   -0.2120   -1.2630 C   0  0  0  0  0  0  0  0  0  0  0  0
    5.2310   -0.4890   -2.4650 O   0  0  0  0  0  0  0  0  0  0  0  0
    4.4360   -0.3130   -0.2950 N   0  0  0  0  0  0  0  0  0  0  0  0
    3.1060   -0.7240   -0.6310 C   0  0  0  0  0  0  0  0  0  0  0  0
    2.9230   -0.9900   -1.8550 O   0  0  0  0  0  0  0  0  0  0  0  0
    2.0780   -0.8190    0.3620 C   0  0  0  0  0  0  0  0  0  0  0  0
    0.8230   -1.1700    0.2480 C   0  0  0  0  0  0  0  0  0  0  0  0
    0.0310   -1.1580    1.4390 C   0  0  0  0  0  0  0  0  0  0  0  0
   -1.1830   -0.7690    1.7000 C   0  0  0  0  0  0  0  0  0  0  0  0
   -2.1580   -0.1830    0.7910 C   0  0  0  0  0  0  0  0  0  0  0  0
   -3.3720    0.1160    1.2480 C   0  0  0  0  0  0  0  0  0  0  0  0
   -4.4500    0.6830    0.4990 C   0  0  0  0  0  0  0  0  0  0  0  0
   -5.9970    0.9960    1.3880 S   0  0  0  0  0  0  0  0  0  0  0  0
   -7.2320    1.7120    0.3050 C   0  0  0  0  0  0  0  0  0  0  0  0
   -4.4280    0.9950   -0.7590 C   0  0  0  0  0  0  0  0  0  0  0  0
   -2.9950    0.7250   -1.6970 S   0  0  2  0  0  0  0  0  0  0  0  0
   -2.4910    1.9760   -2.3440 O   0  0  0  0  0  0  0  0  0  0  0  0
   -3.2300   -0.3830   -2.6700 O   0  0  0  0  0  0  0  0  0  0  0  0
   -1.8080    0.1950   -0.5170 N   0  0  0  0  0  0  0  0  0  0  0  0
    0.9030   -1.6720    2.6030 C   0  0  0  0  0  0  0  0  0  0  0  0
    2.3340   -0.5590    2.1380 S   0  0  0  0  0  0  0  0  0  0  0  0
  1  2  1  0
  2  3  1  0
  3  4  2  0
  3  5  1  0
  5  6  1  0
  6  7  2  0
  6  8  1  0
  8  9  2  0
  8 23  1  0
  9 10  1  0
 10 11  2  3
 10 22  1  0
 11 12  1  0
 12 13  2  0
 12 21  1  0
 13 14  1  0
 14 15  1  0
 14 17  2  0
 15 16  1  0
 17 18  1  0
 18 19  2  0
 18 20  2  0
 18 21  1  1
 22 23  1  0
M  END
