
     RDKit          3D

 15 15  0  0  0  0  0  0  0  0999 V2000
   -0.7640   -2.4290   -0.8890 N   0  0  0  0  0  0  0  0  0  0  0  0
   -1.0630   -1.4550    0.1290 C   0  0  2  0  0  0  0  0  0  0  0  0
   -2.4180   -1.4170    0.3860 O   0  0  0  0  0  0  0  0  0  0  0  0
   -2.7190   -0.1840    0.9410 C   0  0  0  0  0  0  0  0  0  0  0  0
   -1.5060    0.7020    0.7650 C   0  0  2  0  0  0  0  0  0  0  0  0
   -1.8080    2.0880    0.4830 C   0  0  0  0  0  0  0  0  0  0  0  0
   -1.3970    2.9690    1.2830 O   0  0  0  0  0  0  0  0  0  0  0  0
   -2.5260    2.5480   -0.6110 O   0  0  0  0  0  0  0  0  0  0  0  0
   -0.7910   -0.0370   -0.3330 C   0  0  2  0  0  0  0  0  0  0  0  0
   -1.3340    0.1080   -1.5750 O   0  0  0  0  0  0  0  0  0  0  0  0
    0.6910    0.3020   -0.2670 C   0  0  0  0  0  0  0  0  0  0  0  0
    1.4460   -0.4740   -1.0790 O   0  0  0  0  0  0  0  0  0  0  0  0
    2.7690   -0.1650   -1.0790 C   0  0  0  0  0  0  0  0  0  0  0  0
    3.5260   -0.2780    0.1900 C   0  0  0  0  0  0  0  0  0  0  0  0
    3.1300    0.4920    1.2430 O   0  0  0  0  0  0  0  0  0  0  0  0
  2  1  1  6
  2  3  1  0
  2  9  1  0
  3  4  1  0
  4  5  1  0
  5  6  1  6
  5  9  1  0
  6  7  2  0
  6  8  1  0
  9 10  1  6
  9 11  1  0
 11 12  1  0
 12 13  1  0
 13 14  1  0
 14 15  1  0
M  END
