
     RDKit          3D

 14 14  0  0  0  0  0  0  0  0999 V2000
   -1.5800    1.9660    0.3190 C   0  0  0  0  0  0  0  0  0  0  0  0
   -1.3100    0.5090    0.6690 C   0  0  2  0  0  0  0  0  0  0  0  0
   -1.8190    0.3320    2.1140 C   0  0  0  0  0  0  0  0  0  0  0  0
    0.0080    0.3240    0.7220 O   0  0  0  0  0  0  0  0  0  0  0  0
    0.7220   -0.1390   -0.3020 C   0  0  2  0  0  0  0  0  0  0  0  0
    1.6640    0.8190   -0.6820 O   0  0  0  0  0  0  0  0  0  0  0  0
    2.9620    0.3980   -0.5050 C   0  0  0  0  0  0  0  0  0  0  0  0
    3.2080    0.0960    0.8390 O   0  0  0  0  0  0  0  0  0  0  0  0
    4.5070   -0.3090    0.9180 N   0  0  0  0  0  0  0  0  0  0  0  0
   -0.0090   -0.5740   -1.5270 C   0  0  1  0  0  0  0  0  0  0  0  0
    0.7440   -1.5530   -2.1790 O   0  0  0  0  0  0  0  0  0  0  0  0
   -1.3860   -1.0880   -1.2790 C   0  0  0  0  0  0  0  0  0  0  0  0
   -2.1240   -0.4060   -0.1810 C   0  0  1  0  0  0  0  0  0  0  0  0
   -2.7850   -1.3810    0.5770 O   0  0  0  0  0  0  0  0  0  0  0  0
  2  1  1  6
  2  3  1  0
  2  4  1  0
  2 13  1  0
  4  5  1  0
  5  6  1  6
  5 10  1  0
  6  7  1  0
  7  8  1  0
  8  9  1  0
 10 11  1  1
 10 12  1  0
 12 13  1  0
 13 14  1  1
M  END
