
     RDKit          3D

 15 15  0  0  0  0  0  0  0  0999 V2000
    1.4730    1.7320   -0.2300 C   0  0  0  0  0  0  0  0  0  0  0  0
    1.1500    0.3190   -0.7250 C   0  0  1  0  0  0  0  0  0  0  0  0
    0.8710    0.4120   -2.0900 O   0  0  0  0  0  0  0  0  0  0  0  0
    2.2660   -0.5990   -0.5290 C   0  0  0  0  0  0  0  0  0  0  0  0
    2.7960   -1.1620   -1.5140 O   0  0  0  0  0  0  0  0  0  0  0  0
    2.7820   -0.8810    0.7640 N   0  0  0  0  0  0  0  0  0  0  0  0
    3.8230   -1.7420    0.9100 O   0  0  0  0  0  0  0  0  0  0  0  0
   -0.1080   -0.0980   -0.0170 C   0  0  2  0  0  0  0  0  0  0  0  0
    0.1090   -0.2060    1.3550 O   0  0  0  0  0  0  0  0  0  0  0  0
   -0.5920   -1.4720   -0.4750 C   0  0  0  0  0  0  0  0  0  0  0  0
   -1.6050   -1.8490    0.3680 O   0  0  0  0  0  0  0  0  0  0  0  0
   -2.6910   -1.0150    0.3870 C   0  0  0  0  0  0  0  0  0  0  0  0
   -2.3680    0.4170    0.6500 C   0  0  2  0  0  0  0  0  0  0  0  0
   -3.4920    1.2040    0.4330 O   0  0  0  0  0  0  0  0  0  0  0  0
   -1.2580    0.8460   -0.3010 C   0  0  0  0  0  0  0  0  0  0  0  0
  2  1  1  1
  2  3  1  0
  2  4  1  0
  2  8  1  0
  4  5  2  0
  4  6  1  0
  6  7  1  0
  8  9  1  1
  8 10  1  0
  8 15  1  0
 10 11  1  0
 11 12  1  0
 12 13  1  0
 13 14  1  6
 13 15  1  0
M  END
