
     RDKit          3D

 22 23  0  0  0  0  0  0  0  0999 V2000
   -6.7040    1.1600    0.3480 C   0  0  0  0  0  0  0  0  0  0  0  0
   -5.5270    1.3670    1.1040 O   0  0  0  0  0  0  0  0  0  0  0  0
   -4.3280    0.9370    0.5940 C   0  0  0  0  0  0  0  0  0  0  0  0
   -4.2570    0.3060   -0.6440 C   0  0  0  0  0  0  0  0  0  0  0  0
   -3.0200   -0.1110   -1.1160 C   0  0  0  0  0  0  0  0  0  0  0  0
   -1.8600    0.0790   -0.4010 C   0  0  0  0  0  0  0  0  0  0  0  0
   -0.5820   -0.3990   -0.9820 C   0  0  0  0  0  0  0  0  0  0  0  0
   -0.3780   -1.7690   -0.5410 N   0  0  0  0  0  0  0  0  0  0  0  0
    1.0910   -2.4210   -1.1670 S   0  0  1  0  0  0  0  0  0  0  0  0
    1.2640   -3.8040   -0.6710 O   0  0  0  0  0  0  0  0  0  0  0  0
    1.1250   -2.3610   -2.6660 O   0  0  0  0  0  0  0  0  0  0  0  0
    2.4810   -1.4930   -0.5910 C   0  0  0  0  0  0  0  0  0  0  0  0
    3.5640   -1.9030    0.1540 C   0  0  0  0  0  0  0  0  0  0  0  0
    4.4850   -0.9830    0.4560 C   0  0  0  0  0  0  0  0  0  0  0  0
    4.3220    0.2840    0.0270 C   0  0  0  0  0  0  0  0  0  0  0  0
    5.3050    1.7100    0.2330 S   0  0  1  0  0  0  0  0  0  0  0  0
    6.6800    1.2880    1.1530 N   0  0  0  0  0  0  0  0  0  0  0  0
    5.7120    2.2950   -1.0900 O   0  0  0  0  0  0  0  0  0  0  0  0
    4.4440    2.7360    0.9410 O   0  0  0  0  0  0  0  0  0  0  0  0
    2.8140    0.2100   -0.8420 S   0  0  0  0  0  0  0  0  0  0  0  0
   -1.9230    0.7020    0.8240 C   0  0  0  0  0  0  0  0  0  0  0  0
   -3.1450    1.1270    1.3180 C   0  0  0  0  0  0  0  0  0  0  0  0
  1  2  1  0
  2  3  1  0
  3  4  2  0
  3 22  1  0
  4  5  1  0
  5  6  2  0
  6  7  1  0
  6 21  1  0
  7  8  1  0
  9  8  1  1
  9 10  2  0
  9 11  2  0
  9 12  1  0
 12 13  2  0
 12 20  1  0
 13 14  1  0
 14 15  2  0
 15 16  1  0
 15 20  1  0
 16 17  1  1
 16 18  2  0
 16 19  2  0
 21 22  2  0
M  END
