
     RDKit          3D

 14 14  0  0  0  0  0  0  0  0999 V2000
   -3.5970    1.3170   -0.3710 N   0  0  0  0  0  0  0  0  0  0  0  0
   -2.3050    0.7610   -0.8260 C   0  0  0  0  0  0  0  0  0  0  0  0
   -1.7870   -0.0740    0.3190 C   0  0  2  0  0  0  0  0  0  0  0  0
   -0.5130   -0.7910    0.0440 C   0  0  0  0  0  0  0  0  0  0  0  0
    0.6690    0.0350   -0.2990 C   0  0  1  0  0  0  0  0  0  0  0  0
    0.4350    0.7740   -1.4520 O   0  0  0  0  0  0  0  0  0  0  0  0
    1.1260    0.9130    0.8490 C   0  0  0  0  0  0  0  0  0  0  0  0
    2.3920    0.3530    1.4530 C   0  0  0  0  0  0  0  0  0  0  0  0
    3.4360    0.4450    0.5460 O   0  0  0  0  0  0  0  0  0  0  0  0
    3.0760   -0.0860   -0.6860 C   0  0  0  0  0  0  0  0  0  0  0  0
    1.8240   -0.9010   -0.6300 C   0  0  2  0  0  0  0  0  0  0  0  0
    1.6490   -1.4850   -1.8960 O   0  0  0  0  0  0  0  0  0  0  0  0
   -2.7540   -1.0620    0.5720 O   0  0  0  0  0  0  0  0  0  0  0  0
   -3.3010   -0.9050    1.7490 O   0  0  0  0  0  0  0  0  0  0  0  0
  1  2  1  0
  3  2  1  6
  3  4  1  0
  3 13  1  0
  4  5  1  0
  5  6  1  6
  5  7  1  0
  5 11  1  0
  7  8  1  0
  8  9  1  0
  9 10  1  0
 10 11  1  0
 11 12  1  6
 13 14  1  0
M  END
