
     RDKit          3D

 15 15  0  0  0  0  0  0  0  0999 V2000
   -2.4270   -1.0600   -0.7860 N   0  0  0  0  0  0  0  0  0  0  0  0
   -1.1490   -0.5380   -1.1340 C   0  0  0  0  0  0  0  0  0  0  0  0
   -0.8970   -0.1840   -2.3000 O   0  0  0  0  0  0  0  0  0  0  0  0
   -0.1350   -0.4430   -0.0190 C   0  0  2  0  0  0  0  0  0  0  0  0
    0.0390   -1.8550    0.4680 C   0  0  0  0  0  0  0  0  0  0  0  0
   -1.2320   -2.2840    0.9120 O   0  0  0  0  0  0  0  0  0  0  0  0
   -0.8160    0.4220    1.0330 C   0  0  0  0  0  0  0  0  0  0  0  0
   -1.0740    1.7920    0.5040 C   0  0  2  0  0  0  0  0  0  0  0  0
   -2.3840    2.0640    0.2040 O   0  0  0  0  0  0  0  0  0  0  0  0
   -0.3080    2.0890   -0.6390 O   0  0  0  0  0  0  0  0  0  0  0  0
    1.0130    1.7250   -0.2970 C   0  0  0  0  0  0  0  0  0  0  0  0
    1.1030    0.2050   -0.4990 C   0  0  2  0  0  0  0  0  0  0  0  0
    1.2210    0.0180   -1.8750 O   0  0  0  0  0  0  0  0  0  0  0  0
    2.3610   -0.2370    0.1980 C   0  0  0  0  0  0  0  0  0  0  0  0
    3.4740    0.4820   -0.2370 O   0  0  0  0  0  0  0  0  0  0  0  0
  1  2  1  0
  2  3  2  0
  2  4  1  0
  4  5  1  1
  4  7  1  0
  4 12  1  0
  5  6  1  0
  7  8  1  0
  8  9  1  6
  8 10  1  0
 10 11  1  0
 11 12  1  0
 12 13  1  6
 12 14  1  0
 14 15  1  0
M  END
