
     RDKit          3D

 19 20  0  0  0  0  0  0  0  0999 V2000
   -2.5120    2.8660   -1.5250 C   0  0  0  0  0  0  0  0  0  0  0  0
   -1.6740    1.6060   -1.1780 C   0  0  0  0  0  0  0  0  0  0  0  0
   -2.3490    0.8550   -0.0940 C   0  0  0  0  0  0  0  0  0  0  0  0
   -1.7810   -0.4220    0.3700 C   0  0  1  0  0  0  0  0  0  0  0  0
   -2.7280   -0.8880    1.5110 C   0  0  0  0  0  0  0  0  0  0  0  0
   -1.9290   -1.5770   -0.6480 C   0  0  0  0  0  0  0  0  0  0  0  0
   -1.8490   -2.7420    0.1080 O   0  0  0  0  0  0  0  0  0  0  0  0
   -0.7210   -2.8810    0.8710 C   0  0  0  0  0  0  0  0  0  0  0  0
   -0.3760   -1.6690    1.7160 C   0  0  0  0  0  0  0  0  0  0  0  0
   -0.4660   -0.4480    0.9030 N   0  0  0  0  0  0  0  0  0  0  0  0
    0.6080   -0.4320   -0.0700 C   0  0  0  0  0  0  0  0  0  0  0  0
    1.9670   -0.2070    0.5150 C   0  0  2  0  0  0  0  0  0  0  0  0
    1.9210    1.1450    1.2210 C   0  0  0  0  0  0  0  0  0  0  0  0
    3.3620    1.5850    1.1350 C   0  0  0  0  0  0  0  0  0  0  0  0
    3.6820    1.2640   -0.3100 C   0  0  1  0  0  0  0  0  0  0  0  0
    5.4610    1.1270   -0.4320 Cl  0  0  0  0  0  0  0  0  0  0  0  0
    3.0140   -0.0430   -0.5450 C   0  0  0  0  0  0  0  0  0  0  0  0
    3.3310   -0.8700   -1.5270 C   0  0  0  0  0  0  0  0  0  0  0  0
    2.5650   -2.4120   -1.8260 Cl  0  0  0  0  0  0  0  0  0  0  0  0
  1  2  1  0
  2  3  1  0
  3  4  1  0
  4  5  1  1
  4  6  1  0
  4 10  1  0
  6  7  1  0
  7  8  1  0
  8  9  1  0
  9 10  1  0
 10 11  1  0
 12 11  1  6
 12 13  1  0
 12 17  1  0
 13 14  1  0
 14 15  1  0
 15 16  1  1
 15 17  1  0
 17 18  2  3
 18 19  1  0
M  END
