
     RDKit          3D

 23 25  0  0  0  0  0  0  0  0999 V2000
    6.0860    2.0950    0.5860 C   0  0  0  0  0  0  0  0  0  0  0  0
    4.6820    2.0220    0.5530 O   0  0  0  0  0  0  0  0  0  0  0  0
    4.0270    0.8630    0.2350 C   0  0  0  0  0  0  0  0  0  0  0  0
    4.7110   -0.3000   -0.0730 C   0  0  0  0  0  0  0  0  0  0  0  0
    4.0170   -1.4660   -0.3940 C   0  0  0  0  0  0  0  0  0  0  0  0
    2.6590   -1.5000   -0.4160 C   0  0  0  0  0  0  0  0  0  0  0  0
    1.9440   -0.3450   -0.1100 C   0  0  0  0  0  0  0  0  0  0  0  0
    0.5600   -0.4240   -0.1440 N   0  0  0  0  0  0  0  0  0  0  0  0
   -0.2110   -0.7860    1.0190 C   0  0  0  0  0  0  0  0  0  0  0  0
   -1.4010   -1.6450    0.6590 C   0  0  0  0  0  0  0  0  0  0  0  0
   -2.4980   -0.8780    0.0040 C   0  0  0  0  0  0  0  0  0  0  0  0
   -3.7930   -0.8210    0.3050 C   0  0  0  0  0  0  0  0  0  0  0  0
   -4.6250   -0.0360   -0.4610 C   0  0  0  0  0  0  0  0  0  0  0  0
   -6.3390    0.2480   -0.3320 S   0  0  2  0  0  0  0  0  0  0  0  0
   -6.6710    1.9150   -0.0800 N   0  0  0  0  0  0  0  0  0  0  0  0
   -6.8580   -0.5430    0.8050 O   0  0  0  0  0  0  0  0  0  0  0  0
   -6.9920   -0.2480   -1.6020 O   0  0  0  0  0  0  0  0  0  0  0  0
   -3.5510    0.6460   -1.6460 S   0  0  0  0  0  0  0  0  0  0  0  0
   -2.0760   -0.0990   -1.1160 C   0  0  0  0  0  0  0  0  0  0  0  0
   -0.3730   -0.0930   -1.5910 S   0  0  1  0  0  0  0  0  0  0  0  0
    0.0140    1.2590   -2.1130 O   0  0  0  0  0  0  0  0  0  0  0  0
   -0.0820   -1.1920   -2.5700 O   0  0  0  0  0  0  0  0  0  0  0  0
    2.6500    0.8050    0.2060 C   0  0  0  0  0  0  0  0  0  0  0  0
  1  2  1  0
  2  3  1  0
  3  4  2  0
  3 23  1  0
  4  5  1  0
  5  6  2  0
  6  7  1  0
  7  8  1  0
  7 23  2  0
  8  9  1  0
 20  8  1  1
  9 10  1  0
 10 11  1  0
 11 12  1  0
 11 19  2  0
 12 13  2  0
 13 14  1  0
 13 18  1  0
 14 15  1  1
 14 16  2  0
 14 17  2  0
 18 19  1  0
 19 20  1  0
 20 21  2  0
 20 22  2  0
M  END
