
     RDKit          3D

 23 24  0  0  0  0  0  0  0  0999 V2000
    0.8320   -0.8140   -0.0610 O   0  0  0  0  0  0  0  0  0  0  0  0
    0.6990    0.3800   -0.4230 C   0  0  0  0  0  0  0  0  0  0  0  0
   -0.6270    1.0340   -0.4160 C   0  0  0  0  0  0  0  0  0  0  0  0
   -1.6780    0.3790   -0.0330 C   0  0  0  0  0  0  0  0  0  0  0  0
   -1.7150   -1.3100    0.5170 S   0  0  0  0  0  0  0  0  0  0  0  0
   -3.4290   -1.3020    1.0630 C   0  0  0  0  0  0  0  0  0  0  0  0
   -4.0180   -2.2240    1.7030 O   0  0  0  0  0  0  0  0  0  0  0  0
   -3.9440   -0.0630    0.6210 N   0  0  0  0  0  0  0  0  0  0  0  0
   -5.3820    0.2240    0.7880 C   0  0  0  0  0  0  0  0  0  0  0  0
   -6.1520   -0.2390   -0.4270 C   0  0  0  0  0  0  0  0  0  0  0  0
   -6.0390   -1.5840   -0.6710 O   0  0  0  0  0  0  0  0  0  0  0  0
   -3.0460    0.8220    0.0490 C   0  0  0  0  0  0  0  0  0  0  0  0
   -3.3740    1.9820   -0.3950 O   0  0  0  0  0  0  0  0  0  0  0  0
    1.8420    1.0980   -0.8420 N   0  0  0  0  0  0  0  0  0  0  0  0
    3.1550    0.5590   -0.8760 C   0  0  0  0  0  0  0  0  0  0  0  0
    3.8090    0.4080   -2.0300 C   0  0  0  0  0  0  0  0  0  0  0  0
    5.1520   -0.1430   -2.0630 C   0  0  0  0  0  0  0  0  0  0  0  0
    5.7870   -0.5170   -0.9670 C   0  0  0  0  0  0  0  0  0  0  0  0
    7.4570   -1.1990   -1.0430 S   0  0  0  0  0  0  0  0  0  0  0  0
    5.1530   -0.3780    0.2550 O   0  0  0  0  0  0  0  0  0  0  0  0
    3.8500    0.1520    0.3330 C   0  0  0  0  0  0  0  0  0  0  0  0
    3.2570    0.2830    1.5180 C   0  0  0  0  0  0  0  0  0  0  0  0
    4.1560   -0.2370    2.9860 S   0  0  0  0  0  0  0  0  0  0  0  0
  1  2  2  0
  2  3  1  0
  2 14  1  0
  3  4  2  3
  4  5  1  0
  4 12  1  0
  5  6  1  0
  6  7  2  0
  6  8  1  0
  8  9  1  0
  8 12  1  0
  9 10  1  0
 10 11  1  0
 12 13  2  0
 14 15  1  0
 15 16  2  0
 15 21  1  0
 16 17  1  0
 17 18  2  0
 18 19  1  0
 18 20  1  0
 20 21  1  0
 21 22  2  3
 22 23  1  0
M  END
