
     RDKit          3D

 23 24  0  0  0  0  0  0  0  0999 V2000
    6.4030   -0.0610    0.3690 C   0  0  0  0  0  0  0  0  0  0  0  0
    6.1580   -1.4380    0.9160 C   0  0  0  0  0  0  0  0  0  0  0  0
    4.9140   -1.7690    1.1930 C   0  0  0  0  0  0  0  0  0  0  0  0
    3.8000   -0.8540    0.9870 C   0  0  0  0  0  0  0  0  0  0  0  0
    2.5600   -1.1810    1.2610 C   0  0  0  0  0  0  0  0  0  0  0  0
    1.4540   -0.2190    1.0370 C   0  0  0  0  0  0  0  0  0  0  0  0
    1.9390    0.9830    0.5260 O   0  0  0  0  0  0  0  0  0  0  0  0
    0.7510    2.0990    0.2540 S   0  0  2  0  0  0  0  0  0  0  0  0
    1.3400    3.1950   -0.6150 O   0  0  0  0  0  0  0  0  0  0  0  0
    0.2670    2.7620    1.5060 O   0  0  0  0  0  0  0  0  0  0  0  0
   -0.6300    1.3950   -0.5610 C   0  0  0  0  0  0  0  0  0  0  0  0
   -0.8370    1.3010   -1.8650 C   0  0  0  0  0  0  0  0  0  0  0  0
   -2.1050    0.6490   -2.0850 N   0  0  0  0  0  0  0  0  0  0  0  0
   -2.6370    0.3620   -0.8160 C   0  0  0  0  0  0  0  0  0  0  0  0
   -3.8020   -0.2420   -0.5260 C   0  0  0  0  0  0  0  0  0  0  0  0
   -4.1630   -0.4430    0.9070 C   0  0  0  0  0  0  0  0  0  0  0  0
   -5.8530    0.1460    1.1960 S   0  0  0  0  0  0  0  0  0  0  0  0
   -6.7560   -0.0530   -0.3320 C   0  0  0  0  0  0  0  0  0  0  0  0
   -8.3410    0.3960   -0.4440 S   0  0  0  0  0  0  0  0  0  0  0  0
   -6.1160   -0.6040   -1.4820 N   0  0  0  0  0  0  0  0  0  0  0  0
   -4.7000   -0.6950   -1.5760 C   0  0  0  0  0  0  0  0  0  0  0  0
   -4.1390   -1.1910   -2.6130 O   0  0  0  0  0  0  0  0  0  0  0  0
   -1.7100    0.8310    0.1030 O   0  0  0  0  0  0  0  0  0  0  0  0
  1  2  1  0
  2  3  2  3
  3  4  1  0
  4  5  2  3
  5  6  1  0
  6  7  1  0
  8  7  1  1
  8  9  2  0
  8 10  2  0
  8 11  1  0
 11 12  2  0
 11 23  1  0
 12 13  1  0
 13 14  1  0
 14 15  2  3
 14 23  1  0
 15 16  1  0
 15 21  1  0
 16 17  1  0
 17 18  1  0
 18 19  2  0
 18 20  1  0
 20 21  1  0
 21 22  2  0
M  END
