
     RDKit          3D

 23 24  0  0  0  0  0  0  0  0999 V2000
   -6.2370    0.2990    2.3590 C   0  0  0  0  0  0  0  0  0  0  0  0
   -4.8210    0.7200    2.0260 C   0  0  0  0  0  0  0  0  0  0  0  0
   -4.3340   -0.2250    1.0940 O   0  0  0  0  0  0  0  0  0  0  0  0
   -3.0230   -0.1300    0.5690 C   0  0  0  0  0  0  0  0  0  0  0  0
   -2.3800    0.8480    1.0090 O   0  0  0  0  0  0  0  0  0  0  0  0
   -2.5460   -1.1150   -0.3850 C   0  0  0  0  0  0  0  0  0  0  0  0
   -1.3580   -1.2220   -1.0040 C   0  0  0  0  0  0  0  0  0  0  0  0
   -0.2530   -0.3000   -0.8200 C   0  0  0  0  0  0  0  0  0  0  0  0
    0.9190   -0.2290   -1.3310 C   0  0  0  0  0  0  0  0  0  0  0  0
    2.1010    1.0890   -0.8660 S   0  0  0  0  0  0  0  0  0  0  0  0
    3.3910    0.5460   -1.9760 C   0  0  0  0  0  0  0  0  0  0  0  0
    4.9780    1.3660   -2.1270 S   0  0  0  0  0  0  0  0  0  0  0  0
    5.0160    2.7540   -0.9840 C   0  0  0  0  0  0  0  0  0  0  0  0
    4.9990    2.1590    0.7410 S   0  0  0  0  0  0  0  0  0  0  0  0
    6.5020    1.2880    1.0740 C   0  0  0  0  0  0  0  0  0  0  0  0
    6.7280    0.7350    2.3500 N   0  0  0  0  0  0  0  0  0  0  0  0
    7.3570    1.1720    0.1650 O   0  0  0  0  0  0  0  0  0  0  0  0
    2.9520   -0.4620   -2.5770 N   0  0  0  0  0  0  0  0  0  0  0  0
    1.6720   -0.9350   -2.3040 C   0  0  0  0  0  0  0  0  0  0  0  0
    1.2400   -1.9690   -2.9360 O   0  0  0  0  0  0  0  0  0  0  0  0
   -1.3630   -2.4510   -1.8200 C   0  0  0  0  0  0  0  0  0  0  0  0
   -2.5150   -3.1440   -1.4270 O   0  0  0  0  0  0  0  0  0  0  0  0
   -3.3640   -2.2320   -0.9220 C   0  0  0  0  0  0  0  0  0  0  0  0
  1  2  1  0
  2  3  1  0
  3  4  1  0
  4  5  2  0
  4  6  1  0
  6  7  2  0
  6 23  1  0
  7  8  1  0
  7 21  1  0
  8  9  2  3
  9 10  1  0
  9 19  1  0
 10 11  1  0
 11 12  1  0
 11 18  2  0
 12 13  1  0
 13 14  1  0
 14 15  1  0
 15 16  1  0
 15 17  2  0
 18 19  1  0
 19 20  2  0
 21 22  1  0
 22 23  1  0
M  END
