
     RDKit          3D

 23 25  0  0  0  0  0  0  0  0999 V2000
   -5.2710   -0.7370    2.0620 O   0  0  0  0  0  0  0  0  0  0  0  0
   -4.7290   -0.9920    0.9570 C   0  0  0  0  0  0  0  0  0  0  0  0
   -5.1170   -2.2510    0.2710 C   0  0  0  0  0  0  0  0  0  0  0  0
   -4.4630   -2.4200   -0.9240 O   0  0  0  0  0  0  0  0  0  0  0  0
   -3.7790   -0.1050    0.3870 N   0  0  0  0  0  0  0  0  0  0  0  0
   -2.5430   -0.3770    0.4340 C   0  0  0  0  0  0  0  0  0  0  0  0
   -1.7990   -1.8040    1.1610 S   0  0  0  0  0  0  0  0  0  0  0  0
   -0.0790   -1.3240    0.7470 C   0  0  0  0  0  0  0  0  0  0  0  0
    1.3150   -2.3660    1.1890 S   0  0  0  0  0  0  0  0  0  0  0  0
    2.9090   -1.7990    0.7310 C   0  0  0  0  0  0  0  0  0  0  0  0
    3.3490   -0.5610    1.4690 C   0  0  1  0  0  0  0  0  0  0  0  0
    4.7740   -0.2740    0.9510 C   0  0  0  0  0  0  0  0  0  0  0  0
    4.4700    0.3240   -0.3870 C   0  0  0  0  0  0  0  0  0  0  0  0
    3.0930    0.8810   -0.2330 C   0  0  0  0  0  0  0  0  0  0  0  0
    2.6270    0.5600    1.0400 O   0  0  0  0  0  0  0  0  0  0  0  0
   -0.1710   -0.2470    0.1600 N   0  0  0  0  0  0  0  0  0  0  0  0
   -1.3980    0.3870   -0.0860 C   0  0  0  0  0  0  0  0  0  0  0  0
   -1.6110    1.5270   -0.7100 C   0  0  0  0  0  0  0  0  0  0  0  0
   -3.1740    2.3080   -1.0280 S   0  0  0  0  0  0  0  0  0  0  0  0
   -2.4790    3.6960   -2.0300 C   0  0  0  0  0  0  0  0  0  0  0  0
   -1.2170    3.1390   -2.3470 O   0  0  0  0  0  0  0  0  0  0  0  0
   -0.6590    2.4270   -1.2900 C   0  0  0  0  0  0  0  0  0  0  0  0
    0.5320    2.5900   -0.9300 O   0  0  0  0  0  0  0  0  0  0  0  0
  1  2  2  0
  2  3  1  0
  2  5  1  0
  3  4  1  0
  5  6  2  3
  6  7  1  0
  6 17  1  0
  7  8  1  0
  8  9  1  0
  8 16  2  0
  9 10  1  0
 11 10  1  6
 11 12  1  0
 11 15  1  0
 12 13  1  0
 13 14  1  0
 14 15  1  0
 16 17  1  0
 17 18  2  3
 18 19  1  0
 18 22  1  0
 19 20  1  0
 20 21  1  0
 21 22  1  0
 22 23  2  0
M  END
