
     RDKit          3D

 21 22  0  0  0  0  0  0  0  0999 V2000
   -3.1850   -0.1690    1.9330 C   0  0  0  0  0  0  0  0  0  0  0  0
   -3.1620    0.1030    0.4430 C   0  0  1  0  0  0  0  0  0  0  0  0
   -3.2100    1.4480    0.2410 O   0  0  0  0  0  0  0  0  0  0  0  0
   -2.1820    2.0020   -0.4820 C   0  0  0  0  0  0  0  0  0  0  0  0
   -0.9000    1.3960    0.0240 C   0  0  0  0  0  0  0  0  0  0  0  0
   -0.8020   -0.0140   -0.3140 N   0  0  0  0  0  0  0  0  0  0  0  0
    0.1540   -0.6970    0.5280 C   0  0  0  0  0  0  0  0  0  0  0  0
    1.5370   -0.2920    0.3590 C   0  0  0  0  0  0  0  0  0  0  0  0
    2.1200    0.1790    1.4740 C   0  0  0  0  0  0  0  0  0  0  0  0
    3.5040    0.6710    1.6490 C   0  0  0  0  0  0  0  0  0  0  0  0
    3.7570    1.3840    2.7660 F   0  0  0  0  0  0  0  0  0  0  0  0
    4.5310    0.4970    0.8410 C   0  0  0  0  0  0  0  0  0  0  0  0
    4.5700   -0.2340   -0.4480 C   0  0  0  0  0  0  0  0  0  0  0  0
    3.4710    0.2890   -1.3640 C   0  0  0  0  0  0  0  0  0  0  0  0
    2.1810   -0.3870   -0.9290 C   0  0  0  0  0  0  0  0  0  0  0  0
    1.5990   -1.1300   -1.8280 C   0  0  0  0  0  0  0  0  0  0  0  0
    0.4700   -1.8340   -1.7390 F   0  0  0  0  0  0  0  0  0  0  0  0
    2.2300   -1.2030   -3.0510 F   0  0  0  0  0  0  0  0  0  0  0  0
   -2.0940   -0.6550   -0.2830 C   0  0  1  0  0  0  0  0  0  0  0  0
   -2.0400   -2.0350    0.3210 C   0  0  0  0  0  0  0  0  0  0  0  0
   -2.5390   -0.8180   -1.7310 C   0  0  0  0  0  0  0  0  0  0  0  0
  2  1  1  1
  2  3  1  0
  2 19  1  0
  3  4  1  0
  4  5  1  0
  5  6  1  0
  6  7  1  0
  6 19  1  0
  7  8  1  0
  8  9  2  0
  8 15  1  0
  9 10  1  0
 10 11  1  0
 10 12  2  0
 12 13  1  0
 13 14  1  0
 14 15  1  0
 15 16  2  3
 16 17  1  0
 16 18  1  0
 19 20  1  1
 19 21  1  0
M  END
