
     RDKit          3D

 22 23  0  0  0  0  0  0  0  0999 V2000
   -1.5280   -4.1390    0.1070 C   0  0  0  0  0  0  0  0  0  0  0  0
   -0.9670   -2.7780    0.4870 C   0  0  0  0  0  0  0  0  0  0  0  0
   -0.9660   -1.8690   -0.6600 N   0  0  0  0  0  0  0  0  0  0  0  0
   -0.3010   -0.6710   -0.2650 C   0  0  1  0  0  0  0  0  0  0  0  0
    0.7000   -0.2120   -1.3210 C   0  0  0  0  0  0  0  0  0  0  0  0
    1.7830    0.5150   -0.7190 N   0  0  0  0  0  0  0  0  0  0  0  0
    2.6490   -0.3990   -0.0370 C   0  0  0  0  0  0  0  0  0  0  0  0
    4.1050    0.0690   -0.0780 C   0  0  0  0  0  0  0  0  0  0  0  0
    4.1920    1.3020    0.5320 O   0  0  0  0  0  0  0  0  0  0  0  0
    5.5030    1.7420    0.5050 C   0  0  0  0  0  0  0  0  0  0  0  0
    1.1450    1.7490    0.2780 S   0  0  2  0  0  0  0  0  0  0  0  0
    1.5810    3.1040   -0.1980 O   0  0  0  0  0  0  0  0  0  0  0  0
    1.6000    1.5820    1.7070 O   0  0  0  0  0  0  0  0  0  0  0  0
   -0.5880    1.6840    0.2100 C   0  0  0  0  0  0  0  0  0  0  0  0
   -1.8880    2.8180    0.4020 S   0  0  0  0  0  0  0  0  0  0  0  0
   -3.2200    1.7180    0.1350 C   0  0  0  0  0  0  0  0  0  0  0  0
   -4.9420    2.0920    0.1580 S   0  0  2  0  0  0  0  0  0  0  0  0
   -5.3050    2.7010    1.7290 N   0  0  0  0  0  0  0  0  0  0  0  0
   -5.6730    0.8360   -0.1080 O   0  0  0  0  0  0  0  0  0  0  0  0
   -5.2760    3.1660   -0.8300 O   0  0  0  0  0  0  0  0  0  0  0  0
   -2.5790    0.5100   -0.0920 C   0  0  0  0  0  0  0  0  0  0  0  0
   -1.2670    0.4710   -0.0600 C   0  0  0  0  0  0  0  0  0  0  0  0
  1  2  1  0
  2  3  1  0
  4  3  1  6
  4  5  1  0
  4 22  1  0
  5  6  1  0
  6  7  1  0
 11  6  1  6
  7  8  1  0
  8  9  1  0
  9 10  1  0
 11 12  2  0
 11 13  2  0
 11 14  1  0
 14 15  1  0
 14 22  2  0
 15 16  1  0
 16 17  1  0
 16 21  2  0
 17 18  1  1
 17 19  2  0
 17 20  2  0
 21 22  1  0
M  CHG  1   3   1
M  END
