
     RDKit          3D

 21 22  0  0  0  0  0  0  0  0999 V2000
    3.9860    1.5770   -0.8850 C   0  0  0  0  0  0  0  0  0  0  0  0
    3.9640    0.2910   -0.6120 C   0  0  0  0  0  0  0  0  0  0  0  0
    5.1730   -0.4810   -0.2690 C   0  0  0  0  0  0  0  0  0  0  0  0
    4.7400   -1.7140   -0.0710 C   0  0  0  0  0  0  0  0  0  0  0  0
    3.2990   -1.8220   -0.2620 C   0  0  0  0  0  0  0  0  0  0  0  0
    2.8400   -0.6330   -0.5820 C   0  0  0  0  0  0  0  0  0  0  0  0
    1.4410   -0.2940   -0.8770 C   0  0  0  0  0  0  0  0  0  0  0  0
    0.8640    0.6830    0.0140 N   0  0  0  0  0  0  0  0  0  0  0  0
    0.6470    0.2390    1.3430 C   0  0  0  0  0  0  0  0  0  0  0  0
   -0.8470   -0.0600    1.4700 C   0  0  2  0  0  0  0  0  0  0  0  0
   -1.3700    0.5220    2.7950 C   0  0  0  0  0  0  0  0  0  0  0  0
   -1.0080   -1.5270    1.5450 C   0  0  0  0  0  0  0  0  0  0  0  0
   -1.4980    0.6540    0.3650 C   0  0  2  0  0  0  0  0  0  0  0  0
   -2.1510    1.7950    0.8320 O   0  0  0  0  0  0  0  0  0  0  0  0
   -2.5110   -0.1400   -0.4200 C   0  0  0  0  0  0  0  0  0  0  0  0
   -3.1120    0.7150   -1.5080 C   0  0  0  0  0  0  0  0  0  0  0  0
   -4.1320   -0.0560   -2.3260 C   0  0  1  0  0  0  0  0  0  0  0  0
   -4.6230    0.8230   -3.3030 F   0  0  0  0  0  0  0  0  0  0  0  0
   -3.5890   -1.1680   -2.9330 F   0  0  0  0  0  0  0  0  0  0  0  0
   -5.1960   -0.4770   -1.5520 F   0  0  0  0  0  0  0  0  0  0  0  0
   -0.3870    1.1270   -0.5350 C   0  0  0  0  0  0  0  0  0  0  0  0
  1  2  2  0
  2  3  1  0
  2  6  1  0
  3  4  2  0
  4  5  1  0
  5  6  2  0
  6  7  1  0
  7  8  1  0
  8  9  1  0
  8 21  1  0
  9 10  1  0
 10 11  1  1
 10 12  1  0
 10 13  1  0
 13 14  1  1
 13 15  1  0
 13 21  1  0
 15 16  1  0
 16 17  1  0
 17 18  1  6
 17 19  1  0
 17 20  1  0
M  END
