
     RDKit          3D

 21 23  0  0  0  0  0  0  0  0999 V2000
   -3.9130    1.8430    1.8800 F   0  0  0  0  0  0  0  0  0  0  0  0
   -4.5380    0.9770    0.9760 C   0  0  2  0  0  0  0  0  0  0  0  0
   -5.3780    1.7450    0.2050 F   0  0  0  0  0  0  0  0  0  0  0  0
   -5.1910   -0.0020    1.6780 F   0  0  0  0  0  0  0  0  0  0  0  0
   -3.4540    0.4440    0.0750 C   0  0  2  0  0  0  0  0  0  0  0  0
   -3.9730   -0.5090   -0.9600 C   0  0  0  0  0  0  0  0  0  0  0  0
   -2.8470   -1.4310   -1.3750 C   0  0  0  0  0  0  0  0  0  0  0  0
   -1.5060   -0.7170   -1.3720 C   0  0  0  0  0  0  0  0  0  0  0  0
   -1.1250   -0.2130   -0.0150 C   0  0  1  0  0  0  0  0  0  0  0  0
    0.0230   -0.9480    0.5970 C   0  0  0  0  0  0  0  0  0  0  0  0
    1.2960   -0.2440    0.1680 C   0  0  2  0  0  0  0  0  0  0  0  0
    2.5030   -1.0360    0.6110 C   0  0  0  0  0  0  0  0  0  0  0  0
    3.7160   -0.2940    0.1620 C   0  0  0  0  0  0  0  0  0  0  0  0
    4.6270   -0.7880   -0.6600 C   0  0  0  0  0  0  0  0  0  0  0  0
    5.6840    0.2280   -0.8810 C   0  0  0  0  0  0  0  0  0  0  0  0
    5.2240    1.3710   -0.0550 C   0  0  0  0  0  0  0  0  0  0  0  0
    4.1270    1.0100    0.4950 N   0  0  0  0  0  0  0  0  0  0  0  0
    1.3360    1.1820    0.6250 C   0  0  0  0  0  0  0  0  0  0  0  0
   -0.1100    1.5830    0.9480 C   0  0  0  0  0  0  0  0  0  0  0  0
   -0.8690    1.1700   -0.1470 O   0  0  0  0  0  0  0  0  0  0  0  0
   -2.3790   -0.2960    0.8660 C   0  0  0  0  0  0  0  0  0  0  0  0
  2  1  1  1
  2  3  1  0
  2  4  1  0
  2  5  1  0
  5  6  1  6
  5 21  1  0
  6  7  1  0
  7  8  1  0
  9  8  1  6
  9 10  1  0
  9 20  1  0
  9 21  1  0
 10 11  1  0
 11 12  1  1
 11 18  1  0
 12 13  1  0
 13 14  2  0
 13 17  1  0
 14 15  1  0
 15 16  1  0
 16 17  2  0
 18 19  1  0
 19 20  1  0
M  END
