
     RDKit          3D

 21 22  0  0  0  0  0  0  0  0999 V2000
   -1.8340    3.8060   -1.1140 C   0  0  0  0  0  0  0  0  0  0  0  0
   -1.9170    2.4740   -0.9450 C   0  0  0  0  0  0  0  0  0  0  0  0
   -2.7600    1.9180    0.1470 C   0  0  0  0  0  0  0  0  0  0  0  0
   -1.9590    1.1550    1.0300 O   0  0  0  0  0  0  0  0  0  0  0  0
   -1.2380    0.0390    0.6080 C   0  0  0  0  0  0  0  0  0  0  0  0
   -1.8280   -1.1660    0.5450 C   0  0  0  0  0  0  0  0  0  0  0  0
   -3.2270   -1.3160    0.9210 C   0  0  0  0  0  0  0  0  0  0  0  0
   -3.8130   -2.4860    0.8620 C   0  0  0  0  0  0  0  0  0  0  0  0
   -3.0840   -3.6780    0.4190 C   0  0  1  0  0  0  0  0  0  0  0  0
   -2.6470   -3.4630   -0.8850 F   0  0  0  0  0  0  0  0  0  0  0  0
   -1.9880   -3.9270    1.2420 F   0  0  0  0  0  0  0  0  0  0  0  0
   -3.9100   -4.7930    0.4180 F   0  0  0  0  0  0  0  0  0  0  0  0
    0.1560    0.1620    0.2300 C   0  0  0  0  0  0  0  0  0  0  0  0
    0.8520    1.2820    0.2490 C   0  0  0  0  0  0  0  0  0  0  0  0
    2.2460    1.0180   -0.2050 C   0  0  1  0  0  0  0  0  0  0  0  0
    3.2090    1.3280    0.8790 C   0  0  0  0  0  0  0  0  0  0  0  0
    4.3810    0.7250    0.8210 C   0  0  0  0  0  0  0  0  0  0  0  0
    4.6120   -0.1960   -0.3160 C   0  0  0  0  0  0  0  0  0  0  0  0
    3.3710   -1.1000   -0.3230 C   0  0  0  0  0  0  0  0  0  0  0  0
    2.2480   -0.3120   -0.6870 N   0  0  0  0  0  0  0  0  0  0  0  0
    1.0160   -0.9410   -0.2340 C   0  0  0  0  0  0  0  0  0  0  0  0
  1  2  2  0
  2  3  1  0
  3  4  1  0
  4  5  1  0
  5  6  2  3
  5 13  1  0
  6  7  1  0
  7  8  2  3
  8  9  1  0
  9 10  1  6
  9 11  1  0
  9 12  1  0
 13 14  2  0
 13 21  1  0
 15 14  1  1
 15 16  1  0
 15 20  1  0
 16 17  2  0
 17 18  1  0
 18 19  1  0
 19 20  1  0
 20 21  1  0
M  END
