
     RDKit          3D

 21 22  0  0  0  0  0  0  0  0999 V2000
    3.5280   -1.4670   -1.6240 C   0  0  0  0  0  0  0  0  0  0  0  0
    3.8620   -0.2760   -1.1790 C   0  0  0  0  0  0  0  0  0  0  0  0
    3.1950    0.4170   -0.1120 C   0  0  0  0  0  0  0  0  0  0  0  0
    3.6990    1.6270    0.2270 C   0  0  0  0  0  0  0  0  0  0  0  0
    4.8670    2.2220   -0.4480 C   0  0  2  0  0  0  0  0  0  0  0  0
    5.1740    3.4590    0.1300 F   0  0  0  0  0  0  0  0  0  0  0  0
    4.5210    2.4570   -1.7680 F   0  0  0  0  0  0  0  0  0  0  0  0
    6.0220    1.4760   -0.3200 F   0  0  0  0  0  0  0  0  0  0  0  0
    2.0400   -0.0280    0.6680 C   0  0  0  0  0  0  0  0  0  0  0  0
    0.7610   -0.2020   -0.1120 C   0  0  0  0  0  0  0  0  0  0  0  0
   -0.2500   -0.6350    0.7870 N   0  0  0  0  0  0  0  0  0  0  0  0
   -0.0110   -1.9500    1.2550 C   0  0  0  0  0  0  0  0  0  0  0  0
   -1.1740   -2.7350    0.6630 C   0  0  0  0  0  0  0  0  0  0  0  0
   -2.2960   -1.7200    0.8480 C   0  0  0  0  0  0  0  0  0  0  0  0
   -1.5960   -0.4310    0.4300 C   0  0  1  0  0  0  0  0  0  0  0  0
   -2.1100    0.7430    1.2540 C   0  0  0  0  0  0  0  0  0  0  0  0
   -2.3330    1.9740    0.3790 C   0  0  0  0  0  0  0  0  0  0  0  0
   -3.5530    1.6580   -0.4570 C   0  0  0  0  0  0  0  0  0  0  0  0
   -3.2670    0.4110   -1.2260 C   0  0  2  0  0  0  0  0  0  0  0  0
   -4.3140   -0.4690   -1.0410 O   0  0  0  0  0  0  0  0  0  0  0  0
   -1.9040   -0.1820   -0.9880 C   0  0  0  0  0  0  0  0  0  0  0  0
  1  2  2  0
  2  3  1  0
  3  4  2  3
  3  9  1  0
  4  5  1  0
  5  6  1  1
  5  7  1  0
  5  8  1  0
  9 10  1  0
 10 11  1  0
 11 12  1  0
 11 15  1  0
 12 13  1  0
 13 14  1  0
 15 14  1  1
 15 16  1  0
 15 21  1  0
 16 17  1  0
 17 18  1  0
 18 19  1  0
 19 20  1  1
 19 21  1  0
M  END
