
     RDKit          3D

 21 22  0  0  0  0  0  0  0  0999 V2000
   -3.3390    2.0890    0.7670 C   0  0  0  0  0  0  0  0  0  0  0  0
   -2.7600    0.7280    0.4600 C   0  0  0  0  0  0  0  0  0  0  0  0
   -3.5880   -0.2800    0.4110 C   0  0  0  0  0  0  0  0  0  0  0  0
   -5.0690   -0.0360    0.6660 C   0  0  1  0  0  0  0  0  0  0  0  0
   -5.5230    1.0490   -0.0410 F   0  0  0  0  0  0  0  0  0  0  0  0
   -5.8190   -1.1370    0.2740 F   0  0  0  0  0  0  0  0  0  0  0  0
   -5.3290    0.1490    2.0020 F   0  0  0  0  0  0  0  0  0  0  0  0
   -1.3400    0.6760    0.2700 C   0  0  0  0  0  0  0  0  0  0  0  0
   -0.6550   -0.6320    0.0220 C   0  0  1  0  0  0  0  0  0  0  0  0
   -0.8110   -1.6090    1.1330 C   0  0  0  0  0  0  0  0  0  0  0  0
   -1.2920   -1.2700   -1.2300 C   0  0  0  0  0  0  0  0  0  0  0  0
   -0.1790   -1.3770   -2.2500 C   0  0  0  0  0  0  0  0  0  0  0  0
    0.6820   -0.1900   -1.8370 C   0  0  0  0  0  0  0  0  0  0  0  0
    0.6660   -0.3250   -0.3930 N   0  0  0  0  0  0  0  0  0  0  0  0
    1.7670   -1.0120    0.1240 C   0  0  0  0  0  0  0  0  0  0  0  0
    3.0070   -0.1680   -0.0110 C   0  0  0  0  0  0  0  0  0  0  0  0
    2.9330    1.0500   -0.5020 C   0  0  0  0  0  0  0  0  0  0  0  0
    4.1430    1.8680   -0.6330 C   0  0  0  0  0  0  0  0  0  0  0  0
    5.3090    1.3860   -0.2580 C   0  0  0  0  0  0  0  0  0  0  0  0
    5.4070    0.0310    0.2940 C   0  0  0  0  0  0  0  0  0  0  0  0
    4.2210   -0.6700    0.3800 O   0  0  0  0  0  0  0  0  0  0  0  0
  1  2  1  0
  2  3  2  3
  2  8  1  0
  3  4  1  0
  4  5  1  6
  4  6  1  0
  4  7  1  0
  8  9  1  0
  9 10  1  1
  9 11  1  0
  9 14  1  0
 11 12  1  0
 12 13  1  0
 13 14  1  0
 14 15  1  0
 15 16  1  0
 16 17  2  0
 16 21  1  0
 17 18  1  0
 18 19  2  0
 19 20  1  0
 20 21  1  0
M  END
