
     RDKit          3D

 24 26  0  0  0  0  0  0  0  0999 V2000
   -1.7160   -1.4280   -0.2840 O   0  0  0  0  0  0  0  0  0  0  0  0
   -2.1440   -0.3710   -0.8460 C   0  0  0  0  0  0  0  0  0  0  0  0
   -1.2010    0.3160   -1.6580 N   0  0  0  0  0  0  0  0  0  0  0  0
    0.4080   -0.2740   -1.8430 S   0  0  2  0  0  0  0  0  0  0  0  0
    1.0600    0.4820   -2.9570 O   0  0  0  0  0  0  0  0  0  0  0  0
    0.3670   -1.7160   -2.2520 O   0  0  0  0  0  0  0  0  0  0  0  0
    1.3530   -0.0520   -0.3650 C   0  0  0  0  0  0  0  0  0  0  0  0
    1.4010   -0.9510    0.5930 C   0  0  0  0  0  0  0  0  0  0  0  0
    2.4170   -0.5080    1.9840 S   0  0  0  0  0  0  0  0  0  0  0  0
    3.4150    0.8440    1.2980 C   0  0  1  0  0  0  0  0  0  0  0  0
    4.7220    0.3490    0.7940 C   0  0  0  0  0  0  0  0  0  0  0  0
    5.9560    0.7950    1.2160 C   0  0  0  0  0  0  0  0  0  0  0  0
    6.9310    0.1090    0.5290 C   0  0  0  0  0  0  0  0  0  0  0  0
    6.2450   -0.7470   -0.3040 C   0  0  0  0  0  0  0  0  0  0  0  0
    4.9600   -0.5670   -0.1100 O   0  0  0  0  0  0  0  0  0  0  0  0
    2.3180    1.3990   -0.0340 S   0  0  0  0  0  0  0  0  0  0  0  0
   -3.5220    0.0770   -0.6500 C   0  0  0  0  0  0  0  0  0  0  0  0
   -4.0020    1.2160   -1.2490 C   0  0  0  0  0  0  0  0  0  0  0  0
   -5.3170    1.5640   -1.0070 C   0  0  0  0  0  0  0  0  0  0  0  0
   -6.1330    0.8440   -0.2210 N   0  0  0  0  0  0  0  0  0  0  0  0
   -5.6920   -0.2730    0.3780 C   0  0  0  0  0  0  0  0  0  0  0  0
   -6.5160   -1.0330    1.1940 O   0  0  0  0  0  0  0  0  0  0  0  0
   -4.3850   -0.6470    0.1560 C   0  0  0  0  0  0  0  0  0  0  0  0
   -3.8950   -1.7900    0.7540 O   0  0  0  0  0  0  0  0  0  0  0  0
  1  2  2  0
  2  3  1  0
  2 17  1  0
  4  3  1  1
  4  5  2  0
  4  6  2  0
  4  7  1  0
  7  8  2  0
  7 16  1  0
  8  9  1  0
  9 10  1  0
 10 11  1  6
 10 16  1  0
 11 12  2  0
 11 15  1  0
 12 13  1  0
 13 14  2  0
 14 15  1  0
 17 18  2  0
 17 23  1  0
 18 19  1  0
 19 20  2  0
 20 21  1  0
 21 22  1  0
 21 23  2  0
 23 24  1  0
M  END
