
     RDKit          3D

 24 26  0  0  0  0  0  0  0  0999 V2000
   -5.9180    2.7050    2.1510 C   0  0  0  0  0  0  0  0  0  0  0  0
   -5.6950    1.7150    1.3060 C   0  0  0  0  0  0  0  0  0  0  0  0
   -4.3660    1.1840    1.1630 C   0  0  0  0  0  0  0  0  0  0  0  0
   -4.1440    0.1920    0.3170 C   0  0  0  0  0  0  0  0  0  0  0  0
   -2.8380   -0.3440    0.1630 N   0  0  0  0  0  0  0  0  0  0  0  0
   -2.4970   -1.3300   -0.6480 N   0  0  0  0  0  0  0  0  0  0  0  0
   -1.2140   -1.5920   -0.5580 N   0  0  0  0  0  0  0  0  0  0  0  0
   -0.7080   -0.7390    0.3490 C   0  0  0  0  0  0  0  0  0  0  0  0
    0.7010   -0.7210    0.7260 C   0  0  0  0  0  0  0  0  0  0  0  0
    1.0680    0.1150    1.5820 O   0  0  0  0  0  0  0  0  0  0  0  0
    1.6640   -1.5910    0.1800 N   0  0  0  0  0  0  0  0  0  0  0  0
    3.0480   -1.6710    0.4540 C   0  0  0  0  0  0  0  0  0  0  0  0
    3.8780   -0.4570    0.1440 C   0  0  1  0  0  0  0  0  0  0  0  0
    3.4540    0.6380    0.8730 O   0  0  0  0  0  0  0  0  0  0  0  0
    5.3010   -0.7940    0.5570 C   0  0  0  0  0  0  0  0  0  0  0  0
    6.2360    0.3700    0.3260 C   0  0  0  0  0  0  0  0  0  0  0  0
    5.7350    1.2880   -0.7650 C   0  0  0  0  0  0  0  0  0  0  0  0
    5.1410    0.3870   -1.8510 C   0  0  0  0  0  0  0  0  0  0  0  0
    3.8080   -0.1020   -1.3280 C   0  0  0  0  0  0  0  0  0  0  0  0
   -1.7250    0.0070    0.7670 N   0  0  0  0  0  0  0  0  0  0  0  0
   -5.2690   -0.3470   -0.4620 C   0  0  0  0  0  0  0  0  0  0  0  0
   -5.0070   -1.4760   -1.4240 C   0  0  0  0  0  0  0  0  0  0  0  0
   -6.4850    0.1170   -0.3510 C   0  0  0  0  0  0  0  0  0  0  0  0
   -6.8400    1.2040    0.5480 C   0  0  0  0  0  0  0  0  0  0  0  0
  1  2  2  0
  2  3  1  0
  2 24  1  0
  3  4  2  0
  4  5  1  0
  4 21  1  0
  5  6  1  0
  5 20  1  0
  6  7  2  0
  7  8  1  0
  8  9  1  0
  8 20  2  0
  9 10  2  0
  9 11  1  0
 11 12  1  0
 12 13  1  0
 13 14  1  1
 13 15  1  0
 13 19  1  0
 15 16  1  0
 16 17  1  0
 17 18  1  0
 18 19  1  0
 21 22  1  0
 21 23  2  0
 23 24  1  0
M  END
