
     RDKit          3D

 24 26  0  0  0  0  0  0  0  0999 V2000
   -5.3510    1.5140   -1.3300 C   0  0  0  0  0  0  0  0  0  0  0  0
   -5.0910    0.1120   -1.0990 N   0  0  0  0  0  0  0  0  0  0  0  0
   -4.5240   -0.3910   -0.0060 C   0  0  0  0  0  0  0  0  0  0  0  0
   -4.0510    0.3540    1.1730 C   0  0  0  0  0  0  0  0  0  0  0  0
   -2.6650    0.7460    1.0080 N   0  0  0  0  0  0  0  0  0  0  0  0
   -1.6340   -0.2390    0.8260 C   0  0  0  0  0  0  0  0  0  0  0  0
   -1.9850   -1.4250    0.8180 O   0  0  0  0  0  0  0  0  0  0  0  0
   -0.2590    0.1440    0.6620 N   0  0  0  0  0  0  0  0  0  0  0  0
    0.8060   -0.7530    0.4770 C   0  0  0  0  0  0  0  0  0  0  0  0
    2.0350   -0.2710    0.3610 C   0  0  0  0  0  0  0  0  0  0  0  0
    1.9660    1.1780    0.4890 C   0  0  0  0  0  0  0  0  0  0  0  0
    2.5990    2.2300   -0.0050 C   0  0  0  0  0  0  0  0  0  0  0  0
    3.7290    2.2940   -0.9690 C   0  0  0  0  0  0  0  0  0  0  0  0
    5.0350    1.9070   -0.3730 C   0  0  0  0  0  0  0  0  0  0  0  0
    5.0640    0.6740    0.4180 C   0  0  0  0  0  0  0  0  0  0  0  0
    4.4390   -0.4710    0.6250 C   0  0  0  0  0  0  0  0  0  0  0  0
    3.2430   -1.0920    0.0460 C   0  0  1  0  0  0  0  0  0  0  0  0
    3.0820   -2.5410    0.2570 C   0  0  0  0  0  0  0  0  0  0  0  0
    1.6990   -2.9910    0.3750 C   0  0  0  0  0  0  0  0  0  0  0  0
    0.6480   -2.1790    0.4790 C   0  0  0  0  0  0  0  0  0  0  0  0
   -4.4560   -1.7110   -0.1650 N   0  0  0  0  0  0  0  0  0  0  0  0
   -4.9680   -2.0420   -1.3330 N   0  0  0  0  0  0  0  0  0  0  0  0
   -5.3660   -0.9050   -1.9190 C   0  0  0  0  0  0  0  0  0  0  0  0
   -5.9040   -0.8310   -3.0500 O   0  0  0  0  0  0  0  0  0  0  0  0
  1  2  1  0
  2  3  1  0
  2 23  1  0
  3  4  1  0
  3 21  2  0
  4  5  1  0
  5  6  1  0
  6  7  2  0
  6  8  1  0
  8  9  1  0
  9 10  2  0
  9 20  1  0
 10 11  1  0
 10 17  1  0
 11 12  2  0
 12 13  1  0
 13 14  1  0
 14 15  1  0
 15 16  2  0
 16 17  1  0
 17 18  1  1
 18 19  1  0
 19 20  2  0
 21 22  1  0
 22 23  1  0
 23 24  2  0
M  END
