
     RDKit          3D

 23 25  0  0  0  0  0  0  0  0999 V2000
   -1.8710   -2.6310    0.0330 C   0  0  0  0  0  0  0  0  0  0  0  0
   -0.4020   -2.3780   -0.0890 C   0  0  0  0  0  0  0  0  0  0  0  0
    0.5450   -3.3070   -0.3010 C   0  0  0  0  0  0  0  0  0  0  0  0
    1.8590   -2.6850   -0.3620 C   0  0  0  0  0  0  0  0  0  0  0  0
    1.7670   -1.3860   -0.1940 C   0  0  0  0  0  0  0  0  0  0  0  0
    2.8000   -0.3590   -0.1760 C   0  0  0  0  0  0  0  0  0  0  0  0
    4.1190   -0.7420   -0.3600 C   0  0  0  0  0  0  0  0  0  0  0  0
    5.1540    0.1480   -0.3590 C   0  0  0  0  0  0  0  0  0  0  0  0
    6.3520   -0.2440   -0.5320 O   0  0  0  0  0  0  0  0  0  0  0  0
    4.8610    1.4460   -0.1700 N   0  0  0  0  0  0  0  0  0  0  0  0
    3.5630    1.8230    0.0110 C   0  0  0  0  0  0  0  0  0  0  0  0
    3.3500    3.2150    0.2030 N   0  0  0  0  0  0  0  0  0  0  0  0
    2.5550    0.9290    0.0070 N   0  0  0  0  0  0  0  0  0  0  0  0
    0.3180   -1.1140   -0.0100 C   0  0  0  0  0  0  0  0  0  0  0  0
   -0.1650    0.0490    0.1830 N   0  0  0  0  0  0  0  0  0  0  0  0
   -1.5240    0.3770    0.3650 C   0  0  0  0  0  0  0  0  0  0  0  0
   -2.2080    0.1150    1.5490 C   0  0  0  0  0  0  0  0  0  0  0  0
   -3.5170    0.4460    1.7070 C   0  0  0  0  0  0  0  0  0  0  0  0
   -4.1770    1.0490    0.6770 C   0  0  0  0  0  0  0  0  0  0  0  0
   -3.5700    1.3250   -0.4830 N   0  0  0  0  0  0  0  0  0  0  0  0
   -4.3170    1.9770   -1.5680 C   0  0  0  0  0  0  0  0  0  0  0  0
   -2.2820    0.9950   -0.6250 C   0  0  0  0  0  0  0  0  0  0  0  0
   -1.7220    1.2570   -1.7170 O   0  0  0  0  0  0  0  0  0  0  0  0
  1  2  1  0
  2  3  2  0
  2 14  1  0
  3  4  1  0
  4  5  2  0
  5  6  1  0
  5 14  1  0
  6  7  2  0
  6 13  1  0
  7  8  1  0
  8  9  2  0
  8 10  1  0
 10 11  1  0
 11 12  1  0
 11 13  2  0
 14 15  2  3
 15 16  1  0
 16 17  2  0
 16 22  1  0
 17 18  1  0
 18 19  2  0
 19 20  1  0
 20 21  1  0
 20 22  1  0
 22 23  2  0
M  END
