
     RDKit          3D

 24 26  0  0  0  0  0  0  0  0999 V2000
    6.4950    0.8920   -0.4810 C   0  0  0  0  0  0  0  0  0  0  0  0
    5.0640    0.7100   -0.0720 C   0  0  0  0  0  0  0  0  0  0  0  0
    4.5080    1.1050    1.1180 C   0  0  0  0  0  0  0  0  0  0  0  0
    3.1700    0.7510    1.0950 C   0  0  0  0  0  0  0  0  0  0  0  0
    2.2180    1.0050    2.1980 C   0  0  0  0  0  0  0  0  0  0  0  0
    2.9400    0.1600   -0.0800 N   0  0  0  0  0  0  0  0  0  0  0  0
    1.6950   -0.3550   -0.5120 C   0  0  0  0  0  0  0  0  0  0  0  0
    0.5670    0.4380   -0.4250 C   0  0  0  0  0  0  0  0  0  0  0  0
   -0.6690   -0.0600   -0.8480 C   0  0  0  0  0  0  0  0  0  0  0  0
   -1.8200    0.7580   -0.8010 N   0  0  0  0  0  0  0  0  0  0  0  0
   -3.0830    0.2780   -0.3840 C   0  0  0  0  0  0  0  0  0  0  0  0
   -3.2640   -0.9380    0.2330 C   0  0  0  0  0  0  0  0  0  0  0  0
   -4.5050   -1.2780    0.6200 N   0  0  0  0  0  0  0  0  0  0  0  0
   -5.5660   -0.4760    0.4270 C   0  0  0  0  0  0  0  0  0  0  0  0
   -6.7310   -0.8150    0.8000 O   0  0  0  0  0  0  0  0  0  0  0  0
   -5.4120    0.7220   -0.1750 N   0  0  0  0  0  0  0  0  0  0  0  0
   -6.5380    1.6270   -0.4050 C   0  0  0  0  0  0  0  0  0  0  0  0
   -4.1920    1.0990   -0.5770 C   0  0  0  0  0  0  0  0  0  0  0  0
   -4.0510    2.2390   -1.1490 O   0  0  0  0  0  0  0  0  0  0  0  0
   -0.7320   -1.3320   -1.3450 C   0  0  0  0  0  0  0  0  0  0  0  0
    0.4280   -2.1180   -1.4230 C   0  0  0  0  0  0  0  0  0  0  0  0
    1.6520   -1.6400   -1.0090 C   0  0  0  0  0  0  0  0  0  0  0  0
    2.8520   -2.5010   -1.1080 C   0  0  0  0  0  0  0  0  0  0  0  0
    4.0740    0.1390   -0.7710 N   0  0  0  0  0  0  0  0  0  0  0  0
  1  2  1  0
  2  3  1  0
  2 24  2  0
  3  4  2  0
  4  5  1  0
  4  6  1  0
  6  7  1  0
  6 24  1  0
  7  8  2  0
  7 22  1  0
  8  9  1  0
  9 10  1  0
  9 20  2  0
 10 11  1  0
 11 12  2  0
 11 18  1  0
 12 13  1  0
 13 14  1  0
 14 15  2  0
 14 16  1  0
 16 17  1  0
 16 18  1  0
 18 19  2  0
 20 21  1  0
 21 22  2  0
 22 23  1  0
M  END
