
     RDKit          3D

 24 26  0  0  0  0  0  0  0  0999 V2000
   -1.5050    2.5180   -1.2830 C   0  0  0  0  0  0  0  0  0  0  0  0
   -1.9180    1.2530   -0.6130 C   0  0  0  0  0  0  0  0  0  0  0  0
   -3.2460    0.9700   -0.4530 C   0  0  0  0  0  0  0  0  0  0  0  0
   -3.5630   -0.2200    0.1760 C   0  0  0  0  0  0  0  0  0  0  0  0
   -4.9910   -0.5840    0.3810 C   0  0  1  0  0  0  0  0  0  0  0  0
   -5.6880    0.4180    1.2750 C   0  0  0  0  0  0  0  0  0  0  0  0
   -5.7560   -0.6170   -0.9260 C   0  0  0  0  0  0  0  0  0  0  0  0
   -2.6150   -1.0290    0.5940 N   0  0  0  0  0  0  0  0  0  0  0  0
   -1.2740   -0.7580    0.4400 C   0  0  0  0  0  0  0  0  0  0  0  0
   -0.3090   -1.6640    0.9080 N   0  0  0  0  0  0  0  0  0  0  0  0
    1.0700   -1.5070    0.8140 C   0  0  0  0  0  0  0  0  0  0  0  0
    1.8980   -2.5190    1.3380 C   0  0  0  0  0  0  0  0  0  0  0  0
    3.2650   -2.4440    1.2870 C   0  0  0  0  0  0  0  0  0  0  0  0
    3.8970   -1.3800    0.7220 C   0  0  0  0  0  0  0  0  0  0  0  0
    5.2460   -1.2690    0.6520 N   0  0  0  0  0  0  0  0  0  0  0  0
    5.8700   -0.2090    0.0890 C   0  0  0  0  0  0  0  0  0  0  0  0
    7.1320   -0.1810    0.0640 O   0  0  0  0  0  0  0  0  0  0  0  0
    5.1220    0.7820   -0.4250 N   0  0  0  0  0  0  0  0  0  0  0  0
    5.7900    1.9160   -1.0270 C   0  0  0  0  0  0  0  0  0  0  0  0
    3.7930    0.7060   -0.3730 C   0  0  0  0  0  0  0  0  0  0  0  0
    3.0860    1.6260   -0.8500 O   0  0  0  0  0  0  0  0  0  0  0  0
    3.1250   -0.3700    0.1980 C   0  0  0  0  0  0  0  0  0  0  0  0
    1.7520   -0.4540    0.2540 C   0  0  0  0  0  0  0  0  0  0  0  0
   -1.0040    0.4010   -0.1730 N   0  0  0  0  0  0  0  0  0  0  0  0
  1  2  1  0
  2  3  2  0
  2 24  1  0
  3  4  1  0
  4  5  1  0
  4  8  2  0
  5  6  1  1
  5  7  1  0
  8  9  1  0
  9 10  1  0
  9 24  2  0
 10 11  1  0
 11 12  2  0
 11 23  1  0
 12 13  1  0
 13 14  2  0
 14 15  1  0
 14 22  1  0
 15 16  1  0
 16 17  2  0
 16 18  1  0
 18 19  1  0
 18 20  1  0
 20 21  2  0
 20 22  1  0
 22 23  2  0
M  END
