
     RDKit          3D

 22 24  0  0  0  0  0  0  0  0999 V2000
   -4.7650    2.5470   -1.1040 N   0  0  0  0  0  0  0  0  0  0  0  0
   -3.5100    1.9500   -0.8520 C   0  0  0  0  0  0  0  0  0  0  0  0
   -2.0370    2.1720   -1.9400 S   0  0  0  0  0  0  0  0  0  0  0  0
   -0.9880    1.1690   -0.9770 C   0  0  0  0  0  0  0  0  0  0  0  0
    0.4050    0.9290   -1.3180 C   0  0  0  0  0  0  0  0  0  0  0  0
    0.8620    1.4350   -2.4160 O   0  0  0  0  0  0  0  0  0  0  0  0
    1.3380    0.1880   -0.5620 N   0  0  0  0  0  0  0  0  0  0  0  0
    2.6840   -0.0120   -0.9890 C   0  0  0  0  0  0  0  0  0  0  0  0
    3.0300    0.4930   -2.0730 O   0  0  0  0  0  0  0  0  0  0  0  0
    3.6420   -0.7990   -0.1660 C   0  0  0  0  0  0  0  0  0  0  0  0
    3.3870   -1.3650    0.9720 C   0  0  0  0  0  0  0  0  0  0  0  0
    4.7170   -2.2370    1.7280 S   0  0  0  0  0  0  0  0  0  0  0  0
    5.9000   -2.3800    0.3340 C   0  0  0  0  0  0  0  0  0  0  0  0
    5.3200   -1.0410   -0.7090 S   0  0  0  0  0  0  0  0  0  0  0  0
   -1.7750    0.7110    0.1060 C   0  0  0  0  0  0  0  0  0  0  0  0
   -3.0260    1.1150    0.1490 C   0  0  0  0  0  0  0  0  0  0  0  0
   -3.7880    0.6250    1.3570 C   0  0  0  0  0  0  0  0  0  0  0  0
   -4.7750    1.0770    1.9310 O   0  0  0  0  0  0  0  0  0  0  0  0
   -2.9230   -0.8070    1.8030 S   0  0  2  0  0  0  0  0  0  0  0  0
   -3.4190   -1.9860    1.0340 O   0  0  0  0  0  0  0  0  0  0  0  0
   -2.9260   -1.0460    3.2810 O   0  0  0  0  0  0  0  0  0  0  0  0
   -1.3430   -0.2510    1.2240 C   0  0  0  0  0  0  0  0  0  0  0  0
  1  2  1  0
  2  3  1  0
  2 16  2  0
  3  4  1  0
  4  5  1  0
  4 15  2  0
  5  6  2  0
  5  7  1  0
  7  8  1  0
  8  9  2  0
  8 10  1  0
 10 11  2  0
 10 14  1  0
 11 12  1  0
 12 13  1  0
 13 14  1  0
 15 16  1  0
 15 22  1  0
 16 17  1  0
 17 18  2  0
 17 19  1  0
 19 20  2  0
 19 21  2  0
 19 22  1  6
M  END
