
     RDKit          3D

 22 24  0  0  0  0  0  0  0  0999 V2000
   -4.2930   -1.4630    0.6180 C   0  0  0  0  0  0  0  0  0  0  0  0
   -2.9590   -1.4370    0.4670 C   0  0  0  0  0  0  0  0  0  0  0  0
   -2.2380   -2.6370    0.3530 N   0  0  0  0  0  0  0  0  0  0  0  0
   -0.6020   -2.1440    0.1520 S   0  0  1  0  0  0  0  0  0  0  0  0
    0.1540   -2.6790    1.3270 O   0  0  0  0  0  0  0  0  0  0  0  0
   -0.0620   -2.6080   -1.1700 O   0  0  0  0  0  0  0  0  0  0  0  0
   -0.8680   -0.4200    0.2230 C   0  0  0  0  0  0  0  0  0  0  0  0
    0.1090    0.6500    0.0840 C   0  0  0  0  0  0  0  0  0  0  0  0
    1.3800    0.3670   -0.0650 C   0  0  0  0  0  0  0  0  0  0  0  0
    2.0840   -1.3020   -0.1160 S   0  0  0  0  0  0  0  0  0  0  0  0
    3.7850   -0.6760   -0.3360 C   0  0  0  0  0  0  0  0  0  0  0  0
    5.4570   -1.2500   -0.5280 S   0  0  0  0  0  0  0  0  0  0  0  0
    6.1550    0.3460   -0.6450 C   0  0  0  0  0  0  0  0  0  0  0  0
    5.0660    1.1790   -0.5300 C   0  0  0  0  0  0  0  0  0  0  0  0
    3.8290    0.6250   -0.3680 C   0  0  0  0  0  0  0  0  0  0  0  0
    2.4880    1.2620   -0.2180 C   0  0  0  0  0  0  0  0  0  0  0  0
    2.2440    2.5390   -0.2150 O   0  0  0  0  0  0  0  0  0  0  0  0
   -2.1540   -0.2340    0.3920 C   0  0  0  0  0  0  0  0  0  0  0  0
   -2.8730    1.3940    0.5480 S   0  0  2  0  0  0  0  0  0  0  0  0
   -3.3140    2.0070   -0.9800 N   0  0  0  0  0  0  0  0  0  0  0  0
   -1.9100    2.3220    1.2420 O   0  0  0  0  0  0  0  0  0  0  0  0
   -4.1270    1.3400    1.4090 O   0  0  0  0  0  0  0  0  0  0  0  0
  1  2  2  0
  2  3  1  0
  2 18  1  0
  4  3  1  1
  4  5  2  0
  4  6  2  0
  4  7  1  0
  7  8  1  0
  7 18  2  0
  8  9  2  3
  9 10  1  0
  9 16  1  0
 10 11  1  0
 11 12  1  0
 11 15  2  0
 12 13  1  0
 13 14  2  0
 14 15  1  0
 15 16  1  0
 16 17  2  0
 18 19  1  0
 19 20  1  6
 19 21  2  0
 19 22  2  0
M  END
