
     RDKit          3D

 22 24  0  0  0  0  0  0  0  0999 V2000
   -3.5800    2.4920    2.2610 O   0  0  0  0  0  0  0  0  0  0  0  0
   -2.6720    2.0700    1.5530 C   0  0  0  0  0  0  0  0  0  0  0  0
   -2.4710    0.6780    1.2870 N   0  0  0  0  0  0  0  0  0  0  0  0
   -1.4660    0.0940    0.5130 C   0  0  0  0  0  0  0  0  0  0  0  0
   -1.4540   -1.2080    0.3310 C   0  0  0  0  0  0  0  0  0  0  0  0
   -2.3830   -2.1950    0.8540 C   0  0  0  0  0  0  0  0  0  0  0  0
   -3.4090   -1.8270    1.6260 O   0  0  0  0  0  0  0  0  0  0  0  0
   -0.4280    0.9400   -0.1600 C   0  0  0  0  0  0  0  0  0  0  0  0
   -0.4050    2.2550   -0.0810 C   0  0  0  0  0  0  0  0  0  0  0  0
   -1.5590    3.2300    0.8240 S   0  0  0  0  0  0  0  0  0  0  0  0
    0.8860    2.8450   -1.1320 S   0  0  2  0  0  0  0  0  0  0  0  0
    2.1420    3.0340   -0.3750 O   0  0  0  0  0  0  0  0  0  0  0  0
    0.4700    3.9650   -1.9950 O   0  0  0  0  0  0  0  0  0  0  0  0
    0.9790    1.2800   -2.0960 C   0  0  0  0  0  0  0  0  0  0  0  0
    0.7520    0.4230   -0.8550 C   0  0  0  0  0  0  0  0  0  0  0  0
    1.6110   -0.5020   -0.5060 C   0  0  0  0  0  0  0  0  0  0  0  0
    1.6720   -1.5090    1.0090 S   0  0  0  0  0  0  0  0  0  0  0  0
    3.4790   -1.7150    0.9380 C   0  0  0  0  0  0  0  0  0  0  0  0
    4.4750   -1.9260    2.1930 S   0  0  0  0  0  0  0  0  0  0  0  0
    3.7350   -1.6400   -0.4540 N   0  0  0  0  0  0  0  0  0  0  0  0
    2.7710   -1.0110   -1.2260 C   0  0  0  0  0  0  0  0  0  0  0  0
    2.8820   -0.8800   -2.5020 O   0  0  0  0  0  0  0  0  0  0  0  0
  1  2  2  0
  2  3  1  0
  2 10  1  0
  3  4  1  0
  4  5  2  3
  4  8  1  0
  5  6  1  0
  6  7  1  0
  8  9  2  0
  8 15  1  0
  9 10  1  0
  9 11  1  0
 11 12  2  0
 11 13  2  0
 11 14  1  6
 14 15  1  0
 15 16  2  3
 16 17  1  0
 16 21  1  0
 17 18  1  0
 18 19  2  0
 18 20  1  0
 20 21  1  0
 21 22  2  0
M  END
