
     RDKit          3D

 22 24  0  0  0  0  0  0  0  0999 V2000
    5.3220    1.4420    0.7760 C   0  0  0  0  0  0  0  0  0  0  0  0
    4.2450    1.2030   -0.0850 O   0  0  0  0  0  0  0  0  0  0  0  0
    3.5920   -0.0120   -0.1940 C   0  0  0  0  0  0  0  0  0  0  0  0
    4.0110   -0.9450    0.5360 O   0  0  0  0  0  0  0  0  0  0  0  0
    2.5000   -0.2010   -1.0870 N   0  0  0  0  0  0  0  0  0  0  0  0
    2.1190    0.9440   -1.8650 C   0  0  0  0  0  0  0  0  0  0  0  0
    1.0610    1.7060   -1.1110 C   0  0  0  0  0  0  0  0  0  0  0  0
   -0.1440    0.9440   -0.9270 N   0  0  0  0  0  0  0  0  0  0  0  0
   -0.3870   -0.4340   -0.6940 C   0  0  0  0  0  0  0  0  0  0  0  0
   -2.0370   -0.8390   -0.2410 S   0  0  2  0  0  0  0  0  0  0  0  0
   -3.1420    0.5620   -0.1470 C   0  0  2  0  0  0  0  0  0  0  0  0
   -2.6650    1.6790    1.2040 S   0  0  0  0  0  0  0  0  0  0  0  0
   -3.9920    1.5010    2.4390 C   0  0  0  0  0  0  0  0  0  0  0  0
   -4.5910    0.1340    2.1840 C   0  0  0  0  0  0  0  0  0  0  0  0
   -4.7250   -0.0280    0.4190 S   0  0  1  0  0  0  0  0  0  0  0  0
   -5.8490    0.7790   -0.1160 O   0  0  0  0  0  0  0  0  0  0  0  0
   -4.8540   -1.4970    0.0780 O   0  0  0  0  0  0  0  0  0  0  0  0
    0.4490   -1.4510   -0.7700 C   0  0  0  0  0  0  0  0  0  0  0  0
   -0.1560   -2.7300   -0.4620 C   0  0  0  0  0  0  0  0  0  0  0  0
    0.6470   -3.8950   -0.5110 N   0  0  0  0  0  0  0  0  0  0  0  0
   -1.3650   -2.8210   -0.1560 O   0  0  0  0  0  0  0  0  0  0  0  0
    1.8990   -1.5050   -1.1170 C   0  0  0  0  0  0  0  0  0  0  0  0
  1  2  1  0
  2  3  1  0
  3  4  2  0
  3  5  1  0
  5  6  1  0
  5 22  1  0
  6  7  1  0
  7  8  1  0
  8  9  1  0
  9 10  1  0
  9 18  2  0
 11 10  1  1
 11 12  1  0
 11 15  1  0
 12 13  1  0
 13 14  1  0
 15 14  1  1
 15 16  2  0
 15 17  2  0
 18 19  1  0
 18 22  1  0
 19 20  1  0
 19 21  2  0
 21 10  1  0
M  END
