
     RDKit          3D

 21 23  0  0  0  0  0  0  0  0999 V2000
   -2.1150   -2.3880    0.1500 C   0  0  0  0  0  0  0  0  0  0  0  0
   -1.2880   -1.1990   -0.0370 N   0  0  0  0  0  0  0  0  0  0  0  0
   -0.0570   -1.1760   -0.7430 C   0  0  0  0  0  0  0  0  0  0  0  0
    0.1940   -2.1600   -1.8440 C   0  0  0  0  0  0  0  0  0  0  0  0
    0.1090   -3.4410   -1.2720 O   0  0  0  0  0  0  0  0  0  0  0  0
    0.7760   -0.2710   -0.3580 C   0  0  0  0  0  0  0  0  0  0  0  0
    2.0880    0.0560   -0.8170 C   0  0  0  0  0  0  0  0  0  0  0  0
    2.7410   -0.6260   -1.8620 O   0  0  0  0  0  0  0  0  0  0  0  0
    2.8110    1.0400   -0.2920 C   0  0  0  0  0  0  0  0  0  0  0  0
    2.3200    2.1420    1.0650 S   0  0  0  0  0  0  0  0  0  0  0  0
    4.0200    2.5880    1.5010 C   0  0  0  0  0  0  0  0  0  0  0  0
    4.4080    3.0350    2.6060 O   0  0  0  0  0  0  0  0  0  0  0  0
    4.7560    2.3130    0.3230 N   0  0  0  0  0  0  0  0  0  0  0  0
    4.1370    1.5070   -0.6190 C   0  0  0  0  0  0  0  0  0  0  0  0
    4.6830    1.1710   -1.7390 O   0  0  0  0  0  0  0  0  0  0  0  0
   -0.0090    0.6570    0.9850 S   0  0  0  0  0  0  0  0  0  0  0  0
   -1.6860    0.0700    0.5070 C   0  0  1  0  0  0  0  0  0  0  0  0
   -2.4750    1.1630   -0.6510 S   0  0  0  0  0  0  0  0  0  0  0  0
   -4.1450    1.3740    0.0710 C   0  0  0  0  0  0  0  0  0  0  0  0
   -3.9480    1.3490    1.5680 C   0  0  0  0  0  0  0  0  0  0  0  0
   -2.7860   -0.0190    1.8900 S   0  0  0  0  0  0  0  0  0  0  0  0
  1  2  1  0
  2  3  1  0
  2 17  1  0
  3  4  1  0
  3  6  2  0
  4  5  1  0
  6  7  1  0
  6 16  1  0
  7  8  1  0
  7  9  2  3
  9 10  1  0
  9 14  1  0
 10 11  1  0
 11 12  2  0
 11 13  1  0
 13 14  1  0
 14 15  2  0
 17 16  1  1
 17 18  1  0
 17 21  1  0
 18 19  1  0
 19 20  1  0
 20 21  1  0
M  END
