
     RDKit          3D

 21 22  0  0  0  0  0  0  0  0999 V2000
   -4.8820    0.2310    0.1290 C   0  0  0  0  0  0  0  0  0  0  0  0
   -3.3850    0.2270    0.1320 C   0  0  0  0  0  0  0  0  0  0  0  0
   -2.5570    1.2350    0.2340 C   0  0  0  0  0  0  0  0  0  0  0  0
   -1.1590    0.9410    0.2080 C   0  0  0  0  0  0  0  0  0  0  0  0
   -0.8260   -0.3200    0.0850 C   0  0  0  0  0  0  0  0  0  0  0  0
    0.5310   -0.8500    0.0380 C   0  0  0  0  0  0  0  0  0  0  0  0
    0.7610   -2.2790   -0.1110 C   0  0  0  0  0  0  0  0  0  0  0  0
   -0.2000   -3.2910   -0.2270 N   0  0  0  0  0  0  0  0  0  0  0  0
    1.9810   -2.7000   -0.1440 O   0  0  0  0  0  0  0  0  0  0  0  0
    1.6010   -0.0670    0.1210 C   0  0  0  0  0  0  0  0  0  0  0  0
    3.2300   -0.8380    0.0500 S   0  0  0  0  0  0  0  0  0  0  0  0
    4.5260    0.4040    0.1930 C   0  0  0  0  0  0  0  0  0  0  0  0
    4.5630    1.3230   -0.9630 C   0  0  0  0  0  0  0  0  0  0  0  0
    4.6190    0.7800   -2.2760 S   0  0  0  0  0  0  0  0  0  0  0  0
    1.5970    1.3230    0.2650 N   0  0  0  0  0  0  0  0  0  0  0  0
    0.1220    2.1800    0.3240 S   0  0  2  0  0  0  0  0  0  0  0  0
   -0.0900    2.9160    1.6080 O   0  0  0  0  0  0  0  0  0  0  0  0
    0.0310    3.1100   -0.8520 O   0  0  0  0  0  0  0  0  0  0  0  0
   -2.3480   -1.1820   -0.0060 S   0  0  2  0  0  0  0  0  0  0  0  0
   -2.5660   -1.8310   -1.3460 O   0  0  0  0  0  0  0  0  0  0  0  0
   -2.5650   -2.1230    1.1340 O   0  0  0  0  0  0  0  0  0  0  0  0
  1  2  1  0
  2  3  2  0
 19  2  1  1
  3  4  1  0
  4  5  2  0
  4 16  1  0
  5  6  1  0
  5 19  1  0
  6  7  1  0
  6 10  2  0
  7  8  1  0
  7  9  2  0
 10 11  1  0
 10 15  1  0
 11 12  1  0
 12 13  1  0
 13 14  2  0
 16 15  1  1
 16 17  2  0
 16 18  2  0
 19 20  2  0
 19 21  2  0
M  END
