
     RDKit          3D

 22 23  0  0  0  0  0  0  0  0999 V2000
   -5.5560    0.8910   -2.4970 C   0  0  0  0  0  0  0  0  0  0  0  0
   -4.5740   -0.0710   -2.1670 O   0  0  0  0  0  0  0  0  0  0  0  0
   -4.1430   -0.2730   -0.8550 C   0  0  0  0  0  0  0  0  0  0  0  0
   -5.1440   -0.7580    0.1230 C   0  0  0  0  0  0  0  0  0  0  0  0
   -2.9270   -0.0500   -0.4930 C   0  0  0  0  0  0  0  0  0  0  0  0
   -1.6140    0.5350   -1.5570 S   0  0  0  0  0  0  0  0  0  0  0  0
   -0.6220    1.1920   -0.1920 C   0  0  2  0  0  0  0  0  0  0  0  0
    1.0990    0.7210   -0.3920 S   0  0  0  0  0  0  0  0  0  0  0  0
    1.6010    0.3110    1.3010 C   0  0  2  0  0  0  0  0  0  0  0  0
    2.1540   -1.3910    1.4620 S   0  0  0  0  0  0  0  0  0  0  0  0
    3.6630   -1.6390    0.5400 C   0  0  0  0  0  0  0  0  0  0  0  0
    4.2260   -2.7680    0.5140 O   0  0  0  0  0  0  0  0  0  0  0  0
    4.2740   -0.5610   -0.1950 N   0  0  0  0  0  0  0  0  0  0  0  0
    5.4980   -0.7480   -0.9470 C   0  0  0  0  0  0  0  0  0  0  0  0
    5.8330    0.5950   -1.5790 C   0  0  0  0  0  0  0  0  0  0  0  0
    6.9840    0.5620   -2.3290 O   0  0  0  0  0  0  0  0  0  0  0  0
    0.1010    0.6110    2.2040 S   0  0  1  0  0  0  0  0  0  0  0  0
   -0.0810   -0.3360    3.3240 O   0  0  0  0  0  0  0  0  0  0  0  0
    0.0250    2.0500    2.6130 O   0  0  0  0  0  0  0  0  0  0  0  0
   -1.1500    0.3990    0.9420 C   0  0  0  0  0  0  0  0  0  0  0  0
   -2.2870   -0.1920    0.7920 C   0  0  0  0  0  0  0  0  0  0  0  0
   -2.9430   -0.9710    1.8370 N   0  0  0  0  0  0  0  0  0  0  0  0
  1  2  1  0
  2  3  1  0
  3  4  1  0
  3  5  2  3
  5  6  1  0
  5 21  1  0
  7  6  1  6
  7  8  1  0
  7 20  1  0
  8  9  1  0
  9 10  1  6
  9 17  1  0
 10 11  1  0
 11 12  2  0
 11 13  1  0
 13 14  1  0
 14 15  1  0
 15 16  1  0
 17 18  2  0
 17 19  2  0
 17 20  1  6
 20 21  2  0
 21 22  1  0
M  END
