
     RDKit          3D

 22 24  0  0  0  0  0  0  0  0999 V2000
    5.5770    2.5920    0.3520 N   0  0  0  0  0  0  0  0  0  0  0  0
    5.4370    0.9840   -0.2590 S   0  0  1  0  0  0  0  0  0  0  0  0
    6.0790    0.9600   -1.6150 O   0  0  0  0  0  0  0  0  0  0  0  0
    6.0950    0.0620    0.6940 O   0  0  0  0  0  0  0  0  0  0  0  0
    3.7780    0.4780   -0.3910 C   0  0  0  0  0  0  0  0  0  0  0  0
    3.0790   -0.5560    0.1820 C   0  0  0  0  0  0  0  0  0  0  0  0
    1.8000   -0.7260   -0.0880 C   0  0  0  0  0  0  0  0  0  0  0  0
    1.2250    0.2030   -0.9790 C   0  0  0  0  0  0  0  0  0  0  0  0
    2.4850    1.2520   -1.3870 S   0  0  0  0  0  0  0  0  0  0  0  0
   -0.4950    0.0100   -1.3690 S   0  0  2  0  0  0  0  0  0  0  0  0
   -0.6360   -1.0950   -2.3830 O   0  0  0  0  0  0  0  0  0  0  0  0
   -0.9940    1.3170   -1.9140 O   0  0  0  0  0  0  0  0  0  0  0  0
   -1.2610   -0.3970    0.1130 N   0  0  0  0  0  0  0  0  0  0  0  0
   -2.5260   -1.0650   -0.0690 C   0  0  0  0  0  0  0  0  0  0  0  0
   -3.6300   -0.0910   -0.1340 C   0  0  0  0  0  0  0  0  0  0  0  0
   -4.9530   -0.1270   -0.2820 C   0  0  0  0  0  0  0  0  0  0  0  0
   -5.7100    0.9690   -0.3020 C   0  0  0  0  0  0  0  0  0  0  0  0
   -5.0710    2.2200   -0.1580 C   0  0  0  0  0  0  0  0  0  0  0  0
   -3.3750    1.7490    0.0020 S   0  0  0  0  0  0  0  0  0  0  0  0
   -0.3860   -1.0560    1.0390 C   0  0  0  0  0  0  0  0  0  0  0  0
    0.7800   -1.7470    0.3750 C   0  0  2  0  0  0  0  0  0  0  0  0
    1.3700   -2.5620    1.3370 O   0  0  0  0  0  0  0  0  0  0  0  0
  2  1  1  1
  2  3  2  0
  2  4  2  0
  2  5  1  0
  5  6  2  0
  5  9  1  0
  6  7  1  0
  7  8  2  0
  7 21  1  0
  8  9  1  0
  8 10  1  0
 10 11  2  0
 10 12  2  0
 10 13  1  1
 13 14  1  0
 13 20  1  0
 14 15  1  0
 15 16  2  0
 15 19  1  0
 16 17  1  0
 17 18  2  0
 18 19  1  0
 20 21  1  0
 21 22  1  1
M  END
