
     RDKit          3D

 25 26  0  0  0  0  0  0  0  0999 V2000
   -2.3870    3.2350   -1.8600 C   0  0  0  0  0  0  0  0  0  0  0  0
   -0.6600    2.7140   -1.9270 S   0  0  0  0  0  0  0  0  0  0  0  0
   -0.4070    1.3970   -0.7090 C   0  0  0  0  0  0  0  0  0  0  0  0
    0.8270    0.8900   -0.5580 C   0  0  0  0  0  0  0  0  0  0  0  0
    1.2420   -0.1640    0.3510 C   0  0  0  0  0  0  0  0  0  0  0  0
    2.2670    0.0560    1.1520 C   0  0  0  0  0  0  0  0  0  0  0  0
    3.1880    1.6280    1.1210 S   0  0  0  0  0  0  0  0  0  0  0  0
    4.2530    1.7610   -0.3210 C   0  0  0  0  0  0  0  0  0  0  0  0
    5.3400    0.7620   -0.2610 N   0  0  0  0  0  0  0  0  0  0  0  0
    2.5790   -0.8370    2.2780 C   0  0  0  0  0  0  0  0  0  0  0  0
    3.8680   -0.5250    3.2230 S   0  0  0  0  0  0  0  0  0  0  0  0
    1.7230   -1.9450    2.4850 N   0  0  0  0  0  0  0  0  0  0  0  0
    0.6130   -2.1440    1.6170 C   0  0  0  0  0  0  0  0  0  0  0  0
   -0.3340   -2.8280    2.0560 O   0  0  0  0  0  0  0  0  0  0  0  0
    0.6790   -1.5430    0.3120 C   0  0  1  0  0  0  0  0  0  0  0  0
   -0.4260   -1.6840   -0.5680 N   0  0  0  0  0  0  0  0  0  0  0  0
   -1.5930   -2.4420   -0.4830 C   0  0  0  0  0  0  0  0  0  0  0  0
   -1.8150   -3.3280   -1.3980 O   0  0  0  0  0  0  0  0  0  0  0  0
   -2.6680   -2.3880    0.5340 C   0  0  0  0  0  0  0  0  0  0  0  0
   -3.9010   -2.2710   -0.2150 O   0  0  0  0  0  0  0  0  0  0  0  0
   -4.2380   -1.0630   -0.8060 C   0  0  0  0  0  0  0  0  0  0  0  0
   -4.9350   -1.0650   -1.8450 O   0  0  0  0  0  0  0  0  0  0  0  0
   -3.7490    0.2050   -0.1690 C   0  0  0  0  0  0  0  0  0  0  0  0
   -2.5620    0.5410   -0.7860 O   0  0  0  0  0  0  0  0  0  0  0  0
   -1.5880    1.0080    0.0650 C   0  0  0  0  0  0  0  0  0  0  0  0
  1  2  1  0
  2  3  1  0
  3  4  2  0
  3 25  1  0
  4  5  1  0
  5  6  2  0
  5 15  1  0
  6  7  1  0
  6 10  1  0
  7  8  1  0
  8  9  1  0
 10 11  2  0
 10 12  1  0
 12 13  1  0
 13 14  2  0
 13 15  1  0
 15 16  1  1
 16 17  1  0
 17 18  2  0
 17 19  1  0
 19 20  1  0
 20 21  1  0
 21 22  2  0
 21 23  1  0
 23 24  1  0
 24 25  1  0
M  CHG  1   9   1
M  END
