
     RDKit          3D

 25 27  0  0  0  0  0  0  0  0999 V2000
   -5.4690   -1.7430   -1.6720 C   0  0  0  0  0  0  0  0  0  0  0  0
   -4.6300   -0.9770   -0.8660 O   0  0  0  0  0  0  0  0  0  0  0  0
   -5.0590    0.1420   -0.1230 C   0  0  0  0  0  0  0  0  0  0  0  0
   -6.2920    0.5820   -0.1090 N   0  0  0  0  0  0  0  0  0  0  0  0
   -6.7460    1.5050    0.4780 C   0  0  0  0  0  0  0  0  0  0  0  0
   -7.9270    2.2230    0.7180 O   0  0  0  0  0  0  0  0  0  0  0  0
   -5.1740    2.1120    1.3540 S   0  0  0  0  0  0  0  0  0  0  0  0
   -4.1610    0.8420    0.6480 C   0  0  0  0  0  0  0  0  0  0  0  0
   -2.7450    0.6850    0.8990 C   0  0  0  0  0  0  0  0  0  0  0  0
   -1.9040    1.4250    1.6850 C   0  0  0  0  0  0  0  0  0  0  0  0
   -0.6500    0.8620    1.5830 C   0  0  0  0  0  0  0  0  0  0  0  0
   -0.7830   -0.2110    0.7280 C   0  0  0  0  0  0  0  0  0  0  0  0
    0.3200   -1.0910    0.3440 C   0  0  0  0  0  0  0  0  0  0  0  0
    0.0630   -2.0330   -0.4450 O   0  0  0  0  0  0  0  0  0  0  0  0
    1.6220   -0.9140    0.8200 N   0  0  0  0  0  0  0  0  0  0  0  0
    2.4700   -0.0660    0.3420 C   0  0  0  0  0  0  0  0  0  0  0  0
    2.0470    0.7710   -0.7770 C   0  0  0  0  0  0  0  0  0  0  0  0
    3.1320    1.4180   -1.5180 C   0  0  0  0  0  0  0  0  0  0  0  0
    2.8480    2.4510   -2.1430 O   0  0  0  0  0  0  0  0  0  0  0  0
    4.8080    0.8600   -1.6020 S   0  0  0  0  0  0  0  0  0  0  0  0
    5.4080    0.1630   -0.0640 C   0  0  2  0  0  0  0  0  0  0  0  0
    6.0890   -1.1600   -0.3780 C   0  0  0  0  0  0  0  0  0  0  0  0
    6.6000   -1.7770    0.8440 N   0  0  0  0  0  0  0  0  0  0  0  0
    4.0740   -0.0200    1.1130 S   0  0  0  0  0  0  0  0  0  0  0  0
   -2.0350   -0.2640    0.3590 O   0  0  0  0  0  0  0  0  0  0  0  0
  1  2  1  0
  2  3  1  0
  3  4  1  0
  3  8  2  0
  4  5  2  0
  5  6  1  0
  5  7  1  0
  7  8  1  0
  8  9  1  0
  9 10  2  0
  9 25  1  0
 10 11  1  0
 11 12  2  0
 12 13  1  0
 12 25  1  0
 13 14  2  0
 13 15  1  0
 15 16  2  3
 16 17  1  0
 16 24  1  0
 17 18  1  0
 18 19  2  0
 18 20  1  0
 20 21  1  0
 21 22  1  6
 21 24  1  0
 22 23  1  0
M  CHG  1  23   1
M  END
