
     RDKit          3D

 25 27  0  0  0  0  0  0  0  0999 V2000
    4.7190    2.3600   -1.1880 C   0  0  0  0  0  0  0  0  0  0  0  0
    4.2530    0.9470   -0.1950 S   0  0  2  0  0  0  0  0  0  0  0  0
    3.9180    1.4380    1.1640 O   0  0  0  0  0  0  0  0  0  0  0  0
    5.4540    0.0450   -0.0450 O   0  0  0  0  0  0  0  0  0  0  0  0
    2.9330    0.1400   -1.0300 C   0  0  0  0  0  0  0  0  0  0  0  0
    2.3960   -1.0520   -0.3560 C   0  0  0  0  0  0  0  0  0  0  0  0
    1.8050   -0.9520    0.9860 C   0  0  2  0  0  0  0  0  0  0  0  0
    1.4140   -2.4500    1.3110 C   0  0  0  0  0  0  0  0  0  0  0  0
    0.5400   -2.9070    0.2180 C   0  0  0  0  0  0  0  0  0  0  0  0
    0.6860   -4.4050   -0.4440 S   0  0  0  0  0  0  0  0  0  0  0  0
   -0.4710   -2.0640   -0.3090 N   0  0  0  0  0  0  0  0  0  0  0  0
   -0.5170   -0.6880    0.1320 C   0  0  0  0  0  0  0  0  0  0  0  0
   -1.4770    0.1240   -0.2050 C   0  0  0  0  0  0  0  0  0  0  0  0
   -1.5420    1.5470    0.2140 C   0  0  0  0  0  0  0  0  0  0  0  0
   -0.3100    2.7550    0.3560 S   0  0  2  0  0  0  0  0  0  0  0  0
    1.0390    2.2220    0.5790 O   0  0  0  0  0  0  0  0  0  0  0  0
   -0.6760    3.6890    1.5030 O   0  0  0  0  0  0  0  0  0  0  0  0
   -0.2740    3.6830   -1.0900 O   0  0  0  0  0  0  0  0  0  0  0  0
   -2.8190    1.8580    0.3820 N   0  0  0  0  0  0  0  0  0  0  0  0
   -3.6440    0.7510    0.0960 C   0  0  2  0  0  0  0  0  0  0  0  0
   -3.7870   -0.2210    1.2150 C   0  0  0  0  0  0  0  0  0  0  0  0
   -3.6720   -1.6200    0.6560 C   0  0  0  0  0  0  0  0  0  0  0  0
   -3.4660   -1.3820   -0.8250 C   0  0  0  0  0  0  0  0  0  0  0  0
   -2.7530   -0.0950   -0.9220 C   0  0  2  0  0  0  0  0  0  0  0  0
    0.5030   -0.3150    1.0840 N   0  0  0  0  0  0  0  0  0  0  0  0
  2  1  1  6
  2  3  2  0
  2  4  2  0
  2  5  1  0
  5  6  1  0
  7  6  1  6
  7  8  1  0
  7 25  1  0
  8  9  1  0
  9 10  2  0
  9 11  1  0
 11 12  1  0
 12 13  2  3
 12 25  1  0
 13 14  1  0
 13 24  1  0
 14 15  1  0
 14 19  2  0
 15 16  2  0
 15 17  2  0
 15 18  1  6
 19 20  1  0
 20 21  1  1
 20 24  1  0
 21 22  1  0
 22 23  1  0
 24 23  1  1
M  CHG  1  19   1
M  END
