
     RDKit          3D

 25 27  0  0  0  0  0  0  0  0999 V2000
   -3.6180    2.2150   -1.5570 O   0  0  0  0  0  0  0  0  0  0  0  0
   -2.5810    2.9440   -1.6180 C   0  0  0  0  0  0  0  0  0  0  0  0
   -2.6270    4.3120   -1.7050 O   0  0  0  0  0  0  0  0  0  0  0  0
   -1.8040    4.8460   -2.7250 C   0  0  0  0  0  0  0  0  0  0  0  0
   -0.3510    3.7210   -2.5730 S   0  0  0  0  0  0  0  0  0  0  0  0
   -1.2170    2.4520   -1.6050 C   0  0  0  0  0  0  0  0  0  0  0  0
   -0.6840    1.3600   -1.0370 C   0  0  0  0  0  0  0  0  0  0  0  0
    0.6730    1.0560   -1.1420 N   0  0  0  0  0  0  0  0  0  0  0  0
    1.1040    0.0260   -0.5830 C   0  0  0  0  0  0  0  0  0  0  0  0
    2.3970   -0.4440   -0.5690 O   0  0  0  0  0  0  0  0  0  0  0  0
    3.4550    0.1340   -1.3070 C   0  0  0  0  0  0  0  0  0  0  0  0
    4.7000   -0.6880   -1.0060 C   0  0  1  0  0  0  0  0  0  0  0  0
    5.8050   -0.1880   -1.6950 O   0  0  0  0  0  0  0  0  0  0  0  0
    4.8950   -0.6590    0.4930 C   0  0  0  0  0  0  0  0  0  0  0  0
    6.1190   -1.4580    0.8740 C   0  0  0  0  0  0  0  0  0  0  0  0
    5.8400   -3.1750    0.3010 S   0  0  0  0  0  0  0  0  0  0  0  0
   -0.2500   -0.8060    0.2400 S   0  0  0  0  0  0  0  0  0  0  0  0
   -1.4820    0.4260   -0.2680 C   0  0  0  0  0  0  0  0  0  0  0  0
   -2.7250    0.3790    0.0410 N   0  0  0  0  0  0  0  0  0  0  0  0
   -3.2300   -0.6910    0.8300 C   0  0  1  0  0  0  0  0  0  0  0  0
   -3.5960   -0.3460    2.1660 N   0  0  0  0  0  0  0  0  0  0  0  0
   -4.1570   -1.5980    2.6620 C   0  0  0  0  0  0  0  0  0  0  0  0
   -5.0200   -2.0550    1.4920 C   0  0  0  0  0  0  0  0  0  0  0  0
   -4.4860   -1.3170    0.2780 C   0  0  1  0  0  0  0  0  0  0  0  0
   -5.4030   -0.3910   -0.1780 O   0  0  0  0  0  0  0  0  0  0  0  0
  1  2  2  0
  2  3  1  0
  2  6  1  0
  3  4  1  0
  4  5  1  0
  5  6  1  0
  6  7  2  3
  7  8  1  0
  7 18  1  0
  8  9  2  0
  9 10  1  0
  9 17  1  0
 10 11  1  0
 11 12  1  0
 12 13  1  6
 12 14  1  0
 14 15  1  0
 15 16  1  0
 17 18  1  0
 18 19  2  3
 20 19  1  6
 20 21  1  0
 20 24  1  0
 21 22  1  0
 22 23  1  0
 23 24  1  0
 24 25  1  1
M  END
