
     RDKit          3D

 25 27  0  0  0  0  0  0  0  0999 V2000
   -2.5870   -3.2770    0.1540 C   0  0  0  0  0  0  0  0  0  0  0  0
   -1.6910   -2.4290    0.8750 N   0  0  0  0  0  0  0  0  0  0  0  0
   -1.1250   -1.3560    0.1330 C   0  0  2  0  0  0  0  0  0  0  0  0
    0.2430   -0.9330    0.6240 C   0  0  0  0  0  0  0  0  0  0  0  0
    0.9630   -0.3970   -0.5420 N   0  0  0  0  0  0  0  0  0  0  0  0
    2.3450   -0.5260   -0.7180 C   0  0  0  0  0  0  0  0  0  0  0  0
    2.8800   -1.6070   -1.3790 C   0  0  0  0  0  0  0  0  0  0  0  0
    4.2570   -1.7250   -1.5480 C   0  0  0  0  0  0  0  0  0  0  0  0
    5.1090   -0.7590   -1.0570 C   0  0  0  0  0  0  0  0  0  0  0  0
    4.5980    0.3180   -0.4000 C   0  0  0  0  0  0  0  0  0  0  0  0
    5.4370    1.3250    0.1170 O   0  0  0  0  0  0  0  0  0  0  0  0
    4.8990    2.4420    0.7980 C   0  0  0  0  0  0  0  0  0  0  0  0
    3.2340    0.4250   -0.2370 C   0  0  0  0  0  0  0  0  0  0  0  0
   -0.0130    0.4340   -1.7330 S   0  0  1  0  0  0  0  0  0  0  0  0
    0.5990    1.7550   -2.1030 O   0  0  0  0  0  0  0  0  0  0  0  0
   -0.2970   -0.4140   -2.9110 O   0  0  0  0  0  0  0  0  0  0  0  0
   -1.5020    0.8250   -0.8330 C   0  0  0  0  0  0  0  0  0  0  0  0
   -2.5770    2.1440   -0.7770 S   0  0  0  0  0  0  0  0  0  0  0  0
   -3.7050    1.4240    0.5000 C   0  0  0  0  0  0  0  0  0  0  0  0
   -5.1100    2.2080    1.1160 S   0  0  2  0  0  0  0  0  0  0  0  0
   -4.7580    3.7130    1.8810 N   0  0  0  0  0  0  0  0  0  0  0  0
   -5.7450    1.3200    2.1200 O   0  0  0  0  0  0  0  0  0  0  0  0
   -6.0960    2.4960   -0.0030 O   0  0  0  0  0  0  0  0  0  0  0  0
   -3.1080    0.2200    0.7410 C   0  0  0  0  0  0  0  0  0  0  0  0
   -1.9890   -0.1370    0.0950 C   0  0  0  0  0  0  0  0  0  0  0  0
  1  2  1  0
  3  2  1  1
  3  4  1  0
  3 25  1  0
  4  5  1  0
  5  6  1  0
 14  5  1  1
  6  7  2  0
  6 13  1  0
  7  8  1  0
  8  9  2  0
  9 10  1  0
 10 11  1  0
 10 13  2  0
 11 12  1  0
 14 15  2  0
 14 16  2  0
 14 17  1  0
 17 18  1  0
 17 25  2  0
 18 19  1  0
 19 20  1  0
 19 24  2  0
 20 21  1  1
 20 22  2  0
 20 23  2  0
 24 25  1  0
M  CHG  1   2   1
M  END
