
     RDKit          3D

 25 26  0  0  0  0  0  0  0  0999 V2000
   -1.6930    2.1250   -1.4630 C   0  0  0  0  0  0  0  0  0  0  0  0
   -1.6960    0.9470   -1.1290 C   0  0  0  0  0  0  0  0  0  0  0  0
   -2.5240    0.3920    0.0230 C   0  0  0  0  0  0  0  0  0  0  0  0
   -3.5830    1.1170    0.2870 C   0  0  0  0  0  0  0  0  0  0  0  0
   -4.6620    1.1160    1.1760 C   0  0  0  0  0  0  0  0  0  0  0  0
   -5.1240    0.4370    2.1180 N   0  0  0  0  0  0  0  0  0  0  0  0
   -4.7370   -0.7110    2.7430 O   0  0  0  0  0  0  0  0  0  0  0  0
   -2.1190   -0.7980    0.6840 C   0  0  0  0  0  0  0  0  0  0  0  0
   -1.0500   -1.5680    0.4520 C   0  0  0  0  0  0  0  0  0  0  0  0
   -0.8210   -2.9990    1.4520 S   0  0  1  0  0  0  0  0  0  0  0  0
   -0.9820   -4.3850    0.4140 N   0  0  0  0  0  0  0  0  0  0  0  0
    0.4990   -3.0610    2.0990 O   0  0  0  0  0  0  0  0  0  0  0  0
   -1.8540   -3.0650    2.5600 O   0  0  0  0  0  0  0  0  0  0  0  0
   -0.0250   -1.1980   -0.4960 C   0  0  0  0  0  0  0  0  0  0  0  0
    1.2400   -1.5100   -0.3890 C   0  0  0  0  0  0  0  0  0  0  0  0
    2.1880   -1.1010   -1.3700 N   0  0  0  0  0  0  0  0  0  0  0  0
    3.1700   -0.1380   -1.0180 C   0  0  0  0  0  0  0  0  0  0  0  0
    4.1310    0.4170   -1.8110 C   0  0  0  0  0  0  0  0  0  0  0  0
    4.9640    1.3160   -1.2770 C   0  0  0  0  0  0  0  0  0  0  0  0
    4.8040    1.6420    0.0570 C   0  0  0  0  0  0  0  0  0  0  0  0
    5.5820    2.6050    0.8880 C   0  0  0  0  0  0  0  0  0  0  0  0
    3.4350    0.6250    0.5230 S   0  0  0  0  0  0  0  0  0  0  0  0
   -0.6190   -0.2760   -1.8770 S   0  0  1  0  0  0  0  0  0  0  0  0
   -1.4040   -1.0560   -2.8210 O   0  0  0  0  0  0  0  0  0  0  0  0
    0.5470    0.4570   -2.4570 O   0  0  0  0  0  0  0  0  0  0  0  0
  1  2  2  0
  2  3  1  0
 23  2  1  1
  3  4  2  3
  3  8  1  0
  4  5  1  0
  5  6  2  3
  6  7  1  0
  8  9  2  0
  9 10  1  0
  9 14  1  0
 10 11  1  6
 10 12  2  0
 10 13  2  0
 14 15  2  3
 14 23  1  0
 15 16  1  0
 16 17  1  0
 17 18  2  0
 17 22  1  0
 18 19  1  0
 19 20  2  0
 20 21  1  0
 20 22  1  0
 23 24  2  0
 23 25  2  0
M  CHG  1   6   1
M  END
