
     RDKit          3D

 25 27  0  0  0  0  0  0  0  0999 V2000
   -1.0390    2.2400   -1.0910 C   0  0  0  0  0  0  0  0  0  0  0  0
   -1.8560    1.1790   -0.5050 C   0  0  0  0  0  0  0  0  0  0  0  0
   -2.9890    1.5450    0.1910 C   0  0  0  0  0  0  0  0  0  0  0  0
   -3.3640    2.9090    0.3390 N   0  0  0  0  0  0  0  0  0  0  0  0
   -3.7810    0.5700    0.7590 C   0  0  0  0  0  0  0  0  0  0  0  0
   -3.4250   -0.7430    0.6190 C   0  0  0  0  0  0  0  0  0  0  0  0
   -2.2720   -1.1000   -0.0910 C   0  0  0  0  0  0  0  0  0  0  0  0
   -1.9410   -2.4610   -0.2290 N   0  0  0  0  0  0  0  0  0  0  0  0
   -1.9530   -3.4980    1.1330 S   0  0  1  0  0  0  0  0  0  0  0  0
   -3.0290   -3.2350    2.1130 O   0  0  0  0  0  0  0  0  0  0  0  0
   -2.1450   -4.9320    0.6570 O   0  0  0  0  0  0  0  0  0  0  0  0
   -1.4700   -0.1360   -0.6640 C   0  0  0  0  0  0  0  0  0  0  0  0
   -0.0350   -0.4670   -1.5330 S   0  0  1  0  0  0  0  0  0  0  0  0
   -0.1030   -1.7630   -2.2760 O   0  0  0  0  0  0  0  0  0  0  0  0
    0.2240    0.5730   -2.6290 O   0  0  0  0  0  0  0  0  0  0  0  0
    1.3600   -0.5580   -0.4970 N   0  0  0  0  0  0  0  0  0  0  0  0
    1.3060   -0.3800    0.9310 C   0  0  0  0  0  0  0  0  0  0  0  0
    2.2530    0.7340    1.2570 C   0  0  0  0  0  0  0  0  0  0  0  0
    3.5910    0.4940    0.7150 C   0  0  0  0  0  0  0  0  0  0  0  0
    5.2030    0.9870    1.2160 S   0  0  0  0  0  0  0  0  0  0  0  0
    6.1670    0.1910   -0.1090 C   0  0  0  0  0  0  0  0  0  0  0  0
    5.1180   -0.3950   -0.8310 C   0  0  0  0  0  0  0  0  0  0  0  0
    3.8640   -0.2590   -0.4450 C   0  0  0  0  0  0  0  0  0  0  0  0
    2.6130   -0.8200   -1.0850 C   0  0  0  0  0  0  0  0  0  0  0  0
    2.7170   -1.5100   -2.1280 O   0  0  0  0  0  0  0  0  0  0  0  0
  1  2  1  0
  2  3  2  0
  2 12  1  0
  3  4  1  0
  3  5  1  0
  5  6  2  0
  6  7  1  0
  7  8  1  0
  7 12  2  0
  9  8  1  6
  9 10  2  0
  9 11  2  0
 12 13  1  0
 13 14  2  0
 13 15  2  0
 13 16  1  1
 16 17  1  0
 16 24  1  0
 17 18  1  0
 18 19  1  0
 19 20  1  0
 19 23  2  0
 20 21  1  0
 21 22  2  0
 22 23  1  0
 23 24  1  0
 24 25  2  0
M  CHG  1   4   1
M  END
