
     RDKit          3D

 12 13  0  0  0  0  0  0  0  0999 V2000
    4.3050    0.2890    0.3200 C   0  0  0  0  0  0  0  0  0  0  0  0
    3.3290   -0.3560   -1.0900 S   0  0  0  0  0  0  0  0  0  0  0  0
    1.5700   -0.2670   -0.7070 C   0  0  0  0  0  0  0  0  0  0  0  0
    0.7280    0.7530   -0.9520 N   0  0  0  0  0  0  0  0  0  0  0  0
   -0.5170    0.4680   -0.5280 C   0  0  0  0  0  0  0  0  0  0  0  0
   -1.7280    1.1450   -0.5330 C   0  0  0  0  0  0  0  0  0  0  0  0
   -2.8820    0.5950   -0.0150 C   0  0  0  0  0  0  0  0  0  0  0  0
   -4.1050    1.2550   -0.0100 O   0  0  0  0  0  0  0  0  0  0  0  0
   -2.8150   -0.6710    0.5240 C   0  0  0  0  0  0  0  0  0  0  0  0
   -1.6220   -1.3640    0.5410 C   0  0  0  0  0  0  0  0  0  0  0  0
   -0.4630   -0.7940    0.0130 C   0  0  0  0  0  0  0  0  0  0  0  0
    0.8100   -1.2050   -0.1130 N   0  0  0  0  0  0  0  0  0  0  0  0
  1  2  1  0
  2  3  1  0
  3  4  2  0
  3 12  1  0
  4  5  1  0
  5  6  2  0
  5 11  1  0
  6  7  1  0
  7  8  1  0
  7  9  2  0
  9 10  1  0
 10 11  2  0
 11 12  1  0
M  END
