
     RDKit          3D

 18 18  0  0  0  0  0  0  0  0999 V2000
   -3.3180    3.1890    0.4770 C   0  0  0  0  0  0  0  0  0  0  0  0
   -3.8690    1.9090    0.6590 O   0  0  0  0  0  0  0  0  0  0  0  0
   -3.1070    0.7680    0.4350 C   0  0  0  0  0  0  0  0  0  0  0  0
   -1.8230    0.8400    0.0380 N   0  0  0  0  0  0  0  0  0  0  0  0
   -1.0600   -0.2380   -0.1860 C   0  0  0  0  0  0  0  0  0  0  0  0
    0.6100   -0.0290   -0.7030 S   0  0  0  0  0  0  0  0  0  0  0  0
    1.7740    0.0810    0.6670 C   0  0  0  0  0  0  0  0  0  0  0  0
    3.1430    0.2540    0.1090 C   0  0  0  0  0  0  0  0  0  0  0  0
    3.3750    0.3100   -1.3030 S   0  0  0  0  0  0  0  0  0  0  0  0
    4.5640    0.3990    1.1920 S   0  0  0  0  0  0  0  0  0  0  0  0
    6.0900    0.5980    0.2730 C   0  0  0  0  0  0  0  0  0  0  0  0
   -1.6430   -1.4730    0.0050 C   0  0  0  0  0  0  0  0  0  0  0  0
   -0.8720   -2.6970   -0.2210 C   0  0  0  0  0  0  0  0  0  0  0  0
    0.3130   -2.6780   -0.5870 O   0  0  0  0  0  0  0  0  0  0  0  0
   -1.4950   -3.9130   -0.0170 O   0  0  0  0  0  0  0  0  0  0  0  0
   -2.9660   -1.5180    0.4140 C   0  0  0  0  0  0  0  0  0  0  0  0
   -3.4700   -2.6810    0.5800 O   0  0  0  0  0  0  0  0  0  0  0  0
   -3.7080   -0.4190    0.6320 N   0  0  0  0  0  0  0  0  0  0  0  0
  1  2  1  0
  2  3  1  0
  3  4  2  0
  3 18  1  0
  4  5  1  0
  5  6  1  0
  5 12  2  0
  6  7  1  0
  7  8  1  0
  8  9  2  0
  8 10  1  0
 10 11  1  0
 12 13  1  0
 12 16  1  0
 13 14  2  0
 13 15  1  0
 16 17  2  0
 16 18  1  0
M  END
