
     RDKit          3D

 19 20  0  0  0  0  0  0  0  0999 V2000
    2.6390    0.2880   -1.5400 O   0  0  0  0  0  0  0  0  0  0  0  0
    1.7650   -0.1320   -0.7850 C   0  0  0  0  0  0  0  0  0  0  0  0
    2.0800   -1.0570    0.2250 N   0  0  0  0  0  0  0  0  0  0  0  0
    3.3860   -1.6030    0.5020 C   0  0  0  0  0  0  0  0  0  0  0  0
    4.5340   -0.3680    0.9780 S   0  0  1  0  0  0  0  0  0  0  0  0
    4.0000    0.3550    2.2040 O   0  0  0  0  0  0  0  0  0  0  0  0
    5.8500   -0.9730    1.4240 O   0  0  0  0  0  0  0  0  0  0  0  0
    4.7770    0.8060   -0.1870 O   0  0  0  0  0  0  0  0  0  0  0  0
    0.3800    0.3570   -0.9630 C   0  0  0  0  0  0  0  0  0  0  0  0
   -0.7270    0.0640   -0.2910 C   0  0  0  0  0  0  0  0  0  0  0  0
   -1.9060    0.6240   -0.6140 C   0  0  0  0  0  0  0  0  0  0  0  0
   -3.2270    0.3710    0.0720 C   0  0  0  0  0  0  0  0  0  0  0  0
   -3.2690   -0.5290    1.1560 C   0  0  0  0  0  0  0  0  0  0  0  0
   -4.9890   -0.5110    1.6350 S   0  0  0  0  0  0  0  0  0  0  0  0
   -5.4660    0.6540    0.3880 C   0  0  0  0  0  0  0  0  0  0  0  0
   -6.9920    1.2290    0.1480 S   0  0  0  0  0  0  0  0  0  0  0  0
   -4.3610    0.9230   -0.2550 N   0  0  0  0  0  0  0  0  0  0  0  0
   -1.8420    1.5160   -1.6950 C   0  0  0  0  0  0  0  0  0  0  0  0
   -0.1280    1.4890   -2.1620 S   0  0  0  0  0  0  0  0  0  0  0  0
  1  2  2  0
  2  3  1  0
  2  9  1  0
  3  4  1  0
  4  5  1  0
  5  6  2  0
  5  7  2  0
  5  8  1  6
  9 10  2  0
  9 19  1  0
 10 11  1  0
 11 12  1  0
 11 18  2  0
 12 13  2  0
 12 17  1  0
 13 14  1  0
 14 15  1  0
 15 16  2  0
 15 17  1  0
 18 19  1  0
M  END
