
     RDKit          3D

 19 19  0  0  0  0  0  0  0  0999 V2000
   -4.9890   -1.3060    1.2790 C   0  0  0  0  0  0  0  0  0  0  0  0
   -3.9090   -2.1430    1.3100 O   0  0  0  0  0  0  0  0  0  0  0  0
   -3.1530   -2.0700    0.1790 C   0  0  0  0  0  0  0  0  0  0  0  0
   -2.5200   -0.7700   -0.0790 C   0  0  0  0  0  0  0  0  0  0  0  0
   -2.6370    0.1650    0.7280 O   0  0  0  0  0  0  0  0  0  0  0  0
   -1.7710   -0.5870   -1.2590 N   0  0  0  0  0  0  0  0  0  0  0  0
   -0.7530    0.1950   -1.2500 C   0  0  0  0  0  0  0  0  0  0  0  0
    0.0170    0.3920   -2.4340 N   0  0  0  0  0  0  0  0  0  0  0  0
   -0.3350    1.0220    0.2810 S   0  0  0  0  0  0  0  0  0  0  0  0
    1.1560    2.0540   -0.0420 C   0  0  0  0  0  0  0  0  0  0  0  0
    1.1180    3.6930   -0.5850 S   0  0  0  0  0  0  0  0  0  0  0  0
    2.6860    4.2070   -0.7360 C   0  0  0  0  0  0  0  0  0  0  0  0
    3.3440    5.7060   -1.2230 S   0  0  0  0  0  0  0  0  0  0  0  0
    3.5590    2.8670   -0.2820 S   0  0  0  0  0  0  0  0  0  0  0  0
    2.5030    1.5620    0.1370 C   0  0  0  0  0  0  0  0  0  0  0  0
    2.8420    0.2440    0.5770 C   0  0  0  0  0  0  0  0  0  0  0  0
    1.9550   -0.5870    0.8410 O   0  0  0  0  0  0  0  0  0  0  0  0
    4.1720   -0.1690    0.7300 O   0  0  0  0  0  0  0  0  0  0  0  0
    4.4900   -1.4580    1.1610 C   0  0  0  0  0  0  0  0  0  0  0  0
  1  2  1  0
  2  3  1  0
  3  4  1  0
  4  5  2  0
  4  6  1  0
  6  7  2  3
  7  8  1  0
  7  9  1  0
  9 10  1  0
 10 11  1  0
 10 15  2  0
 11 12  1  0
 12 13  2  0
 12 14  1  0
 14 15  1  0
 15 16  1  0
 16 17  2  0
 16 18  1  0
 18 19  1  0
M  END
