
     RDKit          3D

 18 18  0  0  0  0  0  0  0  0999 V2000
    5.4840   -0.3770    0.4380 O   0  0  0  0  0  0  0  0  0  0  0  0
    4.3600   -0.3000   -0.0980 C   0  0  0  0  0  0  0  0  0  0  0  0
    3.8050    1.0500   -0.2710 C   0  0  0  0  0  0  0  0  0  0  0  0
    5.0320    2.2530    0.3800 S   0  0  0  0  0  0  0  0  0  0  0  0
    3.7060   -1.5680   -0.5080 C   0  0  0  0  0  0  0  0  0  0  0  0
    2.3800   -1.3340   -0.8840 O   0  0  0  0  0  0  0  0  0  0  0  0
    1.4540   -0.9580    0.0840 C   0  0  0  0  0  0  0  0  0  0  0  0
    1.7470   -0.8280    1.3100 O   0  0  0  0  0  0  0  0  0  0  0  0
    0.0570   -0.6990   -0.3500 C   0  0  0  0  0  0  0  0  0  0  0  0
   -0.9310   -0.2310    1.0930 S   0  0  0  0  0  0  0  0  0  0  0  0
   -2.6260    0.0820    0.5610 C   0  0  0  0  0  0  0  0  0  0  0  0
   -3.0450    1.3340    0.1640 C   0  0  0  0  0  0  0  0  0  0  0  0
   -4.3620    1.4750   -0.2270 C   0  0  0  0  0  0  0  0  0  0  0  0
   -4.7840    2.6040   -0.5970 O   0  0  0  0  0  0  0  0  0  0  0  0
   -5.1790    0.4000   -0.2060 N   0  0  0  0  0  0  0  0  0  0  0  0
   -4.7700   -0.8220    0.1820 C   0  0  0  0  0  0  0  0  0  0  0  0
   -5.8190   -2.0900    0.1840 S   0  0  0  0  0  0  0  0  0  0  0  0
   -3.4930   -0.9590    0.5610 N   0  0  0  0  0  0  0  0  0  0  0  0
  1  2  2  0
  2  3  1  0
  2  5  1  0
  3  4  1  0
  5  6  1  0
  6  7  1  0
  7  8  2  0
  7  9  1  0
  9 10  1  0
 10 11  1  0
 11 12  2  0
 11 18  1  0
 12 13  1  0
 13 14  2  0
 13 15  1  0
 15 16  1  0
 16 17  2  0
 16 18  1  0
M  END
