
     RDKit          3D

 12 13  0  0  0  0  0  0  0  0999 V2000
    0.2470   -2.2620   -0.2020 O   0  0  0  0  0  0  0  0  0  0  0  0
   -0.6220   -1.1870   -0.1140 C   0  0  0  0  0  0  0  0  0  0  0  0
   -1.9910   -1.3330   -0.0780 C   0  0  0  0  0  0  0  0  0  0  0  0
   -2.8110   -0.2180    0.0110 C   0  0  0  0  0  0  0  0  0  0  0  0
   -2.2800    1.0380    0.0640 C   0  0  0  0  0  0  0  0  0  0  0  0
   -0.9170    1.1960    0.0280 C   0  0  0  0  0  0  0  0  0  0  0  0
   -0.0750    2.2500    0.0600 N   0  0  0  0  0  0  0  0  0  0  0  0
    1.1750    1.8350   -0.0040 N   0  0  0  0  0  0  0  0  0  0  0  0
    1.2380    0.4990   -0.0800 C   0  0  0  0  0  0  0  0  0  0  0  0
    2.4470   -0.3590   -0.1670 C   0  0  0  0  0  0  0  0  0  0  0  0
    3.9620    0.6250   -0.1610 S   0  0  0  0  0  0  0  0  0  0  0  0
   -0.0730    0.0830   -0.0610 C   0  0  0  0  0  0  0  0  0  0  0  0
  1  2  1  0
  2  3  2  0
  2 12  1  0
  3  4  1  0
  4  5  2  0
  5  6  1  0
  6  7  1  0
  6 12  2  0
  7  8  1  0
  8  9  2  0
  9 10  1  0
  9 12  1  0
 10 11  1  0
M  END
