
     RDKit          3D

 19 20  0  0  0  0  0  0  0  0999 V2000
    5.4150    0.4510    0.0140 C   0  0  0  0  0  0  0  0  0  0  0  0
    4.6390   -0.5480    1.3110 S   0  0  0  0  0  0  0  0  0  0  0  0
    3.5030   -1.7450    0.5660 C   0  0  0  0  0  0  0  0  0  0  0  0
    2.3420   -1.0910   -0.0800 C   0  0  0  0  0  0  0  0  0  0  0  0
    1.1080   -0.7340    0.4470 C   0  0  0  0  0  0  0  0  0  0  0  0
    0.2300   -0.1510   -0.3830 C   0  0  0  0  0  0  0  0  0  0  0  0
   -1.0770    0.2850   -0.0320 C   0  0  0  0  0  0  0  0  0  0  0  0
   -1.7290    0.1170    1.5950 S   0  0  0  0  0  0  0  0  0  0  0  0
   -3.3940    0.7370    1.7650 C   0  0  0  0  0  0  0  0  0  0  0  0
   -4.5750   -0.2270    0.8420 S   0  0  1  0  0  0  0  0  0  0  0  0
   -4.2680   -0.2560   -0.6230 O   0  0  0  0  0  0  0  0  0  0  0  0
   -4.6230   -1.6380    1.3620 O   0  0  0  0  0  0  0  0  0  0  0  0
   -6.1120    0.4140    1.0420 O   0  0  0  0  0  0  0  0  0  0  0  0
   -1.8390    0.8520   -0.9720 N   0  0  0  0  0  0  0  0  0  0  0  0
   -1.4870    1.0520   -2.2310 C   0  0  0  0  0  0  0  0  0  0  0  0
   -2.1920    1.5780   -3.1070 O   0  0  0  0  0  0  0  0  0  0  0  0
   -0.2490    0.6500   -2.6040 N   0  0  0  0  0  0  0  0  0  0  0  0
    0.5480    0.0690   -1.6650 C   0  0  0  0  0  0  0  0  0  0  0  0
    2.2340   -0.5860   -1.7730 S   0  0  0  0  0  0  0  0  0  0  0  0
  1  2  1  0
  2  3  1  0
  3  4  1  0
  4  5  2  0
  4 19  1  0
  5  6  1  0
  6  7  1  0
  6 18  2  0
  7  8  1  0
  7 14  2  0
  8  9  1  0
  9 10  1  0
 10 11  2  0
 10 12  2  0
 10 13  1  6
 14 15  1  0
 15 16  2  0
 15 17  1  0
 17 18  1  0
 18 19  1  0
M  END
