
     RDKit          3D

 19 20  0  0  0  0  0  0  0  0999 V2000
    6.1230   -0.1160   -0.4820 N   0  0  0  0  0  0  0  0  0  0  0  0
    4.9200   -1.2660   -0.9680 S   0  0  2  0  0  0  0  0  0  0  0  0
    5.0680   -2.5670   -0.2720 O   0  0  0  0  0  0  0  0  0  0  0  0
    5.0290   -1.4090   -2.4670 O   0  0  0  0  0  0  0  0  0  0  0  0
    3.3510   -0.6230   -0.5880 C   0  0  0  0  0  0  0  0  0  0  0  0
    2.3710   -1.1170    0.2310 C   0  0  0  0  0  0  0  0  0  0  0  0
    1.2320   -0.4070    0.3490 C   0  0  0  0  0  0  0  0  0  0  0  0
    1.0940    0.7470   -0.3300 C   0  0  0  0  0  0  0  0  0  0  0  0
   -0.0920    1.9880   -0.4900 S   0  0  2  0  0  0  0  0  0  0  0  0
   -0.3610    2.1350   -1.9880 O   0  0  0  0  0  0  0  0  0  0  0  0
    0.4240    3.3290   -0.0300 O   0  0  0  0  0  0  0  0  0  0  0  0
   -1.5290    1.5740    0.2960 N   0  0  0  0  0  0  0  0  0  0  0  0
   -2.1100    0.4080   -0.2920 C   0  0  0  0  0  0  0  0  0  0  0  0
   -3.3480    0.0590    0.3970 C   0  0  0  0  0  0  0  0  0  0  0  0
   -4.0840    0.5200    1.4140 C   0  0  0  0  0  0  0  0  0  0  0  0
   -5.2190   -0.0980    1.7740 C   0  0  0  0  0  0  0  0  0  0  0  0
   -5.6520   -1.1930    1.1310 C   0  0  0  0  0  0  0  0  0  0  0  0
   -4.2760   -1.3570   -0.1360 S   0  0  0  0  0  0  0  0  0  0  0  0
    2.6600    0.8500   -1.1920 S   0  0  0  0  0  0  0  0  0  0  0  0
  2  1  1  1
  2  3  2  0
  2  4  2  0
  2  5  1  0
  5  6  2  0
  5 19  1  0
  6  7  1  0
  7  8  2  0
  8  9  1  0
  8 19  1  0
  9 10  2  0
  9 11  2  0
  9 12  1  1
 12 13  1  0
 13 14  1  0
 14 15  2  0
 14 18  1  0
 15 16  1  0
 16 17  2  0
 17 18  1  0
M  END
