
     RDKit          3D

 13 13  0  0  0  0  0  0  0  0999 V2000
    1.8170   -0.6900    1.3080 O   0  0  0  0  0  0  0  0  0  0  0  0
    1.5650   -0.2560    0.2160 C   0  0  0  0  0  0  0  0  0  0  0  0
    2.3730    0.3980   -0.5540 O   0  0  0  0  0  0  0  0  0  0  0  0
    3.7110    0.5770   -0.3300 C   0  0  0  0  0  0  0  0  0  0  0  0
    4.2620   -0.7520   -0.1800 O   0  0  0  0  0  0  0  0  0  0  0  0
    0.1370   -0.4350   -0.3440 C   0  0  2  0  0  0  0  0  0  0  0  0
   -0.5540    0.8310   -0.1620 C   0  0  0  0  0  0  0  0  0  0  0  0
   -0.9730    0.7220    1.1420 O   0  0  0  0  0  0  0  0  0  0  0  0
   -1.3720   -0.6440    1.2750 C   0  0  1  0  0  0  0  0  0  0  0  0
   -2.8390   -0.6270    0.8160 C   0  0  0  0  0  0  0  0  0  0  0  0
   -3.3370    0.4380    1.6010 O   0  0  0  0  0  0  0  0  0  0  0  0
   -3.8370    1.3520    0.7650 O   0  0  0  0  0  0  0  0  0  0  0  0
   -0.5880   -1.3460    0.4230 O   0  0  0  0  0  0  0  0  0  0  0  0
  1  2  2  0
  2  3  1  0
  6  2  1  1
  3  4  1  0
  4  5  1  0
  6  7  1  0
  6 13  1  0
  7  8  1  0
  8  9  1  0
  9 10  1  6
  9 13  1  0
 10 11  1  0
 11 12  1  0
M  END
