
     RDKit          3D

 13 13  0  0  0  0  0  0  0  0999 V2000
   -1.8120    1.6390   -1.8570 O   0  0  0  0  0  0  0  0  0  0  0  0
   -1.3870    0.9690   -0.8950 C   0  0  0  0  0  0  0  0  0  0  0  0
   -0.6560    1.5070    0.1560 O   0  0  0  0  0  0  0  0  0  0  0  0
    0.5090    0.8090    0.5630 C   0  0  0  0  0  0  0  0  0  0  0  0
    0.5760   -0.3850   -0.5260 C   0  0  1  0  0  0  0  0  0  0  0  0
    1.9340   -0.9920   -0.3230 C   0  0  0  0  0  0  0  0  0  0  0  0
    2.3080   -0.8760    0.9830 O   0  0  0  0  0  0  0  0  0  0  0  0
    3.3740   -0.0520    1.0750 O   0  0  0  0  0  0  0  0  0  0  0  0
    3.7790    0.4280   -0.0680 O   0  0  0  0  0  0  0  0  0  0  0  0
   -0.5230   -1.0800   -0.1870 O   0  0  0  0  0  0  0  0  0  0  0  0
   -1.6770   -0.5370   -0.7660 C   0  0  1  0  0  0  0  0  0  0  0  0
   -2.8320   -0.5490    0.2390 C   0  0  0  0  0  0  0  0  0  0  0  0
   -2.5810    0.4540    1.1860 O   0  0  0  0  0  0  0  0  0  0  0  0
  1  2  2  0
  2  3  1  0
  2 11  1  0
  3  4  1  0
  4  5  1  0
  5  6  1  1
  5 10  1  0
  6  7  1  0
  7  8  1  0
  8  9  1  0
 10 11  1  0
 11 12  1  1
 12 13  1  0
M  END
