
     RDKit          3D

 13 13  0  0  0  0  0  0  0  0999 V2000
   -2.3080    2.7520   -0.0760 O   0  0  0  0  0  0  0  0  0  0  0  0
   -1.9120    1.6470   -0.5180 C   0  0  0  0  0  0  0  0  0  0  0  0
   -1.7340    1.2050   -1.8180 O   0  0  0  0  0  0  0  0  0  0  0  0
   -1.1180   -0.0830   -1.8270 C   0  0  0  0  0  0  0  0  0  0  0  0
   -0.3630   -0.0260   -0.4930 C   0  0  2  0  0  0  0  0  0  0  0  0
    0.0720   -1.2410   -0.0740 O   0  0  0  0  0  0  0  0  0  0  0  0
    1.4180   -1.2470    0.1550 C   0  0  0  0  0  0  0  0  0  0  0  0
    1.8770   -0.2690    1.2090 C   0  0  0  0  0  0  0  0  0  0  0  0
    3.2650   -0.3830    1.3370 O   0  0  0  0  0  0  0  0  0  0  0  0
    3.7270    0.4460    2.2440 O   0  0  0  0  0  0  0  0  0  0  0  0
   -1.5280    0.5080    0.3520 C   0  0  2  0  0  0  0  0  0  0  0  0
   -2.5870   -0.4030    0.3110 O   0  0  0  0  0  0  0  0  0  0  0  0
   -3.0030   -0.7370    1.5140 O   0  0  0  0  0  0  0  0  0  0  0  0
  1  2  2  0
  2  3  1  0
  2 11  1  0
  3  4  1  0
  4  5  1  0
  5  6  1  1
  5 11  1  0
  6  7  1  0
  7  8  1  0
  8  9  1  0
  9 10  1  0
 11 12  1  6
 12 13  1  0
M  END
