
     RDKit          3D

 13 13  0  0  0  0  0  0  0  0999 V2000
    1.9960    1.0420    1.1410 O   0  0  0  0  0  0  0  0  0  0  0  0
    1.2430    0.3520    0.4080 C   0  0  0  0  0  0  0  0  0  0  0  0
    1.7000    0.0470   -0.8750 O   0  0  0  0  0  0  0  0  0  0  0  0
    2.9570    0.5020   -1.3170 C   0  0  0  0  0  0  0  0  0  0  0  0
    4.0100    0.0380   -0.5360 O   0  0  0  0  0  0  0  0  0  0  0  0
    4.0590   -1.2610   -0.5400 O   0  0  0  0  0  0  0  0  0  0  0  0
   -0.0900   -0.1250    0.8910 C   0  0  1  0  0  0  0  0  0  0  0  0
   -0.9380    1.1230    1.0870 C   0  0  0  0  0  0  0  0  0  0  0  0
   -2.2360    0.8040    1.4140 O   0  0  0  0  0  0  0  0  0  0  0  0
   -2.9920    0.7830    0.2330 C   0  0  0  0  0  0  0  0  0  0  0  0
   -2.8830   -0.5400   -0.4560 C   0  0  0  0  0  0  0  0  0  0  0  0
   -1.8720   -1.2810    0.1890 O   0  0  0  0  0  0  0  0  0  0  0  0
   -0.6840   -0.8610   -0.1470 O   0  0  0  0  0  0  0  0  0  0  0  0
  1  2  2  0
  2  3  1  0
  7  2  1  6
  3  4  1  0
  4  5  1  0
  5  6  1  0
  7  8  1  0
  7 13  1  0
  8  9  1  0
  9 10  1  0
 10 11  1  0
 11 12  1  0
 12 13  1  0
M  END
