
     RDKit          3D

 20 20  0  0  0  0  0  0  0  0999 V2000
    5.2190    2.2210    1.0310 C   0  0  0  0  0  0  0  0  0  0  0  0
    4.6120    0.6990    1.8030 S   0  0  0  0  0  0  0  0  0  0  0  0
    3.3820   -0.0350    0.7750 C   0  0  0  0  0  0  0  0  0  0  0  0
    3.0600    0.5100   -0.3070 O   0  0  0  0  0  0  0  0  0  0  0  0
    2.7630   -1.2080    1.1440 O   0  0  0  0  0  0  0  0  0  0  0  0
    1.8010   -1.7640    0.3200 C   0  0  0  0  0  0  0  0  0  0  0  0
    2.0700   -2.6760   -0.6880 C   0  0  0  0  0  0  0  0  0  0  0  0
    0.8590   -2.9700   -1.2540 C   0  0  0  0  0  0  0  0  0  0  0  0
   -0.0630   -2.2900   -0.6360 O   0  0  0  0  0  0  0  0  0  0  0  0
    0.4410   -1.5570    0.3090 C   0  0  0  0  0  0  0  0  0  0  0  0
   -0.2950   -0.6360    1.2410 C   0  0  0  0  0  0  0  0  0  0  0  0
   -1.6580   -0.6660    0.9530 O   0  0  0  0  0  0  0  0  0  0  0  0
   -1.9430   -0.2710   -0.3300 C   0  0  1  0  0  0  0  0  0  0  0  0
   -2.8480   -1.5120   -1.3300 P   0  0  0  0  0  0  0  0  0  0  0  0
   -3.1240   -2.9930   -0.4850 O   0  0  0  0  0  0  0  0  0  0  0  0
   -2.1630   -1.7650   -2.8910 O   0  0  0  0  0  0  0  0  0  0  0  0
   -2.9820    1.2830   -0.2960 P   0  0  0  0  0  0  0  0  0  0  0  0
   -3.6350    1.6230    1.3840 C   0  0  0  0  0  0  0  0  0  0  0  0
   -2.1180    2.7090   -1.0590 C   0  0  0  0  0  0  0  0  0  0  0  0
   -0.7860    2.4400   -1.3660 O   0  0  0  0  0  0  0  0  0  0  0  0
  1  2  1  0
  2  3  1  0
  3  4  2  0
  3  5  1  0
  5  6  1  0
  6  7  1  0
  6 10  2  0
  7  8  2  0
  8  9  1  0
  9 10  1  0
 10 11  1  0
 11 12  1  0
 13 12  1  1
 13 14  1  0
 13 17  1  0
 14 15  1  0
 14 16  1  0
 17 18  1  0
 17 19  1  0
 19 20  1  0
M  END
