
     RDKit          3D

 13 13  0  0  0  0  0  0  0  0999 V2000
   -0.6510   -1.0660   -2.0390 O   0  0  0  0  0  0  0  0  0  0  0  0
   -1.2460   -0.9550   -0.9530 C   0  0  0  0  0  0  0  0  0  0  0  0
   -2.2830   -1.7310   -0.4790 O   0  0  0  0  0  0  0  0  0  0  0  0
   -2.8650   -1.1180    0.6760 C   0  0  0  0  0  0  0  0  0  0  0  0
   -2.4280    0.3440    0.5020 C   0  0  0  0  0  0  0  0  0  0  0  0
   -0.9520    0.0750    0.0930 C   0  0  2  0  0  0  0  0  0  0  0  0
   -0.3650    1.1820   -0.4010 O   0  0  0  0  0  0  0  0  0  0  0  0
    0.7820    1.5570    0.1920 C   0  0  0  0  0  0  0  0  0  0  0  0
    1.9080    0.5950    0.0420 C   0  0  1  0  0  0  0  0  0  0  0  0
    3.0770    1.0770    0.6810 O   0  0  0  0  0  0  0  0  0  0  0  0
    1.6660   -0.6640    0.5030 O   0  0  0  0  0  0  0  0  0  0  0  0
    1.8660   -1.6290   -0.3420 O   0  0  0  0  0  0  0  0  0  0  0  0
    3.1320   -1.5940   -0.7030 O   0  0  0  0  0  0  0  0  0  0  0  0
  1  2  2  0
  2  3  1  0
  2  6  1  0
  3  4  1  0
  4  5  1  0
  5  6  1  0
  6  7  1  6
  7  8  1  0
  8  9  1  0
  9 10  1  1
  9 11  1  0
 11 12  1  0
 12 13  1  0
M  END
