
     RDKit          3D

 13 13  0  0  0  0  0  0  0  0999 V2000
   -1.0840   -2.0290    0.5500 O   0  0  0  0  0  0  0  0  0  0  0  0
   -0.8850   -0.7870    0.5670 C   0  0  0  0  0  0  0  0  0  0  0  0
    0.4100   -0.3380    0.4470 O   0  0  0  0  0  0  0  0  0  0  0  0
    1.5220   -1.2010    0.3070 C   0  0  0  0  0  0  0  0  0  0  0  0
    2.7680   -0.3360    0.2050 C   0  0  0  0  0  0  0  0  0  0  0  0
    3.9120   -1.1240    0.0640 O   0  0  0  0  0  0  0  0  0  0  0  0
    4.9960   -0.4050   -0.0260 O   0  0  0  0  0  0  0  0  0  0  0  0
    4.6760    0.8270   -0.3930 O   0  0  0  0  0  0  0  0  0  0  0  0
   -2.0190    0.1170    0.7100 C   0  0  2  0  0  0  0  0  0  0  0  0
   -3.0430   -0.0480   -0.4190 C   0  0  0  0  0  0  0  0  0  0  0  0
   -3.5040    1.4080   -0.4920 C   0  0  0  0  0  0  0  0  0  0  0  0
   -2.2600    2.0380   -0.2840 O   0  0  0  0  0  0  0  0  0  0  0  0
   -1.7060    1.4470    0.7180 O   0  0  0  0  0  0  0  0  0  0  0  0
  1  2  2  0
  2  3  1  0
  9  2  1  6
  3  4  1  0
  4  5  1  0
  5  6  1  0
  6  7  1  0
  7  8  1  0
  9 10  1  0
  9 13  1  0
 10 11  1  0
 11 12  1  0
 12 13  1  0
M  END
