
     RDKit          3D

 22 21  0  0  0  0  0  0  0  0999 V2000
   -3.1950    0.2070    1.8550 C   0  0  0  0  0  0  0  0  0  0  0  0
   -3.4090   -0.5930    0.5980 C   0  0  1  0  0  0  0  0  0  0  0  0
   -4.4020   -1.7270    0.8610 C   0  0  0  0  0  0  0  0  0  0  0  0
   -3.8870   -2.5410    1.8470 O   0  0  0  0  0  0  0  0  0  0  0  0
   -3.9860    0.2100   -0.5320 C   0  0  0  0  0  0  0  0  0  0  0  0
   -5.2420    0.7440   -0.1690 O   0  0  0  0  0  0  0  0  0  0  0  0
   -2.1110   -1.2380    0.2110 C   0  0  0  0  0  0  0  0  0  0  0  0
   -1.0670   -0.2180   -0.0280 C   0  0  0  0  0  0  0  0  0  0  0  0
   -1.2500    1.0050    0.0980 O   0  0  0  0  0  0  0  0  0  0  0  0
    0.2080   -0.6550   -0.4210 O   0  0  0  0  0  0  0  0  0  0  0  0
    1.2240    0.3070   -0.6550 C   0  0  2  0  0  0  0  0  0  0  0  0
    1.6350    0.1750   -2.0830 C   0  0  0  0  0  0  0  0  0  0  0  0
    2.6500    1.0720   -2.4660 O   0  0  0  0  0  0  0  0  0  0  0  0
    2.4980    2.4240   -2.4110 C   0  0  0  0  0  0  0  0  0  0  0  0
    1.4420    2.9340   -2.0170 O   0  0  0  0  0  0  0  0  0  0  0  0
    3.5140    3.3220   -2.7930 O   0  0  0  0  0  0  0  0  0  0  0  0
    2.3400    0.1220    0.2930 C   0  0  0  0  0  0  0  0  0  0  0  0
    2.2600   -0.8040    1.1360 O   0  0  0  0  0  0  0  0  0  0  0  0
    3.4720    0.9130    0.3030 O   0  0  0  0  0  0  0  0  0  0  0  0
    4.4990    0.6740    1.2390 C   0  0  0  0  0  0  0  0  0  0  0  0
    5.1120   -0.6900    1.1220 C   0  0  0  0  0  0  0  0  0  0  0  0
    5.6610   -0.8280   -0.1610 O   0  0  0  0  0  0  0  0  0  0  0  0
  2  1  1  1
  2  3  1  0
  2  5  1  0
  2  7  1  0
  3  4  1  0
  5  6  1  0
  7  8  1  0
  8  9  2  0
  8 10  1  0
 10 11  1  0
 11 12  1  6
 11 17  1  0
 12 13  1  0
 13 14  1  0
 14 15  2  0
 14 16  1  0
 17 18  2  0
 17 19  1  0
 19 20  1  0
 20 21  1  0
 21 22  1  0
M  END
