
     RDKit          3D

 22 22  0  0  0  0  0  0  0  0999 V2000
   -3.4250    3.4430   -1.3550 C   0  0  0  0  0  0  0  0  0  0  0  0
   -2.1810    2.8090   -1.5850 O   0  0  0  0  0  0  0  0  0  0  0  0
   -1.9680    1.5510   -1.0440 C   0  0  0  0  0  0  0  0  0  0  0  0
   -2.3040    0.4320   -1.7750 C   0  0  0  0  0  0  0  0  0  0  0  0
   -2.8490    0.5440   -3.0350 O   0  0  0  0  0  0  0  0  0  0  0  0
   -2.1030   -0.8490   -1.2600 C   0  0  0  0  0  0  0  0  0  0  0  0
   -2.4590   -1.9420   -2.0350 O   0  0  0  0  0  0  0  0  0  0  0  0
   -1.5610   -0.9960   -0.0040 C   0  0  0  0  0  0  0  0  0  0  0  0
   -1.3430   -2.2450    0.5500 O   0  0  0  0  0  0  0  0  0  0  0  0
   -2.3460   -2.8870    1.3290 C   0  0  0  0  0  0  0  0  0  0  0  0
   -1.2220    0.1130    0.7330 C   0  0  0  0  0  0  0  0  0  0  0  0
   -0.6770   -0.0420    1.9960 O   0  0  0  0  0  0  0  0  0  0  0  0
    0.7310   -0.1470    2.2080 C   0  0  0  0  0  0  0  0  0  0  0  0
    1.1730   -1.2390    1.5210 O   0  0  0  0  0  0  0  0  0  0  0  0
    2.5070   -1.5100    1.5990 C   0  0  0  0  0  0  0  0  0  0  0  0
    3.3680   -0.5510    1.1480 O   0  0  0  0  0  0  0  0  0  0  0  0
    3.2250   -0.2140   -0.1710 C   0  0  1  0  0  0  0  0  0  0  0  0
    2.9020    1.1150   -0.3300 O   0  0  0  0  0  0  0  0  0  0  0  0
    4.4570   -0.4850   -1.0000 C   0  0  0  0  0  0  0  0  0  0  0  0
    5.5040    0.2770   -0.4530 O   0  0  0  0  0  0  0  0  0  0  0  0
   -1.4240    1.3910    0.2170 C   0  0  0  0  0  0  0  0  0  0  0  0
   -1.0850    2.5100    0.9530 O   0  0  0  0  0  0  0  0  0  0  0  0
  1  2  1  0
  2  3  1  0
  3  4  2  0
  3 21  1  0
  4  5  1  0
  4  6  1  0
  6  7  1  0
  6  8  2  0
  8  9  1  0
  8 11  1  0
  9 10  1  0
 11 12  1  0
 11 21  2  0
 12 13  1  0
 13 14  1  0
 14 15  1  0
 15 16  1  0
 16 17  1  0
 17 18  1  1
 17 19  1  0
 19 20  1  0
 21 22  1  0
M  END
