
     RDKit          3D

 23 23  0  0  0  0  0  0  0  0999 V2000
   -5.4890   -0.1320   -0.6360 C   0  0  0  0  0  0  0  0  0  0  0  0
   -4.4960   -0.9000    0.0340 O   0  0  0  0  0  0  0  0  0  0  0  0
   -3.3460   -0.3130    0.5510 C   0  0  0  0  0  0  0  0  0  0  0  0
   -3.3700    0.1500    1.8470 C   0  0  0  0  0  0  0  0  0  0  0  0
   -4.4980    0.0490    2.6460 O   0  0  0  0  0  0  0  0  0  0  0  0
   -2.2500    0.7300    2.3710 C   0  0  0  0  0  0  0  0  0  0  0  0
   -2.2500    1.2060    3.6820 O   0  0  0  0  0  0  0  0  0  0  0  0
   -1.1230    0.8420    1.6040 C   0  0  0  0  0  0  0  0  0  0  0  0
   -0.0030    1.4390    2.1790 O   0  0  0  0  0  0  0  0  0  0  0  0
   -1.0510    0.3880    0.2860 C   0  0  0  0  0  0  0  0  0  0  0  0
    0.0890    0.5040   -0.4810 O   0  0  0  0  0  0  0  0  0  0  0  0
    1.0280   -0.5550   -0.4470 C   0  0  0  0  0  0  0  0  0  0  0  0
    2.2160   -0.2420   -1.3560 C   0  0  1  0  0  0  0  0  0  0  0  0
    3.1560   -1.4040   -1.2910 C   0  0  0  0  0  0  0  0  0  0  0  0
    3.6850   -1.5570   -0.0140 O   0  0  0  0  0  0  0  0  0  0  0  0
    4.4350   -0.6330    0.6590 C   0  0  0  0  0  0  0  0  0  0  0  0
    4.6900    0.4620    0.1080 O   0  0  0  0  0  0  0  0  0  0  0  0
    4.8810   -0.9580    1.9340 O   0  0  0  0  0  0  0  0  0  0  0  0
    5.6210   -0.0330    2.5870 O   0  0  0  0  0  0  0  0  0  0  0  0
    1.6820   -0.0900   -2.6440 O   0  0  0  0  0  0  0  0  0  0  0  0
    1.9090    1.2200   -3.0880 C   0  0  0  0  0  0  0  0  0  0  0  0
   -2.2080   -0.1920   -0.2040 C   0  0  0  0  0  0  0  0  0  0  0  0
   -2.1950   -0.6620   -1.5100 O   0  0  0  0  0  0  0  0  0  0  0  0
  1  2  1  0
  2  3  1  0
  3  4  2  0
  3 22  1  0
  4  5  1  0
  4  6  1  0
  6  7  1  0
  6  8  2  0
  8  9  1  0
  8 10  1  0
 10 11  1  0
 10 22  2  0
 11 12  1  0
 13 12  1  1
 13 14  1  0
 13 20  1  0
 14 15  1  0
 15 16  1  0
 16 17  2  0
 16 18  1  0
 18 19  1  0
 20 21  1  0
 22 23  1  0
M  END
