
     RDKit          3D

 22 22  0  0  0  0  0  0  0  0999 V2000
    1.8190    3.2810   -0.7430 C   0  0  0  0  0  0  0  0  0  0  0  0
    1.8830    1.9720   -0.1960 O   0  0  0  0  0  0  0  0  0  0  0  0
    1.2850    0.8820   -0.8560 C   0  0  0  0  0  0  0  0  0  0  0  0
    0.7080    1.1620   -1.9370 O   0  0  0  0  0  0  0  0  0  0  0  0
    1.3450   -0.4620   -0.3050 C   0  0  0  0  0  0  0  0  0  0  0  0
    2.3880   -1.3410   -0.6200 C   0  0  0  0  0  0  0  0  0  0  0  0
    3.3890   -0.9330   -1.4760 O   0  0  0  0  0  0  0  0  0  0  0  0
    4.5740   -0.2940   -1.0180 C   0  0  0  0  0  0  0  0  0  0  0  0
    2.4450   -2.6150   -0.0940 C   0  0  0  0  0  0  0  0  0  0  0  0
    3.5120   -3.4340   -0.4510 O   0  0  0  0  0  0  0  0  0  0  0  0
    1.4500   -3.0330    0.7620 C   0  0  0  0  0  0  0  0  0  0  0  0
    1.4720   -4.3050    1.3100 O   0  0  0  0  0  0  0  0  0  0  0  0
    0.4130   -2.1580    1.0750 C   0  0  0  0  0  0  0  0  0  0  0  0
   -0.5950   -2.5670    1.9360 O   0  0  0  0  0  0  0  0  0  0  0  0
    0.3560   -0.8870    0.5500 C   0  0  0  0  0  0  0  0  0  0  0  0
   -0.6750   -0.0170    0.8610 O   0  0  0  0  0  0  0  0  0  0  0  0
   -1.8530    0.0100    0.0750 C   0  0  0  0  0  0  0  0  0  0  0  0
   -2.7690    0.9320    0.5250 O   0  0  0  0  0  0  0  0  0  0  0  0
   -3.8830    0.8990   -0.2870 C   0  0  1  0  0  0  0  0  0  0  0  0
   -5.0310    0.5370    0.4540 O   0  0  0  0  0  0  0  0  0  0  0  0
   -4.1950    2.2550   -0.8890 C   0  0  0  0  0  0  0  0  0  0  0  0
   -5.3250    2.1160   -1.6840 O   0  0  0  0  0  0  0  0  0  0  0  0
  1  2  1  0
  2  3  1  0
  3  4  2  0
  3  5  1  0
  5  6  2  0
  5 15  1  0
  6  7  1  0
  6  9  1  0
  7  8  1  0
  9 10  1  0
  9 11  2  0
 11 12  1  0
 11 13  1  0
 13 14  1  0
 13 15  2  0
 15 16  1  0
 16 17  1  0
 17 18  1  0
 18 19  1  0
 19 20  1  1
 19 21  1  0
 21 22  1  0
M  END
