
     RDKit          3D

 22 22  0  0  0  0  0  0  0  0999 V2000
   -4.2440    0.4120   -0.3630 C   0  0  0  0  0  0  0  0  0  0  0  0
   -3.2430    0.5460    0.6070 O   0  0  0  0  0  0  0  0  0  0  0  0
   -1.9780   -0.0750    0.5320 C   0  0  0  0  0  0  0  0  0  0  0  0
   -1.8360   -1.3150    1.1060 C   0  0  0  0  0  0  0  0  0  0  0  0
   -2.9110   -1.9190    1.7360 O   0  0  0  0  0  0  0  0  0  0  0  0
   -0.6380   -1.9770    1.0690 C   0  0  0  0  0  0  0  0  0  0  0  0
   -0.5110   -3.2360    1.6590 O   0  0  0  0  0  0  0  0  0  0  0  0
    0.4540   -1.3640    0.4280 C   0  0  0  0  0  0  0  0  0  0  0  0
    1.5970   -2.1560    0.4610 O   0  0  0  0  0  0  0  0  0  0  0  0
    1.6480   -3.1110   -0.6330 C   0  0  0  0  0  0  0  0  0  0  0  0
    0.3160   -0.1410   -0.1360 C   0  0  0  0  0  0  0  0  0  0  0  0
    1.3320    0.5260   -0.7820 O   0  0  0  0  0  0  0  0  0  0  0  0
    2.3030    1.3670   -0.2820 C   0  0  0  0  0  0  0  0  0  0  0  0
    3.3450    0.9590    0.4510 O   0  0  0  0  0  0  0  0  0  0  0  0
    4.2980    0.1640   -0.1170 C   0  0  0  0  0  0  0  0  0  0  0  0
    3.9580   -1.0290   -0.6610 O   0  0  0  0  0  0  0  0  0  0  0  0
   -0.9330    0.5200   -0.0830 C   0  0  0  0  0  0  0  0  0  0  0  0
   -1.1000    1.7950   -0.7920 C   0  0  0  0  0  0  0  0  0  0  0  0
   -1.6600    2.8390   -0.0930 O   0  0  0  0  0  0  0  0  0  0  0  0
   -1.3530    3.4740    1.0520 C   0  0  0  0  0  0  0  0  0  0  0  0
   -0.3580    3.1010    1.6950 O   0  0  0  0  0  0  0  0  0  0  0  0
   -2.1210    4.5370    1.5330 O   0  0  0  0  0  0  0  0  0  0  0  0
  1  2  1  0
  2  3  1  0
  3  4  2  0
  3 17  1  0
  4  5  1  0
  4  6  1  0
  6  7  1  0
  6  8  2  0
  8  9  1  0
  8 11  1  0
  9 10  1  0
 11 12  1  0
 11 17  2  0
 12 13  1  0
 13 14  1  0
 14 15  1  0
 15 16  1  0
 17 18  1  0
 18 19  1  0
 19 20  1  0
 20 21  2  0
 20 22  1  0
M  END
