
     RDKit          3D

 16 17  0  0  0  0  0  0  0  0999 V2000
    0.6890   -3.1760    0.3090 C   0  0  0  0  0  0  0  0  0  0  0  0
    0.8310   -1.7090    0.4700 C   0  0  0  0  0  0  0  0  0  0  0  0
    2.0510   -1.0650    0.4320 C   0  0  0  0  0  0  0  0  0  0  0  0
    2.1970    0.2820    0.5780 C   0  0  0  0  0  0  0  0  0  0  0  0
    3.4560    1.0260    0.5480 C   0  0  1  0  0  0  0  0  0  0  0  0
    4.6310    0.2740    0.0290 C   0  0  0  0  0  0  0  0  0  0  0  0
    3.2550    2.1610   -0.2570 O   0  0  0  0  0  0  0  0  0  0  0  0
    1.0350    1.0300    0.7770 C   0  0  0  0  0  0  0  0  0  0  0  0
   -0.1950    0.4570    0.8240 C   0  0  0  0  0  0  0  0  0  0  0  0
   -0.2920   -0.9310    0.6680 C   0  0  0  0  0  0  0  0  0  0  0  0
   -1.6630   -1.4870    0.7310 C   0  0  0  0  0  0  0  0  0  0  0  0
   -2.5960   -0.7330   -0.0450 N   0  0  0  0  0  0  0  0  0  0  0  0
   -2.4950    0.6780    0.0710 C   0  0  2  0  0  0  0  0  0  0  0  0
   -3.8330    1.3180    0.4660 C   0  0  0  0  0  0  0  0  0  0  0  0
   -2.1610    1.2790   -1.3010 C   0  0  0  0  0  0  0  0  0  0  0  0
   -1.4710    1.1750    1.0300 C   0  0  0  0  0  0  0  0  0  0  0  0
  1  2  1  0
  2  3  2  0
  2 10  1  0
  3  4  1  0
  4  5  1  0
  4  8  2  0
  5  6  1  6
  5  7  1  0
  8  9  1  0
  9 10  2  0
  9 16  1  0
 10 11  1  0
 11 12  1  0
 12 13  1  0
 13 14  1  1
 13 15  1  0
 13 16  1  0
M  CHG  1  12   1
M  END
