
     RDKit          3D

 16 17  0  0  0  0  0  0  0  0999 V2000
    0.2000    0.4600   -1.7830 C   0  0  0  0  0  0  0  0  0  0  0  0
    0.1740    0.1500   -0.3270 C   0  0  1  0  0  0  0  0  0  0  0  0
    1.1480    0.9310    0.4970 C   0  0  0  0  0  0  0  0  0  0  0  0
    2.5880    0.7140    0.0890 C   0  0  2  0  0  0  0  0  0  0  0  0
    2.9070   -0.7290    0.2410 C   0  0  0  0  0  0  0  0  0  0  0  0
    4.3650   -1.0620    0.2990 C   0  0  0  0  0  0  0  0  0  0  0  0
    5.1520    0.2400    0.1070 C   0  0  0  0  0  0  0  0  0  0  0  0
    4.5890    1.1510    1.1890 C   0  0  0  0  0  0  0  0  0  0  0  0
    3.3650    1.5930    0.7810 O   0  0  0  0  0  0  0  0  0  0  0  0
   -1.1770    0.3460    0.1630 N   0  0  0  0  0  0  0  0  0  0  0  0
   -2.0930   -0.6480   -0.3530 C   0  0  1  0  0  0  0  0  0  0  0  0
   -2.7190   -1.3790    0.7970 C   0  0  0  0  0  0  0  0  0  0  0  0
   -3.7720   -0.5150    1.4560 C   0  0  0  0  0  0  0  0  0  0  0  0
   -4.8760   -0.3620    0.4100 C   0  0  0  0  0  0  0  0  0  0  0  0
   -4.3100    0.5000   -0.6870 C   0  0  0  0  0  0  0  0  0  0  0  0
   -3.0730   -0.0560   -1.3120 C   0  0  0  0  0  0  0  0  0  0  0  0
  2  1  1  6
  2  3  1  0
  2 10  1  0
  4  3  1  1
  4  5  1  0
  4  9  1  0
  5  6  1  0
  6  7  1  0
  7  8  1  0
  8  9  1  0
 11 10  1  1
 11 12  1  0
 11 16  1  0
 12 13  1  0
 13 14  1  0
 14 15  1  0
 15 16  1  0
M  CHG  1  10   1
M  END
