
     RDKit          3D

 16 17  0  0  0  0  0  0  0  0999 V2000
    3.1950   -0.9680    1.8720 C   0  0  0  0  0  0  0  0  0  0  0  0
    2.4260   -0.0610    0.9730 C   0  0  0  0  0  0  0  0  0  0  0  0
    2.9970    0.5120   -0.0700 C   0  0  0  0  0  0  0  0  0  0  0  0
    4.4330    0.2160   -0.3080 C   0  0  0  0  0  0  0  0  0  0  0  0
    2.2250    1.3640   -0.8940 N   0  0  0  0  0  0  0  0  0  0  0  0
    0.8590    0.9810   -1.1910 C   0  0  0  0  0  0  0  0  0  0  0  0
    0.2600    0.1280   -0.1060 C   0  0  2  0  0  0  0  0  0  0  0  0
    0.3950   -1.2090   -0.5050 O   0  0  0  0  0  0  0  0  0  0  0  0
   -1.2240    0.3870    0.0430 C   0  0  1  0  0  0  0  0  0  0  0  0
   -1.5020    1.8370    0.3950 C   0  0  0  0  0  0  0  0  0  0  0  0
   -1.9290    0.0480   -1.2530 C   0  0  0  0  0  0  0  0  0  0  0  0
   -2.5160   -1.3570   -1.1550 C   0  0  0  0  0  0  0  0  0  0  0  0
   -3.7510   -1.2490   -0.2790 C   0  0  0  0  0  0  0  0  0  0  0  0
   -3.3550   -0.4530    0.9440 C   0  0  0  0  0  0  0  0  0  0  0  0
   -1.8410   -0.4600    1.1210 C   0  0  0  0  0  0  0  0  0  0  0  0
    0.9920    0.2500    1.2020 C   0  0  0  0  0  0  0  0  0  0  0  0
  1  2  1  0
  2  3  2  0
  2 16  1  0
  3  4  1  0
  3  5  1  0
  5  6  1  0
  6  7  1  0
  7  8  1  6
  7  9  1  0
  7 16  1  0
  9 10  1  1
  9 11  1  0
  9 15  1  0
 11 12  1  0
 12 13  1  0
 13 14  1  0
 14 15  1  0
M  END
