
     RDKit          3D

 16 17  0  0  0  0  0  0  0  0999 V2000
   -1.4370   -0.6890   -1.7850 N   0  0  0  0  0  0  0  0  0  0  0  0
   -0.8200    0.1050   -0.7750 C   0  0  2  0  0  0  0  0  0  0  0  0
    0.4100   -0.6510   -0.2740 C   0  0  1  0  0  0  0  0  0  0  0  0
    1.3960   -0.9010   -1.3560 C   0  0  0  0  0  0  0  0  0  0  0  0
    2.6730   -1.4720   -0.7840 C   0  0  0  0  0  0  0  0  0  0  0  0
    3.6170   -0.3120   -0.5910 C   0  0  0  0  0  0  0  0  0  0  0  0
    3.8450   -0.1120    0.8700 C   0  0  0  0  0  0  0  0  0  0  0  0
    3.1100    1.0720    1.4320 C   0  0  0  0  0  0  0  0  0  0  0  0
    1.6780    1.1610    0.9710 C   0  0  0  0  0  0  0  0  0  0  0  0
    0.9620   -0.1450    1.0010 C   0  0  0  0  0  0  0  0  0  0  0  0
   -1.6980    0.5960    0.3200 C   0  0  2  0  0  0  0  0  0  0  0  0
   -2.3660   -0.4540    1.1290 C   0  0  0  0  0  0  0  0  0  0  0  0
   -3.7950   -0.7370    0.8160 C   0  0  0  0  0  0  0  0  0  0  0  0
   -4.1900   -0.2990   -0.4380 O   0  0  0  0  0  0  0  0  0  0  0  0
   -3.9640    1.0320   -0.6530 C   0  0  0  0  0  0  0  0  0  0  0  0
   -2.7240    1.6130   -0.1070 C   0  0  0  0  0  0  0  0  0  0  0  0
  2  1  1  6
  2  3  1  0
  2 11  1  0
  3  4  1  6
  3 10  1  0
  4  5  1  0
  5  6  1  0
  6  7  1  0
  7  8  1  0
  8  9  1  0
  9 10  1  0
 11 12  1  6
 11 16  1  0
 12 13  1  0
 13 14  1  0
 14 15  1  0
 15 16  1  0
M  CHG  1   1   1
M  END
