
     RDKit          3D

 16 16  0  0  0  0  0  0  0  0999 V2000
    3.5800    1.5890    0.7880 C   0  0  0  0  0  0  0  0  0  0  0  0
    3.7690    0.5200   -0.2410 C   0  0  1  0  0  0  0  0  0  0  0  0
    5.2490    0.2040   -0.3140 C   0  0  0  0  0  0  0  0  0  0  0  0
    2.9790   -0.7130    0.0540 C   0  0  0  0  0  0  0  0  0  0  0  0
    3.3920   -1.9360    0.2400 C   0  0  0  0  0  0  0  0  0  0  0  0
    2.2490   -2.8320    0.5040 C   0  0  0  0  0  0  0  0  0  0  0  0
    1.0860   -1.9750    0.4520 C   0  0  0  0  0  0  0  0  0  0  0  0
    1.4930   -0.7010    0.1840 C   0  0  0  0  0  0  0  0  0  0  0  0
    0.7190    0.3410    0.0630 O   0  0  0  0  0  0  0  0  0  0  0  0
   -0.0470    1.3730   -0.0570 C   0  0  0  0  0  0  0  0  0  0  0  0
   -1.4840    1.1190   -0.5370 C   0  0  0  0  0  0  0  0  0  0  0  0
   -2.2410    0.2170    0.3890 C   0  0  0  0  0  0  0  0  0  0  0  0
   -3.6400    0.0580   -0.2160 C   0  0  2  0  0  0  0  0  0  0  0  0
   -3.5810   -0.5450   -1.5910 C   0  0  0  0  0  0  0  0  0  0  0  0
   -4.2690    1.4180   -0.2300 C   0  0  0  0  0  0  0  0  0  0  0  0
   -4.3840   -0.7910    0.6850 N   0  0  0  0  0  0  0  0  0  0  0  0
  2  1  1  1
  2  3  1  0
  2  4  1  0
  4  5  2  0
  4  8  1  0
  5  6  1  0
  6  7  1  0
  7  8  2  0
  8  9  1  0
  9 10  1  0
 10 11  1  0
 11 12  1  0
 12 13  1  0
 13 14  1  6
 13 15  1  0
 13 16  1  0
M  CHG  1  16   1
M  END
