
     RDKit          3D

 23 24  0  0  0  0  0  0  0  0999 V2000
   -4.0220   -0.6290   -0.8590 N   0  0  0  0  0  0  0  0  0  0  0  0
   -3.0220   -0.5460   -0.0650 C   0  0  0  0  0  0  0  0  0  0  0  0
   -3.0280   -1.3230    1.1200 N   0  0  0  0  0  0  0  0  0  0  0  0
   -4.5720   -1.9410    1.7560 P   0  0  0  0  0  0  0  0  0  0  0  0
   -4.9340   -1.2860    3.3220 O   0  0  0  0  0  0  0  0  0  0  0  0
   -5.8970   -1.5320    0.7060 O   0  0  0  0  0  0  0  0  0  0  0  0
   -1.9560    0.3060   -0.3860 N   0  0  0  0  0  0  0  0  0  0  0  0
   -1.5640    0.3220   -1.7790 C   0  0  0  0  0  0  0  0  0  0  0  0
   -0.0890    0.0290   -1.8820 C   0  0  0  0  0  0  0  0  0  0  0  0
    0.6590    1.1280   -1.5800 O   0  0  0  0  0  0  0  0  0  0  0  0
    1.0330    1.3280   -0.2920 C   0  0  1  0  0  0  0  0  0  0  0  0
    1.6910    0.0950    0.3480 C   0  0  0  0  0  0  0  0  0  0  0  0
    2.9070   -0.3370   -0.3600 C   0  0  0  0  0  0  0  0  0  0  0  0
    2.8150   -0.9850   -1.4270 O   0  0  0  0  0  0  0  0  0  0  0  0
    4.1870   -0.0630    0.0970 O   0  0  0  0  0  0  0  0  0  0  0  0
    5.3420   -0.5070   -0.6290 C   0  0  0  0  0  0  0  0  0  0  0  0
    5.2940   -1.9110   -0.7080 O   0  0  0  0  0  0  0  0  0  0  0  0
    5.2980   -2.3650    0.5090 O   0  0  0  0  0  0  0  0  0  0  0  0
    1.9970    2.4120   -0.1140 C   0  0  0  0  0  0  0  0  0  0  0  0
    1.4970    3.2790    0.6950 N   0  0  0  0  0  0  0  0  0  0  0  0
    0.1990    2.8880    1.1170 C   0  0  0  0  0  0  0  0  0  0  0  0
   -0.1170    1.7560    0.5580 C   0  0  0  0  0  0  0  0  0  0  0  0
   -1.3880    1.0570    0.6710 N   0  0  0  0  0  0  0  0  0  0  0  0
  1  2  2  0
  2  3  1  0
  2  7  1  0
  3  4  1  0
  4  5  1  0
  4  6  1  0
  7  8  1  0
  7 23  1  0
  8  9  1  0
  9 10  1  0
 10 11  1  0
 11 12  1  1
 11 19  1  0
 11 22  1  0
 12 13  1  0
 13 14  2  0
 13 15  1  0
 15 16  1  0
 16 17  1  0
 17 18  1  0
 19 20  2  0
 20 21  1  0
 21 22  2  0
 22 23  1  0
M  END
