
     RDKit          3D

 23 24  0  0  0  0  0  0  0  0999 V2000
    2.9750   -0.5550    1.8550 C   0  0  0  0  0  0  0  0  0  0  0  0
    2.7450    0.2420    0.6960 N   0  0  0  0  0  0  0  0  0  0  0  0
    1.6420    1.1860    0.7440 C   0  0  0  0  0  0  0  0  0  0  0  0
    0.3700    0.4510    0.9780 C   0  0  0  0  0  0  0  0  0  0  0  0
   -0.4460   -0.0480    0.0370 N   0  0  0  0  0  0  0  0  0  0  0  0
   -1.4870   -0.6400    0.6410 C   0  0  0  0  0  0  0  0  0  0  0  0
   -2.6550   -1.3350    0.0110 C   0  0  2  0  0  0  0  0  0  0  0  0
   -2.6400   -0.9920   -1.4560 C   0  0  0  0  0  0  0  0  0  0  0  0
   -3.8450   -1.1690   -2.0810 O   0  0  0  0  0  0  0  0  0  0  0  0
   -4.9470   -0.7990   -1.3580 C   0  0  0  0  0  0  0  0  0  0  0  0
   -4.4840   -0.0080   -0.1440 C   0  0  1  0  0  0  0  0  0  0  0  0
   -5.5930    0.5970    0.5930 C   0  0  0  0  0  0  0  0  0  0  0  0
   -5.7950    0.2800    1.7890 O   0  0  0  0  0  0  0  0  0  0  0  0
   -6.4420    1.5220    0.0100 O   0  0  0  0  0  0  0  0  0  0  0  0
   -3.7850   -0.9010    0.6650 O   0  0  0  0  0  0  0  0  0  0  0  0
   -1.2870   -0.4910    1.9630 N   0  0  0  0  0  0  0  0  0  0  0  0
   -0.1640    0.1670    2.1420 O   0  0  0  0  0  0  0  0  0  0  0  0
    3.5010    0.1940   -0.5060 C   0  0  0  0  0  0  0  0  0  0  0  0
    2.9390    0.3370   -1.6560 N   0  0  0  0  0  0  0  0  0  0  0  0
    4.9090   -0.0150   -0.4770 N   0  0  0  0  0  0  0  0  0  0  0  0
    5.9820    0.4200   -1.8460 P   0  0  0  0  0  0  0  0  0  0  0  0
    6.3210    2.1370   -1.8580 O   0  0  0  0  0  0  0  0  0  0  0  0
    7.5200   -0.3740   -1.5760 O   0  0  0  0  0  0  0  0  0  0  0  0
  1  2  1  0
  2  3  1  0
  2 18  1  0
  3  4  1  0
  4  5  2  0
  4 17  1  0
  5  6  1  0
  7  6  1  1
  6 16  2  0
  7  8  1  0
  7 15  1  0
  8  9  1  0
  9 10  1  0
 10 11  1  0
 11 12  1  1
 11 15  1  0
 12 13  2  0
 12 14  1  0
 16 17  1  0
 18 19  2  0
 18 20  1  0
 20 21  1  0
 21 22  1  0
 21 23  1  0
M  END
