
     RDKit          3D

 23 24  0  0  0  0  0  0  0  0999 V2000
   -2.9450    2.3890    0.1820 N   0  0  0  0  0  0  0  0  0  0  0  0
   -3.8100    1.4300    0.2050 C   0  0  0  0  0  0  0  0  0  0  0  0
   -5.1390    1.4760    0.7630 N   0  0  0  0  0  0  0  0  0  0  0  0
   -5.8390    0.4120    0.1210 C   0  0  2  0  0  0  0  0  0  0  0  0
   -6.7590   -0.3920    1.0030 C   0  0  0  0  0  0  0  0  0  0  0  0
   -6.6670   -1.6420    0.2740 O   0  0  0  0  0  0  0  0  0  0  0  0
   -5.3040   -1.7690   -0.0140 N   0  0  0  0  0  0  0  0  0  0  0  0
   -4.7590   -0.6280   -0.1150 C   0  0  0  0  0  0  0  0  0  0  0  0
   -3.5710    0.1280   -0.3410 N   0  0  0  0  0  0  0  0  0  0  0  0
   -2.3740   -0.3050   -0.9790 C   0  0  0  0  0  0  0  0  0  0  0  0
   -1.2190   -0.2240   -0.3930 C   0  0  0  0  0  0  0  0  0  0  0  0
   -0.0100   -0.6730   -1.0650 C   0  0  0  0  0  0  0  0  0  0  0  0
   -0.0960   -1.1480   -2.2380 O   0  0  0  0  0  0  0  0  0  0  0  0
    1.2420   -0.6210   -0.5140 O   0  0  0  0  0  0  0  0  0  0  0  0
    2.4120   -1.0610   -1.1770 C   0  0  0  0  0  0  0  0  0  0  0  0
    3.6250   -0.8820   -0.3360 C   0  0  0  0  0  0  0  0  0  0  0  0
    3.4580   -0.3890    0.7950 O   0  0  0  0  0  0  0  0  0  0  0  0
    4.8720   -1.2710   -0.8510 N   0  0  0  0  0  0  0  0  0  0  0  0
    6.1090   -1.1520   -0.1810 C   0  0  0  0  0  0  0  0  0  0  0  0
    6.5610    0.1000   -0.0020 O   0  0  0  0  0  0  0  0  0  0  0  0
    5.7220    1.2440    0.8830 P   0  0  0  0  0  0  0  0  0  0  0  0
    6.5880    1.8960    2.2320 O   0  0  0  0  0  0  0  0  0  0  0  0
    4.9830    2.4920   -0.0660 O   0  0  0  0  0  0  0  0  0  0  0  0
  1  2  2  0
  2  3  1  0
  2  9  1  0
  3  4  1  0
  4  5  1  1
  4  8  1  0
  5  6  1  0
  6  7  1  0
  7  8  2  0
  8  9  1  0
  9 10  1  0
 10 11  2  3
 11 12  1  0
 12 13  2  0
 12 14  1  0
 14 15  1  0
 15 16  1  0
 16 17  2  0
 16 18  1  0
 18 19  1  0
 19 20  1  0
 20 21  1  0
 21 22  1  0
 21 23  1  0
M  END
