
     RDKit          3D

 23 24  0  0  0  0  0  0  0  0999 V2000
   -1.3070    0.6280    3.4320 N   0  0  0  0  0  0  0  0  0  0  0  0
   -0.6030    0.3060    2.3440 C   0  0  0  0  0  0  0  0  0  0  0  0
    0.1890    1.3920    2.0840 N   0  0  0  0  0  0  0  0  0  0  0  0
    1.1730    1.4430    1.1270 C   0  0  0  0  0  0  0  0  0  0  0  0
    1.2950    0.3770    0.5240 O   0  0  0  0  0  0  0  0  0  0  0  0
    1.9790    2.6610    0.8770 C   0  0  0  0  0  0  0  0  0  0  0  0
    2.8640    2.2690   -0.1770 N   0  0  0  0  0  0  0  0  0  0  0  0
    2.8070    2.2710   -1.6170 C   0  0  0  0  0  0  0  0  0  0  0  0
    3.8290    1.1640   -1.5710 C   0  0  0  0  0  0  0  0  0  0  0  0
    4.1510    1.7080   -0.2460 C   0  0  0  0  0  0  0  0  0  0  0  0
    5.1080    1.7380    0.5810 O   0  0  0  0  0  0  0  0  0  0  0  0
   -0.9910   -0.9410    1.8660 N   0  0  0  0  0  0  0  0  0  0  0  0
   -2.2260   -0.9260    1.0680 C   0  0  0  0  0  0  0  0  0  0  0  0
   -2.0040   -0.2630   -0.2380 C   0  0  1  0  0  0  0  0  0  0  0  0
   -1.0070   -0.9470   -1.0430 N   0  0  0  0  0  0  0  0  0  0  0  0
   -1.6010   -2.1120   -1.6780 C   0  0  0  0  0  0  0  0  0  0  0  0
   -2.6330   -1.7330   -2.7120 C   0  0  0  0  0  0  0  0  0  0  0  0
   -3.4570   -0.6310   -2.2580 N   0  0  0  0  0  0  0  0  0  0  0  0
   -3.2820   -0.0580   -0.9580 C   0  0  0  0  0  0  0  0  0  0  0  0
   -4.1760    0.6070   -0.4180 O   0  0  0  0  0  0  0  0  0  0  0  0
   -0.0850   -2.4310    2.2200 P   0  0  0  0  0  0  0  0  0  0  0  0
    0.8430   -2.8990    0.8070 O   0  0  0  0  0  0  0  0  0  0  0  0
    1.0030   -2.1560    3.5250 O   0  0  0  0  0  0  0  0  0  0  0  0
  1  2  2  0
  2  3  1  0
  2 12  1  0
  3  4  1  0
  4  5  2  0
  4  6  1  0
  6  7  1  0
  7  8  1  0
  7 10  1  0
  8  9  1  0
  9 10  1  0
 10 11  2  0
 12 13  1  0
 12 21  1  0
 14 13  1  1
 14 15  1  0
 14 19  1  0
 15 16  1  0
 16 17  1  0
 17 18  1  0
 18 19  1  0
 19 20  2  0
 21 22  1  0
 21 23  1  0
M  END
