
     RDKit          3D

 24 24  0  0  0  0  0  0  0  0999 V2000
    5.3660   -1.2870   -0.3970 O   0  0  0  0  0  0  0  0  0  0  0  0
    4.3110   -0.2690   -0.0430 P   0  0  2  0  0  0  0  0  0  0  0  0
    4.7870    1.2970   -0.4100 O   0  0  0  0  0  0  0  0  0  0  0  0
    4.0060   -0.3630    1.6230 O   0  0  0  0  0  0  0  0  0  0  0  0
    2.8430   -0.5830   -0.8290 O   0  0  0  0  0  0  0  0  0  0  0  0
    1.7740   -0.3190    0.0280 C   0  0  1  0  0  0  0  0  0  0  0  0
    0.9360    0.7500   -0.5700 C   0  0  2  0  0  0  0  0  0  0  0  0
    1.5420    1.9850   -0.2700 O   0  0  0  0  0  0  0  0  0  0  0  0
   -0.4690    0.8150   -0.0740 C   0  0  1  0  0  0  0  0  0  0  0  0
   -1.2090    1.6090   -0.9640 O   0  0  0  0  0  0  0  0  0  0  0  0
   -1.7870    2.9660   -0.1220 P   0  0  2  0  0  0  0  0  0  0  0  0
   -0.6150    3.5250    0.6760 O   0  0  0  0  0  0  0  0  0  0  0  0
   -2.9510    2.4390    0.9620 O   0  0  0  0  0  0  0  0  0  0  0  0
   -2.3770    4.1290   -1.1830 O   0  0  0  0  0  0  0  0  0  0  0  0
   -1.1030   -0.5460    0.0940 C   0  0  2  0  0  0  0  0  0  0  0  0
   -2.3810   -0.4110    0.5790 O   0  0  0  0  0  0  0  0  0  0  0  0
   -3.4620   -1.1420   -0.5000 P   0  0  2  0  0  0  0  0  0  0  0  0
   -4.1650   -0.0690   -1.2950 O   0  0  0  0  0  0  0  0  0  0  0  0
   -4.5890   -2.0800    0.3410 O   0  0  0  0  0  0  0  0  0  0  0  0
   -2.6510   -2.1390   -1.5980 O   0  0  0  0  0  0  0  0  0  0  0  0
   -0.1960   -1.2910    1.0840 C   0  0  1  0  0  0  0  0  0  0  0  0
   -0.8180   -2.4330    1.5640 O   0  0  0  0  0  0  0  0  0  0  0  0
    1.0520   -1.6110    0.2870 C   0  0  1  0  0  0  0  0  0  0  0  0
    0.6870   -2.1450   -0.9460 O   0  0  0  0  0  0  0  0  0  0  0  0
  1  2  2  0
  2  3  1  1
  2  4  1  0
  2  5  1  0
  6  5  1  6
  6  7  1  0
  6 23  1  0
  7  8  1  1
  7  9  1  0
  9 10  1  6
  9 15  1  0
 10 11  1  0
 11 12  2  0
 11 13  1  1
 11 14  1  0
 15 16  1  1
 15 21  1  0
 16 17  1  0
 17 18  2  0
 17 19  1  1
 17 20  1  0
 21 22  1  6
 21 23  1  0
 23 24  1  6
M  END
