
     RDKit          3D

 23 24  0  0  0  0  0  0  0  0999 V2000
    5.2950   -4.2150   -0.7240 O   0  0  0  0  0  0  0  0  0  0  0  0
    4.2990   -3.2820   -1.5140 P   0  0  0  0  0  0  0  0  0  0  0  0
    3.9170   -1.7330   -0.8070 O   0  0  0  0  0  0  0  0  0  0  0  0
    2.6360   -1.3680   -0.3380 C   0  0  0  0  0  0  0  0  0  0  0  0
    1.7250   -2.2080   -0.4570 O   0  0  0  0  0  0  0  0  0  0  0  0
    2.4360   -0.0960    0.2440 N   0  0  0  0  0  0  0  0  0  0  0  0
    1.2500    0.4320    0.7620 C   0  0  0  0  0  0  0  0  0  0  0  0
    0.0880    0.7070   -0.0770 C   0  0  1  0  0  0  0  0  0  0  0  0
   -0.6220   -0.3790   -0.7870 C   0  0  0  0  0  0  0  0  0  0  0  0
   -0.4570   -0.5390   -2.0130 O   0  0  0  0  0  0  0  0  0  0  0  0
   -1.5380   -1.2680   -0.1300 N   0  0  0  0  0  0  0  0  0  0  0  0
   -2.3800   -2.2250   -0.7820 C   0  0  0  0  0  0  0  0  0  0  0  0
   -2.3740   -2.5020   -2.0190 O   0  0  0  0  0  0  0  0  0  0  0  0
   -3.2890   -2.8770    0.1590 C   0  0  0  0  0  0  0  0  0  0  0  0
   -2.9760   -2.3020    1.4390 N   0  0  0  0  0  0  0  0  0  0  0  0
   -1.9240   -1.3350    1.2320 C   0  0  0  0  0  0  0  0  0  0  0  0
   -1.4710   -0.6760    2.2080 O   0  0  0  0  0  0  0  0  0  0  0  0
   -0.9310    1.5940    0.4570 N   0  0  0  0  0  0  0  0  0  0  0  0
   -0.8020    2.9550    0.4600 C   0  0  0  0  0  0  0  0  0  0  0  0
    0.5660    3.5530    0.2950 C   0  0  0  0  0  0  0  0  0  0  0  0
    1.2010    2.8430   -0.7910 N   0  0  0  0  0  0  0  0  0  0  0  0
    0.7020    1.6110   -1.2020 C   0  0  0  0  0  0  0  0  0  0  0  0
    0.7000    1.1820   -2.3720 O   0  0  0  0  0  0  0  0  0  0  0  0
  1  2  2  0
  2  3  1  0
  3  4  1  0
  4  5  2  0
  4  6  1  0
  6  7  1  0
  8  7  1  1
  8  9  1  0
  8 18  1  0
  8 22  1  0
  9 10  2  0
  9 11  1  0
 11 12  1  0
 11 16  1  0
 12 13  2  0
 12 14  1  0
 14 15  1  0
 15 16  1  0
 16 17  2  0
 18 19  1  0
 19 20  1  0
 20 21  1  0
 21 22  1  0
 22 23  2  0
M  END
