
     RDKit          3D

 23 24  0  0  0  0  0  0  0  0999 V2000
    3.7570   -0.0800    1.6560 N   0  0  0  0  0  0  0  0  0  0  0  0
    3.2070    0.8490    0.9330 C   0  0  0  0  0  0  0  0  0  0  0  0
    1.8200    0.8350    0.6710 N   0  0  0  0  0  0  0  0  0  0  0  0
    1.0650   -0.3850    0.7770 C   0  0  2  0  0  0  0  0  0  0  0  0
    1.6480   -1.3750   -0.1910 C   0  0  0  0  0  0  0  0  0  0  0  0
    0.6300   -1.9320   -1.0940 N   0  0  0  0  0  0  0  0  0  0  0  0
   -0.6370   -2.1850   -0.5060 C   0  0  0  0  0  0  0  0  0  0  0  0
   -1.4220   -3.0070   -1.0310 O   0  0  0  0  0  0  0  0  0  0  0  0
   -0.9310   -1.4220    0.7310 C   0  0  2  0  0  0  0  0  0  0  0  0
   -2.3860   -1.3020    1.0220 C   0  0  0  0  0  0  0  0  0  0  0  0
   -3.1350   -0.6120   -0.0610 C   0  0  0  0  0  0  0  0  0  0  0  0
   -2.5080   -0.2130   -1.0710 O   0  0  0  0  0  0  0  0  0  0  0  0
   -4.5280   -0.3820   -0.0080 N   0  0  0  0  0  0  0  0  0  0  0  0
   -5.2620    0.2780   -1.0380 C   0  0  0  0  0  0  0  0  0  0  0  0
   -6.0010    1.3820   -1.0610 C   0  0  0  0  0  0  0  0  0  0  0  0
   -6.3050    1.2330   -2.4650 C   0  0  0  0  0  0  0  0  0  0  0  0
   -6.9680    1.8530   -3.3430 O   0  0  0  0  0  0  0  0  0  0  0  0
   -5.5280    0.1030   -2.3690 O   0  0  0  0  0  0  0  0  0  0  0  0
   -0.3000   -0.1810    0.5820 O   0  0  0  0  0  0  0  0  0  0  0  0
    4.0650    1.8880    0.4140 N   0  0  0  0  0  0  0  0  0  0  0  0
    5.8250    1.6720    0.5580 P   0  0  0  0  0  0  0  0  0  0  0  0
    6.4860    0.7050   -0.7150 O   0  0  0  0  0  0  0  0  0  0  0  0
    6.6420    3.1670    0.7440 O   0  0  0  0  0  0  0  0  0  0  0  0
  1  2  2  0
  2  3  1  0
  2 20  1  0
  4  3  1  6
  4  5  1  0
  4 19  1  0
  5  6  1  0
  6  7  1  0
  7  8  2  0
  7  9  1  0
  9 10  1  6
  9 19  1  0
 10 11  1  0
 11 12  2  0
 11 13  1  0
 13 14  1  0
 14 15  2  0
 14 18  1  0
 15 16  1  0
 16 17  2  0
 16 18  1  0
 20 21  1  0
 21 22  1  0
 21 23  1  0
M  END
