
     RDKit          3D

 23 24  0  0  0  0  0  0  0  0999 V2000
    3.2210    1.2190    1.2960 N   0  0  0  0  0  0  0  0  0  0  0  0
    2.8960    1.0720    0.0610 C   0  0  0  0  0  0  0  0  0  0  0  0
    1.5260    0.9240   -0.3440 N   0  0  0  0  0  0  0  0  0  0  0  0
    0.6530    0.1460    0.4670 C   0  0  0  0  0  0  0  0  0  0  0  0
    1.0440   -0.4720    1.5900 N   0  0  0  0  0  0  0  0  0  0  0  0
    0.1810   -1.2010    2.3190 C   0  0  0  0  0  0  0  0  0  0  0  0
   -1.1360   -1.3300    1.9230 C   0  0  0  0  0  0  0  0  0  0  0  0
   -2.0790   -2.1180    2.7070 C   0  0  0  0  0  0  0  0  0  0  0  0
   -3.4160   -2.2210    2.2620 N   0  0  0  0  0  0  0  0  0  0  0  0
   -1.7100   -2.6970    3.7600 O   0  0  0  0  0  0  0  0  0  0  0  0
   -1.5290   -0.6910    0.7660 C   0  0  0  0  0  0  0  0  0  0  0  0
   -0.6620    0.0620    0.0030 C   0  0  0  0  0  0  0  0  0  0  0  0
   -1.0730    0.7010   -1.1610 O   0  0  0  0  0  0  0  0  0  0  0  0
   -2.4670    0.8790   -1.3370 C   0  0  1  0  0  0  0  0  0  0  0  0
   -2.8260    1.4510   -2.6230 C   0  0  0  0  0  0  0  0  0  0  0  0
   -1.9560    1.7480   -3.4750 O   0  0  0  0  0  0  0  0  0  0  0  0
   -4.1510    1.6840   -2.9410 O   0  0  0  0  0  0  0  0  0  0  0  0
   -3.1330   -0.4470   -1.0530 C   0  0  0  0  0  0  0  0  0  0  0  0
   -2.8550   -0.7760    0.2990 O   0  0  0  0  0  0  0  0  0  0  0  0
    3.9630    1.0680   -0.8990 N   0  0  0  0  0  0  0  0  0  0  0  0
    5.6890    0.8740   -0.4030 P   0  0  0  0  0  0  0  0  0  0  0  0
    5.8820   -0.6030    0.5140 O   0  0  0  0  0  0  0  0  0  0  0  0
    6.6420    0.7160   -1.8330 O   0  0  0  0  0  0  0  0  0  0  0  0
  1  2  2  0
  2  3  1  0
  2 20  1  0
  3  4  1  0
  4  5  2  0
  4 12  1  0
  5  6  1  0
  6  7  2  0
  7  8  1  0
  7 11  1  0
  8  9  1  0
  8 10  2  0
 11 12  2  0
 11 19  1  0
 12 13  1  0
 13 14  1  0
 14 15  1  6
 14 18  1  0
 15 16  2  0
 15 17  1  0
 18 19  1  0
 20 21  1  0
 21 22  1  0
 21 23  1  0
M  END
