
     RDKit          3D

 23 24  0  0  0  0  0  0  0  0999 V2000
   -0.7000   -2.9980   -0.6960 O   0  0  0  0  0  0  0  0  0  0  0  0
   -1.1710   -3.0060    0.4650 C   0  0  0  0  0  0  0  0  0  0  0  0
   -1.8200   -4.1670    0.9410 O   0  0  0  0  0  0  0  0  0  0  0  0
   -1.1010   -1.9100    1.3650 N   0  0  0  0  0  0  0  0  0  0  0  0
   -0.4690   -0.6930    0.9730 C   0  0  2  0  0  0  0  0  0  0  0  0
   -0.6550    0.2400    2.1160 N   0  0  0  0  0  0  0  0  0  0  0  0
   -2.0070    0.5760    2.0460 N   0  0  0  0  0  0  0  0  0  0  0  0
   -2.3800    0.4950    0.7750 C   0  0  0  0  0  0  0  0  0  0  0  0
   -3.7330    0.7760    0.3040 C   0  0  0  0  0  0  0  0  0  0  0  0
   -3.9330    2.0390   -0.4570 C   0  0  0  0  0  0  0  0  0  0  0  0
   -5.3020    2.1600   -0.8200 O   0  0  0  0  0  0  0  0  0  0  0  0
   -1.2620    0.1060    0.0140 N   0  0  0  0  0  0  0  0  0  0  0  0
   -0.7860    0.3130   -1.3010 C   0  0  0  0  0  0  0  0  0  0  0  0
    0.6560    0.8400   -1.3240 C   0  0  0  0  0  0  0  0  0  0  0  0
    1.4810    0.0730   -0.4160 N   0  0  0  0  0  0  0  0  0  0  0  0
    2.9070    0.1640   -0.4500 C   0  0  0  0  0  0  0  0  0  0  0  0
    3.3960    0.9660   -1.3180 O   0  0  0  0  0  0  0  0  0  0  0  0
    3.8260   -0.5740    0.4130 C   0  0  0  0  0  0  0  0  0  0  0  0
    5.5820   -0.0610    0.0690 P   0  0  0  0  0  0  0  0  0  0  0  0
    6.0290    1.1670    1.2110 O   0  0  0  0  0  0  0  0  0  0  0  0
    5.7750    0.4880   -1.5590 O   0  0  0  0  0  0  0  0  0  0  0  0
    0.9200   -0.7920    0.5590 C   0  0  0  0  0  0  0  0  0  0  0  0
    1.6450   -1.6690    1.0790 O   0  0  0  0  0  0  0  0  0  0  0  0
  1  2  2  0
  2  3  1  0
  2  4  1  0
  5  4  1  1
  5  6  1  0
  5 12  1  0
  5 22  1  0
  6  7  1  0
  7  8  2  0
  8  9  1  0
  8 12  1  0
  9 10  1  0
 10 11  1  0
 12 13  1  0
 13 14  1  0
 14 15  1  0
 15 16  1  0
 15 22  1  0
 16 17  2  0
 16 18  1  0
 18 19  1  0
 19 20  1  0
 19 21  1  0
 22 23  2  0
M  END
