
     RDKit          3D

  9  9  0  0  0  0  0  0  0  0999 V2000
   -2.0470   -1.1050   -0.2370 C   0  0  0  0  0  0  0  0  0  0  0  0
   -1.1220   -0.6170    0.7630 N   0  0  0  0  0  0  0  0  0  0  0  0
   -0.2870    0.5090    0.4470 C   0  0  0  0  0  0  0  0  0  0  0  0
   -0.5720    1.7900    0.6350 C   0  0  0  0  0  0  0  0  0  0  0  0
    0.5590    2.5630    0.1710 C   0  0  0  0  0  0  0  0  0  0  0  0
    1.5220    1.7460   -0.2950 C   0  0  0  0  0  0  0  0  0  0  0  0
    1.0390    0.3770   -0.1480 C   0  0  0  0  0  0  0  0  0  0  0  0
    1.6930   -0.7210   -0.4910 C   0  0  0  0  0  0  0  0  0  0  0  0
    1.1220   -2.0040   -0.3000 N   0  0  0  0  0  0  0  0  0  0  0  0
  1  2  1  0
  2  3  1  0
  3  4  2  0
  3  7  1  0
  4  5  1  0
  5  6  2  0
  6  7  1  0
  7  8  2  3
  8  9  1  0
M  END
