
     RDKit          3D

  9  9  0  0  0  0  0  0  0  0999 V2000
   -3.2520    0.3660    0.4790 C   0  0  0  0  0  0  0  0  0  0  0  0
   -2.2660   -0.6940    0.5610 N   0  0  0  0  0  0  0  0  0  0  0  0
   -0.8880   -0.4260    0.2970 C   0  0  0  0  0  0  0  0  0  0  0  0
   -0.4410    0.8340   -0.0440 C   0  0  0  0  0  0  0  0  0  0  0  0
    0.9070    1.0970   -0.3030 C   0  0  0  0  0  0  0  0  0  0  0  0
    1.8230    0.0930   -0.2210 C   0  0  0  0  0  0  0  0  0  0  0  0
    3.2010    0.3590   -0.4850 N   0  0  0  0  0  0  0  0  0  0  0  0
    1.4070   -1.1720    0.1170 C   0  0  0  0  0  0  0  0  0  0  0  0
    0.0690   -1.4160    0.3700 C   0  0  0  0  0  0  0  0  0  0  0  0
  1  2  1  0
  2  3  1  0
  3  4  2  0
  3  9  1  0
  4  5  1  0
  5  6  2  0
  6  7  1  0
  6  8  1  0
  8  9  2  0
M  CHG  1   7   1
M  END
