
     RDKit          3D

  9  9  0  0  0  0  0  0  0  0999 V2000
    2.8890   -0.5750    0.3390 C   0  0  0  0  0  0  0  0  0  0  0  0
    1.6560   -0.5280   -0.3970 N   0  0  0  0  0  0  0  0  0  0  0  0
    0.9240    0.6700   -0.4250 C   0  0  0  0  0  0  0  0  0  0  0  0
   -0.3790    0.7180   -0.2220 C   0  0  0  0  0  0  0  0  0  0  0  0
   -1.2390    1.8900   -0.2270 C   0  0  0  0  0  0  0  0  0  0  0  0
   -2.4790    1.5060    0.0190 C   0  0  0  0  0  0  0  0  0  0  0  0
   -2.5110    0.0610    0.2000 C   0  0  0  0  0  0  0  0  0  0  0  0
   -1.2620   -0.4110    0.0570 C   0  0  0  0  0  0  0  0  0  0  0  0
   -0.9270   -1.7860    0.1710 N   0  0  0  0  0  0  0  0  0  0  0  0
  1  2  1  0
  2  3  1  0
  3  4  2  3
  4  5  1  0
  4  8  1  0
  5  6  2  0
  6  7  1  0
  7  8  2  0
  8  9  1  0
M  END
