
     RDKit          3D

  9  9  0  0  0  0  0  0  0  0999 V2000
   -2.8110    0.0850   -0.4240 C   0  0  0  0  0  0  0  0  0  0  0  0
   -2.0330   -0.2850    0.7410 N   0  0  0  0  0  0  0  0  0  0  0  0
   -0.6650   -0.1530    0.4230 C   0  0  0  0  0  0  0  0  0  0  0  0
    0.0330    0.9950    0.7280 C   0  0  0  0  0  0  0  0  0  0  0  0
    1.3670    1.1440    0.4270 C   0  0  0  0  0  0  0  0  0  0  0  0
    2.0660    0.1310   -0.2030 C   0  0  0  0  0  0  0  0  0  0  0  0
    3.4410    0.2500   -0.5290 N   0  0  0  0  0  0  0  0  0  0  0  0
    1.3530   -1.0210   -0.5060 C   0  0  0  0  0  0  0  0  0  0  0  0
    0.0200   -1.1710   -0.2050 C   0  0  0  0  0  0  0  0  0  0  0  0
  1  2  1  0
  2  3  1  0
  3  4  2  0
  3  9  1  0
  4  5  1  0
  5  6  2  0
  6  7  1  0
  6  8  1  0
  8  9  2  0
M  CHG  1   2   1
M  END
