
     RDKit          3D

 23 26  0  0  0  0  0  0  0  0999 V2000
   -0.9480    4.1490    0.6320 C   0  0  0  0  0  0  0  0  0  0  0  0
   -0.8870    2.7390    0.8880 O   0  0  0  0  0  0  0  0  0  0  0  0
   -1.3630    1.8050   -0.0180 C   0  0  0  0  0  0  0  0  0  0  0  0
   -1.8530    2.2700   -1.0790 O   0  0  0  0  0  0  0  0  0  0  0  0
   -1.3320    0.3550    0.1770 C   0  0  1  0  0  0  0  0  0  0  0  0
   -2.0940   -0.3820   -0.9400 C   0  0  2  0  0  0  0  0  0  0  0  0
   -3.4000    0.3190   -1.1350 C   0  0  0  0  0  0  0  0  0  0  0  0
   -2.3720   -1.7240   -0.3420 C   0  0  0  0  0  0  0  0  0  0  0  0
   -3.4370   -2.4710   -0.1460 C   0  0  0  0  0  0  0  0  0  0  0  0
   -3.0190   -3.7440    0.5250 C   0  0  0  0  0  0  0  0  0  0  0  0
   -1.5530   -3.5860    0.6730 C   0  0  0  0  0  0  0  0  0  0  0  0
   -1.1930   -2.4150    0.1670 C   0  0  0  0  0  0  0  0  0  0  0  0
    0.1070   -1.7040    0.0120 C   0  0  0  0  0  0  0  0  0  0  0  0
    0.0420   -0.2490    0.3620 C   0  0  2  0  0  0  0  0  0  0  0  0
    0.3030   -0.1560    1.8590 C   0  0  0  0  0  0  0  0  0  0  0  0
    1.7220   -0.3250    2.2360 C   0  0  0  0  0  0  0  0  0  0  0  0
    2.6660    0.5900    1.4870 C   0  0  0  0  0  0  0  0  0  0  0  0
    2.4900    0.3370    0.0320 C   0  0  2  0  0  0  0  0  0  0  0  0
    3.0920   -0.9370   -0.3950 C   0  0  0  0  0  0  0  0  0  0  0  0
    3.1340    1.4400   -0.8270 C   0  0  0  0  0  0  0  0  0  0  0  0
    2.3320    1.3900   -2.1120 C   0  0  0  0  0  0  0  0  0  0  0  0
    1.0960    0.5260   -1.8160 C   0  0  0  0  0  0  0  0  0  0  0  0
    1.0500    0.5760   -0.3300 C   0  0  1  0  0  0  0  0  0  0  0  0
  1  2  1  0
  2  3  1  0
  3  4  2  0
  5  3  1  6
  5  6  1  0
  5 14  1  0
  6  7  1  1
  6  8  1  0
  8  9  2  0
  8 12  1  0
  9 10  1  0
 10 11  1  0
 11 12  2  0
 12 13  1  0
 14 13  1  6
 14 15  1  0
 14 23  1  0
 15 16  1  0
 16 17  1  0
 17 18  1  0
 18 19  1  6
 18 20  1  0
 18 23  1  0
 20 21  1  0
 21 22  1  0
 23 22  1  6
M  END
