
     RDKit          3D

  9  9  0  0  0  0  0  0  0  0999 V2000
    2.2890   -0.7360    0.9290 N   0  0  0  0  0  0  0  0  0  0  0  0
    1.5700    0.3000    0.2290 C   0  0  0  0  0  0  0  0  0  0  0  0
    2.1960    1.3610   -0.1610 N   0  0  0  0  0  0  0  0  0  0  0  0
    0.1480    0.1080   -0.0150 C   0  0  0  0  0  0  0  0  0  0  0  0
   -0.6710    0.9850   -0.6590 C   0  0  0  0  0  0  0  0  0  0  0  0
   -2.0330    0.7560   -0.8700 C   0  0  0  0  0  0  0  0  0  0  0  0
   -2.5910   -0.4170   -0.4070 C   0  0  0  0  0  0  0  0  0  0  0  0
   -1.8000   -1.3330    0.2500 C   0  0  0  0  0  0  0  0  0  0  0  0
   -0.4520   -1.0580    0.4330 C   0  0  0  0  0  0  0  0  0  0  0  0
  1  2  1  0
  2  3  2  0
  2  4  1  0
  4  5  2  0
  4  9  1  0
  5  6  1  0
  6  7  2  0
  7  8  1  0
  8  9  2  0
M  CHG  1   3   1
M  END
