
     RDKit          3D

  9  9  0  0  0  0  0  0  0  0999 V2000
    2.3610   -1.6180   -0.4040 N   0  0  0  0  0  0  0  0  0  0  0  0
    1.0530   -1.2630   -0.0510 C   0  0  0  0  0  0  0  0  0  0  0  0
    0.6620    0.0180    0.0210 C   0  0  0  0  0  0  0  0  0  0  0  0
    1.4630    1.2020   -0.2340 C   0  0  0  0  0  0  0  0  0  0  0  0
    0.6690    2.2410   -0.0440 C   0  0  0  0  0  0  0  0  0  0  0  0
   -0.6740    1.8320    0.3400 C   0  0  0  0  0  0  0  0  0  0  0  0
   -0.6580    0.5120    0.3730 C   0  0  0  0  0  0  0  0  0  0  0  0
   -1.8290   -0.3390    0.7210 C   0  0  0  0  0  0  0  0  0  0  0  0
   -2.1950   -1.2340   -0.3600 N   0  0  0  0  0  0  0  0  0  0  0  0
  1  2  1  0
  2  3  2  3
  3  4  1  0
  3  7  1  0
  4  5  2  0
  5  6  1  0
  6  7  2  0
  7  8  1  0
  8  9  1  0
M  END
