
     RDKit          3D

 32 35  0  0  0  0  0  0  0  0999 V2000
    0.6560    2.9830   -1.2240 C   0  0  0  0  0  0  0  0  0  0  0  0
   -0.3550    1.8580   -1.0920 C   0  0  2  0  0  0  0  0  0  0  0  0
    0.0040    0.6940   -1.7090 O   0  0  0  0  0  0  0  0  0  0  0  0
    0.3950   -0.1930   -0.7690 N   0  0  0  0  0  0  0  0  0  0  0  0
    1.8180   -0.3100   -0.7480 C   0  0  2  0  0  0  0  0  0  0  0  0
    2.3170   -1.1840    0.1890 O   0  0  0  0  0  0  0  0  0  0  0  0
    3.6150   -1.2440    0.1540 O   0  0  0  0  0  0  0  0  0  0  0  0
    4.1100   -2.5130   -0.1150 C   0  0  0  0  0  0  0  0  0  0  0  0
    5.5100   -2.4180   -0.1200 O   0  0  0  0  0  0  0  0  0  0  0  0
    2.5340    0.8480   -0.6760 O   0  0  0  0  0  0  0  0  0  0  0  0
    3.5210    0.6910   -1.5520 O   0  0  0  0  0  0  0  0  0  0  0  0
    3.0080    0.0100   -2.5480 O   0  0  0  0  0  0  0  0  0  0  0  0
    2.1910   -0.8370   -2.0090 O   0  0  0  0  0  0  0  0  0  0  0  0
   -0.2500    0.1950    0.4160 C   0  0  2  0  0  0  0  0  0  0  0  0
    0.5380   -0.0170    1.6890 C   0  0  0  0  0  0  0  0  0  0  0  0
   -0.2980    0.4400    2.7360 O   0  0  0  0  0  0  0  0  0  0  0  0
    0.3070    0.2960    3.9040 O   0  0  0  0  0  0  0  0  0  0  0  0
   -1.4730   -0.6080    0.5740 N   0  0  0  0  0  0  0  0  0  0  0  0
   -1.7260   -1.9680    0.2990 C   0  0  0  0  0  0  0  0  0  0  0  0
   -3.2030   -2.6140    0.5820 P   0  0  0  0  0  0  0  0  0  0  0  0
   -4.5950   -1.8710    1.1980 O   0  0  0  0  0  0  0  0  0  0  0  0
   -0.6890   -2.8500   -0.2650 C   0  0  2  0  0  0  0  0  0  0  0  0
   -0.3540   -2.5510   -1.5800 O   0  0  0  0  0  0  0  0  0  0  0  0
   -1.2040   -4.1690   -0.3110 O   0  0  0  0  0  0  0  0  0  0  0  0
   -2.3790    0.3870    1.1140 C   0  0  0  0  0  0  0  0  0  0  0  0
   -3.2660    0.1410    1.9570 O   0  0  0  0  0  0  0  0  0  0  0  0
   -2.0280    1.6150    0.4900 N   0  0  0  0  0  0  0  0  0  0  0  0
   -2.6060    2.8590    0.0110 C   0  0  2  0  0  0  0  0  0  0  0  0
   -3.9580    2.9000    0.0590 O   0  0  0  0  0  0  0  0  0  0  0  0
   -1.9720    2.5790   -1.7560 P   0  0  0  0  0  0  0  0  0  0  0  0
   -1.7300    4.0620   -2.5670 O   0  0  0  0  0  0  0  0  0  0  0  0
   -0.6680    1.5770    0.2720 N   0  0  0  0  0  0  0  0  0  0  0  0
  2  1  1  1
  2  3  1  0
  2 30  1  0
  2 32  1  0
  3  4  1  0
  4  5  1  0
  4 14  1  0
  5  6  1  1
  5 10  1  0
  5 13  1  0
  6  7  1  0
  7  8  1  0
  8  9  1  0
 10 11  1  0
 11 12  1  0
 12 13  1  0
 14 15  1  1
 14 18  1  0
 14 32  1  0
 15 16  1  0
 16 17  1  0
 18 19  1  0
 18 25  1  0
 19 20  2  3
 19 22  1  0
 20 21  1  0
 22 23  1  6
 22 24  1  0
 25 26  2  0
 25 27  1  0
 27 28  1  0
 27 32  1  0
 28 29  1  6
 28 30  1  0
 30 31  1  0
M  END
