
     RDKit          3D

 32 33  0  0  0  0  0  0  0  0999 V2000
   -5.6480    0.9080    0.8230 C   0  0  0  0  0  0  0  0  0  0  0  0
   -5.0710   -0.7350    1.4050 P   0  0  0  0  0  0  0  0  0  0  0  0
   -4.4750   -0.5550    3.0340 O   0  0  0  0  0  0  0  0  0  0  0  0
   -3.6130   -1.6960    0.1330 P   0  0  0  0  0  0  0  0  0  0  0  0
   -3.6540   -1.3140   -1.5050 O   0  0  0  0  0  0  0  0  0  0  0  0
   -3.3450   -0.0760   -1.9350 C   0  0  2  0  0  0  0  0  0  0  0  0
   -4.5720    0.6340   -2.0510 O   0  0  0  0  0  0  0  0  0  0  0  0
   -2.8640   -0.1330   -3.4030 C   0  0  0  0  0  0  0  0  0  0  0  0
   -2.8650    1.1490   -3.9220 O   0  0  0  0  0  0  0  0  0  0  0  0
   -2.4810    0.7480   -1.1650 N   0  0  0  0  0  0  0  0  0  0  0  0
   -1.5400    0.5300   -0.1330 C   0  0  0  0  0  0  0  0  0  0  0  0
   -1.2950    1.5170    0.5650 O   0  0  0  0  0  0  0  0  0  0  0  0
   -0.8360   -0.6990    0.2050 C   0  0  1  0  0  0  0  0  0  0  0  0
   -0.4040   -1.4800   -0.8580 O   0  0  0  0  0  0  0  0  0  0  0  0
    0.2600   -0.5590    1.1870 C   0  0  0  0  0  0  0  0  0  0  0  0
    1.4920   -0.0440    0.7860 N   0  0  0  0  0  0  0  0  0  0  0  0
    1.6480    1.2850    0.3820 C   0  0  0  0  0  0  0  0  0  0  0  0
    3.4430    1.6510    0.0300 P   0  0  0  0  0  0  0  0  0  0  0  0
    3.5130    2.9380   -1.1310 O   0  0  0  0  0  0  0  0  0  0  0  0
    3.9370    4.0090   -0.4520 O   0  0  0  0  0  0  0  0  0  0  0  0
    5.1940    3.6950    0.0230 C   0  0  0  0  0  0  0  0  0  0  0  0
    5.2200    3.0370    1.2260 O   0  0  0  0  0  0  0  0  0  0  0  0
    4.2120    2.2700    1.4830 O   0  0  0  0  0  0  0  0  0  0  0  0
    2.5010   -0.9900    0.4390 C   0  0  1  0  0  0  0  0  0  0  0  0
    2.7180   -1.8200    1.6350 N   0  0  0  0  0  0  0  0  0  0  0  0
    3.9760   -3.0650    1.3370 P   0  0  0  0  0  0  0  0  0  0  0  0
    3.3570   -4.3250    0.3290 O   0  0  0  0  0  0  0  0  0  0  0  0
    4.4550   -3.7590    2.8450 O   0  0  0  0  0  0  0  0  0  0  0  0
    2.1840   -1.8510   -0.5910 O   0  0  0  0  0  0  0  0  0  0  0  0
    3.0770   -1.9020   -1.5370 O   0  0  0  0  0  0  0  0  0  0  0  0
   -1.9330   -1.5710    0.8370 C   0  0  0  0  0  0  0  0  0  0  0  0
   -1.6350   -2.1760    1.8270 O   0  0  0  0  0  0  0  0  0  0  0  0
  1  2  1  0
  2  3  1  0
  2  4  1  0
  4  5  1  0
  4 31  1  0
  5  6  1  0
  6  7  1  6
  6  8  1  0
  6 10  1  0
  8  9  1  0
 10 11  1  0
 11 12  2  0
 11 13  1  0
 13 14  1  6
 13 15  1  0
 13 31  1  0
 15 16  1  0
 16 17  1  0
 16 24  1  0
 17 18  1  0
 18 19  1  0
 18 23  1  0
 19 20  1  0
 20 21  1  0
 21 22  1  0
 22 23  1  0
 24 25  1  1
 24 29  1  0
 25 26  1  0
 26 27  1  0
 26 28  1  0
 29 30  1  0
 31 32  2  0
M  END
