
     RDKit          3D

 32 33  0  0  0  0  0  0  0  0999 V2000
   -4.6530    0.9580   -2.4980 C   0  0  0  0  0  0  0  0  0  0  0  0
   -3.4760    1.4600   -1.2220 P   0  0  0  0  0  0  0  0  0  0  0  0
   -2.3120    0.3040   -0.6980 N   0  0  0  0  0  0  0  0  0  0  0  0
   -2.7560   -0.8280   -0.0940 N   0  0  0  0  0  0  0  0  0  0  0  0
   -2.0660   -1.0060    1.1740 C   0  0  1  0  0  0  0  0  0  0  0  0
   -2.5630   -1.9910    1.9610 O   0  0  0  0  0  0  0  0  0  0  0  0
   -0.2570   -1.2790    0.7200 P   0  0  0  0  0  0  0  0  0  0  0  0
   -0.0410   -2.7490   -0.2990 C   0  0  0  0  0  0  0  0  0  0  0  0
    0.6000   -2.7750   -1.3810 O   0  0  0  0  0  0  0  0  0  0  0  0
   -0.6080   -3.9480    0.1130 O   0  0  0  0  0  0  0  0  0  0  0  0
    0.0320    0.3010   -0.2770 C   0  0  2  0  0  0  0  0  0  0  0  0
    1.2930    0.3830   -0.7620 O   0  0  0  0  0  0  0  0  0  0  0  0
    2.1480    0.3710    0.2670 O   0  0  0  0  0  0  0  0  0  0  0  0
    3.5190    0.1790    0.0960 C   0  0  0  0  0  0  0  0  0  0  0  0
    3.9000    0.0160   -1.1100 O   0  0  0  0  0  0  0  0  0  0  0  0
    4.4330    0.1620    1.1660 N   0  0  0  0  0  0  0  0  0  0  0  0
    5.8540   -0.0410    0.9410 C   0  0  1  0  0  0  0  0  0  0  0  0
    6.5080    1.0790    1.4490 O   0  0  0  0  0  0  0  0  0  0  0  0
    6.2360   -1.1990    1.6480 O   0  0  0  0  0  0  0  0  0  0  0  0
    6.9350   -2.3440    0.5530 P   0  0  0  0  0  0  0  0  0  0  0  0
    8.1500   -3.1820    1.0280 O   0  0  0  0  0  0  0  0  0  0  0  0
   -0.2940    1.3730    0.7760 C   0  0  0  0  0  0  0  0  0  0  0  0
   -1.6130    1.3680    1.0980 O   0  0  0  0  0  0  0  0  0  0  0  0
   -2.0850    0.3630    1.8690 C   0  0  1  0  0  0  0  0  0  0  0  0
   -3.4580    0.6220    2.0960 O   0  0  0  0  0  0  0  0  0  0  0  0
   -1.2900    0.2080    3.5240 P   0  0  0  0  0  0  0  0  0  0  0  0
   -2.3740    0.5570    4.8120 O   0  0  0  0  0  0  0  0  0  0  0  0
   -1.0500    0.2640   -1.3360 C   0  0  2  0  0  0  0  0  0  0  0  0
   -0.8540    1.2750   -2.4190 C   0  0  2  0  0  0  0  0  0  0  0  0
   -0.9670    2.5760   -2.0070 O   0  0  0  0  0  0  0  0  0  0  0  0
   -1.8450    1.0250   -3.3890 O   0  0  0  0  0  0  0  0  0  0  0  0
   -1.3260    0.6730   -4.5320 O   0  0  0  0  0  0  0  0  0  0  0  0
  1  2  1  0
  2  3  1  0
  3  4  1  0
 28  3  1  1
  4  5  1  0
  5  6  1  1
  5  7  1  0
  5 24  1  0
  7  8  1  0
  7 11  1  0
  8  9  2  0
  8 10  1  0
 11 12  1  6
 11 22  1  0
 11 28  1  0
 12 13  1  0
 13 14  1  0
 14 15  2  0
 14 16  1  0
 16 17  1  0
 17 18  1  1
 17 19  1  0
 19 20  1  0
 20 21  2  0
 22 23  1  0
 23 24  1  0
 24 25  1  1
 24 26  1  0
 26 27  1  0
 28 29  1  0
 29 30  1  1
 29 31  1  0
 31 32  1  0
M  END
