
     RDKit          3D

 32 33  0  0  0  0  0  0  0  0999 V2000
   -3.4660   -1.3370   -3.8600 C   0  0  0  0  0  0  0  0  0  0  0  0
   -3.6840   -0.3370   -2.9160 O   0  0  0  0  0  0  0  0  0  0  0  0
   -3.2580   -0.7020   -1.6480 C   0  0  2  0  0  0  0  0  0  0  0  0
   -3.5690    0.4070   -0.8180 O   0  0  0  0  0  0  0  0  0  0  0  0
   -1.8630   -0.8920   -1.7130 O   0  0  0  0  0  0  0  0  0  0  0  0
   -1.2610   -0.1660   -0.6510 C   0  0  2  0  0  0  0  0  0  0  0  0
    0.1830    0.1360   -0.8540 C   0  0  1  0  0  0  0  0  0  0  0  0
    0.3760    0.6040   -2.1360 O   0  0  0  0  0  0  0  0  0  0  0  0
    0.4020    1.4240    0.0090 C   0  0  0  0  0  0  0  0  0  0  0  0
    0.2750    1.3260    1.2310 O   0  0  0  0  0  0  0  0  0  0  0  0
    0.7180    2.6110   -0.5800 O   0  0  0  0  0  0  0  0  0  0  0  0
    0.9130    3.8060    0.0050 N   0  0  0  0  0  0  0  0  0  0  0  0
    2.0760    4.5470    0.1960 C   0  0  0  0  0  0  0  0  0  0  0  0
    2.0350    5.8790    0.8820 C   0  0  0  0  0  0  0  0  0  0  0  0
    3.1820    4.1070   -0.2160 O   0  0  0  0  0  0  0  0  0  0  0  0
    1.1880   -0.8380   -0.4600 C   0  0  2  0  0  0  0  0  0  0  0  0
    0.9580   -1.3720    0.8360 O   0  0  0  0  0  0  0  0  0  0  0  0
    2.4260   -0.1680   -0.2590 O   0  0  0  0  0  0  0  0  0  0  0  0
    3.7850   -1.1720   -0.4460 P   0  0  0  0  0  0  0  0  0  0  0  0
    3.5400   -2.6490   -1.5130 C   0  0  0  0  0  0  0  0  0  0  0  0
    4.4780   -1.9130    1.5360 P   0  0  0  0  0  0  0  0  0  0  0  0
    4.2130   -3.6120    1.7080 O   0  0  0  0  0  0  0  0  0  0  0  0
    6.1400   -1.5480    1.6980 O   0  0  0  0  0  0  0  0  0  0  0  0
   -1.5200   -1.3350    0.7850 P   0  0  0  0  0  0  0  0  0  0  0  0
   -2.4290   -0.6190    2.1450 N   0  0  0  0  0  0  0  0  0  0  0  0
   -1.7970    0.0530    3.1650 O   0  0  0  0  0  0  0  0  0  0  0  0
   -1.8380   -0.6850    4.3180 N   0  0  0  0  0  0  0  0  0  0  0  0
   -3.8280   -0.8550    2.0310 C   0  0  0  0  0  0  0  0  0  0  0  0
   -4.6760    0.0640    2.3240 O   0  0  0  0  0  0  0  0  0  0  0  0
   -4.2090   -2.0910    1.6000 O   0  0  0  0  0  0  0  0  0  0  0  0
   -3.2770   -2.5840    0.1480 P   0  0  0  0  0  0  0  0  0  0  0  0
   -3.9340   -1.8240   -1.2590 O   0  0  0  0  0  0  0  0  0  0  0  0
  1  2  1  0
  2  3  1  0
  3  4  1  1
  3  5  1  0
  3 32  1  0
  6  5  1  6
  6  7  1  0
  6 24  1  0
  7  8  1  6
  7  9  1  0
  7 16  1  0
  9 10  2  0
  9 11  1  0
 11 12  1  0
 12 13  1  0
 13 14  1  0
 13 15  2  0
 16 17  1  1
 16 18  1  0
 18 19  1  0
 19 20  1  0
 19 21  1  0
 21 22  1  0
 21 23  1  0
 24 25  1  0
 24 31  1  0
 25 26  1  0
 25 28  1  0
 26 27  1  0
 28 29  2  0
 28 30  1  0
 30 31  1  0
 31 32  1  0
M  END
