
     RDKit          3D

 31 32  0  0  0  0  0  0  0  0999 V2000
    3.5110   -3.6160    0.8290 O   0  0  0  0  0  0  0  0  0  0  0  0
    3.8750   -3.3000   -0.3470 C   0  0  0  0  0  0  0  0  0  0  0  0
    4.4490   -4.2720   -1.2090 N   0  0  0  0  0  0  0  0  0  0  0  0
    4.5960   -5.5190   -0.7550 O   0  0  0  0  0  0  0  0  0  0  0  0
    3.6910   -1.9850   -0.7490 O   0  0  0  0  0  0  0  0  0  0  0  0
    3.1450   -1.0950    0.0920 O   0  0  0  0  0  0  0  0  0  0  0  0
    3.2770    0.2000   -0.3380 C   0  0  1  0  0  0  0  0  0  0  0  0
    2.0420    0.9080   -0.5080 N   0  0  0  0  0  0  0  0  0  0  0  0
    1.0720    1.1460    0.4560 C   0  0  0  0  0  0  0  0  0  0  0  0
   -0.0580    1.8970    0.0760 C   0  0  0  0  0  0  0  0  0  0  0  0
   -0.1410    2.3580   -1.2220 O   0  0  0  0  0  0  0  0  0  0  0  0
   -1.2680    3.1110   -1.6140 C   0  0  0  0  0  0  0  0  0  0  0  0
   -2.5280    2.3680   -1.4620 C   0  0  0  0  0  0  0  0  0  0  0  0
   -3.7830    2.8280   -1.7620 C   0  0  0  0  0  0  0  0  0  0  0  0
   -4.6400    1.8200   -1.4690 N   0  0  0  0  0  0  0  0  0  0  0  0
   -3.9660    0.7570   -1.0000 C   0  0  0  0  0  0  0  0  0  0  0  0
   -4.5520   -0.4280   -0.6130 O   0  0  0  0  0  0  0  0  0  0  0  0
   -3.8540   -1.5330   -0.1250 C   0  0  0  0  0  0  0  0  0  0  0  0
   -5.0740   -2.8840    0.2600 P   0  0  0  0  0  0  0  0  0  0  0  0
   -4.3180   -3.9750    1.4030 O   0  0  0  0  0  0  0  0  0  0  0  0
   -6.4830   -2.1760    1.0210 O   0  0  0  0  0  0  0  0  0  0  0  0
   -2.6670    1.1190   -1.0050 N   0  0  0  0  0  0  0  0  0  0  0  0
   -1.0010    2.1290    0.9960 N   0  0  0  0  0  0  0  0  0  0  0  0
   -0.9320    1.6870    2.2600 C   0  0  0  0  0  0  0  0  0  0  0  0
   -1.8660    1.9420    3.0920 O   0  0  0  0  0  0  0  0  0  0  0  0
    0.1440    0.9810    2.5940 N   0  0  0  0  0  0  0  0  0  0  0  0
    1.1700    0.6800    1.7470 C   0  0  0  0  0  0  0  0  0  0  0  0
    2.2460   -0.0650    2.1980 O   0  0  0  0  0  0  0  0  0  0  0  0
    4.4250    1.1490    0.7810 P   0  0  0  0  0  0  0  0  0  0  0  0
    6.0140    0.4580    0.7370 O   0  0  0  0  0  0  0  0  0  0  0  0
    4.4380    2.8260    0.3700 O   0  0  0  0  0  0  0  0  0  0  0  0
  1  2  2  0
  2  3  1  0
  2  5  1  0
  3  4  1  0
  5  6  1  0
  6  7  1  0
  7  8  1  1
  7 29  1  0
  8  9  1  0
  9 10  1  0
  9 27  2  0
 10 11  1  0
 10 23  2  0
 11 12  1  0
 12 13  1  0
 13 14  2  0
 13 22  1  0
 14 15  1  0
 15 16  1  0
 16 17  1  0
 16 22  2  0
 17 18  1  0
 18 19  1  0
 19 20  1  0
 19 21  1  0
 23 24  1  0
 24 25  2  0
 24 26  1  0
 26 27  1  0
 27 28  1  0
 29 30  1  0
 29 31  1  0
M  END
