
     RDKit          3D

 31 31  0  0  0  0  0  0  0  0999 V2000
    3.3880   -1.3570   -1.2450 N   0  0  0  0  0  0  0  0  0  0  0  0
    2.3900   -1.6180   -0.3880 C   0  0  0  0  0  0  0  0  0  0  0  0
    1.6360   -2.7740   -0.6820 N   0  0  0  0  0  0  0  0  0  0  0  0
    0.4030   -3.2950   -0.2570 C   0  0  0  0  0  0  0  0  0  0  0  0
    0.5750   -4.2500    0.6430 O   0  0  0  0  0  0  0  0  0  0  0  0
   -0.9610   -3.1020   -0.5130 N   0  0  0  0  0  0  0  0  0  0  0  0
   -1.7990   -1.9650   -0.5220 C   0  0  0  0  0  0  0  0  0  0  0  0
   -2.1880   -1.5850   -1.6950 O   0  0  0  0  0  0  0  0  0  0  0  0
   -2.3130   -1.1340    0.5810 C   0  0  2  0  0  0  0  0  0  0  0  0
   -1.5270   -1.0880    1.7020 O   0  0  0  0  0  0  0  0  0  0  0  0
   -3.9440   -1.8560    1.2480 P   0  0  0  0  0  0  0  0  0  0  0  0
   -5.1730   -1.7000    0.0230 O   0  0  0  0  0  0  0  0  0  0  0  0
   -4.4060   -0.8490    2.5890 O   0  0  0  0  0  0  0  0  0  0  0  0
   -2.8330    0.5030   -0.0580 P   0  0  0  0  0  0  0  0  0  0  0  0
   -4.2880    1.1050    0.6310 O   0  0  0  0  0  0  0  0  0  0  0  0
   -4.2180    2.4600    0.7670 N   0  0  0  0  0  0  0  0  0  0  0  0
   -1.6580    1.7010   -0.0910 O   0  0  0  0  0  0  0  0  0  0  0  0
   -0.9160    1.7410   -1.2910 C   0  0  0  0  0  0  0  0  0  0  0  0
    0.5060    2.0530   -0.7550 C   0  0  2  0  0  0  0  0  0  0  0  0
    0.3060    3.5130   -0.2310 C   0  0  0  0  0  0  0  0  0  0  0  0
    0.0100    4.3540   -1.2670 O   0  0  0  0  0  0  0  0  0  0  0  0
    1.4380    2.1620   -1.9230 C   0  0  0  0  0  0  0  0  0  0  0  0
    2.4600    1.4680   -2.0650 O   0  0  0  0  0  0  0  0  0  0  0  0
    1.1290    3.0910   -2.8860 O   0  0  0  0  0  0  0  0  0  0  0  0
    0.7900    1.1790    0.2290 N   0  0  0  0  0  0  0  0  0  0  0  0
    1.2730    0.2890    0.8990 C   0  0  0  0  0  0  0  0  0  0  0  0
    2.3460   -0.6610    0.6570 N   0  0  0  0  0  0  0  0  0  0  0  0
    3.4560   -0.5110    1.6330 C   0  0  0  0  0  0  0  0  0  0  0  0
    4.4670   -1.5800    1.5860 C   0  0  0  0  0  0  0  0  0  0  0  0
    5.5090   -1.5440    2.3180 O   0  0  0  0  0  0  0  0  0  0  0  0
    4.3550   -2.6740    0.7660 O   0  0  0  0  0  0  0  0  0  0  0  0
  1  2  2  0
  2  3  1  0
  2 27  1  0
  3  4  1  0
  4  5  2  0
  4  6  1  0
  6  7  1  0
  7  8  2  0
  7  9  1  0
  9 10  1  1
  9 11  1  0
  9 14  1  0
 11 12  1  0
 11 13  1  0
 14 15  1  0
 14 17  1  0
 15 16  1  0
 17 18  1  0
 18 19  1  0
 19 20  1  1
 19 22  1  0
 19 25  1  0
 20 21  1  0
 22 23  2  0
 22 24  1  0
 25 26  2  0
 26 27  1  0
 27 28  1  0
 28 29  1  0
 29 30  2  0
 29 31  1  0
M  END
