
     RDKit          3D

 31 31  0  0  0  0  0  0  0  0999 V2000
   -4.3290    3.7200   -0.1050 N   0  0  0  0  0  0  0  0  0  0  0  0
   -3.2360    3.1300   -0.8930 C   0  0  2  0  0  0  0  0  0  0  0  0
   -3.8540    2.3330   -2.0440 C   0  0  0  0  0  0  0  0  0  0  0  0
   -4.6010    3.2570   -2.7970 O   0  0  0  0  0  0  0  0  0  0  0  0
   -2.5190    2.3020   -0.0250 O   0  0  0  0  0  0  0  0  0  0  0  0
   -1.2560    2.3260    0.3000 N   0  0  0  0  0  0  0  0  0  0  0  0
   -0.2840    1.5680    0.4390 C   0  0  0  0  0  0  0  0  0  0  0  0
    0.9770    2.0760    0.8320 C   0  0  0  0  0  0  0  0  0  0  0  0
    1.0980    3.4560    1.0590 N   0  0  0  0  0  0  0  0  0  0  0  0
    1.8590    3.9320    1.9140 O   0  0  0  0  0  0  0  0  0  0  0  0
    2.0450    1.2390    0.9840 C   0  0  0  0  0  0  0  0  0  0  0  0
    1.9710   -0.1030    0.7740 N   0  0  0  0  0  0  0  0  0  0  0  0
    3.1130   -0.9310    0.9470 C   0  0  0  0  0  0  0  0  0  0  0  0
    3.5370   -1.2220    2.1150 N   0  0  0  0  0  0  0  0  0  0  0  0
    2.6880   -0.5850    3.5590 P   0  0  0  0  0  0  0  0  0  0  0  0
    3.6880    0.5900    4.3850 O   0  0  0  0  0  0  0  0  0  0  0  0
    2.3600   -1.9110    4.6310 O   0  0  0  0  0  0  0  0  0  0  0  0
    3.7670   -1.4210   -0.1590 O   0  0  0  0  0  0  0  0  0  0  0  0
    5.0570   -1.7660   -0.0440 O   0  0  0  0  0  0  0  0  0  0  0  0
    5.4140   -2.2360   -1.2300 O   0  0  0  0  0  0  0  0  0  0  0  0
    6.3980   -1.1140   -2.0930 P   0  0  0  0  0  0  0  0  0  0  0  0
    5.5360   -0.4590   -3.4300 O   0  0  0  0  0  0  0  0  0  0  0  0
    7.0050    0.1180   -1.0280 O   0  0  0  0  0  0  0  0  0  0  0  0
    0.7800   -0.6000    0.4010 C   0  0  0  0  0  0  0  0  0  0  0  0
   -0.3420    0.2140    0.2310 C   0  0  0  0  0  0  0  0  0  0  0  0
   -1.5710   -0.3740   -0.1650 N   0  0  0  0  0  0  0  0  0  0  0  0
   -1.5560   -1.8380   -0.3690 C   0  0  0  0  0  0  0  0  0  0  0  0
   -2.9270   -2.3180   -0.7860 C   0  0  2  0  0  0  0  0  0  0  0  0
   -3.8280   -1.9850    0.2370 O   0  0  0  0  0  0  0  0  0  0  0  0
   -2.9250   -3.8280   -0.8780 C   0  0  0  0  0  0  0  0  0  0  0  0
   -4.2130   -4.2770   -1.1780 O   0  0  0  0  0  0  0  0  0  0  0  0
  2  1  1  1
  2  3  1  0
  2  5  1  0
  3  4  1  0
  5  6  1  0
  6  7  2  3
  7  8  1  0
  7 25  1  0
  8  9  1  0
  8 11  2  0
  9 10  2  0
 11 12  1  0
 12 13  1  0
 12 24  1  0
 13 14  2  3
 13 18  1  0
 14 15  1  0
 15 16  1  0
 15 17  1  0
 18 19  1  0
 19 20  1  0
 20 21  1  0
 21 22  1  0
 21 23  1  0
 24 25  2  0
 25 26  1  0
 26 27  1  0
 27 28  1  0
 28 29  1  1
 28 30  1  0
 30 31  1  0
M  END
