
     RDKit          3D

 31 32  0  0  0  0  0  0  0  0999 V2000
   -3.3220    3.4160   -1.2990 O   0  0  0  0  0  0  0  0  0  0  0  0
   -3.4210    3.0040   -2.4810 C   0  0  0  0  0  0  0  0  0  0  0  0
   -2.9930    3.7960   -3.5300 O   0  0  0  0  0  0  0  0  0  0  0  0
   -4.0060    1.6470   -2.7700 C   0  0  0  0  0  0  0  0  0  0  0  0
   -4.3930    0.9820   -1.5560 N   0  0  0  0  0  0  0  0  0  0  0  0
   -3.3460    0.5530   -0.6520 C   0  0  0  0  0  0  0  0  0  0  0  0
   -2.2230    0.2010   -1.1220 N   0  0  0  0  0  0  0  0  0  0  0  0
   -1.1010   -0.2510   -0.2840 C   0  0  0  0  0  0  0  0  0  0  0  0
    0.1240   -0.3300   -0.9630 N   0  0  0  0  0  0  0  0  0  0  0  0
    1.4270   -0.3760   -0.5170 C   0  0  0  0  0  0  0  0  0  0  0  0
    1.7790   -0.3070    0.6290 O   0  0  0  0  0  0  0  0  0  0  0  0
    2.4410   -0.5170   -1.4910 O   0  0  0  0  0  0  0  0  0  0  0  0
    3.8030   -0.5730   -1.1420 C   0  0  1  0  0  0  0  0  0  0  0  0
    4.4480   -1.8690   -1.6340 C   0  0  0  0  0  0  0  0  0  0  0  0
    5.7790   -1.8530   -1.2580 O   0  0  0  0  0  0  0  0  0  0  0  0
    6.4200   -2.9220   -1.6350 O   0  0  0  0  0  0  0  0  0  0  0  0
    6.9630   -3.5660   -0.6180 O   0  0  0  0  0  0  0  0  0  0  0  0
    7.3680   -2.6920    0.2690 O   0  0  0  0  0  0  0  0  0  0  0  0
    4.5050    0.5390   -1.8140 C   0  0  0  0  0  0  0  0  0  0  0  0
    3.8440    1.3180   -2.5400 O   0  0  0  0  0  0  0  0  0  0  0  0
    5.8670    0.7820   -1.6940 O   0  0  0  0  0  0  0  0  0  0  0  0
   -1.3380   -0.2750    0.9900 C   0  0  0  0  0  0  0  0  0  0  0  0
   -0.3010   -0.7260    1.8990 N   0  0  0  0  0  0  0  0  0  0  0  0
   -0.1110   -0.1010    3.1650 C   0  0  0  0  0  0  0  0  0  0  0  0
   -1.4380    0.4490    3.6980 C   0  0  0  0  0  0  0  0  0  0  0  0
   -2.2250    1.1100    2.6870 N   0  0  0  0  0  0  0  0  0  0  0  0
   -2.5780    0.1250    1.6770 C   0  0  2  0  0  0  0  0  0  0  0  0
   -3.3410   -1.3020    2.6450 P   0  0  0  0  0  0  0  0  0  0  0  0
   -4.3930   -0.6060    3.8310 O   0  0  0  0  0  0  0  0  0  0  0  0
   -4.3330   -2.2420    1.5660 O   0  0  0  0  0  0  0  0  0  0  0  0
   -3.5800    0.5490    0.7480 N   0  0  0  0  0  0  0  0  0  0  0  0
  1  2  2  0
  2  3  1  0
  2  4  1  0
  4  5  1  0
  5  6  1  0
  6  7  2  0
  6 31  1  0
  7  8  1  0
  8  9  1  0
  8 22  2  0
  9 10  1  0
 10 11  2  0
 10 12  1  0
 12 13  1  0
 13 14  1  6
 13 19  1  0
 14 15  1  0
 15 16  1  0
 16 17  1  0
 17 18  1  0
 19 20  2  0
 19 21  1  0
 22 23  1  0
 22 27  1  0
 23 24  1  0
 24 25  1  0
 25 26  1  0
 26 27  1  0
 27 28  1  1
 27 31  1  0
 28 29  1  0
 28 30  1  0
M  END
