
     RDKit          3D

 30 31  0  0  0  0  0  0  0  0999 V2000
   -0.2150   -0.7570   -1.9210 O   0  0  0  0  0  0  0  0  0  0  0  0
   -1.0110   -0.6190   -0.9680 C   0  0  0  0  0  0  0  0  0  0  0  0
   -2.0970   -1.4820   -0.8180 N   0  0  0  0  0  0  0  0  0  0  0  0
   -2.3750   -2.5880   -1.7460 C   0  0  0  0  0  0  0  0  0  0  0  0
   -3.6000   -3.3260   -1.3180 C   0  0  0  0  0  0  0  0  0  0  0  0
   -3.4920   -3.8720   -0.0540 O   0  0  0  0  0  0  0  0  0  0  0  0
   -4.6100   -4.4890    0.2160 O   0  0  0  0  0  0  0  0  0  0  0  0
   -0.8090    0.4890    0.0390 C   0  0  2  0  0  0  0  0  0  0  0  0
   -2.0390    1.3220   -0.0280 C   0  0  0  0  0  0  0  0  0  0  0  0
   -1.7730    2.7360    0.2940 C   0  0  0  0  0  0  0  0  0  0  0  0
   -2.4770    3.3260    1.1310 O   0  0  0  0  0  0  0  0  0  0  0  0
   -0.6950    3.3840   -0.3850 N   0  0  0  0  0  0  0  0  0  0  0  0
   -0.7050    4.7510   -0.7660 C   0  0  0  0  0  0  0  0  0  0  0  0
   -0.1400    5.6690    0.2990 C   0  0  0  0  0  0  0  0  0  0  0  0
   -0.2160    6.9730   -0.2180 O   0  0  0  0  0  0  0  0  0  0  0  0
    0.4210    2.5410   -0.6300 C   0  0  0  0  0  0  0  0  0  0  0  0
    1.4590    2.9580   -1.2260 O   0  0  0  0  0  0  0  0  0  0  0  0
    0.3950    1.1910   -0.2040 N   0  0  0  0  0  0  0  0  0  0  0  0
    1.6580    0.5220    0.0070 C   0  0  0  0  0  0  0  0  0  0  0  0
    2.7370    1.1550   -0.2320 O   0  0  0  0  0  0  0  0  0  0  0  0
    1.7720   -0.8420    0.4810 C   0  0  0  0  0  0  0  0  0  0  0  0
    0.8400   -1.7530    0.8170 N   0  0  0  0  0  0  0  0  0  0  0  0
    1.4000   -2.8650    1.1960 O   0  0  0  0  0  0  0  0  0  0  0  0
    2.7000   -2.7470    1.1300 C   0  0  0  0  0  0  0  0  0  0  0  0
    3.7620   -3.7350    1.4550 C   0  0  0  0  0  0  0  0  0  0  0  0
    4.1520   -3.6490    2.7920 O   0  0  0  0  0  0  0  0  0  0  0  0
    4.6270   -2.4270    3.0450 O   0  0  0  0  0  0  0  0  0  0  0  0
    5.6110   -2.1930    2.1750 O   0  0  0  0  0  0  0  0  0  0  0  0
    5.7650   -0.9090    2.0720 O   0  0  0  0  0  0  0  0  0  0  0  0
    2.9440   -1.5170    0.6950 N   0  0  0  0  0  0  0  0  0  0  0  0
  1  2  2  0
  2  3  1  0
  8  2  1  6
  3  4  1  0
  4  5  1  0
  5  6  1  0
  6  7  1  0
  8  9  1  0
  8 18  1  0
  9 10  1  0
 10 11  2  0
 10 12  1  0
 12 13  1  0
 12 16  1  0
 13 14  1  0
 14 15  1  0
 16 17  2  0
 16 18  1  0
 18 19  1  0
 19 20  2  0
 19 21  1  0
 21 22  2  0
 21 30  1  0
 22 23  1  0
 23 24  1  0
 24 25  1  0
 24 30  2  0
 25 26  1  0
 26 27  1  0
 27 28  1  0
 28 29  1  0
M  END
