
     RDKit          3D

 30 30  0  0  0  0  0  0  0  0999 V2000
   -3.9250    1.9580    1.4030 C   0  0  0  0  0  0  0  0  0  0  0  0
   -4.1600    1.1050    0.2740 N   0  0  0  0  0  0  0  0  0  0  0  0
   -5.5300    0.7040   -0.0050 C   0  0  0  0  0  0  0  0  0  0  0  0
   -6.3160    1.8630   -0.4410 C   0  0  0  0  0  0  0  0  0  0  0  0
   -7.5240    1.7690   -0.7420 O   0  0  0  0  0  0  0  0  0  0  0  0
   -5.7140    3.1080   -0.5260 O   0  0  0  0  0  0  0  0  0  0  0  0
   -3.0670    0.6850   -0.5220 C   0  0  0  0  0  0  0  0  0  0  0  0
   -3.1980    0.5320   -1.7830 N   0  0  0  0  0  0  0  0  0  0  0  0
   -1.7770    0.4240    0.0570 N   0  0  0  0  0  0  0  0  0  0  0  0
   -0.6020    0.6000   -0.7240 C   0  0  0  0  0  0  0  0  0  0  0  0
   -0.6070    1.5170   -1.6140 N   0  0  0  0  0  0  0  0  0  0  0  0
    0.5140   -0.2030   -0.4970 N   0  0  0  0  0  0  0  0  0  0  0  0
    1.7900    0.4590   -0.1760 C   0  0  0  0  0  0  0  0  0  0  0  0
    2.8230   -0.1660   -1.0690 C   0  0  1  0  0  0  0  0  0  0  0  0
    3.6760   -0.9580   -0.3460 O   0  0  0  0  0  0  0  0  0  0  0  0
    5.0010   -0.6590   -0.4370 C   0  0  0  0  0  0  0  0  0  0  0  0
    5.3050    0.7080    0.0320 C   0  0  0  0  0  0  0  0  0  0  0  0
    6.4940    1.1600    0.0080 O   0  0  0  0  0  0  0  0  0  0  0  0
    4.2950    1.5220    0.5070 O   0  0  0  0  0  0  0  0  0  0  0  0
    4.5420    2.7660    0.9390 O   0  0  0  0  0  0  0  0  0  0  0  0
    5.7100    3.2150    0.5590 O   0  0  0  0  0  0  0  0  0  0  0  0
    6.3800    3.7540    1.5680 O   0  0  0  0  0  0  0  0  0  0  0  0
    2.2160   -0.8970   -2.1130 O   0  0  0  0  0  0  0  0  0  0  0  0
    1.5790   -2.0340   -1.6040 C   0  0  0  0  0  0  0  0  0  0  0  0
    0.5750   -1.6460   -0.5400 C   0  0  2  0  0  0  0  0  0  0  0  0
   -0.7560   -2.2890   -0.7430 C   0  0  0  0  0  0  0  0  0  0  0  0
   -0.5950   -3.6910   -0.7770 O   0  0  0  0  0  0  0  0  0  0  0  0
   -0.1030   -4.4710    0.2360 C   0  0  0  0  0  0  0  0  0  0  0  0
    0.2470   -3.9420    1.3090 O   0  0  0  0  0  0  0  0  0  0  0  0
    0.0290   -5.8640    0.1240 O   0  0  0  0  0  0  0  0  0  0  0  0
  1  2  1  0
  2  3  1  0
  2  7  1  0
  3  4  1  0
  4  5  2  0
  4  6  1  0
  7  8  2  0
  7  9  1  0
  9 10  1  0
 10 11  2  0
 10 12  1  0
 12 13  1  0
 12 25  1  0
 13 14  1  0
 14 15  1  1
 14 23  1  0
 15 16  1  0
 16 17  1  0
 17 18  2  0
 17 19  1  0
 19 20  1  0
 20 21  1  0
 21 22  1  0
 23 24  1  0
 24 25  1  0
 25 26  1  6
 26 27  1  0
 27 28  1  0
 28 29  2  0
 28 30  1  0
M  END
