
     RDKit          3D

 29 30  0  0  0  0  0  0  0  0999 V2000
   -3.8530   -3.2210    1.6920 C   0  0  0  0  0  0  0  0  0  0  0  0
   -3.0080   -2.1520    1.9880 O   0  0  0  0  0  0  0  0  0  0  0  0
   -2.6320   -1.4490    0.8650 C   0  0  1  0  0  0  0  0  0  0  0  0
   -3.1570   -0.0500    1.0120 C   0  0  0  0  0  0  0  0  0  0  0  0
   -4.2500    0.2830    0.3820 C   0  0  0  0  0  0  0  0  0  0  0  0
   -4.9460   -0.6400   -0.4330 O   0  0  0  0  0  0  0  0  0  0  0  0
   -6.0870   -0.2160   -1.0710 N   0  0  0  0  0  0  0  0  0  0  0  0
   -6.5900    1.1030   -0.9490 C   0  0  0  0  0  0  0  0  0  0  0  0
   -7.7870    1.4210   -1.0540 O   0  0  0  0  0  0  0  0  0  0  0  0
   -5.5860    2.1790   -0.6720 C   0  0  0  0  0  0  0  0  0  0  0  0
   -4.7920    1.6190    0.4940 C   0  0  0  0  0  0  0  0  0  0  0  0
   -4.6400    2.3390    1.5820 C   0  0  0  0  0  0  0  0  0  0  0  0
   -5.1970    3.5950    1.5720 F   0  0  0  0  0  0  0  0  0  0  0  0
   -4.0080    1.9630    2.7010 F   0  0  0  0  0  0  0  0  0  0  0  0
   -1.1450   -1.4290    0.7250 C   0  0  0  0  0  0  0  0  0  0  0  0
   -0.4590   -2.0140    1.5870 O   0  0  0  0  0  0  0  0  0  0  0  0
   -0.5330   -0.7700   -0.3460 N   0  0  0  0  0  0  0  0  0  0  0  0
    0.8600   -0.6680   -0.6070 C   0  0  0  0  0  0  0  0  0  0  0  0
    1.2890    0.0380   -1.7390 C   0  0  0  0  0  0  0  0  0  0  0  0
    2.6230    0.1710   -2.0450 C   0  0  0  0  0  0  0  0  0  0  0  0
    3.6180   -0.3760   -1.2660 C   0  0  0  0  0  0  0  0  0  0  0  0
    5.0490   -0.2140   -1.6230 C   0  0  0  0  0  0  0  0  0  0  0  0
    5.8200    1.2760   -0.8940 P   0  0  0  0  0  0  0  0  0  0  0  0
    7.1420    1.8810   -1.8050 O   0  0  0  0  0  0  0  0  0  0  0  0
    6.1180    1.1620    0.7830 O   0  0  0  0  0  0  0  0  0  0  0  0
    7.4610    1.3580    1.1110 C   0  0  0  0  0  0  0  0  0  0  0  0
    8.2980    0.4280    0.5090 O   0  0  0  0  0  0  0  0  0  0  0  0
    3.2060   -1.0700   -0.1540 C   0  0  0  0  0  0  0  0  0  0  0  0
    1.8550   -1.2090    0.1610 C   0  0  0  0  0  0  0  0  0  0  0  0
  1  2  1  0
  3  2  1  1
  3  4  1  0
  3 15  1  0
  4  5  2  3
  5  6  1  0
  5 11  1  0
  6  7  1  0
  7  8  1  0
  8  9  2  0
  8 10  1  0
 10 11  1  0
 11 12  2  3
 12 13  1  0
 12 14  1  0
 15 16  2  0
 15 17  1  0
 17 18  1  0
 18 19  2  0
 18 29  1  0
 19 20  1  0
 20 21  2  0
 21 22  1  0
 21 28  1  0
 22 23  1  0
 23 24  1  0
 23 25  1  0
 25 26  1  0
 26 27  1  0
 28 29  2  0
M  END
