
     RDKit          3D

 30 31  0  0  0  0  0  0  0  0999 V2000
    0.8690   -2.4290    0.1650 N   0  0  0  0  0  0  0  0  0  0  0  0
   -0.1320   -2.0770   -0.4210 C   0  0  0  0  0  0  0  0  0  0  0  0
   -0.8490   -2.5930   -1.6170 C   0  0  0  0  0  0  0  0  0  0  0  0
   -2.1970   -2.6190   -1.4900 O   0  0  0  0  0  0  0  0  0  0  0  0
   -2.7950   -2.0490   -0.4360 C   0  0  1  0  0  0  0  0  0  0  0  0
   -4.1000   -1.6950   -0.8020 O   0  0  0  0  0  0  0  0  0  0  0  0
   -3.0280   -3.2830    0.5270 C   0  0  0  0  0  0  0  0  0  0  0  0
   -3.1580   -4.3840   -0.3220 O   0  0  0  0  0  0  0  0  0  0  0  0
   -4.2640   -5.1240   -0.2300 O   0  0  0  0  0  0  0  0  0  0  0  0
   -2.1500   -0.9330    0.1920 C   0  0  0  0  0  0  0  0  0  0  0  0
   -2.5470    0.2160    0.8190 N   0  0  0  0  0  0  0  0  0  0  0  0
   -1.4830    0.9380    1.1340 C   0  0  0  0  0  0  0  0  0  0  0  0
   -1.5700    2.2300    1.8180 O   0  0  0  0  0  0  0  0  0  0  0  0
   -2.0070    3.1680    0.8310 C   0  0  0  0  0  0  0  0  0  0  0  0
   -2.2420    2.4840   -0.3250 O   0  0  0  0  0  0  0  0  0  0  0  0
   -2.2530    4.4740    0.7060 N   0  0  0  0  0  0  0  0  0  0  0  0
   -2.8100    5.0490   -0.5050 C   0  0  0  0  0  0  0  0  0  0  0  0
   -3.3540    6.3230   -0.6250 N   0  0  0  0  0  0  0  0  0  0  0  0
   -2.7570    4.2750   -1.4990 O   0  0  0  0  0  0  0  0  0  0  0  0
   -0.3710    0.2530    0.6920 C   0  0  0  0  0  0  0  0  0  0  0  0
    0.9760    0.6390    1.1030 C   0  0  0  0  0  0  0  0  0  0  0  0
    1.3020    1.2700    2.0930 O   0  0  0  0  0  0  0  0  0  0  0  0
    2.0860    0.2260    0.2430 O   0  0  0  0  0  0  0  0  0  0  0  0
    3.3280    0.5530    0.7500 C   0  0  0  0  0  0  0  0  0  0  0  0
    4.4980    0.4930   -0.1670 C   0  0  0  0  0  0  0  0  0  0  0  0
    5.6610    0.7750    0.6260 O   0  0  0  0  0  0  0  0  0  0  0  0
    6.8940   -0.3120    0.2010 P   0  0  0  0  0  0  0  0  0  0  0  0
    7.5390   -0.4050   -1.3320 O   0  0  0  0  0  0  0  0  0  0  0  0
    6.3730   -1.9270    0.8240 O   0  0  0  0  0  0  0  0  0  0  0  0
   -0.7570   -0.8690    0.1300 N   0  0  0  0  0  0  0  0  0  0  0  0
  1  2  2  0
  2  3  1  0
  2 30  1  0
  3  4  1  0
  4  5  1  0
  5  6  1  6
  5  7  1  0
  5 10  1  0
  7  8  1  0
  8  9  1  0
 10 11  2  0
 10 30  1  0
 11 12  1  0
 12 13  1  0
 12 20  2  0
 13 14  1  0
 14 15  2  0
 14 16  1  0
 16 17  1  0
 17 18  1  0
 17 19  2  0
 20 21  1  0
 20 30  1  0
 21 22  2  0
 21 23  1  0
 23 24  1  0
 24 25  1  0
 25 26  1  0
 26 27  1  0
 27 28  1  0
 27 29  1  0
M  END
