
     RDKit          3D

 30 32  0  0  0  0  0  0  0  0999 V2000
    6.1860    1.7700   -3.0950 O   0  0  0  0  0  0  0  0  0  0  0  0
    5.9170    1.4670   -1.9030 C   0  0  0  0  0  0  0  0  0  0  0  0
    4.8770    0.6860   -1.3670 N   0  0  0  0  0  0  0  0  0  0  0  0
    4.9650    0.6230   -0.0700 C   0  0  0  0  0  0  0  0  0  0  0  0
    4.0620   -0.0910    0.7750 N   0  0  0  0  0  0  0  0  0  0  0  0
    2.8190   -0.5280    0.2510 C   0  0  0  0  0  0  0  0  0  0  0  0
    2.6130   -0.8020   -0.9930 N   0  0  0  0  0  0  0  0  0  0  0  0
    1.2860   -1.2120   -1.2260 C   0  0  0  0  0  0  0  0  0  0  0  0
    0.8100   -1.6070   -2.3170 O   0  0  0  0  0  0  0  0  0  0  0  0
    0.5390   -1.0990    0.0310 C   0  0  2  0  0  0  0  0  0  0  0  0
   -0.0740   -2.3930    0.4380 C   0  0  0  0  0  0  0  0  0  0  0  0
   -0.8480   -2.9110   -0.5950 O   0  0  0  0  0  0  0  0  0  0  0  0
   -1.6030   -4.0060   -0.1800 C   0  0  0  0  0  0  0  0  0  0  0  0
   -2.8510   -3.4720    0.4910 C   0  0  0  0  0  0  0  0  0  0  0  0
   -3.4170   -2.5370   -0.3670 O   0  0  0  0  0  0  0  0  0  0  0  0
   -3.9040   -1.5640    0.3690 O   0  0  0  0  0  0  0  0  0  0  0  0
   -4.4860   -0.6020   -0.3850 N   0  0  0  0  0  0  0  0  0  0  0  0
   -3.8770    0.6490   -0.6770 C   0  0  0  0  0  0  0  0  0  0  0  0
   -4.5900    1.6590   -0.9160 O   0  0  0  0  0  0  0  0  0  0  0  0
   -2.4050    0.8540   -0.7200 C   0  0  1  0  0  0  0  0  0  0  0  0
   -2.0960    2.0420    0.1580 C   0  0  0  0  0  0  0  0  0  0  0  0
   -2.8460    3.1190   -0.3130 O   0  0  0  0  0  0  0  0  0  0  0  0
   -2.6290    4.2080    0.4100 O   0  0  0  0  0  0  0  0  0  0  0  0
   -3.5780    5.0840    0.2080 O   0  0  0  0  0  0  0  0  0  0  0  0
   -3.0780    6.2950    0.4230 O   0  0  0  0  0  0  0  0  0  0  0  0
   -1.7050   -0.2820   -0.3350 O   0  0  0  0  0  0  0  0  0  0  0  0
   -0.4240    0.0560    0.0260 C   0  0  0  0  0  0  0  0  0  0  0  0
    1.6130   -0.7390    0.9670 N   0  0  0  0  0  0  0  0  0  0  0  0
    6.1360    1.4020    0.3720 C   0  0  0  0  0  0  0  0  0  0  0  0
    6.6840    1.9030   -0.8350 O   0  0  0  0  0  0  0  0  0  0  0  0
  1  2  2  0
  2  3  1  0
  2 30  1  0
  3  4  2  0
  4  5  1  0
  4 29  1  0
  5  6  1  0
  6  7  2  0
  6 28  1  0
  7  8  1  0
  8  9  2  0
  8 10  1  0
 10 11  1  1
 10 27  1  0
 10 28  1  0
 11 12  1  0
 12 13  1  0
 13 14  1  0
 14 15  1  0
 15 16  1  0
 16 17  1  0
 17 18  1  0
 18 19  2  0
 18 20  1  0
 20 21  1  1
 20 26  1  0
 21 22  1  0
 22 23  1  0
 23 24  1  0
 24 25  1  0
 26 27  1  0
 29 30  1  0
M  END
