
     RDKit          3D

 28 29  0  0  0  0  0  0  0  0999 V2000
   -1.8710    2.5760    0.0380 C   0  0  0  0  0  0  0  0  0  0  0  0
   -1.3890    1.2970    0.7280 C   0  0  1  0  0  0  0  0  0  0  0  0
   -1.7010    1.4540    2.0600 O   0  0  0  0  0  0  0  0  0  0  0  0
   -2.6740    0.8080    2.7290 C   0  0  0  0  0  0  0  0  0  0  0  0
   -3.0850    1.1620    4.0320 O   0  0  0  0  0  0  0  0  0  0  0  0
   -3.2950   -0.2190    2.1520 C   0  0  0  0  0  0  0  0  0  0  0  0
   -4.2730   -0.8310    2.9070 F   0  0  0  0  0  0  0  0  0  0  0  0
   -2.9890   -0.5940    0.7830 C   0  0  0  0  0  0  0  0  0  0  0  0
   -3.6290   -1.7480    0.1910 C   0  0  0  0  0  0  0  0  0  0  0  0
   -3.3450   -2.1400   -0.9960 O   0  0  0  0  0  0  0  0  0  0  0  0
   -4.5940   -2.5340    0.8290 N   0  0  0  0  0  0  0  0  0  0  0  0
   -5.1690   -3.6950    0.0970 C   0  0  0  0  0  0  0  0  0  0  0  0
   -6.0870   -4.3440    0.8610 F   0  0  0  0  0  0  0  0  0  0  0  0
   -2.0730    0.1380    0.1210 C   0  0  0  0  0  0  0  0  0  0  0  0
   -1.7970   -0.2770   -1.2840 C   0  0  0  0  0  0  0  0  0  0  0  0
   -0.9890    0.6660   -2.1060 C   0  0  0  0  0  0  0  0  0  0  0  0
    0.3440    0.9390   -1.6110 N   0  0  0  0  0  0  0  0  0  0  0  0
    1.3200   -0.0950   -1.4260 C   0  0  0  0  0  0  0  0  0  0  0  0
    0.9610   -1.2590   -1.7180 O   0  0  0  0  0  0  0  0  0  0  0  0
    2.6650    0.1330   -0.9320 C   0  0  0  0  0  0  0  0  0  0  0  0
    3.1600    1.3550   -0.5670 C   0  0  0  0  0  0  0  0  0  0  0  0
    4.4610    1.4260   -0.1140 C   0  0  0  0  0  0  0  0  0  0  0  0
    5.2920    0.3460   -0.0060 C   0  0  0  0  0  0  0  0  0  0  0  0
    7.0060    0.4090    0.5860 P   0  0  0  0  0  0  0  0  0  0  0  0
    7.5460    1.9960    0.9270 O   0  0  0  0  0  0  0  0  0  0  0  0
    7.3450   -0.7300    1.8180 O   0  0  0  0  0  0  0  0  0  0  0  0
    4.7780   -0.8790   -0.3780 C   0  0  0  0  0  0  0  0  0  0  0  0
    3.4960   -0.9820   -0.8300 C   0  0  0  0  0  0  0  0  0  0  0  0
  2  1  1  6
  2  3  1  0
  2 14  1  0
  3  4  1  0
  4  5  1  0
  4  6  2  0
  6  7  1  0
  6  8  1  0
  8  9  1  0
  8 14  2  0
  9 10  2  0
  9 11  1  0
 11 12  1  0
 12 13  1  0
 14 15  1  0
 15 16  1  0
 16 17  1  0
 17 18  1  0
 18 19  2  0
 18 20  1  0
 20 21  2  0
 20 28  1  0
 21 22  1  0
 22 23  2  0
 23 24  1  0
 23 27  1  0
 24 25  1  0
 24 26  1  0
 27 28  2  0
M  END
