
     RDKit          3D

 30 31  0  0  0  0  0  0  0  0999 V2000
   -2.9190   -0.0300   -4.5080 N   0  0  0  0  0  0  0  0  0  0  0  0
   -2.9680    0.4150   -3.1700 C   0  0  0  0  0  0  0  0  0  0  0  0
   -3.1290    1.6430   -2.9600 O   0  0  0  0  0  0  0  0  0  0  0  0
   -2.8420   -0.4790   -2.0470 N   0  0  0  0  0  0  0  0  0  0  0  0
   -2.8950    0.0070   -0.7070 C   0  0  0  0  0  0  0  0  0  0  0  0
   -3.0570    1.2420   -0.5840 O   0  0  0  0  0  0  0  0  0  0  0  0
   -2.7690   -0.8720    0.4680 C   0  0  2  0  0  0  0  0  0  0  0  0
   -3.0070   -0.1730    1.7750 C   0  0  0  0  0  0  0  0  0  0  0  0
   -4.3860    0.3840    1.8450 C   0  0  0  0  0  0  0  0  0  0  0  0
   -4.6140    1.0370    3.0600 O   0  0  0  0  0  0  0  0  0  0  0  0
   -5.8300    1.5090    3.0800 O   0  0  0  0  0  0  0  0  0  0  0  0
   -6.5710    0.8580    2.2170 O   0  0  0  0  0  0  0  0  0  0  0  0
   -7.0940    1.7430    1.3660 O   0  0  0  0  0  0  0  0  0  0  0  0
   -1.4490   -1.6190    0.4740 C   0  0  0  0  0  0  0  0  0  0  0  0
   -0.2750   -0.7080    0.4950 C   0  0  0  0  0  0  0  0  0  0  0  0
    0.0930   -0.2440   -0.6100 O   0  0  0  0  0  0  0  0  0  0  0  0
    0.4100   -0.3530    1.6130 O   0  0  0  0  0  0  0  0  0  0  0  0
    1.5250    0.4890    1.7290 C   0  0  0  0  0  0  0  0  0  0  0  0
    2.6380    0.0110    1.0270 O   0  0  0  0  0  0  0  0  0  0  0  0
    2.6850   -0.2050   -0.3160 N   0  0  0  0  0  0  0  0  0  0  0  0
    3.8370   -0.1340   -0.9290 C   0  0  0  0  0  0  0  0  0  0  0  0
    3.9390   -0.3400   -2.2540 N   0  0  0  0  0  0  0  0  0  0  0  0
    5.1510   -0.2570   -2.8520 C   0  0  0  0  0  0  0  0  0  0  0  0
    6.2810    0.0300   -2.1480 N   0  0  0  0  0  0  0  0  0  0  0  0
    6.2170    0.2390   -0.8350 C   0  0  0  0  0  0  0  0  0  0  0  0
    4.9820    0.1560   -0.2190 C   0  0  0  0  0  0  0  0  0  0  0  0
    4.8840    0.3690    1.1480 O   0  0  0  0  0  0  0  0  0  0  0  0
    6.0290    0.7690    1.8700 C   0  0  0  0  0  0  0  0  0  0  0  0
    7.0440    1.2760    1.0840 O   0  0  0  0  0  0  0  0  0  0  0  0
    7.2910    0.5370   -0.0100 O   0  0  0  0  0  0  0  0  0  0  0  0
  1  2  1  0
  2  3  2  0
  2  4  1  0
  4  5  1  0
  5  6  2  0
  5  7  1  0
  7  8  1  1
  7 14  1  0
  8  9  1  0
  9 10  1  0
 10 11  1  0
 11 12  1  0
 12 13  1  0
 14 15  1  0
 15 16  2  0
 15 17  1  0
 17 18  1  0
 18 19  1  0
 19 20  1  0
 20 21  2  3
 21 22  1  0
 21 26  1  0
 22 23  2  0
 23 24  1  0
 24 25  1  0
 25 26  2  0
 25 30  1  0
 26 27  1  0
 27 28  1  0
 28 29  1  0
 29 30  1  0
M  END
