
     RDKit          3D

 26 26  0  0  0  0  0  0  0  0999 V2000
    7.5860    2.0720   -0.1870 C   0  0  0  0  0  0  0  0  0  0  0  0
    6.3810    1.5940    0.3300 O   0  0  0  0  0  0  0  0  0  0  0  0
    6.5830    0.3360    0.6550 O   0  0  0  0  0  0  0  0  0  0  0  0
    5.9500   -0.6210   -0.6600 P   0  0  0  0  0  0  0  0  0  0  0  0
    6.6830   -2.2030   -0.6010 O   0  0  0  0  0  0  0  0  0  0  0  0
    4.1350   -0.8520   -0.3530 C   0  0  0  0  0  0  0  0  0  0  0  0
    3.4230    0.4760   -0.2200 C   0  0  0  0  0  0  0  0  0  0  0  0
    1.9830    0.2380    0.0230 C   0  0  0  0  0  0  0  0  0  0  0  0
    1.2450    1.1850    0.1560 O   0  0  0  0  0  0  0  0  0  0  0  0
    1.3410   -1.4130    0.1180 S   0  0  0  0  0  0  0  0  0  0  0  0
   -0.4150   -1.3300    0.4180 C   0  0  0  0  0  0  0  0  0  0  0  0
   -1.1440   -2.4010    0.5340 N   0  0  0  0  0  0  0  0  0  0  0  0
   -0.4770   -3.6780    0.4120 C   0  0  0  0  0  0  0  0  0  0  0  0
   -1.7100   -4.9620    0.4350 Cl  0  0  0  0  0  0  0  0  0  0  0  0
   -1.0970   -0.1260    0.5420 O   0  0  0  0  0  0  0  0  0  0  0  0
   -2.4430    0.0340    0.2050 C   0  0  2  0  0  0  0  0  0  0  0  0
   -2.7920    1.5020    0.4930 C   0  0  0  0  0  0  0  0  0  0  0  0
   -4.1590    1.8020    0.1880 N   0  0  0  0  0  0  0  0  0  0  0  0
   -5.1520    1.6410    1.2090 C   0  0  0  0  0  0  0  0  0  0  0  0
   -6.4340    1.9620    0.8550 O   0  0  0  0  0  0  0  0  0  0  0  0
   -6.7420    1.7220   -0.4190 N   0  0  0  0  0  0  0  0  0  0  0  0
   -5.9280    2.4030   -1.2950 O   0  0  0  0  0  0  0  0  0  0  0  0
   -4.5620    2.2550   -1.0960 C   0  0  0  0  0  0  0  0  0  0  0  0
   -3.7180    2.5060   -1.9990 O   0  0  0  0  0  0  0  0  0  0  0  0
   -3.3100   -0.8210    0.8390 O   0  0  0  0  0  0  0  0  0  0  0  0
   -4.1340   -1.5400    0.0150 C   0  0  0  0  0  0  0  0  0  0  0  0
  1  2  1  0
  2  3  1  0
  3  4  1  0
  4  5  1  0
  4  6  1  0
  6  7  1  0
  7  8  1  0
  8  9  2  0
  8 10  1  0
 10 11  1  0
 11 12  2  3
 11 15  1  0
 12 13  1  0
 13 14  1  0
 15 16  1  0
 16 17  1  1
 16 25  1  0
 17 18  1  0
 18 19  1  0
 18 23  1  0
 19 20  1  0
 20 21  1  0
 21 22  1  0
 22 23  1  0
 23 24  2  0
 25 26  1  0
M  END
