
     RDKit          3D

 26 27  0  0  0  0  0  0  0  0999 V2000
    3.6100   -0.1550    1.2620 C   0  0  0  0  0  0  0  0  0  0  0  0
    3.5650   -0.0740   -0.2360 N   0  0  0  0  0  0  0  0  0  0  0  0
    4.1840   -1.1130   -0.8630 C   0  0  0  0  0  0  0  0  0  0  0  0
    4.0470   -2.3430   -0.1400 O   0  0  0  0  0  0  0  0  0  0  0  0
    4.6820   -3.2840   -0.7430 O   0  0  0  0  0  0  0  0  0  0  0  0
    6.2790   -3.5280   -0.1840 Cl  0  0  0  0  0  0  0  0  0  0  0  0
    2.5470    0.6260   -0.5340 O   0  0  0  0  0  0  0  0  0  0  0  0
    1.3350   -0.1150   -0.5920 C   0  0  0  0  0  0  0  0  0  0  0  0
    0.4520    0.5350    0.4080 C   0  0  1  0  0  0  0  0  0  0  0  0
    0.6690    1.9800    0.7120 C   0  0  0  0  0  0  0  0  0  0  0  0
   -0.0790    2.7080   -0.2470 O   0  0  0  0  0  0  0  0  0  0  0  0
   -0.4230    4.0200   -0.1200 C   0  0  0  0  0  0  0  0  0  0  0  0
    0.2400    5.1300   -0.1880 C   0  0  0  0  0  0  0  0  0  0  0  0
   -0.7260    6.1650    0.0230 N   0  0  0  0  0  0  0  0  0  0  0  0
   -1.9450    5.6520    0.1880 O   0  0  0  0  0  0  0  0  0  0  0  0
   -1.7740    4.3700    0.1810 O   0  0  0  0  0  0  0  0  0  0  0  0
   -0.8880    0.2870    0.3950 O   0  0  0  0  0  0  0  0  0  0  0  0
   -1.4170   -0.9290    0.5020 C   0  0  0  0  0  0  0  0  0  0  0  0
   -0.5710   -2.3860    0.6330 P   0  0  0  0  0  0  0  0  0  0  0  0
   -1.6670   -3.7920    0.7000 N   0  0  0  0  0  0  0  0  0  0  0  0
   -2.0100   -3.9870   -0.6370 O   0  0  0  0  0  0  0  0  0  0  0  0
   -2.9120   -3.5210    1.3580 C   0  0  0  0  0  0  0  0  0  0  0  0
   -3.4010   -2.1430    1.3400 C   0  0  0  0  0  0  0  0  0  0  0  0
   -2.8420   -1.1670    0.4930 N   0  0  0  0  0  0  0  0  0  0  0  0
   -3.6620   -0.2950   -0.3370 C   0  0  0  0  0  0  0  0  0  0  0  0
   -3.9030   -0.8570   -1.5680 O   0  0  0  0  0  0  0  0  0  0  0  0
  1  2  1  0
  2  3  1  0
  2  7  1  0
  3  4  1  0
  4  5  1  0
  5  6  1  0
  7  8  1  0
  9  8  1  6
  9 10  1  0
  9 17  1  0
 10 11  1  0
 11 12  1  0
 12 13  2  0
 12 16  1  0
 13 14  1  0
 14 15  1  0
 15 16  1  0
 17 18  1  0
 18 19  2  0
 18 24  1  0
 19 20  1  0
 20 21  1  0
 20 22  1  0
 22 23  1  0
 23 24  1  0
 24 25  1  0
 25 26  1  0
M  END
