
     RDKit          3D

 26 26  0  0  0  0  0  0  0  0999 V2000
   -5.8730   -0.0960    0.6990 C   0  0  0  0  0  0  0  0  0  0  0  0
   -4.7980   -1.0950    0.2760 C   0  0  1  0  0  0  0  0  0  0  0  0
   -5.3500   -2.2330   -0.3870 N   0  0  0  0  0  0  0  0  0  0  0  0
   -3.4820   -0.2270   -0.6460 P   0  0  0  0  0  0  0  0  0  0  0  0
   -2.9470   -1.0680   -2.1800 C   0  0  0  0  0  0  0  0  0  0  0  0
   -3.6780    1.5080   -0.7760 N   0  0  0  0  0  0  0  0  0  0  0  0
   -3.0960    2.3320    0.0020 C   0  0  0  0  0  0  0  0  0  0  0  0
   -3.2760    3.7380   -0.1230 O   0  0  0  0  0  0  0  0  0  0  0  0
   -4.3380    4.1910   -0.7940 O   0  0  0  0  0  0  0  0  0  0  0  0
   -2.2900    1.7540    0.9690 O   0  0  0  0  0  0  0  0  0  0  0  0
   -1.1340    1.0610    0.5450 C   0  0  0  0  0  0  0  0  0  0  0  0
   -0.9000    0.9850   -0.6860 O   0  0  0  0  0  0  0  0  0  0  0  0
   -0.2640    0.4720    1.4210 O   0  0  0  0  0  0  0  0  0  0  0  0
    0.9040   -0.2230    1.0440 C   0  0  0  0  0  0  0  0  0  0  0  0
    1.8100    0.7170    0.3600 C   0  0  0  0  0  0  0  0  0  0  0  0
    1.6890    2.0620    0.1180 C   0  0  0  0  0  0  0  0  0  0  0  0
    2.7730    2.5070   -0.5200 O   0  0  0  0  0  0  0  0  0  0  0  0
    3.5590    1.4870   -0.6800 N   0  0  0  0  0  0  0  0  0  0  0  0
    3.0430    0.3690   -0.1730 C   0  0  0  0  0  0  0  0  0  0  0  0
    3.6350   -0.9960   -0.1590 C   0  0  0  0  0  0  0  0  0  0  0  0
    4.8800   -0.9590   -0.7850 O   0  0  0  0  0  0  0  0  0  0  0  0
    5.6420   -0.0910   -0.0770 N   0  0  0  0  0  0  0  0  0  0  0  0
    6.6950    0.8360   -1.0670 Cl  0  0  0  0  0  0  0  0  0  0  0  0
    6.2540   -0.7650    0.9000 O   0  0  0  0  0  0  0  0  0  0  0  0
    7.2040   -1.6250    0.3730 C   0  0  0  0  0  0  0  0  0  0  0  0
    8.1370   -0.8590   -0.3280 O   0  0  0  0  0  0  0  0  0  0  0  0
  2  1  1  6
  2  3  1  0
  2  4  1  0
  4  5  1  0
  4  6  1  0
  6  7  2  3
  7  8  1  0
  7 10  1  0
  8  9  1  0
 10 11  1  0
 11 12  2  0
 11 13  1  0
 13 14  1  0
 14 15  1  0
 15 16  2  0
 15 19  1  0
 16 17  1  0
 17 18  1  0
 18 19  2  0
 19 20  1  0
 20 21  1  0
 21 22  1  0
 22 23  1  0
 22 24  1  0
 24 25  1  0
 25 26  1  0
M  END
