
     RDKit          3D

 26 25  0  0  0  0  0  0  0  0999 V2000
    2.6120    1.3920    2.8140 O   0  0  0  0  0  0  0  0  0  0  0  0
    2.2850    0.7260    1.7990 C   0  0  0  0  0  0  0  0  0  0  0  0
    3.3110    0.3260    0.9470 O   0  0  0  0  0  0  0  0  0  0  0  0
    4.6680    0.6470    1.1990 C   0  0  0  0  0  0  0  0  0  0  0  0
    5.4770    0.0410    0.0560 C   0  0  0  0  0  0  0  0  0  0  0  0
    6.9500    0.3390    0.2480 C   0  0  0  0  0  0  0  0  0  0  0  0
    7.6690   -0.2750   -0.8900 C   0  0  0  0  0  0  0  0  0  0  0  0
    8.5430    0.4200   -1.5240 N   0  0  0  0  0  0  0  0  0  0  0  0
    8.8030    1.7020   -1.1530 O   0  0  0  0  0  0  0  0  0  0  0  0
    8.2350    2.7690   -1.7340 O   0  0  0  0  0  0  0  0  0  0  0  0
    0.5330    0.3080    1.4690 P   0  0  0  0  0  0  0  0  0  0  0  0
    0.1070   -1.2300    1.0660 C   0  0  0  0  0  0  0  0  0  0  0  0
   -1.2440   -1.5380    0.8150 N   0  0  0  0  0  0  0  0  0  0  0  0
   -2.0010   -1.7450    1.8170 N   0  0  0  0  0  0  0  0  0  0  0  0
   -3.3350   -2.0520    1.6640 O   0  0  0  0  0  0  0  0  0  0  0  0
   -3.9060   -1.8210    0.4340 C   0  0  0  0  0  0  0  0  0  0  0  0
   -3.2780   -0.5660   -0.5900 Cl  0  0  0  0  0  0  0  0  0  0  0  0
   -4.9190   -2.5490    0.0450 C   0  0  0  0  0  0  0  0  0  0  0  0
   -5.4810   -2.3030   -1.1960 O   0  0  0  0  0  0  0  0  0  0  0  0
   -5.8050   -1.0050   -1.4930 N   0  0  0  0  0  0  0  0  0  0  0  0
   -6.7010   -0.4200   -0.7810 C   0  0  0  0  0  0  0  0  0  0  0  0
   -7.3100   -1.0900    0.2480 O   0  0  0  0  0  0  0  0  0  0  0  0
   -7.0570    0.9750   -1.0920 C   0  0  0  0  0  0  0  0  0  0  0  0
   -6.4560    1.6550   -2.1180 O   0  0  0  0  0  0  0  0  0  0  0  0
   -7.9740    1.5760   -0.3650 C   0  0  0  0  0  0  0  0  0  0  0  0
   -8.6060    0.9130    0.6880 O   0  0  0  0  0  0  0  0  0  0  0  0
  1  2  2  0
  2  3  1  0
  2 11  1  0
  3  4  1  0
  4  5  1  0
  5  6  1  0
  6  7  1  0
  7  8  2  3
  8  9  1  0
  9 10  1  0
 11 12  2  3
 12 13  1  0
 13 14  2  3
 14 15  1  0
 15 16  1  0
 16 17  1  0
 16 18  2  3
 18 19  1  0
 19 20  1  0
 20 21  2  3
 21 22  1  0
 21 23  1  0
 23 24  1  0
 23 25  2  3
 25 26  1  0
M  END
