
     RDKit          3D

 26 27  0  0  0  0  0  0  0  0999 V2000
   -3.0060   -2.5560    1.0460 C   0  0  0  0  0  0  0  0  0  0  0  0
   -2.2340   -2.0890   -0.1590 C   0  0  1  0  0  0  0  0  0  0  0  0
   -2.3440   -3.4590   -1.3330 Cl  0  0  0  0  0  0  0  0  0  0  0  0
   -3.0410   -0.9850   -0.8310 C   0  0  0  0  0  0  0  0  0  0  0  0
   -3.0550    0.3650   -0.1640 C   0  0  0  0  0  0  0  0  0  0  0  0
   -2.3500    1.3810   -0.7330 O   0  0  0  0  0  0  0  0  0  0  0  0
   -1.7720    2.3210   -0.0070 N   0  0  0  0  0  0  0  0  0  0  0  0
   -2.6240    3.0170    0.7770 O   0  0  0  0  0  0  0  0  0  0  0  0
   -0.7310    2.9560   -0.4290 O   0  0  0  0  0  0  0  0  0  0  0  0
    0.5390    2.8090    0.1870 C   0  0  1  0  0  0  0  0  0  0  0  0
    1.2050    3.9560   -0.4320 O   0  0  0  0  0  0  0  0  0  0  0  0
    0.5050    3.2160    1.6110 C   0  0  0  0  0  0  0  0  0  0  0  0
    0.9740    4.2590    2.0150 O   0  0  0  0  0  0  0  0  0  0  0  0
    1.2920    1.7900   -0.1660 O   0  0  0  0  0  0  0  0  0  0  0  0
    1.8720    0.7800    0.5070 C   0  0  0  0  0  0  0  0  0  0  0  0
    1.7610   -0.5530   -0.2850 C   0  0  1  0  0  0  0  0  0  0  0  0
    2.6480   -0.5770   -1.3980 N   0  0  0  0  0  0  0  0  0  0  0  0
    3.9810   -0.4510   -1.1030 N   0  0  0  0  0  0  0  0  0  0  0  0
    4.5580    0.6800   -1.5010 O   0  0  0  0  0  0  0  0  0  0  0  0
    4.3550   -0.8980    0.0910 O   0  0  0  0  0  0  0  0  0  0  0  0
    1.5470   -1.8120    0.4240 C   0  0  0  0  0  0  0  0  0  0  0  0
    0.3250   -2.7020    0.0100 C   0  0  0  0  0  0  0  0  0  0  0  0
   -0.9080   -1.8620    0.1000 N   0  0  0  0  0  0  0  0  0  0  0  0
   -0.4140   -0.5910    0.4290 C   0  0  0  0  0  0  0  0  0  0  0  0
   -0.4770    0.1430    1.4230 O   0  0  0  0  0  0  0  0  0  0  0  0
    0.3490   -0.2340   -0.8660 C   0  0  0  0  0  0  0  0  0  0  0  0
  2  1  1  1
  2  3  1  0
  2  4  1  0
  2 23  1  0
  4  5  1  0
  5  6  1  0
  6  7  1  0
  7  8  1  0
  7  9  1  0
  9 10  1  0
 10 11  1  6
 10 12  1  0
 10 14  1  0
 12 13  2  0
 14 15  1  0
 15 16  1  0
 16 17  1  6
 16 21  1  0
 16 26  1  0
 17 18  1  0
 18 19  1  0
 18 20  1  0
 21 22  1  0
 22 23  1  0
 23 24  1  0
 24 25  2  0
 24 26  1  0
M  END
