
     RDKit          3D

 26 26  0  0  0  0  0  0  0  0999 V2000
   -6.2330   -1.0670    0.7090 C   0  0  0  0  0  0  0  0  0  0  0  0
   -6.8260    0.2590    0.4930 C   0  0  0  0  0  0  0  0  0  0  0  0
   -6.2050    1.2570   -0.0520 C   0  0  0  0  0  0  0  0  0  0  0  0
   -6.9600    2.4580   -0.1700 O   0  0  0  0  0  0  0  0  0  0  0  0
   -4.8600    1.3050   -0.5480 C   0  0  0  0  0  0  0  0  0  0  0  0
   -4.0300    0.1450   -0.4280 N   0  0  0  0  0  0  0  0  0  0  0  0
   -2.4470    0.5790   -1.2170 P   0  0  0  0  0  0  0  0  0  0  0  0
   -2.2230    2.2820   -0.9430 O   0  0  0  0  0  0  0  0  0  0  0  0
   -1.5690    2.3200    0.2340 C   0  0  0  0  0  0  0  0  0  0  0  0
   -0.9760    1.2430    0.6820 O   0  0  0  0  0  0  0  0  0  0  0  0
   -1.0310    0.1300   -0.0650 C   0  0  1  0  0  0  0  0  0  0  0  0
   -1.2440   -1.1090    0.5920 N   0  0  0  0  0  0  0  0  0  0  0  0
   -1.3590   -2.1700   -0.3990 C   0  0  0  0  0  0  0  0  0  0  0  0
   -0.1350   -1.3500    1.4080 N   0  0  0  0  0  0  0  0  0  0  0  0
    0.1490   -3.0370    1.6720 Cl  0  0  0  0  0  0  0  0  0  0  0  0
    0.9740   -0.7220    0.9290 O   0  0  0  0  0  0  0  0  0  0  0  0
    1.6630   -1.5300    0.1570 O   0  0  0  0  0  0  0  0  0  0  0  0
    2.4410   -0.8100   -0.6200 O   0  0  0  0  0  0  0  0  0  0  0  0
    2.9870    0.1650    0.1660 N   0  0  0  0  0  0  0  0  0  0  0  0
    2.2260    1.2250    0.5300 O   0  0  0  0  0  0  0  0  0  0  0  0
    4.3420    0.0260    0.5710 C   0  0  0  0  0  0  0  0  0  0  0  0
    4.8710    0.8980    1.2810 O   0  0  0  0  0  0  0  0  0  0  0  0
    5.1040   -1.1580    0.1420 C   0  0  0  0  0  0  0  0  0  0  0  0
    6.4320   -1.1740    0.4640 O   0  0  0  0  0  0  0  0  0  0  0  0
    7.1010   -0.1590   -0.1830 C   0  0  0  0  0  0  0  0  0  0  0  0
    8.5700   -0.2680    0.2470 C   0  0  0  0  0  0  0  0  0  0  0  0
  1  2  1  0
  2  3  2  3
  3  4  1  0
  3  5  1  0
  5  6  1  0
  6  7  1  0
  7  8  1  0
  7 11  1  0
  8  9  1  0
  9 10  1  0
 10 11  1  0
 11 12  1  1
 12 13  1  0
 12 14  1  0
 14 15  1  0
 14 16  1  0
 16 17  1  0
 17 18  1  0
 18 19  1  0
 19 20  1  0
 19 21  1  0
 21 22  2  0
 21 23  1  0
 23 24  1  0
 24 25  1  0
 25 26  1  0
M  END
