
     RDKit          3D

 26 25  0  0  0  0  0  0  0  0999 V2000
    5.4490   -3.2030   -0.2170 C   0  0  0  0  0  0  0  0  0  0  0  0
    3.8880   -4.1030   -0.1190 S   0  0  0  0  0  0  0  0  0  0  0  0
    2.7440   -3.5470   -1.2540 O   0  0  0  0  0  0  0  0  0  0  0  0
    3.1280   -2.4520   -1.8470 O   0  0  0  0  0  0  0  0  0  0  0  0
    2.7180   -1.3010   -1.2240 C   0  0  0  0  0  0  0  0  0  0  0  0
    1.2850   -1.2250   -1.1470 O   0  0  0  0  0  0  0  0  0  0  0  0
    0.6570   -0.1390   -0.5530 C   0  0  0  0  0  0  0  0  0  0  0  0
    1.2750    0.9800   -0.5660 N   0  0  0  0  0  0  0  0  0  0  0  0
    0.8170    2.1960   -0.0220 C   0  0  0  0  0  0  0  0  0  0  0  0
   -0.1230    2.8340   -0.6070 N   0  0  0  0  0  0  0  0  0  0  0  0
   -0.7000    4.0730   -0.1900 C   0  0  0  0  0  0  0  0  0  0  0  0
   -0.2980    5.1240   -1.2310 C   0  0  0  0  0  0  0  0  0  0  0  0
   -0.8180    6.3590   -0.9020 O   0  0  0  0  0  0  0  0  0  0  0  0
    1.5460    2.8720    1.5000 P   0  0  0  0  0  0  0  0  0  0  0  0
    0.6740    3.4040    2.7740 C   0  0  0  0  0  0  0  0  0  0  0  0
    0.0690    4.1360    3.5740 O   0  0  0  0  0  0  0  0  0  0  0  0
   -0.6820   -0.3200    0.0610 C   0  0  0  0  0  0  0  0  0  0  0  0
   -1.2640   -1.4280    0.0550 N   0  0  0  0  0  0  0  0  0  0  0  0
   -2.4660   -1.9590    0.5070 C   0  0  2  0  0  0  0  0  0  0  0  0
   -2.4450   -2.3030    1.8790 O   0  0  0  0  0  0  0  0  0  0  0  0
   -2.8190   -3.2900   -0.1920 C   0  0  0  0  0  0  0  0  0  0  0  0
   -4.0490   -3.7600    0.3220 O   0  0  0  0  0  0  0  0  0  0  0  0
   -4.3870   -4.8790   -0.2370 O   0  0  0  0  0  0  0  0  0  0  0  0
   -1.2690    0.7620    0.6400 O   0  0  0  0  0  0  0  0  0  0  0  0
   -1.9460    0.8020    1.8630 C   0  0  0  0  0  0  0  0  0  0  0  0
   -0.8970    0.3120    3.2370 Cl  0  0  0  0  0  0  0  0  0  0  0  0
  1  2  1  0
  2  3  1  0
  3  4  1  0
  4  5  1  0
  5  6  1  0
  6  7  1  0
  7  8  2  3
  7 17  1  0
  8  9  1  0
  9 10  2  3
  9 14  1  0
 10 11  1  0
 11 12  1  0
 12 13  1  0
 14 15  2  0
 15 16  2  0
 17 18  2  3
 17 24  1  0
 18 19  1  0
 19 20  1  1
 19 21  1  0
 21 22  1  0
 22 23  1  0
 24 25  1  0
 25 26  1  0
M  END
