
     RDKit          3D

 24 26  0  0  0  0  0  0  0  0999 V2000
   -4.8420    2.8730    0.5380 N   0  0  0  0  0  0  0  0  0  0  0  0
   -4.5480    1.5600    0.0240 C   0  0  0  0  0  0  0  0  0  0  0  0
   -3.3240    1.0210    0.1380 N   0  0  0  0  0  0  0  0  0  0  0  0
   -2.9920   -0.2080   -0.3140 C   0  0  0  0  0  0  0  0  0  0  0  0
   -1.8170   -0.9440   -0.2750 C   0  0  0  0  0  0  0  0  0  0  0  0
   -0.5690   -0.4640    0.2780 C   0  0  2  0  0  0  0  0  0  0  0  0
    0.2820    0.1840   -0.7630 N   0  0  0  0  0  0  0  0  0  0  0  0
    1.4760    0.4210   -0.0290 C   0  0  2  0  0  0  0  0  0  0  0  0
    2.7600    0.3510   -0.8160 C   0  0  0  0  0  0  0  0  0  0  0  0
    3.7590    0.6030    0.1570 O   0  0  0  0  0  0  0  0  0  0  0  0
    5.1950    0.6340   -0.3170 P   0  0  0  0  0  0  0  0  0  0  0  0
    5.0400    2.1020   -1.0520 O   0  0  0  0  0  0  0  0  0  0  0  0
    5.0440   -0.7270   -1.1740 O   0  0  0  0  0  0  0  0  0  0  0  0
    5.7040    0.5720    1.2850 O   0  0  0  0  0  0  0  0  0  0  0  0
    1.5880   -0.6590    1.0460 C   0  0  1  0  0  0  0  0  0  0  0  0
    1.2500   -0.0200    2.2490 O   0  0  0  0  0  0  0  0  0  0  0  0
    0.4140   -1.5680    0.6410 C   0  0  1  0  0  0  0  0  0  0  0  0
   -0.0330   -2.3110    1.7230 O   0  0  0  0  0  0  0  0  0  0  0  0
   -2.1300   -2.1390   -0.8840 C   0  0  0  0  0  0  0  0  0  0  0  0
   -3.4330   -2.1270   -1.2730 N   0  0  0  0  0  0  0  0  0  0  0  0
   -3.9680   -0.9530   -0.9280 C   0  0  0  0  0  0  0  0  0  0  0  0
   -5.2360   -0.3750   -1.0390 C   0  0  0  0  0  0  0  0  0  0  0  0
   -6.1300   -1.0470   -1.6020 O   0  0  0  0  0  0  0  0  0  0  0  0
   -5.5240    0.8510   -0.5760 N   0  0  0  0  0  0  0  0  0  0  0  0
  1  2  1  0
  2  3  2  0
  2 24  1  0
  3  4  1  0
  4  5  1  0
  4 21  2  0
  6  5  1  6
  5 19  2  0
  6  7  1  0
  6 17  1  0
  7  8  1  0
  8  9  1  6
  8 15  1  0
  9 10  1  0
 10 11  1  0
 11 12  1  0
 11 13  1  0
 11 14  1  0
 15 16  1  1
 15 17  1  0
 17 18  1  1
 19 20  1  0
 20 21  1  0
 21 22  1  0
 22 23  2  0
 22 24  1  0
M  CHG  1   7   1
M  END
