
     RDKit          3D

 15 15  0  0  0  0  0  0  0  0999 V2000
    4.6540   -1.1820    0.3170 O   0  0  0  0  0  0  0  0  0  0  0  0
    3.9910    0.0510    1.0280 P   0  0  0  0  0  0  0  0  0  0  0  0
    2.2640   -0.1370    1.6650 C   0  0  0  0  0  0  0  0  0  0  0  0
    2.1270   -0.4410    2.8770 O   0  0  0  0  0  0  0  0  0  0  0  0
    1.1900    0.0670    0.7760 N   0  0  0  0  0  0  0  0  0  0  0  0
    1.0880   -0.5570   -0.3590 C   0  0  0  0  0  0  0  0  0  0  0  0
   -0.0260   -0.3330   -1.2590 C   0  0  0  0  0  0  0  0  0  0  0  0
   -0.1970   -0.9610   -2.4800 C   0  0  0  0  0  0  0  0  0  0  0  0
   -1.3160   -0.4980   -2.9970 O   0  0  0  0  0  0  0  0  0  0  0  0
   -1.8690    0.3900   -2.1770 C   0  0  0  0  0  0  0  0  0  0  0  0
   -1.0880    0.5260   -1.0640 C   0  0  0  0  0  0  0  0  0  0  0  0
   -1.2210    1.3120    0.0670 O   0  0  0  0  0  0  0  0  0  0  0  0
   -1.8900    0.8800    1.2030 C   0  0  0  0  0  0  0  0  0  0  0  0
   -2.3730   -0.2760    1.1500 O   0  0  0  0  0  0  0  0  0  0  0  0
   -2.0260    1.6690    2.3450 O   0  0  0  0  0  0  0  0  0  0  0  0
  1  2  2  0
  2  3  1  0
  3  4  2  0
  3  5  1  0
  5  6  2  3
  6  7  1  0
  7  8  2  0
  7 11  1  0
  8  9  1  0
  9 10  1  0
 10 11  2  0
 11 12  1  0
 12 13  1  0
 13 14  2  0
 13 15  1  0
M  END
