
     RDKit          3D

 16 16  0  0  0  0  0  0  0  0999 V2000
    0.3060   -1.4910    0.1770 C   0  0  0  0  0  0  0  0  0  0  0  0
    0.0830   -0.0270    0.2300 C   0  0  0  0  0  0  0  0  0  0  0  0
    1.0450    0.8940    0.3260 C   0  0  0  0  0  0  0  0  0  0  0  0
    2.3920    0.6740    0.3930 O   0  0  0  0  0  0  0  0  0  0  0  0
    3.0890    0.1700   -0.7300 C   0  0  0  0  0  0  0  0  0  0  0  0
    4.8850   -0.0460   -0.4090 P   0  0  0  0  0  0  0  0  0  0  0  0
    5.3520    0.5420    1.1560 O   0  0  0  0  0  0  0  0  0  0  0  0
    5.4270   -1.6580   -0.6810 O   0  0  0  0  0  0  0  0  0  0  0  0
    0.3680    2.2000    0.3470 C   0  0  0  0  0  0  0  0  0  0  0  0
    0.9740    3.3210    0.4320 O   0  0  0  0  0  0  0  0  0  0  0  0
   -1.0080    1.9980    0.2600 O   0  0  0  0  0  0  0  0  0  0  0  0
   -1.2160    0.6370    0.1870 C   0  0  0  0  0  0  0  0  0  0  0  0
   -2.3570    0.0400    0.0950 N   0  0  0  0  0  0  0  0  0  0  0  0
   -3.5910    0.7840    0.0590 C   0  0  0  0  0  0  0  0  0  0  0  0
   -4.7210    0.0050   -0.5550 C   0  0  0  0  0  0  0  0  0  0  0  0
   -4.9480   -1.1700    0.1950 O   0  0  0  0  0  0  0  0  0  0  0  0
  1  2  1  0
  2  3  2  0
  2 12  1  0
  3  4  1  0
  3  9  1  0
  4  5  1  0
  5  6  1  0
  6  7  1  0
  6  8  1  0
  9 10  2  0
  9 11  1  0
 11 12  1  0
 12 13  2  3
 13 14  1  0
 14 15  1  0
 15 16  1  0
M  END
