
     RDKit          3D

 16 16  0  0  0  0  0  0  0  0999 V2000
    5.1380    0.5470    0.0550 C   0  0  0  0  0  0  0  0  0  0  0  0
    3.8700    0.0370    0.7230 C   0  0  0  0  0  0  0  0  0  0  0  0
    2.8520    0.9630    0.3200 O   0  0  0  0  0  0  0  0  0  0  0  0
    1.7180    0.1290   -0.5840 P   0  0  0  0  0  0  0  0  0  0  0  0
    0.2930   -0.7330    0.0400 C   0  0  0  0  0  0  0  0  0  0  0  0
   -0.7890    0.1420    0.5400 N   0  0  0  0  0  0  0  0  0  0  0  0
   -0.8170    1.3440   -0.3040 C   0  0  0  0  0  0  0  0  0  0  0  0
   -2.1390    2.0360   -0.0120 C   0  0  0  0  0  0  0  0  0  0  0  0
   -3.1110    1.2080   -0.5880 O   0  0  0  0  0  0  0  0  0  0  0  0
   -3.2830    0.1820    0.3560 C   0  0  1  0  0  0  0  0  0  0  0  0
   -4.3200   -0.7780   -0.1660 C   0  0  0  0  0  0  0  0  0  0  0  0
   -4.3820   -1.2100   -1.2930 O   0  0  0  0  0  0  0  0  0  0  0  0
   -5.3180   -1.2190    0.7600 O   0  0  0  0  0  0  0  0  0  0  0  0
   -1.9970   -0.6480    0.3290 C   0  0  0  0  0  0  0  0  0  0  0  0
    2.6390   -0.9920   -1.6100 O   0  0  0  0  0  0  0  0  0  0  0  0
    2.4260   -2.2100   -1.2500 O   0  0  0  0  0  0  0  0  0  0  0  0
  1  2  1  0
  2  3  1  0
  3  4  1  0
  4  5  1  0
  4 15  1  0
  5  6  1  0
  6  7  1  0
  6 14  1  0
  7  8  1  0
  8  9  1  0
  9 10  1  0
 10 11  1  6
 10 14  1  0
 11 12  2  0
 11 13  1  0
 15 16  1  0
M  END
