
     RDKit          3D

 15 15  0  0  0  0  0  0  0  0999 V2000
   -5.5590    0.0260    0.3640 C   0  0  0  0  0  0  0  0  0  0  0  0
   -4.7800   -1.0760   -0.1150 O   0  0  0  0  0  0  0  0  0  0  0  0
   -3.3850   -0.7630   -0.2340 C   0  0  0  0  0  0  0  0  0  0  0  0
   -2.7190   -0.3920    0.8220 C   0  0  0  0  0  0  0  0  0  0  0  0
   -1.3070   -0.0660    0.7470 C   0  0  0  0  0  0  0  0  0  0  0  0
   -0.7070   -0.1600   -0.4540 C   0  0  0  0  0  0  0  0  0  0  0  0
    0.6740    0.1450   -0.5930 N   0  0  0  0  0  0  0  0  0  0  0  0
    1.6370   -0.5350    0.2450 C   0  0  0  0  0  0  0  0  0  0  0  0
    3.0300   -0.0790   -0.0510 C   0  0  0  0  0  0  0  0  0  0  0  0
    3.9520   -0.7190    0.7400 O   0  0  0  0  0  0  0  0  0  0  0  0
    5.5330   -0.1060    0.3050 P   0  0  0  0  0  0  0  0  0  0  0  0
    6.5010    0.1890    1.6900 O   0  0  0  0  0  0  0  0  0  0  0  0
    6.3080   -1.1670   -0.8300 O   0  0  0  0  0  0  0  0  0  0  0  0
   -1.4160   -0.5500   -1.5500 O   0  0  0  0  0  0  0  0  0  0  0  0
   -2.7560   -0.8740   -1.5560 C   0  0  0  0  0  0  0  0  0  0  0  0
  1  2  1  0
  2  3  1  0
  3  4  2  0
  3 15  1  0
  4  5  1  0
  5  6  2  0
  6  7  1  0
  6 14  1  0
  7  8  1  0
  8  9  1  0
  9 10  1  0
 10 11  1  0
 11 12  1  0
 11 13  1  0
 14 15  1  0
M  END
