
     RDKit          3D

 16 16  0  0  0  0  0  0  0  0999 V2000
    4.1940   -2.0960    0.5890 C   0  0  0  0  0  0  0  0  0  0  0  0
    4.6330   -0.8810    0.1180 O   0  0  0  0  0  0  0  0  0  0  0  0
    3.3080    0.1150   -0.3820 P   0  0  0  0  0  0  0  0  0  0  0  0
    3.4400    1.8280    0.2750 C   0  0  0  0  0  0  0  0  0  0  0  0
    2.8320    2.6920   -0.6550 O   0  0  0  0  0  0  0  0  0  0  0  0
    1.8390   -0.6080    0.2340 O   0  0  0  0  0  0  0  0  0  0  0  0
    0.6130    0.0490   -0.0500 C   0  0  0  0  0  0  0  0  0  0  0  0
    0.7460    1.0840   -0.7190 O   0  0  0  0  0  0  0  0  0  0  0  0
   -0.6340   -0.4870    0.4240 C   0  0  0  0  0  0  0  0  0  0  0  0
   -1.8450   -0.0310    0.2660 C   0  0  0  0  0  0  0  0  0  0  0  0
   -2.9700   -0.7610    0.8490 N   0  0  0  0  0  0  0  0  0  0  0  0
   -4.2480   -0.8090    0.2060 C   0  0  0  0  0  0  0  0  0  0  0  0
   -4.5810    0.4180   -0.5680 C   0  0  0  0  0  0  0  0  0  0  0  0
   -3.6330    1.4340   -0.4500 O   0  0  0  0  0  0  0  0  0  0  0  0
   -2.2430    1.1660   -0.4380 C   0  0  0  0  0  0  0  0  0  0  0  0
   -1.4450    1.9200   -1.0000 O   0  0  0  0  0  0  0  0  0  0  0  0
  1  2  1  0
  2  3  1  0
  3  4  1  0
  3  6  1  0
  4  5  1  0
  6  7  1  0
  7  8  2  0
  7  9  1  0
  9 10  2  3
 10 11  1  0
 10 15  1  0
 11 12  1  0
 12 13  1  0
 13 14  1  0
 14 15  1  0
 15 16  2  0
M  END
