
     RDKit          3D

 16 16  0  0  0  0  0  0  0  0999 V2000
   -2.6180   -2.2380   -0.2660 C   0  0  0  0  0  0  0  0  0  0  0  0
   -1.6590   -1.2420    0.1800 N   0  0  0  0  0  0  0  0  0  0  0  0
   -2.0410    0.1400    0.4000 C   0  0  0  0  0  0  0  0  0  0  0  0
   -1.8970    1.0000   -0.8240 C   0  0  0  0  0  0  0  0  0  0  0  0
   -2.2990    2.3110   -0.4780 O   0  0  0  0  0  0  0  0  0  0  0  0
   -0.3230   -1.6530    0.4040 C   0  0  0  0  0  0  0  0  0  0  0  0
   -0.0230   -2.8520    0.2110 O   0  0  0  0  0  0  0  0  0  0  0  0
    0.7380   -0.7390    0.8550 C   0  0  0  0  0  0  0  0  0  0  0  0
    1.0300   -0.4740    2.1850 C   0  0  0  0  0  0  0  0  0  0  0  0
    2.0220    0.3820    2.1830 O   0  0  0  0  0  0  0  0  0  0  0  0
    2.3940    0.6910    0.9640 C   0  0  0  0  0  0  0  0  0  0  0  0
    1.5920   -0.0100    0.0680 C   0  0  0  0  0  0  0  0  0  0  0  0
    1.6450    0.0220   -1.3210 O   0  0  0  0  0  0  0  0  0  0  0  0
    2.8500    1.0540   -2.0790 P   0  0  0  0  0  0  0  0  0  0  0  0
    4.4430    0.3910   -1.7880 O   0  0  0  0  0  0  0  0  0  0  0  0
    2.8200    2.6110   -1.3120 O   0  0  0  0  0  0  0  0  0  0  0  0
  1  2  1  0
  2  3  1  0
  2  6  1  0
  3  4  1  0
  4  5  1  0
  6  7  2  0
  6  8  1  0
  8  9  2  0
  8 12  1  0
  9 10  1  0
 10 11  1  0
 11 12  2  0
 12 13  1  0
 13 14  1  0
 14 15  1  0
 14 16  1  0
M  END
