
     RDKit          3D

 15 15  0  0  0  0  0  0  0  0999 V2000
   -0.4980   -1.8060    1.5460 C   0  0  0  0  0  0  0  0  0  0  0  0
   -0.6500   -0.7030    0.5340 C   0  0  0  0  0  0  0  0  0  0  0  0
    0.4830   -0.1720   -0.1260 N   0  0  0  0  0  0  0  0  0  0  0  0
    1.4760   -1.0540   -0.6640 C   0  0  0  0  0  0  0  0  0  0  0  0
    2.6140   -0.3430   -1.3330 C   0  0  0  0  0  0  0  0  0  0  0  0
    3.2960    0.5050   -0.4620 O   0  0  0  0  0  0  0  0  0  0  0  0
    4.5960    1.3140   -1.2350 P   0  0  0  0  0  0  0  0  0  0  0  0
    4.5540    3.0030   -0.7880 O   0  0  0  0  0  0  0  0  0  0  0  0
    6.1420    0.6740   -0.8200 O   0  0  0  0  0  0  0  0  0  0  0  0
   -1.8660   -0.2630    0.2950 C   0  0  0  0  0  0  0  0  0  0  0  0
   -3.0100   -0.8620    1.0200 C   0  0  0  0  0  0  0  0  0  0  0  0
   -4.2030   -0.3430    0.5690 O   0  0  0  0  0  0  0  0  0  0  0  0
   -4.0690    1.0570    0.5570 C   0  0  0  0  0  0  0  0  0  0  0  0
   -3.3340    1.3770   -0.7500 C   0  0  0  0  0  0  0  0  0  0  0  0
   -2.0650    0.7640   -0.6400 O   0  0  0  0  0  0  0  0  0  0  0  0
  1  2  1  0
  2  3  1  0
  2 10  2  3
  3  4  1  0
  4  5  1  0
  5  6  1  0
  6  7  1  0
  7  8  1  0
  7  9  1  0
 10 11  1  0
 10 15  1  0
 11 12  1  0
 12 13  1  0
 13 14  1  0
 14 15  1  0
M  END
