
     RDKit          3D

 16 16  0  0  0  0  0  0  0  0999 V2000
   -1.1980    1.5060    1.6360 C   0  0  0  0  0  0  0  0  0  0  0  0
   -1.2660    1.0020    0.3000 N   0  0  0  0  0  0  0  0  0  0  0  0
   -2.5530    1.1710   -0.4050 C   0  0  0  0  0  0  0  0  0  0  0  0
   -3.6780   -0.2530   -0.1400 P   0  0  0  0  0  0  0  0  0  0  0  0
   -4.8520   -0.2670   -1.4220 O   0  0  0  0  0  0  0  0  0  0  0  0
   -2.8760   -1.7730   -0.1280 O   0  0  0  0  0  0  0  0  0  0  0  0
   -0.1860    0.3770   -0.3330 C   0  0  0  0  0  0  0  0  0  0  0  0
   -0.4090   -0.0280   -1.5530 O   0  0  0  0  0  0  0  0  0  0  0  0
    1.1410    0.1180    0.1740 C   0  0  0  0  0  0  0  0  0  0  0  0
    1.7220    0.3980    1.3800 C   0  0  0  0  0  0  0  0  0  0  0  0
    2.9880   -0.0400    1.3880 O   0  0  0  0  0  0  0  0  0  0  0  0
    3.2910   -0.5990    0.2550 C   0  0  0  0  0  0  0  0  0  0  0  0
    4.5910   -1.1940   -0.1010 C   0  0  0  0  0  0  0  0  0  0  0  0
    5.5250   -1.1860    0.7340 O   0  0  0  0  0  0  0  0  0  0  0  0
    4.7690   -1.7510   -1.3390 O   0  0  0  0  0  0  0  0  0  0  0  0
    2.1750   -0.5260   -0.5370 C   0  0  0  0  0  0  0  0  0  0  0  0
  1  2  1  0
  2  3  1  0
  2  7  1  0
  3  4  1  0
  4  5  1  0
  4  6  1  0
  7  8  2  0
  7  9  1  0
  9 10  2  0
  9 16  1  0
 10 11  1  0
 11 12  1  0
 12 13  1  0
 12 16  2  0
 13 14  2  0
 13 15  1  0
M  END
