
     RDKit          3D

 15 15  0  0  0  0  0  0  0  0999 V2000
    1.6340   -0.8190    1.2470 C   0  0  0  0  0  0  0  0  0  0  0  0
    1.4840    0.2240    0.2810 N   0  0  0  0  0  0  0  0  0  0  0  0
    2.6930    1.0300    0.0300 C   0  0  0  0  0  0  0  0  0  0  0  0
    3.6020    0.1950   -1.3370 P   0  0  0  0  0  0  0  0  0  0  0  0
    5.1360    0.0010   -1.3520 O   0  0  0  0  0  0  0  0  0  0  0  0
    0.3340    0.5660   -0.4500 C   0  0  0  0  0  0  0  0  0  0  0  0
    0.4070    1.5650   -1.2750 O   0  0  0  0  0  0  0  0  0  0  0  0
   -0.9880   -0.0610   -0.4170 C   0  0  1  0  0  0  0  0  0  0  0  0
   -1.9690    0.5960   -1.2120 O   0  0  0  0  0  0  0  0  0  0  0  0
   -2.2720    1.9040   -0.9050 C   0  0  0  0  0  0  0  0  0  0  0  0
   -1.6670    2.4300    0.0550 O   0  0  0  0  0  0  0  0  0  0  0  0
   -3.2010    2.6720   -1.5900 O   0  0  0  0  0  0  0  0  0  0  0  0
   -0.8830   -1.4970   -0.9560 C   0  0  0  0  0  0  0  0  0  0  0  0
   -1.6480   -2.0030    0.2370 C   0  0  0  0  0  0  0  0  0  0  0  0
   -1.5030   -0.6200    0.8620 C   0  0  0  0  0  0  0  0  0  0  0  0
  1  2  1  0
  2  3  1  0
  2  6  1  0
  3  4  1  0
  4  5  2  0
  6  7  2  0
  6  8  1  0
  8  9  1  6
  8 13  1  0
  8 15  1  0
  9 10  1  0
 10 11  2  0
 10 12  1  0
 13 14  1  0
 14 15  1  0
M  END
