
     RDKit          3D

 15 14  0  0  0  0  0  0  0  0999 V2000
   -4.9050   -0.7630   -0.4700 C   0  0  0  0  0  0  0  0  0  0  0  0
   -3.7830   -1.5320    0.0070 N   0  0  0  0  0  0  0  0  0  0  0  0
   -2.6000   -1.3850   -0.8020 C   0  0  0  0  0  0  0  0  0  0  0  0
   -1.7890   -0.3350   -0.1950 N   0  0  0  0  0  0  0  0  0  0  0  0
   -1.5540   -0.7090    1.0940 O   0  0  0  0  0  0  0  0  0  0  0  0
    0.0210   -0.0710    1.4940 P   0  0  0  0  0  0  0  0  0  0  0  0
    1.1930   -1.2140    1.0290 O   0  0  0  0  0  0  0  0  0  0  0  0
    2.0370   -0.8210    0.0650 N   0  0  0  0  0  0  0  0  0  0  0  0
    3.0500   -2.2620   -0.3180 P   0  0  0  0  0  0  0  0  0  0  0  0
    4.8020   -2.0510    0.1940 C   0  0  0  0  0  0  0  0  0  0  0  0
    0.1650    1.5660    0.6730 C   0  0  2  0  0  0  0  0  0  0  0  0
   -0.1970    1.5270   -0.6630 O   0  0  0  0  0  0  0  0  0  0  0  0
    1.4110    2.1750    0.8730 O   0  0  0  0  0  0  0  0  0  0  0  0
    1.5120    3.0880   -0.0780 O   0  0  0  0  0  0  0  0  0  0  0  0
    2.2470    4.5460    0.4690 P   0  0  0  0  0  0  0  0  0  0  0  0
  1  2  1  0
  2  3  1  0
  3  4  1  0
  4  5  1  0
  5  6  1  0
  6  7  1  0
  6 11  1  0
  7  8  1  0
  8  9  1  0
  9 10  1  0
 11 12  1  6
 11 13  1  0
 13 14  1  0
 14 15  1  0
M  END
