
     RDKit          3D

 22 25  0  0  0  0  0  0  0  0999 V2000
   -1.3240   -0.4130   -1.7240 N   0  0  0  0  0  0  0  0  0  0  0  0
   -0.6090   -0.0180   -0.5720 C   0  0  0  0  0  0  0  0  0  0  0  0
    0.8030    0.0360   -0.6210 N   0  0  0  0  0  0  0  0  0  0  0  0
    1.5490    0.2250    0.6310 C   0  0  0  0  0  0  0  0  0  0  0  0
    3.0150    0.2530    0.3560 C   0  0  0  0  0  0  0  0  0  0  0  0
    3.8140    1.3330    0.0640 C   0  0  0  0  0  0  0  0  0  0  0  0
    5.1050    0.9040   -0.1180 C   0  0  0  0  0  0  0  0  0  0  0  0
    6.3110    1.5150   -0.4220 C   0  0  0  0  0  0  0  0  0  0  0  0
    7.4920    0.8210   -0.5480 C   0  0  0  0  0  0  0  0  0  0  0  0
    7.4500   -0.5540   -0.3580 C   0  0  0  0  0  0  0  0  0  0  0  0
    6.2630   -1.2080   -0.0520 C   0  0  0  0  0  0  0  0  0  0  0  0
    5.0910   -0.4680    0.0670 C   0  0  0  0  0  0  0  0  0  0  0  0
    3.8230   -0.8360    0.3510 N   0  0  0  0  0  0  0  0  0  0  0  0
   -1.2320    0.2830    0.4920 N   0  0  0  0  0  0  0  0  0  0  0  0
   -2.6490    0.2240    0.5270 C   0  0  0  0  0  0  0  0  0  0  0  0
   -3.4870    0.8000    1.4910 C   0  0  0  0  0  0  0  0  0  0  0  0
   -4.7570    0.5110    1.1590 N   0  0  0  0  0  0  0  0  0  0  0  0
   -4.7740   -0.2200    0.0320 C   0  0  0  0  0  0  0  0  0  0  0  0
   -5.9940   -0.7460   -0.6710 C   0  0  1  0  0  0  0  0  0  0  0  0
   -7.0630   -1.3180    0.2040 C   0  0  0  0  0  0  0  0  0  0  0  0
   -7.2600    0.0090   -0.5030 C   0  0  0  0  0  0  0  0  0  0  0  0
   -3.4920   -0.3800   -0.3300 N   0  0  0  0  0  0  0  0  0  0  0  0
  1  2  1  0
  2  3  1  0
  2 14  2  3
  3  4  1  0
  4  5  1  0
  5  6  2  0
  5 13  1  0
  6  7  1  0
  7  8  2  0
  7 12  1  0
  8  9  1  0
  9 10  2  0
 10 11  1  0
 11 12  2  0
 12 13  1  0
 14 15  1  0
 15 16  2  0
 15 22  1  0
 16 17  1  0
 17 18  1  0
 19 18  1  1
 18 22  2  0
 19 20  1  0
 19 21  1  0
 20 21  1  0
M  CHG  1  14   1
M  END
