
     RDKit          3D

 22 25  0  0  0  0  0  0  0  0999 V2000
   -6.1740    0.4840   -1.0140 N   0  0  0  0  0  0  0  0  0  0  0  0
   -5.1550   -0.4060   -0.5710 C   0  0  0  0  0  0  0  0  0  0  0  0
   -5.3740   -1.6670   -0.6610 N   0  0  0  0  0  0  0  0  0  0  0  0
   -3.9360    0.1660   -0.0460 C   0  0  0  0  0  0  0  0  0  0  0  0
   -3.7570    1.5330    0.0270 C   0  0  0  0  0  0  0  0  0  0  0  0
   -2.5960    2.0960    0.5270 C   0  0  0  0  0  0  0  0  0  0  0  0
   -1.5610    1.2840    0.9770 C   0  0  0  0  0  0  0  0  0  0  0  0
   -0.3490    1.4960    1.5010 N   0  0  0  0  0  0  0  0  0  0  0  0
    0.2590    0.3250    1.7670 C   0  0  0  0  0  0  0  0  0  0  0  0
    1.6260    0.1180    2.3580 C   0  0  0  0  0  0  0  0  0  0  0  0
    2.6450    0.0430    1.2830 C   0  0  0  0  0  0  0  0  0  0  0  0
    3.3150    1.0930    0.7810 N   0  0  0  0  0  0  0  0  0  0  0  0
    4.1460    0.6360   -0.1700 C   0  0  0  0  0  0  0  0  0  0  0  0
    5.0710    1.2550   -1.0180 C   0  0  0  0  0  0  0  0  0  0  0  0
    5.7920    0.4910   -1.9120 C   0  0  0  0  0  0  0  0  0  0  0  0
    5.6110   -0.8620   -1.9760 C   0  0  0  0  0  0  0  0  0  0  0  0
    4.6880   -1.4640   -1.1270 C   0  0  0  0  0  0  0  0  0  0  0  0
    3.9540   -0.7240   -0.2240 C   0  0  0  0  0  0  0  0  0  0  0  0
    3.0260   -1.0830    0.6750 N   0  0  0  0  0  0  0  0  0  0  0  0
   -0.6120   -0.6290    1.3930 N   0  0  0  0  0  0  0  0  0  0  0  0
   -1.7460   -0.0790    0.9020 C   0  0  0  0  0  0  0  0  0  0  0  0
   -2.9240   -0.6470    0.3940 C   0  0  0  0  0  0  0  0  0  0  0  0
  1  2  1  0
  2  3  2  0
  2  4  1  0
  4  5  2  0
  4 22  1  0
  5  6  1  0
  6  7  2  0
  7  8  1  0
  7 21  1  0
  8  9  2  0
  9 10  1  0
  9 20  1  0
 10 11  1  0
 11 12  2  0
 11 19  1  0
 12 13  1  0
 13 14  2  0
 13 18  1  0
 14 15  1  0
 15 16  2  0
 16 17  1  0
 17 18  2  0
 18 19  1  0
 20 21  1  0
 21 22  2  0
M  CHG  1   3   1
M  END
