
     RDKit          3D

 22 25  0  0  0  0  0  0  0  0999 V2000
    5.7050    1.5490   -1.1060 N   0  0  0  0  0  0  0  0  0  0  0  0
    4.8150    0.7630   -0.3490 N   0  0  0  0  0  0  0  0  0  0  0  0
    5.1870   -0.1360    0.6790 C   0  0  0  0  0  0  0  0  0  0  0  0
    6.4290   -0.3510    1.0580 N   0  0  0  0  0  0  0  0  0  0  0  0
    3.9640   -0.7460    1.2050 C   0  0  0  0  0  0  0  0  0  0  0  0
    2.8850   -0.1230    0.3980 C   0  0  0  0  0  0  0  0  0  0  0  0
    1.4990   -0.2880    0.4190 C   0  0  0  0  0  0  0  0  0  0  0  0
    0.6340    0.3830   -0.4160 C   0  0  0  0  0  0  0  0  0  0  0  0
   -0.7740    0.1850   -0.3620 N   0  0  0  0  0  0  0  0  0  0  0  0
   -1.3940   -0.7270    0.5640 C   0  0  0  0  0  0  0  0  0  0  0  0
   -2.8600   -0.6920    0.3570 C   0  0  0  0  0  0  0  0  0  0  0  0
   -3.4180   -1.5630   -0.5530 C   0  0  0  0  0  0  0  0  0  0  0  0
   -4.7790   -1.5980   -0.8080 C   0  0  0  0  0  0  0  0  0  0  0  0
   -5.5750   -0.7190   -0.1110 C   0  0  0  0  0  0  0  0  0  0  0  0
   -6.9350   -0.5150   -0.1410 C   0  0  0  0  0  0  0  0  0  0  0  0
   -7.1870    0.4630    0.7380 N   0  0  0  0  0  0  0  0  0  0  0  0
   -6.0780    0.8840    1.3150 N   0  0  0  0  0  0  0  0  0  0  0  0
   -5.0620    0.1660    0.8050 C   0  0  0  0  0  0  0  0  0  0  0  0
   -3.6940    0.1660    1.0280 C   0  0  0  0  0  0  0  0  0  0  0  0
    1.1860    1.2660   -1.3200 C   0  0  0  0  0  0  0  0  0  0  0  0
    2.5460    1.4580   -1.3730 C   0  0  0  0  0  0  0  0  0  0  0  0
    3.4030    0.7680   -0.5170 C   0  0  0  0  0  0  0  0  0  0  0  0
  1  2  1  0
  2  3  1  0
  2 22  1  0
  3  4  2  0
  3  5  1  0
  5  6  1  0
  6  7  2  0
  6 22  1  0
  7  8  1  0
  8  9  1  0
  8 20  2  0
  9 10  1  0
 10 11  1  0
 11 12  2  0
 11 19  1  0
 12 13  1  0
 13 14  2  0
 14 15  1  0
 14 18  1  0
 15 16  2  0
 16 17  1  0
 17 18  1  0
 18 19  2  0
 20 21  1  0
 21 22  2  0
M  CHG  1   4   1
M  END
