
     RDKit          3D

 22 25  0  0  0  0  0  0  0  0999 V2000
    2.4630   -1.6830   -1.6060 C   0  0  0  0  0  0  0  0  0  0  0  0
    2.0120   -0.5520   -1.1430 C   0  0  0  0  0  0  0  0  0  0  0  0
    0.7620   -0.4080   -0.5760 N   0  0  0  0  0  0  0  0  0  0  0  0
    0.5840    0.8540   -0.1960 C   0  0  0  0  0  0  0  0  0  0  0  0
   -0.6070    1.4430    0.4530 C   0  0  0  0  0  0  0  0  0  0  0  0
   -0.8270    2.7360    0.8570 C   0  0  0  0  0  0  0  0  0  0  0  0
   -2.0710    2.8060    1.4040 N   0  0  0  0  0  0  0  0  0  0  0  0
   -2.6650    1.5970    1.3660 C   0  0  0  0  0  0  0  0  0  0  0  0
   -3.8390    1.0880    1.7430 N   0  0  0  0  0  0  0  0  0  0  0  0
   -4.1860   -0.2120    1.5780 C   0  0  0  0  0  0  0  0  0  0  0  0
   -5.4090   -0.6950    1.9820 C   0  0  0  0  0  0  0  0  0  0  0  0
   -5.7850   -2.0330    1.8200 C   0  0  0  0  0  0  0  0  0  0  0  0
   -4.8490   -2.8490    1.2250 C   0  0  0  0  0  0  0  0  0  0  0  0
   -3.6570   -2.3920    0.8270 N   0  0  0  0  0  0  0  0  0  0  0  0
   -3.2990   -1.0890    0.9890 C   0  0  0  0  0  0  0  0  0  0  0  0
   -2.0760   -0.5940    0.5870 C   0  0  0  0  0  0  0  0  0  0  0  0
   -1.7470    0.7410    0.7690 C   0  0  0  0  0  0  0  0  0  0  0  0
    1.6950    1.5090   -0.5120 N   0  0  0  0  0  0  0  0  0  0  0  0
    2.6170    0.6770   -1.1050 C   0  0  0  0  0  0  0  0  0  0  0  0
    3.8040    1.0770   -1.5170 C   0  0  0  0  0  0  0  0  0  0  0  0
    4.8380    0.2690   -2.1570 C   0  0  0  0  0  0  0  0  0  0  0  0
    5.6000   -0.5700   -1.2480 N   0  0  0  0  0  0  0  0  0  0  0  0
  1  2  2  0
  2  3  1  0
  2 19  1  0
  3  4  2  0
  4  5  1  0
  4 18  1  0
  5  6  2  0
  5 17  1  0
  6  7  1  0
  7  8  1  0
  8  9  2  0
  8 17  1  0
  9 10  1  0
 10 11  2  0
 10 15  1  0
 11 12  1  0
 12 13  2  0
 13 14  1  0
 14 15  2  0
 15 16  1  0
 16 17  2  0
 18 19  1  0
 19 20  2  3
 20 21  1  0
 21 22  1  0
M  CHG  1  22   1
M  END
