
     RDKit          3D

 21 24  0  0  0  0  0  0  0  0999 V2000
    2.9260   -2.7960    0.2660 N   0  0  0  0  0  0  0  0  0  0  0  0
    3.2350   -1.8190   -0.7440 C   0  0  0  0  0  0  0  0  0  0  0  0
    3.9300   -0.6310   -0.2140 C   0  0  0  0  0  0  0  0  0  0  0  0
    5.2550   -0.4980    0.1020 N   0  0  0  0  0  0  0  0  0  0  0  0
    5.5320    0.7910    0.3410 N   0  0  0  0  0  0  0  0  0  0  0  0
    4.4080    1.4750    0.1850 C   0  0  0  0  0  0  0  0  0  0  0  0
    3.3690    0.6170   -0.1610 C   0  0  0  0  0  0  0  0  0  0  0  0
    1.9780    0.9750   -0.3370 C   0  0  0  0  0  0  0  0  0  0  0  0
    1.7470    2.1100   -1.1230 C   0  0  0  0  0  0  0  0  0  0  0  0
    0.5000    2.5810   -1.3090 C   0  0  0  0  0  0  0  0  0  0  0  0
   -0.5340    1.9580   -0.7470 C   0  0  0  0  0  0  0  0  0  0  0  0
   -0.3600    0.7690    0.0750 C   0  0  0  0  0  0  0  0  0  0  0  0
   -1.6490    0.2820    0.4340 N   0  0  0  0  0  0  0  0  0  0  0  0
   -2.5110    0.6460    1.3910 C   0  0  0  0  0  0  0  0  0  0  0  0
   -3.7720    0.1310    1.0720 C   0  0  0  0  0  0  0  0  0  0  0  0
   -3.6150   -0.5600   -0.0970 C   0  0  0  0  0  0  0  0  0  0  0  0
   -2.3550   -0.4660   -0.4670 N   0  0  0  0  0  0  0  0  0  0  0  0
   -4.9400   -1.1040   -0.5460 C   0  0  0  0  0  0  0  0  0  0  0  0
   -5.8770   -0.7260    0.5420 C   0  0  0  0  0  0  0  0  0  0  0  0
   -5.1400    0.1150    1.4640 N   0  0  0  0  0  0  0  0  0  0  0  0
    0.8930    0.3230    0.2540 C   0  0  0  0  0  0  0  0  0  0  0  0
  1  2  1  0
  2  3  1  0
  3  4  2  0
  3  7  1  0
  4  5  1  0
  5  6  1  0
  6  7  2  0
  7  8  1  0
  8  9  2  0
  8 21  1  0
  9 10  1  0
 10 11  2  0
 11 12  1  0
 12 13  1  0
 12 21  2  0
 13 14  1  0
 13 17  1  0
 14 15  2  0
 15 16  1  0
 15 20  1  0
 16 17  2  0
 16 18  1  0
 18 19  1  0
 19 20  1  0
M  CHG  1   1   1
M  END
