
     RDKit          3D

 22 25  0  0  0  0  0  0  0  0999 V2000
   -4.8300   -1.9660    0.6860 N   0  0  0  0  0  0  0  0  0  0  0  0
   -5.0430   -0.5870    0.3800 C   0  0  0  0  0  0  0  0  0  0  0  0
   -6.2640    0.0160    0.3260 C   0  0  0  0  0  0  0  0  0  0  0  0
   -6.3380    1.3810    0.0040 C   0  0  0  0  0  0  0  0  0  0  0  0
   -5.2140    2.0820   -0.2420 N   0  0  0  0  0  0  0  0  0  0  0  0
   -4.0290    1.5020   -0.1910 C   0  0  0  0  0  0  0  0  0  0  0  0
   -2.8600    2.1970   -0.5140 C   0  0  0  0  0  0  0  0  0  0  0  0
   -1.6810    1.5670   -0.5200 N   0  0  0  0  0  0  0  0  0  0  0  0
   -1.5350    0.2550   -0.2220 C   0  0  0  0  0  0  0  0  0  0  0  0
   -0.4160   -0.4560   -0.4520 N   0  0  0  0  0  0  0  0  0  0  0  0
    0.4700   -1.0870    0.5360 C   0  0  0  0  0  0  0  0  0  0  0  0
    1.5440    0.0060    0.5260 C   0  0  0  0  0  0  0  0  0  0  0  0
    1.4230    1.3060    0.8620 C   0  0  0  0  0  0  0  0  0  0  0  0
    2.6540    1.8570    0.6240 N   0  0  0  0  0  0  0  0  0  0  0  0
    3.4620    0.9000    0.1550 C   0  0  0  0  0  0  0  0  0  0  0  0
    2.7890   -0.2960    0.0950 C   0  0  0  0  0  0  0  0  0  0  0  0
    3.5150   -1.4990   -0.3780 C   0  0  0  0  0  0  0  0  0  0  0  0
    4.8500   -1.4090    0.3930 C   0  0  0  0  0  0  0  0  0  0  0  0
    5.5900   -0.3160   -0.1850 N   0  0  0  0  0  0  0  0  0  0  0  0
    4.8460    0.8550   -0.4530 C   0  0  0  0  0  0  0  0  0  0  0  0
   -2.6780   -0.4560    0.1070 C   0  0  0  0  0  0  0  0  0  0  0  0
   -3.9200    0.1810    0.1160 C   0  0  0  0  0  0  0  0  0  0  0  0
  1  2  1  0
  2  3  2  0
  2 22  1  0
  3  4  1  0
  4  5  2  0
  5  6  1  0
  6  7  2  0
  6 22  1  0
  7  8  1  0
  8  9  2  0
  9 10  1  0
  9 21  1  0
 10 11  1  0
 11 12  1  0
 12 13  2  0
 12 16  1  0
 13 14  1  0
 14 15  1  0
 15 16  2  0
 15 20  1  0
 16 17  1  0
 17 18  1  0
 18 19  1  0
 19 20  1  0
 21 22  2  0
M  CHG  1  19   1
M  END
