
     RDKit          3D

 22 25  0  0  0  0  0  0  0  0999 V2000
   -3.7080   -0.0290    2.2370 N   0  0  0  0  0  0  0  0  0  0  0  0
   -3.1400   -0.1180    0.9400 C   0  0  0  0  0  0  0  0  0  0  0  0
   -2.3400   -1.1220    0.6540 C   0  0  0  0  0  0  0  0  0  0  0  0
   -1.7350   -1.2720   -0.6310 N   0  0  0  0  0  0  0  0  0  0  0  0
   -2.4190   -1.7010   -1.7010 C   0  0  0  0  0  0  0  0  0  0  0  0
   -1.5720   -1.7420   -2.7890 C   0  0  0  0  0  0  0  0  0  0  0  0
   -0.3910   -1.3250   -2.3090 N   0  0  0  0  0  0  0  0  0  0  0  0
   -0.4680   -1.0370   -1.0120 C   0  0  0  0  0  0  0  0  0  0  0  0
    0.5820   -0.5560   -0.1200 C   0  0  0  0  0  0  0  0  0  0  0  0
    0.5240   -0.2600    1.1900 N   0  0  0  0  0  0  0  0  0  0  0  0
    1.7260    0.1530    1.6320 C   0  0  0  0  0  0  0  0  0  0  0  0
    2.2710    0.5790    2.8400 C   0  0  0  0  0  0  0  0  0  0  0  0
    3.6040    0.9280    2.8670 C   0  0  0  0  0  0  0  0  0  0  0  0
    4.4130    0.8750    1.7680 N   0  0  0  0  0  0  0  0  0  0  0  0
    3.8700    0.4640    0.6200 C   0  0  0  0  0  0  0  0  0  0  0  0
    2.5640    0.1090    0.5360 C   0  0  0  0  0  0  0  0  0  0  0  0
    1.8860   -0.3250   -0.5580 C   0  0  0  0  0  0  0  0  0  0  0  0
    2.6180   -0.4440   -1.8430 C   0  0  0  0  0  0  0  0  0  0  0  0
    3.8030    0.4530   -1.8530 C   0  0  0  0  0  0  0  0  0  0  0  0
    4.6790    0.3790   -0.6270 C   0  0  0  0  0  0  0  0  0  0  0  0
   -3.4920    0.9480   -0.0260 C   0  0  0  0  0  0  0  0  0  0  0  0
   -4.9470    0.9480   -0.2240 N   0  0  0  0  0  0  0  0  0  0  0  0
  1  2  1  0
  2  3  2  3
  2 21  1  0
  3  4  1  0
  4  5  1  0
  4  8  1  0
  5  6  2  0
  6  7  1  0
  7  8  2  0
  8  9  1  0
  9 10  1  0
  9 17  2  0
 10 11  1  0
 11 12  2  0
 11 16  1  0
 12 13  1  0
 13 14  2  0
 14 15  1  0
 15 16  2  0
 15 20  1  0
 16 17  1  0
 17 18  1  0
 18 19  1  0
 19 20  1  0
 21 22  1  0
M  CHG  1  22   1
M  END
