
     RDKit          3D

 22 25  0  0  0  0  0  0  0  0999 V2000
    4.8850   -2.2140    0.3810 N   0  0  0  0  0  0  0  0  0  0  0  0
    5.1760   -0.8530    0.1250 C   0  0  0  0  0  0  0  0  0  0  0  0
    6.4400   -0.3360   -0.0540 C   0  0  0  0  0  0  0  0  0  0  0  0
    6.2830    0.9800   -0.2690 N   0  0  0  0  0  0  0  0  0  0  0  0
    4.9830    1.2850   -0.2290 N   0  0  0  0  0  0  0  0  0  0  0  0
    4.2450    0.1880    0.0130 C   0  0  0  0  0  0  0  0  0  0  0  0
    2.7910    0.0710    0.1370 C   0  0  0  0  0  0  0  0  0  0  0  0
    2.2840   -0.6680    1.1600 C   0  0  0  0  0  0  0  0  0  0  0  0
    0.9060   -0.7800    1.2800 C   0  0  0  0  0  0  0  0  0  0  0  0
    0.0160   -0.1740    0.4040 C   0  0  0  0  0  0  0  0  0  0  0  0
   -1.3590   -0.3460    0.5800 N   0  0  0  0  0  0  0  0  0  0  0  0
   -2.3800    0.3960   -0.0700 C   0  0  0  0  0  0  0  0  0  0  0  0
   -2.1690    1.3910   -0.9310 N   0  0  0  0  0  0  0  0  0  0  0  0
   -3.1420    2.0850   -1.5230 C   0  0  0  0  0  0  0  0  0  0  0  0
   -4.4750    1.8230   -1.2840 C   0  0  0  0  0  0  0  0  0  0  0  0
   -4.7250    0.7950   -0.3940 C   0  0  0  0  0  0  0  0  0  0  0  0
   -3.7170    0.0690    0.2250 C   0  0  0  0  0  0  0  0  0  0  0  0
   -4.2280   -0.8280    1.0040 N   0  0  0  0  0  0  0  0  0  0  0  0
   -5.6710   -0.7560    0.9550 C   0  0  0  0  0  0  0  0  0  0  0  0
   -5.9130    0.3480    0.0020 C   0  0  0  0  0  0  0  0  0  0  0  0
    0.5530    0.5600   -0.6120 C   0  0  0  0  0  0  0  0  0  0  0  0
    1.9430    0.6870   -0.7520 C   0  0  0  0  0  0  0  0  0  0  0  0
  1  2  1  0
  2  3  2  0
  2  6  1  0
  3  4  1  0
  4  5  1  0
  5  6  2  0
  6  7  1  0
  7  8  2  0
  7 22  1  0
  8  9  1  0
  9 10  2  0
 10 11  1  0
 10 21  1  0
 11 12  1  0
 12 13  2  0
 12 17  1  0
 13 14  1  0
 14 15  2  0
 15 16  1  0
 16 17  1  0
 16 20  2  0
 17 18  2  0
 18 19  1  0
 19 20  1  0
 21 22  2  0
M  CHG  1  18   1
M  END
