
     RDKit          3D

 22 25  0  0  0  0  0  0  0  0999 V2000
   -3.8350    2.4340    0.7270 N   0  0  0  0  0  0  0  0  0  0  0  0
   -4.0150    1.0540    0.4270 C   0  0  0  0  0  0  0  0  0  0  0  0
   -4.6420    0.3020    1.2760 N   0  0  0  0  0  0  0  0  0  0  0  0
   -3.4720    0.5630   -0.8440 C   0  0  2  0  0  0  0  0  0  0  0  0
   -3.7090   -0.9000   -1.0730 C   0  0  0  0  0  0  0  0  0  0  0  0
   -2.9740   -1.7340   -0.1510 N   0  0  0  0  0  0  0  0  0  0  0  0
   -1.6160   -1.3840    0.1110 C   0  0  0  0  0  0  0  0  0  0  0  0
   -0.8010   -2.2990    0.7460 C   0  0  0  0  0  0  0  0  0  0  0  0
    0.5100   -1.9410    0.9900 C   0  0  0  0  0  0  0  0  0  0  0  0
    0.9860   -0.7040    0.6100 C   0  0  0  0  0  0  0  0  0  0  0  0
    2.3320   -0.3710    0.8760 N   0  0  0  0  0  0  0  0  0  0  0  0
    2.8950   -0.3970    2.0870 N   0  0  0  0  0  0  0  0  0  0  0  0
    4.1850   -0.0250    1.9940 C   0  0  0  0  0  0  0  0  0  0  0  0
    4.4430    0.2470    0.6610 C   0  0  0  0  0  0  0  0  0  0  0  0
    5.5990    0.6640    0.0160 C   0  0  0  0  0  0  0  0  0  0  0  0
    5.5950    0.8680   -1.3480 C   0  0  0  0  0  0  0  0  0  0  0  0
    4.4120    0.6420   -2.0310 C   0  0  0  0  0  0  0  0  0  0  0  0
    3.2620    0.2260   -1.3850 C   0  0  0  0  0  0  0  0  0  0  0  0
    3.2610    0.0200   -0.0150 C   0  0  0  0  0  0  0  0  0  0  0  0
    0.1430    0.1850   -0.0220 C   0  0  0  0  0  0  0  0  0  0  0  0
   -1.1890   -0.1350   -0.2890 C   0  0  0  0  0  0  0  0  0  0  0  0
   -2.0440    0.7970   -0.9430 N   0  0  0  0  0  0  0  0  0  0  0  0
  1  2  1  0
  2  3  2  0
  4  2  1  1
  4  5  1  0
  4 22  1  0
  5  6  1  0
  6  7  1  0
  7  8  2  0
  7 21  1  0
  8  9  1  0
  9 10  2  0
 10 11  1  0
 10 20  1  0
 11 12  1  0
 11 19  1  0
 12 13  2  0
 13 14  1  0
 14 15  2  0
 14 19  1  0
 15 16  1  0
 16 17  2  0
 17 18  1  0
 18 19  2  0
 20 21  2  0
 21 22  1  0
M  CHG  1   3   1
M  END
