
     RDKit          3D

 22 25  0  0  0  0  0  0  0  0999 V2000
    5.0930    0.8060    1.4340 N   0  0  0  0  0  0  0  0  0  0  0  0
    5.2120    0.2030    0.1520 C   0  0  0  0  0  0  0  0  0  0  0  0
    6.4250   -0.0010   -0.4790 C   0  0  0  0  0  0  0  0  0  0  0  0
    6.1390   -0.5860   -1.6560 N   0  0  0  0  0  0  0  0  0  0  0  0
    4.8210   -0.7400   -1.7580 N   0  0  0  0  0  0  0  0  0  0  0  0
    4.2070   -0.2670   -0.6640 C   0  0  0  0  0  0  0  0  0  0  0  0
    2.7880   -0.2210   -0.3310 C   0  0  0  0  0  0  0  0  0  0  0  0
    1.8370    0.1840   -1.2350 C   0  0  0  0  0  0  0  0  0  0  0  0
    0.4820    0.2270   -0.9190 C   0  0  0  0  0  0  0  0  0  0  0  0
    0.0410   -0.1330    0.3100 C   0  0  0  0  0  0  0  0  0  0  0  0
   -1.3030   -0.1270    0.6860 N   0  0  0  0  0  0  0  0  0  0  0  0
   -2.4200    0.0060   -0.1440 C   0  0  0  0  0  0  0  0  0  0  0  0
   -2.3030    0.1190   -1.4630 N   0  0  0  0  0  0  0  0  0  0  0  0
   -3.3010    0.2340   -2.3200 C   0  0  0  0  0  0  0  0  0  0  0  0
   -4.5850    0.2410   -1.8230 C   0  0  0  0  0  0  0  0  0  0  0  0
   -4.7980    0.1290   -0.4650 C   0  0  0  0  0  0  0  0  0  0  0  0
   -3.7290    0.0100    0.3920 C   0  0  0  0  0  0  0  0  0  0  0  0
   -4.1170   -0.0830    1.6200 N   0  0  0  0  0  0  0  0  0  0  0  0
   -5.5610   -0.0280    1.6430 C   0  0  0  0  0  0  0  0  0  0  0  0
   -5.9360    0.1130    0.2220 C   0  0  0  0  0  0  0  0  0  0  0  0
    1.0000   -0.5510    1.2520 C   0  0  0  0  0  0  0  0  0  0  0  0
    2.3320   -0.5860    0.9180 C   0  0  0  0  0  0  0  0  0  0  0  0
  1  2  1  0
  2  3  2  0
  2  6  1  0
  3  4  1  0
  4  5  1  0
  5  6  2  0
  6  7  1  0
  7  8  2  0
  7 22  1  0
  8  9  1  0
  9 10  2  0
 10 11  1  0
 10 21  1  0
 11 12  1  0
 12 13  2  0
 12 17  1  0
 13 14  1  0
 14 15  2  0
 15 16  1  0
 16 17  1  0
 16 20  2  0
 17 18  2  0
 18 19  1  0
 19 20  1  0
 21 22  2  0
M  CHG  1  18   1
M  END
