
     RDKit          3D

 22 25  0  0  0  0  0  0  0  0999 V2000
   -5.8960    0.0900    0.2940 N   0  0  0  0  0  0  0  0  0  0  0  0
   -4.5150    0.3960    0.2090 C   0  0  0  0  0  0  0  0  0  0  0  0
   -4.0510    1.3490    0.9200 N   0  0  0  0  0  0  0  0  0  0  0  0
   -3.6190   -0.3850   -0.6980 C   0  0  2  0  0  0  0  0  0  0  0  0
   -3.6680   -1.8080   -0.2590 C   0  0  0  0  0  0  0  0  0  0  0  0
   -2.4530   -2.2250    0.4130 N   0  0  0  0  0  0  0  0  0  0  0  0
   -1.1720   -1.7110    0.1290 C   0  0  0  0  0  0  0  0  0  0  0  0
    0.0000   -2.3610    0.4220 C   0  0  0  0  0  0  0  0  0  0  0  0
    1.2260   -1.8010    0.1160 C   0  0  0  0  0  0  0  0  0  0  0  0
    1.3250   -0.5680   -0.4960 C   0  0  0  0  0  0  0  0  0  0  0  0
    2.6060   -0.0370   -0.7890 N   0  0  0  0  0  0  0  0  0  0  0  0
    3.2150   -0.1790   -1.9630 N   0  0  0  0  0  0  0  0  0  0  0  0
    4.4230    0.4320   -1.9490 C   0  0  0  0  0  0  0  0  0  0  0  0
    4.5860    0.9850   -0.7090 C   0  0  0  0  0  0  0  0  0  0  0  0
    5.5780    1.7140   -0.1020 C   0  0  0  0  0  0  0  0  0  0  0  0
    5.4620    2.1540    1.2060 C   0  0  0  0  0  0  0  0  0  0  0  0
    4.3330    1.8600    1.9220 C   0  0  0  0  0  0  0  0  0  0  0  0
    3.3190    1.1180    1.3060 C   0  0  0  0  0  0  0  0  0  0  0  0
    3.4320    0.6760   -0.0010 C   0  0  0  0  0  0  0  0  0  0  0  0
    0.1470    0.0860   -0.7910 C   0  0  0  0  0  0  0  0  0  0  0  0
   -1.0940   -0.4680   -0.4870 C   0  0  0  0  0  0  0  0  0  0  0  0
   -2.3080    0.1790   -0.7780 N   0  0  0  0  0  0  0  0  0  0  0  0
  1  2  1  0
  2  3  2  0
  4  2  1  1
  4  5  1  0
  4 22  1  0
  5  6  1  0
  6  7  1  0
  7  8  2  0
  7 21  1  0
  8  9  1  0
  9 10  2  0
 10 11  1  0
 10 20  1  0
 11 12  1  0
 11 19  1  0
 12 13  2  0
 13 14  1  0
 14 15  2  0
 14 19  1  0
 15 16  1  0
 16 17  2  0
 17 18  1  0
 18 19  2  0
 20 21  2  0
 21 22  1  0
M  CHG  1   3   1
M  END
