
     RDKit          3D

 22 25  0  0  0  0  0  0  0  0999 V2000
   -0.1960   -4.5090   -0.0410 N   0  0  0  0  0  0  0  0  0  0  0  0
    0.2990   -3.1660   -0.2490 C   0  0  0  0  0  0  0  0  0  0  0  0
   -0.6820   -2.1580   -0.2700 N   0  0  0  0  0  0  0  0  0  0  0  0
   -0.4040   -0.8260    0.1540 C   0  0  0  0  0  0  0  0  0  0  0  0
   -1.6960   -0.0470    0.1410 C   0  0  0  0  0  0  0  0  0  0  0  0
   -2.9670   -0.5420    0.1330 C   0  0  0  0  0  0  0  0  0  0  0  0
   -3.8790    0.5220    0.1140 C   0  0  0  0  0  0  0  0  0  0  0  0
   -5.2570    0.5790    0.0990 C   0  0  0  0  0  0  0  0  0  0  0  0
   -5.9080    1.7920    0.0800 C   0  0  0  0  0  0  0  0  0  0  0  0
   -5.1440    2.9390    0.0780 C   0  0  0  0  0  0  0  0  0  0  0  0
   -3.7640    2.8630    0.0930 C   0  0  0  0  0  0  0  0  0  0  0  0
   -3.0930    1.6540    0.1110 C   0  0  0  0  0  0  0  0  0  0  0  0
   -1.7990    1.2930    0.1280 N   0  0  0  0  0  0  0  0  0  0  0  0
    1.5370   -2.9570   -0.3860 N   0  0  0  0  0  0  0  0  0  0  0  0
    2.2600   -1.7750   -0.5960 C   0  0  0  0  0  0  0  0  0  0  0  0
    2.6600   -1.2010   -1.8100 C   0  0  0  0  0  0  0  0  0  0  0  0
    3.3440   -0.0980   -1.5250 N   0  0  0  0  0  0  0  0  0  0  0  0
    3.4100    0.0740   -0.2050 C   0  0  0  0  0  0  0  0  0  0  0  0
    4.0720    1.1630    0.5320 C   0  0  1  0  0  0  0  0  0  0  0  0
    5.4510    1.5580   -0.0570 C   0  0  0  0  0  0  0  0  0  0  0  0
    4.2790    2.5000   -0.0770 C   0  0  0  0  0  0  0  0  0  0  0  0
    2.7500   -0.9470    0.3490 N   0  0  0  0  0  0  0  0  0  0  0  0
  1  2  1  0
  2  3  1  0
  2 14  2  3
  3  4  1  0
  4  5  1  0
  5  6  2  0
  5 13  1  0
  6  7  1  0
  7  8  2  0
  7 12  1  0
  8  9  1  0
  9 10  2  0
 10 11  1  0
 11 12  2  0
 12 13  1  0
 14 15  1  0
 15 16  2  0
 15 22  1  0
 16 17  1  0
 17 18  1  0
 19 18  1  6
 18 22  2  0
 19 20  1  0
 19 21  1  0
 20 21  1  0
M  CHG  1  14   1
M  END
