
     RDKit          3D

 22 25  0  0  0  0  0  0  0  0999 V2000
    5.3880   -0.4200   -1.7090 C   0  0  0  0  0  0  0  0  0  0  0  0
    4.4720    0.3150   -1.1070 C   0  0  0  0  0  0  0  0  0  0  0  0
    4.5580    1.7750   -0.8550 C   0  0  0  0  0  0  0  0  0  0  0  0
    3.1600    2.1250   -0.6030 N   0  0  0  0  0  0  0  0  0  0  0  0
    2.4330    0.9400   -0.2790 C   0  0  0  0  0  0  0  0  0  0  0  0
    1.1740    0.7340    0.2440 C   0  0  0  0  0  0  0  0  0  0  0  0
    0.6480   -0.5180    0.4870 C   0  0  0  0  0  0  0  0  0  0  0  0
    1.4470   -1.6050    0.1800 C   0  0  0  0  0  0  0  0  0  0  0  0
    0.6920   -2.7090    0.5130 C   0  0  0  0  0  0  0  0  0  0  0  0
   -0.5270   -2.3020    1.0080 C   0  0  0  0  0  0  0  0  0  0  0  0
   -0.5440   -0.9500    0.9880 N   0  0  0  0  0  0  0  0  0  0  0  0
   -1.5600   -0.0550    1.3880 C   0  0  0  0  0  0  0  0  0  0  0  0
   -1.5280    0.6790    2.5060 N   0  0  0  0  0  0  0  0  0  0  0  0
   -2.5080    1.5190    2.8560 C   0  0  0  0  0  0  0  0  0  0  0  0
   -3.5720    1.6450    2.0700 N   0  0  0  0  0  0  0  0  0  0  0  0
   -3.7000    0.9360    0.9030 C   0  0  0  0  0  0  0  0  0  0  0  0
   -4.8810    1.1790    0.1770 N   0  0  0  0  0  0  0  0  0  0  0  0
   -2.7000    0.0910    0.5620 C   0  0  0  0  0  0  0  0  0  0  0  0
   -2.6980   -0.7200   -0.6390 C   0  0  0  0  0  0  0  0  0  0  0  0
   -3.8430   -0.5810   -1.4730 N   0  0  0  0  0  0  0  0  0  0  0  0
    2.7100   -1.4150   -0.3450 C   0  0  0  0  0  0  0  0  0  0  0  0
    3.2130   -0.1500   -0.5780 C   0  0  0  0  0  0  0  0  0  0  0  0
  1  2  2  0
  2  3  1  0
  2 22  1  0
  3  4  1  0
  4  5  1  0
  5  6  2  0
  5 22  1  0
  6  7  1  0
  7  8  2  0
  7 11  1  0
  8  9  1  0
  8 21  1  0
  9 10  2  0
 10 11  1  0
 11 12  1  0
 12 13  2  0
 12 18  1  0
 13 14  1  0
 14 15  2  0
 15 16  1  0
 16 17  1  0
 16 18  2  0
 18 19  1  0
 19 20  1  0
 21 22  2  0
M  CHG  1  20   1
M  END
