
     RDKit          3D

 22 25  0  0  0  0  0  0  0  0999 V2000
   -4.1260   -1.1670   -1.3770 C   0  0  0  0  0  0  0  0  0  0  0  0
   -2.9120   -0.7530   -0.9980 C   0  0  0  0  0  0  0  0  0  0  0  0
   -1.8030   -1.5110   -1.0530 N   0  0  0  0  0  0  0  0  0  0  0  0
   -0.7270   -0.8040   -0.5940 C   0  0  0  0  0  0  0  0  0  0  0  0
    0.6000   -1.4230   -0.5580 C   0  0  0  0  0  0  0  0  0  0  0  0
    0.8890   -2.7200   -0.9630 C   0  0  0  0  0  0  0  0  0  0  0  0
    2.1870   -2.9860   -0.8070 N   0  0  0  0  0  0  0  0  0  0  0  0
    2.7340   -1.8690   -0.3050 C   0  0  0  0  0  0  0  0  0  0  0  0
    4.0090   -1.6030    0.0340 N   0  0  0  0  0  0  0  0  0  0  0  0
    4.3870   -0.4170    0.5280 C   0  0  0  0  0  0  0  0  0  0  0  0
    5.7210   -0.1710    0.8720 C   0  0  0  0  0  0  0  0  0  0  0  0
    6.0810    1.0620    1.3790 C   0  0  0  0  0  0  0  0  0  0  0  0
    5.0940    2.0250    1.5310 C   0  0  0  0  0  0  0  0  0  0  0  0
    3.8200    1.8090    1.2090 N   0  0  0  0  0  0  0  0  0  0  0  0
    3.4680    0.5900    0.7090 C   0  0  0  0  0  0  0  0  0  0  0  0
    2.1300    0.3660    0.3710 C   0  0  0  0  0  0  0  0  0  0  0  0
    1.7740   -0.8710   -0.1360 C   0  0  0  0  0  0  0  0  0  0  0  0
   -1.1780    0.3870   -0.2580 N   0  0  0  0  0  0  0  0  0  0  0  0
   -2.5430    0.4640   -0.4950 C   0  0  0  0  0  0  0  0  0  0  0  0
   -3.2470    1.5360   -0.2550 C   0  0  0  0  0  0  0  0  0  0  0  0
   -4.6660    1.7670   -0.4540 C   0  0  0  0  0  0  0  0  0  0  0  0
   -5.4290    1.1240    0.6020 N   0  0  0  0  0  0  0  0  0  0  0  0
  1  2  2  0
  2  3  1  0
  2 19  1  0
  3  4  2  0
  4  5  1  0
  4 18  1  0
  5  6  2  0
  5 17  1  0
  6  7  1  0
  7  8  1  0
  8  9  2  0
  8 17  1  0
  9 10  1  0
 10 11  2  0
 10 15  1  0
 11 12  1  0
 12 13  2  0
 13 14  1  0
 14 15  2  0
 15 16  1  0
 16 17  2  0
 18 19  1  0
 19 20  2  3
 20 21  1  0
 21 22  1  0
M  CHG  1  22   1
M  END
