
     RDKit          3D

 25 28  0  0  0  0  0  0  0  0999 V2000
    5.9100    0.9250   -0.9350 C   0  0  0  0  0  0  0  0  0  0  0  0
    4.8230    1.4270   -0.0480 C   0  0  0  0  0  0  0  0  0  0  0  0
    3.6270    0.5840    0.1520 C   0  0  0  0  0  0  0  0  0  0  0  0
    3.7400   -0.4260    1.0560 C   0  0  0  0  0  0  0  0  0  0  0  0
    2.6610   -1.2510    1.3110 C   0  0  0  0  0  0  0  0  0  0  0  0
    1.4130   -1.1160    0.6940 C   0  0  0  0  0  0  0  0  0  0  0  0
    0.3020   -1.9160    1.2360 C   0  0  0  0  0  0  0  0  0  0  0  0
    0.5370   -3.0730    1.9630 C   0  0  0  0  0  0  0  0  0  0  0  0
   -0.6100   -3.4470    2.5060 N   0  0  0  0  0  0  0  0  0  0  0  0
   -1.5880   -2.5630    2.1460 N   0  0  0  0  0  0  0  0  0  0  0  0
   -1.0220   -1.6120    1.3430 C   0  0  0  0  0  0  0  0  0  0  0  0
   -1.7560   -0.5500    0.6940 N   0  0  0  0  0  0  0  0  0  0  0  0
   -1.4220    0.7280    0.7180 N   0  0  0  0  0  0  0  0  0  0  0  0
   -2.1960    1.4040   -0.1520 C   0  0  0  0  0  0  0  0  0  0  0  0
   -3.0170    0.4940   -0.7190 C   0  0  0  0  0  0  0  0  0  0  0  0
   -2.7370   -0.7350   -0.1810 C   0  0  0  0  0  0  0  0  0  0  0  0
   -3.4880   -1.9360   -0.6990 C   0  0  0  0  0  0  0  0  0  0  0  0
   -4.2890   -2.4570    0.4210 N   0  0  0  0  0  0  0  0  0  0  0  0
   -3.8910    1.2510   -1.6870 C   0  0  0  0  0  0  0  0  0  0  0  0
   -3.4830    2.5980   -1.5620 N   0  0  0  0  0  0  0  0  0  0  0  0
   -2.5220    2.7320   -0.7020 C   0  0  0  0  0  0  0  0  0  0  0  0
   -1.8410    3.9010   -0.2860 N   0  0  0  0  0  0  0  0  0  0  0  0
    1.3290   -0.1060   -0.2190 C   0  0  0  0  0  0  0  0  0  0  0  0
    2.4230    0.7370   -0.4870 C   0  0  0  0  0  0  0  0  0  0  0  0
    2.1960    1.8340   -1.3420 N   0  0  0  0  0  0  0  0  0  0  0  0
  1  2  1  0
  2  3  1  0
  3  4  2  0
  3 24  1  0
  4  5  1  0
  5  6  2  0
  6  7  1  0
  6 23  1  0
  7  8  2  0
  7 11  1  0
  8  9  1  0
  9 10  1  0
 10 11  2  0
 11 12  1  0
 12 13  1  0
 12 16  1  0
 13 14  2  0
 14 15  1  0
 14 21  1  0
 15 16  2  0
 15 19  1  0
 16 17  1  0
 17 18  1  0
 19 20  1  0
 20 21  2  0
 21 22  1  0
 23 24  2  0
 24 25  1  0
M  CHG  2  18   1  20   1
M  END
