
     RDKit          3D

 25 27  0  0  0  0  0  0  0  0999 V2000
   -5.4050    2.0060   -0.5270 C   0  0  0  0  0  0  0  0  0  0  0  0
   -4.4190    2.6460   -1.1170 C   0  0  0  0  0  0  0  0  0  0  0  0
   -4.5360    3.8400   -1.9620 C   0  0  0  0  0  0  0  0  0  0  0  0
   -3.3340    4.1940   -2.3730 C   0  0  0  0  0  0  0  0  0  0  0  0
   -2.3930    3.2430   -1.8120 C   0  0  0  0  0  0  0  0  0  0  0  0
   -2.9960    2.3320   -1.0760 C   0  0  0  0  0  0  0  0  0  0  0  0
   -2.3880    1.2430   -0.3700 N   0  0  0  0  0  0  0  0  0  0  0  0
   -3.0300    0.3510    0.3510 N   0  0  0  0  0  0  0  0  0  0  0  0
   -2.1530   -0.5370    0.8820 C   0  0  0  0  0  0  0  0  0  0  0  0
   -2.4820   -1.7100    1.7290 C   0  0  0  0  0  0  0  0  0  0  0  0
   -2.5260   -3.0050    0.9410 C   0  0  0  0  0  0  0  0  0  0  0  0
   -2.8480   -4.0620    1.8880 N   0  0  0  0  0  0  0  0  0  0  0  0
   -0.9120   -0.1370    0.4420 C   0  0  0  0  0  0  0  0  0  0  0  0
    0.3740   -0.6300    0.6520 C   0  0  0  0  0  0  0  0  0  0  0  0
    0.5540   -1.7710    1.4710 N   0  0  0  0  0  0  0  0  0  0  0  0
    1.4770    0.0050    0.0710 C   0  0  0  0  0  0  0  0  0  0  0  0
    2.7820   -0.5420    0.3280 C   0  0  0  0  0  0  0  0  0  0  0  0
    2.9730   -1.6820    1.1420 N   0  0  0  0  0  0  0  0  0  0  0  0
    3.7870    0.0750   -0.2310 N   0  0  0  0  0  0  0  0  0  0  0  0
    5.1200   -0.4700    0.0230 C   0  0  0  0  0  0  0  0  0  0  0  0
    5.9830   -0.0480   -1.1470 C   0  0  0  0  0  0  0  0  0  0  0  0
    5.9900    1.3900   -1.1860 N   0  0  0  0  0  0  0  0  0  0  0  0
    1.2230    1.1050   -0.6930 C   0  0  0  0  0  0  0  0  0  0  0  0
    0.0050    1.5940   -0.9060 N   0  0  0  0  0  0  0  0  0  0  0  0
   -1.0680    0.9930   -0.3520 C   0  0  0  0  0  0  0  0  0  0  0  0
  1  2  2  0
  2  3  1  0
  2  6  1  0
  3  4  2  0
  4  5  1  0
  5  6  2  0
  6  7  1  0
  7  8  1  0
  7 25  1  0
  8  9  2  0
  9 10  1  0
  9 13  1  0
 10 11  1  0
 11 12  1  0
 13 14  2  0
 13 25  1  0
 14 15  1  0
 14 16  1  0
 16 17  1  0
 16 23  2  0
 17 18  1  0
 17 19  2  3
 19 20  1  0
 20 21  1  0
 21 22  1  0
 23 24  1  0
 24 25  2  0
M  CHG  2  12   1  22   1
M  END
