
     RDKit          3D

 18 17  0  0  0  0  0  0  0  0999 V2000
   -4.3650    2.1080    0.7240 C   0  0  0  0  0  0  0  0  0  0  0  0
   -4.6220    1.2400   -0.2210 C   0  0  0  0  0  0  0  0  0  0  0  0
   -3.6120    0.5360   -0.9800 C   0  0  0  0  0  0  0  0  0  0  0  0
   -4.0010   -0.3130   -1.9530 C   0  0  0  0  0  0  0  0  0  0  0  0
   -2.1730    0.6980   -0.8120 C   0  0  0  0  0  0  0  0  0  0  0  0
   -1.5300   -0.1330    0.2390 C   0  0  2  0  0  0  0  0  0  0  0  0
   -1.7650   -1.5970   -0.1500 C   0  0  0  0  0  0  0  0  0  0  0  0
   -2.0460    0.0010    1.6330 C   0  0  0  0  0  0  0  0  0  0  0  0
   -0.0260    0.1540    0.2650 C   0  0  0  0  0  0  0  0  0  0  0  0
    0.6770   -0.6440    1.3000 C   0  0  0  0  0  0  0  0  0  0  0  0
    2.1400   -0.4620    1.4090 C   0  0  0  0  0  0  0  0  0  0  0  0
    3.0020   -0.7750    0.2590 C   0  0  2  0  0  0  0  0  0  0  0  0
    2.9180   -2.2080   -0.2090 C   0  0  0  0  0  0  0  0  0  0  0  0
    4.4540   -0.6340    0.7700 C   0  0  0  0  0  0  0  0  0  0  0  0
    2.8970    0.1690   -0.8670 C   0  0  0  0  0  0  0  0  0  0  0  0
    2.6650   -0.2920   -2.0360 O   0  0  0  0  0  0  0  0  0  0  0  0
    3.0400    1.5390   -0.7300 O   0  0  0  0  0  0  0  0  0  0  0  0
    2.9360    2.4270   -1.8440 C   0  0  0  0  0  0  0  0  0  0  0  0
  1  2  2  0
  2  3  1  0
  3  4  2  0
  3  5  1  0
  5  6  1  0
  6  7  1  6
  6  8  1  0
  6  9  1  0
  9 10  1  0
 10 11  1  0
 11 12  1  0
 12 13  1  6
 12 14  1  0
 12 15  1  0
 15 16  2  0
 15 17  1  0
 17 18  1  0
M  END
