
     RDKit          3D

 25 27  0  0  0  0  0  0  0  0999 V2000
    3.7620    1.1170    2.7890 C   0  0  0  0  0  0  0  0  0  0  0  0
    3.7530    0.7850    1.3540 C   0  0  0  0  0  0  0  0  0  0  0  0
    4.7140    1.0540    0.5470 N   0  0  0  0  0  0  0  0  0  0  0  0
    4.4370    0.6160   -0.7970 C   0  0  0  0  0  0  0  0  0  0  0  0
    3.1010    0.0540   -0.7110 N   0  0  0  0  0  0  0  0  0  0  0  0
    2.3730   -0.4620   -1.8370 C   0  0  0  0  0  0  0  0  0  0  0  0
    2.6580    0.1280    0.6140 C   0  0  0  0  0  0  0  0  0  0  0  0
    1.5360   -0.2060    1.1430 C   0  0  0  0  0  0  0  0  0  0  0  0
    0.3580   -0.8600    0.5760 C   0  0  0  0  0  0  0  0  0  0  0  0
    0.3230   -2.2020    0.3980 N   0  0  0  0  0  0  0  0  0  0  0  0
   -0.8100   -2.8320   -0.0120 C   0  0  0  0  0  0  0  0  0  0  0  0
   -0.8660   -4.2690   -0.0020 C   0  0  0  0  0  0  0  0  0  0  0  0
   -1.3030   -4.9550   -1.2040 N   0  0  0  0  0  0  0  0  0  0  0  0
   -1.9120   -2.0550   -0.2500 C   0  0  0  0  0  0  0  0  0  0  0  0
   -3.1030   -2.7040   -0.6860 N   0  0  0  0  0  0  0  0  0  0  0  0
   -1.8770   -0.7170   -0.0810 N   0  0  0  0  0  0  0  0  0  0  0  0
   -0.7390   -0.0800    0.3370 C   0  0  0  0  0  0  0  0  0  0  0  0
   -0.7590    1.3660    0.3210 N   0  0  0  0  0  0  0  0  0  0  0  0
   -1.9770    2.0850    0.1640 C   0  0  0  0  0  0  0  0  0  0  0  0
   -3.1910    1.5380    0.5960 C   0  0  0  0  0  0  0  0  0  0  0  0
   -4.3990    2.2190    0.5340 C   0  0  0  0  0  0  0  0  0  0  0  0
   -4.4100    3.5140    0.0110 C   0  0  0  0  0  0  0  0  0  0  0  0
   -3.2230    4.0660   -0.4190 C   0  0  0  0  0  0  0  0  0  0  0  0
   -2.0260    3.3650   -0.3450 C   0  0  0  0  0  0  0  0  0  0  0  0
   -0.8390    3.9650   -0.8230 N   0  0  0  0  0  0  0  0  0  0  0  0
  1  2  1  0
  2  3  2  0
  2  7  1  0
  3  4  1  0
  4  5  1  0
  5  6  1  0
  5  7  1  0
  7  8  2  3
  8  9  1  0
  9 10  2  0
  9 17  1  0
 10 11  1  0
 11 12  1  0
 11 14  2  0
 12 13  1  0
 14 15  1  0
 14 16  1  0
 16 17  2  0
 17 18  1  0
 18 19  1  0
 19 20  2  0
 19 24  1  0
 20 21  1  0
 21 22  2  0
 22 23  1  0
 23 24  2  0
 24 25  1  0
M  CHG  2   3   1  13   1
M  END
