
     RDKit          3D

 25 28  0  0  0  0  0  0  0  0999 V2000
    2.7430    0.2220    1.7270 N   0  0  0  0  0  0  0  0  0  0  0  0
    2.6410   -0.0760    0.3410 C   0  0  0  0  0  0  0  0  0  0  0  0
    3.6960   -0.2260   -0.3820 N   0  0  0  0  0  0  0  0  0  0  0  0
    4.9930   -0.1000    0.1760 C   0  0  0  0  0  0  0  0  0  0  0  0
    5.6630   -1.1300    0.6660 C   0  0  0  0  0  0  0  0  0  0  0  0
    6.9940   -0.6600    1.1760 C   0  0  0  0  0  0  0  0  0  0  0  0
    7.1850    0.5200    0.3180 N   0  0  0  0  0  0  0  0  0  0  0  0
    5.8480    1.0850    0.3420 C   0  0  0  0  0  0  0  0  0  0  0  0
    1.3110   -0.2070   -0.2380 C   0  0  0  0  0  0  0  0  0  0  0  0
    0.1730   -0.0490    0.5230 C   0  0  0  0  0  0  0  0  0  0  0  0
   -1.0890   -0.1720   -0.0190 C   0  0  0  0  0  0  0  0  0  0  0  0
   -2.2070   -0.0160    0.7330 N   0  0  0  0  0  0  0  0  0  0  0  0
   -3.4260   -0.1400    0.1830 C   0  0  0  0  0  0  0  0  0  0  0  0
   -4.5640    0.0180    0.9450 C   0  0  0  0  0  0  0  0  0  0  0  0
   -5.8050   -0.1120    0.3690 C   0  0  0  0  0  0  0  0  0  0  0  0
   -7.0740    0.0430    1.1170 C   0  0  0  0  0  0  0  0  0  0  0  0
   -7.4860    1.4440    1.0670 N   0  0  0  0  0  0  0  0  0  0  0  0
   -5.8660   -0.4030   -0.9840 C   0  0  0  0  0  0  0  0  0  0  0  0
   -4.7410   -0.5610   -1.7460 C   0  0  0  0  0  0  0  0  0  0  0  0
   -3.5060   -0.4330   -1.1770 C   0  0  0  0  0  0  0  0  0  0  0  0
   -2.3890   -0.5880   -1.9240 N   0  0  0  0  0  0  0  0  0  0  0  0
   -1.1710   -0.4630   -1.3680 C   0  0  0  0  0  0  0  0  0  0  0  0
   -0.0450   -0.6200   -2.1250 N   0  0  0  0  0  0  0  0  0  0  0  0
    1.1880   -0.4960   -1.5800 C   0  0  0  0  0  0  0  0  0  0  0  0
    2.3720   -0.6540   -2.3380 N   0  0  0  0  0  0  0  0  0  0  0  0
  1  2  1  0
  2  3  2  3
  2  9  1  0
  3  4  1  0
  4  5  2  0
  4  8  1  0
  5  6  1  0
  6  7  1  0
  7  8  1  0
  9 10  2  0
  9 24  1  0
 10 11  1  0
 11 12  2  0
 11 22  1  0
 12 13  1  0
 13 14  2  0
 13 20  1  0
 14 15  1  0
 15 16  1  0
 15 18  2  0
 16 17  1  0
 18 19  1  0
 19 20  2  0
 20 21  1  0
 21 22  2  0
 22 23  1  0
 23 24  2  0
 24 25  1  0
M  CHG  2   7   1  17   1
M  END
