
     RDKit          3D

 20 22  0  0  0  0  0  0  0  0999 V2000
    5.5590   -0.8450    0.9470 C   0  0  0  0  0  0  0  0  0  0  0  0
    4.3950   -0.0420    0.5890 N   0  0  0  0  0  0  0  0  0  0  0  0
    4.1980    1.2310    0.9800 C   0  0  0  0  0  0  0  0  0  0  0  0
    3.0140    1.6750    0.4680 C   0  0  0  0  0  0  0  0  0  0  0  0
    2.4860    0.6240   -0.2560 C   0  0  0  0  0  0  0  0  0  0  0  0
    1.2070    0.6070   -1.0050 C   0  0  0  0  0  0  0  0  0  0  0  0
    0.0840    0.1380   -0.1000 C   0  0  0  0  0  0  0  0  0  0  0  0
    0.3980   -0.1420    1.0640 O   0  0  0  0  0  0  0  0  0  0  0  0
   -1.2250    0.0520   -0.6300 N   0  0  0  0  0  0  0  0  0  0  0  0
   -1.3960    0.4240   -2.0200 C   0  0  0  0  0  0  0  0  0  0  0  0
   -2.5770    0.3710   -2.5840 C   0  0  0  0  0  0  0  0  0  0  0  0
   -3.6880   -0.0620   -1.7940 C   0  0  0  0  0  0  0  0  0  0  0  0
   -3.6410   -0.4290   -0.5010 C   0  0  0  0  0  0  0  0  0  0  0  0
   -4.8860   -0.8410    0.1290 C   0  0  0  0  0  0  0  0  0  0  0  0
   -6.3870   -0.8380   -0.8300 Cl  0  0  0  0  0  0  0  0  0  0  0  0
   -5.0040   -1.2230    1.3720 C   0  0  0  0  0  0  0  0  0  0  0  0
   -3.5690   -1.2620    2.4110 S   0  0  0  0  0  0  0  0  0  0  0  0
   -2.1860   -0.7220    1.4260 C   0  0  0  0  0  0  0  0  0  0  0  0
   -2.3450   -0.3830    0.1610 C   0  0  0  0  0  0  0  0  0  0  0  0
    3.3530   -0.4050   -0.1600 N   0  0  0  0  0  0  0  0  0  0  0  0
  1  2  1  0
  2  3  1  0
  2 20  1  0
  3  4  2  0
  4  5  1  0
  5  6  1  0
  5 20  2  0
  6  7  1  0
  7  8  2  0
  7  9  1  0
  9 10  1  0
  9 19  1  0
 10 11  2  0
 11 12  1  0
 12 13  2  0
 13 14  1  0
 13 19  1  0
 14 15  1  0
 14 16  2  0
 16 17  1  0
 17 18  1  0
 18 19  2  0
M  END
