
     RDKit          3D

 20 22  0  0  0  0  0  0  0  0999 V2000
   -6.7570   -0.3240   -2.8750 Cl  0  0  0  0  0  0  0  0  0  0  0  0
   -5.5440    0.1310   -1.6980 C   0  0  0  0  0  0  0  0  0  0  0  0
   -4.3200    0.6190   -1.9400 C   0  0  0  0  0  0  0  0  0  0  0  0
   -3.6370    0.8630   -0.6810 C   0  0  0  0  0  0  0  0  0  0  0  0
   -2.3610    1.3630   -0.4790 O   0  0  0  0  0  0  0  0  0  0  0  0
   -1.3660    0.4610   -0.0440 C   0  0  0  0  0  0  0  0  0  0  0  0
   -1.7460   -0.6480    0.4790 N   0  0  0  0  0  0  0  0  0  0  0  0
   -0.8690   -1.6850    0.9770 C   0  0  0  0  0  0  0  0  0  0  0  0
    0.2930   -0.9410    1.6530 C   0  0  0  0  0  0  0  0  0  0  0  0
    0.8730   -0.1280    0.6140 N   0  0  0  0  0  0  0  0  0  0  0  0
    2.2400   -0.2110    0.3780 N   0  0  0  0  0  0  0  0  0  0  0  0
    3.0570    0.7670    0.5010 C   0  0  0  0  0  0  0  0  0  0  0  0
    4.4480    0.5250    0.2200 C   0  0  0  0  0  0  0  0  0  0  0  0
    5.1290   -0.5770   -0.1710 C   0  0  0  0  0  0  0  0  0  0  0  0
    6.4400   -0.5450   -0.3690 C   0  0  0  0  0  0  0  0  0  0  0  0
    7.0660    0.6770   -0.1530 C   0  0  0  0  0  0  0  0  0  0  0  0
    5.7430    1.7490    0.3320 S   0  0  0  0  0  0  0  0  0  0  0  0
    0.0630    0.7590   -0.1730 C   0  0  0  0  0  0  0  0  0  0  0  0
   -4.4500    0.5230    0.3040 C   0  0  0  0  0  0  0  0  0  0  0  0
   -5.7460    0.0220   -0.2320 C   0  0  0  0  0  0  0  0  0  0  0  0
  1  2  1  0
  2  3  2  0
  2 20  1  0
  3  4  1  0
  4  5  1  0
  4 19  2  0
  5  6  1  0
  6  7  2  0
  6 18  1  0
  7  8  1  0
  8  9  1  0
  9 10  1  0
 10 11  1  0
 10 18  1  0
 11 12  2  3
 12 13  1  0
 13 14  2  0
 13 17  1  0
 14 15  1  0
 15 16  2  0
 16 17  1  0
 19 20  1  0
M  END
