
     RDKit          3D

 20 22  0  0  0  0  0  0  0  0999 V2000
   -6.1070    0.2900   -1.0340 C   0  0  0  0  0  0  0  0  0  0  0  0
   -4.9690    1.0910   -0.7150 N   0  0  0  0  0  0  0  0  0  0  0  0
   -3.7960    0.6440   -0.5270 C   0  0  0  0  0  0  0  0  0  0  0  0
   -3.5450   -0.8050   -0.6370 C   0  0  0  0  0  0  0  0  0  0  0  0
   -2.6330   -1.2100    0.4780 C   0  0  0  0  0  0  0  0  0  0  0  0
   -1.6530   -0.3710    0.8240 C   0  0  0  0  0  0  0  0  0  0  0  0
   -1.4820    0.8620    0.1580 N   0  0  0  0  0  0  0  0  0  0  0  0
   -0.2710    1.3940   -0.1750 C   0  0  0  0  0  0  0  0  0  0  0  0
   -0.2110    2.5170   -0.7520 O   0  0  0  0  0  0  0  0  0  0  0  0
    1.0710    0.8190    0.0520 C   0  0  0  0  0  0  0  0  0  0  0  0
    2.2040    1.0850   -0.1280 N   0  0  0  0  0  0  0  0  0  0  0  0
    3.2700    0.3580    0.1630 C   0  0  0  0  0  0  0  0  0  0  0  0
    2.9960   -0.8480    0.7420 C   0  0  0  0  0  0  0  0  0  0  0  0
    1.2470   -0.8620    0.8340 S   0  0  0  0  0  0  0  0  0  0  0  0
    4.0590   -1.8270    1.1020 C   0  0  0  0  0  0  0  0  0  0  0  0
    5.3120   -1.5320    0.8510 C   0  0  0  0  0  0  0  0  0  0  0  0
    6.5920   -2.6700    1.2730 Cl  0  0  0  0  0  0  0  0  0  0  0  0
    5.6590   -0.2870    0.1760 C   0  0  0  0  0  0  0  0  0  0  0  0
    4.6900    0.7510   -0.0480 C   0  0  0  0  0  0  0  0  0  0  0  0
   -2.6980    1.5790   -0.2000 C   0  0  0  0  0  0  0  0  0  0  0  0
  1  2  1  0
  2  3  2  3
  3  4  1  0
  3 20  1  0
  4  5  1  0
  5  6  2  0
  6  7  1  0
  7  8  1  0
  7 20  1  0
  8  9  2  0
  8 10  1  0
 10 11  2  0
 10 14  1  0
 11 12  1  0
 12 13  2  0
 12 19  1  0
 13 14  1  0
 13 15  1  0
 15 16  2  0
 16 17  1  0
 16 18  1  0
 18 19  1  0
M  END
