
     RDKit          3D

 20 22  0  0  0  0  0  0  0  0999 V2000
   -4.0110    2.5030   -0.2240 C   0  0  0  0  0  0  0  0  0  0  0  0
   -2.9060    1.7980   -0.0740 C   0  0  0  0  0  0  0  0  0  0  0  0
   -1.6780    2.4660   -0.1520 C   0  0  0  0  0  0  0  0  0  0  0  0
   -0.4680    1.8300   -0.0100 C   0  0  0  0  0  0  0  0  0  0  0  0
   -0.4120    0.4730    0.2210 C   0  0  0  0  0  0  0  0  0  0  0  0
   -1.6150   -0.1810    0.2980 C   0  0  0  0  0  0  0  0  0  0  0  0
   -1.3040   -1.4640    0.5240 N   0  0  0  0  0  0  0  0  0  0  0  0
    0.0140   -1.6320    0.5890 C   0  0  0  0  0  0  0  0  0  0  0  0
    0.5620   -0.4380    0.4030 N   0  0  0  0  0  0  0  0  0  0  0  0
    1.9370   -0.3000    0.4180 N   0  0  0  0  0  0  0  0  0  0  0  0
    2.8390   -1.1370    0.5860 C   0  0  0  0  0  0  0  0  0  0  0  0
    4.1800   -0.6640    0.5430 O   0  0  0  0  0  0  0  0  0  0  0  0
    4.4650    0.5810   -0.0370 C   0  0  0  0  0  0  0  0  0  0  0  0
    4.0330    0.5520   -1.4720 C   0  0  0  0  0  0  0  0  0  0  0  0
    4.9390   -0.7480   -2.3010 Cl  0  0  0  0  0  0  0  0  0  0  0  0
    2.7210   -2.5780    0.8260 C   0  0  0  0  0  0  0  0  0  0  0  0
    0.9950   -3.0530    0.8580 S   0  0  0  0  0  0  0  0  0  0  0  0
   -2.8570    0.4460    0.1560 C   0  0  0  0  0  0  0  0  0  0  0  0
   -3.9730   -0.2470    0.2420 C   0  0  0  0  0  0  0  0  0  0  0  0
   -3.9030   -1.7050    0.4910 C   0  0  0  0  0  0  0  0  0  0  0  0
  1  2  2  0
  2  3  1  0
  2 18  1  0
  3  4  2  0
  4  5  1  0
  5  6  2  0
  5  9  1  0
  6  7  1  0
  6 18  1  0
  7  8  2  0
  8  9  1  0
  8 17  1  0
  9 10  1  0
 10 11  2  0
 11 12  1  0
 11 16  1  0
 12 13  1  0
 13 14  1  0
 14 15  1  0
 16 17  1  0
 18 19  2  3
 19 20  1  0
M  END
