
     RDKit          3D

 20 22  0  0  0  0  0  0  0  0999 V2000
   -3.7170   -0.6610    1.8390 C   0  0  0  0  0  0  0  0  0  0  0  0
   -3.2540   -0.8330    0.3960 C   0  0  1  0  0  0  0  0  0  0  0  0
   -4.3600   -0.4310   -0.5710 C   0  0  0  0  0  0  0  0  0  0  0  0
   -4.4060    1.0680   -0.3690 C   0  0  0  0  0  0  0  0  0  0  0  0
   -3.0210    1.4420    0.1120 C   0  0  0  0  0  0  0  0  0  0  0  0
   -2.2850    0.2010    0.1360 N   0  0  0  0  0  0  0  0  0  0  0  0
   -0.9040   -0.0110   -0.0540 C   0  0  0  0  0  0  0  0  0  0  0  0
    0.0030    0.6990    0.5250 N   0  0  0  0  0  0  0  0  0  0  0  0
    1.4100    0.5130    0.3560 C   0  0  0  0  0  0  0  0  0  0  0  0
    2.2390    1.2300    0.9440 O   0  0  0  0  0  0  0  0  0  0  0  0
    1.8840   -0.5410   -0.5230 C   0  0  0  0  0  0  0  0  0  0  0  0
    3.1240   -0.8340   -0.8010 C   0  0  0  0  0  0  0  0  0  0  0  0
    4.2880   -0.1810   -0.3040 C   0  0  0  0  0  0  0  0  0  0  0  0
    5.4380   -0.7570    0.2140 C   0  0  0  0  0  0  0  0  0  0  0  0
    6.4300    0.0160    0.5860 C   0  0  0  0  0  0  0  0  0  0  0  0
    6.3170    1.4050    0.4580 C   0  0  0  0  0  0  0  0  0  0  0  0
    7.4260    2.6960    0.8500 Cl  0  0  0  0  0  0  0  0  0  0  0  0
    4.6470    1.5770   -0.2550 S   0  0  0  0  0  0  0  0  0  0  0  0
    0.7890   -1.3210   -1.1570 C   0  0  0  0  0  0  0  0  0  0  0  0
   -0.4350   -1.0440   -0.9140 N   0  0  0  0  0  0  0  0  0  0  0  0
  2  1  1  1
  2  3  1  0
  2  6  1  0
  3  4  1  0
  4  5  1  0
  5  6  1  0
  6  7  1  0
  7  8  2  0
  7 20  1  0
  8  9  1  0
  9 10  2  0
  9 11  1  0
 11 12  2  3
 11 19  1  0
 12 13  1  0
 13 14  2  0
 13 18  1  0
 14 15  1  0
 15 16  2  0
 16 17  1  0
 16 18  1  0
 19 20  2  0
M  END
