
     RDKit          3D

 20 22  0  0  0  0  0  0  0  0999 V2000
   -1.5640    3.6900    0.0520 C   0  0  0  0  0  0  0  0  0  0  0  0
   -2.0720    2.4820   -0.4890 O   0  0  0  0  0  0  0  0  0  0  0  0
   -1.5260    1.2460   -0.1950 C   0  0  0  0  0  0  0  0  0  0  0  0
   -0.2110    1.1010   -0.4430 C   0  0  0  0  0  0  0  0  0  0  0  0
    0.6180   -0.0350   -0.2470 N   0  0  0  0  0  0  0  0  0  0  0  0
    2.0110    0.1010   -0.6060 C   0  0  0  0  0  0  0  0  0  0  0  0
    2.3280   -0.1790   -1.8340 C   0  0  0  0  0  0  0  0  0  0  0  0
    3.6320   -0.1400   -2.4960 C   0  0  0  0  0  0  0  0  0  0  0  0
    4.9520    0.3760   -1.4070 S   0  0  0  0  0  0  0  0  0  0  0  0
    4.2080    0.6820    0.1830 C   0  0  0  0  0  0  0  0  0  0  0  0
    2.9410    0.5380    0.4350 C   0  0  0  0  0  0  0  0  0  0  0  0
    2.3050    0.8700    2.0530 Cl  0  0  0  0  0  0  0  0  0  0  0  0
    0.2800   -1.2930    0.2530 N   0  0  0  0  0  0  0  0  0  0  0  0
   -0.8840   -1.7340    0.6640 C   0  0  0  0  0  0  0  0  0  0  0  0
   -0.8290   -3.0190    1.0840 N   0  0  0  0  0  0  0  0  0  0  0  0
   -1.9010   -3.6710    1.5450 C   0  0  0  0  0  0  0  0  0  0  0  0
   -3.1290   -3.0500    1.6120 C   0  0  0  0  0  0  0  0  0  0  0  0
   -3.1940   -1.7410    1.1860 C   0  0  0  0  0  0  0  0  0  0  0  0
   -2.0840   -1.0580    0.7060 C   0  0  0  0  0  0  0  0  0  0  0  0
   -2.3770    0.1970    0.3490 C   0  0  0  0  0  0  0  0  0  0  0  0
  1  2  1  0
  2  3  1  0
  3  4  2  0
  3 20  1  0
  4  5  1  0
  5  6  1  0
  5 13  1  0
  6  7  2  0
  6 11  1  0
  7  8  1  0
  8  9  1  0
  9 10  1  0
 10 11  2  0
 11 12  1  0
 13 14  2  0
 14 15  1  0
 14 19  1  0
 15 16  2  0
 16 17  1  0
 17 18  2  0
 18 19  1  0
 19 20  2  0
M  END
