
     RDKit          3D

 36 38  0  0  0  0  0  0  0  0999 V2000
   -3.3980   -3.6670    1.7930 C   0  0  0  0  0  0  0  0  0  0  0  0
   -3.1710   -3.8240    0.2720 C   0  0  1  0  0  0  0  0  0  0  0  0
   -3.8340   -2.6920   -0.3790 C   0  0  0  0  0  0  0  0  0  0  0  0
   -2.9940   -1.7950   -1.2070 C   0  0  0  0  0  0  0  0  0  0  0  0
   -3.0300   -0.4720   -1.2090 C   0  0  0  0  0  0  0  0  0  0  0  0
   -3.8990    0.3990   -0.4030 C   0  0  0  0  0  0  0  0  0  0  0  0
   -3.2470    0.9700    0.8170 C   0  0  1  0  0  0  0  0  0  0  0  0
   -3.1590   -0.1120    1.8980 C   0  0  0  0  0  0  0  0  0  0  0  0
   -1.8220    1.2960    0.4290 C   0  0  0  0  0  0  0  0  0  0  0  0
   -1.3640    2.3260    1.4430 C   0  0  2  0  0  0  0  0  0  0  0  0
   -1.9830    3.6390    0.8960 C   0  0  0  0  0  0  0  0  0  0  0  0
   -3.4290    3.2770    0.6250 C   0  0  2  0  0  0  0  0  0  0  0  0
   -4.3050    4.3970    1.1550 C   0  0  0  0  0  0  0  0  0  0  0  0
   -3.8180    2.1220    1.2750 O   0  0  0  0  0  0  0  0  0  0  0  0
   -0.0190    2.4320    1.6380 O   0  0  0  0  0  0  0  0  0  0  0  0
    0.9630    1.6150    2.1300 C   0  0  0  0  0  0  0  0  0  0  0  0
    1.5180    2.0480    3.2410 O   0  0  0  0  0  0  0  0  0  0  0  0
    1.4370    0.3890    1.5900 N   0  0  0  0  0  0  0  0  0  0  0  0
    2.0580    0.1140    0.3430 C   0  0  1  0  0  0  0  0  0  0  0  0
    1.2580    0.5400   -0.8740 C   0  0  0  0  0  0  0  0  0  0  0  0
    3.3620    0.8700    0.1660 C   0  0  0  0  0  0  0  0  0  0  0  0
    3.6630    1.6320    1.1330 O   0  0  0  0  0  0  0  0  0  0  0  0
    4.1780    0.7560   -0.9580 N   0  0  0  0  0  0  0  0  0  0  0  0
    5.4240    1.5250   -1.0420 C   0  0  1  0  0  0  0  0  0  0  0  0
    6.0990    1.1970   -2.3850 C   0  0  0  0  0  0  0  0  0  0  0  0
    5.1750    3.0050   -1.0500 C   0  0  0  0  0  0  0  0  0  0  0  0
    6.3180    1.1770    0.1220 C   0  0  0  0  0  0  0  0  0  0  0  0
    2.3570   -1.3200    0.1760 C   0  0  0  0  0  0  0  0  0  0  0  0
    1.3480   -2.2850   -0.2810 C   0  0  0  0  0  0  0  0  0  0  0  0
    1.7700   -2.9040   -1.4930 C   0  0  0  0  0  0  0  0  0  0  0  0
    1.0540   -3.8560   -2.1660 C   0  0  0  0  0  0  0  0  0  0  0  0
   -0.1420   -4.2180   -1.6190 C   0  0  0  0  0  0  0  0  0  0  0  0
   -0.8400   -5.2180   -2.3680 O   0  0  0  0  0  0  0  0  0  0  0  0
   -0.6620   -3.6700   -0.4220 C   0  0  0  0  0  0  0  0  0  0  0  0
    0.1310   -2.6980    0.2140 C   0  0  0  0  0  0  0  0  0  0  0  0
   -1.8860   -4.1720   -0.0380 O   0  0  0  0  0  0  0  0  0  0  0  0
  2  1  1  1
  2  3  1  0
  2 36  1  0
  3  4  1  0
  4  5  2  0
  5  6  1  0
  6  7  1  0
  7  8  1  1
  7  9  1  0
  7 14  1  0
  9 10  1  0
 10 11  1  6
 10 15  1  0
 11 12  1  0
 12 13  1  1
 12 14  1  0
 15 16  1  0
 16 17  2  0
 16 18  1  0
 18 19  1  0
 19 20  1  6
 19 21  1  0
 19 28  1  0
 21 22  2  0
 21 23  1  0
 23 24  1  0
 24 25  1  6
 24 26  1  0
 24 27  1  0
 28 29  1  0
 29 30  2  0
 29 35  1  0
 30 31  1  0
 31 32  2  0
 32 33  1  0
 32 34  1  0
 34 35  2  0
 34 36  1  0
M  END
