
     RDKit          3D

 36 37  0  0  0  0  0  0  0  0999 V2000
   -4.4610   -1.1050   -2.5550 C   0  0  0  0  0  0  0  0  0  0  0  0
   -4.7740   -1.4870   -1.1100 C   0  0  2  0  0  0  0  0  0  0  0  0
   -5.6610   -0.4410   -0.5440 C   0  0  0  0  0  0  0  0  0  0  0  0
   -5.4490   -0.3000    0.9430 C   0  0  1  0  0  0  0  0  0  0  0  0
   -5.8510   -1.5240    1.7000 C   0  0  0  0  0  0  0  0  0  0  0  0
   -4.0550    0.1570    1.1800 C   0  0  0  0  0  0  0  0  0  0  0  0
   -3.0040   -0.6530    0.4750 C   0  0  1  0  0  0  0  0  0  0  0  0
   -2.2920    0.2740   -0.4830 C   0  0  0  0  0  0  0  0  0  0  0  0
   -1.3640    1.2320    0.1970 C   0  0  0  0  0  0  0  0  0  0  0  0
   -0.6380    1.9950   -0.9150 C   0  0  0  0  0  0  0  0  0  0  0  0
    0.4300    2.9010   -0.3260 C   0  0  2  0  0  0  0  0  0  0  0  0
    0.4570    4.1370   -1.1780 C   0  0  0  0  0  0  0  0  0  0  0  0
    1.4360    5.1850   -0.8200 C   0  0  0  0  0  0  0  0  0  0  0  0
    1.2430    5.7340    0.5600 C   0  0  0  0  0  0  0  0  0  0  0  0
    1.4010    4.7500    1.5060 O   0  0  0  0  0  0  0  0  0  0  0  0
    1.7610    2.2600   -0.2310 C   0  0  0  0  0  0  0  0  0  0  0  0
    1.8440    0.8870   -0.8530 C   0  0  0  0  0  0  0  0  0  0  0  0
    3.1770    0.4550   -0.6580 O   0  0  0  0  0  0  0  0  0  0  0  0
    3.2400   -0.3750    0.4620 C   0  0  2  0  0  0  0  0  0  0  0  0
    4.6650   -0.5730    0.8130 C   0  0  0  0  0  0  0  0  0  0  0  0
    4.9510   -1.2910    1.7970 O   0  0  0  0  0  0  0  0  0  0  0  0
    5.6810    0.0060    0.0940 O   0  0  0  0  0  0  0  0  0  0  0  0
    7.0530   -0.1750    0.4180 C   0  0  0  0  0  0  0  0  0  0  0  0
    7.8730    0.5940   -0.5680 C   0  0  0  0  0  0  0  0  0  0  0  0
    7.5400    1.9280   -0.4940 O   0  0  0  0  0  0  0  0  0  0  0  0
    2.6840   -1.7180    0.1370 C   0  0  0  0  0  0  0  0  0  0  0  0
    1.8900   -2.3730    0.9300 C   0  0  0  0  0  0  0  0  0  0  0  0
    0.9910   -3.1510    0.3970 C   0  0  0  0  0  0  0  0  0  0  0  0
    1.3160   -4.5250    0.1090 C   0  0  0  0  0  0  0  0  0  0  0  0
    1.1230   -5.5100    0.9590 C   0  0  0  0  0  0  0  0  0  0  0  0
    1.4710   -6.8260    0.5900 N   0  0  0  0  0  0  0  0  0  0  0  0
   -0.3440   -2.5340    0.1200 C   0  0  0  0  0  0  0  0  0  0  0  0
   -0.7610   -1.6790    1.2050 N   0  0  0  0  0  0  0  0  0  0  0  0
   -2.0580   -1.2360    1.4810 C   0  0  0  0  0  0  0  0  0  0  0  0
   -2.4910   -1.3260    2.6840 O   0  0  0  0  0  0  0  0  0  0  0  0
   -3.5460   -1.7900   -0.3270 C   0  0  0  0  0  0  0  0  0  0  0  0
  2  1  1  6
  2  3  1  0
  2 36  1  0
  3  4  1  0
  4  5  1  1
  4  6  1  0
  7  6  1  1
  7  8  1  0
  7 34  1  0
  7 36  1  0
  8  9  1  0
  9 10  1  0
 10 11  1  0
 11 12  1  6
 11 16  1  0
 12 13  1  0
 13 14  1  0
 14 15  1  0
 16 17  1  0
 17 18  1  0
 18 19  1  0
 19 20  1  6
 19 26  1  0
 20 21  2  0
 20 22  1  0
 22 23  1  0
 23 24  1  0
 24 25  1  0
 26 27  2  0
 27 28  2  0
 28 29  1  0
 28 32  1  0
 29 30  2  3
 30 31  1  0
 32 33  1  0
 33 34  1  0
 34 35  2  0
M  END
