
     RDKit          3D

 36 39  0  0  0  0  0  0  0  0999 V2000
   -8.0330    0.9860   -1.8810 C   0  0  0  0  0  0  0  0  0  0  0  0
   -6.6850    1.5370   -1.6050 C   0  0  0  0  0  0  0  0  0  0  0  0
   -5.6920    0.6910   -0.8980 C   0  0  0  0  0  0  0  0  0  0  0  0
   -6.0650    0.3050    0.4740 C   0  0  2  0  0  0  0  0  0  0  0  0
   -4.9900   -0.4970    1.1020 N   0  0  0  0  0  0  0  0  0  0  0  0
   -3.6790    0.1010    1.2720 C   0  0  0  0  0  0  0  0  0  0  0  0
   -3.5850    1.2930    1.1780 N   0  0  0  0  0  0  0  0  0  0  0  0
   -2.5640   -0.7840    1.5530 N   0  0  0  0  0  0  0  0  0  0  0  0
   -1.2850   -0.5290    1.0690 C   0  0  0  0  0  0  0  0  0  0  0  0
   -0.2140   -1.3160    1.5180 C   0  0  0  0  0  0  0  0  0  0  0  0
    1.0780   -1.1410    1.0930 C   0  0  0  0  0  0  0  0  0  0  0  0
    1.3150   -0.1370    0.1800 C   0  0  0  0  0  0  0  0  0  0  0  0
    0.2880    0.6570   -0.2840 C   0  0  0  0  0  0  0  0  0  0  0  0
   -1.0150    0.4630    0.1600 C   0  0  0  0  0  0  0  0  0  0  0  0
    0.8470    1.6380   -1.2510 C   0  0  0  0  0  0  0  0  0  0  0  0
    2.2330    1.0830   -1.5270 C   0  0  0  0  0  0  0  0  0  0  0  0
    2.5470    0.2440   -0.4020 N   0  0  0  0  0  0  0  0  0  0  0  0
    3.8740   -0.1060    0.0150 C   0  0  0  0  0  0  0  0  0  0  0  0
    3.9360   -0.8340    1.0220 O   0  0  0  0  0  0  0  0  0  0  0  0
    5.0140    0.3610   -0.6900 C   0  0  0  0  0  0  0  0  0  0  0  0
    6.2660    0.0970   -0.3770 C   0  0  0  0  0  0  0  0  0  0  0  0
    7.3840    0.5970   -1.1270 N   0  0  0  0  0  0  0  0  0  0  0  0
    8.4980    0.1900   -0.5940 C   0  0  0  0  0  0  0  0  0  0  0  0
   10.0840    0.6300   -1.2640 S   0  0  0  0  0  0  0  0  0  0  0  0
   11.4500    0.4190   -0.1480 C   0  0  0  0  0  0  0  0  0  0  0  0
   11.3560    1.4650    0.9760 C   0  0  0  0  0  0  0  0  0  0  0  0
    8.2630   -0.6070    0.5430 N   0  0  0  0  0  0  0  0  0  0  0  0
    9.1620   -1.2980    1.4350 C   0  0  0  0  0  0  0  0  0  0  0  0
    6.8420   -0.6710    0.6890 C   0  0  0  0  0  0  0  0  0  0  0  0
    6.2500   -1.2960    1.5980 O   0  0  0  0  0  0  0  0  0  0  0  0
   -7.2370   -0.5790    0.5160 C   0  0  0  0  0  0  0  0  0  0  0  0
   -8.4580   -0.1750    0.9930 C   0  0  0  0  0  0  0  0  0  0  0  0
   -9.5350   -1.0430    1.0420 C   0  0  0  0  0  0  0  0  0  0  0  0
   -9.3870   -2.3250    0.6120 N   0  0  0  0  0  0  0  0  0  0  0  0
   -8.2140   -2.7560    0.1410 C   0  0  0  0  0  0  0  0  0  0  0  0
   -7.1370   -1.9070    0.0850 C   0  0  0  0  0  0  0  0  0  0  0  0
  1  2  1  0
  2  3  1  0
  4  3  1  6
  4  5  1  0
  4 31  1  0
  5  6  1  0
  6  7  2  0
  6  8  1  0
  8  9  1  0
  9 10  2  0
  9 14  1  0
 10 11  1  0
 11 12  2  0
 12 13  1  0
 12 17  1  0
 13 14  2  0
 13 15  1  0
 15 16  1  0
 16 17  1  0
 17 18  1  0
 18 19  2  0
 18 20  1  0
 20 21  2  3
 21 22  1  0
 21 29  1  0
 22 23  2  0
 23 24  1  0
 23 27  1  0
 24 25  1  0
 25 26  1  0
 27 28  1  0
 27 29  1  0
 29 30  2  0
 31 32  2  0
 31 36  1  0
 32 33  1  0
 33 34  2  0
 34 35  1  0
 35 36  2  0
M  CHG  1  34   1
M  END
