
     RDKit          3D

 36 39  0  0  0  0  0  0  0  0999 V2000
   -7.7740   -1.8130    3.8950 C   0  0  0  0  0  0  0  0  0  0  0  0
   -7.3720   -1.6830    2.5900 C   0  0  0  0  0  0  0  0  0  0  0  0
   -6.2600   -0.8700    2.3440 C   0  0  0  0  0  0  0  0  0  0  0  0
   -5.6140   -0.5220    1.2610 C   0  0  0  0  0  0  0  0  0  0  0  0
   -4.4900    0.3410    1.5090 N   0  0  0  0  0  0  0  0  0  0  0  0
   -3.6570    0.5180    0.5760 C   0  0  0  0  0  0  0  0  0  0  0  0
   -2.6770    1.4390    1.1440 N   0  0  0  0  0  0  0  0  0  0  0  0
   -1.3600    1.1160    0.9870 C   0  0  0  0  0  0  0  0  0  0  0  0
   -1.3090   -0.0810    0.4560 O   0  0  0  0  0  0  0  0  0  0  0  0
   -0.1660    1.8750    1.3280 C   0  0  0  0  0  0  0  0  0  0  0  0
    1.0320    1.2150    1.1170 C   0  0  0  0  0  0  0  0  0  0  0  0
    1.3510   -0.0720    0.6330 N   0  0  0  0  0  0  0  0  0  0  0  0
    2.7410   -0.4490    0.5150 C   0  0  0  0  0  0  0  0  0  0  0  0
    3.6250    0.3660    0.8370 O   0  0  0  0  0  0  0  0  0  0  0  0
    3.1190   -1.7250    0.0420 N   0  0  0  0  0  0  0  0  0  0  0  0
    4.4110   -2.2590   -0.1520 C   0  0  0  0  0  0  0  0  0  0  0  0
    5.3270   -1.6860   -1.1500 C   0  0  1  0  0  0  0  0  0  0  0  0
    5.7750   -0.2750   -1.0160 C   0  0  0  0  0  0  0  0  0  0  0  0
    7.0570   -0.0220   -1.8440 C   0  0  0  0  0  0  0  0  0  0  0  0
    7.0410   -0.9370   -2.9520 N   0  0  1  0  0  0  0  0  0  0  0  0
    8.0430   -0.5090   -3.9230 C   0  0  0  0  0  0  0  0  0  0  0  0
    7.3920   -2.2640   -2.4300 C   0  0  0  0  0  0  0  0  0  0  0  0
    6.6050   -2.5470   -1.1580 C   0  0  0  0  0  0  0  0  0  0  0  0
    2.2990    2.3860    1.6330 S   0  0  0  0  0  0  0  0  0  0  0  0
    1.1540    3.6610    2.0900 C   0  0  0  0  0  0  0  0  0  0  0  0
    1.5170    4.9960    2.6320 C   0  0  0  0  0  0  0  0  0  0  0  0
   -0.1250    3.1270    1.8250 C   0  0  0  0  0  0  0  0  0  0  0  0
   -1.3290    4.0250    2.1060 C   0  0  0  0  0  0  0  0  0  0  0  0
   -1.8860    4.6320    0.8650 C   0  0  0  0  0  0  0  0  0  0  0  0
   -3.8480   -0.0510   -0.6570 N   0  0  0  0  0  0  0  0  0  0  0  0
   -4.8090   -0.7980   -1.0080 C   0  0  0  0  0  0  0  0  0  0  0  0
   -4.8290   -1.3060   -2.3870 C   0  0  0  0  0  0  0  0  0  0  0  0
   -6.0380   -2.1400   -2.5980 C   0  0  0  0  0  0  0  0  0  0  0  0
   -7.2250   -1.7250   -1.8270 C   0  0  0  0  0  0  0  0  0  0  0  0
   -6.9750   -1.8490   -0.3200 C   0  0  0  0  0  0  0  0  0  0  0  0
   -5.7960   -1.0930    0.0020 N   0  0  0  0  0  0  0  0  0  0  0  0
  1  2  2  0
  2  3  1  0
  3  4  2  3
  4  5  1  0
  4 36  1  0
  5  6  2  0
  6  7  1  0
  6 30  1  0
  7  8  1  0
  8  9  2  0
  8 10  1  0
 10 11  2  0
 10 27  1  0
 11 12  1  0
 11 24  1  0
 12 13  1  0
 13 14  2  0
 13 15  1  0
 15 16  1  0
 17 16  1  1
 17 18  1  0
 17 23  1  0
 18 19  1  0
 19 20  1  0
 20 21  1  6
 20 22  1  0
 22 23  1  0
 24 25  1  0
 25 26  1  0
 25 27  2  0
 27 28  1  0
 28 29  1  0
 30 31  2  0
 31 32  1  0
 31 36  1  0
 32 33  1  0
 33 34  1  0
 34 35  1  0
 35 36  1  0
M  CHG  1  20   1
M  END
