
     RDKit          3D

 36 39  0  0  0  0  0  0  0  0999 V2000
    7.7930    1.2460   -2.1480 N   0  0  0  0  0  0  0  0  0  0  0  0
    7.2150    1.3560   -0.8160 C   0  0  0  0  0  0  0  0  0  0  0  0
    8.0530    1.3980    0.1380 N   0  0  0  0  0  0  0  0  0  0  0  0
    5.7410    1.4050   -0.7120 C   0  0  1  0  0  0  0  0  0  0  0  0
    5.0980    0.1610   -1.2790 C   0  0  0  0  0  0  0  0  0  0  0  0
    4.8400   -0.9250   -0.2930 C   0  0  0  0  0  0  0  0  0  0  0  0
    4.4470   -0.4260    1.0790 C   0  0  2  0  0  0  0  0  0  0  0  0
    3.7010   -1.3950    1.9060 C   0  0  0  0  0  0  0  0  0  0  0  0
    2.4770   -1.9110    1.4630 N   0  0  0  0  0  0  0  0  0  0  0  0
    1.2530   -1.2270    1.1920 C   0  0  0  0  0  0  0  0  0  0  0  0
    1.2690    0.0050    1.3800 O   0  0  0  0  0  0  0  0  0  0  0  0
    0.0500   -1.8920    0.7240 C   0  0  2  0  0  0  0  0  0  0  0  0
    0.1300   -2.4050   -0.6570 C   0  0  0  0  0  0  0  0  0  0  0  0
   -0.9270   -3.0820   -1.0880 C   0  0  0  0  0  0  0  0  0  0  0  0
   -2.0920   -3.2580   -0.1360 C   0  0  0  0  0  0  0  0  0  0  0  0
   -2.2650   -1.9270    0.4830 N   0  0  0  0  0  0  0  0  0  0  0  0
   -3.3750   -1.2210    0.7160 C   0  0  0  0  0  0  0  0  0  0  0  0
   -4.5380   -1.6570    0.4000 O   0  0  0  0  0  0  0  0  0  0  0  0
   -3.0660   -0.0710    1.2950 N   0  0  0  0  0  0  0  0  0  0  0  0
   -3.9180    0.9970    1.7050 C   0  0  0  0  0  0  0  0  0  0  0  0
   -4.1200    2.1180    0.7770 C   0  0  0  0  0  0  0  0  0  0  0  0
   -4.8620    1.8570   -0.7650 S   0  0  1  0  0  0  0  0  0  0  0  0
   -4.9280    3.2110   -1.4700 O   0  0  0  0  0  0  0  0  0  0  0  0
   -4.0110    1.0100   -1.6950 O   0  0  0  0  0  0  0  0  0  0  0  0
   -6.4990    1.2590   -0.7140 C   0  0  0  0  0  0  0  0  0  0  0  0
   -6.8820   -0.0090   -1.0840 C   0  0  0  0  0  0  0  0  0  0  0  0
   -8.1960   -0.4630   -1.0120 C   0  0  0  0  0  0  0  0  0  0  0  0
   -9.1780    0.3670   -0.5570 C   0  0  0  0  0  0  0  0  0  0  0  0
  -11.0050   -0.1930   -0.4320 Br  0  0  0  0  0  0  0  0  0  0  0  0
   -8.8350    1.6440   -0.1780 C   0  0  0  0  0  0  0  0  0  0  0  0
   -7.5420    2.0770   -0.2530 C   0  0  0  0  0  0  0  0  0  0  0  0
   -1.6960   -0.1030    1.4100 C   0  0  0  0  0  0  0  0  0  0  0  0
   -1.0300    0.8310    1.9220 O   0  0  0  0  0  0  0  0  0  0  0  0
   -1.2030   -1.2410    0.9120 N   0  0  0  0  0  0  0  0  0  0  0  0
    3.9340    0.9560    0.9520 C   0  0  0  0  0  0  0  0  0  0  0  0
    5.1890    1.8110    0.6050 C   0  0  0  0  0  0  0  0  0  0  0  0
  1  2  1  0
  2  3  2  0
  4  2  1  1
  4  5  1  0
  4 36  1  0
  5  6  1  0
  6  7  1  0
  7  8  1  6
  7 35  1  0
  8  9  1  0
  9 10  1  0
 10 11  2  0
 12 10  1  6
 12 13  1  0
 12 34  1  0
 13 14  2  0
 14 15  1  0
 15 16  1  0
 16 17  1  0
 16 34  1  0
 17 18  2  0
 17 19  1  0
 19 20  1  0
 19 32  1  0
 20 21  1  0
 22 21  1  1
 22 23  2  0
 22 24  2  0
 22 25  1  0
 25 26  2  0
 25 31  1  0
 26 27  1  0
 27 28  2  0
 28 29  1  0
 28 30  1  0
 30 31  2  0
 32 33  2  0
 32 34  1  0
 35 36  1  0
M  CHG  1   3   1
M  END
