
     RDKit          3D

 36 37  0  0  0  0  0  0  0  0999 V2000
    0.6840   -3.9320   -1.3920 C   0  0  0  0  0  0  0  0  0  0  0  0
   -0.5270   -3.4000   -0.7830 C   0  0  0  0  0  0  0  0  0  0  0  0
   -1.0250   -3.4980    0.5020 C   0  0  0  0  0  0  0  0  0  0  0  0
   -0.3710   -4.1830    1.5110 C   0  0  0  0  0  0  0  0  0  0  0  0
   -1.0210   -4.4540    2.7510 C   0  0  0  0  0  0  0  0  0  0  0  0
   -2.2770   -4.0790    3.0500 C   0  0  0  0  0  0  0  0  0  0  0  0
   -2.9050   -3.3980    2.0540 C   0  0  0  0  0  0  0  0  0  0  0  0
   -2.3520   -3.0770    0.7840 C   0  0  0  0  0  0  0  0  0  0  0  0
   -3.2780   -2.3280    0.2050 C   0  0  0  0  0  0  0  0  0  0  0  0
   -3.3920   -1.5410   -1.0440 C   0  0  0  0  0  0  0  0  0  0  0  0
   -2.4430   -0.3990   -1.1700 C   0  0  0  0  0  0  0  0  0  0  0  0
   -3.1410    0.8870   -0.7960 C   0  0  1  0  0  0  0  0  0  0  0  0
   -4.0480    1.2860   -1.9370 C   0  0  0  0  0  0  0  0  0  0  0  0
   -3.9960    0.7050    0.4500 C   0  0  0  0  0  0  0  0  0  0  0  0
   -2.1680    2.0050   -0.5290 C   0  0  2  0  0  0  0  0  0  0  0  0
   -1.4180    1.7370    0.6300 O   0  0  0  0  0  0  0  0  0  0  0  0
   -2.9450    3.2890   -0.3900 C   0  0  0  0  0  0  0  0  0  0  0  0
   -2.1260    4.4800   -0.8980 C   0  0  1  0  0  0  0  0  0  0  0  0
   -2.9640    5.4100   -1.5140 O   0  0  0  0  0  0  0  0  0  0  0  0
   -1.5100    5.1190    0.2750 C   0  0  0  0  0  0  0  0  0  0  0  0
   -2.1980    6.0010    0.8870 O   0  0  0  0  0  0  0  0  0  0  0  0
   -0.2310    4.8370    0.7740 N   0  0  0  0  0  0  0  0  0  0  0  0
    0.9320    4.5290   -0.0080 C   0  0  0  0  0  0  0  0  0  0  0  0
    1.7470    3.4930    0.7640 C   0  0  0  0  0  0  0  0  0  0  0  0
    2.3600    2.5800   -0.2750 C   0  0  0  0  0  0  0  0  0  0  0  0
    3.3050    1.5680    0.3220 C   0  0  0  0  0  0  0  0  0  0  0  0
    2.9250    0.1470   -0.1010 C   0  0  0  0  0  0  0  0  0  0  0  0
    3.7020   -0.7990    0.8110 C   0  0  2  0  0  0  0  0  0  0  0  0
    5.1950   -0.6080    0.6530 C   0  0  0  0  0  0  0  0  0  0  0  0
    5.6460   -0.8730   -0.7660 C   0  0  0  0  0  0  0  0  0  0  0  0
    7.0190   -0.6980   -0.9100 O   0  0  0  0  0  0  0  0  0  0  0  0
    3.3480   -2.1100    0.6240 O   0  0  0  0  0  0  0  0  0  0  0  0
    2.5290   -2.5970    1.6630 C   0  0  0  0  0  0  0  0  0  0  0  0
    2.2550   -4.0470    1.4760 C   0  0  0  0  0  0  0  0  0  0  0  0
    3.2630   -4.7040    1.0700 O   0  0  0  0  0  0  0  0  0  0  0  0
    0.9790   -4.6680    1.7260 N   0  0  0  0  0  0  0  0  0  0  0  0
  1  2  1  0
  2  3  2  3
  3  4  1  0
  3  8  1  0
  4  5  2  0
  4 36  1  0
  5  6  1  0
  6  7  2  0
  7  8  1  0
  8  9  2  0
  9 10  1  0
 10 11  1  0
 11 12  1  0
 12 13  1  6
 12 14  1  0
 12 15  1  0
 15 16  1  1
 15 17  1  0
 17 18  1  0
 18 19  1  1
 18 20  1  0
 20 21  2  0
 20 22  1  0
 22 23  1  0
 23 24  1  0
 24 25  1  0
 25 26  1  0
 26 27  1  0
 27 28  1  0
 28 29  1  6
 28 32  1  0
 29 30  1  0
 30 31  1  0
 32 33  1  0
 33 34  1  0
 34 35  2  0
 34 36  1  0
M  END
