
     RDKit          3D

 22 24  0  0  0  0  0  0  0  0999 V2000
   -5.9190    1.3920    1.1060 C   0  0  0  0  0  0  0  0  0  0  0  0
   -4.9910    0.5150    0.3030 C   0  0  0  0  0  0  0  0  0  0  0  0
   -5.5160   -0.4450   -0.5400 C   0  0  0  0  0  0  0  0  0  0  0  0
   -4.6320   -1.2190   -1.2500 C   0  0  0  0  0  0  0  0  0  0  0  0
   -3.2510   -1.0190   -1.1030 C   0  0  0  0  0  0  0  0  0  0  0  0
   -2.7260   -0.0730   -0.2720 C   0  0  0  0  0  0  0  0  0  0  0  0
   -1.3340    0.1570   -0.1000 N   0  0  0  0  0  0  0  0  0  0  0  0
   -0.2780   -0.5230   -0.7280 C   0  0  0  0  0  0  0  0  0  0  0  0
   -0.5530   -1.4370   -1.5340 O   0  0  0  0  0  0  0  0  0  0  0  0
    1.1410   -0.1940   -0.4680 C   0  0  0  0  0  0  0  0  0  0  0  0
    1.4880    0.8080    0.4150 C   0  0  0  0  0  0  0  0  0  0  0  0
    2.8140    1.1580    0.6950 C   0  0  0  0  0  0  0  0  0  0  0  0
    3.8390    0.4980    0.0850 C   0  0  0  0  0  0  0  0  0  0  0  0
    3.5230   -0.4940   -0.7890 C   0  0  0  0  0  0  0  0  0  0  0  0
    2.1810   -0.8590   -1.0830 C   0  0  0  0  0  0  0  0  0  0  0  0
    1.9740   -1.8680   -1.9750 O   0  0  0  0  0  0  0  0  0  0  0  0
    4.7090   -1.0410   -1.3010 O   0  0  0  0  0  0  0  0  0  0  0  0
    5.7520   -0.7720   -0.3540 C   0  0  2  0  0  0  0  0  0  0  0  0
    5.6740   -1.7130    0.8290 C   0  0  0  0  0  0  0  0  0  0  0  0
    5.3280    0.5940    0.1270 C   0  0  0  0  0  0  0  0  0  0  0  0
   -3.6390    0.7110    0.4470 C   0  0  0  0  0  0  0  0  0  0  0  0
   -3.0870    1.7400    1.3520 C   0  0  0  0  0  0  0  0  0  0  0  0
  1  2  1  0
  2  3  2  0
  2 21  1  0
  3  4  1  0
  4  5  2  0
  5  6  1  0
  6  7  1  0
  6 21  2  0
  7  8  1  0
  8  9  2  0
  8 10  1  0
 10 11  2  0
 10 15  1  0
 11 12  1  0
 12 13  2  0
 13 14  1  0
 13 20  1  0
 14 15  2  0
 14 17  1  0
 15 16  1  0
 17 18  1  0
 18 19  1  1
 18 20  1  0
 21 22  1  0
M  END
