
     RDKit          3D

 26 28  0  0  0  0  0  0  0  0999 V2000
    6.4420   -2.9980   -0.5100 C   0  0  0  0  0  0  0  0  0  0  0  0
    5.3550   -2.2580   -0.4930 C   0  0  0  0  0  0  0  0  0  0  0  0
    4.2430   -2.5180   -1.2270 N   0  0  0  0  0  0  0  0  0  0  0  0
    3.3030   -1.5980   -1.0050 C   0  0  0  0  0  0  0  0  0  0  0  0
    2.0530   -1.5780   -1.5990 O   0  0  0  0  0  0  0  0  0  0  0  0
    3.8200   -0.7100   -0.0970 C   0  0  0  0  0  0  0  0  0  0  0  0
    3.1150    0.4580    0.4230 C   0  0  0  0  0  0  0  0  0  0  0  0
    1.8890    0.8180    0.0910 C   0  0  0  0  0  0  0  0  0  0  0  0
    1.2790    2.0150    0.6790 C   0  0  0  0  0  0  0  0  0  0  0  0
    0.0690    2.3470    0.3340 C   0  0  0  0  0  0  0  0  0  0  0  0
   -0.8740    1.6930   -0.6100 C   0  0  0  0  0  0  0  0  0  0  0  0
   -2.1510    2.1500   -0.1050 N   0  0  0  0  0  0  0  0  0  0  0  0
   -3.3850    1.4690   -0.2870 C   0  0  0  0  0  0  0  0  0  0  0  0
   -3.4450    0.2830   -0.9870 C   0  0  0  0  0  0  0  0  0  0  0  0
   -4.6480   -0.3720   -1.1590 C   0  0  0  0  0  0  0  0  0  0  0  0
   -5.8340    0.1170   -0.6480 C   0  0  0  0  0  0  0  0  0  0  0  0
   -7.1220   -0.6100   -0.8480 C   0  0  0  0  0  0  0  0  0  0  0  0
   -7.3080   -1.5300    0.2430 N   0  0  0  0  0  0  0  0  0  0  0  0
   -5.7770    1.3050    0.0530 C   0  0  0  0  0  0  0  0  0  0  0  0
   -4.5740    1.9580    0.2250 C   0  0  0  0  0  0  0  0  0  0  0  0
   -1.8990    3.3470    0.5640 N   0  0  0  0  0  0  0  0  0  0  0  0
   -0.6690    3.5150    0.8380 C   0  0  0  0  0  0  0  0  0  0  0  0
   -0.0220    4.9180    1.6740 Cl  0  0  0  0  0  0  0  0  0  0  0  0
    5.1230   -1.1130    0.2400 C   0  0  0  0  0  0  0  0  0  0  0  0
    5.8680   -0.4690    1.0790 C   0  0  0  0  0  0  0  0  0  0  0  0
    7.2380   -0.8150    1.4910 C   0  0  0  0  0  0  0  0  0  0  0  0
  1  2  2  0
  2  3  1  0
  2 24  1  0
  3  4  1  0
  4  5  1  0
  4  6  2  0
  6  7  1  0
  6 24  1  0
  7  8  2  3
  8  9  1  0
  9 10  2  3
 10 11  1  0
 10 22  1  0
 11 12  1  0
 12 13  1  0
 12 21  1  0
 13 14  2  0
 13 20  1  0
 14 15  1  0
 15 16  2  0
 16 17  1  0
 16 19  1  0
 17 18  1  0
 19 20  2  0
 21 22  2  0
 22 23  1  0
 24 25  2  3
 25 26  1  0
M  CHG  1  18   1
M  END
