
     RDKit          3D

 26 29  0  0  0  0  0  0  0  0999 V2000
    0.4620    0.1130   -2.0440 N   0  0  0  0  0  0  0  0  0  0  0  0
    1.2370    0.0880   -0.8650 C   0  0  0  0  0  0  0  0  0  0  0  0
    2.5820   -0.0640   -0.9620 N   0  0  0  0  0  0  0  0  0  0  0  0
    3.3820   -0.0920    0.1100 C   0  0  0  0  0  0  0  0  0  0  0  0
    4.8270   -0.2670    0.0530 C   0  0  0  0  0  0  0  0  0  0  0  0
    5.4870   -0.4770   -1.1320 C   0  0  0  0  0  0  0  0  0  0  0  0
    6.8720   -0.6370   -1.1800 C   0  0  0  0  0  0  0  0  0  0  0  0
    7.6150   -0.5850   -0.0120 C   0  0  0  0  0  0  0  0  0  0  0  0
    6.9620   -0.3750    1.1830 C   0  0  0  0  0  0  0  0  0  0  0  0
    7.9160   -0.3060    2.6450 Cl  0  0  0  0  0  0  0  0  0  0  0  0
    5.5960   -0.2220    1.1920 C   0  0  0  0  0  0  0  0  0  0  0  0
    2.7820    0.0410    1.3310 N   0  0  0  0  0  0  0  0  0  0  0  0
    1.4610    0.1920    1.4790 C   0  0  0  0  0  0  0  0  0  0  0  0
    0.9490    0.3090    2.6300 O   0  0  0  0  0  0  0  0  0  0  0  0
    0.6300    0.2210    0.3780 C   0  0  0  0  0  0  0  0  0  0  0  0
   -0.8120    0.3960    0.5060 C   0  0  0  0  0  0  0  0  0  0  0  0
   -1.3200    1.6400    0.7820 C   0  0  0  0  0  0  0  0  0  0  0  0
   -2.6930    1.8000    0.8890 C   0  0  0  0  0  0  0  0  0  0  0  0
   -3.5510    0.7420    0.7240 C   0  0  0  0  0  0  0  0  0  0  0  0
   -5.0200    0.9290    0.8230 C   0  0  1  0  0  0  0  0  0  0  0  0
   -5.6530    2.1530    1.3160 C   0  0  0  0  0  0  0  0  0  0  0  0
   -5.5900    1.9530   -0.1480 C   0  0  0  0  0  0  0  0  0  0  0  0
   -3.0480   -0.5220    0.4440 C   0  0  0  0  0  0  0  0  0  0  0  0
   -3.9680   -1.6860    0.2620 C   0  0  0  0  0  0  0  0  0  0  0  0
   -3.1890   -2.8610   -0.0300 N   0  0  0  0  0  0  0  0  0  0  0  0
   -1.6820   -0.6560    0.3430 C   0  0  0  0  0  0  0  0  0  0  0  0
  1  2  1  0
  2  3  1  0
  2 15  2  0
  3  4  1  0
  4  5  1  0
  4 12  2  0
  5  6  2  0
  5 11  1  0
  6  7  1  0
  7  8  2  0
  8  9  1  0
  9 10  1  0
  9 11  2  0
 12 13  1  0
 13 14  2  0
 13 15  1  0
 15 16  1  0
 16 17  2  0
 16 26  1  0
 17 18  1  0
 18 19  2  0
 20 19  1  6
 19 23  1  0
 20 21  1  0
 20 22  1  0
 21 22  1  0
 23 24  1  0
 23 26  2  0
 24 25  1  0
M  CHG  1  25   1
M  END
