
     RDKit          3D

 22 24  0  0  0  0  0  0  0  0999 V2000
    5.3430   -1.3060    0.0260 C   0  0  0  0  0  0  0  0  0  0  0  0
    5.7470   -0.0550    0.6940 C   0  0  0  0  0  0  0  0  0  0  0  0
    5.0930    0.3350    1.7650 C   0  0  0  0  0  0  0  0  0  0  0  0
    4.0430   -0.3940    2.2760 O   0  0  0  0  0  0  0  0  0  0  0  0
    2.8010   -0.3240    1.6170 C   0  0  0  0  0  0  0  0  0  0  0  0
    2.6570    0.4600    0.4900 C   0  0  0  0  0  0  0  0  0  0  0  0
    1.4230    0.5270   -0.1620 C   0  0  0  0  0  0  0  0  0  0  0  0
    0.3360   -0.1720    0.2910 C   0  0  0  0  0  0  0  0  0  0  0  0
   -0.9610   -0.1190   -0.3690 C   0  0  0  0  0  0  0  0  0  0  0  0
   -2.1260    0.0310    0.3590 C   0  0  0  0  0  0  0  0  0  0  0  0
   -3.3210    0.0760   -0.2920 C   0  0  0  0  0  0  0  0  0  0  0  0
   -4.5220    0.2240    0.3720 C   0  0  0  0  0  0  0  0  0  0  0  0
   -4.5870    0.3350    1.7330 O   0  0  0  0  0  0  0  0  0  0  0  0
   -5.7050    0.2610   -0.3800 C   0  0  0  0  0  0  0  0  0  0  0  0
   -5.7180    0.1550   -1.7540 C   0  0  0  0  0  0  0  0  0  0  0  0
   -4.5130    0.0080   -2.4090 C   0  0  0  0  0  0  0  0  0  0  0  0
   -3.3190   -0.0320   -1.6850 C   0  0  0  0  0  0  0  0  0  0  0  0
   -2.1910   -0.1780   -2.3970 N   0  0  0  0  0  0  0  0  0  0  0  0
   -1.0190   -0.2220   -1.7510 C   0  0  0  0  0  0  0  0  0  0  0  0
    0.0700   -0.3570   -2.3770 O   0  0  0  0  0  0  0  0  0  0  0  0
    0.4900   -0.9470    1.4120 C   0  0  0  0  0  0  0  0  0  0  0  0
    1.7130   -1.0310    2.0820 C   0  0  0  0  0  0  0  0  0  0  0  0
  1  2  1  0
  2  3  2  3
  3  4  1  0
  4  5  1  0
  5  6  2  0
  5 22  1  0
  6  7  1  0
  7  8  2  0
  8  9  1  0
  8 21  1  0
  9 10  2  0
  9 19  1  0
 10 11  1  0
 11 12  2  0
 11 17  1  0
 12 13  1  0
 12 14  1  0
 14 15  2  0
 15 16  1  0
 16 17  2  0
 17 18  1  0
 18 19  1  0
 19 20  2  0
 21 22  2  0
M  END
