
     RDKit          3D

 22 24  0  0  0  0  0  0  0  0999 V2000
   -4.6130   -1.1800   -0.6830 C   0  0  0  0  0  0  0  0  0  0  0  0
   -3.5520   -0.2060   -0.5670 C   0  0  0  0  0  0  0  0  0  0  0  0
   -2.3430   -0.1710   -0.0970 C   0  0  0  0  0  0  0  0  0  0  0  0
   -1.6570    1.1680   -0.2440 C   0  0  0  0  0  0  0  0  0  0  0  0
   -0.3060    1.2030    0.2910 C   0  0  0  0  0  0  0  0  0  0  0  0
    0.3850    2.5090    0.2090 C   0  0  0  0  0  0  0  0  0  0  0  0
   -0.1790    3.5660   -0.3510 C   0  0  0  0  0  0  0  0  0  0  0  0
    0.5230    4.8150   -0.4120 C   0  0  0  0  0  0  0  0  0  0  0  0
    1.8270    4.9450    0.1220 N   0  0  0  0  0  0  0  0  0  0  0  0
   -0.0140    5.8110   -0.9410 O   0  0  0  0  0  0  0  0  0  0  0  0
    0.3040    0.1800    0.8540 C   0  0  0  0  0  0  0  0  0  0  0  0
    1.5900    0.3180    1.3270 O   0  0  0  0  0  0  0  0  0  0  0  0
    2.7770    0.1960    0.5930 C   0  0  0  0  0  0  0  0  0  0  0  0
    2.9970   -1.1410   -0.0300 C   0  0  2  0  0  0  0  0  0  0  0  0
    4.2220   -1.3920   -0.8510 C   0  0  0  0  0  0  0  0  0  0  0  0
    2.9090   -1.2190   -1.5400 C   0  0  0  0  0  0  0  0  0  0  0  0
   -0.3650   -1.1310    0.9970 C   0  0  0  0  0  0  0  0  0  0  0  0
   -1.6200   -1.2460    0.5300 C   0  0  0  0  0  0  0  0  0  0  0  0
   -2.2230   -2.5680    0.7010 C   0  0  0  0  0  0  0  0  0  0  0  0
   -1.6040   -3.5840    1.2670 C   0  0  0  0  0  0  0  0  0  0  0  0
   -0.2280   -3.4640    1.7810 C   0  0  0  0  0  0  0  0  0  0  0  0
    0.2500   -2.1860    1.5760 O   0  0  0  0  0  0  0  0  0  0  0  0
  1  2  1  0
  2  3  2  3
  3  4  1  0
  3 18  1  0
  4  5  1  0
  5  6  1  0
  5 11  2  0
  6  7  2  3
  7  8  1  0
  8  9  1  0
  8 10  2  0
 11 12  1  0
 11 17  1  0
 12 13  1  0
 14 13  1  6
 14 15  1  0
 14 16  1  0
 15 16  1  0
 17 18  2  0
 17 22  1  0
 18 19  1  0
 19 20  2  0
 20 21  1  0
 21 22  1  0
M  END
