
     RDKit          3D

 22 24  0  0  0  0  0  0  0  0999 V2000
    4.7370    2.1310    0.6120 C   0  0  0  0  0  0  0  0  0  0  0  0
    5.0160    0.6690    0.6370 C   0  0  0  0  0  0  0  0  0  0  0  0
    4.0690   -0.2180    0.5130 C   0  0  0  0  0  0  0  0  0  0  0  0
    4.4260   -1.5720    0.5480 O   0  0  0  0  0  0  0  0  0  0  0  0
    4.8040   -2.2780   -0.6100 C   0  0  0  0  0  0  0  0  0  0  0  0
    2.6740    0.1750    0.3420 C   0  0  0  0  0  0  0  0  0  0  0  0
    1.7240   -0.7520    0.2180 C   0  0  0  0  0  0  0  0  0  0  0  0
    0.3150   -0.4210    0.0450 C   0  0  0  0  0  0  0  0  0  0  0  0
   -0.6660   -1.3910   -0.0840 C   0  0  0  0  0  0  0  0  0  0  0  0
   -1.9990   -1.0660   -0.2480 C   0  0  0  0  0  0  0  0  0  0  0  0
   -2.3090    0.2760   -0.2770 C   0  0  0  0  0  0  0  0  0  0  0  0
   -1.3340    1.2650   -0.1490 C   0  0  0  0  0  0  0  0  0  0  0  0
   -1.7470    2.6840   -0.1910 C   0  0  0  0  0  0  0  0  0  0  0  0
   -0.0350    0.9110    0.0100 C   0  0  0  0  0  0  0  0  0  0  0  0
    1.0050    1.9930    0.1470 C   0  0  0  0  0  0  0  0  0  0  0  0
    2.2860    1.4800    0.3030 O   0  0  0  0  0  0  0  0  0  0  0  0
   -3.6170    0.8190   -0.4350 N   0  0  0  0  0  0  0  0  0  0  0  0
   -4.7770    0.2450   -1.0210 C   0  0  0  0  0  0  0  0  0  0  0  0
   -5.5860    1.0650   -1.5210 O   0  0  0  0  0  0  0  0  0  0  0  0
   -5.0840   -1.1980   -1.0790 C   0  0  0  0  0  0  0  0  0  0  0  0
   -4.3170   -2.0220   -0.1090 C   0  0  0  0  0  0  0  0  0  0  0  0
   -2.8820   -2.2200   -0.3650 C   0  0  0  0  0  0  0  0  0  0  0  0
  1  2  1  0
  2  3  2  3
  3  4  1  0
  3  6  1  0
  4  5  1  0
  6  7  2  0
  6 16  1  0
  7  8  1  0
  8  9  2  0
  8 14  1  0
  9 10  1  0
 10 11  2  0
 10 22  1  0
 11 12  1  0
 11 17  1  0
 12 13  1  0
 12 14  2  0
 14 15  1  0
 15 16  1  0
 17 18  1  0
 18 19  2  0
 18 20  1  0
 20 21  1  0
 21 22  1  0
M  END
