
     RDKit          3D

 22 24  0  0  0  0  0  0  0  0999 V2000
   -4.0660   -2.6860    1.0180 C   0  0  0  0  0  0  0  0  0  0  0  0
   -3.1370   -1.5960    0.5840 C   0  0  0  0  0  0  0  0  0  0  0  0
   -1.7590   -1.7760    0.6330 C   0  0  0  0  0  0  0  0  0  0  0  0
   -0.8910   -0.7800    0.2370 C   0  0  0  0  0  0  0  0  0  0  0  0
    0.5610   -1.0350    0.3150 C   0  0  1  0  0  0  0  0  0  0  0  0
    1.0770   -1.4230   -1.0340 C   0  0  0  0  0  0  0  0  0  0  0  0
    2.5500   -1.5530   -0.9430 C   0  0  0  0  0  0  0  0  0  0  0  0
    3.1420   -2.5150   -1.4830 O   0  0  0  0  0  0  0  0  0  0  0  0
    3.2910   -0.5330   -0.2080 C   0  0  0  0  0  0  0  0  0  0  0  0
    2.6340    0.2140    0.6480 C   0  0  0  0  0  0  0  0  0  0  0  0
    3.3800    1.2580    1.4030 C   0  0  0  0  0  0  0  0  0  0  0  0
    4.3400    2.0050    0.5010 C   0  0  0  0  0  0  0  0  0  0  0  0
    4.9840    1.1530   -0.5430 C   0  0  0  0  0  0  0  0  0  0  0  0
    4.7390   -0.3140   -0.3930 C   0  0  0  0  0  0  0  0  0  0  0  0
    1.2620    0.0510    0.8640 O   0  0  0  0  0  0  0  0  0  0  0  0
   -1.4270    0.4100   -0.2120 C   0  0  0  0  0  0  0  0  0  0  0  0
   -2.7870    0.6350   -0.2790 C   0  0  0  0  0  0  0  0  0  0  0  0
   -3.3480    1.9010   -0.7580 C   0  0  0  0  0  0  0  0  0  0  0  0
   -3.8510    2.7580    0.3520 C   0  0  0  0  0  0  0  0  0  0  0  0
   -3.8110    2.4640    1.5230 O   0  0  0  0  0  0  0  0  0  0  0  0
   -3.6340   -0.3800    0.1240 C   0  0  0  0  0  0  0  0  0  0  0  0
   -5.0320   -0.1430    0.0510 N   0  0  0  0  0  0  0  0  0  0  0  0
  1  2  1  0
  2  3  2  0
  2 21  1  0
  3  4  1  0
  5  4  1  6
  4 16  2  0
  5  6  1  0
  5 15  1  0
  6  7  1  0
  7  8  2  0
  7  9  1  0
  9 10  2  0
  9 14  1  0
 10 11  1  0
 10 15  1  0
 11 12  1  0
 12 13  1  0
 13 14  1  0
 16 17  1  0
 17 18  1  0
 17 21  2  0
 18 19  1  0
 19 20  2  0
 21 22  1  0
M  END
