
     RDKit          3D

 22 24  0  0  0  0  0  0  0  0999 V2000
    7.3060   -0.6320    0.1860 C   0  0  0  0  0  0  0  0  0  0  0  0
    5.8510   -0.5330   -0.1110 C   0  0  0  0  0  0  0  0  0  0  0  0
    5.3300   -0.9140   -1.3070 C   0  0  0  0  0  0  0  0  0  0  0  0
    3.9820   -0.8100   -1.5490 C   0  0  0  0  0  0  0  0  0  0  0  0
    3.1440   -0.3100   -0.5660 C   0  0  0  0  0  0  0  0  0  0  0  0
    1.7230   -0.2050   -0.8330 C   0  0  0  0  0  0  0  0  0  0  0  0
    0.8330    0.2520    0.0190 C   0  0  0  0  0  0  0  0  0  0  0  0
   -0.5690    0.3100   -0.3670 C   0  0  0  0  0  0  0  0  0  0  0  0
   -0.9610   -0.0710   -1.5110 O   0  0  0  0  0  0  0  0  0  0  0  0
   -1.5780    0.7920    0.5070 N   0  0  0  0  0  0  0  0  0  0  0  0
   -2.9400    0.8400    0.1110 C   0  0  0  0  0  0  0  0  0  0  0  0
   -3.4070    1.9830   -0.5020 C   0  0  0  0  0  0  0  0  0  0  0  0
   -2.5830    3.0610   -0.7310 O   0  0  0  0  0  0  0  0  0  0  0  0
   -4.7410    2.0820   -0.9130 C   0  0  0  0  0  0  0  0  0  0  0  0
   -5.5770    1.0090   -0.6900 C   0  0  0  0  0  0  0  0  0  0  0  0
   -5.1360   -0.1420   -0.0810 C   0  0  0  0  0  0  0  0  0  0  0  0
   -3.8130   -0.1990    0.3090 C   0  0  0  0  0  0  0  0  0  0  0  0
   -3.6310   -1.5230    0.9200 C   0  0  0  0  0  0  0  0  0  0  0  0
   -4.9050   -2.0180    1.1830 O   0  0  0  0  0  0  0  0  0  0  0  0
   -5.7770   -1.4450    0.2930 C   0  0  0  0  0  0  0  0  0  0  0  0
    3.6450    0.0790    0.6440 C   0  0  0  0  0  0  0  0  0  0  0  0
    5.0180   -0.0400    0.8570 C   0  0  0  0  0  0  0  0  0  0  0  0
  1  2  1  0
  2  3  2  0
  2 22  1  0
  3  4  1  0
  4  5  2  0
  5  6  1  0
  5 21  1  0
  6  7  2  3
  7  8  1  0
  8  9  2  0
  8 10  1  0
 10 11  1  0
 11 12  2  0
 11 17  1  0
 12 13  1  0
 12 14  1  0
 14 15  2  0
 15 16  1  0
 16 17  2  0
 16 20  1  0
 17 18  1  0
 18 19  1  0
 19 20  1  0
 21 22  2  0
M  END
