
     RDKit          3D

 25 26  0  0  0  0  0  0  0  0999 V2000
   -2.5390    1.5400    2.1590 C   0  0  0  0  0  0  0  0  0  0  0  0
   -3.6570    0.7930    1.4430 C   0  0  1  0  0  0  0  0  0  0  0  0
   -4.2200    1.5500    0.3790 N   0  0  0  0  0  0  0  0  0  0  0  0
   -3.2510   -0.6070    1.1370 C   0  0  0  0  0  0  0  0  0  0  0  0
   -2.1030   -0.7670    0.3010 N   0  0  0  0  0  0  0  0  0  0  0  0
   -2.1650   -0.6460   -1.0970 C   0  0  0  0  0  0  0  0  0  0  0  0
   -3.4010   -0.6820   -1.7260 C   0  0  0  0  0  0  0  0  0  0  0  0
   -3.5250   -0.6390   -3.0910 C   0  0  0  0  0  0  0  0  0  0  0  0
   -4.7850   -0.6760   -3.7220 N   0  0  0  0  0  0  0  0  0  0  0  0
   -2.3910   -0.5600   -3.8520 C   0  0  0  0  0  0  0  0  0  0  0  0
   -1.1440   -0.5230   -3.2140 C   0  0  0  0  0  0  0  0  0  0  0  0
   -0.9860   -0.5630   -1.8500 C   0  0  0  0  0  0  0  0  0  0  0  0
    0.2410   -0.4890   -1.1630 N   0  0  0  0  0  0  0  0  0  0  0  0
    1.5380   -0.5050   -1.7380 C   0  0  0  0  0  0  0  0  0  0  0  0
    1.6320   -0.5980   -2.9900 O   0  0  0  0  0  0  0  0  0  0  0  0
    2.7690   -0.4180   -0.9210 C   0  0  0  0  0  0  0  0  0  0  0  0
    2.8150   -0.3200    0.3710 C   0  0  0  0  0  0  0  0  0  0  0  0
    4.1200   -0.2420    1.0400 C   0  0  0  0  0  0  0  0  0  0  0  0
    4.1170   -0.1430    2.3570 C   0  0  0  0  0  0  0  0  0  0  0  0
    5.2510   -0.0500    3.2670 C   0  0  0  0  0  0  0  0  0  0  0  0
    4.9420    0.0570    4.5840 F   0  0  0  0  0  0  0  0  0  0  0  0
    6.5510   -0.0530    3.0300 C   0  0  0  0  0  0  0  0  0  0  0  0
    7.1750   -0.1560    1.7140 C   0  0  0  0  0  0  0  0  0  0  0  0
    6.5720   -0.2520    0.5290 C   0  0  0  0  0  0  0  0  0  0  0  0
    5.2280   -0.2810    0.2120 O   0  0  0  0  0  0  0  0  0  0  0  0
  2  1  1  6
  2  3  1  0
  2  4  1  0
  4  5  1  0
  5  6  1  0
  6  7  2  0
  6 12  1  0
  7  8  1  0
  8  9  1  0
  8 10  2  0
 10 11  1  0
 11 12  2  0
 12 13  1  0
 13 14  1  0
 14 15  2  0
 14 16  1  0
 16 17  2  3
 17 18  1  0
 18 19  2  0
 18 25  1  0
 19 20  1  0
 20 21  1  0
 20 22  2  0
 22 23  1  0
 23 24  2  0
 24 25  1  0
M  CHG  1   3   1
M  END
