
     RDKit          3D

 25 27  0  0  0  0  0  0  0  0999 V2000
    6.1330    1.7370    1.4440 C   0  0  0  0  0  0  0  0  0  0  0  0
    5.1380    0.8130    0.8500 C   0  0  0  0  0  0  0  0  0  0  0  0
    3.8340    1.2380    0.7300 C   0  0  0  0  0  0  0  0  0  0  0  0
    2.9050    0.3850    0.1790 C   0  0  0  0  0  0  0  0  0  0  0  0
    1.5820    0.8450    0.0690 C   0  0  0  0  0  0  0  0  0  0  0  0
    0.6490    0.0230   -0.4700 C   0  0  0  0  0  0  0  0  0  0  0  0
   -0.7100    0.3230   -0.6530 N   0  0  0  0  0  0  0  0  0  0  0  0
   -1.3590    1.5300   -0.3130 C   0  0  0  0  0  0  0  0  0  0  0  0
   -0.6790    2.4510    0.2100 O   0  0  0  0  0  0  0  0  0  0  0  0
   -2.8230    1.7660   -0.5450 C   0  0  0  0  0  0  0  0  0  0  0  0
   -3.4200    0.6190   -1.1400 N   0  0  0  0  0  0  0  0  0  0  0  0
   -3.5990   -0.4060   -0.1100 C   0  0  0  0  0  0  0  0  0  0  0  0
   -4.9840   -0.3200    0.4180 C   0  0  0  0  0  0  0  0  0  0  0  0
   -6.0760   -1.0010   -0.0790 C   0  0  0  0  0  0  0  0  0  0  0  0
   -7.2010   -0.6910    0.6430 C   0  0  0  0  0  0  0  0  0  0  0  0
   -6.7780    0.2020    1.6040 C   0  0  0  0  0  0  0  0  0  0  0  0
   -5.4400    0.4100    1.4490 N   0  0  0  0  0  0  0  0  0  0  0  0
    1.0830   -1.2460   -0.8830 C   0  0  0  0  0  0  0  0  0  0  0  0
    0.2460   -2.0570   -1.3960 O   0  0  0  0  0  0  0  0  0  0  0  0
    2.3410   -1.6710   -0.7740 N   0  0  0  0  0  0  0  0  0  0  0  0
    3.2790   -0.8690   -0.2420 C   0  0  0  0  0  0  0  0  0  0  0  0
    4.5810   -1.2960   -0.1220 C   0  0  0  0  0  0  0  0  0  0  0  0
    4.9600   -2.6740   -0.5920 C   0  0  0  0  0  0  0  0  0  0  0  0
    5.5070   -0.4430    0.4270 C   0  0  0  0  0  0  0  0  0  0  0  0
    6.7940   -0.8500    0.5510 F   0  0  0  0  0  0  0  0  0  0  0  0
  1  2  1  0
  2  3  2  0
  2 24  1  0
  3  4  1  0
  4  5  1  0
  4 21  2  0
  5  6  2  0
  6  7  1  0
  6 18  1  0
  7  8  1  0
  8  9  2  0
  8 10  1  0
 10 11  1  0
 11 12  1  0
 12 13  1  0
 13 14  2  0
 13 17  1  0
 14 15  1  0
 15 16  2  0
 16 17  1  0
 18 19  2  0
 18 20  1  0
 20 21  1  0
 21 22  1  0
 22 23  1  0
 22 24  2  0
 24 25  1  0
M  CHG  1  11   1
M  END
