
     RDKit          3D

 25 27  0  0  0  0  0  0  0  0999 V2000
   -1.1690    6.5350    0.6770 C   0  0  0  0  0  0  0  0  0  0  0  0
   -0.3840    5.5790    1.4870 C   0  0  0  0  0  0  0  0  0  0  0  0
    0.4930    6.0340    2.2650 O   0  0  0  0  0  0  0  0  0  0  0  0
   -0.5630    4.1360    1.4410 C   0  0  0  0  0  0  0  0  0  0  0  0
   -1.4210    3.4130    2.2330 C   0  0  0  0  0  0  0  0  0  0  0  0
   -2.3340    3.9490    3.2880 C   0  0  0  0  0  0  0  0  0  0  0  0
   -1.2960    2.1230    1.8890 N   0  0  0  0  0  0  0  0  0  0  0  0
   -0.3900    1.9780    0.9040 C   0  0  0  0  0  0  0  0  0  0  0  0
    0.0270    0.7440    0.2610 C   0  0  0  0  0  0  0  0  0  0  0  0
    0.8910    0.8040   -0.6460 O   0  0  0  0  0  0  0  0  0  0  0  0
   -0.4980   -0.5200    0.6100 N   0  0  0  0  0  0  0  0  0  0  0  0
   -0.3380   -1.5060   -0.4120 C   0  0  0  0  0  0  0  0  0  0  0  0
    0.9220   -2.3310   -0.2110 C   0  0  1  0  0  0  0  0  0  0  0  0
    0.8200   -3.0140    1.1140 C   0  0  0  0  0  0  0  0  0  0  0  0
    1.3020   -4.3490    0.8660 N   0  0  0  0  0  0  0  0  0  0  0  0
    1.1490   -4.6360   -0.5320 C   0  0  0  0  0  0  0  0  0  0  0  0
    1.1980   -5.8450   -1.2250 C   0  0  0  0  0  0  0  0  0  0  0  0
    1.0200   -5.8810   -2.5900 C   0  0  0  0  0  0  0  0  0  0  0  0
    1.0600   -7.0350   -3.3050 F   0  0  0  0  0  0  0  0  0  0  0  0
    0.7900   -4.6860   -3.2690 C   0  0  0  0  0  0  0  0  0  0  0  0
    0.5990   -4.6530   -4.6690 N   0  0  0  0  0  0  0  0  0  0  0  0
    0.7440   -3.4990   -2.5690 C   0  0  0  0  0  0  0  0  0  0  0  0
    0.9210   -3.4480   -1.1950 C   0  0  0  0  0  0  0  0  0  0  0  0
    0.0790    3.2390    0.6140 C   0  0  0  0  0  0  0  0  0  0  0  0
    1.1160    3.5570   -0.4340 C   0  0  0  0  0  0  0  0  0  0  0  0
  1  2  1  0
  2  3  2  0
  2  4  1  0
  4  5  2  0
  4 24  1  0
  5  6  1  0
  5  7  1  0
  7  8  1  0
  8  9  1  0
  8 24  2  0
  9 10  2  0
  9 11  1  0
 11 12  1  0
 13 12  1  6
 13 14  1  0
 13 23  1  0
 14 15  1  0
 15 16  1  0
 16 17  2  0
 16 23  1  0
 17 18  1  0
 18 19  1  0
 18 20  2  0
 20 21  1  0
 20 22  1  0
 22 23  2  0
 24 25  1  0
M  CHG  1  11   1
M  END
