
     RDKit          3D

 19 20  0  0  0  0  0  0  0  0999 V2000
    2.7770   -1.5790    0.7680 C   0  0  0  0  0  0  0  0  0  0  0  0
    2.8420   -0.2800    0.6110 C   0  0  0  0  0  0  0  0  0  0  0  0
    3.9130    0.4410    1.1650 O   0  0  0  0  0  0  0  0  0  0  0  0
    4.0510    1.8020    1.0410 C   0  0  0  0  0  0  0  0  0  0  0  0
    3.1230    2.4480    0.3640 C   0  0  0  0  0  0  0  0  0  0  0  0
    1.9900    1.7640   -0.2360 C   0  0  0  0  0  0  0  0  0  0  0  0
    1.8340    0.4310   -0.1260 C   0  0  0  0  0  0  0  0  0  0  0  0
    0.6240   -0.1660   -0.7510 C   0  0  2  0  0  0  0  0  0  0  0  0
    0.8460   -1.3570   -1.5970 C   0  0  0  0  0  0  0  0  0  0  0  0
    0.3120    0.8450   -1.7810 O   0  0  0  0  0  0  0  0  0  0  0  0
   -0.6020   -0.1420    0.1050 C   0  0  2  0  0  0  0  0  0  0  0  0
   -0.6510    1.2010    0.5900 O   0  0  0  0  0  0  0  0  0  0  0  0
   -0.6190   -0.9830    1.3260 C   0  0  0  0  0  0  0  0  0  0  0  0
   -1.0710   -2.3910    1.1060 C   0  0  0  0  0  0  0  0  0  0  0  0
   -1.8010   -2.6260   -0.0190 O   0  0  0  0  0  0  0  0  0  0  0  0
   -2.5950   -1.5890   -0.3520 C   0  0  0  0  0  0  0  0  0  0  0  0
   -1.9090   -0.2700   -0.6660 C   0  0  1  0  0  0  0  0  0  0  0  0
   -2.9270    0.7800   -0.2750 C   0  0  0  0  0  0  0  0  0  0  0  0
   -2.5520    2.1910   -0.4800 C   0  0  0  0  0  0  0  0  0  0  0  0
  1  2  2  0
  2  3  1  0
  2  7  1  0
  3  4  1  0
  4  5  2  0
  5  6  1  0
  6  7  2  0
  7  8  1  0
  8  9  1  6
  8 10  1  0
  8 11  1  0
 11 12  1  1
 11 13  1  0
 11 17  1  0
 13 14  1  0
 14 15  1  0
 15 16  1  0
 16 17  1  0
 17 18  1  1
 18 19  1  0
M  END
