
     RDKit          3D

 25 27  0  0  0  0  0  0  0  0999 V2000
   -4.0660    2.4920    2.1420 C   0  0  0  0  0  0  0  0  0  0  0  0
   -2.6750    2.2420    1.6470 C   0  0  0  0  0  0  0  0  0  0  0  0
   -1.8050    3.1770    2.1550 F   0  0  0  0  0  0  0  0  0  0  0  0
   -2.2820    1.2420    0.9220 C   0  0  0  0  0  0  0  0  0  0  0  0
   -3.1780    0.1360    0.4570 C   0  0  0  0  0  0  0  0  0  0  0  0
   -4.4760   -0.0540    0.5590 C   0  0  0  0  0  0  0  0  0  0  0  0
   -5.2060   -1.2530    0.0170 C   0  0  0  0  0  0  0  0  0  0  0  0
   -4.4370   -1.8680   -1.1300 C   0  0  0  0  0  0  0  0  0  0  0  0
   -2.9980   -2.0200   -0.7890 C   0  0  0  0  0  0  0  0  0  0  0  0
   -2.4200   -0.8180   -0.2190 N   0  0  0  0  0  0  0  0  0  0  0  0
   -1.0380   -0.3790   -0.2230 C   0  0  0  0  0  0  0  0  0  0  0  0
   -0.1520   -1.0740   -0.7760 O   0  0  0  0  0  0  0  0  0  0  0  0
   -0.9350    0.9150    0.4850 C   0  0  0  0  0  0  0  0  0  0  0  0
    0.1890    1.6450    0.4380 C   0  0  0  0  0  0  0  0  0  0  0  0
    0.3500    2.9930    0.7950 N   0  0  0  0  0  0  0  0  0  0  0  0
    1.4420    0.9120    0.0990 C   0  0  0  0  0  0  0  0  0  0  0  0
    2.5970    1.5310    0.0290 C   0  0  0  0  0  0  0  0  0  0  0  0
    3.7870    0.7600   -0.3090 C   0  0  0  0  0  0  0  0  0  0  0  0
    4.8660    1.3940   -0.3630 O   0  0  0  0  0  0  0  0  0  0  0  0
    3.7470   -0.6020   -0.5610 N   0  0  0  0  0  0  0  0  0  0  0  0
    4.9340   -1.3330   -0.8910 C   0  0  0  0  0  0  0  0  0  0  0  0
    6.2330   -0.9050   -1.0190 C   0  0  0  0  0  0  0  0  0  0  0  0
    7.0750   -1.9710   -1.3570 C   0  0  0  0  0  0  0  0  0  0  0  0
    6.2410   -3.0460   -1.4260 C   0  0  0  0  0  0  0  0  0  0  0  0
    4.9830   -2.6730   -1.1520 N   0  0  0  0  0  0  0  0  0  0  0  0
  1  2  1  0
  2  3  1  0
  2  4  2  3
  4  5  1  0
  4 13  1  0
  5  6  2  0
  5 10  1  0
  6  7  1  0
  7  8  1  0
  8  9  1  0
  9 10  1  0
 10 11  1  0
 11 12  2  0
 11 13  1  0
 13 14  2  3
 14 15  1  0
 14 16  1  0
 16 17  2  3
 17 18  1  0
 18 19  2  0
 18 20  1  0
 20 21  1  0
 21 22  2  0
 21 25  1  0
 22 23  1  0
 23 24  2  0
 24 25  1  0
M  CHG  1  15   1
M  END
