
     RDKit          3D

 19 20  0  0  0  0  0  0  0  0999 V2000
    5.3190   -0.1090    0.2050 C   0  0  0  0  0  0  0  0  0  0  0  0
    4.4100   -0.4650    1.3510 C   0  0  0  0  0  0  0  0  0  0  0  0
    4.8260   -0.8460    2.5240 C   0  0  0  0  0  0  0  0  0  0  0  0
    3.6720   -1.1080    3.3890 C   0  0  0  0  0  0  0  0  0  0  0  0
    2.5200   -0.8130    2.5150 C   0  0  0  0  0  0  0  0  0  0  0  0
    2.9530   -0.4360    1.3220 C   0  0  0  0  0  0  0  0  0  0  0  0
    2.1760   -0.0430    0.1270 C   0  0  0  0  0  0  0  0  0  0  0  0
    0.7980   -0.0880    0.3250 O   0  0  0  0  0  0  0  0  0  0  0  0
   -0.0660    0.2510   -0.7010 C   0  0  0  0  0  0  0  0  0  0  0  0
    0.4550    0.5950   -1.7940 O   0  0  0  0  0  0  0  0  0  0  0  0
   -1.5190    0.2240   -0.5570 C   0  0  0  0  0  0  0  0  0  0  0  0
   -2.2680    0.5650   -1.5890 C   0  0  0  0  0  0  0  0  0  0  0  0
   -3.7510    0.5690   -1.5410 C   0  0  1  0  0  0  0  0  0  0  0  0
   -4.3000    1.9540   -1.8160 C   0  0  0  0  0  0  0  0  0  0  0  0
   -4.2230   -0.4010   -2.6200 C   0  0  0  0  0  0  0  0  0  0  0  0
   -4.2130    0.1710   -0.2790 O   0  0  0  0  0  0  0  0  0  0  0  0
   -3.4440   -0.1840    0.7960 C   0  0  0  0  0  0  0  0  0  0  0  0
   -4.0270   -0.5680    2.0180 O   0  0  0  0  0  0  0  0  0  0  0  0
   -2.1420   -0.1700    0.7000 C   0  0  0  0  0  0  0  0  0  0  0  0
  1  2  1  0
  2  3  2  0
  2  6  1  0
  3  4  1  0
  4  5  1  0
  5  6  2  0
  6  7  1  0
  7  8  1  0
  8  9  1  0
  9 10  2  0
  9 11  1  0
 11 12  2  0
 11 19  1  0
 12 13  1  0
 13 14  1  6
 13 15  1  0
 13 16  1  0
 16 17  1  0
 17 18  1  0
 17 19  2  0
M  END
