
     RDKit          3D

 25 28  0  0  0  0  0  0  0  0999 V2000
   -7.8310    2.1920    0.7270 O   0  0  0  0  0  0  0  0  0  0  0  0
   -6.9480    1.1230    0.5840 C   0  0  0  0  0  0  0  0  0  0  0  0
   -7.4420   -0.1580    0.5750 C   0  0  0  0  0  0  0  0  0  0  0  0
   -6.5630   -1.1760    0.4350 C   0  0  0  0  0  0  0  0  0  0  0  0
   -5.2160   -0.9220    0.3060 C   0  0  0  0  0  0  0  0  0  0  0  0
   -4.3530   -1.9990    0.1650 O   0  0  0  0  0  0  0  0  0  0  0  0
   -4.6630    0.3540    0.3090 C   0  0  0  0  0  0  0  0  0  0  0  0
   -3.2360    0.6130    0.1720 C   0  0  0  0  0  0  0  0  0  0  0  0
   -2.2230   -0.3090    0.0220 C   0  0  0  0  0  0  0  0  0  0  0  0
   -0.9870    0.3370   -0.0760 C   0  0  0  0  0  0  0  0  0  0  0  0
    0.3060   -0.2230   -0.2370 N   0  0  0  0  0  0  0  0  0  0  0  0
    0.4420   -1.6590   -0.2980 C   0  0  0  0  0  0  0  0  0  0  0  0
    1.7000   -2.2000    0.2860 C   0  0  0  0  0  0  0  0  0  0  0  0
    2.8240   -1.3050    0.2640 N   0  0  0  0  0  0  0  0  0  0  0  0
    2.6130   -0.3320   -0.7820 C   0  0  2  0  0  0  0  0  0  0  0  0
    3.8830    0.3910   -1.1070 C   0  0  0  0  0  0  0  0  0  0  0  0
    4.4560    1.1090   -0.0110 N   0  0  0  0  0  0  0  0  0  0  0  0
    5.4180    0.3370    0.7390 C   0  0  1  0  0  0  0  0  0  0  0  0
    6.4920   -0.4260    0.1020 C   0  0  0  0  0  0  0  0  0  0  0  0
    6.8550    0.8870    0.7210 C   0  0  0  0  0  0  0  0  0  0  0  0
    1.4970    0.5900   -0.3450 C   0  0  0  0  0  0  0  0  0  0  0  0
   -1.2910    1.6710    0.0190 C   0  0  0  0  0  0  0  0  0  0  0  0
   -2.6490    1.8170    0.1680 N   0  0  0  0  0  0  0  0  0  0  0  0
   -5.5810    1.3770    0.4540 C   0  0  0  0  0  0  0  0  0  0  0  0
   -5.2020    2.6590    0.4750 F   0  0  0  0  0  0  0  0  0  0  0  0
  1  2  1  0
  2  3  2  0
  2 24  1  0
  3  4  1  0
  4  5  2  0
  5  6  1  0
  5  7  1  0
  7  8  1  0
  7 24  2  0
  8  9  2  0
  8 23  1  0
  9 10  1  0
 10 11  1  0
 10 22  2  0
 11 12  1  0
 11 21  1  0
 12 13  1  0
 13 14  1  0
 14 15  1  0
 15 16  1  1
 15 21  1  0
 16 17  1  0
 18 17  1  6
 18 19  1  0
 18 20  1  0
 19 20  1  0
 22 23  1  0
 24 25  1  0
M  CHG  1  17   1
M  END
