
     RDKit          3D

 13 14  0  0  0  0  0  0  0  0999 V2000
    3.4490   -1.5240   -0.0570 N   0  0  0  0  0  0  0  0  0  0  0  0
    2.7330   -0.3050    0.0230 C   0  0  0  0  0  0  0  0  0  0  0  0
    3.3680    0.7960    0.1170 N   0  0  0  0  0  0  0  0  0  0  0  0
    1.3080   -0.3010   -0.0010 C   0  0  0  0  0  0  0  0  0  0  0  0
    0.3860    0.7090    0.0600 C   0  0  0  0  0  0  0  0  0  0  0  0
   -0.9200    0.4300    0.0170 C   0  0  0  0  0  0  0  0  0  0  0  0
   -1.9920    1.3320    0.0670 C   0  0  0  0  0  0  0  0  0  0  0  0
   -1.6890    3.4180    0.2300 I   0  0  0  0  0  0  0  0  0  0  0  0
   -3.2910    0.9110    0.0130 C   0  0  0  0  0  0  0  0  0  0  0  0
   -3.6400   -0.4040   -0.0920 C   0  0  0  0  0  0  0  0  0  0  0  0
   -2.6310   -1.3220   -0.1440 C   0  0  0  0  0  0  0  0  0  0  0  0
   -1.2810   -0.8930   -0.0890 C   0  0  0  0  0  0  0  0  0  0  0  0
    0.2480   -1.7530   -0.1280 S   0  0  0  0  0  0  0  0  0  0  0  0
  1  2  1  0
  2  3  2  0
  2  4  1  0
  4  5  2  0
  4 13  1  0
  5  6  1  0
  6  7  2  0
  6 12  1  0
  7  8  1  0
  7  9  1  0
  9 10  2  0
 10 11  1  0
 11 12  2  0
 12 13  1  0
M  CHG  1   3   1
M  END
