
     RDKit          3D

  9 10  0  0  0  0  0  0  0  0999 V2000
   -2.6570    0.8100    0.4780 N   0  0  0  0  0  0  0  0  0  0  0  0
   -1.7750    0.2890   -0.5360 C   0  0  2  0  0  0  0  0  0  0  0  0
   -1.4350   -1.1420   -0.1410 C   0  0  0  0  0  0  0  0  0  0  0  0
   -0.2590   -0.9180    0.7750 C   0  0  0  0  0  0  0  0  0  0  0  0
    0.4650    0.2320    0.2800 N   0  0  0  0  0  0  0  0  0  0  0  0
    1.6380   -0.1160   -0.4680 C   0  0  2  0  0  0  0  0  0  0  0  0
    2.7880   -0.8310    0.0780 C   0  0  0  0  0  0  0  0  0  0  0  0
    2.9120    0.6500   -0.0150 C   0  0  0  0  0  0  0  0  0  0  0  0
   -0.4660    1.0080   -0.5140 C   0  0  0  0  0  0  0  0  0  0  0  0
  2  1  1  1
  2  3  1  0
  2  9  1  0
  3  4  1  0
  4  5  1  0
  6  5  1  1
  5  9  1  0
  6  7  1  0
  6  8  1  0
  7  8  1  0
M  CHG  1   1   1
M  END
