
     RDKit          3D

  9  9  0  0  0  0  0  0  0  0999 V2000
    2.7480   -0.4400   -0.5560 C   0  0  0  0  0  0  0  0  0  0  0  0
    2.0790    0.3430    0.4630 N   0  0  0  0  0  0  0  0  0  0  0  0
    0.8140    0.8930    0.1470 C   0  0  0  0  0  0  0  0  0  0  0  0
   -0.2800    0.1520    0.1920 C   0  0  0  0  0  0  0  0  0  0  0  0
   -0.3280   -1.2580    0.5520 C   0  0  0  0  0  0  0  0  0  0  0  0
   -1.5870   -1.6490    0.4830 C   0  0  0  0  0  0  0  0  0  0  0  0
   -2.4160   -0.5260    0.0780 C   0  0  0  0  0  0  0  0  0  0  0  0
   -1.6540    0.5330   -0.0940 C   0  0  0  0  0  0  0  0  0  0  0  0
   -2.0650    1.8440   -0.4920 N   0  0  0  0  0  0  0  0  0  0  0  0
  1  2  1  0
  2  3  1  0
  3  4  2  3
  4  5  1  0
  4  8  1  0
  5  6  2  0
  6  7  1  0
  7  8  2  0
  8  9  1  0
M  END
