
     RDKit          3D

  9  9  0  0  0  0  0  0  0  0999 V2000
    2.4650    0.7980   -0.2380 N   0  0  0  0  0  0  0  0  0  0  0  0
    1.5750   -0.3090   -0.0140 C   0  0  0  0  0  0  0  0  0  0  0  0
    2.0850   -1.4600    0.1580 N   0  0  0  0  0  0  0  0  0  0  0  0
    0.1330   -0.1000    0.0110 C   0  0  0  0  0  0  0  0  0  0  0  0
   -0.3770    1.1890   -0.1850 C   0  0  0  0  0  0  0  0  0  0  0  0
   -1.7210    1.4780   -0.1770 C   0  0  0  0  0  0  0  0  0  0  0  0
   -2.6300    0.4630    0.0320 C   0  0  0  0  0  0  0  0  0  0  0  0
   -2.1760   -0.8210    0.2290 C   0  0  0  0  0  0  0  0  0  0  0  0
   -0.8000   -1.0840    0.2160 C   0  0  0  0  0  0  0  0  0  0  0  0
  1  2  1  0
  2  3  2  0
  2  4  1  0
  4  5  2  0
  4  9  1  0
  5  6  1  0
  6  7  2  0
  7  8  1  0
  8  9  2  0
M  CHG  1   3   1
M  END
