
     RDKit          3D

  9  9  0  0  0  0  0  0  0  0999 V2000
    3.1440    0.5980   -0.5840 C   0  0  0  0  0  0  0  0  0  0  0  0
    2.3490    0.2260    0.5850 N   0  0  0  0  0  0  0  0  0  0  0  0
    0.9500    0.0570    0.3850 C   0  0  0  0  0  0  0  0  0  0  0  0
    0.3470    0.2300   -0.8420 C   0  0  0  0  0  0  0  0  0  0  0  0
   -1.0050    0.0690   -1.0450 C   0  0  0  0  0  0  0  0  0  0  0  0
   -1.8290   -0.2810   -0.0030 C   0  0  0  0  0  0  0  0  0  0  0  0
   -3.2440   -0.4580   -0.1810 N   0  0  0  0  0  0  0  0  0  0  0  0
   -1.2460   -0.4600    1.2330 C   0  0  0  0  0  0  0  0  0  0  0  0
    0.1090   -0.2960    1.4250 C   0  0  0  0  0  0  0  0  0  0  0  0
  1  2  1  0
  2  3  1  0
  3  4  2  0
  3  9  1  0
  4  5  1  0
  5  6  2  0
  6  7  1  0
  6  8  1  0
  8  9  2  0
M  CHG  1   7   1
M  END
