
     RDKit          3D

  9  9  0  0  0  0  0  0  0  0999 V2000
   -1.3670   -1.8220   -0.4470 C   0  0  0  0  0  0  0  0  0  0  0  0
   -0.8890   -0.3960   -0.1710 C   0  0  0  0  0  0  0  0  0  0  0  0
   -1.7690    0.5340   -0.1450 C   0  0  0  0  0  0  0  0  0  0  0  0
   -1.6030    1.8930    0.0810 N   0  0  0  0  0  0  0  0  0  0  0  0
    0.5350   -0.2070    0.0420 C   0  0  0  0  0  0  0  0  0  0  0  0
    1.2590    0.9240    0.3050 C   0  0  0  0  0  0  0  0  0  0  0  0
    2.6280    0.6400    0.4400 C   0  0  0  0  0  0  0  0  0  0  0  0
    2.7030   -0.7140    0.2470 C   0  0  0  0  0  0  0  0  0  0  0  0
    1.4770   -1.2050    0.0150 N   0  0  0  0  0  0  0  0  0  0  0  0
  1  2  1  0
  2  3  2  3
  2  5  1  0
  3  4  1  0
  5  6  2  0
  5  9  1  0
  6  7  1  0
  7  8  2  0
  8  9  1  0
M  CHG  1   4   1
M  END
