
     RDKit          3D

  9  9  0  0  0  0  0  0  0  0999 V2000
   -1.2660   -0.5990   -1.2780 C   0  0  0  0  0  0  0  0  0  0  0  0
   -0.6020   -0.0090   -0.0950 C   0  0  0  0  0  0  0  0  0  0  0  0
   -1.3420    0.5480    0.8420 C   0  0  0  0  0  0  0  0  0  0  0  0
   -2.7580    0.5930    0.7390 N   0  0  0  0  0  0  0  0  0  0  0  0
    0.8490   -0.0710   -0.0210 C   0  0  0  0  0  0  0  0  0  0  0  0
    1.6500    0.4290    1.0140 C   0  0  0  0  0  0  0  0  0  0  0  0
    2.9630    0.1720    0.7080 C   0  0  0  0  0  0  0  0  0  0  0  0
    2.9590   -0.4780   -0.5000 C   0  0  0  0  0  0  0  0  0  0  0  0
    1.6920   -0.6140   -0.9180 N   0  0  0  0  0  0  0  0  0  0  0  0
  1  2  1  0
  2  3  2  3
  2  5  1  0
  3  4  1  0
  5  6  2  0
  5  9  1  0
  6  7  1  0
  7  8  2  0
  8  9  1  0
M  CHG  1   4   1
M  END
