
     RDKit          3D

  9  9  0  0  0  0  0  0  0  0999 V2000
   -2.3120   -1.1070    0.1130 N   0  0  0  0  0  0  0  0  0  0  0  0
   -1.5830    0.1080    0.0490 C   0  0  0  0  0  0  0  0  0  0  0  0
   -2.2110    1.2070    0.0320 N   0  0  0  0  0  0  0  0  0  0  0  0
   -0.1410    0.0940    0.0010 C   0  0  0  0  0  0  0  0  0  0  0  0
    0.6540    1.2080   -0.0620 C   0  0  0  0  0  0  0  0  0  0  0  0
    2.0540    1.1430   -0.1070 C   0  0  0  0  0  0  0  0  0  0  0  0
    2.6270   -0.1020   -0.0840 C   0  0  0  0  0  0  0  0  0  0  0  0
    1.8760   -1.2640   -0.0200 C   0  0  0  0  0  0  0  0  0  0  0  0
    0.5090   -1.1470    0.0210 C   0  0  0  0  0  0  0  0  0  0  0  0
  1  2  1  0
  2  3  2  0
  2  4  1  0
  4  5  2  0
  4  9  1  0
  5  6  1  0
  6  7  2  0
  7  8  1  0
  8  9  2  0
M  CHG  1   3   1
M  END
