
     RDKit          3D

  9  9  0  0  0  0  0  0  0  0999 V2000
    2.9140   -1.0950    0.1730 N   0  0  0  0  0  0  0  0  0  0  0  0
    1.5120   -1.1330    0.0600 C   0  0  0  0  0  0  0  0  0  0  0  0
    0.8130    0.0070    0.0190 C   0  0  0  0  0  0  0  0  0  0  0  0
    1.3720    1.3490    0.0800 C   0  0  0  0  0  0  0  0  0  0  0  0
    0.3650    2.2020    0.0100 C   0  0  0  0  0  0  0  0  0  0  0  0
   -0.8800    1.4530   -0.0980 C   0  0  0  0  0  0  0  0  0  0  0  0
   -0.6270    0.1570   -0.0940 C   0  0  0  0  0  0  0  0  0  0  0  0
   -1.6360   -0.9510   -0.1880 C   0  0  0  0  0  0  0  0  0  0  0  0
   -2.9530   -0.3670   -0.2860 N   0  0  0  0  0  0  0  0  0  0  0  0
  1  2  1  0
  2  3  2  3
  3  4  1  0
  3  7  1  0
  4  5  2  0
  5  6  1  0
  6  7  2  0
  7  8  1  0
  8  9  1  0
M  END
