
     RDKit          3D

 23 26  0  0  0  0  0  0  0  0999 V2000
    0.7930    4.0550   -1.1260 C   0  0  0  0  0  0  0  0  0  0  0  0
    0.8480    2.8150   -0.4480 O   0  0  0  0  0  0  0  0  0  0  0  0
    1.2030    1.6200   -1.0470 C   0  0  0  0  0  0  0  0  0  0  0  0
    1.4800    1.7570   -2.2920 O   0  0  0  0  0  0  0  0  0  0  0  0
    1.2890    0.3030   -0.4480 C   0  0  1  0  0  0  0  0  0  0  0  0
    2.1590    0.2380    0.8210 C   0  0  2  0  0  0  0  0  0  0  0  0
    3.4200    1.0050    0.6360 C   0  0  0  0  0  0  0  0  0  0  0  0
    2.5340   -1.2270    0.8730 C   0  0  0  0  0  0  0  0  0  0  0  0
    3.6210   -1.9380    0.9240 C   0  0  0  0  0  0  0  0  0  0  0  0
    3.2730   -3.4030    0.9520 C   0  0  0  0  0  0  0  0  0  0  0  0
    1.8100   -3.3890    0.9030 C   0  0  0  0  0  0  0  0  0  0  0  0
    1.3890   -2.1250    0.8590 C   0  0  0  0  0  0  0  0  0  0  0  0
    0.0530   -1.4890    0.8300 C   0  0  0  0  0  0  0  0  0  0  0  0
   -0.0180   -0.4290   -0.2260 C   0  0  2  0  0  0  0  0  0  0  0  0
   -0.2620   -1.1620   -1.5350 C   0  0  0  0  0  0  0  0  0  0  0  0
   -1.6420   -1.6360   -1.7680 C   0  0  0  0  0  0  0  0  0  0  0  0
   -2.6740   -0.5260   -1.6420 C   0  0  0  0  0  0  0  0  0  0  0  0
   -2.5160    0.0740   -0.2670 C   0  0  2  0  0  0  0  0  0  0  0  0
   -3.1390   -0.7490    0.8030 C   0  0  0  0  0  0  0  0  0  0  0  0
   -3.1750    1.4670   -0.1750 C   0  0  0  0  0  0  0  0  0  0  0  0
   -2.5800    1.9370    1.1370 C   0  0  0  0  0  0  0  0  0  0  0  0
   -1.2780    1.1420    1.3400 C   0  0  0  0  0  0  0  0  0  0  0  0
   -1.1120    0.5380   -0.0190 C   0  0  1  0  0  0  0  0  0  0  0  0
  1  2  1  0
  2  3  1  0
  3  4  2  0
  5  3  1  1
  5  6  1  0
  5 14  1  0
  6  7  1  6
  6  8  1  0
  8  9  2  0
  8 12  1  0
  9 10  1  0
 10 11  1  0
 11 12  2  0
 12 13  1  0
 14 13  1  1
 14 15  1  0
 14 23  1  0
 15 16  1  0
 16 17  1  0
 17 18  1  0
 18 19  1  1
 18 20  1  0
 18 23  1  0
 20 21  1  0
 21 22  1  0
 23 22  1  1
M  END
