
     RDKit          3D

  9 10  0  0  0  0  0  0  0  0999 V2000
   -2.2570    0.7470    0.7240 N   0  0  0  0  0  0  0  0  0  0  0  0
   -1.7550    0.3440   -0.5670 C   0  0  2  0  0  0  0  0  0  0  0  0
   -1.6840   -1.1560   -0.6980 C   0  0  0  0  0  0  0  0  0  0  0  0
   -0.2280   -1.5150   -0.4530 C   0  0  0  0  0  0  0  0  0  0  0  0
    0.5260   -0.3170   -0.4710 N   0  0  0  0  0  0  0  0  0  0  0  0
    1.5040   -0.1650    0.5580 C   0  0  2  0  0  0  0  0  0  0  0  0
    2.3810    1.0840    0.3630 C   0  0  0  0  0  0  0  0  0  0  0  0
    2.9210   -0.3180    0.1410 C   0  0  0  0  0  0  0  0  0  0  0  0
   -0.3320    0.8030   -0.6780 C   0  0  0  0  0  0  0  0  0  0  0  0
  2  1  1  1
  2  3  1  0
  2  9  1  0
  3  4  1  0
  4  5  1  0
  6  5  1  6
  5  9  1  0
  6  7  1  0
  6  8  1  0
  7  8  1  0
M  CHG  1   1   1
M  END
