
     RDKit          3D

  9  9  0  0  0  0  0  0  0  0999 V2000
   -3.2430   -0.2350   -0.2550 C   0  0  0  0  0  0  0  0  0  0  0  0
   -1.8660   -0.6680   -0.1180 N   0  0  0  0  0  0  0  0  0  0  0  0
   -0.8460    0.2940    0.0900 C   0  0  0  0  0  0  0  0  0  0  0  0
    0.4430   -0.0780    0.0340 C   0  0  0  0  0  0  0  0  0  0  0  0
    0.9420   -1.4190   -0.2270 C   0  0  0  0  0  0  0  0  0  0  0  0
    2.2610   -1.3600   -0.1960 C   0  0  0  0  0  0  0  0  0  0  0  0
    2.6720   -0.0000    0.0820 C   0  0  0  0  0  0  0  0  0  0  0  0
    1.6140    0.7610    0.2190 C   0  0  0  0  0  0  0  0  0  0  0  0
    1.5500    2.1540    0.4970 N   0  0  0  0  0  0  0  0  0  0  0  0
  1  2  1  0
  2  3  1  0
  3  4  2  3
  4  5  1  0
  4  8  1  0
  5  6  2  0
  6  7  1  0
  7  8  2  0
  8  9  1  0
M  END
