
     RDKit          3D

  9  9  0  0  0  0  0  0  0  0999 V2000
    3.1340    0.0030    0.4260 N   0  0  0  0  0  0  0  0  0  0  0  0
    2.1120   -0.4210   -0.5160 C   0  0  0  0  0  0  0  0  0  0  0  0
    1.0330    0.5710   -0.4290 C   0  0  0  0  0  0  0  0  0  0  0  0
   -0.1990    0.2850   -0.0830 C   0  0  0  0  0  0  0  0  0  0  0  0
   -0.6440   -1.0450    0.2560 C   0  0  0  0  0  0  0  0  0  0  0  0
   -1.9120   -1.2390    0.5930 C   0  0  0  0  0  0  0  0  0  0  0  0
   -2.8510   -0.1330    0.6260 C   0  0  0  0  0  0  0  0  0  0  0  0
   -2.4820    1.1100    0.3210 C   0  0  0  0  0  0  0  0  0  0  0  0
   -1.1480    1.3600   -0.0430 N   0  0  0  0  0  0  0  0  0  0  0  0
  1  2  1  0
  2  3  1  0
  3  4  2  3
  4  5  1  0
  4  9  1  0
  5  6  2  0
  6  7  1  0
  7  8  2  0
  8  9  1  0
M  END
