
     RDKit          3D

 25 27  0  0  0  0  0  0  0  0999 V2000
   -6.1800   -1.2600   -0.9070 C   0  0  0  0  0  0  0  0  0  0  0  0
   -5.5870   -0.3390    0.1010 C   0  0  0  0  0  0  0  0  0  0  0  0
   -6.2220   -0.1500    1.1740 O   0  0  0  0  0  0  0  0  0  0  0  0
   -4.3100    0.3080   -0.1780 C   0  0  0  0  0  0  0  0  0  0  0  0
   -4.0720    1.5190   -0.7940 C   0  0  0  0  0  0  0  0  0  0  0  0
   -5.0900    2.4500   -1.3210 C   0  0  0  0  0  0  0  0  0  0  0  0
   -2.7450    1.7250   -0.8410 N   0  0  0  0  0  0  0  0  0  0  0  0
   -2.0880    0.6740   -0.2670 C   0  0  0  0  0  0  0  0  0  0  0  0
   -0.6490    0.5300   -0.1280 C   0  0  0  0  0  0  0  0  0  0  0  0
    0.0690    1.4930   -0.5880 O   0  0  0  0  0  0  0  0  0  0  0  0
   -0.0060   -0.5680    0.4610 N   0  0  0  0  0  0  0  0  0  0  0  0
    1.3750   -0.6100   -0.0280 C   0  0  0  0  0  0  0  0  0  0  0  0
    2.2690    0.2800    0.8090 C   0  0  1  0  0  0  0  0  0  0  0  0
    2.3000   -0.1220    2.2450 C   0  0  0  0  0  0  0  0  0  0  0  0
    3.6780    0.1300    2.6140 N   0  0  0  0  0  0  0  0  0  0  0  0
    4.4790    0.0190    1.4400 C   0  0  0  0  0  0  0  0  0  0  0  0
    5.8440   -0.1480    1.2320 C   0  0  0  0  0  0  0  0  0  0  0  0
    6.3960   -0.2320   -0.0290 C   0  0  0  0  0  0  0  0  0  0  0  0
    7.7270   -0.3940   -0.2060 F   0  0  0  0  0  0  0  0  0  0  0  0
    5.5850   -0.1490   -1.1360 C   0  0  0  0  0  0  0  0  0  0  0  0
    6.1350   -0.2340   -2.4530 N   0  0  0  0  0  0  0  0  0  0  0  0
    4.2410    0.0150   -0.9300 C   0  0  0  0  0  0  0  0  0  0  0  0
    3.6600    0.1030    0.3340 C   0  0  0  0  0  0  0  0  0  0  0  0
   -3.0470   -0.2090    0.1470 C   0  0  0  0  0  0  0  0  0  0  0  0
   -2.8780   -1.5090    0.8290 C   0  0  0  0  0  0  0  0  0  0  0  0
  1  2  1  0
  2  3  2  0
  2  4  1  0
  4  5  2  0
  4 24  1  0
  5  6  1  0
  5  7  1  0
  7  8  1  0
  8  9  1  0
  8 24  2  0
  9 10  2  0
  9 11  1  0
 11 12  1  0
 13 12  1  6
 13 14  1  0
 13 23  1  0
 14 15  1  0
 15 16  1  0
 16 17  2  0
 16 23  1  0
 17 18  1  0
 18 19  1  0
 18 20  2  0
 20 21  1  0
 20 22  1  0
 22 23  2  0
 24 25  1  0
M  CHG  1  11   1
M  END
