
     RDKit          3D

 19 20  0  0  0  0  0  0  0  0999 V2000
   -3.7300   -1.3010   -0.3120 C   0  0  0  0  0  0  0  0  0  0  0  0
   -3.8040    0.1670   -0.1670 C   0  0  0  0  0  0  0  0  0  0  0  0
   -4.7640    0.8670   -0.8040 C   0  0  0  0  0  0  0  0  0  0  0  0
   -4.6040    2.2960   -0.4810 C   0  0  0  0  0  0  0  0  0  0  0  0
   -3.4430    2.2990    0.4190 C   0  0  0  0  0  0  0  0  0  0  0  0
   -2.9570    1.0450    0.6110 C   0  0  0  0  0  0  0  0  0  0  0  0
   -1.8160    0.7560    1.5110 C   0  0  0  0  0  0  0  0  0  0  0  0
   -0.6840    0.2170    1.0820 O   0  0  0  0  0  0  0  0  0  0  0  0
   -0.1000   -0.8520    0.5690 C   0  0  0  0  0  0  0  0  0  0  0  0
   -0.8020   -1.8640    0.3540 O   0  0  0  0  0  0  0  0  0  0  0  0
    1.3480   -0.9320    0.2260 C   0  0  0  0  0  0  0  0  0  0  0  0
    2.1340    0.1080    0.4330 C   0  0  0  0  0  0  0  0  0  0  0  0
    3.5520    0.0520    0.1060 C   0  0  2  0  0  0  0  0  0  0  0  0
    4.4330    0.3390    1.3270 C   0  0  0  0  0  0  0  0  0  0  0  0
    3.9540    1.1060   -0.9170 C   0  0  0  0  0  0  0  0  0  0  0  0
    3.9330   -1.1840   -0.4240 O   0  0  0  0  0  0  0  0  0  0  0  0
    3.1110   -2.2480   -0.6320 C   0  0  0  0  0  0  0  0  0  0  0  0
    3.6750   -3.4140   -1.1760 O   0  0  0  0  0  0  0  0  0  0  0  0
    1.8310   -2.1820   -0.3310 C   0  0  0  0  0  0  0  0  0  0  0  0
  1  2  1  0
  2  3  2  0
  2  6  1  0
  3  4  1  0
  4  5  1  0
  5  6  2  0
  6  7  1  0
  7  8  1  0
  8  9  1  0
  9 10  2  0
  9 11  1  0
 11 12  2  0
 11 19  1  0
 12 13  1  0
 13 14  1  1
 13 15  1  0
 13 16  1  0
 16 17  1  0
 17 18  1  0
 17 19  2  0
M  END
