
     RDKit          3D

 25 27  0  0  0  0  0  0  0  0999 V2000
   -5.3490    0.5190    3.5120 N   0  0  0  0  0  0  0  0  0  0  0  0
   -4.8590   -0.2820    2.6690 C   0  0  0  0  0  0  0  0  0  0  0  0
   -4.6220    0.0920    1.2820 C   0  0  0  0  0  0  0  0  0  0  0  0
   -4.8940    1.2840    0.7900 C   0  0  0  0  0  0  0  0  0  0  0  0
   -4.5950    1.5250   -0.6670 C   0  0  0  0  0  0  0  0  0  0  0  0
   -5.1910    0.3460   -1.3960 C   0  0  0  0  0  0  0  0  0  0  0  0
   -4.5530   -0.8520   -0.9860 N   0  0  0  0  0  0  0  0  0  0  0  0
   -4.0290   -0.9120    0.3270 C   0  0  1  0  0  0  0  0  0  0  0  0
   -2.5490   -0.7890    0.2730 C   0  0  0  0  0  0  0  0  0  0  0  0
   -1.7800   -0.6450    1.4080 C   0  0  0  0  0  0  0  0  0  0  0  0
   -0.4240   -0.5350    1.3080 C   0  0  0  0  0  0  0  0  0  0  0  0
    0.2400   -0.5640    0.0700 C   0  0  0  0  0  0  0  0  0  0  0  0
    1.6300   -0.4620    0.0350 N   0  0  0  0  0  0  0  0  0  0  0  0
    2.4340   -0.2300   -1.0880 C   0  0  0  0  0  0  0  0  0  0  0  0
    1.9200   -0.0820   -2.2190 O   0  0  0  0  0  0  0  0  0  0  0  0
    3.9060   -0.1520   -0.9800 C   0  0  0  0  0  0  0  0  0  0  0  0
    4.8080    0.0680   -1.9880 C   0  0  0  0  0  0  0  0  0  0  0  0
    6.0440    0.0510   -1.3810 C   0  0  0  0  0  0  0  0  0  0  0  0
    5.8380   -0.1780   -0.0370 C   0  0  0  0  0  0  0  0  0  0  0  0
    6.8540   -0.2830    1.0270 C   0  0  0  0  0  0  0  0  0  0  0  0
    7.1140    1.0240    1.6050 N   0  0  0  0  0  0  0  0  0  0  0  0
    4.5460   -0.2920    0.1530 O   0  0  0  0  0  0  0  0  0  0  0  0
   -0.5240   -0.7070   -1.0510 C   0  0  0  0  0  0  0  0  0  0  0  0
   -1.9220   -0.8190   -0.9470 C   0  0  0  0  0  0  0  0  0  0  0  0
   -2.6820   -0.9620   -2.0730 F   0  0  0  0  0  0  0  0  0  0  0  0
  1  2  2  0
  2  3  1  0
  3  4  2  0
  3  8  1  0
  4  5  1  0
  5  6  1  0
  6  7  1  0
  7  8  1  0
  8  9  1  6
  9 10  2  0
  9 24  1  0
 10 11  1  0
 11 12  2  0
 12 13  1  0
 12 23  1  0
 13 14  1  0
 14 15  2  0
 14 16  1  0
 16 17  2  0
 16 22  1  0
 17 18  1  0
 18 19  2  0
 19 20  1  0
 19 22  1  0
 20 21  1  0
 23 24  2  0
 24 25  1  0
M  CHG  1  21   1
M  END
