
     RDKit          3D

 19 20  0  0  0  0  0  0  0  0999 V2000
   -0.3640    3.5340    1.1160 C   0  0  0  0  0  0  0  0  0  0  0  0
   -0.6820    2.7230    0.1190 C   0  0  0  0  0  0  0  0  0  0  0  0
   -0.4090    3.1300   -1.1640 O   0  0  0  0  0  0  0  0  0  0  0  0
   -1.3090    1.4390    0.4210 C   0  0  0  0  0  0  0  0  0  0  0  0
   -0.5250    0.2030    0.0610 C   0  0  1  0  0  0  0  0  0  0  0  0
   -1.2810   -1.0300    0.4380 C   0  0  2  0  0  0  0  0  0  0  0  0
   -1.6060   -1.1550    1.8980 C   0  0  0  0  0  0  0  0  0  0  0  0
   -0.5770   -2.1680    0.0860 O   0  0  0  0  0  0  0  0  0  0  0  0
   -2.6060   -1.0900   -0.2860 C   0  0  0  0  0  0  0  0  0  0  0  0
   -3.3700   -2.3670    0.1100 C   0  0  0  0  0  0  0  0  0  0  0  0
   -0.3110    0.2110   -1.4340 C   0  0  0  0  0  0  0  0  0  0  0  0
    0.5370   -0.9540   -1.8990 C   0  0  0  0  0  0  0  0  0  0  0  0
    1.5630   -1.2530   -1.0490 O   0  0  0  0  0  0  0  0  0  0  0  0
    1.9500   -0.2910   -0.1660 C   0  0  2  0  0  0  0  0  0  0  0  0
    2.8100    0.7540   -0.8420 C   0  0  0  0  0  0  0  0  0  0  0  0
    4.1920    0.4000   -0.4080 C   0  0  0  0  0  0  0  0  0  0  0  0
    4.0140   -0.0730    0.8790 O   0  0  0  0  0  0  0  0  0  0  0  0
    2.9590   -0.9750    0.7750 C   0  0  0  0  0  0  0  0  0  0  0  0
    0.8380    0.3210    0.6590 C   0  0  0  0  0  0  0  0  0  0  0  0
  1  2  2  0
  2  3  1  0
  2  4  1  0
  5  4  1  6
  5  6  1  0
  5 11  1  0
  5 19  1  0
  6  7  1  1
  6  8  1  0
  6  9  1  0
  9 10  1  0
 11 12  1  0
 12 13  1  0
 13 14  1  0
 14 15  1  6
 14 18  1  0
 14 19  1  0
 15 16  1  0
 16 17  1  0
 17 18  1  0
M  END
