
     RDKit          3D

 13 14  0  0  0  0  0  0  0  0999 V2000
    3.3150    0.7440   -0.9880 N   0  0  0  0  0  0  0  0  0  0  0  0
    2.6320   -0.4600   -0.7600 C   0  0  0  0  0  0  0  0  0  0  0  0
    3.2310   -1.5750   -0.8930 N   0  0  0  0  0  0  0  0  0  0  0  0
    1.2030   -0.3900   -0.3610 C   0  0  0  0  0  0  0  0  0  0  0  0
    0.3990    0.6790   -0.1690 C   0  0  0  0  0  0  0  0  0  0  0  0
   -0.8730    0.4290    0.1950 C   0  0  0  0  0  0  0  0  0  0  0  0
   -1.8660    1.3970    0.4430 C   0  0  0  0  0  0  0  0  0  0  0  0
   -1.4990    3.4510    0.2770 I   0  0  0  0  0  0  0  0  0  0  0  0
   -3.1300    1.0000    0.8100 C   0  0  0  0  0  0  0  0  0  0  0  0
   -3.5230   -0.3080    0.9600 C   0  0  0  0  0  0  0  0  0  0  0  0
   -2.5530   -1.2560    0.7180 C   0  0  0  0  0  0  0  0  0  0  0  0
   -1.2640   -0.8380    0.3430 C   0  0  0  0  0  0  0  0  0  0  0  0
    0.1870   -1.7520   -0.0350 S   0  0  0  0  0  0  0  0  0  0  0  0
  1  2  1  0
  2  3  2  0
  2  4  1  0
  4  5  2  0
  4 13  1  0
  5  6  1  0
  6  7  2  0
  6 12  1  0
  7  8  1  0
  7  9  1  0
  9 10  2  0
 10 11  1  0
 11 12  2  0
 12 13  1  0
M  CHG  1   3   1
M  END
