
     RDKit          3D

 25 26  0  0  0  0  0  0  0  0999 V2000
   -4.0870   -1.1640    3.3240 C   0  0  0  0  0  0  0  0  0  0  0  0
   -3.7750   -1.0150    2.0830 C   0  0  0  0  0  0  0  0  0  0  0  0
   -4.6080   -1.6230    1.1420 O   0  0  0  0  0  0  0  0  0  0  0  0
   -4.5780   -1.6150   -0.1870 C   0  0  0  0  0  0  0  0  0  0  0  0
   -3.3630   -0.8190   -0.7550 C   0  0  0  0  0  0  0  0  0  0  0  0
   -3.5180   -0.5980   -2.1900 C   0  0  0  0  0  0  0  0  0  0  0  0
   -3.1740    0.1300   -3.0980 N   0  0  0  0  0  0  0  0  0  0  0  0
   -2.3700    1.2820   -3.3160 C   0  0  0  0  0  0  0  0  0  0  0  0
   -2.5340   -0.2520    0.0570 C   0  0  0  0  0  0  0  0  0  0  0  0
   -1.3540    0.4780   -0.4940 C   0  0  0  0  0  0  0  0  0  0  0  0
   -0.1100   -0.1440    0.0640 N   0  0  0  0  0  0  0  0  0  0  0  0
    1.1770    0.3760   -0.2760 C   0  0  0  0  0  0  0  0  0  0  0  0
    1.2020    1.3470   -1.0410 O   0  0  0  0  0  0  0  0  0  0  0  0
    2.3620   -0.1850    0.2290 N   0  0  0  0  0  0  0  0  0  0  0  0
    3.6710    0.2670   -0.0480 C   0  0  0  0  0  0  0  0  0  0  0  0
    3.9940    1.4060   -0.7290 C   0  0  0  0  0  0  0  0  0  0  0  0
    5.3420    1.6960   -0.9240 C   0  0  0  0  0  0  0  0  0  0  0  0
    6.3640    0.9030   -0.4710 C   0  0  0  0  0  0  0  0  0  0  0  0
    6.0440   -0.2460    0.2160 C   0  0  0  0  0  0  0  0  0  0  0  0
    7.0940   -1.0850    0.6950 N   0  0  0  0  0  0  0  0  0  0  0  0
    4.7190   -0.5450    0.4160 C   0  0  0  0  0  0  0  0  0  0  0  0
   -2.6520   -0.2790    1.5470 C   0  0  0  0  0  0  0  0  0  0  0  0
   -1.7510    0.3030    2.2750 C   0  0  0  0  0  0  0  0  0  0  0  0
   -1.5010    0.4340    3.6850 C   0  0  0  0  0  0  0  0  0  0  0  0
   -1.5980    1.7730    4.1160 F   0  0  0  0  0  0  0  0  0  0  0  0
  1  2  2  0
  2  3  1  0
  2 22  1  0
  3  4  1  0
  4  5  1  0
  5  6  1  0
  5  9  2  0
  6  7  2  3
  7  8  1  0
  9 10  1  0
  9 22  1  0
 10 11  1  0
 11 12  1  0
 12 13  2  0
 12 14  1  0
 14 15  1  0
 15 16  2  0
 15 21  1  0
 16 17  1  0
 17 18  2  0
 18 19  1  0
 19 20  1  0
 19 21  2  0
 22 23  2  3
 23 24  1  0
 24 25  1  0
M  CHG  1   7   1
M  END
