
     RDKit          3D

 19 20  0  0  0  0  0  0  0  0999 V2000
    2.8800    2.0390   -1.2010 C   0  0  0  0  0  0  0  0  0  0  0  0
    3.0610    0.9660   -0.4750 C   0  0  0  0  0  0  0  0  0  0  0  0
    4.3920    0.6200   -0.1840 O   0  0  0  0  0  0  0  0  0  0  0  0
    4.7610   -0.4720    0.5660 C   0  0  0  0  0  0  0  0  0  0  0  0
    3.8020   -1.2350    1.0390 C   0  0  0  0  0  0  0  0  0  0  0  0
    2.4080   -0.9240    0.7690 C   0  0  0  0  0  0  0  0  0  0  0  0
    1.9920    0.1030    0.0580 C   0  0  0  0  0  0  0  0  0  0  0  0
    0.6160    0.4510   -0.2440 C   0  0  2  0  0  0  0  0  0  0  0  0
    0.4350    0.4660   -1.7410 C   0  0  0  0  0  0  0  0  0  0  0  0
    0.4870    1.7900    0.1960 O   0  0  0  0  0  0  0  0  0  0  0  0
   -0.4660   -0.4270    0.3200 C   0  0  2  0  0  0  0  0  0  0  0  0
   -0.3880   -0.4960    1.7250 O   0  0  0  0  0  0  0  0  0  0  0  0
   -0.4290   -1.7910   -0.2370 C   0  0  0  0  0  0  0  0  0  0  0  0
   -1.4960   -2.2820   -1.1200 C   0  0  0  0  0  0  0  0  0  0  0  0
   -2.6920   -1.5940   -1.0690 O   0  0  0  0  0  0  0  0  0  0  0  0
   -2.8450   -0.8910    0.1120 C   0  0  0  0  0  0  0  0  0  0  0  0
   -1.7940    0.2240    0.0680 C   0  0  1  0  0  0  0  0  0  0  0  0
   -2.2130    1.2450    1.0940 C   0  0  0  0  0  0  0  0  0  0  0  0
   -3.5850    1.8360    0.7330 C   0  0  0  0  0  0  0  0  0  0  0  0
  1  2  2  0
  2  3  1  0
  2  7  1  0
  3  4  1  0
  4  5  2  0
  5  6  1  0
  6  7  2  0
  7  8  1  0
  8  9  1  6
  8 10  1  0
  8 11  1  0
 11 12  1  1
 11 13  1  0
 11 17  1  0
 13 14  1  0
 14 15  1  0
 15 16  1  0
 16 17  1  0
 17 18  1  1
 18 19  1  0
M  END
