
     RDKit          3D

 25 28  0  0  0  0  0  0  0  0999 V2000
    7.0490   -2.0060    0.0670 O   0  0  0  0  0  0  0  0  0  0  0  0
    6.4960   -0.7250   -0.0800 C   0  0  0  0  0  0  0  0  0  0  0  0
    7.3340    0.3190   -0.3230 C   0  0  0  0  0  0  0  0  0  0  0  0
    6.8290    1.5700   -0.4720 C   0  0  0  0  0  0  0  0  0  0  0  0
    5.4350    1.7750   -0.3730 C   0  0  0  0  0  0  0  0  0  0  0  0
    5.0140    3.0500   -0.5480 O   0  0  0  0  0  0  0  0  0  0  0  0
    4.5950    0.7250   -0.1270 C   0  0  0  0  0  0  0  0  0  0  0  0
    3.1400    0.8710    0.1070 C   0  0  0  0  0  0  0  0  0  0  0  0
    2.2240   -0.1270   -0.1710 C   0  0  0  0  0  0  0  0  0  0  0  0
    0.9520    0.3730    0.0910 C   0  0  0  0  0  0  0  0  0  0  0  0
   -0.2460   -0.3660   -0.0760 N   0  0  0  0  0  0  0  0  0  0  0  0
   -0.1990   -1.7340   -0.4950 C   0  0  0  0  0  0  0  0  0  0  0  0
   -1.3040   -2.5900    0.1380 C   0  0  0  0  0  0  0  0  0  0  0  0
   -2.5370   -1.8390   -0.0230 N   0  0  0  0  0  0  0  0  0  0  0  0
   -2.4010   -0.7010    0.8970 C   0  0  2  0  0  0  0  0  0  0  0  0
   -3.7400   -0.0410    1.1400 C   0  0  0  0  0  0  0  0  0  0  0  0
   -4.3040    0.4480   -0.0980 N   0  0  0  0  0  0  0  0  0  0  0  0
   -5.7070    0.7170   -0.0160 C   0  0  2  0  0  0  0  0  0  0  0  0
   -6.6820   -0.4770   -0.1740 C   0  0  0  0  0  0  0  0  0  0  0  0
   -6.4690    0.5050   -1.3030 C   0  0  0  0  0  0  0  0  0  0  0  0
   -1.5050    0.2840    0.1780 C   0  0  0  0  0  0  0  0  0  0  0  0
    1.1080    1.6670    0.5250 C   0  0  0  0  0  0  0  0  0  0  0  0
    2.4440    1.9100    0.5140 N   0  0  0  0  0  0  0  0  0  0  0  0
    5.1460   -0.5430    0.0200 C   0  0  0  0  0  0  0  0  0  0  0  0
    4.3510   -1.6060    0.2830 F   0  0  0  0  0  0  0  0  0  0  0  0
  1  2  1  0
  2  3  2  0
  2 24  1  0
  3  4  1  0
  4  5  2  0
  5  6  1  0
  5  7  1  0
  7  8  1  0
  7 24  2  0
  8  9  2  0
  8 23  1  0
  9 10  1  0
 10 11  1  0
 10 22  2  0
 11 12  1  0
 11 21  1  0
 12 13  1  0
 13 14  1  0
 14 15  1  0
 15 16  1  6
 15 21  1  0
 16 17  1  0
 18 17  1  6
 18 19  1  0
 18 20  1  0
 19 20  1  0
 22 23  1  0
 24 25  1  0
M  CHG  1  17   1
M  END
