
     RDKit          3D

 28 32  0  0  0  0  0  0  0  0999 V2000
   -5.3570    2.4990    1.5350 C   0  0  0  0  0  0  0  0  0  0  0  0
   -4.9620    1.1570    1.0110 C   0  0  0  0  0  0  0  0  0  0  0  0
   -3.8590    1.0720    0.1610 C   0  0  0  0  0  0  0  0  0  0  0  0
   -3.4830   -0.1600   -0.3290 C   0  0  0  0  0  0  0  0  0  0  0  0
   -2.4030   -0.2850   -1.1740 C   0  0  0  0  0  0  0  0  0  0  0  0
   -1.6340    0.8160   -1.5950 N   0  0  0  0  0  0  0  0  0  0  0  0
   -0.5450    1.4530   -0.9450 C   0  0  0  0  0  0  0  0  0  0  0  0
    0.5680    0.7270   -0.5330 N   0  0  0  0  0  0  0  0  0  0  0  0
    0.3620   -0.2060    0.4850 C   0  0  0  0  0  0  0  0  0  0  0  0
    1.3210   -1.3790    0.4630 C   0  0  0  0  0  0  0  0  0  0  0  0
    2.6880   -0.7920    0.3810 C   0  0  0  0  0  0  0  0  0  0  0  0
    3.6970   -1.2320    1.1610 N   0  0  0  0  0  0  0  0  0  0  0  0
    4.9040   -0.6560    1.0340 C   0  0  0  0  0  0  0  0  0  0  0  0
    5.9290   -1.0940    1.8190 N   0  0  0  0  0  0  0  0  0  0  0  0
    7.1630   -0.5630    1.7440 C   0  0  0  0  0  0  0  0  0  0  0  0
    7.3950    0.4570    0.8440 C   0  0  0  0  0  0  0  0  0  0  0  0
    6.3720    0.9160    0.0400 C   0  0  0  0  0  0  0  0  0  0  0  0
    5.0960    0.3630    0.1210 C   0  0  0  0  0  0  0  0  0  0  0  0
    4.0890    0.8000   -0.6570 N   0  0  0  0  0  0  0  0  0  0  0  0
    2.8770    0.2200   -0.5270 C   0  0  0  0  0  0  0  0  0  0  0  0
    1.7100    0.6440   -1.3490 C   0  0  0  0  0  0  0  0  0  0  0  0
   -2.0820   -1.5430   -1.6380 C   0  0  0  0  0  0  0  0  0  0  0  0
   -0.7490   -1.8590   -2.7380 Cl  0  0  0  0  0  0  0  0  0  0  0  0
   -2.8440   -2.6490   -1.2460 C   0  0  0  0  0  0  0  0  0  0  0  0
   -3.9100   -2.4980   -0.4050 C   0  0  0  0  0  0  0  0  0  0  0  0
   -4.2450   -1.2450    0.0670 C   0  0  0  0  0  0  0  0  0  0  0  0
   -5.3370   -1.1360    0.9120 C   0  0  0  0  0  0  0  0  0  0  0  0
   -5.6770    0.0830    1.3730 N   0  0  0  0  0  0  0  0  0  0  0  0
  1  2  1  0
  2  3  2  0
  2 28  1  0
  3  4  1  0
  4  5  2  0
  4 26  1  0
  5  6  1  0
  5 22  1  0
  6  7  1  0
  7  8  1  0
  8  9  1  0
  8 21  1  0
  9 10  1  0
 10 11  1  0
 11 12  2  0
 11 20  1  0
 12 13  1  0
 13 14  2  0
 13 18  1  0
 14 15  1  0
 15 16  2  0
 16 17  1  0
 17 18  2  0
 18 19  1  0
 19 20  2  0
 20 21  1  0
 22 23  1  0
 22 24  2  0
 24 25  1  0
 25 26  2  0
 26 27  1  0
 27 28  2  0
M  END
