
     RDKit          3D

 28 32  0  0  0  0  0  0  0  0999 V2000
   -4.7660    2.7130   -3.3720 Cl  0  0  0  0  0  0  0  0  0  0  0  0
   -3.9700    1.6990   -2.1850 C   0  0  0  0  0  0  0  0  0  0  0  0
   -2.7760    1.8700   -1.6720 N   0  0  0  0  0  0  0  0  0  0  0  0
   -2.5010    0.8480   -0.7600 N   0  0  0  0  0  0  0  0  0  0  0  0
   -1.2000    0.3940   -0.3860 C   0  0  0  0  0  0  0  0  0  0  0  0
   -0.0610    0.9640   -0.9210 C   0  0  0  0  0  0  0  0  0  0  0  0
    1.1580    0.5280   -0.5630 N   0  0  0  0  0  0  0  0  0  0  0  0
    1.3790   -0.4610    0.3120 C   0  0  0  0  0  0  0  0  0  0  0  0
    2.6560   -0.9260    0.6950 N   0  0  0  0  0  0  0  0  0  0  0  0
    3.9010   -0.4510    0.2420 C   0  0  0  0  0  0  0  0  0  0  0  0
    4.1150    0.5510   -0.6590 C   0  0  0  0  0  0  0  0  0  0  0  0
    5.3910    0.9340   -1.0300 C   0  0  0  0  0  0  0  0  0  0  0  0
    6.5030    0.3300   -0.5140 C   0  0  0  0  0  0  0  0  0  0  0  0
    7.7890    0.7220   -0.8940 C   0  0  0  0  0  0  0  0  0  0  0  0
    8.8680    0.1140   -0.3750 N   0  0  0  0  0  0  0  0  0  0  0  0
    8.6870   -0.8800    0.5180 C   0  0  0  0  0  0  0  0  0  0  0  0
    7.4380   -1.3000    0.9210 C   0  0  0  0  0  0  0  0  0  0  0  0
    6.3100   -0.6800    0.3930 C   0  0  0  0  0  0  0  0  0  0  0  0
    5.0450   -1.0530    0.7540 C   0  0  0  0  0  0  0  0  0  0  0  0
    0.2140   -1.0240    0.8420 C   0  0  0  0  0  0  0  0  0  0  0  0
   -1.0130   -0.6010    0.4950 N   0  0  0  0  0  0  0  0  0  0  0  0
   -3.7900    0.3790   -0.3010 C   0  0  1  0  0  0  0  0  0  0  0  0
   -3.7730   -1.0100    0.2460 C   0  0  0  0  0  0  0  0  0  0  0  0
   -5.2280   -1.4380    0.4290 C   0  0  0  0  0  0  0  0  0  0  0  0
   -5.9850   -0.5040    1.3150 C   0  0  0  0  0  0  0  0  0  0  0  0
   -5.8010    0.9420    1.0160 C   0  0  0  0  0  0  0  0  0  0  0  0
   -4.3580    1.2920    0.7630 C   0  0  0  0  0  0  0  0  0  0  0  0
   -4.5820    0.4760   -1.5990 C   0  0  0  0  0  0  0  0  0  0  0  0
  1  2  1  0
  2  3  2  0
  2 28  1  0
  3  4  1  0
  4  5  1  0
  4 22  1  0
  5  6  2  0
  5 21  1  0
  6  7  1  0
  7  8  2  0
  8  9  1  0
  8 20  1  0
  9 10  1  0
 10 11  2  0
 10 19  1  0
 11 12  1  0
 12 13  2  0
 13 14  1  0
 13 18  1  0
 14 15  2  0
 15 16  1  0
 16 17  2  0
 17 18  1  0
 18 19  2  0
 20 21  2  0
 22 23  1  1
 22 27  1  0
 22 28  1  0
 23 24  1  0
 24 25  1  0
 25 26  1  0
 26 27  1  0
M  END
