
     RDKit          3D

 26 28  0  0  0  0  0  0  0  0999 V2000
   -3.6800   -0.0490    0.8790 O   0  0  0  0  0  0  0  0  0  0  0  0
   -2.8910   -1.0150    0.8010 C   0  0  0  0  0  0  0  0  0  0  0  0
   -1.4270   -0.8290    0.8120 C   0  0  0  0  0  0  0  0  0  0  0  0
   -1.0610    0.6540    0.8860 C   0  0  0  0  0  0  0  0  0  0  0  0
    0.4100    0.7830    0.9160 N   0  0  0  0  0  0  0  0  0  0  0  0
    1.1070    0.8050    2.1400 C   0  0  0  0  0  0  0  0  0  0  0  0
    0.6990    0.4910    3.3080 O   0  0  0  0  0  0  0  0  0  0  0  0
    2.7600    1.3890    1.7050 S   0  0  0  0  0  0  0  0  0  0  0  0
    2.6050    0.9970   -0.0440 C   0  0  0  0  0  0  0  0  0  0  0  0
    3.6260    0.8730   -0.8490 C   0  0  0  0  0  0  0  0  0  0  0  0
    5.0090    1.0360   -0.4340 C   0  0  0  0  0  0  0  0  0  0  0  0
    6.0100    0.1820   -0.8740 C   0  0  0  0  0  0  0  0  0  0  0  0
    7.3100    0.3800   -0.4610 C   0  0  0  0  0  0  0  0  0  0  0  0
    7.6650    1.4110    0.3870 C   0  0  0  0  0  0  0  0  0  0  0  0
    6.6880    2.2650    0.8320 C   0  0  0  0  0  0  0  0  0  0  0  0
    7.0200    3.3240    1.6980 O   0  0  0  0  0  0  0  0  0  0  0  0
    5.3950    2.0560    0.4140 C   0  0  0  0  0  0  0  0  0  0  0  0
    1.1780    0.8840   -0.2400 C   0  0  0  0  0  0  0  0  0  0  0  0
    0.7180    0.8830   -1.4450 O   0  0  0  0  0  0  0  0  0  0  0  0
   -3.4160   -2.3260    0.7000 N   0  0  0  0  0  0  0  0  0  0  0  0
   -4.8450   -2.5410    0.6930 C   0  0  0  0  0  0  0  0  0  0  0  0
   -5.3930   -1.7960   -0.4930 C   0  0  0  0  0  0  0  0  0  0  0  0
   -6.2820   -0.8250   -0.4260 C   0  0  0  0  0  0  0  0  0  0  0  0
   -6.5640   -0.3550   -1.7840 C   0  0  0  0  0  0  0  0  0  0  0  0
   -5.7080   -1.1980   -2.6410 C   0  0  0  0  0  0  0  0  0  0  0  0
   -5.0340   -2.0310   -1.8780 C   0  0  0  0  0  0  0  0  0  0  0  0
  1  2  2  0
  2  3  1  0
  2 20  1  0
  3  4  1  0
  4  5  1  0
  5  6  1  0
  5 18  1  0
  6  7  2  0
  6  8  1  0
  8  9  1  0
  9 10  2  3
  9 18  1  0
 10 11  1  0
 11 12  2  0
 11 17  1  0
 12 13  1  0
 13 14  2  0
 14 15  1  0
 15 16  1  0
 15 17  2  0
 18 19  2  0
 20 21  1  0
 21 22  1  0
 22 23  2  0
 22 26  1  0
 23 24  1  0
 24 25  1  0
 25 26  2  0
M  END
