
     RDKit          3D

 28 32  0  0  0  0  0  0  0  0999 V2000
    9.2810   -0.6440    0.0580 C   0  0  0  0  0  0  0  0  0  0  0  0
    7.8390   -0.4320    0.3620 C   0  0  0  0  0  0  0  0  0  0  0  0
    7.3970   -0.4880    1.6720 C   0  0  0  0  0  0  0  0  0  0  0  0
    6.0670   -0.2960    1.9950 C   0  0  0  0  0  0  0  0  0  0  0  0
    5.4820   -0.3620    3.6430 Cl  0  0  0  0  0  0  0  0  0  0  0  0
    5.1500   -0.0400    0.9820 C   0  0  0  0  0  0  0  0  0  0  0  0
    3.8570    0.1470    1.2880 N   0  0  0  0  0  0  0  0  0  0  0  0
    2.9650    0.3960    0.3020 C   0  0  0  0  0  0  0  0  0  0  0  0
    1.6490    0.5890    0.5940 N   0  0  0  0  0  0  0  0  0  0  0  0
    0.7500    0.8370   -0.3730 C   0  0  0  0  0  0  0  0  0  0  0  0
   -0.6320    1.0420   -0.0940 N   0  0  0  0  0  0  0  0  0  0  0  0
   -1.1410    0.9920    1.2620 C   0  0  0  0  0  0  0  0  0  0  0  0
   -2.6310    1.2390    1.3060 C   0  0  0  0  0  0  0  0  0  0  0  0
   -3.3170    0.1840    0.4980 C   0  0  0  0  0  0  0  0  0  0  0  0
   -2.7870   -0.8160   -0.1620 C   0  0  0  0  0  0  0  0  0  0  0  0
   -3.8240   -1.6290   -0.8290 C   0  0  0  0  0  0  0  0  0  0  0  0
   -5.1060   -0.9820   -0.5060 N   0  0  0  0  0  0  0  0  0  0  0  0
   -6.4620   -1.2690   -0.8570 C   0  0  0  0  0  0  0  0  0  0  0  0
   -7.5060   -0.7060    0.0350 C   0  0  0  0  0  0  0  0  0  0  0  0
   -7.1960    0.7010    0.4930 C   0  0  0  0  0  0  0  0  0  0  0  0
   -5.7640    0.8900    0.7640 C   0  0  0  0  0  0  0  0  0  0  0  0
   -4.7830    0.1250    0.3140 C   0  0  0  0  0  0  0  0  0  0  0  0
    1.1510    0.8990   -1.6650 N   0  0  0  0  0  0  0  0  0  0  0  0
    2.4260    0.7190   -2.0130 C   0  0  0  0  0  0  0  0  0  0  0  0
    3.3520    0.4630   -1.0170 C   0  0  0  0  0  0  0  0  0  0  0  0
    4.6890    0.2660   -1.3060 C   0  0  0  0  0  0  0  0  0  0  0  0
    5.6140    0.0120   -0.3210 C   0  0  0  0  0  0  0  0  0  0  0  0
    6.9230   -0.1820   -0.5880 N   0  0  0  0  0  0  0  0  0  0  0  0
  1  2  1  0
  2  3  2  0
  2 28  1  0
  3  4  1  0
  4  5  1  0
  4  6  2  0
  6  7  1  0
  6 27  1  0
  7  8  2  0
  8  9  1  0
  8 25  1  0
  9 10  2  0
 10 11  1  0
 10 23  1  0
 11 12  1  0
 12 13  1  0
 13 14  1  0
 14 15  2  0
 14 22  1  0
 15 16  1  0
 16 17  1  0
 17 18  1  0
 17 22  1  0
 18 19  1  0
 19 20  1  0
 20 21  1  0
 21 22  2  0
 23 24  2  0
 24 25  1  0
 25 26  2  0
 26 27  1  0
 27 28  2  0
M  END
