
     RDKit          3D

 12 13  0  0  0  0  0  0  0  0999 V2000
    3.3340   -0.4330   -1.1970 N   0  0  0  0  0  0  0  0  0  0  0  0
    2.7700   -0.1690    0.0590 C   0  0  0  0  0  0  0  0  0  0  0  0
    3.4860   -0.0260    1.0970 N   0  0  0  0  0  0  0  0  0  0  0  0
    1.2990   -0.0500    0.1870 C   0  0  0  0  0  0  0  0  0  0  0  0
    0.3340   -0.1570   -0.7480 C   0  0  0  0  0  0  0  0  0  0  0  0
   -0.9420   -0.0060   -0.3680 C   0  0  0  0  0  0  0  0  0  0  0  0
   -2.0960   -0.0760   -1.1700 C   0  0  0  0  0  0  0  0  0  0  0  0
   -3.3280    0.0990   -0.6460 C   0  0  0  0  0  0  0  0  0  0  0  0
   -3.5850    0.3530    0.6660 C   0  0  0  0  0  0  0  0  0  0  0  0
   -2.4580    0.4290    1.4820 C   0  0  0  0  0  0  0  0  0  0  0  0
   -1.1770    0.2450    0.9300 C   0  0  0  0  0  0  0  0  0  0  0  0
    0.4130    0.2740    1.6530 S   0  0  0  0  0  0  0  0  0  0  0  0
  1  2  1  0
  2  3  2  0
  2  4  1  0
  4  5  2  0
  4 12  1  0
  5  6  1  0
  6  7  2  0
  6 11  1  0
  7  8  1  0
  8  9  2  0
  9 10  1  0
 10 11  2  0
 11 12  1  0
M  CHG  1   3   1
M  END
