
     RDKit          3D

 26 28  0  0  0  0  0  0  0  0999 V2000
   -7.4820   -1.5940   -2.3880 C   0  0  0  0  0  0  0  0  0  0  0  0
   -6.5750   -0.9670   -1.3610 C   0  0  0  0  0  0  0  0  0  0  0  0
   -5.2840   -1.2490   -1.4000 C   0  0  0  0  0  0  0  0  0  0  0  0
   -4.4080   -0.6410   -0.4080 C   0  0  0  0  0  0  0  0  0  0  0  0
   -3.1090   -0.7490   -0.2190 O   0  0  0  0  0  0  0  0  0  0  0  0
   -2.7400   -0.0060    0.8210 C   0  0  0  0  0  0  0  0  0  0  0  0
   -1.3500    0.0990    1.3040 C   0  0  0  0  0  0  0  0  0  0  0  0
   -0.5510    1.2000    0.6940 C   0  0  0  0  0  0  0  0  0  0  0  0
    0.8110    1.1850    1.2550 C   0  0  0  0  0  0  0  0  0  0  0  0
    1.1380    0.3200    2.0880 O   0  0  0  0  0  0  0  0  0  0  0  0
    1.7340    2.1650    0.8330 N   0  0  0  0  0  0  0  0  0  0  0  0
    3.1010    2.2390    1.3180 C   0  0  0  0  0  0  0  0  0  0  0  0
    3.8670    1.1850    0.6190 C   0  0  0  0  0  0  0  0  0  0  0  0
    4.1220   -0.0150    1.2120 C   0  0  0  0  0  0  0  0  0  0  0  0
    4.8390   -0.9880    0.5290 C   0  0  0  0  0  0  0  0  0  0  0  0
    5.2960   -0.7350   -0.7620 C   0  0  0  0  0  0  0  0  0  0  0  0
    6.0620   -1.7580   -1.5180 C   0  0  0  0  0  0  0  0  0  0  0  0
    7.8060   -1.5840   -1.1990 S   0  0  1  0  0  0  0  0  0  0  0  0
    7.9440   -1.4150    0.3060 O   0  0  0  0  0  0  0  0  0  0  0  0
    8.5600   -2.8040   -1.6390 O   0  0  0  0  0  0  0  0  0  0  0  0
    5.0300    0.4700   -1.3320 C   0  0  0  0  0  0  0  0  0  0  0  0
    4.3180    1.4350   -0.6530 C   0  0  0  0  0  0  0  0  0  0  0  0
   -3.8750    0.5990    1.3090 C   0  0  0  0  0  0  0  0  0  0  0  0
   -4.9630    0.2000    0.5260 C   0  0  0  0  0  0  0  0  0  0  0  0
   -6.3970    0.5520    0.6070 C   0  0  0  0  0  0  0  0  0  0  0  0
   -7.1800   -0.1090   -0.4080 N   0  0  0  0  0  0  0  0  0  0  0  0
  1  2  1  0
  2  3  2  0
  2 26  1  0
  3  4  1  0
  4  5  1  0
  4 24  2  0
  5  6  1  0
  6  7  1  0
  6 23  2  0
  7  8  1  0
  8  9  1  0
  9 10  2  0
  9 11  1  0
 11 12  1  0
 12 13  1  0
 13 14  2  0
 13 22  1  0
 14 15  1  0
 15 16  2  0
 16 17  1  0
 16 21  1  0
 18 17  1  1
 18 19  2  0
 18 20  2  0
 21 22  2  0
 23 24  1  0
 24 25  1  0
 25 26  1  0
M  END
