
     RDKit          3D

 28 32  0  0  0  0  0  0  0  0999 V2000
    8.5720   -1.4170    0.7870 Cl  0  0  0  0  0  0  0  0  0  0  0  0
    7.8010   -0.2980   -0.3360 C   0  0  0  0  0  0  0  0  0  0  0  0
    6.7760    0.5870    0.3640 C   0  0  1  0  0  0  0  0  0  0  0  0
    6.1900    1.4940   -0.6950 C   0  0  0  0  0  0  0  0  0  0  0  0
    4.6750    1.4810   -0.6070 C   0  0  0  0  0  0  0  0  0  0  0  0
    4.3420    1.6620    0.8780 C   0  0  1  0  0  0  0  0  0  0  0  0
    2.9810    2.1270    1.0070 N   0  0  0  0  0  0  0  0  0  0  0  0
    1.8670    1.3820    0.5230 C   0  0  0  0  0  0  0  0  0  0  0  0
    2.0030    0.1980   -0.0870 N   0  0  0  0  0  0  0  0  0  0  0  0
    0.9630   -0.5050   -0.5420 C   0  0  0  0  0  0  0  0  0  0  0  0
   -0.3670   -0.0440   -0.4110 C   0  0  0  0  0  0  0  0  0  0  0  0
   -1.4340   -0.8420   -0.9910 C   0  0  0  0  0  0  0  0  0  0  0  0
   -1.1840   -1.8300   -1.9330 N   0  0  0  0  0  0  0  0  0  0  0  0
   -2.3180   -2.4190   -2.2680 C   0  0  0  0  0  0  0  0  0  0  0  0
   -3.3390   -1.8090   -1.5310 C   0  0  0  0  0  0  0  0  0  0  0  0
   -2.7410   -0.8710   -0.7820 N   0  0  0  0  0  0  0  0  0  0  0  0
   -3.5490   -0.1210    0.1010 C   0  0  0  0  0  0  0  0  0  0  0  0
   -4.8740   -0.3420    0.1800 C   0  0  0  0  0  0  0  0  0  0  0  0
   -5.6600    0.4940    1.1390 C   0  0  0  0  0  0  0  0  0  0  0  0
   -7.1300    0.4340    0.9460 C   0  0  0  0  0  0  0  0  0  0  0  0
   -7.5170   -0.1030   -0.4130 C   0  0  0  0  0  0  0  0  0  0  0  0
   -6.9320   -1.5230   -0.4610 C   0  0  0  0  0  0  0  0  0  0  0  0
   -5.5070   -1.3230   -0.6130 N   0  0  0  0  0  0  0  0  0  0  0  0
   -4.7780   -2.1170   -1.5590 C   0  0  0  0  0  0  0  0  0  0  0  0
   -0.4670    1.1590    0.2090 C   0  0  0  0  0  0  0  0  0  0  0  0
    0.6240    1.8510    0.6640 N   0  0  0  0  0  0  0  0  0  0  0  0
    4.6270    0.4150    1.6500 C   0  0  0  0  0  0  0  0  0  0  0  0
    5.7370   -0.3370    0.9530 C   0  0  0  0  0  0  0  0  0  0  0  0
  1  2  1  0
  3  2  1  6
  3  4  1  0
  3 28  1  0
  4  5  1  0
  5  6  1  0
  6  7  1  6
  6 27  1  0
  7  8  1  0
  8  9  2  0
  8 26  1  0
  9 10  1  0
 10 11  2  0
 11 12  1  0
 11 25  1  0
 12 13  2  0
 12 16  1  0
 13 14  1  0
 14 15  2  0
 15 16  1  0
 15 24  1  0
 16 17  1  0
 17 18  2  0
 18 19  1  0
 18 23  1  0
 19 20  1  0
 20 21  1  0
 21 22  1  0
 22 23  1  0
 23 24  1  0
 25 26  2  0
 27 28  1  0
M  END
