
     RDKit          3D

 11 12  0  0  0  0  0  0  0  0999 V2000
   -1.5470   -1.3590   -0.1160 C   0  0  0  0  0  0  0  0  0  0  0  0
   -0.9820    0.0230    0.1240 C   0  0  2  0  0  0  0  0  0  0  0  0
   -1.9270    0.7290    1.0720 C   0  0  0  0  0  0  0  0  0  0  0  0
   -0.9380    0.8220   -1.1600 C   0  0  0  0  0  0  0  0  0  0  0  0
    0.5250    0.8830   -1.4390 C   0  0  0  0  0  0  0  0  0  0  0  0
    1.0700    0.7880   -2.5330 O   0  0  0  0  0  0  0  0  0  0  0  0
    1.1530    1.0820   -0.1020 C   0  0  2  0  0  0  0  0  0  0  0  0
    2.5440    0.5900   -0.0210 C   0  0  0  0  0  0  0  0  0  0  0  0
    2.5870   -0.7240    0.1370 C   0  0  0  0  0  0  0  0  0  0  0  0
    1.1920   -1.2190    0.1730 C   0  0  0  0  0  0  0  0  0  0  0  0
    0.4230   -0.0290    0.6730 C   0  0  2  0  0  0  0  0  0  0  0  0
  2  1  1  6
  2  3  1  0
  2  4  1  0
  2 11  1  0
  4  5  1  0
  5  6  2  0
  5  7  1  0
  7  8  1  6
  7 11  1  0
  8  9  2  0
  9 10  1  0
 11 10  1  6
M  END
