
     RDKit          3D

 12 13  0  0  0  0  0  0  0  0999 V2000
   -3.5650    0.5330   -0.8240 N   0  0  0  0  0  0  0  0  0  0  0  0
   -2.6230    0.1820    0.1730 C   0  0  0  0  0  0  0  0  0  0  0  0
   -3.0030   -0.1000    1.3480 N   0  0  0  0  0  0  0  0  0  0  0  0
   -1.1840    0.1300   -0.1080 C   0  0  0  0  0  0  0  0  0  0  0  0
   -0.1210   -0.1780    0.6910 C   0  0  0  0  0  0  0  0  0  0  0  0
    1.1090   -0.1370    0.1350 C   0  0  0  0  0  0  0  0  0  0  0  0
    2.3350   -0.4200    0.7880 C   0  0  0  0  0  0  0  0  0  0  0  0
    3.4950   -0.3320    0.0770 C   0  0  0  0  0  0  0  0  0  0  0  0
    3.5750    0.0180   -1.2550 C   0  0  0  0  0  0  0  0  0  0  0  0
    2.4010    0.2820   -1.8520 N   0  0  0  0  0  0  0  0  0  0  0  0
    1.2280    0.2010   -1.1640 C   0  0  0  0  0  0  0  0  0  0  0  0
   -0.4290    0.4780   -1.6540 S   0  0  0  0  0  0  0  0  0  0  0  0
  1  2  1  0
  2  3  2  0
  2  4  1  0
  4  5  2  0
  4 12  1  0
  5  6  1  0
  6  7  2  0
  6 11  1  0
  7  8  1  0
  8  9  2  0
  9 10  1  0
 10 11  2  0
 11 12  1  0
M  CHG  1   3   1
M  END
