
     RDKit          3D

 11 12  0  0  0  0  0  0  0  0999 V2000
   -1.9730    1.8040   -0.5960 C   0  0  0  0  0  0  0  0  0  0  0  0
   -1.3310    0.7090   -0.2490 C   0  0  0  0  0  0  0  0  0  0  0  0
   -2.0080   -0.5790   -0.2720 C   0  0  0  0  0  0  0  0  0  0  0  0
   -1.3330   -1.6680    0.4870 C   0  0  0  0  0  0  0  0  0  0  0  0
    0.1230   -1.6480    0.5720 C   0  0  0  0  0  0  0  0  0  0  0  0
    0.8490   -0.4030    0.2580 C   0  0  2  0  0  0  0  0  0  0  0  0
    1.6160   -0.5450   -1.0660 C   0  0  0  0  0  0  0  0  0  0  0  0
    1.8110   -0.0540    1.2060 O   0  0  0  0  0  0  0  0  0  0  0  0
    2.1900    1.2470    0.8010 C   0  0  0  0  0  0  0  0  0  0  0  0
    0.8370    1.8270    0.4740 C   0  0  0  0  0  0  0  0  0  0  0  0
    0.0490    0.8140    0.1520 C   0  0  0  0  0  0  0  0  0  0  0  0
  1  2  2  0
  2  3  1  0
  2 11  1  0
  3  4  1  0
  4  5  1  0
  5  6  1  0
  6  7  1  6
  6  8  1  0
  6 11  1  0
  8  9  1  0
  9 10  1  0
 10 11  2  0
M  END
