
     RDKit          3D

 11 12  0  0  0  0  0  0  0  0999 V2000
   -2.9840    1.1980   -0.1630 C   0  0  0  0  0  0  0  0  0  0  0  0
   -1.8800    0.3770    0.4940 C   0  0  2  0  0  0  0  0  0  0  0  0
   -0.6100    1.1300    0.2850 C   0  0  0  0  0  0  0  0  0  0  0  0
    0.5670    0.5290    0.1780 C   0  0  0  0  0  0  0  0  0  0  0  0
    1.7860    1.3400   -0.0290 C   0  0  0  0  0  0  0  0  0  0  0  0
    2.9760    0.5060   -0.4300 C   0  0  0  0  0  0  0  0  0  0  0  0
    2.5090   -0.6110   -1.1180 O   0  0  0  0  0  0  0  0  0  0  0  0
    1.9250   -1.4610   -0.1940 C   0  0  0  0  0  0  0  0  0  0  0  0
    0.5820   -0.9540    0.2760 C   0  0  2  0  0  0  0  0  0  0  0  0
   -0.5480   -1.4560   -0.6050 C   0  0  0  0  0  0  0  0  0  0  0  0
   -1.8510   -1.0130   -0.0350 C   0  0  0  0  0  0  0  0  0  0  0  0
  2  1  1  6
  2  3  1  0
  2 11  1  0
  3  4  2  0
  4  5  1  0
  4  9  1  0
  5  6  1  0
  6  7  1  0
  7  8  1  0
  9  8  1  6
  9 10  1  0
 10 11  1  0
M  END
