
     RDKit          3D

 11 12  0  0  0  0  0  0  0  0999 V2000
   -2.5820    0.6790   -1.0720 C   0  0  0  0  0  0  0  0  0  0  0  0
   -1.5610    0.1520   -0.1140 C   0  0  1  0  0  0  0  0  0  0  0  0
   -2.2120   -0.3410    1.1620 C   0  0  0  0  0  0  0  0  0  0  0  0
   -0.7670   -1.0140   -0.6810 C   0  0  0  0  0  0  0  0  0  0  0  0
    0.6530   -0.6480   -0.5520 C   0  0  2  0  0  0  0  0  0  0  0  0
    1.5640   -1.6770    0.0080 C   0  0  0  0  0  0  0  0  0  0  0  0
    2.5780   -1.0830    0.7160 O   0  0  0  0  0  0  0  0  0  0  0  0
    3.0420    0.1010    0.1820 C   0  0  0  0  0  0  0  0  0  0  0  0
    1.9730    1.1910    0.1660 C   0  0  0  0  0  0  0  0  0  0  0  0
    0.6840    0.5080    0.4620 C   0  0  1  0  0  0  0  0  0  0  0  0
   -0.5490    1.2450    0.1630 C   0  0  0  0  0  0  0  0  0  0  0  0
  2  1  1  6
  2  3  1  0
  2  4  1  0
  2 11  1  0
  5  4  1  1
  5  6  1  0
  5 10  1  0
  6  7  1  0
  7  8  1  0
  8  9  1  0
 10  9  1  6
 10 11  1  0
M  END
