
     RDKit          3D

 11 12  0  0  0  0  0  0  0  0999 V2000
   -0.3220    2.3550   -0.0080 C   0  0  0  0  0  0  0  0  0  0  0  0
   -0.2040    1.0630    0.2930 C   0  0  0  0  0  0  0  0  0  0  0  0
    1.0100    0.3090    0.0030 C   0  0  0  0  0  0  0  0  0  0  0  0
    2.2610    0.7360   -0.0540 C   0  0  0  0  0  0  0  0  0  0  0  0
    3.3660   -0.2000   -0.3690 C   0  0  0  0  0  0  0  0  0  0  0  0
    0.5410   -1.1040   -0.2260 C   0  0  0  0  0  0  0  0  0  0  0  0
   -0.8470   -1.1760    0.3160 C   0  0  2  0  0  0  0  0  0  0  0  0
   -1.8960   -1.2880   -0.7660 C   0  0  0  0  0  0  0  0  0  0  0  0
   -2.6680   -0.1520   -0.7200 O   0  0  0  0  0  0  0  0  0  0  0  0
   -2.5870    0.3870    0.5440 C   0  0  0  0  0  0  0  0  0  0  0  0
   -1.1660    0.1580    0.9300 C   0  0  2  0  0  0  0  0  0  0  0  0
  1  2  2  0
  2  3  1  0
  2 11  1  0
  3  4  2  3
  3  6  1  0
  4  5  1  0
  7  6  1  6
  7  8  1  0
  7 11  1  0
  8  9  1  0
  9 10  1  0
 11 10  1  6
M  END
