
     RDKit          3D

 13 14  0  0  0  0  0  0  0  0999 V2000
   -3.3450   -1.2120    0.7850 N   0  0  0  0  0  0  0  0  0  0  0  0
   -2.7390    0.0140    0.4430 C   0  0  0  0  0  0  0  0  0  0  0  0
   -3.4680    1.0570    0.2810 N   0  0  0  0  0  0  0  0  0  0  0  0
   -1.3130    0.1390    0.2680 C   0  0  0  0  0  0  0  0  0  0  0  0
   -0.2950   -0.7280    0.3610 C   0  0  0  0  0  0  0  0  0  0  0  0
    0.9630   -0.3030    0.1350 C   0  0  0  0  0  0  0  0  0  0  0  0
    2.1570   -1.0660    0.1850 C   0  0  0  0  0  0  0  0  0  0  0  0
    2.1310   -3.1260    0.6570 I   0  0  0  0  0  0  0  0  0  0  0  0
    3.3620   -0.4970   -0.0680 C   0  0  0  0  0  0  0  0  0  0  0  0
    3.5450    0.8090   -0.3840 C   0  0  0  0  0  0  0  0  0  0  0  0
    2.3880    1.5920   -0.4440 C   0  0  0  0  0  0  0  0  0  0  0  0
    1.1680    1.0060   -0.1850 C   0  0  0  0  0  0  0  0  0  0  0  0
   -0.5020    1.6780   -0.1660 S   0  0  0  0  0  0  0  0  0  0  0  0
  1  2  1  0
  2  3  2  0
  2  4  1  0
  4  5  2  0
  4 13  1  0
  5  6  1  0
  6  7  2  0
  6 12  1  0
  7  8  1  0
  7  9  1  0
  9 10  2  0
 10 11  1  0
 11 12  2  0
 12 13  1  0
M  CHG  1   3   1
M  END
