
     RDKit          3D

 25 26  0  0  0  0  0  0  0  0999 V2000
   -4.2990    2.5250    0.6780 C   0  0  0  0  0  0  0  0  0  0  0  0
   -4.5690    1.3710    1.6270 C   0  0  1  0  0  0  0  0  0  0  0  0
   -5.9910    1.2490    1.8700 N   0  0  0  0  0  0  0  0  0  0  0  0
   -4.0800    0.0830    1.0010 C   0  0  0  0  0  0  0  0  0  0  0  0
   -2.6320    0.1760    0.7410 N   0  0  0  0  0  0  0  0  0  0  0  0
   -1.9560   -0.9230    0.1540 C   0  0  0  0  0  0  0  0  0  0  0  0
   -2.7300   -2.0320   -0.1380 C   0  0  0  0  0  0  0  0  0  0  0  0
   -2.1790   -3.1430   -0.7040 C   0  0  0  0  0  0  0  0  0  0  0  0
   -2.9870   -4.2820   -1.0010 N   0  0  0  0  0  0  0  0  0  0  0  0
   -0.8460   -3.1760   -0.9920 C   0  0  0  0  0  0  0  0  0  0  0  0
   -0.0710   -2.0450   -0.6910 C   0  0  0  0  0  0  0  0  0  0  0  0
   -0.5800   -0.9080   -0.1230 C   0  0  0  0  0  0  0  0  0  0  0  0
    0.1530    0.2380    0.1930 N   0  0  0  0  0  0  0  0  0  0  0  0
    1.5740    0.4250   -0.0230 C   0  0  0  0  0  0  0  0  0  0  0  0
    2.1490   -0.5390   -0.5340 O   0  0  0  0  0  0  0  0  0  0  0  0
    2.1900    1.6660    0.3550 C   0  0  0  0  0  0  0  0  0  0  0  0
    3.4270    2.0190    0.2450 C   0  0  0  0  0  0  0  0  0  0  0  0
    4.5250    1.2870   -0.2780 C   0  0  0  0  0  0  0  0  0  0  0  0
    5.7210    1.9140   -0.2690 C   0  0  0  0  0  0  0  0  0  0  0  0
    7.0220    1.4790   -0.7130 C   0  0  0  0  0  0  0  0  0  0  0  0
    7.9810    2.4460   -0.8620 F   0  0  0  0  0  0  0  0  0  0  0  0
    7.4210    0.2590   -0.9990 C   0  0  0  0  0  0  0  0  0  0  0  0
    6.6300   -0.9730   -0.9360 C   0  0  0  0  0  0  0  0  0  0  0  0
    5.3170   -1.0650   -0.8390 C   0  0  0  0  0  0  0  0  0  0  0  0
    4.4170   -0.0010   -0.7770 O   0  0  0  0  0  0  0  0  0  0  0  0
  2  1  1  6
  2  3  1  0
  2  4  1  0
  4  5  1  0
  5  6  1  0
  6  7  2  0
  6 12  1  0
  7  8  1  0
  8  9  1  0
  8 10  2  0
 10 11  1  0
 11 12  2  0
 12 13  1  0
 13 14  1  0
 14 15  2  0
 14 16  1  0
 16 17  2  3
 17 18  1  0
 18 19  2  0
 18 25  1  0
 19 20  1  0
 20 21  1  0
 20 22  2  0
 22 23  1  0
 23 24  2  0
 24 25  1  0
M  CHG  1   3   1
M  END
