
     RDKit          3D

 25 26  0  0  0  0  0  0  0  0999 V2000
   -3.4570    2.7800    2.7450 C   0  0  0  0  0  0  0  0  0  0  0  0
   -3.2280    1.5980    2.2700 C   0  0  0  0  0  0  0  0  0  0  0  0
   -3.8360    0.4790    2.8960 O   0  0  0  0  0  0  0  0  0  0  0  0
   -3.6930   -0.8280    2.5210 C   0  0  0  0  0  0  0  0  0  0  0  0
   -2.7790   -1.0710    1.3520 C   0  0  0  0  0  0  0  0  0  0  0  0
   -2.6100   -2.4980    0.9930 C   0  0  0  0  0  0  0  0  0  0  0  0
   -3.2330   -3.3950    1.6780 N   0  0  0  0  0  0  0  0  0  0  0  0
   -3.0740   -4.7970    1.3340 C   0  0  0  0  0  0  0  0  0  0  0  0
   -2.1890   -0.0970    0.7190 C   0  0  0  0  0  0  0  0  0  0  0  0
   -1.2940   -0.3890   -0.4340 C   0  0  0  0  0  0  0  0  0  0  0  0
    0.0620    0.0610   -0.1010 N   0  0  0  0  0  0  0  0  0  0  0  0
    1.0980   -0.1230   -1.0930 C   0  0  0  0  0  0  0  0  0  0  0  0
    0.7900   -0.6520   -2.1750 O   0  0  0  0  0  0  0  0  0  0  0  0
    2.4170    0.2780   -0.8550 N   0  0  0  0  0  0  0  0  0  0  0  0
    3.5200    0.1470   -1.7230 C   0  0  0  0  0  0  0  0  0  0  0  0
    3.4990   -0.6800   -2.8100 C   0  0  0  0  0  0  0  0  0  0  0  0
    4.6130   -0.7430   -3.6290 C   0  0  0  0  0  0  0  0  0  0  0  0
    5.7190    0.0100   -3.3560 C   0  0  0  0  0  0  0  0  0  0  0  0
    5.7860    0.8590   -2.2690 C   0  0  0  0  0  0  0  0  0  0  0  0
    6.9610    1.6200   -2.0310 N   0  0  0  0  0  0  0  0  0  0  0  0
    4.6780    0.9090   -1.4710 C   0  0  0  0  0  0  0  0  0  0  0  0
   -2.3780    1.3320    1.1390 C   0  0  0  0  0  0  0  0  0  0  0  0
   -1.8810    2.2550    0.3860 C   0  0  0  0  0  0  0  0  0  0  0  0
   -1.9350    3.7060    0.3180 C   0  0  0  0  0  0  0  0  0  0  0  0
   -0.6640    4.2400    0.5630 F   0  0  0  0  0  0  0  0  0  0  0  0
  1  2  2  0
  2  3  1  0
  2 22  1  0
  3  4  1  0
  4  5  1  0
  5  6  1  0
  5  9  2  0
  6  7  2  3
  7  8  1  0
  9 10  1  0
  9 22  1  0
 10 11  1  0
 11 12  1  0
 12 13  2  0
 12 14  1  0
 14 15  1  0
 15 16  2  0
 15 21  1  0
 16 17  1  0
 17 18  2  0
 18 19  1  0
 19 20  1  0
 19 21  2  0
 22 23  2  3
 23 24  1  0
 24 25  1  0
M  CHG  1   7   1
M  END
