
     RDKit          3D

 25 28  0  0  0  0  0  0  0  0999 V2000
   -7.7990   -0.5060    0.6740 O   0  0  0  0  0  0  0  0  0  0  0  0
   -6.6650    0.2720    0.5180 C   0  0  0  0  0  0  0  0  0  0  0  0
   -6.6610    1.5860    0.8880 C   0  0  0  0  0  0  0  0  0  0  0  0
   -5.5540    2.3710    0.7410 C   0  0  0  0  0  0  0  0  0  0  0  0
   -4.3900    1.7950    0.1900 C   0  0  0  0  0  0  0  0  0  0  0  0
   -3.3080    2.6340    0.0490 O   0  0  0  0  0  0  0  0  0  0  0  0
   -4.3380    0.4780   -0.1970 C   0  0  0  0  0  0  0  0  0  0  0  0
   -3.1480   -0.2290   -0.6550 C   0  0  0  0  0  0  0  0  0  0  0  0
   -1.8140   -0.0180   -0.3490 C   0  0  0  0  0  0  0  0  0  0  0  0
   -1.0590   -1.0190   -0.9620 C   0  0  0  0  0  0  0  0  0  0  0  0
    0.3530   -1.1380   -0.8810 N   0  0  0  0  0  0  0  0  0  0  0  0
    1.0000   -2.2380   -1.5550 C   0  0  0  0  0  0  0  0  0  0  0  0
    2.0560   -2.9230   -0.7220 C   0  0  0  0  0  0  0  0  0  0  0  0
    2.5460   -2.0780    0.3200 N   0  0  0  0  0  0  0  0  0  0  0  0
    2.5990   -0.7080   -0.1850 C   0  0  2  0  0  0  0  0  0  0  0  0
    3.5080    0.0590    0.7470 C   0  0  0  0  0  0  0  0  0  0  0  0
    3.6660    1.4300    0.3860 N   0  0  0  0  0  0  0  0  0  0  0  0
    5.0520    1.8030    0.6010 C   0  0  1  0  0  0  0  0  0  0  0  0
    6.1180    0.8810   -0.0060 C   0  0  0  0  0  0  0  0  0  0  0  0
    5.8790    2.3330   -0.5010 C   0  0  0  0  0  0  0  0  0  0  0  0
    1.1740   -0.1990   -0.1490 C   0  0  0  0  0  0  0  0  0  0  0  0
   -1.9660   -1.8060   -1.6210 C   0  0  0  0  0  0  0  0  0  0  0  0
   -3.2120   -1.3320   -1.4360 N   0  0  0  0  0  0  0  0  0  0  0  0
   -5.5130   -0.2640   -0.0160 C   0  0  0  0  0  0  0  0  0  0  0  0
   -5.5550   -1.5830   -0.3520 F   0  0  0  0  0  0  0  0  0  0  0  0
  1  2  1  0
  2  3  2  0
  2 24  1  0
  3  4  1  0
  4  5  2  0
  5  6  1  0
  5  7  1  0
  7  8  1  0
  7 24  2  0
  8  9  2  0
  8 23  1  0
  9 10  1  0
 10 11  1  0
 10 22  2  0
 11 12  1  0
 11 21  1  0
 12 13  1  0
 13 14  1  0
 14 15  1  0
 15 16  1  1
 15 21  1  0
 16 17  1  0
 18 17  1  6
 18 19  1  0
 18 20  1  0
 19 20  1  0
 22 23  1  0
 24 25  1  0
M  CHG  1  17   1
M  END
