
     RDKit          3D

 11 12  0  0  0  0  0  0  0  0999 V2000
   -2.5480    0.6660   -0.8070 C   0  0  0  0  0  0  0  0  0  0  0  0
   -1.5550    0.1060    0.1810 C   0  0  1  0  0  0  0  0  0  0  0  0
   -2.3090   -0.3140    1.4070 C   0  0  0  0  0  0  0  0  0  0  0  0
   -0.8250   -1.1020   -0.3540 C   0  0  0  0  0  0  0  0  0  0  0  0
    0.5260   -0.5910   -0.6460 C   0  0  2  0  0  0  0  0  0  0  0  0
    1.6440   -1.5600   -0.5790 C   0  0  0  0  0  0  0  0  0  0  0  0
    2.7940   -0.8320   -0.9690 O   0  0  0  0  0  0  0  0  0  0  0  0
    3.1000    0.1250   -0.0340 C   0  0  0  0  0  0  0  0  0  0  0  0
    1.9850    1.1470    0.1620 C   0  0  0  0  0  0  0  0  0  0  0  0
    0.7490    0.3970    0.5110 C   0  0  1  0  0  0  0  0  0  0  0  0
   -0.5170    1.1700    0.4610 C   0  0  0  0  0  0  0  0  0  0  0  0
  2  1  1  6
  2  3  1  0
  2  4  1  0
  2 11  1  0
  5  4  1  1
  5  6  1  0
  5 10  1  0
  6  7  1  0
  7  8  1  0
  8  9  1  0
 10  9  1  6
 10 11  1  0
M  END
