
     RDKit          3D

 11 12  0  0  0  0  0  0  0  0999 V2000
   -2.8430   -0.5220   -0.1870 C   0  0  0  0  0  0  0  0  0  0  0  0
   -2.1410   -0.0430   -1.2080 C   0  0  0  0  0  0  0  0  0  0  0  0
   -0.7680    0.4820   -0.9840 C   0  0  0  0  0  0  0  0  0  0  0  0
    0.0230   -0.2690    0.0270 C   0  0  2  0  0  0  0  0  0  0  0  0
   -0.8040   -1.1940    0.8790 C   0  0  0  0  0  0  0  0  0  0  0  0
   -2.1360   -0.4760    1.1440 C   0  0  0  0  0  0  0  0  0  0  0  0
    0.7870    0.6360    0.9800 C   0  0  0  0  0  0  0  0  0  0  0  0
    1.7680    1.5220    0.2660 C   0  0  0  0  0  0  0  0  0  0  0  0
    2.6840    0.6090   -0.5510 C   0  0  0  0  0  0  0  0  0  0  0  0
    1.9240   -0.1790   -1.3940 O   0  0  0  0  0  0  0  0  0  0  0  0
    1.1010   -1.0610   -0.7290 C   0  0  0  0  0  0  0  0  0  0  0  0
  1  2  2  0
  1  6  1  0
  2  3  1  0
  4  3  1  6
  4  5  1  0
  4  7  1  0
  4 11  1  0
  5  6  1  0
  7  8  1  0
  8  9  1  0
  9 10  1  0
 10 11  1  0
M  END
