
     RDKit          3D

 11 12  0  0  0  0  0  0  0  0999 V2000
    3.1070    0.8350    0.0550 C   0  0  0  0  0  0  0  0  0  0  0  0
    1.8370    0.2700   -0.5680 C   0  0  2  0  0  0  0  0  0  0  0  0
    0.7200    1.1380   -0.1810 C   0  0  0  0  0  0  0  0  0  0  0  0
   -0.5220    0.6750   -0.0590 C   0  0  0  0  0  0  0  0  0  0  0  0
   -1.6310    1.5730    0.3330 C   0  0  0  0  0  0  0  0  0  0  0  0
   -2.9250    0.7870    0.2700 C   0  0  0  0  0  0  0  0  0  0  0  0
   -2.7290   -0.4280    0.9010 O   0  0  0  0  0  0  0  0  0  0  0  0
   -2.0690   -1.2760    0.0170 C   0  0  0  0  0  0  0  0  0  0  0  0
   -0.7050   -0.7830   -0.3410 C   0  0  2  0  0  0  0  0  0  0  0  0
    0.3950   -1.5710    0.3780 C   0  0  0  0  0  0  0  0  0  0  0  0
    1.7150   -1.1590   -0.1760 C   0  0  0  0  0  0  0  0  0  0  0  0
  2  1  1  1
  2  3  1  0
  2 11  1  0
  3  4  2  0
  4  5  1  0
  4  9  1  0
  5  6  1  0
  6  7  1  0
  7  8  1  0
  9  8  1  1
  9 10  1  0
 10 11  1  0
M  END
