
     RDKit          3D

 11 12  0  0  0  0  0  0  0  0999 V2000
    3.0830    0.1210    0.4410 C   0  0  0  0  0  0  0  0  0  0  0  0
    2.1140   -0.3930   -0.5900 C   0  0  0  0  0  0  0  0  0  0  0  0
    0.7180    0.0360   -0.3230 C   0  0  0  0  0  0  0  0  0  0  0  0
   -0.1860   -0.9450   -0.1320 C   0  0  0  0  0  0  0  0  0  0  0  0
   -1.5270   -1.0690    0.4300 C   0  0  1  0  0  0  0  0  0  0  0  0
   -1.8830    0.1930    1.2990 C   0  0  0  0  0  0  0  0  0  0  0  0
   -1.8120    0.9680    0.2390 C   0  0  0  0  0  0  0  0  0  0  0  0
   -0.8140    1.9570   -0.1260 C   0  0  0  0  0  0  0  0  0  0  0  0
    0.4940    1.5090   -0.3020 C   0  0  0  0  0  0  0  0  0  0  0  0
   -2.9440    0.5750   -0.4930 O   0  0  0  0  0  0  0  0  0  0  0  0
   -2.6890   -0.9120   -0.5760 C   0  0  0  0  0  0  0  0  0  0  0  0
  1  2  1  0
  2  3  1  0
  3  4  2  0
  3  9  1  0
  4  5  1  0
  5  6  1  0
  5 11  1  6
  6  7  2  0
  7  8  1  0
  7 10  1  0
  8  9  2  0
 10 11  1  0
M  END
