
     RDKit          3D

 11 12  0  0  0  0  0  0  0  0999 V2000
    2.7770   -0.4120    0.9050 C   0  0  0  0  0  0  0  0  0  0  0  0
    2.1410    0.7160    0.1940 C   0  0  0  0  0  0  0  0  0  0  0  0
    0.8820    0.9570    0.0100 C   0  0  0  0  0  0  0  0  0  0  0  0
    0.4990    2.1860   -0.7560 C   0  0  0  0  0  0  0  0  0  0  0  0
   -0.1790    1.7140   -1.9040 O   0  0  0  0  0  0  0  0  0  0  0  0
   -1.3260    1.0080   -1.5510 C   0  0  0  0  0  0  0  0  0  0  0  0
   -0.8950   -0.2760   -0.8920 C   0  0  2  0  0  0  0  0  0  0  0  0
   -1.9880   -1.1340   -0.4110 C   0  0  0  0  0  0  0  0  0  0  0  0
   -1.5260   -1.6850    0.9150 C   0  0  0  0  0  0  0  0  0  0  0  0
   -0.1080   -1.1020    1.1320 C   0  0  0  0  0  0  0  0  0  0  0  0
   -0.2500    0.1830    0.4450 C   0  0  1  0  0  0  0  0  0  0  0  0
  1  2  1  0
  2  3  2  3
  3  4  1  0
  3 11  1  0
  4  5  1  0
  5  6  1  0
  7  6  1  1
  7  8  1  0
  7 11  1  0
  8  9  1  0
  9 10  1  0
 11 10  1  1
M  END
