
     RDKit          3D

 11 12  0  0  0  0  0  0  0  0999 V2000
    1.8500    1.9750    0.5010 C   0  0  0  0  0  0  0  0  0  0  0  0
    1.2700    0.8100    0.3510 C   0  0  0  0  0  0  0  0  0  0  0  0
    1.8810   -0.3770    1.0250 C   0  0  0  0  0  0  0  0  0  0  0  0
    1.3420   -1.6680    0.4680 C   0  0  0  0  0  0  0  0  0  0  0  0
   -0.1160   -1.6960    0.2100 C   0  0  0  0  0  0  0  0  0  0  0  0
   -0.7780   -0.4870   -0.2840 C   0  0  2  0  0  0  0  0  0  0  0  0
   -1.9460   -0.1440    0.6490 C   0  0  0  0  0  0  0  0  0  0  0  0
   -1.3520   -0.6100   -1.5620 O   0  0  0  0  0  0  0  0  0  0  0  0
   -1.7860    0.7160   -1.8100 C   0  0  0  0  0  0  0  0  0  0  0  0
   -0.5350    1.4400   -1.3750 C   0  0  0  0  0  0  0  0  0  0  0  0
    0.0720    0.7080   -0.4540 C   0  0  0  0  0  0  0  0  0  0  0  0
  1  2  2  0
  2  3  1  0
  2 11  1  0
  3  4  1  0
  4  5  1  0
  5  6  1  0
  6  7  1  1
  6  8  1  0
  6 11  1  0
  8  9  1  0
  9 10  1  0
 10 11  2  0
M  END
