
     RDKit          3D

 47 52  0  0  0  0  0  0  0  0999 V2000
   10.2870    3.7000    2.0810 C   0  0  0  0  0  0  0  0  0  0  0  0
   11.5220    2.9890    1.6460 C   0  0  0  0  0  0  0  0  0  0  0  0
   11.4190    2.0840    0.4900 C   0  0  0  0  0  0  0  0  0  0  0  0
   10.6140    0.9400    0.6600 N   0  0  0  0  0  0  0  0  0  0  0  0
    9.2740    0.6570    0.4270 C   0  0  0  0  0  0  0  0  0  0  0  0
    8.2270    1.5310    0.4120 C   0  0  0  0  0  0  0  0  0  0  0  0
    6.9030    1.1140    0.1300 C   0  0  0  0  0  0  0  0  0  0  0  0
    6.6560   -0.1870   -0.1370 C   0  0  0  0  0  0  0  0  0  0  0  0
    5.3290   -0.7110   -0.4070 C   0  0  0  0  0  0  0  0  0  0  0  0
    4.9500   -1.8800    0.2390 C   0  0  0  0  0  0  0  0  0  0  0  0
    3.7320   -2.4230   -0.0220 C   0  0  0  0  0  0  0  0  0  0  0  0
    3.3550   -3.6100    0.6270 O   0  0  0  0  0  0  0  0  0  0  0  0
    2.8100   -1.8810   -0.9020 C   0  0  0  0  0  0  0  0  0  0  0  0
    1.6860   -2.7220   -1.3260 C   0  0  2  0  0  0  0  0  0  0  0  0
    1.7800   -2.6360   -2.7740 O   0  0  0  0  0  0  0  0  0  0  0  0
    0.5800   -2.2630   -3.2910 C   0  0  0  0  0  0  0  0  0  0  0  0
   -0.4520   -2.7360   -2.2870 C   0  0  0  0  0  0  0  0  0  0  0  0
    0.2810   -2.3890   -1.0370 C   0  0  2  0  0  0  0  0  0  0  0  0
   -0.0610   -1.2280   -0.3100 N   0  0  2  0  0  0  0  0  0  0  0  0
   -0.1850   -1.5470    1.1170 C   0  0  0  0  0  0  0  0  0  0  0  0
   -1.1810   -2.6130    1.4190 C   0  0  0  0  0  0  0  0  0  0  0  0
   -2.4520   -2.5660    0.6530 C   0  0  0  0  0  0  0  0  0  0  0  0
   -2.9860   -1.1880    0.5510 N   0  0  0  0  0  0  0  0  0  0  0  0
   -4.3620   -1.1030    0.7580 C   0  0  0  0  0  0  0  0  0  0  0  0
   -4.9250   -2.3050    0.8380 O   0  0  0  0  0  0  0  0  0  0  0  0
   -5.2910    0.0040    0.9080 C   0  0  2  0  0  0  0  0  0  0  0  0
   -6.4870   -0.0000   -0.0180 C   0  0  0  0  0  0  0  0  0  0  0  0
   -7.6260    0.7440    0.7440 C   0  0  2  0  0  0  0  0  0  0  0  0
   -8.1810    1.7010   -0.0000 O   0  0  0  0  0  0  0  0  0  0  0  0
   -9.3140    2.1360   -0.5420 C   0  0  0  0  0  0  0  0  0  0  0  0
   -9.2490    3.3290   -1.3410 C   0  0  0  0  0  0  0  0  0  0  0  0
  -10.3920    3.8070   -1.9120 C   0  0  0  0  0  0  0  0  0  0  0  0
  -11.6270    3.1840   -1.7530 C   0  0  0  0  0  0  0  0  0  0  0  0
  -11.6760    2.0610   -0.9980 C   0  0  0  0  0  0  0  0  0  0  0  0
  -10.5350    1.5190   -0.3840 C   0  0  0  0  0  0  0  0  0  0  0  0
  -10.6810    0.2980    0.4610 C   0  0  0  0  0  0  0  0  0  0  0  0
   -7.0630    1.3540    2.0410 C   0  0  0  0  0  0  0  0  0  0  0  0
   -5.7970    2.0860    1.8060 C   0  0  0  0  0  0  0  0  0  0  0  0
   -4.8070    1.3250    1.0250 N   0  0  0  0  0  0  0  0  0  0  0  0
   -2.1860   -0.0640    0.2390 C   0  0  0  0  0  0  0  0  0  0  0  0
   -1.0950   -0.3970   -0.7840 C   0  0  0  0  0  0  0  0  0  0  0  0
    3.1850   -0.7300   -1.5240 C   0  0  0  0  0  0  0  0  0  0  0  0
    4.4560   -0.1490   -1.2760 C   0  0  0  0  0  0  0  0  0  0  0  0
    4.7520    1.0360   -1.9970 O   0  0  0  0  0  0  0  0  0  0  0  0
    7.6870   -1.1360   -0.1410 C   0  0  0  0  0  0  0  0  0  0  0  0
    7.5060   -2.5820   -0.4700 C   0  0  0  0  0  0  0  0  0  0  0  0
    8.9500   -0.6760    0.1430 C   0  0  0  0  0  0  0  0  0  0  0  0
  1  2  1  0
  2  3  1  0
  3  4  1  0
  4  5  1  0
  5  6  2  0
  5 47  1  0
  6  7  1  0
  7  8  2  0
  8  9  1  0
  8 45  1  0
  9 10  2  0
  9 43  1  0
 10 11  1  0
 11 12  1  0
 11 13  2  0
 14 13  1  1
 13 42  1  0
 14 15  1  0
 14 18  1  0
 15 16  1  0
 16 17  1  0
 18 17  1  6
 18 19  1  0
 19 20  1  1
 19 41  1  0
 20 21  1  0
 21 22  1  0
 22 23  1  0
 23 24  1  0
 23 40  1  0
 24 25  2  0
 26 24  1  6
 26 27  1  0
 26 39  1  0
 27 28  1  0
 28 29  1  6
 28 37  1  0
 29 30  1  0
 30 31  2  0
 30 35  1  0
 31 32  1  0
 32 33  2  0
 33 34  1  0
 34 35  2  0
 35 36  1  0
 37 38  1  0
 38 39  1  0
 40 41  1  0
 42 43  2  0
 43 44  1  0
 45 46  1  0
 45 47  2  0
M  CHG  2  19   1  39   1
M  END
