
     RDKit          3D

 48 53  0  0  0  0  0  0  0  0999 V2000
    0.9890    2.9340    2.9530 C   0  0  0  0  0  0  0  0  0  0  0  0
    1.2830    2.3570    1.6940 O   0  0  0  0  0  0  0  0  0  0  0  0
    0.4390    1.4320    1.0700 C   0  0  0  0  0  0  0  0  0  0  0  0
   -0.7440    1.0300    1.6620 C   0  0  0  0  0  0  0  0  0  0  0  0
   -1.5970    0.1070    1.0520 C   0  0  0  0  0  0  0  0  0  0  0  0
   -1.3030   -0.4450   -0.1650 C   0  0  0  0  0  0  0  0  0  0  0  0
   -2.1570   -1.3920   -0.8800 C   0  0  0  0  0  0  0  0  0  0  0  0
   -1.6020   -2.6630   -1.0920 C   0  0  0  0  0  0  0  0  0  0  0  0
   -2.3180   -3.6420   -1.7530 C   0  0  0  0  0  0  0  0  0  0  0  0
   -3.5630   -3.3060   -2.1750 C   0  0  0  0  0  0  0  0  0  0  0  0
   -4.1360   -2.0560   -1.9780 C   0  0  0  0  0  0  0  0  0  0  0  0
   -3.4220   -1.0800   -1.3190 C   0  0  0  0  0  0  0  0  0  0  0  0
   -3.9560    0.2480   -1.0910 C   0  0  0  0  0  0  0  0  0  0  0  0
   -5.2910    0.5000   -1.6040 N   0  0  2  0  0  0  0  0  0  0  0  0
   -5.5100    1.9440   -1.7090 C   0  0  0  0  0  0  0  0  0  0  0  0
   -6.9100    2.1540   -2.2200 C   0  0  0  0  0  0  0  0  0  0  0  0
   -7.9280    1.6550   -1.2030 C   0  0  0  0  0  0  0  0  0  0  0  0
   -7.2490    0.7560   -0.1870 C   0  0  1  0  0  0  0  0  0  0  0  0
   -8.3490   -0.0060    0.4850 C   0  0  0  0  0  0  0  0  0  0  0  0
   -9.1200   -0.8220   -0.3080 C   0  0  0  0  0  0  0  0  0  0  0  0
  -10.1530   -1.5490    0.2770 C   0  0  0  0  0  0  0  0  0  0  0  0
  -10.4120   -1.4640    1.6260 C   0  0  0  0  0  0  0  0  0  0  0  0
   -9.6230   -0.6380    2.4000 C   0  0  0  0  0  0  0  0  0  0  0  0
   -8.5830    0.0990    1.8330 C   0  0  0  0  0  0  0  0  0  0  0  0
   -6.3120   -0.2010   -0.9140 C   0  0  0  0  0  0  0  0  0  0  0  0
   -0.1020   -0.0250   -0.7470 C   0  0  0  0  0  0  0  0  0  0  0  0
    0.7460    0.8850   -0.1520 C   0  0  0  0  0  0  0  0  0  0  0  0
    2.0020    1.2520   -0.8590 C   0  0  0  0  0  0  0  0  0  0  0  0
    3.1750    0.5660   -0.3220 C   0  0  0  0  0  0  0  0  0  0  0  0
    3.0550   -0.2070    0.6560 O   0  0  0  0  0  0  0  0  0  0  0  0
    4.4660    0.7430   -0.8760 N   0  0  0  0  0  0  0  0  0  0  0  0
    5.6460    0.1140   -0.4230 C   0  0  0  0  0  0  0  0  0  0  0  0
    5.9380   -1.1300   -0.9970 C   0  0  0  0  0  0  0  0  0  0  0  0
    5.2160   -1.4560   -2.0880 O   0  0  0  0  0  0  0  0  0  0  0  0
    6.8900   -2.0460   -0.5520 C   0  0  0  0  0  0  0  0  0  0  0  0
    6.5850   -3.3430   -0.8840 C   0  0  0  0  0  0  0  0  0  0  0  0
    7.4280   -4.3790   -0.5370 C   0  0  0  0  0  0  0  0  0  0  0  0
    8.5940   -4.0920    0.1560 C   0  0  0  0  0  0  0  0  0  0  0  0
    8.9120   -2.7810    0.4990 C   0  0  0  0  0  0  0  0  0  0  0  0
    8.0450   -1.7790    0.1350 C   0  0  0  0  0  0  0  0  0  0  0  0
    8.5000   -0.5590    0.5770 C   0  0  0  0  0  0  0  0  0  0  0  0
    9.7340   -0.4660    0.7550 O   0  0  0  0  0  0  0  0  0  0  0  0
    7.7270    0.5370    0.8320 N   0  0  0  0  0  0  0  0  0  0  0  0
    8.4080    1.5940    1.5160 C   0  0  0  0  0  0  0  0  0  0  0  0
    8.9910    2.5030    0.4320 C   0  0  0  0  0  0  0  0  0  0  0  0
    9.6760    3.5800    1.1230 N   0  0  0  0  0  0  0  0  0  0  0  0
    6.4210    0.7490    0.5180 C   0  0  0  0  0  0  0  0  0  0  0  0
    5.8480    1.6440    1.1740 O   0  0  0  0  0  0  0  0  0  0  0  0
  1  2  1  0
  2  3  1  0
  3  4  2  0
  3 27  1  0
  4  5  1  0
  5  6  2  0
  6  7  1  0
  6 26  1  0
  7  8  2  0
  7 12  1  0
  8  9  1  0
  9 10  2  0
 10 11  1  0
 11 12  2  0
 12 13  1  0
 14 13  1  1
 14 15  1  0
 14 25  1  0
 15 16  1  0
 16 17  1  0
 17 18  1  0
 18 19  1  6
 18 25  1  0
 19 20  2  0
 19 24  1  0
 20 21  1  0
 21 22  2  0
 22 23  1  0
 23 24  2  0
 26 27  2  0
 27 28  1  0
 28 29  1  0
 29 30  2  0
 29 31  1  0
 31 32  1  0
 32 33  2  0
 32 47  1  0
 33 34  1  0
 33 35  1  0
 35 36  2  0
 35 40  1  0
 36 37  1  0
 37 38  2  0
 38 39  1  0
 39 40  2  0
 40 41  1  0
 41 42  2  0
 41 43  1  0
 43 44  1  0
 43 47  1  0
 44 45  1  0
 45 46  1  0
 47 48  2  0
M  CHG  2  14   1  46   1
M  END
