
     RDKit          3D

 48 53  0  0  0  0  0  0  0  0999 V2000
   -5.2280   -3.4060   -0.5670 C   0  0  0  0  0  0  0  0  0  0  0  0
   -4.5200   -3.4660    0.7890 C   0  0  2  0  0  0  0  0  0  0  0  0
   -3.4390   -4.5230    0.7340 C   0  0  0  0  0  0  0  0  0  0  0  0
   -5.5400   -3.8240    1.8170 C   0  0  0  0  0  0  0  0  0  0  0  0
   -3.9750   -2.1460    1.0150 N   0  0  0  0  0  0  0  0  0  0  0  0
   -3.0330   -1.5320    0.1650 C   0  0  0  0  0  0  0  0  0  0  0  0
   -2.6500   -2.1640   -0.8350 O   0  0  0  0  0  0  0  0  0  0  0  0
   -2.4910   -0.1500    0.4330 C   0  0  2  0  0  0  0  0  0  0  0  0
   -3.6470    0.7550    0.6190 C   0  0  0  0  0  0  0  0  0  0  0  0
   -3.5230    2.0950    0.1560 N   0  0  2  0  0  0  0  0  0  0  0  0
   -4.4700    2.2360   -0.9630 C   0  0  0  0  0  0  0  0  0  0  0  0
   -5.7120    2.8800   -0.5300 C   0  0  0  0  0  0  0  0  0  0  0  0
   -6.8010    3.0880   -1.3480 C   0  0  0  0  0  0  0  0  0  0  0  0
   -7.7500    3.7130   -0.5740 C   0  0  0  0  0  0  0  0  0  0  0  0
   -9.0410    4.1820   -0.7940 C   0  0  0  0  0  0  0  0  0  0  0  0
   -9.7530    4.7800    0.2200 C   0  0  0  0  0  0  0  0  0  0  0  0
   -9.1680    4.9060    1.4550 C   0  0  0  0  0  0  0  0  0  0  0  0
   -7.8760    4.4440    1.7020 C   0  0  0  0  0  0  0  0  0  0  0  0
   -7.1750    3.8470    0.6740 C   0  0  0  0  0  0  0  0  0  0  0  0
   -5.9770    3.3430    0.6510 O   0  0  0  0  0  0  0  0  0  0  0  0
   -2.2290    2.4250   -0.3970 C   0  0  0  0  0  0  0  0  0  0  0  0
   -1.9530    1.3140   -1.4210 C   0  0  0  0  0  0  0  0  0  0  0  0
   -1.5720    0.1640   -0.6110 N   0  0  1  0  0  0  0  0  0  0  0  0
   -0.2530    0.4850   -0.0970 C   0  0  0  0  0  0  0  0  0  0  0  0
    0.6920   -0.7210   -0.2250 C   0  0  1  0  0  0  0  0  0  0  0  0
    0.7440   -1.0130   -1.6090 O   0  0  0  0  0  0  0  0  0  0  0  0
    2.0670   -0.3650    0.2190 C   0  0  0  0  0  0  0  0  0  0  0  0
    3.0880   -1.4510    0.1650 C   0  0  1  0  0  0  0  0  0  0  0  0
    3.3300   -2.0310   -1.1780 C   0  0  0  0  0  0  0  0  0  0  0  0
    4.3580   -3.1110   -1.1620 C   0  0  0  0  0  0  0  0  0  0  0  0
    3.9690   -4.4330   -0.9320 C   0  0  0  0  0  0  0  0  0  0  0  0
    4.8860   -5.4600   -0.9130 C   0  0  0  0  0  0  0  0  0  0  0  0
    6.2430   -5.2150   -1.1220 C   0  0  0  0  0  0  0  0  0  0  0  0
    6.6330   -3.9150   -1.3490 C   0  0  0  0  0  0  0  0  0  0  0  0
    5.6970   -2.8960   -1.3650 C   0  0  0  0  0  0  0  0  0  0  0  0
    4.3240   -0.9580    0.8420 C   0  0  0  0  0  0  0  0  0  0  0  0
    4.8530   -1.6420    1.7350 O   0  0  0  0  0  0  0  0  0  0  0  0
    4.9450    0.2950    0.5080 N   0  0  0  0  0  0  0  0  0  0  0  0
    6.1290    0.7850    1.1540 C   0  0  1  0  0  0  0  0  0  0  0  0
    7.1800    1.3000    0.3060 C   0  0  0  0  0  0  0  0  0  0  0  0
    7.6760    0.9900   -0.9350 C   0  0  0  0  0  0  0  0  0  0  0  0
    8.7220    1.6710   -1.5150 C   0  0  0  0  0  0  0  0  0  0  0  0
    9.3270    2.7120   -0.8630 C   0  0  0  0  0  0  0  0  0  0  0  0
    8.8620    3.0620    0.3910 C   0  0  0  0  0  0  0  0  0  0  0  0
    7.8140    2.3660    0.9500 C   0  0  0  0  0  0  0  0  0  0  0  0
    7.1610    2.5800    2.2710 C   0  0  0  0  0  0  0  0  0  0  0  0
    5.8150    1.8960    2.1430 C   0  0  1  0  0  0  0  0  0  0  0  0
    4.8360    2.7500    1.7130 O   0  0  0  0  0  0  0  0  0  0  0  0
  2  1  1  6
  2  3  1  0
  2  4  1  0
  2  5  1  0
  5  6  1  0
  6  7  2  0
  8  6  1  6
  8  9  1  0
  8 23  1  0
  9 10  1  0
 10 11  1  6
 10 21  1  0
 11 12  1  0
 12 13  2  0
 12 20  1  0
 13 14  1  0
 14 15  2  0
 14 19  1  0
 15 16  1  0
 16 17  2  0
 17 18  1  0
 18 19  2  0
 19 20  1  0
 21 22  1  0
 22 23  1  0
 23 24  1  1
 24 25  1  0
 25 26  1  6
 25 27  1  0
 28 27  1  6
 28 29  1  0
 28 36  1  0
 29 30  1  0
 30 31  2  0
 30 35  1  0
 31 32  1  0
 32 33  2  0
 33 34  1  0
 34 35  2  0
 36 37  2  0
 36 38  1  0
 39 38  1  6
 39 40  1  0
 39 47  1  0
 40 41  2  0
 40 45  1  0
 41 42  1  0
 42 43  2  0
 43 44  1  0
 44 45  2  0
 45 46  1  0
 46 47  1  0
 47 48  1  6
M  CHG  2  10   1  23   1
M  END
