
     RDKit          3D

 47 52  0  0  0  0  0  0  0  0999 V2000
   -5.3550    5.0390   -1.1820 C   0  0  0  0  0  0  0  0  0  0  0  0
   -5.7990    3.8470   -2.0190 C   0  0  2  0  0  0  0  0  0  0  0  0
   -7.2260    3.5090   -1.7960 C   0  0  0  0  0  0  0  0  0  0  0  0
   -4.7990    2.7720   -2.0840 C   0  0  0  0  0  0  0  0  0  0  0  0
   -4.3330    2.1310   -0.8290 C   0  0  0  0  0  0  0  0  0  0  0  0
   -5.2980    1.3990   -0.0240 C   0  0  0  0  0  0  0  0  0  0  0  0
   -6.3830    1.0150   -0.5070 O   0  0  0  0  0  0  0  0  0  0  0  0
   -5.0460    1.0920    1.3330 N   0  0  0  0  0  0  0  0  0  0  0  0
   -3.8010    1.4630    1.9380 C   0  0  0  0  0  0  0  0  0  0  0  0
   -2.7840    0.4380    1.6850 C   0  0  0  0  0  0  0  0  0  0  0  0
   -1.7800    0.4060    2.4760 O   0  0  0  0  0  0  0  0  0  0  0  0
   -2.8540   -0.4750    0.6490 O   0  0  0  0  0  0  0  0  0  0  0  0
   -1.8280   -1.3980    0.5140 C   0  0  0  0  0  0  0  0  0  0  0  0
   -2.0960   -2.7590    0.5570 C   0  0  0  0  0  0  0  0  0  0  0  0
   -1.0750   -3.6830    0.4240 C   0  0  0  0  0  0  0  0  0  0  0  0
    0.2360   -3.3160    0.2460 C   0  0  0  0  0  0  0  0  0  0  0  0
    0.4990   -1.9540    0.2050 C   0  0  0  0  0  0  0  0  0  0  0  0
   -0.4970   -1.0320    0.3340 C   0  0  0  0  0  0  0  0  0  0  0  0
    1.9090   -1.5620    0.0340 C   0  0  0  0  0  0  0  0  0  0  0  0
    2.1210   -0.4760   -0.5580 O   0  0  0  0  0  0  0  0  0  0  0  0
    3.0150   -2.3830    0.5230 C   0  0  2  0  0  0  0  0  0  0  0  0
    3.4500   -1.9890    1.8290 O   0  0  0  0  0  0  0  0  0  0  0  0
    4.2480   -2.2560   -0.3790 C   0  0  0  0  0  0  0  0  0  0  0  0
    4.8340   -0.9630   -0.3910 N   0  0  0  0  0  0  0  0  0  0  0  0
    5.1900   -0.5740   -1.7450 C   0  0  2  0  0  0  0  0  0  0  0  0
    5.5960   -1.7740   -2.5100 C   0  0  0  0  0  0  0  0  0  0  0  0
    6.7650   -1.6050   -3.4410 C   0  0  0  0  0  0  0  0  0  0  0  0
    6.8180   -0.1790   -4.0030 C   0  0  0  0  0  0  0  0  0  0  0  0
    7.0130    0.6750   -2.7720 C   0  0  0  0  0  0  0  0  0  0  0  0
    6.2450    0.4770   -1.7280 C   0  0  0  0  0  0  0  0  0  0  0  0
    6.3870    1.2510   -0.5310 N   0  0  0  0  0  0  0  0  0  0  0  0
    7.3930    2.2520   -0.5030 C   0  0  0  0  0  0  0  0  0  0  0  0
    7.5680    3.0310    0.6500 C   0  0  0  0  0  0  0  0  0  0  0  0
    8.5360    4.0030    0.7060 C   0  0  0  0  0  0  0  0  0  0  0  0
    9.3600    4.2280   -0.3900 C   0  0  0  0  0  0  0  0  0  0  0  0
    9.1750    3.4560   -1.5130 C   0  0  0  0  0  0  0  0  0  0  0  0
    8.2080    2.4730   -1.5910 C   0  0  0  0  0  0  0  0  0  0  0  0
    8.0830    1.7010   -2.8330 C   0  0  0  0  0  0  0  0  0  0  0  0
    2.6370   -3.8220    0.6710 C   0  0  0  0  0  0  0  0  0  0  0  0
    1.3590   -4.2780    0.0790 C   0  0  0  0  0  0  0  0  0  0  0  0
   -6.0570    0.4710    2.1450 C   0  0  0  0  0  0  0  0  0  0  0  0
   -6.0420   -1.0200    2.2220 C   0  0  2  0  0  0  0  0  0  0  0  0
   -6.1710   -1.7050    0.9010 C   0  0  0  0  0  0  0  0  0  0  0  0
   -7.3300   -1.4040    3.0300 C   0  0  0  0  0  0  0  0  0  0  0  0
   -6.9290   -2.7670    3.5360 C   0  0  0  0  0  0  0  0  0  0  0  0
   -5.5040   -2.4960    3.9660 C   0  0  0  0  0  0  0  0  0  0  0  0
   -4.9800   -1.5340    3.0130 N   0  0  0  0  0  0  0  0  0  0  0  0
  2  1  1  1
  2  3  1  0
  2  4  1  0
  4  5  1  0
  5  6  1  0
  6  7  2  0
  6  8  1  0
  8  9  1  0
  8 41  1  0
  9 10  1  0
 10 11  2  0
 10 12  1  0
 12 13  1  0
 13 14  2  0
 13 18  1  0
 14 15  1  0
 15 16  2  0
 16 17  1  0
 16 40  1  0
 17 18  2  0
 17 19  1  0
 19 20  2  0
 19 21  1  0
 21 22  1  1
 21 23  1  0
 21 39  1  0
 23 24  1  0
 25 24  1  1
 25 26  1  0
 25 30  1  0
 26 27  1  0
 27 28  1  0
 28 29  1  0
 29 30  2  0
 29 38  1  0
 30 31  1  0
 31 32  1  0
 32 33  2  0
 32 37  1  0
 33 34  1  0
 34 35  2  0
 35 36  1  0
 36 37  2  0
 37 38  1  0
 39 40  1  0
 41 42  1  0
 42 43  1  6
 42 44  1  0
 42 47  1  0
 44 45  1  0
 45 46  1  0
 46 47  1  0
M  CHG  2  24   1  47   1
M  END
