
     RDKit          3D

 48 53  0  0  0  0  0  0  0  0999 V2000
    7.1690    3.1440   -2.7170 C   0  0  0  0  0  0  0  0  0  0  0  0
    6.5480    2.3280   -1.6440 C   0  0  1  0  0  0  0  0  0  0  0  0
    7.1810    1.0570   -1.3270 C   0  0  0  0  0  0  0  0  0  0  0  0
    6.5030   -0.0120   -1.4260 O   0  0  0  0  0  0  0  0  0  0  0  0
    8.5620    0.9230   -0.8930 C   0  0  0  0  0  0  0  0  0  0  0  0
    9.3680    2.0330   -0.7940 C   0  0  0  0  0  0  0  0  0  0  0  0
   10.6720    1.8780   -0.3630 C   0  0  0  0  0  0  0  0  0  0  0  0
   11.1470    0.6360   -0.0410 C   0  0  0  0  0  0  0  0  0  0  0  0
   10.3400   -0.4970   -0.1370 C   0  0  0  0  0  0  0  0  0  0  0  0
   10.8700   -1.8490    0.2250 C   0  0  0  0  0  0  0  0  0  0  0  0
   12.2550   -1.7430    0.6310 N   0  0  0  0  0  0  0  0  0  0  0  0
    9.0530   -0.3480   -0.5620 C   0  0  0  0  0  0  0  0  0  0  0  0
    6.2340    3.1390   -0.3750 C   0  0  0  0  0  0  0  0  0  0  0  0
    5.1360    2.3040    0.2000 C   0  0  0  0  0  0  0  0  0  0  0  0
    4.6640    2.0700    1.4690 C   0  0  0  0  0  0  0  0  0  0  0  0
    3.6030    1.2280    1.6500 C   0  0  0  0  0  0  0  0  0  0  0  0
    2.9380    0.5650    0.6200 C   0  0  0  0  0  0  0  0  0  0  0  0
    1.8750   -0.2920    0.9550 N   0  0  0  0  0  0  0  0  0  0  0  0
    0.8780   -0.7740    0.0710 C   0  0  0  0  0  0  0  0  0  0  0  0
    0.9290   -0.4010   -1.1270 O   0  0  0  0  0  0  0  0  0  0  0  0
   -0.1990   -1.6910    0.5230 C   0  0  0  0  0  0  0  0  0  0  0  0
   -1.3500   -1.8460   -0.3870 C   0  0  0  0  0  0  0  0  0  0  0  0
   -2.1370   -0.6440   -0.5590 N   0  0  1  0  0  0  0  0  0  0  0  0
   -1.9060    0.1070   -1.7290 C   0  0  0  0  0  0  0  0  0  0  0  0
   -3.1980    0.7050   -2.1880 C   0  0  0  0  0  0  0  0  0  0  0  0
   -4.2480   -0.0650   -1.4470 C   0  0  0  0  0  0  0  0  0  0  0  0
   -3.5290   -1.0770   -0.6290 C   0  0  2  0  0  0  0  0  0  0  0  0
   -4.0500   -1.1980    0.7740 C   0  0  0  0  0  0  0  0  0  0  0  0
   -5.3970   -1.6230    0.7700 O   0  0  0  0  0  0  0  0  0  0  0  0
   -6.0560   -1.8100    1.9670 C   0  0  0  0  0  0  0  0  0  0  0  0
   -5.4060   -1.5850    3.1740 C   0  0  0  0  0  0  0  0  0  0  0  0
   -6.0170   -1.7610    4.3930 C   0  0  0  0  0  0  0  0  0  0  0  0
   -7.3230   -2.1760    4.3910 C   0  0  0  0  0  0  0  0  0  0  0  0
   -7.9980   -2.4080    3.2010 C   0  0  0  0  0  0  0  0  0  0  0  0
   -7.3540   -2.2220    1.9840 C   0  0  0  0  0  0  0  0  0  0  0  0
   -8.1120   -2.4610    0.7440 C   0  0  0  0  0  0  0  0  0  0  0  0
   -8.5850   -1.2030    0.1470 C   0  0  0  0  0  0  0  0  0  0  0  0
   -7.9080   -0.6000   -0.8720 C   0  0  0  0  0  0  0  0  0  0  0  0
   -8.3480    0.5960   -1.4360 C   0  0  0  0  0  0  0  0  0  0  0  0
   -9.4810    1.2090   -0.9820 C   0  0  0  0  0  0  0  0  0  0  0  0
   -9.9470    2.4570   -1.5670 C   0  0  0  0  0  0  0  0  0  0  0  0
  -11.1450    3.0240   -1.0920 N   0  0  0  0  0  0  0  0  0  0  0  0
   -9.2790    2.9950   -2.4710 O   0  0  0  0  0  0  0  0  0  0  0  0
  -10.1780    0.5940    0.0620 C   0  0  0  0  0  0  0  0  0  0  0  0
   -9.7280   -0.5850    0.6050 C   0  0  0  0  0  0  0  0  0  0  0  0
    3.4250    0.8100   -0.6440 C   0  0  0  0  0  0  0  0  0  0  0  0
    4.5150    1.6730   -0.8420 C   0  0  0  0  0  0  0  0  0  0  0  0
    5.1710    2.0620   -2.0300 O   0  0  0  0  0  0  0  0  0  0  0  0
  2  1  1  6
  2  3  1  0
  2 13  1  0
  2 48  1  0
  3  4  2  0
  3  5  1  0
  5  6  2  0
  5 12  1  0
  6  7  1  0
  7  8  2  0
  8  9  1  0
  9 10  1  0
  9 12  2  0
 10 11  1  0
 13 14  1  0
 14 15  2  0
 14 47  1  0
 15 16  1  0
 16 17  2  0
 17 18  1  0
 17 46  1  0
 18 19  1  0
 19 20  2  0
 19 21  1  0
 21 22  1  0
 23 22  1  6
 23 24  1  0
 23 27  1  0
 24 25  1  0
 25 26  1  0
 26 27  1  0
 27 28  1  1
 28 29  1  0
 29 30  1  0
 30 31  2  0
 30 35  1  0
 31 32  1  0
 32 33  2  0
 33 34  1  0
 34 35  2  0
 35 36  1  0
 36 37  1  0
 37 38  2  0
 37 45  1  0
 38 39  1  0
 39 40  2  0
 40 41  1  0
 40 44  1  0
 41 42  1  0
 41 43  2  0
 44 45  2  0
 46 47  2  0
 47 48  1  0
M  CHG  2  11   1  23   1
M  END
