
     RDKit          3D

 47 51  0  0  0  0  0  0  0  0999 V2000
    2.3870   -0.0840    1.7840 C   0  0  0  0  0  0  0  0  0  0  0  0
    3.4360    0.6800    1.9530 C   0  0  0  0  0  0  0  0  0  0  0  0
    3.2400    2.0320    2.5980 C   0  0  0  0  0  0  0  0  0  0  0  0
    4.2840    2.4620    3.3930 O   0  0  0  0  0  0  0  0  0  0  0  0
    5.4620    1.9280    3.8360 C   0  0  0  0  0  0  0  0  0  0  0  0
    5.9420    2.6130    4.9550 C   0  0  0  0  0  0  0  0  0  0  0  0
    7.1150    2.2510    5.5710 C   0  0  0  0  0  0  0  0  0  0  0  0
    7.8500    1.1970    5.0960 C   0  0  0  0  0  0  0  0  0  0  0  0
    7.3700    0.5060    3.9700 C   0  0  0  0  0  0  0  0  0  0  0  0
    6.2160    0.8660    3.3700 C   0  0  0  0  0  0  0  0  0  0  0  0
    5.8720    0.0810    2.2610 O   0  0  0  0  0  0  0  0  0  0  0  0
    4.6910    0.1550    1.4800 C   0  0  0  0  0  0  0  0  0  0  0  0
    4.8250   -0.3010    0.2480 C   0  0  0  0  0  0  0  0  0  0  0  0
    3.8180   -0.3550   -0.7780 C   0  0  0  0  0  0  0  0  0  0  0  0
    4.1760   -0.8250   -1.9990 C   0  0  0  0  0  0  0  0  0  0  0  0
    5.4960   -1.2760   -2.3840 C   0  0  0  0  0  0  0  0  0  0  0  0
    6.5450   -1.4120   -1.6680 O   0  0  0  0  0  0  0  0  0  0  0  0
    5.4510   -1.5670   -3.7790 N   0  0  0  0  0  0  0  0  0  0  0  0
    6.5990   -2.0570   -4.5500 C   0  0  0  0  0  0  0  0  0  0  0  0
    4.1760   -1.3260   -4.2930 C   0  0  0  0  0  0  0  0  0  0  0  0
    3.7620   -1.4660   -5.4810 O   0  0  0  0  0  0  0  0  0  0  0  0
    3.2950   -0.8430   -3.1550 C   0  0  0  0  0  0  0  0  0  0  0  0
    2.0240   -0.7430   -3.2970 C   0  0  0  0  0  0  0  0  0  0  0  0
    0.8540   -0.5880   -2.4250 C   0  0  0  0  0  0  0  0  0  0  0  0
    0.0160   -1.7470   -2.7430 N   0  0  1  0  0  0  0  0  0  0  0  0
    1.0260   -2.8380   -2.8920 C   0  0  0  0  0  0  0  0  0  0  0  0
    0.3760   -4.1950   -3.0220 C   0  0  0  0  0  0  0  0  0  0  0  0
   -0.9750   -4.0290   -3.7020 C   0  0  0  0  0  0  0  0  0  0  0  0
   -1.8620   -3.1270   -2.9180 C   0  0  0  0  0  0  0  0  0  0  0  0
   -0.9810   -2.2240   -1.9470 C   0  0  2  0  0  0  0  0  0  0  0  0
   -2.0080   -1.4280   -1.2530 C   0  0  0  0  0  0  0  0  0  0  0  0
   -1.4660   -0.4590   -0.2460 C   0  0  2  0  0  0  0  0  0  0  0  0
   -0.6940   -1.2960    0.7750 C   0  0  0  0  0  0  0  0  0  0  0  0
   -2.5840    0.0930    0.5460 N   0  0  0  0  0  0  0  0  0  0  0  0
   -3.6270    0.8980    0.0460 C   0  0  0  0  0  0  0  0  0  0  0  0
   -3.6740    1.4770   -1.1940 C   0  0  0  0  0  0  0  0  0  0  0  0
   -4.7310    2.2710   -1.6450 C   0  0  0  0  0  0  0  0  0  0  0  0
   -4.7400    2.8900   -2.9740 C   0  0  0  0  0  0  0  0  0  0  0  0
   -5.7910    2.4850   -0.7940 C   0  0  0  0  0  0  0  0  0  0  0  0
   -7.0060    3.2920   -1.1630 C   0  0  0  0  0  0  0  0  0  0  0  0
   -5.7970    1.9360    0.4500 C   0  0  0  0  0  0  0  0  0  0  0  0
   -4.7540    1.1560    0.8910 C   0  0  0  0  0  0  0  0  0  0  0  0
   -4.7470    0.6280    2.0740 O   0  0  0  0  0  0  0  0  0  0  0  0
   -4.8410    0.1500    3.2720 C   0  0  0  0  0  0  0  0  0  0  0  0
   -5.0070    1.1740    4.4200 C   0  0  0  0  0  0  0  0  0  0  0  0
   -6.2130    1.9230    4.1930 N   0  0  0  0  0  0  0  0  0  0  0  0
   -5.9560    3.3260    3.8420 C   0  0  0  0  0  0  0  0  0  0  0  0
  1  2  2  0
  2  3  1  0
  2 12  1  0
  3  4  1  0
  4  5  1  0
  5  6  2  0
  5 10  1  0
  6  7  1  0
  7  8  2  0
  8  9  1  0
  9 10  2  0
 10 11  1  0
 11 12  1  0
 12 13  2  3
 13 14  1  0
 14 15  2  3
 15 16  1  0
 15 22  1  0
 16 17  2  0
 16 18  1  0
 18 19  1  0
 18 20  1  0
 20 21  2  0
 20 22  1  0
 22 23  2  3
 23 24  1  0
 25 24  1  1
 25 26  1  0
 25 30  1  0
 26 27  1  0
 27 28  1  0
 28 29  1  0
 29 30  1  0
 30 31  1  6
 31 32  1  0
 32 33  1  1
 32 34  1  0
 34 35  1  0
 35 36  2  0
 35 42  1  0
 36 37  1  0
 37 38  1  0
 37 39  2  0
 39 40  1  0
 39 41  1  0
 41 42  2  0
 42 43  1  0
 43 44  1  0
 44 45  1  0
 45 46  1  0
 46 47  1  0
M  CHG  2  25   1  46   1
M  END
