
     RDKit          3D

 48 53  0  0  0  0  0  0  0  0999 V2000
   -8.3290   -1.8070   -0.0680 C   0  0  0  0  0  0  0  0  0  0  0  0
   -7.0550   -1.4920    0.4080 O   0  0  0  0  0  0  0  0  0  0  0  0
   -6.6200   -0.1920    0.6640 C   0  0  0  0  0  0  0  0  0  0  0  0
   -7.4690    0.8740    0.4460 C   0  0  0  0  0  0  0  0  0  0  0  0
   -7.0520    2.1640    0.6960 C   0  0  0  0  0  0  0  0  0  0  0  0
   -5.7690    2.3380    1.1660 C   0  0  0  0  0  0  0  0  0  0  0  0
   -4.9190    1.2750    1.3850 C   0  0  0  0  0  0  0  0  0  0  0  0
   -5.3130   -0.0330    1.1420 C   0  0  0  0  0  0  0  0  0  0  0  0
   -4.5340   -1.1350    1.3320 O   0  0  0  0  0  0  0  0  0  0  0  0
   -4.2780   -2.0800    0.3500 C   0  0  0  0  0  0  0  0  0  0  0  0
   -4.7480   -3.3870    0.5820 C   0  0  0  0  0  0  0  0  0  0  0  0
   -4.5260   -4.3420   -0.3400 C   0  0  0  0  0  0  0  0  0  0  0  0
   -3.8540   -4.1200   -1.5210 C   0  0  0  0  0  0  0  0  0  0  0  0
   -3.3990   -2.8460   -1.7390 C   0  0  0  0  0  0  0  0  0  0  0  0
   -3.6000   -1.7940   -0.8080 C   0  0  0  0  0  0  0  0  0  0  0  0
   -3.0290   -0.4690   -1.1470 C   0  0  2  0  0  0  0  0  0  0  0  0
   -2.8040   -0.3920   -2.6740 C   0  0  0  0  0  0  0  0  0  0  0  0
   -2.7230    0.9380   -3.1630 N   0  0  0  0  0  0  0  0  0  0  0  0
   -2.9320    1.9940   -2.2120 C   0  0  0  0  0  0  0  0  0  0  0  0
   -1.7550    2.2680   -1.3500 C   0  0  1  0  0  0  0  0  0  0  0  0
   -2.1710    3.1390   -0.2360 C   0  0  0  0  0  0  0  0  0  0  0  0
   -2.9560    4.2760   -0.5040 N   0  0  0  0  0  0  0  0  0  0  0  0
   -1.8410    2.8930    0.9410 O   0  0  0  0  0  0  0  0  0  0  0  0
   -1.0350    1.0890   -0.7860 C   0  0  0  0  0  0  0  0  0  0  0  0
   -1.7360   -0.1390   -0.6100 N   0  0  0  0  0  0  0  0  0  0  0  0
   -1.0470   -1.0830    0.1420 C   0  0  0  0  0  0  0  0  0  0  0  0
   -1.7720   -2.1920    0.3000 O   0  0  0  0  0  0  0  0  0  0  0  0
    0.1900   -1.2450    0.8030 C   0  0  0  0  0  0  0  0  0  0  0  0
    1.3370   -0.4980    0.6650 O   0  0  0  0  0  0  0  0  0  0  0  0
    2.4400   -0.9050    1.4550 C   0  0  0  0  0  0  0  0  0  0  0  0
    2.2550   -1.9750    2.3180 C   0  0  0  0  0  0  0  0  0  0  0  0
    3.2750   -2.4530    3.1450 C   0  0  0  0  0  0  0  0  0  0  0  0
    4.4960   -1.8540    3.1080 C   0  0  0  0  0  0  0  0  0  0  0  0
    4.6860   -0.7850    2.2450 C   0  0  0  0  0  0  0  0  0  0  0  0
    3.6690   -0.3150    1.4290 C   0  0  0  0  0  0  0  0  0  0  0  0
    4.2350    0.8180    0.6760 C   0  0  0  0  0  0  0  0  0  0  0  0
    3.6920    1.6740   -0.2530 C   0  0  0  0  0  0  0  0  0  0  0  0
    2.2990    1.5660   -0.7360 C   0  0  0  0  0  0  0  0  0  0  0  0
    4.4960    2.6930   -0.7730 C   0  0  0  0  0  0  0  0  0  0  0  0
    5.7980    2.8680   -0.3940 C   0  0  0  0  0  0  0  0  0  0  0  0
    6.6610    3.9410   -0.9380 C   0  0  0  0  0  0  0  0  0  0  0  0
    6.3370    2.0170    0.5270 C   0  0  0  0  0  0  0  0  0  0  0  0
    5.5570    0.9840    1.0670 C   0  0  0  0  0  0  0  0  0  0  0  0
    5.9500   -0.0640    2.0350 C   0  0  2  0  0  0  0  0  0  0  0  0
    6.9110   -0.9590    1.2580 C   0  0  0  0  0  0  0  0  0  0  0  0
    8.2990   -0.5610    0.9520 C   0  0  0  0  0  0  0  0  0  0  0  0
    6.4860   -2.1320    0.8210 C   0  0  0  0  0  0  0  0  0  0  0  0
    7.3330   -3.0140    0.0920 N   0  0  0  0  0  0  0  0  0  0  0  0
  1  2  1  0
  2  3  1  0
  3  4  2  0
  3  8  1  0
  4  5  1  0
  5  6  2  0
  6  7  1  0
  7  8  2  0
  8  9  1  0
  9 10  1  0
 10 11  2  0
 10 15  1  0
 11 12  1  0
 12 13  2  0
 13 14  1  0
 14 15  2  0
 16 15  1  6
 16 17  1  0
 16 25  1  0
 17 18  1  0
 18 19  1  0
 19 20  1  0
 20 21  1  1
 20 24  1  0
 21 22  1  0
 21 23  2  0
 24 25  1  0
 25 26  1  0
 26 27  2  0
 26 28  1  0
 28 29  1  0
 29 30  1  0
 30 31  2  0
 30 35  1  0
 31 32  1  0
 32 33  2  0
 33 34  1  0
 34 35  2  0
 34 44  1  0
 35 36  1  0
 36 37  2  0
 36 43  1  0
 37 38  1  0
 37 39  1  0
 39 40  2  0
 40 41  1  0
 40 42  1  0
 42 43  2  0
 43 44  1  0
 44 45  1  6
 45 46  1  0
 45 47  2  3
 47 48  1  0
M  CHG  2  18   1  48   1
M  END
