
     RDKit          3D

 24 25  0  0  0  0  0  0  0  0999 V2000
   -5.6260   -1.3730    1.5080 C   0  0  0  0  0  0  0  0  0  0  0  0
   -5.8030   -0.3750    0.3970 C   0  0  2  0  0  0  0  0  0  0  0  0
   -6.5180   -1.0330   -0.7620 C   0  0  0  0  0  0  0  0  0  0  0  0
   -4.4260    0.0480   -0.0690 C   0  0  0  0  0  0  0  0  0  0  0  0
   -3.6230    0.6790    1.0310 C   0  0  0  0  0  0  0  0  0  0  0  0
   -2.3310    1.0450    0.4830 N   0  0  0  0  0  0  0  0  0  0  0  0
   -1.2920    0.2270    0.4920 N   0  0  0  0  0  0  0  0  0  0  0  0
   -0.1120    0.6100   -0.0290 C   0  0  0  0  0  0  0  0  0  0  0  0
    1.0060   -0.3460    0.0120 C   0  0  0  0  0  0  0  0  0  0  0  0
    2.2730    0.1920   -0.5980 C   0  0  0  0  0  0  0  0  0  0  0  0
    3.3230   -0.8510   -0.5020 C   0  0  0  0  0  0  0  0  0  0  0  0
    4.4610   -0.7300    0.1360 C   0  0  0  0  0  0  0  0  0  0  0  0
    4.8530    0.4770    0.8520 C   0  0  0  0  0  0  0  0  0  0  0  0
    6.1250    0.8280    0.9280 C   0  0  0  0  0  0  0  0  0  0  0  0
    7.3480   -0.1620    0.1630 S   0  0  1  0  0  0  0  0  0  0  0  0
    8.0620    0.6550   -0.8930 O   0  0  0  0  0  0  0  0  0  0  0  0
    8.3440   -0.6570    1.1410 O   0  0  0  0  0  0  0  0  0  0  0  0
    6.5550   -1.4560   -0.6830 N   0  0  0  0  0  0  0  0  0  0  0  0
    5.4290   -1.8700    0.1450 C   0  0  0  0  0  0  0  0  0  0  0  0
    0.0600    1.8230   -0.5730 N   0  0  0  0  0  0  0  0  0  0  0  0
   -0.9880    2.6670   -0.5900 C   0  0  0  0  0  0  0  0  0  0  0  0
   -0.8190    3.8090   -1.1040 O   0  0  0  0  0  0  0  0  0  0  0  0
   -2.1820    2.2800   -0.0630 C   0  0  0  0  0  0  0  0  0  0  0  0
   -3.1810    3.0700   -0.0740 O   0  0  0  0  0  0  0  0  0  0  0  0
  2  1  1  1
  2  3  1  0
  2  4  1  0
  4  5  1  0
  5  6  1  0
  6  7  1  0
  6 23  1  0
  7  8  2  0
  8  9  1  0
  8 20  1  0
  9 10  1  0
 10 11  1  0
 11 12  2  3
 12 13  1  0
 12 19  1  0
 13 14  2  0
 14 15  1  0
 15 16  2  0
 15 17  2  0
 15 18  1  6
 18 19  1  0
 20 21  1  0
 21 22  2  0
 21 23  1  0
 23 24  2  0
M  END
