
     RDKit          3D

 23 24  0  0  0  0  0  0  0  0999 V2000
   -4.0340   -0.7740   -0.8150 C   0  0  0  0  0  0  0  0  0  0  0  0
   -3.6350    0.5010   -0.5870 O   0  0  0  0  0  0  0  0  0  0  0  0
   -2.8340    1.0810   -1.5050 C   0  0  1  0  0  0  0  0  0  0  0  0
   -1.5490    0.4320   -1.7940 C   0  0  0  0  0  0  0  0  0  0  0  0
   -0.6450    0.2690   -0.6770 C   0  0  0  0  0  0  0  0  0  0  0  0
   -0.6620    0.5140    0.5800 C   0  0  0  0  0  0  0  0  0  0  0  0
   -1.6990    1.0910    1.3560 C   0  0  0  0  0  0  0  0  0  0  0  0
   -2.5560    1.5510    2.0010 N   0  0  0  0  0  0  0  0  0  0  0  0
    0.5820    0.1460    1.3430 C   0  0  0  0  0  0  0  0  0  0  0  0
    1.6290   -0.4000    0.7370 N   0  0  0  0  0  0  0  0  0  0  0  0
    2.7350   -0.7130    1.4710 C   0  0  0  0  0  0  0  0  0  0  0  0
    3.8920   -1.3190    0.7960 C   0  0  0  0  0  0  0  0  0  0  0  0
    4.9860   -1.5640    1.8280 C   0  0  0  0  0  0  0  0  0  0  0  0
    6.1560   -2.1860    1.1010 C   0  0  0  0  0  0  0  0  0  0  0  0
    6.5950   -1.3150    0.1130 O   0  0  0  0  0  0  0  0  0  0  0  0
    2.7570   -0.4680    2.7910 N   0  0  0  0  0  0  0  0  0  0  0  0
    1.7470    0.0680    3.4240 N   0  0  0  0  0  0  0  0  0  0  0  0
    0.6590    0.3740    2.6950 C   0  0  0  0  0  0  0  0  0  0  0  0
   -0.3130    0.8920    3.3120 O   0  0  0  0  0  0  0  0  0  0  0  0
   -3.7020    1.1110   -2.8220 C   0  0  0  0  0  0  0  0  0  0  0  0
   -4.7530    2.0650   -2.3060 C   0  0  0  0  0  0  0  0  0  0  0  0
   -4.0760    3.0390   -1.5730 O   0  0  0  0  0  0  0  0  0  0  0  0
   -2.7680    2.6020   -1.3830 C   0  0  0  0  0  0  0  0  0  0  0  0
  1  2  1  0
  2  3  1  0
  3  4  1  6
  3 20  1  0
  3 23  1  0
  4  5  1  0
  5  6  2  3
  6  7  1  0
  6  9  1  0
  7  8  3  0
  9 10  2  0
  9 18  1  0
 10 11  1  0
 11 12  1  0
 11 16  2  0
 12 13  1  0
 13 14  1  0
 14 15  1  0
 16 17  1  0
 17 18  1  0
 18 19  2  0
 20 21  1  0
 21 22  1  0
 22 23  1  0
M  END
