
     RDKit          3D

 24 25  0  0  0  0  0  0  0  0999 V2000
   -1.7330    3.6630   -0.0410 C   0  0  0  0  0  0  0  0  0  0  0  0
   -2.1810    2.5510   -0.9320 C   0  0  0  0  0  0  0  0  0  0  0  0
   -2.5020    1.2920   -0.3370 N   0  0  0  0  0  0  0  0  0  0  0  0
   -3.6160    1.3040    0.6130 C   0  0  0  0  0  0  0  0  0  0  0  0
   -4.5810    0.2200    0.2360 C   0  0  0  0  0  0  0  0  0  0  0  0
   -4.2520   -1.1010    0.5820 N   0  0  0  0  0  0  0  0  0  0  0  0
   -5.4200   -1.9240    0.5220 C   0  0  0  0  0  0  0  0  0  0  0  0
   -3.1150   -1.7160    0.0030 C   0  0  0  0  0  0  0  0  0  0  0  0
   -2.6520   -1.1100   -1.3140 C   0  0  2  0  0  0  0  0  0  0  0  0
   -1.7920   -1.9330   -1.9860 O   0  0  0  0  0  0  0  0  0  0  0  0
   -1.8900    0.1200   -0.8110 C   0  0  0  0  0  0  0  0  0  0  0  0
   -0.6470   -0.0320   -0.7070 N   0  0  0  0  0  0  0  0  0  0  0  0
    0.5790    0.8840   -0.0830 S   0  0  1  0  0  0  0  0  0  0  0  0
    1.0550    1.9500   -1.0720 O   0  0  0  0  0  0  0  0  0  0  0  0
    0.2300    1.6740    1.1790 O   0  0  0  0  0  0  0  0  0  0  0  0
    1.9870   -0.0370    0.4580 C   0  0  0  0  0  0  0  0  0  0  0  0
    2.2660   -0.4290    1.7600 C   0  0  0  0  0  0  0  0  0  0  0  0
    3.4670   -1.0070    1.8250 N   0  0  0  0  0  0  0  0  0  0  0  0
    4.0000   -1.0050    0.6040 C   0  0  0  0  0  0  0  0  0  0  0  0
    5.3460   -1.5460    0.1550 C   0  0  0  0  0  0  0  0  0  0  0  0
    6.2650   -0.6160    0.7710 O   0  0  0  0  0  0  0  0  0  0  0  0
    7.5420   -0.7180    0.3350 C   0  0  0  0  0  0  0  0  0  0  0  0
    3.0880   -0.4200   -0.2640 C   0  0  0  0  0  0  0  0  0  0  0  0
    3.3750   -0.1930   -1.6930 C   0  0  0  0  0  0  0  0  0  0  0  0
  1  2  1  0
  2  3  1  0
  3  4  1  0
  3 11  1  0
  4  5  1  0
  5  6  1  0
  6  7  1  0
  6  8  1  0
  8  9  1  0
  9 10  1  1
  9 11  1  0
 11 12  2  3
 13 12  1  6
 13 14  2  0
 13 15  2  0
 13 16  1  0
 16 17  2  0
 16 23  1  0
 17 18  1  0
 18 19  1  0
 19 20  1  0
 19 23  2  0
 20 21  1  0
 21 22  1  0
 23 24  1  0
M  END
