
     RDKit          3D

 24 25  0  0  0  0  0  0  0  0999 V2000
   -3.2490   -0.1090   -3.0630 C   0  0  0  0  0  0  0  0  0  0  0  0
   -3.3680    1.3680   -3.2670 C   0  0  2  0  0  0  0  0  0  0  0  0
   -1.9960    1.9820   -3.5090 C   0  0  0  0  0  0  0  0  0  0  0  0
   -1.1040    1.7100   -2.3230 C   0  0  0  0  0  0  0  0  0  0  0  0
   -1.7470    2.1670   -1.1150 N   0  0  0  0  0  0  0  0  0  0  0  0
   -0.9730    2.1950    0.1080 C   0  0  0  0  0  0  0  0  0  0  0  0
   -0.6510    0.8120    0.5670 C   0  0  0  0  0  0  0  0  0  0  0  0
   -1.0700   -0.1300   -0.1170 O   0  0  0  0  0  0  0  0  0  0  0  0
    0.1100    0.5520    1.7490 N   0  0  0  0  0  0  0  0  0  0  0  0
    0.5660    1.7320    2.4740 C   0  0  0  0  0  0  0  0  0  0  0  0
    0.3070   -0.8030    2.1560 C   0  0  0  0  0  0  0  0  0  0  0  0
    1.4230   -1.5470    1.5670 C   0  0  0  0  0  0  0  0  0  0  0  0
    1.1780   -2.6200    0.8480 C   0  0  0  0  0  0  0  0  0  0  0  0
   -0.0200   -3.2900    0.4800 C   0  0  0  0  0  0  0  0  0  0  0  0
    0.1410   -4.4710   -0.3660 N   0  0  0  0  0  0  0  0  0  0  0  0
   -1.1650   -2.9620    0.8140 O   0  0  0  0  0  0  0  0  0  0  0  0
    2.8390   -1.2040    1.7480 C   0  0  0  0  0  0  0  0  0  0  0  0
    3.3630   -0.2090    2.4290 C   0  0  0  0  0  0  0  0  0  0  0  0
    4.7800   -0.2320    2.3460 O   0  0  0  0  0  0  0  0  0  0  0  0
    5.1100   -1.0370    1.2250 C   0  0  0  0  0  0  0  0  0  0  0  0
    3.9300   -1.9090    1.2130 N   0  0  0  0  0  0  0  0  0  0  0  0
   -3.1040    2.5690   -1.1620 C   0  0  0  0  0  0  0  0  0  0  0  0
   -3.6250    3.6750   -0.0780 S   0  0  0  0  0  0  0  0  0  0  0  0
   -3.9490    2.0110   -2.1240 O   0  0  0  0  0  0  0  0  0  0  0  0
  2  1  1  1
  2  3  1  0
  2 24  1  0
  3  4  1  0
  4  5  1  0
  5  6  1  0
  5 22  1  0
  6  7  1  0
  7  8  2  0
  7  9  1  0
  9 10  1  0
  9 11  1  0
 11 12  1  0
 12 13  2  3
 12 17  1  0
 13 14  1  0
 14 15  1  0
 14 16  2  0
 17 18  2  0
 17 21  1  0
 18 19  1  0
 19 20  1  0
 20 21  1  0
 22 23  2  0
 22 24  1  0
M  END
