
     RDKit          3D

 17 18  0  0  0  0  0  0  0  0999 V2000
   -0.8930   -0.8820    1.0310 N   0  0  0  0  0  0  0  0  0  0  0  0
   -1.4760    0.0670    0.0690 C   0  0  2  0  0  0  0  0  0  0  0  0
   -0.7250    1.3810    0.1430 C   0  0  0  0  0  0  0  0  0  0  0  0
    0.7290    1.2510   -0.1770 C   0  0  0  0  0  0  0  0  0  0  0  0
    1.4060    0.3700    0.7070 O   0  0  0  0  0  0  0  0  0  0  0  0
    2.7540    0.1700    0.5100 C   0  0  0  0  0  0  0  0  0  0  0  0
    3.3780   -0.9870    0.4480 C   0  0  0  0  0  0  0  0  0  0  0  0
    4.8400   -0.6950    0.2200 C   0  0  0  0  0  0  0  0  0  0  0  0
    4.9360    0.5990    0.7630 O   0  0  0  0  0  0  0  0  0  0  0  0
    3.7780    1.2200    0.3270 C   0  0  0  0  0  0  0  0  0  0  0  0
   -2.9010    0.3780    0.4680 C   0  0  0  0  0  0  0  0  0  0  0  0
   -3.8670   -0.7300    0.2160 C   0  0  0  0  0  0  0  0  0  0  0  0
   -3.9030   -1.0080   -1.2410 C   0  0  0  0  0  0  0  0  0  0  0  0
   -4.9540   -1.3330   -1.8410 O   0  0  0  0  0  0  0  0  0  0  0  0
   -2.6830   -0.8930   -1.9620 N   0  0  0  0  0  0  0  0  0  0  0  0
   -1.4590   -0.5190   -1.2940 C   0  0  0  0  0  0  0  0  0  0  0  0
   -0.3990   -0.7200   -1.9380 O   0  0  0  0  0  0  0  0  0  0  0  0
  2  1  1  1
  2  3  1  0
  2 11  1  0
  2 16  1  0
  3  4  1  0
  4  5  1  0
  5  6  1  0
  6  7  2  0
  6 10  1  0
  7  8  1  0
  8  9  1  0
  9 10  1  0
 11 12  1  0
 12 13  1  0
 13 14  2  0
 13 15  1  0
 15 16  1  0
 16 17  2  0
M  CHG  1   1   1
M  END
