
     RDKit          3D

 17 18  0  0  0  0  0  0  0  0999 V2000
    1.3530    1.0220    0.6530 C   0  0  0  0  0  0  0  0  0  0  0  0
    1.4010   -0.1050   -0.3170 C   0  0  1  0  0  0  0  0  0  0  0  0
    2.4850   -1.1120   -0.1180 C   0  0  0  0  0  0  0  0  0  0  0  0
    3.8840   -0.6430   -0.1940 C   0  0  0  0  0  0  0  0  0  0  0  0
    4.2990    0.3360    0.7640 N   0  0  0  0  0  0  0  0  0  0  0  0
    0.1130   -0.7740   -0.3120 N   0  0  0  0  0  0  0  0  0  0  0  0
   -1.0940   -0.1130   -0.6520 C   0  0  0  0  0  0  0  0  0  0  0  0
   -2.2270   -0.5690   -0.1460 C   0  0  0  0  0  0  0  0  0  0  0  0
   -2.6050   -1.6590    0.7410 C   0  0  0  0  0  0  0  0  0  0  0  0
   -1.8440   -2.5690    1.1610 O   0  0  0  0  0  0  0  0  0  0  0  0
   -3.9460   -1.5700    1.0780 O   0  0  0  0  0  0  0  0  0  0  0  0
   -4.4890   -0.3430    0.5710 C   0  0  0  0  0  0  0  0  0  0  0  0
   -3.5060    0.1090   -0.4880 C   0  0  1  0  0  0  0  0  0  0  0  0
   -3.2430    1.5680   -0.4400 C   0  0  0  0  0  0  0  0  0  0  0  0
   -4.1100    2.3030    0.0890 O   0  0  0  0  0  0  0  0  0  0  0  0
   -2.0530    2.0220   -0.9840 O   0  0  0  0  0  0  0  0  0  0  0  0
   -1.1330    1.0820   -1.5610 C   0  0  0  0  0  0  0  0  0  0  0  0
  2  1  1  1
  2  3  1  0
  2  6  1  0
  3  4  1  0
  4  5  1  0
  6  7  1  0
  7  8  2  0
  7 17  1  0
  8  9  1  0
  8 13  1  0
  9 10  2  0
  9 11  1  0
 11 12  1  0
 13 12  1  1
 13 14  1  0
 14 15  2  0
 14 16  1  0
 16 17  1  0
M  CHG  1   5   1
M  END
