
     RDKit          3D

 19 20  0  0  0  0  0  0  0  0999 V2000
    4.7100   -1.1370    1.0030 O   0  0  0  0  0  0  0  0  0  0  0  0
    4.3170   -1.2470   -0.1720 C   0  0  0  0  0  0  0  0  0  0  0  0
    5.1650   -1.6580   -1.1490 O   0  0  0  0  0  0  0  0  0  0  0  0
    2.9160   -0.9210   -0.4710 C   0  0  0  0  0  0  0  0  0  0  0  0
    2.5420   -1.0380   -1.6540 O   0  0  0  0  0  0  0  0  0  0  0  0
    2.0120   -0.4910    0.5300 N   0  0  0  0  0  0  0  0  0  0  0  0
    0.6470   -0.1460    0.3620 C   0  0  0  0  0  0  0  0  0  0  0  0
    0.0650   -0.0380   -0.8950 C   0  0  0  0  0  0  0  0  0  0  0  0
   -1.2580    0.3300   -1.1100 C   0  0  0  0  0  0  0  0  0  0  0  0
   -1.7540    0.4130   -2.3910 C   0  0  0  0  0  0  0  0  0  0  0  0
   -3.0680    0.7770   -2.6170 C   0  0  0  0  0  0  0  0  0  0  0  0
   -3.8460    1.0500   -1.5010 C   0  0  0  0  0  0  0  0  0  0  0  0
   -3.3370    0.9630   -0.2230 C   0  0  0  0  0  0  0  0  0  0  0  0
   -2.0250    0.5990   -0.0050 C   0  0  0  0  0  0  0  0  0  0  0  0
   -1.4740    0.4990    1.2470 C   0  0  0  0  0  0  0  0  0  0  0  0
   -0.1310    0.1250    1.4670 C   0  0  0  0  0  0  0  0  0  0  0  0
    0.3060    0.0390    2.8320 C   0  0  0  0  0  0  0  0  0  0  0  0
    1.4350   -0.2930    3.1930 O   0  0  0  0  0  0  0  0  0  0  0  0
   -0.5750    0.3470    3.8980 O   0  0  0  0  0  0  0  0  0  0  0  0
  1  2  2  0
  2  3  1  0
  2  4  1  0
  4  5  2  0
  4  6  1  0
  6  7  1  0
  7  8  2  0
  7 16  1  0
  8  9  1  0
  9 10  2  0
  9 14  1  0
 10 11  1  0
 11 12  2  0
 12 13  1  0
 13 14  2  0
 14 15  1  0
 15 16  2  0
 16 17  1  0
 17 18  2  0
 17 19  1  0
M  END
