
     RDKit          3D

 21 22  0  0  0  0  0  0  0  0999 V2000
   -3.9590    2.5770   -0.8880 C   0  0  0  0  0  0  0  0  0  0  0  0
   -3.7660    1.6380    0.0220 C   0  0  0  0  0  0  0  0  0  0  0  0
   -4.5900    1.3590    1.2240 C   0  0  0  0  0  0  0  0  0  0  0  0
   -4.3180    0.0060    1.5200 O   0  0  0  0  0  0  0  0  0  0  0  0
   -3.0710   -0.3690    1.0190 C   0  0  0  0  0  0  0  0  0  0  0  0
   -2.1330   -1.2980    1.0990 C   0  0  0  0  0  0  0  0  0  0  0  0
   -2.0830   -2.5270    1.9400 C   0  0  0  0  0  0  0  0  0  0  0  0
   -1.9540   -4.1150    0.8080 Br  0  0  0  0  0  0  0  0  0  0  0  0
   -1.0860   -0.8700    0.1520 C   0  0  0  0  0  0  0  0  0  0  0  0
    0.0010   -1.5350   -0.0460 N   0  0  0  0  0  0  0  0  0  0  0  0
    0.9210   -1.0300   -0.9700 N   0  0  0  0  0  0  0  0  0  0  0  0
    2.3170   -0.9400   -0.7120 C   0  0  0  0  0  0  0  0  0  0  0  0
    2.7260   -1.3320    0.3920 O   0  0  0  0  0  0  0  0  0  0  0  0
    3.2790   -0.4000   -1.7050 C   0  0  0  0  0  0  0  0  0  0  0  0
    4.5720   -0.4110   -1.1890 O   0  0  0  0  0  0  0  0  0  0  0  0
    4.8620    0.3220   -0.0530 C   0  0  0  0  0  0  0  0  0  0  0  0
    6.2320    0.3400    0.5390 C   0  0  0  0  0  0  0  0  0  0  0  0
    3.9370    0.9840    0.4820 O   0  0  0  0  0  0  0  0  0  0  0  0
   -1.5100    0.3760   -0.4710 C   0  0  0  0  0  0  0  0  0  0  0  0
   -0.8110    1.1020   -1.4160 O   0  0  0  0  0  0  0  0  0  0  0  0
   -2.6870    0.6510    0.0590 C   0  0  0  0  0  0  0  0  0  0  0  0
  1  2  2  0
  2  3  1  0
  2 21  1  0
  3  4  1  0
  4  5  1  0
  5  6  2  0
  5 21  1  0
  6  7  1  0
  6  9  1  0
  7  8  1  0
  9 10  2  3
  9 19  1  0
 10 11  1  0
 11 12  1  0
 12 13  2  0
 12 14  1  0
 14 15  1  0
 15 16  1  0
 16 17  1  0
 16 18  2  0
 19 20  1  0
 19 21  2  0
M  END
