
     RDKit          3D

 21 22  0  0  0  0  0  0  0  0999 V2000
   -5.8910   -0.9650   -0.1000 C   0  0  0  0  0  0  0  0  0  0  0  0
   -4.6070   -0.3070   -0.4320 C   0  0  0  0  0  0  0  0  0  0  0  0
   -3.4620   -0.6260    0.1630 C   0  0  0  0  0  0  0  0  0  0  0  0
   -3.4100   -1.6820    1.2140 C   0  0  0  0  0  0  0  0  0  0  0  0
   -2.2790   -3.1640    0.7110 Br  0  0  0  0  0  0  0  0  0  0  0  0
   -2.2580    0.0650   -0.2140 C   0  0  0  0  0  0  0  0  0  0  0  0
   -2.3320    0.9370   -1.1080 O   0  0  0  0  0  0  0  0  0  0  0  0
   -1.0270   -0.2220    0.4000 N   0  0  0  0  0  0  0  0  0  0  0  0
    0.2260    0.3810    0.1260 C   0  0  0  0  0  0  0  0  0  0  0  0
    0.4310    1.4750   -0.6720 C   0  0  0  0  0  0  0  0  0  0  0  0
    1.6980    2.0230   -0.9200 C   0  0  0  0  0  0  0  0  0  0  0  0
    2.8190    1.4700   -0.3570 C   0  0  0  0  0  0  0  0  0  0  0  0
    2.6230    0.3730    0.4440 C   0  0  0  0  0  0  0  0  0  0  0  0
    3.7420   -0.2340    1.0470 O   0  0  0  0  0  0  0  0  0  0  0  0
    4.4130   -1.2520    0.3850 C   0  0  0  0  0  0  0  0  0  0  0  0
    5.5490   -1.9060    0.9360 N   0  0  0  0  0  0  0  0  0  0  0  0
    3.9520   -1.5730   -0.7580 O   0  0  0  0  0  0  0  0  0  0  0  0
    1.3890   -0.1690    0.6910 C   0  0  0  0  0  0  0  0  0  0  0  0
    3.9530    2.1590   -0.7290 O   0  0  0  0  0  0  0  0  0  0  0  0
    3.5250    3.2600   -1.5130 C   0  0  0  0  0  0  0  0  0  0  0  0
    2.1210    3.1020   -1.6780 O   0  0  0  0  0  0  0  0  0  0  0  0
  1  2  1  0
  2  3  2  3
  3  4  1  0
  3  6  1  0
  4  5  1  0
  6  7  2  0
  6  8  1  0
  8  9  1  0
  9 10  2  0
  9 18  1  0
 10 11  1  0
 11 12  2  0
 11 21  1  0
 12 13  1  0
 12 19  1  0
 13 14  1  0
 13 18  2  0
 14 15  1  0
 15 16  1  0
 15 17  2  0
 19 20  1  0
 20 21  1  0
M  END
