
     RDKit          3D

 17 18  0  0  0  0  0  0  0  0999 V2000
   -2.5640   -1.5700    1.5840 N   0  0  0  0  0  0  0  0  0  0  0  0
   -1.6770   -0.8960    0.6970 C   0  0  0  0  0  0  0  0  0  0  0  0
   -1.9650    0.2490    0.1280 C   0  0  0  0  0  0  0  0  0  0  0  0
   -3.1950    1.0930    0.2400 C   0  0  0  0  0  0  0  0  0  0  0  0
   -3.2880    1.6570   -1.1590 C   0  0  0  0  0  0  0  0  0  0  0  0
   -1.8620    1.8100   -1.5290 C   0  0  0  0  0  0  0  0  0  0  0  0
   -1.1160    1.0040   -0.7900 C   0  0  0  0  0  0  0  0  0  0  0  0
    0.3400    0.8910   -0.8850 C   0  0  0  0  0  0  0  0  0  0  0  0
    0.9760    1.5890   -1.7130 O   0  0  0  0  0  0  0  0  0  0  0  0
    1.0620    0.0240   -0.0780 O   0  0  0  0  0  0  0  0  0  0  0  0
    2.4630   -0.0430   -0.2140 C   0  0  2  0  0  0  0  0  0  0  0  0
    2.9520   -1.4390   -0.5320 C   0  0  0  0  0  0  0  0  0  0  0  0
    4.3600   -1.3820   -0.0470 C   0  0  0  0  0  0  0  0  0  0  0  0
    5.3380   -2.0050   -0.5150 O   0  0  0  0  0  0  0  0  0  0  0  0
    4.3680   -0.4670    1.0650 N   0  0  0  0  0  0  0  0  0  0  0  0
    3.1320    0.2360    1.1000 C   0  0  0  0  0  0  0  0  0  0  0  0
    2.6520    0.9470    1.9990 O   0  0  0  0  0  0  0  0  0  0  0  0
  1  2  1  0
  2  3  2  3
  3  4  1  0
  3  7  1  0
  4  5  1  0
  5  6  1  0
  6  7  2  0
  7  8  1  0
  8  9  2  0
  8 10  1  0
 11 10  1  1
 11 12  1  0
 11 16  1  0
 12 13  1  0
 13 14  2  0
 13 15  1  0
 15 16  1  0
 16 17  2  0
M  CHG  1   1   1
M  END
