
     RDKit          3D

 17 17  0  0  0  0  0  0  0  0999 V2000
   -2.6700    0.9850   -0.5670 C   0  0  0  0  0  0  0  0  0  0  0  0
   -1.3290    0.3260   -0.2610 C   0  0  0  0  0  0  0  0  0  0  0  0
   -1.5480   -0.9010    0.4230 N   0  0  0  0  0  0  0  0  0  0  0  0
   -2.2700   -0.9050    1.7060 C   0  0  0  0  0  0  0  0  0  0  0  0
   -2.3320   -2.2190    2.1490 O   0  0  0  0  0  0  0  0  0  0  0  0
   -0.1870    0.7880   -0.6410 C   0  0  0  0  0  0  0  0  0  0  0  0
   -0.0910    2.0230   -1.4310 C   0  0  0  0  0  0  0  0  0  0  0  0
   -1.1230    2.8650   -1.8860 N   0  0  0  0  0  0  0  0  0  0  0  0
    1.0560    2.4370   -1.7800 O   0  0  0  0  0  0  0  0  0  0  0  0
    1.1040    0.1530   -0.1910 C   0  0  0  0  0  0  0  0  0  0  0  0
    2.2600    0.6180   -0.6660 C   0  0  0  0  0  0  0  0  0  0  0  0
    3.5590    0.0500   -0.2570 C   0  0  0  0  0  0  0  0  0  0  0  0
    4.5960    0.5170   -0.7420 O   0  0  0  0  0  0  0  0  0  0  0  0
    3.5030   -1.0070    0.6770 O   0  0  0  0  0  0  0  0  0  0  0  0
    2.4300   -0.8610    1.6420 C   0  0  0  0  0  0  0  0  0  0  0  0
    1.1720   -0.9770    0.7420 C   0  0  2  0  0  0  0  0  0  0  0  0
    1.4700   -2.2770   -0.0490 C   0  0  0  0  0  0  0  0  0  0  0  0
  1  2  1  0
  2  3  1  0
  2  6  2  3
  3  4  1  0
  4  5  1  0
  6  7  1  0
  6 10  1  0
  7  8  1  0
  7  9  2  0
 10 11  2  0
 10 16  1  0
 11 12  1  0
 12 13  2  0
 12 14  1  0
 14 15  1  0
 15 16  1  0
 16 17  1  6
M  CHG  1   8   1
M  END
