
     RDKit          3D

 17 17  0  0  0  0  0  0  0  0999 V2000
    2.4520   -3.5640    0.1510 C   0  0  0  0  0  0  0  0  0  0  0  0
    1.2920   -2.8010   -0.1600 O   0  0  0  0  0  0  0  0  0  0  0  0
    1.1830   -1.4710    0.1740 C   0  0  0  0  0  0  0  0  0  0  0  0
    2.1280   -0.9300    0.7600 O   0  0  0  0  0  0  0  0  0  0  0  0
   -0.0100   -0.7220   -0.1570 C   0  0  0  0  0  0  0  0  0  0  0  0
   -0.9730   -1.4270   -0.7800 C   0  0  0  0  0  0  0  0  0  0  0  0
   -0.6390   -2.7530   -0.9910 O   0  0  0  0  0  0  0  0  0  0  0  0
   -2.2950   -0.9920   -1.2520 C   0  0  0  0  0  0  0  0  0  0  0  0
   -2.6780    0.3860   -0.8370 C   0  0  0  0  0  0  0  0  0  0  0  0
   -2.4420    0.7040    0.5980 C   0  0  0  0  0  0  0  0  0  0  0  0
   -1.1490    1.4530    0.8340 C   0  0  0  0  0  0  0  0  0  0  0  0
   -0.0150    0.6670    0.2170 C   0  0  0  0  0  0  0  0  0  0  0  0
    1.0830    1.3390   -0.0230 C   0  0  0  0  0  0  0  0  0  0  0  0
    1.2820    3.0330    0.3580 S   0  0  2  0  0  0  0  0  0  0  0  0
    2.9180    3.4630    0.5960 N   0  0  0  0  0  0  0  0  0  0  0  0
    0.5100    3.4140    1.5860 O   0  0  0  0  0  0  0  0  0  0  0  0
    0.7120    3.8290   -0.7890 O   0  0  0  0  0  0  0  0  0  0  0  0
  1  2  1  0
  2  3  1  0
  3  4  2  0
  3  5  1  0
  5  6  2  0
  5 12  1  0
  6  7  1  0
  6  8  1  0
  8  9  1  0
  9 10  1  0
 10 11  1  0
 11 12  1  0
 12 13  2  3
 13 14  1  0
 14 15  1  1
 14 16  2  0
 14 17  2  0
M  END
