
     RDKit          3D

 18 18  0  0  0  0  0  0  0  0999 V2000
    4.5690    0.0630    3.1360 C   0  0  0  0  0  0  0  0  0  0  0  0
    3.6230   -0.5490    2.2810 O   0  0  0  0  0  0  0  0  0  0  0  0
    2.8350    0.3250    1.5020 C   0  0  0  0  0  0  0  0  0  0  0  0
    3.0040    1.5670    1.6010 O   0  0  0  0  0  0  0  0  0  0  0  0
    1.8320   -0.1740    0.5890 C   0  0  0  0  0  0  0  0  0  0  0  0
    1.6520   -1.4240    0.4800 O   0  0  0  0  0  0  0  0  0  0  0  0
    1.0650    0.7370   -0.1710 N   0  0  0  0  0  0  0  0  0  0  0  0
    0.0590    0.3400   -1.0880 C   0  0  0  0  0  0  0  0  0  0  0  0
    0.1570    0.6210   -2.3730 C   0  0  0  0  0  0  0  0  0  0  0  0
   -1.0730    0.1480   -3.5670 S   0  0  0  0  0  0  0  0  0  0  0  0
   -2.3310    1.3960   -3.7050 C   0  0  0  0  0  0  0  0  0  0  0  0
   -3.2700    1.1900   -4.5190 O   0  0  0  0  0  0  0  0  0  0  0  0
   -2.3410    2.5690   -2.9780 O   0  0  0  0  0  0  0  0  0  0  0  0
   -1.1220   -0.3980   -0.5970 C   0  0  0  0  0  0  0  0  0  0  0  0
   -1.3880   -0.7570    0.6410 C   0  0  0  0  0  0  0  0  0  0  0  0
   -2.6740   -1.4740    0.6670 C   0  0  0  0  0  0  0  0  0  0  0  0
   -2.8480   -1.9020   -0.7730 C   0  0  0  0  0  0  0  0  0  0  0  0
   -2.1700   -0.8350   -1.4310 O   0  0  0  0  0  0  0  0  0  0  0  0
  1  2  1  0
  2  3  1  0
  3  4  2  0
  3  5  1  0
  5  6  2  0
  5  7  1  0
  7  8  1  0
  8  9  2  3
  8 14  1  0
  9 10  1  0
 10 11  1  0
 11 12  2  0
 11 13  1  0
 14 15  2  0
 14 18  1  0
 15 16  1  0
 16 17  1  0
 17 18  1  0
M  END
