
     RDKit          3D

 18 19  0  0  0  0  0  0  0  0999 V2000
    4.7870    0.9710    1.7120 O   0  0  0  0  0  0  0  0  0  0  0  0
    4.5730    0.2870    0.6970 C   0  0  0  0  0  0  0  0  0  0  0  0
    5.6120   -0.1820   -0.0550 O   0  0  0  0  0  0  0  0  0  0  0  0
    3.1920   -0.0090    0.3170 C   0  0  0  0  0  0  0  0  0  0  0  0
    3.0450   -0.7010   -0.7140 O   0  0  0  0  0  0  0  0  0  0  0  0
    2.0930    0.4560    1.0660 N   0  0  0  0  0  0  0  0  0  0  0  0
    0.7300    0.2820    0.7700 C   0  0  0  0  0  0  0  0  0  0  0  0
   -0.4270    0.1610    2.2690 S   0  0  0  0  0  0  0  0  0  0  0  0
   -1.8690   -0.0170    1.2470 C   0  0  0  0  0  0  0  0  0  0  0  0
   -1.4310    0.0260   -0.0620 C   0  0  0  0  0  0  0  0  0  0  0  0
   -0.0980    0.1860   -0.2600 C   0  0  0  0  0  0  0  0  0  0  0  0
    0.3460    0.5270   -1.6480 C   0  0  0  0  0  0  0  0  0  0  0  0
   -0.4030    0.3790   -2.6490 O   0  0  0  0  0  0  0  0  0  0  0  0
    1.5890    1.0400   -1.9210 O   0  0  0  0  0  0  0  0  0  0  0  0
   -2.6310   -0.1440   -0.9970 C   0  0  0  0  0  0  0  0  0  0  0  0
   -3.3240   -1.3850   -0.3980 C   0  0  0  0  0  0  0  0  0  0  0  0
   -3.9370   -1.1230    0.7930 O   0  0  0  0  0  0  0  0  0  0  0  0
   -3.3130   -0.1800    1.5700 C   0  0  0  0  0  0  0  0  0  0  0  0
  1  2  2  0
  2  3  1  0
  2  4  1  0
  4  5  2  0
  4  6  1  0
  6  7  1  0
  7  8  1  0
  7 11  2  0
  8  9  1  0
  9 10  2  0
  9 18  1  0
 10 11  1  0
 10 15  1  0
 11 12  1  0
 12 13  2  0
 12 14  1  0
 15 16  1  0
 16 17  1  0
 17 18  1  0
M  END
