
     RDKit          3D

 17 17  0  0  0  0  0  0  0  0999 V2000
    5.0290   -1.3420    0.2110 C   0  0  0  0  0  0  0  0  0  0  0  0
    3.7180   -0.9910   -0.2450 O   0  0  0  0  0  0  0  0  0  0  0  0
    3.3960    0.3530   -0.5020 C   0  0  0  0  0  0  0  0  0  0  0  0
    4.2860    1.2020   -0.3170 O   0  0  0  0  0  0  0  0  0  0  0  0
    2.0550    0.6730   -0.9650 C   0  0  0  0  0  0  0  0  0  0  0  0
    1.7430    2.0270   -1.2190 N   0  0  0  0  0  0  0  0  0  0  0  0
    1.1420   -0.2980   -1.1430 C   0  0  0  0  0  0  0  0  0  0  0  0
   -0.4580   -0.0980   -1.6740 S   0  0  0  0  0  0  0  0  0  0  0  0
   -1.8730   -0.1350   -0.7290 C   0  0  0  0  0  0  0  0  0  0  0  0
   -1.9630   -0.3280    0.5700 C   0  0  0  0  0  0  0  0  0  0  0  0
   -0.9180   -0.5550    1.5180 C   0  0  0  0  0  0  0  0  0  0  0  0
   -1.3000   -0.7150    2.7480 O   0  0  0  0  0  0  0  0  0  0  0  0
    0.4250   -0.6350    1.3750 O   0  0  0  0  0  0  0  0  0  0  0  0
   -3.4170   -0.2900    1.0440 C   0  0  0  0  0  0  0  0  0  0  0  0
   -3.9640    1.0080    0.5150 C   0  0  0  0  0  0  0  0  0  0  0  0
   -3.9490    1.0600   -0.8550 O   0  0  0  0  0  0  0  0  0  0  0  0
   -3.2110    0.0810   -1.4760 C   0  0  0  0  0  0  0  0  0  0  0  0
  1  2  1  0
  2  3  1  0
  3  4  2  0
  3  5  1  0
  5  6  1  0
  5  7  2  3
  7  8  1  0
  8  9  1  0
  9 10  2  0
  9 17  1  0
 10 11  1  0
 10 14  1  0
 11 12  2  0
 11 13  1  0
 14 15  1  0
 15 16  1  0
 16 17  1  0
M  END
