
     RDKit          3D

 18 18  0  0  0  0  0  0  0  0999 V2000
    5.1820   -0.2070    1.5580 C   0  0  0  0  0  0  0  0  0  0  0  0
    4.3180    0.5100    0.5690 C   0  0  1  0  0  0  0  0  0  0  0  0
    5.1670    0.9280   -0.6130 C   0  0  0  0  0  0  0  0  0  0  0  0
    3.2600   -0.2710    0.0790 O   0  0  0  0  0  0  0  0  0  0  0  0
    1.9300    0.0900    0.1700 C   0  0  0  0  0  0  0  0  0  0  0  0
    1.6500    1.1770    0.7210 O   0  0  0  0  0  0  0  0  0  0  0  0
    0.8640   -0.7970   -0.3760 C   0  0  0  0  0  0  0  0  0  0  0  0
   -0.4130   -0.2430   -0.1800 O   0  0  0  0  0  0  0  0  0  0  0  0
   -1.5860   -0.8190   -0.5710 C   0  0  0  0  0  0  0  0  0  0  0  0
   -1.5430   -1.9230   -1.1490 O   0  0  0  0  0  0  0  0  0  0  0  0
   -2.9030   -0.1870   -0.3360 C   0  0  0  0  0  0  0  0  0  0  0  0
   -2.9730    0.9770    0.2710 C   0  0  0  0  0  0  0  0  0  0  0  0
   -4.6730    1.3610    0.3460 S   0  0  2  0  0  0  0  0  0  0  0  0
   -5.0130    2.5930   -0.4320 O   0  0  0  0  0  0  0  0  0  0  0  0
   -5.1670    1.4370    1.7590 O   0  0  0  0  0  0  0  0  0  0  0  0
   -5.2290   -0.0870   -0.4570 C   0  0  0  0  0  0  0  0  0  0  0  0
   -6.5810   -0.3850   -0.7150 N   0  0  0  0  0  0  0  0  0  0  0  0
   -4.1450   -0.7730   -0.7370 C   0  0  0  0  0  0  0  0  0  0  0  0
  2  1  1  1
  2  3  1  0
  2  4  1  0
  4  5  1  0
  5  6  2  0
  5  7  1  0
  7  8  1  0
  8  9  1  0
  9 10  2  0
  9 11  1  0
 11 12  2  0
 11 18  1  0
 13 12  1  1
 13 14  2  0
 13 15  2  0
 13 16  1  0
 16 17  1  0
 16 18  2  0
M  END
