
     RDKit          3D

 18 19  0  0  0  0  0  0  0  0999 V2000
    0.5940   -2.5300   -0.5930 N   0  0  0  0  0  0  0  0  0  0  0  0
    1.4000   -1.3730   -0.5890 C   0  0  0  0  0  0  0  0  0  0  0  0
    2.7750   -1.4960   -0.7670 C   0  0  0  0  0  0  0  0  0  0  0  0
    3.5230   -0.3420   -0.7560 C   0  0  0  0  0  0  0  0  0  0  0  0
    4.8980   -0.3960   -0.9280 O   0  0  0  0  0  0  0  0  0  0  0  0
    2.9600    0.9020   -0.5800 C   0  0  0  0  0  0  0  0  0  0  0  0
    3.7200    2.0730   -0.5690 O   0  0  0  0  0  0  0  0  0  0  0  0
    4.3940    2.7120    0.9000 S   0  0  0  0  0  0  0  0  0  0  0  0
    1.5730    0.9720   -0.4050 C   0  0  0  0  0  0  0  0  0  0  0  0
    0.9540    2.1990   -0.2230 O   0  0  0  0  0  0  0  0  0  0  0  0
    0.7880   -0.1600   -0.4090 C   0  0  0  0  0  0  0  0  0  0  0  0
   -0.5840   -0.0950   -0.2370 O   0  0  0  0  0  0  0  0  0  0  0  0
   -1.2050   -0.1610    1.0270 C   0  0  0  0  0  0  0  0  0  0  0  0
   -2.7040   -0.0680    0.9330 C   0  0  1  0  0  0  0  0  0  0  0  0
   -3.1670    1.1460    0.1770 C   0  0  0  0  0  0  0  0  0  0  0  0
   -4.4430    0.7500   -0.2430 O   0  0  0  0  0  0  0  0  0  0  0  0
   -4.5340   -0.6070   -0.0720 C   0  0  0  0  0  0  0  0  0  0  0  0
   -3.2510   -1.0980    0.1690 O   0  0  0  0  0  0  0  0  0  0  0  0
  1  2  1  0
  2  3  2  0
  2 11  1  0
  3  4  1  0
  4  5  1  0
  4  6  2  0
  6  7  1  0
  6  9  1  0
  7  8  1  0
  9 10  1  0
  9 11  2  0
 11 12  1  0
 12 13  1  0
 14 13  1  6
 14 15  1  0
 14 18  1  0
 15 16  1  0
 16 17  1  0
 17 18  1  0
M  END
