
     RDKit          3D

 18 18  0  0  0  0  0  0  0  0999 V2000
    4.2480    1.1370   -0.1100 C   0  0  0  0  0  0  0  0  0  0  0  0
    3.7570    0.4060    1.1040 C   0  0  0  0  0  0  0  0  0  0  0  0
    2.5740   -0.3250    0.8710 O   0  0  0  0  0  0  0  0  0  0  0  0
    1.3870    0.2860    0.4510 C   0  0  0  0  0  0  0  0  0  0  0  0
    1.4660    1.4980    0.3050 O   0  0  0  0  0  0  0  0  0  0  0  0
    0.2190   -0.5910    0.2420 C   0  0  0  0  0  0  0  0  0  0  0  0
   -1.0780   -0.0300   -0.2010 C   0  0  0  0  0  0  0  0  0  0  0  0
   -1.2210    1.2490   -0.4110 C   0  0  0  0  0  0  0  0  0  0  0  0
   -2.4220    1.9460   -0.8440 C   0  0  0  0  0  0  0  0  0  0  0  0
   -2.4100    3.3520   -1.0280 O   0  0  0  0  0  0  0  0  0  0  0  0
   -3.5320    1.3310   -1.0760 C   0  0  0  0  0  0  0  0  0  0  0  0
   -3.6950   -0.3750   -0.8940 S   0  0  2  0  0  0  0  0  0  0  0  0
   -4.1830   -1.0430   -2.1550 O   0  0  0  0  0  0  0  0  0  0  0  0
   -4.7720   -0.6180    0.1550 O   0  0  0  0  0  0  0  0  0  0  0  0
   -2.1610   -1.0490   -0.3890 C   0  0  0  0  0  0  0  0  0  0  0  0
    0.4220   -1.8550    0.4700 C   0  0  0  0  0  0  0  0  0  0  0  0
   -0.4470   -2.9450    0.3740 N   0  0  0  0  0  0  0  0  0  0  0  0
    1.7440   -2.2170    0.8890 O   0  0  0  0  0  0  0  0  0  0  0  0
  1  2  1  0
  2  3  1  0
  3  4  1  0
  4  5  2  0
  4  6  1  0
  6  7  1  0
  6 16  2  3
  7  8  2  0
  7 15  1  0
  8  9  1  0
  9 10  1  0
  9 11  2  0
 11 12  1  0
 12 13  2  0
 12 14  2  0
 12 15  1  1
 16 17  1  0
 16 18  1  0
M  END
