
     RDKit          3D

 17 17  0  0  0  0  0  0  0  0999 V2000
    3.9180   -1.2160   -0.0340 C   0  0  0  0  0  0  0  0  0  0  0  0
    2.5990   -0.6870   -0.0300 O   0  0  0  0  0  0  0  0  0  0  0  0
    1.5130   -1.5070    0.1050 C   0  0  0  0  0  0  0  0  0  0  0  0
    1.7080   -2.7410    0.2260 O   0  0  0  0  0  0  0  0  0  0  0  0
    0.1060   -1.0410    0.1170 C   0  0  0  0  0  0  0  0  0  0  0  0
   -0.7840   -2.0100    0.2410 C   0  0  0  0  0  0  0  0  0  0  0  0
   -0.2480   -3.3150    0.3400 O   0  0  0  0  0  0  0  0  0  0  0  0
   -2.2630   -1.9070    0.2880 C   0  0  0  0  0  0  0  0  0  0  0  0
   -2.7010   -0.4870    0.3260 C   0  0  0  0  0  0  0  0  0  0  0  0
   -2.3920    0.2980   -0.9040 C   0  0  0  0  0  0  0  0  0  0  0  0
   -1.1140    1.0810   -0.8180 C   0  0  0  0  0  0  0  0  0  0  0  0
   -0.0740    0.4070    0.0000 C   0  0  0  0  0  0  0  0  0  0  0  0
    0.7560    1.1470    0.6950 C   0  0  0  0  0  0  0  0  0  0  0  0
    0.6210    2.8890    0.6180 S   0  0  2  0  0  0  0  0  0  0  0  0
    0.5060    3.3850   -1.0310 N   0  0  0  0  0  0  0  0  0  0  0  0
    1.8560    3.5240    1.1880 O   0  0  0  0  0  0  0  0  0  0  0  0
   -0.5540    3.3680    1.3970 O   0  0  0  0  0  0  0  0  0  0  0  0
  1  2  1  0
  2  3  1  0
  3  4  2  0
  3  5  1  0
  5  6  2  0
  5 12  1  0
  6  7  1  0
  6  8  1  0
  8  9  1  0
  9 10  1  0
 10 11  1  0
 11 12  1  0
 12 13  2  3
 13 14  1  0
 14 15  1  6
 14 16  2  0
 14 17  2  0
M  END
