
     RDKit          3D

 17 17  0  0  0  0  0  0  0  0999 V2000
    4.7980    0.1340   -0.5590 N   0  0  0  0  0  0  0  0  0  0  0  0
    4.4130   -0.9880    0.2140 C   0  0  0  0  0  0  0  0  0  0  0  0
    5.0840   -2.4310   -0.1450 S   0  0  0  0  0  0  0  0  0  0  0  0
    3.4380   -0.8520    1.3080 C   0  0  0  0  0  0  0  0  0  0  0  0
    2.1710   -0.4160    0.9440 O   0  0  0  0  0  0  0  0  0  0  0  0
    1.8130    0.7610    0.3550 C   0  0  0  0  0  0  0  0  0  0  0  0
    2.6890    1.5930    0.0880 O   0  0  0  0  0  0  0  0  0  0  0  0
    0.4020    1.0820    0.0220 C   0  0  0  0  0  0  0  0  0  0  0  0
   -0.4680    0.0210    0.3960 O   0  0  0  0  0  0  0  0  0  0  0  0
   -1.8380    0.1810    0.1420 C   0  0  0  0  0  0  0  0  0  0  0  0
   -2.3200    1.3230   -0.3020 C   0  0  0  0  0  0  0  0  0  0  0  0
   -3.7560    1.5020   -0.5710 C   0  0  0  0  0  0  0  0  0  0  0  0
   -4.5330    0.3760   -0.3180 O   0  0  0  0  0  0  0  0  0  0  0  0
   -4.0410   -0.8260    0.1470 C   0  0  0  0  0  0  0  0  0  0  0  0
   -4.8800   -1.9030    0.3750 O   0  0  0  0  0  0  0  0  0  0  0  0
   -2.7480   -0.9350    0.3730 C   0  0  0  0  0  0  0  0  0  0  0  0
   -2.2680   -2.1340    0.8350 O   0  0  0  0  0  0  0  0  0  0  0  0
  1  2  1  0
  2  3  2  0
  2  4  1  0
  4  5  1  0
  5  6  1  0
  6  7  2  0
  6  8  1  0
  8  9  1  0
  9 10  1  0
 10 11  2  0
 10 16  1  0
 11 12  1  0
 12 13  1  0
 13 14  1  0
 14 15  1  0
 14 16  2  0
 16 17  1  0
M  END
