
     RDKit          3D

 18 18  0  0  0  0  0  0  0  0999 V2000
   -4.9540    0.1630   -0.4350 C   0  0  0  0  0  0  0  0  0  0  0  0
   -3.9890   -0.2610    0.6490 C   0  0  2  0  0  0  0  0  0  0  0  0
   -4.7870   -0.4590    1.9210 C   0  0  0  0  0  0  0  0  0  0  0  0
   -2.9400    0.6590    0.8200 O   0  0  0  0  0  0  0  0  0  0  0  0
   -1.6060    0.3810    0.6650 C   0  0  0  0  0  0  0  0  0  0  0  0
   -1.2900   -0.8130    0.3380 O   0  0  0  0  0  0  0  0  0  0  0  0
   -0.6040    1.4420    0.8750 C   0  0  0  0  0  0  0  0  0  0  0  0
    0.7100    1.0110    0.6820 O   0  0  0  0  0  0  0  0  0  0  0  0
    1.1810    0.4900   -0.5200 C   0  0  0  0  0  0  0  0  0  0  0  0
    0.3530    0.4200   -1.4570 O   0  0  0  0  0  0  0  0  0  0  0  0
    2.5950    0.0450   -0.6680 C   0  0  0  0  0  0  0  0  0  0  0  0
    3.0010   -0.4420   -1.8230 C   0  0  0  0  0  0  0  0  0  0  0  0
    4.6900   -0.8370   -1.5770 S   0  0  2  0  0  0  0  0  0  0  0  0
    5.5910   -0.0460   -2.4650 O   0  0  0  0  0  0  0  0  0  0  0  0
    4.9050   -2.3140   -1.7110 O   0  0  0  0  0  0  0  0  0  0  0  0
    4.7650   -0.3200    0.0900 C   0  0  0  0  0  0  0  0  0  0  0  0
    5.9300   -0.3890    0.8890 N   0  0  0  0  0  0  0  0  0  0  0  0
    3.5620    0.1090    0.3710 C   0  0  0  0  0  0  0  0  0  0  0  0
  2  1  1  6
  2  3  1  0
  2  4  1  0
  4  5  1  0
  5  6  2  0
  5  7  1  0
  7  8  1  0
  8  9  1  0
  9 10  2  0
  9 11  1  0
 11 12  2  0
 11 18  1  0
 13 12  1  6
 13 14  2  0
 13 15  2  0
 13 16  1  0
 16 17  1  0
 16 18  2  0
M  END
