
     RDKit          3D

 17 17  0  0  0  0  0  0  0  0999 V2000
    4.7370   -1.3820   -0.6350 C   0  0  0  0  0  0  0  0  0  0  0  0
    3.5830   -1.4550    0.1720 O   0  0  0  0  0  0  0  0  0  0  0  0
    2.4310   -0.7930   -0.2210 C   0  0  0  0  0  0  0  0  0  0  0  0
    2.4720   -0.1400   -1.3120 O   0  0  0  0  0  0  0  0  0  0  0  0
    1.2230   -0.8210    0.5460 N   0  0  0  0  0  0  0  0  0  0  0  0
    0.0390   -0.1390    0.1600 C   0  0  0  0  0  0  0  0  0  0  0  0
   -0.9590   -0.9370   -0.1680 C   0  0  0  0  0  0  0  0  0  0  0  0
   -2.3140   -0.6310   -0.6130 C   0  0  0  0  0  0  0  0  0  0  0  0
   -3.3060   -1.5420   -0.2870 O   0  0  0  0  0  0  0  0  0  0  0  0
   -4.0410   -1.3650    0.8990 C   0  0  0  0  0  0  0  0  0  0  0  0
   -2.7290    0.4180   -1.2980 C   0  0  0  0  0  0  0  0  0  0  0  0
   -4.0600    0.5480   -1.6380 O   0  0  0  0  0  0  0  0  0  0  0  0
   -1.7160    1.7750   -1.8750 S   0  0  0  0  0  0  0  0  0  0  0  0
   -0.5940    2.1830   -0.5430 C   0  0  0  0  0  0  0  0  0  0  0  0
    0.0620    1.3180    0.2170 C   0  0  0  0  0  0  0  0  0  0  0  0
    0.8880    1.9360    1.2910 C   0  0  0  0  0  0  0  0  0  0  0  0
    2.2050    1.5880    1.1200 O   0  0  0  0  0  0  0  0  0  0  0  0
  1  2  1  0
  2  3  1  0
  3  4  2  0
  3  5  1  0
  5  6  1  0
  6  7  2  0
  6 15  1  0
  7  8  1  0
  8  9  1  0
  8 11  2  0
  9 10  1  0
 11 12  1  0
 11 13  1  0
 13 14  1  0
 14 15  2  0
 15 16  1  0
 16 17  1  0
M  END
