
     RDKit          3D

 18 18  0  0  0  0  0  0  0  0999 V2000
    4.9800    2.8380   -0.7760 C   0  0  0  0  0  0  0  0  0  0  0  0
    3.5660    2.7940   -0.7420 O   0  0  0  0  0  0  0  0  0  0  0  0
    2.9290    1.5840   -0.5280 C   0  0  0  0  0  0  0  0  0  0  0  0
    3.6460    0.5650   -0.3720 O   0  0  0  0  0  0  0  0  0  0  0  0
    1.4540    1.4900   -0.4850 C   0  0  0  0  0  0  0  0  0  0  0  0
    0.7320    2.4850   -0.6370 O   0  0  0  0  0  0  0  0  0  0  0  0
    0.8690    0.2290   -0.2630 N   0  0  0  0  0  0  0  0  0  0  0  0
   -0.4950   -0.0920   -0.1840 C   0  0  0  0  0  0  0  0  0  0  0  0
   -1.4410    0.7950   -0.3130 C   0  0  0  0  0  0  0  0  0  0  0  0
   -3.1900    0.3120   -0.1990 S   0  0  0  0  0  0  0  0  0  0  0  0
   -4.0770    1.4960    0.7750 C   0  0  0  0  0  0  0  0  0  0  0  0
   -5.3050    1.3190    0.9590 O   0  0  0  0  0  0  0  0  0  0  0  0
   -3.4860    2.6080    1.3440 O   0  0  0  0  0  0  0  0  0  0  0  0
   -0.9110   -1.4930    0.0560 C   0  0  0  0  0  0  0  0  0  0  0  0
   -0.1100   -2.5370    0.2140 C   0  0  0  0  0  0  0  0  0  0  0  0
   -0.9160   -3.7590    0.4320 C   0  0  0  0  0  0  0  0  0  0  0  0
   -2.2750   -3.3330   -0.0680 C   0  0  0  0  0  0  0  0  0  0  0  0
   -2.2310   -1.9140    0.1510 O   0  0  0  0  0  0  0  0  0  0  0  0
  1  2  1  0
  2  3  1  0
  3  4  2  0
  3  5  1  0
  5  6  2  0
  5  7  1  0
  7  8  1  0
  8  9  2  3
  8 14  1  0
  9 10  1  0
 10 11  1  0
 11 12  2  0
 11 13  1  0
 14 15  2  0
 14 18  1  0
 15 16  1  0
 16 17  1  0
 17 18  1  0
M  END
