
     RDKit          3D

 11 10  0  0  0  0  0  0  0  0999 V2000
    1.8030   -1.7270   -0.3820 C   0  0  0  0  0  0  0  0  0  0  0  0
    0.8210   -0.9490   -1.0240 O   0  0  0  0  0  0  0  0  0  0  0  0
    0.0790    0.0320   -0.3530 C   0  0  0  0  0  0  0  0  0  0  0  0
   -1.1640   -0.2280   -0.0800 C   0  0  0  0  0  0  0  0  0  0  0  0
   -1.8260   -1.7940   -0.5720 Cl  0  0  0  0  0  0  0  0  0  0  0  0
   -2.0480    0.6910    0.6130 C   0  0  0  0  0  0  0  0  0  0  0  0
   -3.4250    1.0580   -0.4780 Cl  0  0  0  0  0  0  0  0  0  0  0  0
    0.6860    1.3220    0.0330 C   0  0  2  0  0  0  0  0  0  0  0  0
    2.3890    1.3480   -0.5510 Cl  0  0  0  0  0  0  0  0  0  0  0  0
    0.6890    1.6140    1.7700 Cl  0  0  0  0  0  0  0  0  0  0  0  0
   -0.1260    2.6840   -0.7670 Cl  0  0  0  0  0  0  0  0  0  0  0  0
  1  2  1  0
  2  3  1  0
  3  4  2  3
  3  8  1  0
  4  5  1  0
  4  6  1  0
  6  7  1  0
  8  9  1  6
  8 10  1  0
  8 11  1  0
M  END
