
     RDKit          3D

 12 13  0  0  0  0  0  0  0  0999 V2000
   -0.6430   -2.0390    2.0480 Cl  0  0  0  0  0  0  0  0  0  0  0  0
   -1.6550   -0.8300    1.2290 C   0  0  0  0  0  0  0  0  0  0  0  0
   -3.1700   -0.3510    1.9560 Cl  0  0  0  0  0  0  0  0  0  0  0  0
   -1.2970   -0.2930    0.1000 C   0  0  0  0  0  0  0  0  0  0  0  0
   -0.0610   -0.7320   -0.4230 O   0  0  0  0  0  0  0  0  0  0  0  0
    1.0850   -0.1910    0.2370 C   0  0  1  0  0  0  0  0  0  0  0  0
    2.4500   -0.6050   -0.2560 C   0  0  0  0  0  0  0  0  0  0  0  0
    1.9140    0.7110   -0.5800 C   0  0  0  0  0  0  0  0  0  0  0  0
   -2.0950    0.7000   -0.6050 C   0  0  2  0  0  0  0  0  0  0  0  0
   -3.6060    1.1640    0.1410 Cl  0  0  0  0  0  0  0  0  0  0  0  0
   -2.4870    0.0050   -2.2260 Cl  0  0  0  0  0  0  0  0  0  0  0  0
   -1.1130    2.1830   -0.8200 Cl  0  0  0  0  0  0  0  0  0  0  0  0
  1  2  1  0
  2  3  1  0
  2  4  2  0
  4  5  1  0
  4  9  1  0
  6  5  1  6
  6  7  1  0
  6  8  1  0
  7  8  1  0
  9 10  1  0
  9 11  1  6
  9 12  1  0
 10  3  1  0
M  END
