
     RDKit          3D

 11 10  0  0  0  0  0  0  0  0999 V2000
   -2.0250   -0.1150   -1.2550 C   0  0  0  0  0  0  0  0  0  0  0  0
   -1.0260    0.6240   -0.4820 C   0  0  0  0  0  0  0  0  0  0  0  0
   -1.3190    2.3690   -0.3030 Cl  0  0  0  0  0  0  0  0  0  0  0  0
    0.0780    0.1010    0.0920 C   0  0  0  0  0  0  0  0  0  0  0  0
    0.9940    1.0110    0.8510 C   0  0  0  0  0  0  0  0  0  0  0  0
    0.5420    2.3430    0.8530 O   0  0  0  0  0  0  0  0  0  0  0  0
    0.3980   -1.2870   -0.0070 C   0  0  0  0  0  0  0  0  0  0  0  0
   -0.6870   -2.3760   -0.9320 Cl  0  0  0  0  0  0  0  0  0  0  0  0
    1.4350   -1.8690    0.5210 C   0  0  0  0  0  0  0  0  0  0  0  0
    1.7140   -3.6140    0.3170 Cl  0  0  0  0  0  0  0  0  0  0  0  0
    2.6130   -1.0180    1.4600 Cl  0  0  0  0  0  0  0  0  0  0  0  0
  1  2  1  0
  2  3  1  0
  2  4  2  3
  4  5  1  0
  4  7  1  0
  5  6  1  0
  7  8  1  0
  7  9  2  3
  9 10  1  0
  9 11  1  0
M  END
