
     RDKit          3D

 18 19  0  0  0  0  0  0  0  0999 V2000
    5.4800   -0.3930   -0.3590 O   0  0  0  0  0  0  0  0  0  0  0  0
    5.0130   -0.1950    0.7880 C   0  0  0  0  0  0  0  0  0  0  0  0
    5.8880   -0.0670    1.8450 O   0  0  0  0  0  0  0  0  0  0  0  0
    3.5710   -0.1090    0.9560 C   0  0  0  0  0  0  0  0  0  0  0  0
    3.0900    0.0880    2.0990 O   0  0  0  0  0  0  0  0  0  0  0  0
    2.6870   -0.2450   -0.1550 N   0  0  0  0  0  0  0  0  0  0  0  0
    1.2720   -0.1520    0.0630 C   0  0  0  0  0  0  0  0  0  0  0  0
    0.5430    0.1240    1.6550 S   0  0  0  0  0  0  0  0  0  0  0  0
   -1.1420    0.1120    1.0880 C   0  0  0  0  0  0  0  0  0  0  0  0
   -1.0180   -0.0970   -0.2360 C   0  0  0  0  0  0  0  0  0  0  0  0
    0.2120   -0.2330   -0.7700 C   0  0  0  0  0  0  0  0  0  0  0  0
    0.4640   -0.4730   -2.2320 C   0  0  0  0  0  0  0  0  0  0  0  0
    1.6180   -0.5950   -2.6920 O   0  0  0  0  0  0  0  0  0  0  0  0
   -0.5700   -0.5700   -3.1420 O   0  0  0  0  0  0  0  0  0  0  0  0
   -2.3360   -0.1470   -0.9950 C   0  0  0  0  0  0  0  0  0  0  0  0
   -3.4850    0.3420   -0.2480 C   0  0  0  0  0  0  0  0  0  0  0  0
   -3.2870    1.0690    0.9560 N   0  0  0  0  0  0  0  0  0  0  0  0
   -2.4240    0.2890    1.8440 C   0  0  0  0  0  0  0  0  0  0  0  0
  1  2  2  0
  2  3  1  0
  2  4  1  0
  4  5  2  0
  4  6  1  0
  6  7  1  0
  7  8  1  0
  7 11  2  0
  8  9  1  0
  9 10  2  0
  9 18  1  0
 10 11  1  0
 10 15  1  0
 11 12  1  0
 12 13  2  0
 12 14  1  0
 15 16  1  0
 16 17  1  0
 17 18  1  0
M  CHG  1  17   1
M  END
