
     RDKit          3D

 11 10  0  0  0  0  0  0  0  0999 V2000
   -1.6310   -0.7680    1.5250 C   0  0  0  0  0  0  0  0  0  0  0  0
   -0.2630   -0.4960    1.3300 O   0  0  0  0  0  0  0  0  0  0  0  0
    0.2420   -0.0240    0.0900 C   0  0  0  0  0  0  0  0  0  0  0  0
   -0.6280    0.2300   -0.8240 C   0  0  0  0  0  0  0  0  0  0  0  0
   -0.5000    0.7170   -2.1900 C   0  0  0  0  0  0  0  0  0  0  0  0
   -1.3930    2.2540   -2.2920 Cl  0  0  0  0  0  0  0  0  0  0  0  0
    1.6850    0.0960    0.0650 C   0  0  0  0  0  0  0  0  0  0  0  0
    2.5070    0.6640   -1.3570 Cl  0  0  0  0  0  0  0  0  0  0  0  0
    2.4160   -0.2290    1.1480 C   0  0  0  0  0  0  0  0  0  0  0  0
    4.1480   -0.0680    1.0680 Cl  0  0  0  0  0  0  0  0  0  0  0  0
    1.6690   -0.8050    2.6220 Cl  0  0  0  0  0  0  0  0  0  0  0  0
  1  2  1  0
  2  3  1  0
  3  4  2  3
  3  7  1  0
  4  5  1  0
  5  6  1  0
  7  8  1  0
  7  9  2  3
  9 10  1  0
  9 11  1  0
M  END
