
     RDKit          3D

 12 12  0  0  0  0  0  0  0  0999 V2000
   -1.0530   -1.5550    1.3000 C   0  0  0  0  0  0  0  0  0  0  0  0
   -1.5450   -0.6860    0.1760 C   0  0  0  0  0  0  0  0  0  0  0  0
   -2.9600   -1.1300   -0.7400 Cl  0  0  0  0  0  0  0  0  0  0  0  0
   -0.8840    0.4030   -0.0980 C   0  0  0  0  0  0  0  0  0  0  0  0
    0.2460    0.6930    0.6740 O   0  0  0  0  0  0  0  0  0  0  0  0
    1.5380    0.8380    0.2260 C   0  0  0  0  0  0  0  0  0  0  0  0
    2.1840   -0.3260   -0.4370 C   0  0  0  0  0  0  0  0  0  0  0  0
    2.3270   -1.7590    0.6140 Cl  0  0  0  0  0  0  0  0  0  0  0  0
   -1.2830    1.3300   -1.1800 C   0  0  1  0  0  0  0  0  0  0  0  0
   -1.4500    2.9540   -0.4320 Cl  0  0  0  0  0  0  0  0  0  0  0  0
   -0.0470    1.4580   -2.4620 Cl  0  0  0  0  0  0  0  0  0  0  0  0
   -2.8390    0.9420   -1.9320 Cl  0  0  0  0  0  0  0  0  0  0  0  0
  1  2  1  0
  2  3  1  0
  2  4  2  0
  4  5  1  0
  4  9  1  0
  5  6  1  0
  6  7  1  0
  7  8  1  0
  9 10  1  1
  9 11  1  0
  9 12  1  0
 12  3  1  0
M  END
