
     RDKit          3D

 12 12  0  0  0  0  0  0  0  0999 V2000
   -1.1380   -1.4840    1.8450 Cl  0  0  0  0  0  0  0  0  0  0  0  0
   -2.0670   -0.1840    1.1930 C   0  0  0  0  0  0  0  0  0  0  0  0
   -3.7040    0.0660    1.7090 Cl  0  0  0  0  0  0  0  0  0  0  0  0
   -1.5420    0.6200    0.3160 C   0  0  0  0  0  0  0  0  0  0  0  0
   -2.3730    1.9780   -0.4200 Cl  0  0  0  0  0  0  0  0  0  0  0  0
   -0.1520    0.3650   -0.1000 C   0  0  0  0  0  0  0  0  0  0  0  0
    0.3960   -0.8380   -0.4380 C   0  0  0  0  0  0  0  0  0  0  0  0
    1.7280   -0.5800   -0.7540 C   0  0  0  0  0  0  0  0  0  0  0  0
    2.8640   -1.8080   -1.2490 Cl  0  0  0  0  0  0  0  0  0  0  0  0
    1.9180    0.7670   -0.5900 C   0  0  0  0  0  0  0  0  0  0  0  0
    3.4120    1.6140   -0.8500 Cl  0  0  0  0  0  0  0  0  0  0  0  0
    0.7730    1.2830   -0.2020 O   0  0  0  0  0  0  0  0  0  0  0  0
  1  2  1  0
  2  3  1  0
  2  4  2  3
  4  5  1  0
  4  6  1  0
  6  7  2  0
  6 12  1  0
  7  8  1  0
  8  9  1  0
  8 10  2  0
 10 11  1  0
 10 12  1  0
M  END
