
     RDKit          3D

 20 20  0  0  0  0  0  0  0  0999 V2000
   -5.8800   -0.4860    0.6240 C   0  0  0  0  0  0  0  0  0  0  0  0
   -5.4550   -0.4260   -0.8070 C   0  0  0  0  0  0  0  0  0  0  0  0
   -4.0880   -0.8640   -1.0920 C   0  0  0  0  0  0  0  0  0  0  0  0
   -2.9380   -0.0890   -0.4840 C   0  0  1  0  0  0  0  0  0  0  0  0
   -2.9100   -0.0390    0.9920 C   0  0  0  0  0  0  0  0  0  0  0  0
   -1.6980   -0.7020   -1.0500 C   0  0  0  0  0  0  0  0  0  0  0  0
   -0.4360   -0.0290   -0.5230 C   0  0  2  0  0  0  0  0  0  0  0  0
   -0.4980    1.4180   -0.9140 C   0  0  0  0  0  0  0  0  0  0  0  0
    0.6400    2.2760   -0.4700 C   0  0  0  0  0  0  0  0  0  0  0  0
    0.7190   -0.7740   -1.1900 C   0  0  0  0  0  0  0  0  0  0  0  0
    2.0640   -0.3630   -0.8400 C   0  0  0  0  0  0  0  0  0  0  0  0
    2.8480    0.3670   -1.7230 C   0  0  0  0  0  0  0  0  0  0  0  0
    4.1360    0.7400   -1.4210 C   0  0  0  0  0  0  0  0  0  0  0  0
    4.6460    0.3670   -0.1960 C   0  0  0  0  0  0  0  0  0  0  0  0
    6.0180    0.7220    0.2130 C   0  0  0  0  0  0  0  0  0  0  0  0
    6.7040    1.4420   -0.7600 O   0  0  0  0  0  0  0  0  0  0  0  0
    3.8900   -0.3580    0.7020 C   0  0  0  0  0  0  0  0  0  0  0  0
    2.6110   -0.7250    0.3940 C   0  0  0  0  0  0  0  0  0  0  0  0
    1.8040   -1.4520    1.2510 O   0  0  0  0  0  0  0  0  0  0  0  0
    2.1460   -1.9130    2.5200 C   0  0  0  0  0  0  0  0  0  0  0  0
  1  2  1  0
  2  3  1  0
  3  4  1  0
  4  5  1  1
  4  6  1  0
  7  6  1  6
  7  8  1  0
  7 10  1  0
  8  9  1  0
 10 11  1  0
 11 12  2  0
 11 18  1  0
 12 13  1  0
 13 14  2  0
 14 15  1  0
 14 17  1  0
 15 16  1  0
 17 18  2  0
 18 19  1  0
 19 20  1  0
M  END
