
     RDKit          3D

 15 15  0  0  0  0  0  0  0  0999 V2000
   -2.6550    0.4720   -1.0190 O   0  0  0  0  0  0  0  0  0  0  0  0
   -2.0850   -0.5880   -1.3500 C   0  0  0  0  0  0  0  0  0  0  0  0
   -2.2920   -1.0690   -2.6330 O   0  0  0  0  0  0  0  0  0  0  0  0
   -1.2220   -1.3030   -0.4080 C   0  0  0  0  0  0  0  0  0  0  0  0
   -1.0370   -0.6450    0.9280 C   0  0  1  0  0  0  0  0  0  0  0  0
   -0.4010    0.7100    0.8390 C   0  0  0  0  0  0  0  0  0  0  0  0
    0.9540    0.6160    0.2150 C   0  0  0  0  0  0  0  0  0  0  0  0
    2.0790    0.3870    1.0150 C   0  0  0  0  0  0  0  0  0  0  0  0
    3.3180    0.3070    0.4370 C   0  0  0  0  0  0  0  0  0  0  0  0
    3.5260    0.4400   -0.9090 C   0  0  0  0  0  0  0  0  0  0  0  0
    2.4350    0.6660   -1.7110 C   0  0  0  0  0  0  0  0  0  0  0  0
    1.1660    0.7500   -1.1350 C   0  0  0  0  0  0  0  0  0  0  0  0
   -2.3150   -0.6030    1.7010 C   0  0  0  0  0  0  0  0  0  0  0  0
   -3.3500   -1.0970    1.1840 O   0  0  0  0  0  0  0  0  0  0  0  0
   -2.3590   -0.0310    2.9640 O   0  0  0  0  0  0  0  0  0  0  0  0
  1  2  2  0
  2  3  1  0
  2  4  1  0
  5  4  1  6
  5  6  1  0
  5 13  1  0
  6  7  1  0
  7  8  2  0
  7 12  1  0
  8  9  1  0
  9 10  2  0
 10 11  1  0
 11 12  2  0
 13 14  2  0
 13 15  1  0
M  END
