
     RDKit          3D

 20 20  0  0  0  0  0  0  0  0999 V2000
   -3.7150    2.1370   -0.7180 C   0  0  0  0  0  0  0  0  0  0  0  0
   -4.1530    1.1030    0.2420 C   0  0  0  0  0  0  0  0  0  0  0  0
   -3.2490   -0.0080    0.5810 C   0  0  1  0  0  0  0  0  0  0  0  0
   -4.0150   -0.8060    1.5180 O   0  0  0  0  0  0  0  0  0  0  0  0
   -3.0960   -1.0110   -0.5730 C   0  0  0  0  0  0  0  0  0  0  0  0
   -4.4680   -1.5770   -0.8830 C   0  0  0  0  0  0  0  0  0  0  0  0
   -1.9960    0.2480    1.2970 C   0  0  0  0  0  0  0  0  0  0  0  0
   -0.9340    1.0960    0.7600 C   0  0  2  0  0  0  0  0  0  0  0  0
   -0.2920    0.7000   -0.5260 C   0  0  0  0  0  0  0  0  0  0  0  0
    0.1880    1.2050    1.8110 C   0  0  0  0  0  0  0  0  0  0  0  0
    0.7800   -0.0980    2.1920 C   0  0  0  0  0  0  0  0  0  0  0  0
    1.3940   -0.8730    1.2610 O   0  0  0  0  0  0  0  0  0  0  0  0
    2.4670   -0.7500    0.4710 C   0  0  0  0  0  0  0  0  0  0  0  0
    2.7700   -1.8090   -0.3940 C   0  0  0  0  0  0  0  0  0  0  0  0
    3.8350   -1.7910   -1.2380 C   0  0  0  0  0  0  0  0  0  0  0  0
    4.0890   -2.9500   -2.1220 C   0  0  0  0  0  0  0  0  0  0  0  0
    4.6360   -0.6610   -1.2170 C   0  0  0  0  0  0  0  0  0  0  0  0
    4.3700    0.3990   -0.3820 C   0  0  0  0  0  0  0  0  0  0  0  0
    5.2430    1.6010   -0.3770 C   0  0  0  0  0  0  0  0  0  0  0  0
    3.2760    0.3510    0.4680 C   0  0  0  0  0  0  0  0  0  0  0  0
  1  2  1  0
  2  3  1  0
  3  4  1  1
  3  5  1  0
  3  7  1  0
  5  6  1  0
  7  8  1  0
  8  9  1  6
  8 10  1  0
 10 11  1  0
 11 12  1  0
 12 13  1  0
 13 14  2  0
 13 20  1  0
 14 15  1  0
 15 16  1  0
 15 17  2  0
 17 18  1  0
 18 19  1  0
 18 20  2  0
M  END
