
     RDKit          3D

 20 20  0  0  0  0  0  0  0  0999 V2000
   -3.7830   -2.6520    0.5400 C   0  0  0  0  0  0  0  0  0  0  0  0
   -3.2120   -1.4550   -0.2370 C   0  0  0  0  0  0  0  0  0  0  0  0
   -3.4310   -0.2550    0.6430 C   0  0  0  0  0  0  0  0  0  0  0  0
   -2.9240    1.0130    0.0160 C   0  0  1  0  0  0  0  0  0  0  0  0
   -3.1220    2.1190    0.8440 O   0  0  0  0  0  0  0  0  0  0  0  0
   -1.4370    0.8870   -0.1680 C   0  0  0  0  0  0  0  0  0  0  0  0
   -0.7440    0.6830    1.1310 C   0  0  0  0  0  0  0  0  0  0  0  0
    0.7620    0.5730    0.9880 C   0  0  0  0  0  0  0  0  0  0  0  0
    1.1660   -0.5810    0.1110 C   0  0  0  0  0  0  0  0  0  0  0  0
    2.6520   -0.5870    0.0460 C   0  0  0  0  0  0  0  0  0  0  0  0
    3.3390    0.1210   -0.9400 C   0  0  0  0  0  0  0  0  0  0  0  0
    4.7000    0.1420   -1.0360 C   0  0  0  0  0  0  0  0  0  0  0  0
    5.3700    0.9170   -2.1100 C   0  0  0  0  0  0  0  0  0  0  0  0
    5.4500   -0.5650   -0.1230 C   0  0  0  0  0  0  0  0  0  0  0  0
    4.8160   -1.2860    0.8760 C   0  0  0  0  0  0  0  0  0  0  0  0
    5.5680   -2.0670    1.8890 C   0  0  0  0  0  0  0  0  0  0  0  0
    3.4330   -1.2880    0.9480 C   0  0  0  0  0  0  0  0  0  0  0  0
   -3.4820    1.2350   -1.3610 C   0  0  0  0  0  0  0  0  0  0  0  0
   -4.7740    1.4790   -1.5000 O   0  0  0  0  0  0  0  0  0  0  0  0
   -5.4040    2.5100   -0.9540 C   0  0  0  0  0  0  0  0  0  0  0  0
  1  2  1  0
  2  3  1  0
  3  4  1  0
  4  5  1  1
  4  6  1  0
  4 18  1  0
  6  7  1  0
  7  8  1  0
  8  9  1  0
  9 10  1  0
 10 11  2  0
 10 17  1  0
 11 12  1  0
 12 13  1  0
 12 14  2  0
 14 15  1  0
 15 16  1  0
 15 17  2  0
 18 19  1  0
 19 20  1  0
M  END
