
     RDKit          3D

 20 20  0  0  0  0  0  0  0  0999 V2000
   -4.7390   -3.6060    0.3460 C   0  0  0  0  0  0  0  0  0  0  0  0
   -3.6080   -2.6930    0.7620 C   0  0  0  0  0  0  0  0  0  0  0  0
   -2.8930   -2.1090   -0.4430 C   0  0  0  0  0  0  0  0  0  0  0  0
   -1.7820   -1.2130    0.1150 C   0  0  0  0  0  0  0  0  0  0  0  0
   -1.0060   -0.5800   -0.9530 C   0  0  0  0  0  0  0  0  0  0  0  0
   -0.9570    0.7350   -1.0340 C   0  0  0  0  0  0  0  0  0  0  0  0
   -1.6420    1.6440   -0.1050 C   0  0  2  0  0  0  0  0  0  0  0  0
   -3.0120    1.5980   -0.1780 O   0  0  0  0  0  0  0  0  0  0  0  0
   -1.1890    3.0690   -0.2860 C   0  0  0  0  0  0  0  0  0  0  0  0
   -1.8660    4.0210    0.6440 C   0  0  0  0  0  0  0  0  0  0  0  0
   -0.3340   -1.3730   -1.8650 O   0  0  0  0  0  0  0  0  0  0  0  0
    0.7580   -2.1470   -1.4710 C   0  0  0  0  0  0  0  0  0  0  0  0
    1.8790   -1.3450   -0.9130 C   0  0  0  0  0  0  0  0  0  0  0  0
    2.8690   -0.8700   -1.7570 C   0  0  0  0  0  0  0  0  0  0  0  0
    3.9240   -0.1190   -1.2580 C   0  0  0  0  0  0  0  0  0  0  0  0
    4.0230    0.1750    0.0800 C   0  0  0  0  0  0  0  0  0  0  0  0
    5.1510    0.9700    0.5730 C   0  0  0  0  0  0  0  0  0  0  0  0
    4.7560    2.4340    0.5230 C   0  0  0  0  0  0  0  0  0  0  0  0
    3.0480   -0.2910    0.9280 C   0  0  0  0  0  0  0  0  0  0  0  0
    1.9990   -1.0390    0.4240 C   0  0  0  0  0  0  0  0  0  0  0  0
  1  2  1  0
  2  3  1  0
  3  4  1  0
  4  5  1  0
  5  6  2  3
  5 11  1  0
  6  7  1  0
  7  8  1  6
  7  9  1  0
  9 10  1  0
 11 12  1  0
 12 13  1  0
 13 14  2  0
 13 20  1  0
 14 15  1  0
 15 16  2  0
 16 17  1  0
 16 19  1  0
 17 18  1  0
 19 20  2  0
M  END
