
     RDKit          3D

 20 20  0  0  0  0  0  0  0  0999 V2000
    5.5600    1.5230    0.7270 C   0  0  0  0  0  0  0  0  0  0  0  0
    4.2760    1.2840   -0.0520 C   0  0  0  0  0  0  0  0  0  0  0  0
    3.1640    1.6720    0.4930 C   0  0  0  0  0  0  0  0  0  0  0  0
    1.8040    1.5530   -0.0580 C   0  0  0  0  0  0  0  0  0  0  0  0
    0.9690    0.7690    0.8020 O   0  0  0  0  0  0  0  0  0  0  0  0
   -0.3750    0.5540    0.4350 C   0  0  0  0  0  0  0  0  0  0  0  0
   -0.7630    0.6090   -0.9930 C   0  0  0  0  0  0  0  0  0  0  0  0
   -1.2590    0.3100    1.3810 C   0  0  0  0  0  0  0  0  0  0  0  0
   -2.6640    0.0750    1.0850 C   0  0  0  0  0  0  0  0  0  0  0  0
   -3.6580    0.7130    1.8410 C   0  0  0  0  0  0  0  0  0  0  0  0
   -5.0000    0.5060    1.6150 C   0  0  0  0  0  0  0  0  0  0  0  0
   -5.4360   -0.3480    0.6260 C   0  0  0  0  0  0  0  0  0  0  0  0
   -6.8940   -0.5560    0.3970 C   0  0  0  0  0  0  0  0  0  0  0  0
   -4.4780   -0.9870   -0.1300 C   0  0  0  0  0  0  0  0  0  0  0  0
   -4.9610   -1.9040   -1.1920 C   0  0  0  0  0  0  0  0  0  0  0  0
   -3.1150   -0.7740    0.1030 C   0  0  0  0  0  0  0  0  0  0  0  0
    4.3590    0.6290   -1.3630 C   0  0  0  0  0  0  0  0  0  0  0  0
    4.9910   -0.7570   -1.2520 C   0  0  0  0  0  0  0  0  0  0  0  0
    4.1890   -1.6600   -0.3370 C   0  0  0  0  0  0  0  0  0  0  0  0
    4.8550   -2.8930   -0.3080 O   0  0  0  0  0  0  0  0  0  0  0  0
  1  2  1  0
  2  3  2  3
  2 17  1  0
  3  4  1  0
  4  5  1  0
  5  6  1  0
  6  7  1  0
  6  8  2  3
  8  9  1  0
  9 10  2  0
  9 16  1  0
 10 11  1  0
 11 12  2  0
 12 13  1  0
 12 14  1  0
 14 15  1  0
 14 16  2  0
 17 18  1  0
 18 19  1  0
 19 20  1  0
M  END
