
     RDKit          3D

 20 20  0  0  0  0  0  0  0  0999 V2000
   -2.7210    3.5030    1.8090 C   0  0  0  0  0  0  0  0  0  0  0  0
   -3.5620    2.5780    2.6500 C   0  0  0  0  0  0  0  0  0  0  0  0
   -4.1570    1.6300    1.8310 O   0  0  0  0  0  0  0  0  0  0  0  0
   -3.5460    0.7050    1.0300 C   0  0  0  0  0  0  0  0  0  0  0  0
   -2.1770    0.5890    0.9370 C   0  0  0  0  0  0  0  0  0  0  0  0
   -1.5380   -0.3460    0.1260 C   0  0  0  0  0  0  0  0  0  0  0  0
   -0.0810   -0.3890    0.1330 C   0  0  0  0  0  0  0  0  0  0  0  0
    0.5370   -1.4370    1.0070 C   0  0  0  0  0  0  0  0  0  0  0  0
    2.0200   -1.4200    0.9500 C   0  0  0  0  0  0  0  0  0  0  0  0
    2.6980   -0.5720    0.2060 C   0  0  0  0  0  0  0  0  0  0  0  0
    4.1810   -0.5600    0.1530 C   0  0  2  0  0  0  0  0  0  0  0  0
    4.6840    0.7330    0.7050 C   0  0  0  0  0  0  0  0  0  0  0  0
    4.6570   -0.8180   -1.2600 C   0  0  0  0  0  0  0  0  0  0  0  0
    4.1800    0.1920   -2.2500 C   0  0  0  0  0  0  0  0  0  0  0  0
   -2.2810   -1.1990   -0.6220 C   0  0  0  0  0  0  0  0  0  0  0  0
   -1.7260   -2.2170   -1.5380 C   0  0  0  0  0  0  0  0  0  0  0  0
   -1.2480   -1.4950   -2.7800 C   0  0  0  0  0  0  0  0  0  0  0  0
   -3.6580   -1.0920   -0.5360 C   0  0  0  0  0  0  0  0  0  0  0  0
   -4.3090   -0.1770    0.2570 C   0  0  0  0  0  0  0  0  0  0  0  0
   -5.7010   -0.1050    0.3120 O   0  0  0  0  0  0  0  0  0  0  0  0
  1  2  1  0
  2  3  1  0
  3  4  1  0
  4  5  2  0
  4 19  1  0
  5  6  1  0
  6  7  1  0
  6 15  2  0
  7  8  1  0
  8  9  1  0
  9 10  2  3
 10 11  1  0
 11 12  1  6
 11 13  1  0
 13 14  1  0
 15 16  1  0
 15 18  1  0
 16 17  1  0
 18 19  2  0
 19 20  1  0
M  END
