
     RDKit          3D

  9  8  0  0  0  0  0  0  0  0999 V2000
    3.6700    0.7070   -0.2790 O   0  0  0  0  0  0  0  0  0  0  0  0
    2.8390   -0.3860   -0.3860 C   0  0  0  0  0  0  0  0  0  0  0  0
    1.5710   -0.0430    0.0110 O   0  0  0  0  0  0  0  0  0  0  0  0
    0.6700   -1.0980   -0.0690 C   0  0  0  0  0  0  0  0  0  0  0  0
   -0.6050   -0.7350    0.3350 O   0  0  0  0  0  0  0  0  0  0  0  0
   -1.0410    0.2860   -0.4890 C   0  0  0  0  0  0  0  0  0  0  0  0
   -2.4130    0.7790   -0.1640 C   0  0  2  0  0  0  0  0  0  0  0  0
   -2.4660    1.2750    1.1500 O   0  0  0  0  0  0  0  0  0  0  0  0
   -3.4090   -0.1500   -0.4130 O   0  0  0  0  0  0  0  0  0  0  0  0
  1  2  1  0
  2  3  1  0
  3  4  1  0
  4  5  1  0
  5  6  1  0
  6  7  1  0
  7  8  1  1
  7  9  1  0
M  END
