
     RDKit          3D

  9  8  0  0  0  0  0  0  0  0999 V2000
   -2.8880    0.3800    1.6240 O   0  0  0  0  0  0  0  0  0  0  0  0
   -2.2540   -0.2790    0.5710 C   0  0  0  0  0  0  0  0  0  0  0  0
   -1.2390    0.6800   -0.0590 C   0  0  0  0  0  0  0  0  0  0  0  0
   -0.5670    0.1090   -1.1080 O   0  0  0  0  0  0  0  0  0  0  0  0
    0.1520   -1.0130   -0.7950 C   0  0  0  0  0  0  0  0  0  0  0  0
    1.1400   -0.8120    0.1590 O   0  0  0  0  0  0  0  0  0  0  0  0
    2.0850    0.1100   -0.2110 C   0  0  1  0  0  0  0  0  0  0  0  0
    2.1470    1.2150    0.6440 O   0  0  0  0  0  0  0  0  0  0  0  0
    3.3730   -0.4210   -0.2680 O   0  0  0  0  0  0  0  0  0  0  0  0
  1  2  1  0
  2  3  1  0
  3  4  1  0
  4  5  1  0
  5  6  1  0
  6  7  1  0
  7  8  1  1
  7  9  1  0
M  END
