
     RDKit          3D

  9  8  0  0  0  0  0  0  0  0999 V2000
   -2.4590    0.8630   -1.5350 O   0  0  0  0  0  0  0  0  0  0  0  0
   -1.9530   -0.1340   -0.7040 C   0  0  0  0  0  0  0  0  0  0  0  0
   -1.1260    0.5410    0.3970 C   0  0  1  0  0  0  0  0  0  0  0  0
   -1.9950    1.4060    1.1020 O   0  0  0  0  0  0  0  0  0  0  0  0
   -0.5760   -0.4040    1.2160 O   0  0  0  0  0  0  0  0  0  0  0  0
    0.8010   -0.3630    1.3060 C   0  0  0  0  0  0  0  0  0  0  0  0
    1.4720   -0.6110   -0.0020 C   0  0  0  0  0  0  0  0  0  0  0  0
    2.8510   -0.5490    0.2000 O   0  0  0  0  0  0  0  0  0  0  0  0
    3.5330   -0.7530   -0.8910 O   0  0  0  0  0  0  0  0  0  0  0  0
  1  2  1  0
  2  3  1  0
  3  4  1  1
  3  5  1  0
  5  6  1  0
  6  7  1  0
  7  8  1  0
  8  9  1  0
M  END
