
     RDKit          3D

  9  8  0  0  0  0  0  0  0  0999 V2000
   -2.9120   -0.1540    0.9530 O   0  0  0  0  0  0  0  0  0  0  0  0
   -2.3550    0.6310   -0.0470 C   0  0  0  0  0  0  0  0  0  0  0  0
   -1.0930    0.0160   -0.6020 C   0  0  2  0  0  0  0  0  0  0  0  0
   -1.4140   -1.2350   -1.1330 O   0  0  0  0  0  0  0  0  0  0  0  0
   -0.1290   -0.1700    0.3770 O   0  0  0  0  0  0  0  0  0  0  0  0
    1.0360    0.4900    0.0110 C   0  0  1  0  0  0  0  0  0  0  0  0
    1.3580    1.4330    0.9910 O   0  0  0  0  0  0  0  0  0  0  0  0
    2.1860   -0.4990   -0.1680 C   0  0  0  0  0  0  0  0  0  0  0  0
    2.4390   -1.1920    1.0090 O   0  0  0  0  0  0  0  0  0  0  0  0
  1  2  1  0
  2  3  1  0
  3  4  1  1
  3  5  1  0
  5  6  1  0
  6  7  1  1
  6  8  1  0
  8  9  1  0
M  END
