
     RDKit          3D

  9  8  0  0  0  0  0  0  0  0999 V2000
   -3.0320    1.3470    0.2210 C   0  0  0  0  0  0  0  0  0  0  0  0
   -1.9690    0.7100   -0.4390 O   0  0  0  0  0  0  0  0  0  0  0  0
   -0.8930    0.2250    0.2710 C   0  0  0  0  0  0  0  0  0  0  0  0
   -0.9080    0.3760    1.5080 O   0  0  0  0  0  0  0  0  0  0  0  0
    0.2010   -0.4330   -0.4220 C   0  0  1  0  0  0  0  0  0  0  0  0
    0.0150   -0.4930   -1.7880 O   0  0  0  0  0  0  0  0  0  0  0  0
    1.4490    0.1220   -0.1860 O   0  0  0  0  0  0  0  0  0  0  0  0
    2.3460   -0.7700    0.3810 C   0  0  0  0  0  0  0  0  0  0  0  0
    3.5490   -0.0800    0.5610 O   0  0  0  0  0  0  0  0  0  0  0  0
  1  2  1  0
  2  3  1  0
  3  4  2  0
  3  5  1  0
  5  6  1  6
  5  7  1  0
  7  8  1  0
  8  9  1  0
M  END
