
     RDKit          3D

 11 11  0  0  0  0  0  0  0  0999 V2000
    4.1380    0.1800   -0.1640 C   0  0  0  0  0  0  0  0  0  0  0  0
    3.0100    0.3250   -0.9020 O   0  0  0  0  0  0  0  0  0  0  0  0
    1.8760    0.5190   -0.1830 C   0  0  0  0  0  0  0  0  0  0  0  0
    1.5890   -0.6460    0.7110 C   0  0  0  0  0  0  0  0  0  0  0  0
    0.3820   -0.4320    1.4640 O   0  0  0  0  0  0  0  0  0  0  0  0
   -0.8250   -0.2390    0.8170 C   0  0  0  0  0  0  0  0  0  0  0  0
   -1.3950   -1.1550    0.0580 C   0  0  0  0  0  0  0  0  0  0  0  0
   -2.6870   -0.9690   -0.6420 C   0  0  0  0  0  0  0  0  0  0  0  0
   -3.3080    0.2930   -0.4510 N   0  0  0  0  0  0  0  0  0  0  0  0
   -2.6400    1.2060    0.3660 C   0  0  0  0  0  0  0  0  0  0  0  0
   -1.4990    1.0280    0.9790 C   0  0  0  0  0  0  0  0  0  0  0  0
  1  2  1  0
  2  3  1  0
  3  4  1  0
  4  5  1  0
  5  6  1  0
  6  7  2  0
  6 11  1  0
  7  8  1  0
  8  9  1  0
  9 10  1  0
 10 11  2  0
M  CHG  1   9   1
M  END
