
     RDKit          3D

 11 11  0  0  0  0  0  0  0  0999 V2000
    3.5230    0.2330   -0.7410 N   0  0  0  0  0  0  0  0  0  0  0  0
    2.2240   -0.4270   -0.7220 C   0  0  0  0  0  0  0  0  0  0  0  0
    1.3380    0.3670    0.1950 C   0  0  0  0  0  0  0  0  0  0  0  0
   -0.0540   -0.2220    0.3020 C   0  0  1  0  0  0  0  0  0  0  0  0
    0.1130   -1.5270    0.8080 O   0  0  0  0  0  0  0  0  0  0  0  0
   -0.8310    0.5710    1.2800 C   0  0  0  0  0  0  0  0  0  0  0  0
   -2.2880    0.5760    1.1800 C   0  0  0  0  0  0  0  0  0  0  0  0
   -2.8740    0.2780   -0.1690 C   0  0  0  0  0  0  0  0  0  0  0  0
   -2.0610   -0.6720   -0.9550 C   0  0  0  0  0  0  0  0  0  0  0  0
   -2.5410   -1.6660   -1.4750 O   0  0  0  0  0  0  0  0  0  0  0  0
   -0.6160   -0.3250   -1.0640 C   0  0  0  0  0  0  0  0  0  0  0  0
  1  2  1  0
  2  3  1  0
  3  4  1  0
  4  5  1  1
  4  6  1  0
  4 11  1  0
  6  7  1  0
  7  8  1  0
  8  9  1  0
  9 10  2  0
  9 11  1  0
M  CHG  1   1   1
M  END
