
     RDKit          3D

 11 11  0  0  0  0  0  0  0  0999 V2000
   -0.5170   -2.2990   -1.0930 N   0  0  0  0  0  0  0  0  0  0  0  0
    0.6060   -1.4720   -0.8520 C   0  0  0  0  0  0  0  0  0  0  0  0
    0.2740   -0.2430    0.0110 C   0  0  2  0  0  0  0  0  0  0  0  0
    1.6220    0.4850    0.1330 C   0  0  0  0  0  0  0  0  0  0  0  0
    1.5120    1.7400    0.9570 C   0  0  0  0  0  0  0  0  0  0  0  0
    2.7890    2.3040    0.9930 O   0  0  0  0  0  0  0  0  0  0  0  0
   -0.2640   -0.6400    1.3370 C   0  0  0  0  0  0  0  0  0  0  0  0
   -1.4720    0.0810    1.8090 C   0  0  0  0  0  0  0  0  0  0  0  0
   -1.7430    1.2620    1.1150 O   0  0  0  0  0  0  0  0  0  0  0  0
   -1.9800    0.8480   -0.2180 C   0  0  0  0  0  0  0  0  0  0  0  0
   -0.6150    0.6190   -0.8170 C   0  0  0  0  0  0  0  0  0  0  0  0
  1  2  1  0
  3  2  1  6
  3  4  1  0
  3  7  1  0
  3 11  1  0
  4  5  1  0
  5  6  1  0
  7  8  1  0
  8  9  1  0
  9 10  1  0
 10 11  1  0
M  CHG  1   1   1
M  END
