
     RDKit          3D

 11 11  0  0  0  0  0  0  0  0999 V2000
    3.9470   -0.6820   -0.7840 N   0  0  0  0  0  0  0  0  0  0  0  0
    3.0070   -0.1090    0.1580 C   0  0  0  0  0  0  0  0  0  0  0  0
    1.6200   -0.0990   -0.4380 C   0  0  0  0  0  0  0  0  0  0  0  0
    0.6280    0.4980    0.5360 C   0  0  0  0  0  0  0  0  0  0  0  0
   -0.7720    0.5170   -0.0420 C   0  0  1  0  0  0  0  0  0  0  0  0
   -0.7250    1.3030   -1.2170 O   0  0  0  0  0  0  0  0  0  0  0  0
   -1.2290   -0.8410   -0.4290 C   0  0  0  0  0  0  0  0  0  0  0  0
   -2.7220   -1.0050   -0.4730 C   0  0  0  0  0  0  0  0  0  0  0  0
   -3.3840    0.2260   -0.2610 O   0  0  0  0  0  0  0  0  0  0  0  0
   -3.0390    0.6110    1.0350 C   0  0  0  0  0  0  0  0  0  0  0  0
   -1.6570    1.2170    0.9500 C   0  0  0  0  0  0  0  0  0  0  0  0
  1  2  1  0
  2  3  1  0
  3  4  1  0
  4  5  1  0
  5  6  1  6
  5  7  1  0
  5 11  1  0
  7  8  1  0
  8  9  1  0
  9 10  1  0
 10 11  1  0
M  CHG  1   1   1
M  END
