
     RDKit          3D

 11 11  0  0  0  0  0  0  0  0999 V2000
    3.2780   -0.3140   -0.6200 N   0  0  0  0  0  0  0  0  0  0  0  0
    1.8810   -0.7730   -0.6720 C   0  0  0  0  0  0  0  0  0  0  0  0
    1.0890    0.1470    0.1930 C   0  0  0  0  0  0  0  0  0  0  0  0
   -0.3710   -0.1730    0.2590 C   0  0  2  0  0  0  0  0  0  0  0  0
   -0.5250   -1.5720    0.8160 C   0  0  0  0  0  0  0  0  0  0  0  0
    0.0520   -1.5850    2.0970 O   0  0  0  0  0  0  0  0  0  0  0  0
   -1.0820    0.0170   -1.0390 C   0  0  0  0  0  0  0  0  0  0  0  0
   -2.4270    0.6640   -0.9210 C   0  0  0  0  0  0  0  0  0  0  0  0
   -2.4350    1.8430   -0.2170 O   0  0  0  0  0  0  0  0  0  0  0  0
   -1.3180    2.0330    0.5790 C   0  0  0  0  0  0  0  0  0  0  0  0
   -1.0060    0.7610    1.2960 C   0  0  0  0  0  0  0  0  0  0  0  0
  1  2  1  0
  2  3  1  0
  4  3  1  6
  4  5  1  0
  4  7  1  0
  4 11  1  0
  5  6  1  0
  7  8  1  0
  8  9  1  0
  9 10  1  0
 10 11  1  0
M  CHG  1   1   1
M  END
