
     RDKit          3D

 11 11  0  0  0  0  0  0  0  0999 V2000
    3.4350   -0.0680   -0.8890 O   0  0  0  0  0  0  0  0  0  0  0  0
    2.9340   -1.0950   -0.0670 C   0  0  0  0  0  0  0  0  0  0  0  0
    1.4010   -1.1090   -0.1590 C   0  0  0  0  0  0  0  0  0  0  0  0
    0.9530    0.1680    0.2880 N   0  0  0  0  0  0  0  0  0  0  0  0
   -0.4290    0.4350    0.1530 C   0  0  2  0  0  0  0  0  0  0  0  0
   -0.5760    1.9640    0.2040 C   0  0  0  0  0  0  0  0  0  0  0  0
    0.1750    2.4480   -0.8650 O   0  0  0  0  0  0  0  0  0  0  0  0
   -1.2500   -0.0750    1.3390 C   0  0  0  0  0  0  0  0  0  0  0  0
   -2.5520   -0.4520    0.6630 C   0  0  0  0  0  0  0  0  0  0  0  0
   -1.9910   -1.1630   -0.5770 C   0  0  0  0  0  0  0  0  0  0  0  0
   -1.0830   -0.0380   -1.0810 C   0  0  0  0  0  0  0  0  0  0  0  0
  1  2  1  0
  2  3  1  0
  3  4  1  0
  4  5  1  0
  5  6  1  6
  5  8  1  0
  5 11  1  0
  6  7  1  0
  8  9  1  0
  9 10  1  0
 10 11  1  0
M  CHG  1   4   1
M  END
