
     RDKit          3D

 11 11  0  0  0  0  0  0  0  0999 V2000
   -3.0230    0.6420   -0.5370 N   0  0  0  0  0  0  0  0  0  0  0  0
   -2.1720   -0.4430   -0.0870 C   0  0  0  0  0  0  0  0  0  0  0  0
   -0.9260    0.1070    0.6080 C   0  0  1  0  0  0  0  0  0  0  0  0
   -0.0670   -1.0280    1.0610 C   0  0  0  0  0  0  0  0  0  0  0  0
    0.8880   -1.5170    0.0080 C   0  0  0  0  0  0  0  0  0  0  0  0
    1.6620   -0.4210   -0.6360 C   0  0  2  0  0  0  0  0  0  0  0  0
    2.7460    0.0610    0.2590 C   0  0  0  0  0  0  0  0  0  0  0  0
    2.8820   -0.4770    1.3880 O   0  0  0  0  0  0  0  0  0  0  0  0
    3.6150    1.0810   -0.1040 O   0  0  0  0  0  0  0  0  0  0  0  0
    0.8120    0.7250   -1.1100 C   0  0  0  0  0  0  0  0  0  0  0  0
   -0.2400    1.1580   -0.1740 C   0  0  0  0  0  0  0  0  0  0  0  0
  1  2  1  0
  3  2  1  6
  3  4  1  0
  3 11  1  0
  4  5  1  0
  5  6  1  0
  6  7  1  1
  6 10  1  0
  7  8  2  0
  7  9  1  0
 10 11  1  0
M  CHG  1   1   1
M  END
