
     RDKit          3D

 11 11  0  0  0  0  0  0  0  0999 V2000
    0.1040    2.6060    0.0780 N   0  0  0  0  0  0  0  0  0  0  0  0
    0.9320    1.5080   -0.3280 C   0  0  0  0  0  0  0  0  0  0  0  0
    0.1520    0.2170   -0.2190 C   0  0  2  0  0  0  0  0  0  0  0  0
    0.9600   -0.9780   -0.6300 C   0  0  0  0  0  0  0  0  0  0  0  0
    2.2010   -1.1850    0.1940 C   0  0  0  0  0  0  0  0  0  0  0  0
    1.9600   -1.3740    1.5340 O   0  0  0  0  0  0  0  0  0  0  0  0
   -1.0610    0.2790   -1.1230 C   0  0  0  0  0  0  0  0  0  0  0  0
   -1.8880   -0.9500   -0.8780 C   0  0  0  0  0  0  0  0  0  0  0  0
   -2.0660   -1.2730    0.5890 C   0  0  0  0  0  0  0  0  0  0  0  0
   -0.8470   -1.2780    1.2650 O   0  0  0  0  0  0  0  0  0  0  0  0
   -0.3600    0.0360    1.1920 C   0  0  0  0  0  0  0  0  0  0  0  0
  1  2  1  0
  3  2  1  1
  3  4  1  0
  3  7  1  0
  3 11  1  0
  4  5  1  0
  5  6  1  0
  7  8  1  0
  8  9  1  0
  9 10  1  0
 10 11  1  0
M  CHG  1   1   1
M  END
