
     RDKit          3D

 22 24  0  0  0  0  0  0  0  0999 V2000
   -5.8880    2.2360    0.6360 C   0  0  0  0  0  0  0  0  0  0  0  0
   -5.1460    0.9980    0.4050 C   0  0  0  0  0  0  0  0  0  0  0  0
   -5.4940   -0.2730    0.2050 C   0  0  0  0  0  0  0  0  0  0  0  0
   -4.5860   -1.2360    0.0130 C   0  0  0  0  0  0  0  0  0  0  0  0
   -3.2590   -0.8560    0.0320 C   0  0  0  0  0  0  0  0  0  0  0  0
   -2.0450   -1.6450   -0.1400 C   0  0  0  0  0  0  0  0  0  0  0  0
   -2.0560   -2.8700   -0.3440 O   0  0  0  0  0  0  0  0  0  0  0  0
   -0.7140   -0.9940   -0.0760 C   0  0  0  0  0  0  0  0  0  0  0  0
   -0.7220    0.2250    0.1270 O   0  0  0  0  0  0  0  0  0  0  0  0
    0.4660   -1.7230   -0.2380 N   0  0  0  0  0  0  0  0  0  0  0  0
    1.7510   -1.1570   -0.1920 C   0  0  0  0  0  0  0  0  0  0  0  0
    2.8490   -2.0300   -0.1110 C   0  0  0  0  0  0  0  0  0  0  0  0
    4.1490   -1.6230   -0.0730 C   0  0  0  0  0  0  0  0  0  0  0  0
    4.4180   -0.2820   -0.1160 C   0  0  0  0  0  0  0  0  0  0  0  0
    5.7310    0.1430   -0.0780 C   0  0  0  0  0  0  0  0  0  0  0  0
    6.0000    1.4580   -0.1200 N   0  0  0  0  0  0  0  0  0  0  0  0
    4.9920    2.3380   -0.1980 C   0  0  0  0  0  0  0  0  0  0  0  0
    3.6650    1.9520   -0.2380 C   0  0  0  0  0  0  0  0  0  0  0  0
    2.2410    3.2310   -0.3490 Br  0  0  0  0  0  0  0  0  0  0  0  0
    3.3800    0.6140   -0.1960 C   0  0  0  0  0  0  0  0  0  0  0  0
    2.0480    0.1650   -0.2330 C   0  0  0  0  0  0  0  0  0  0  0  0
   -3.3270    0.8940    0.3260 S   0  0  0  0  0  0  0  0  0  0  0  0
  1  2  1  0
  2  3  2  0
  2 22  1  0
  3  4  1  0
  4  5  2  0
  5  6  1  0
  5 22  1  0
  6  7  2  0
  6  8  1  0
  8  9  2  0
  8 10  1  0
 10 11  1  0
 11 12  2  0
 11 21  1  0
 12 13  1  0
 13 14  2  0
 14 15  1  0
 14 20  1  0
 15 16  2  0
 16 17  1  0
 17 18  2  0
 18 19  1  0
 18 20  1  0
 20 21  2  0
M  END
