
     RDKit          3D

 22 24  0  0  0  0  0  0  0  0999 V2000
   -4.4610   -1.1270    1.5960 C   0  0  0  0  0  0  0  0  0  0  0  0
   -3.7530   -1.0490    0.3010 C   0  0  0  0  0  0  0  0  0  0  0  0
   -4.2080   -1.5230   -0.9180 C   0  0  0  0  0  0  0  0  0  0  0  0
   -3.1970   -1.2160   -1.8220 C   0  0  0  0  0  0  0  0  0  0  0  0
   -2.1990   -0.5820   -1.1140 C   0  0  0  0  0  0  0  0  0  0  0  0
   -0.9400   -0.0940   -1.7290 C   0  0  0  0  0  0  0  0  0  0  0  0
   -0.0740    0.5620   -0.7710 N   0  0  0  0  0  0  0  0  0  0  0  0
   -0.5680    1.7250   -0.0990 C   0  0  0  0  0  0  0  0  0  0  0  0
    0.4170    2.3230    0.8710 C   0  0  0  0  0  0  0  0  0  0  0  0
   -0.1930    3.5410    1.5280 C   0  0  0  0  0  0  0  0  0  0  0  0
   -0.6050    4.7970    0.0970 Br  0  0  0  0  0  0  0  0  0  0  0  0
    1.2090   -0.0000   -0.5680 C   0  0  0  0  0  0  0  0  0  0  0  0
    2.3000    0.3770   -1.3070 C   0  0  0  0  0  0  0  0  0  0  0  0
    3.5530   -0.1370   -1.1460 C   0  0  0  0  0  0  0  0  0  0  0  0
    3.8030   -1.1330   -0.1640 C   0  0  0  0  0  0  0  0  0  0  0  0
    4.9500   -1.7180    0.1040 N   0  0  0  0  0  0  0  0  0  0  0  0
    5.0310   -2.6400    1.0600 C   0  0  0  0  0  0  0  0  0  0  0  0
    5.9760   -3.3410    1.5150 O   0  0  0  0  0  0  0  0  0  0  0  0
    3.3030   -2.7020    1.6610 S   0  0  0  0  0  0  0  0  0  0  0  0
    2.7090   -1.4960    0.5610 C   0  0  0  0  0  0  0  0  0  0  0  0
    1.4310   -0.9620    0.3870 C   0  0  0  0  0  0  0  0  0  0  0  0
   -2.5670   -0.5040    0.1300 O   0  0  0  0  0  0  0  0  0  0  0  0
  1  2  1  0
  2  3  2  0
  2 22  1  0
  3  4  1  0
  4  5  2  0
  5  6  1  0
  5 22  1  0
  6  7  1  0
  7  8  1  0
  7 12  1  0
  8  9  1  0
  9 10  1  0
 10 11  1  0
 12 13  2  0
 12 21  1  0
 13 14  1  0
 14 15  2  0
 15 16  1  0
 15 20  1  0
 16 17  1  0
 17 18  2  0
 17 19  1  0
 19 20  1  0
 20 21  2  0
M  END
