
     RDKit          3D

 22 23  0  0  0  0  0  0  0  0999 V2000
   -4.9110    2.5500    0.6900 C   0  0  0  0  0  0  0  0  0  0  0  0
   -3.7930    1.6700    1.2100 C   0  0  0  0  0  0  0  0  0  0  0  0
   -3.6480    0.4540    0.4180 N   0  0  2  0  0  0  0  0  0  0  0  0
   -4.0550   -0.6800    1.1880 C   0  0  0  0  0  0  0  0  0  0  0  0
   -4.7780   -1.6690    0.3250 C   0  0  0  0  0  0  0  0  0  0  0  0
   -2.3290    0.3400   -0.1500 C   0  0  0  0  0  0  0  0  0  0  0  0
   -1.9040   -1.0350   -0.4750 C   0  0  0  0  0  0  0  0  0  0  0  0
   -0.5250   -1.0500   -1.0730 C   0  0  0  0  0  0  0  0  0  0  0  0
    0.5060   -0.4770   -0.1330 C   0  0  1  0  0  0  0  0  0  0  0  0
    0.5290   -1.2900    1.1350 C   0  0  0  0  0  0  0  0  0  0  0  0
    1.8280   -0.4540   -0.7510 N   0  0  0  0  0  0  0  0  0  0  0  0
    2.9490    0.1050   -0.1060 C   0  0  0  0  0  0  0  0  0  0  0  0
    2.7740    0.6960    1.1280 C   0  0  0  0  0  0  0  0  0  0  0  0
    3.8590    1.2700    1.7960 C   0  0  0  0  0  0  0  0  0  0  0  0
    5.0370    1.2060    1.1720 N   0  0  0  0  0  0  0  0  0  0  0  0
    5.2550    0.6460   -0.0200 C   0  0  0  0  0  0  0  0  0  0  0  0
    6.5070    0.6140   -0.6120 C   0  0  0  0  0  0  0  0  0  0  0  0
    6.7520    0.0410   -1.8390 C   0  0  0  0  0  0  0  0  0  0  0  0
    8.3600    0.0200   -2.5590 Cl  0  0  0  0  0  0  0  0  0  0  0  0
    5.6950   -0.5280   -2.5090 C   0  0  0  0  0  0  0  0  0  0  0  0
    4.4200   -0.5090   -1.9350 C   0  0  0  0  0  0  0  0  0  0  0  0
    4.1810    0.0660   -0.7060 C   0  0  0  0  0  0  0  0  0  0  0  0
  1  2  1  0
  3  2  1  1
  3  4  1  0
  3  6  1  0
  4  5  1  0
  6  7  1  0
  7  8  1  0
  8  9  1  0
  9 10  1  1
  9 11  1  0
 11 12  1  0
 12 13  2  0
 12 22  1  0
 13 14  1  0
 14 15  2  0
 15 16  1  0
 16 17  2  0
 16 22  1  0
 17 18  1  0
 18 19  1  0
 18 20  2  0
 20 21  1  0
 21 22  2  0
M  CHG  1   3   1
M  END
