
     RDKit          3D

 22 24  0  0  0  0  0  0  0  0999 V2000
   -1.2610    2.7220   -0.7420 O   0  0  0  0  0  0  0  0  0  0  0  0
   -1.7220    1.9420    0.4490 S   0  0  1  0  0  0  0  0  0  0  0  0
   -0.8980    2.1100    1.6680 O   0  0  0  0  0  0  0  0  0  0  0  0
   -3.2170    2.8190    0.9020 C   0  0  0  0  0  0  0  0  0  0  0  0
   -4.1250    1.9070    0.7980 C   0  0  0  0  0  0  0  0  0  0  0  0
   -3.7180    0.6010    0.3960 C   0  0  0  0  0  0  0  0  0  0  0  0
   -2.4210    0.4180    0.1540 C   0  0  0  0  0  0  0  0  0  0  0  0
   -1.9370   -0.8840   -0.3030 C   0  0  0  0  0  0  0  0  0  0  0  0
   -2.8410   -1.9030   -0.6320 C   0  0  0  0  0  0  0  0  0  0  0  0
   -2.4780   -3.1520   -1.0580 C   0  0  0  0  0  0  0  0  0  0  0  0
   -1.1720   -3.4560   -1.1800 C   0  0  0  0  0  0  0  0  0  0  0  0
   -0.6470   -5.1970   -1.7750 Br  0  0  0  0  0  0  0  0  0  0  0  0
   -0.2430   -2.4880   -0.8680 C   0  0  0  0  0  0  0  0  0  0  0  0
   -0.6100   -1.2090   -0.4310 C   0  0  0  0  0  0  0  0  0  0  0  0
    0.4010   -0.2070   -0.0610 C   0  0  0  0  0  0  0  0  0  0  0  0
    1.7720   -0.6420   -0.2560 N   0  0  0  0  0  0  0  0  0  0  0  0
    2.8670    0.2310    0.0670 C   0  0  0  0  0  0  0  0  0  0  0  0
    4.1620   -0.1930   -0.1000 C   0  0  0  0  0  0  0  0  0  0  0  0
    5.2390    0.6470    0.2080 C   0  0  0  0  0  0  0  0  0  0  0  0
    4.9790    1.9130    0.6840 C   0  0  0  0  0  0  0  0  0  0  0  0
    3.7050    2.3020    0.8380 N   0  0  0  0  0  0  0  0  0  0  0  0
    2.6420    1.5010    0.5440 C   0  0  0  0  0  0  0  0  0  0  0  0
  1  2  2  0
  2  3  2  0
  2  4  1  1
  2  7  1  0
  4  5  2  0
  5  6  1  0
  6  7  2  0
  7  8  1  0
  8  9  2  0
  8 14  1  0
  9 10  1  0
 10 11  2  0
 11 12  1  0
 11 13  1  0
 13 14  2  0
 14 15  1  0
 15 16  1  0
 16 17  1  0
 17 18  2  0
 17 22  1  0
 18 19  1  0
 19 20  2  0
 20 21  1  0
 21 22  2  0
M  END
