
     RDKit          3D

 22 24  0  0  0  0  0  0  0  0999 V2000
   -2.6620   -3.3850   -0.4430 C   0  0  0  0  0  0  0  0  0  0  0  0
   -2.4730   -2.1360    0.3950 C   0  0  0  0  0  0  0  0  0  0  0  0
   -1.8420   -1.1610   -0.4300 O   0  0  0  0  0  0  0  0  0  0  0  0
   -1.5280    0.1010    0.0420 C   0  0  0  0  0  0  0  0  0  0  0  0
   -0.3420    0.4630    0.6450 C   0  0  0  0  0  0  0  0  0  0  0  0
    0.7690   -0.4810    0.8660 C   0  0  0  0  0  0  0  0  0  0  0  0
    1.9680   -0.1900    0.4140 C   0  0  0  0  0  0  0  0  0  0  0  0
    2.2590    0.9630   -0.2650 N   0  0  0  0  0  0  0  0  0  0  0  0
    3.5430    0.9970   -0.6020 C   0  0  0  0  0  0  0  0  0  0  0  0
    4.3660    2.1550   -1.4160 S   0  0  0  0  0  0  0  0  0  0  0  0
    4.0880   -0.1170   -0.1510 N   0  0  0  0  0  0  0  0  0  0  0  0
    5.4690   -0.5730   -0.2540 C   0  0  0  0  0  0  0  0  0  0  0  0
    3.1310   -0.8790    0.4880 C   0  0  0  0  0  0  0  0  0  0  0  0
    3.3730   -2.0450    1.0420 C   0  0  0  0  0  0  0  0  0  0  0  0
    2.0960   -3.1050    1.9170 Br  0  0  0  0  0  0  0  0  0  0  0  0
   -0.4480    1.7230    0.9370 O   0  0  0  0  0  0  0  0  0  0  0  0
   -1.5890    2.2400    0.5890 C   0  0  0  0  0  0  0  0  0  0  0  0
   -2.1710    3.4950    0.6770 C   0  0  0  0  0  0  0  0  0  0  0  0
   -3.4390    3.7150    0.1960 C   0  0  0  0  0  0  0  0  0  0  0  0
   -4.1840    2.6890   -0.3970 C   0  0  0  0  0  0  0  0  0  0  0  0
   -3.5970    1.4410   -0.4810 C   0  0  0  0  0  0  0  0  0  0  0  0
   -2.3260    1.2230    0.0020 C   0  0  0  0  0  0  0  0  0  0  0  0
  1  2  1  0
  2  3  1  0
  3  4  1  0
  4  5  2  0
  4 22  1  0
  5  6  1  0
  5 16  1  0
  6  7  2  3
  7  8  1  0
  7 13  1  0
  8  9  1  0
  9 10  2  0
  9 11  1  0
 11 12  1  0
 11 13  1  0
 13 14  2  3
 14 15  1  0
 16 17  1  0
 17 18  2  0
 17 22  1  0
 18 19  1  0
 19 20  2  0
 20 21  1  0
 21 22  2  0
M  END
