
     RDKit          3D

 22 24  0  0  0  0  0  0  0  0999 V2000
    5.5740    1.2880    0.7550 C   0  0  0  0  0  0  0  0  0  0  0  0
    4.1180    1.8900   -0.1030 S   0  0  0  0  0  0  0  0  0  0  0  0
    2.8690    0.6210   -0.2400 C   0  0  0  0  0  0  0  0  0  0  0  0
    3.0850   -0.6090    0.3320 C   0  0  0  0  0  0  0  0  0  0  0  0
    2.1330   -1.5820    0.1960 C   0  0  0  0  0  0  0  0  0  0  0  0
    2.2860   -2.9180    0.7880 C   0  0  0  0  0  0  0  0  0  0  0  0
    1.3730   -3.7710    0.5890 O   0  0  0  0  0  0  0  0  0  0  0  0
    0.9830   -1.2590   -0.5260 C   0  0  0  0  0  0  0  0  0  0  0  0
    0.7450   -0.0840   -1.0870 N   0  0  0  0  0  0  0  0  0  0  0  0
   -0.4340    0.3180   -1.8390 C   0  0  0  0  0  0  0  0  0  0  0  0
   -1.5440    0.8110   -1.0290 C   0  0  0  0  0  0  0  0  0  0  0  0
   -1.6250    2.1180   -0.5070 C   0  0  0  0  0  0  0  0  0  0  0  0
   -2.6840    2.2450    0.2900 N   0  0  0  0  0  0  0  0  0  0  0  0
   -3.3250    1.0540    0.3170 C   0  0  0  0  0  0  0  0  0  0  0  0
   -4.4800    0.6670    0.9700 C   0  0  0  0  0  0  0  0  0  0  0  0
   -4.9310   -0.6230    0.7930 C   0  0  0  0  0  0  0  0  0  0  0  0
   -4.2580   -1.5120   -0.0100 C   0  0  0  0  0  0  0  0  0  0  0  0
   -3.1010   -1.1410   -0.6690 C   0  0  0  0  0  0  0  0  0  0  0  0
   -2.2820   -2.4060   -1.8510 Br  0  0  0  0  0  0  0  0  0  0  0  0
   -2.6290    0.1470   -0.5010 C   0  0  0  0  0  0  0  0  0  0  0  0
    1.7230    0.8780   -0.9340 C   0  0  0  0  0  0  0  0  0  0  0  0
    1.5370    2.0000   -1.4490 O   0  0  0  0  0  0  0  0  0  0  0  0
  1  2  1  0
  2  3  1  0
  3  4  2  0
  3 21  1  0
  4  5  1  0
  5  6  1  0
  5  8  2  0
  6  7  2  0
  8  9  1  0
  9 10  1  0
  9 21  1  0
 10 11  1  0
 11 12  2  0
 11 20  1  0
 12 13  1  0
 13 14  1  0
 14 15  2  0
 14 20  1  0
 15 16  1  0
 16 17  2  0
 17 18  1  0
 18 19  1  0
 18 20  2  0
 21 22  2  0
M  END
