
     RDKit          3D

 32 35  0  0  0  0  0  0  0  0999 V2000
   -5.0710    3.8420   -0.6220 C   0  0  0  0  0  0  0  0  0  0  0  0
   -5.5400    2.4790   -0.1890 C   0  0  0  0  0  0  0  0  0  0  0  0
   -6.8470    2.0920   -0.1700 C   0  0  0  0  0  0  0  0  0  0  0  0
   -7.1630    0.8110    0.1560 C   0  0  0  0  0  0  0  0  0  0  0  0
   -6.1630   -0.0920    0.4720 C   0  0  0  0  0  0  0  0  0  0  0  0
   -6.5130   -1.5220    0.6980 C   0  0  0  0  0  0  0  0  0  0  0  0
   -4.7890    0.2590    0.4800 C   0  0  0  0  0  0  0  0  0  0  0  0
   -3.8790   -0.7360    0.7230 N   0  0  0  0  0  0  0  0  0  0  0  0
   -2.4910   -0.8160    0.7760 C   0  0  0  0  0  0  0  0  0  0  0  0
   -1.5420    0.0740    0.7580 N   0  0  0  0  0  0  0  0  0  0  0  0
   -0.2500   -0.1030    0.4500 C   0  0  0  0  0  0  0  0  0  0  0  0
    0.1620   -1.3890    0.0900 C   0  0  0  0  0  0  0  0  0  0  0  0
    1.3630   -1.7740   -0.6530 C   0  0  0  0  0  0  0  0  0  0  0  0
    2.6210   -1.8220   -0.0870 N   0  0  0  0  0  0  0  0  0  0  0  0
    3.6920   -1.0160   -0.5370 C   0  0  2  0  0  0  0  0  0  0  0  0
    3.8940    0.0160    0.5590 C   0  0  0  0  0  0  0  0  0  0  0  0
    5.2870    0.5670    0.3060 C   0  0  0  0  0  0  0  0  0  0  0  0
    5.9710    0.7840    1.3690 C   0  0  0  0  0  0  0  0  0  0  0  0
    7.3860    1.3010    1.3130 C   0  0  0  0  0  0  0  0  0  0  0  0
    7.4710    2.5160    0.0150 S   0  0  0  0  0  0  0  0  0  0  0  0
    6.8940    3.8460    0.5580 O   0  0  0  0  0  0  0  0  0  0  0  0
    6.4160    1.9700   -1.2900 C   0  0  0  0  0  0  0  0  0  0  0  0
    5.4710    1.0950   -1.0240 C   0  0  0  0  0  0  0  0  0  0  0  0
    4.6390    0.6190   -2.0680 O   0  0  0  0  0  0  0  0  0  0  0  0
    3.6620   -0.3650   -1.8180 C   0  0  0  0  0  0  0  0  0  0  0  0
    2.8460   -0.5930   -2.7290 O   0  0  0  0  0  0  0  0  0  0  0  0
   -0.8310   -2.3810    0.1120 C   0  0  0  0  0  0  0  0  0  0  0  0
   -0.3080   -3.7770   -0.1410 C   0  0  0  0  0  0  0  0  0  0  0  0
    0.3620   -4.1330    1.0610 F   0  0  0  0  0  0  0  0  0  0  0  0
   -2.0500   -2.1040    0.4310 N   0  0  0  0  0  0  0  0  0  0  0  0
   -4.5240    1.5480    0.1400 C   0  0  0  0  0  0  0  0  0  0  0  0
   -2.9000    2.1280    0.0500 Cl  0  0  0  0  0  0  0  0  0  0  0  0
  1  2  1  0
  2  3  2  0
  2 31  1  0
  3  4  1  0
  4  5  2  0
  5  6  1  0
  5  7  1  0
  7  8  1  0
  7 31  2  0
  8  9  1  0
  9 10  2  0
  9 30  1  0
 10 11  1  0
 11 12  2  0
 12 13  1  0
 12 27  1  0
 13 14  1  0
 15 14  1  1
 15 16  1  0
 15 25  1  0
 16 17  1  0
 17 18  2  0
 17 23  1  0
 18 19  1  0
 20 19  1  1
 20 21  2  0
 20 22  1  0
 22 23  2  0
 23 24  1  0
 24 25  1  0
 25 26  2  0
 27 28  1  0
 27 30  2  0
 28 29  1  0
 31 32  1  0
M  CHG  1  14   1
M  END
