
     RDKit          3D

 32 35  0  0  0  0  0  0  0  0999 V2000
    5.6940    0.9530   -0.3660 C   0  0  0  0  0  0  0  0  0  0  0  0
    6.1080    2.3540    0.6970 S   0  0  0  0  0  0  0  0  0  0  0  0
    4.7100    3.4060    1.0610 C   0  0  0  0  0  0  0  0  0  0  0  0
    3.6580    2.8090    1.9340 C   0  0  0  0  0  0  0  0  0  0  0  0
    3.0490    1.6170    1.4590 N   0  0  0  0  0  0  0  0  0  0  0  0
    3.4560    0.2940    1.7440 C   0  0  0  0  0  0  0  0  0  0  0  0
    4.4100   -0.0550    2.4730 O   0  0  0  0  0  0  0  0  0  0  0  0
    2.6260   -0.6010    1.0830 O   0  0  0  0  0  0  0  0  0  0  0  0
    1.6470    0.0800    0.3430 C   0  0  0  0  0  0  0  0  0  0  0  0
    0.7110   -0.5150   -0.3920 C   0  0  0  0  0  0  0  0  0  0  0  0
   -0.2790    0.2090   -1.1410 C   0  0  0  0  0  0  0  0  0  0  0  0
   -1.6800    0.0720   -0.8290 N   0  0  1  0  0  0  0  0  0  0  0  0
   -1.9300    0.5450    0.5080 C   0  0  0  0  0  0  0  0  0  0  0  0
   -3.2410    0.0620    1.0910 C   0  0  0  0  0  0  0  0  0  0  0  0
   -4.3380    1.0710    0.8560 C   0  0  0  0  0  0  0  0  0  0  0  0
   -4.5810    1.1530   -0.5960 C   0  0  0  0  0  0  0  0  0  0  0  0
   -3.5000    1.6870   -1.4570 C   0  0  1  0  0  0  0  0  0  0  0  0
   -2.9890    3.0560   -1.0610 C   0  0  0  0  0  0  0  0  0  0  0  0
   -2.4050    0.7650   -1.8480 C   0  0  0  0  0  0  0  0  0  0  0  0
    0.8630   -1.9700   -0.4930 C   0  0  0  0  0  0  0  0  0  0  0  0
    1.9590   -2.5620   -1.1040 N   0  0  0  0  0  0  0  0  0  0  0  0
    1.8890   -3.8670   -1.0210 N   0  0  0  0  0  0  0  0  0  0  0  0
    0.7830   -4.2020   -0.3740 C   0  0  0  0  0  0  0  0  0  0  0  0
    0.3090   -5.4450   -0.0460 C   0  0  0  0  0  0  0  0  0  0  0  0
    1.1920   -6.8850   -0.5120 Cl  0  0  0  0  0  0  0  0  0  0  0  0
   -0.8710   -5.5220    0.6520 C   0  0  0  0  0  0  0  0  0  0  0  0
   -1.5400   -4.3650    1.0020 C   0  0  0  0  0  0  0  0  0  0  0  0
   -2.7190   -4.3790    1.6950 F   0  0  0  0  0  0  0  0  0  0  0  0
   -1.0340   -3.1280    0.6560 C   0  0  0  0  0  0  0  0  0  0  0  0
    0.1350   -3.0220   -0.0400 C   0  0  0  0  0  0  0  0  0  0  0  0
    1.9120    1.4780    0.5790 C   0  0  0  0  0  0  0  0  0  0  0  0
    1.3220    2.4950    0.1480 O   0  0  0  0  0  0  0  0  0  0  0  0
  1  2  1  0
  2  3  1  0
  3  4  1  0
  4  5  1  0
  5  6  1  0
  5 31  1  0
  6  7  2  0
  6  8  1  0
  8  9  1  0
  9 10  2  3
  9 31  1  0
 10 11  1  0
 10 20  1  0
 12 11  1  6
 12 13  1  0
 12 19  1  0
 13 14  1  0
 14 15  1  0
 15 16  1  0
 16 17  1  0
 17 18  1  1
 17 19  1  0
 20 21  2  0
 20 30  1  0
 21 22  1  0
 22 23  1  0
 23 24  2  0
 23 30  1  0
 24 25  1  0
 24 26  1  0
 26 27  2  0
 27 28  1  0
 27 29  1  0
 29 30  2  0
 31 32  2  0
M  CHG  1  12   1
M  END
