
     RDKit          3D

 32 35  0  0  0  0  0  0  0  0999 V2000
   -4.4400    0.6500    2.4980 C   0  0  0  0  0  0  0  0  0  0  0  0
   -4.6520    1.3230    1.1900 C   0  0  0  0  0  0  0  0  0  0  0  0
   -4.1600    0.5330    0.1110 N   0  0  0  0  0  0  0  0  0  0  0  0
   -3.0420    1.0510   -0.6920 C   0  0  0  0  0  0  0  0  0  0  0  0
   -3.2720    1.6400   -1.8200 N   0  0  0  0  0  0  0  0  0  0  0  0
   -2.3290    2.1700   -2.5840 C   0  0  0  0  0  0  0  0  0  0  0  0
   -0.8640    1.8190   -1.6250 S   0  0  0  0  0  0  0  0  0  0  0  0
   -1.7840    0.9500   -0.2390 C   0  0  0  0  0  0  0  0  0  0  0  0
   -1.0720    0.3860    0.8530 C   0  0  0  0  0  0  0  0  0  0  0  0
   -1.5790   -0.2780    1.7730 O   0  0  0  0  0  0  0  0  0  0  0  0
    0.3090    0.5680    0.9440 O   0  0  0  0  0  0  0  0  0  0  0  0
    1.0690    0.0160    2.0260 C   0  0  0  0  0  0  0  0  0  0  0  0
    2.4670    0.4160    1.7800 C   0  0  0  0  0  0  0  0  0  0  0  0
    3.2480   -0.3370    0.9290 C   0  0  0  0  0  0  0  0  0  0  0  0
    4.5730    0.0340    0.6880 C   0  0  0  0  0  0  0  0  0  0  0  0
    5.0480    1.1610    1.3250 C   0  0  0  0  0  0  0  0  0  0  0  0
    4.2370    1.8950    2.1740 C   0  0  0  0  0  0  0  0  0  0  0  0
    4.8960    3.3160    2.9540 Cl  0  0  0  0  0  0  0  0  0  0  0  0
    2.9780    1.4960    2.3700 N   0  0  0  0  0  0  0  0  0  0  0  0
    6.4180    1.6070    1.0660 C   0  0  0  0  0  0  0  0  0  0  0  0
    7.2210    0.9730    0.2410 C   0  0  0  0  0  0  0  0  0  0  0  0
    6.8270   -0.2350   -0.5000 C   0  0  2  0  0  0  0  0  0  0  0  0
    6.8770    0.1000   -1.8720 O   0  0  0  0  0  0  0  0  0  0  0  0
    5.4720   -0.7230   -0.1740 C   0  0  0  0  0  0  0  0  0  0  0  0
    5.0810   -1.8760   -0.6700 C   0  0  0  0  0  0  0  0  0  0  0  0
    5.9700   -2.6830   -1.5580 C   0  0  0  0  0  0  0  0  0  0  0  0
    6.1620   -3.9080   -0.9170 F   0  0  0  0  0  0  0  0  0  0  0  0
   -4.7760   -0.7190   -0.2020 C   0  0  1  0  0  0  0  0  0  0  0  0
   -6.2390   -0.4140   -0.5530 C   0  0  0  0  0  0  0  0  0  0  0  0
   -6.4760   -1.1950   -1.8110 C   0  0  0  0  0  0  0  0  0  0  0  0
   -5.3620   -2.0830   -1.9840 N   0  0  0  0  0  0  0  0  0  0  0  0
   -4.1990   -1.4040   -1.4090 C   0  0  0  0  0  0  0  0  0  0  0  0
  1  2  1  0
  2  3  1  0
  3  4  1  0
 28  3  1  6
  4  5  1  0
  4  8  2  0
  5  6  2  0
  6  7  1  0
  7  8  1  0
  8  9  1  0
  9 10  2  0
  9 11  1  0
 11 12  1  0
 12 13  1  0
 13 14  2  0
 13 19  1  0
 14 15  1  0
 15 16  2  0
 15 24  1  0
 16 17  1  0
 16 20  1  0
 17 18  1  0
 17 19  2  0
 20 21  2  0
 21 22  1  0
 22 23  1  6
 22 24  1  0
 24 25  2  3
 25 26  1  0
 26 27  1  0
 28 29  1  0
 28 32  1  0
 29 30  1  0
 30 31  1  0
 31 32  1  0
M  CHG  1  31   1
M  END
