
     RDKit          3D

 32 35  0  0  0  0  0  0  0  0999 V2000
   -5.9830   -0.1010    0.5550 C   0  0  0  0  0  0  0  0  0  0  0  0
   -5.4180   -0.4030   -0.7320 N   0  0  1  0  0  0  0  0  0  0  0  0
   -4.0070   -0.5590   -0.6950 C   0  0  0  0  0  0  0  0  0  0  0  0
   -3.2350   -0.2850    0.4130 C   0  0  0  0  0  0  0  0  0  0  0  0
   -1.8660   -0.4560    0.3880 C   0  0  0  0  0  0  0  0  0  0  0  0
   -1.2340   -0.9170   -0.7740 C   0  0  0  0  0  0  0  0  0  0  0  0
    0.1630   -1.0950   -0.8100 N   0  0  0  0  0  0  0  0  0  0  0  0
    0.8510   -2.0540   -1.4340 C   0  0  0  0  0  0  0  0  0  0  0  0
    2.1760   -1.8720   -1.2230 N   0  0  0  0  0  0  0  0  0  0  0  0
    2.3230   -0.7820   -0.4550 C   0  0  0  0  0  0  0  0  0  0  0  0
    3.5700   -0.1780    0.0450 C   0  0  0  0  0  0  0  0  0  0  0  0
    3.5590    0.9000    0.7950 C   0  0  0  0  0  0  0  0  0  0  0  0
    4.7490    1.5650    1.3340 C   0  0  0  0  0  0  0  0  0  0  0  0
    4.6040    2.5890    2.0390 O   0  0  0  0  0  0  0  0  0  0  0  0
    6.0510    1.0900    1.0860 N   0  0  0  0  0  0  0  0  0  0  0  0
    7.2740    1.6370    1.5440 C   0  0  0  0  0  0  0  0  0  0  0  0
    7.3750    2.7440    2.3220 C   0  0  0  0  0  0  0  0  0  0  0  0
    8.6220    3.2360    2.7440 C   0  0  0  0  0  0  0  0  0  0  0  0
    8.6980    4.3430    3.5200 F   0  0  0  0  0  0  0  0  0  0  0  0
    9.7860    2.6030    2.3760 C   0  0  0  0  0  0  0  0  0  0  0  0
    9.6770    1.4910    1.5940 C   0  0  0  0  0  0  0  0  0  0  0  0
    8.4710    1.0110    1.1830 C   0  0  0  0  0  0  0  0  0  0  0  0
    8.4020   -0.4370    0.1690 Cl  0  0  0  0  0  0  0  0  0  0  0  0
    1.0560   -0.3040   -0.2020 C   0  0  0  0  0  0  0  0  0  0  0  0
   -2.0440   -1.1800   -1.8600 C   0  0  0  0  0  0  0  0  0  0  0  0
   -3.4100   -1.0140   -1.8490 C   0  0  0  0  0  0  0  0  0  0  0  0
   -4.2190   -1.2820   -2.9510 O   0  0  0  0  0  0  0  0  0  0  0  0
   -5.6160   -1.4910   -2.8470 C   0  0  0  0  0  0  0  0  0  0  0  0
   -5.9760   -1.5380   -1.3760 C   0  0  2  0  0  0  0  0  0  0  0  0
   -7.4490   -1.7230   -1.1590 C   0  0  0  0  0  0  0  0  0  0  0  0
   -8.4280   -0.3640   -1.7390 S   0  0  0  0  0  0  0  0  0  0  0  0
   -9.6960   -0.1610   -0.9250 O   0  0  0  0  0  0  0  0  0  0  0  0
  2  1  1  1
  2  3  1  0
  2 29  1  0
  3  4  2  0
  3 26  1  0
  4  5  1  0
  5  6  2  0
  6  7  1  0
  6 25  1  0
  7  8  1  0
  7 24  1  0
  8  9  2  0
  9 10  1  0
 10 11  1  0
 10 24  2  0
 11 12  2  3
 12 13  1  0
 13 14  2  0
 13 15  1  0
 15 16  1  0
 16 17  2  0
 16 22  1  0
 17 18  1  0
 18 19  1  0
 18 20  2  0
 20 21  1  0
 21 22  2  0
 22 23  1  0
 25 26  2  0
 26 27  1  0
 27 28  1  0
 28 29  1  0
 29 30  1  6
 30 31  1  0
 31 32  2  0
M  CHG  1   2   1
M  END
