
     RDKit          3D

 32 35  0  0  0  0  0  0  0  0999 V2000
   -3.5620    4.2280   -0.3510 C   0  0  0  0  0  0  0  0  0  0  0  0
   -3.6180    2.8230   -0.3550 O   0  0  0  0  0  0  0  0  0  0  0  0
   -2.4840    2.0520   -0.3270 C   0  0  0  0  0  0  0  0  0  0  0  0
   -1.2550    2.6810   -0.2940 C   0  0  0  0  0  0  0  0  0  0  0  0
   -0.0710    1.9960   -0.2640 C   0  0  0  0  0  0  0  0  0  0  0  0
   -0.1080    0.5940   -0.2670 C   0  0  0  0  0  0  0  0  0  0  0  0
    1.1330   -0.0680   -0.2300 N   0  0  0  0  0  0  0  0  0  0  0  0
    1.3840   -1.4440   -0.3240 C   0  0  0  0  0  0  0  0  0  0  0  0
    0.4200   -2.2290   -0.4610 O   0  0  0  0  0  0  0  0  0  0  0  0
    2.7750   -1.9880   -0.2640 C   0  0  0  0  0  0  0  0  0  0  0  0
    3.8520   -1.2390   -0.1220 N   0  0  0  0  0  0  0  0  0  0  0  0
    4.9560   -1.5380   -0.0630 C   0  0  0  0  0  0  0  0  0  0  0  0
    6.2870   -0.9330    0.0860 C   0  0  0  0  0  0  0  0  0  0  0  0
    7.4380   -1.6550    0.1130 C   0  0  0  0  0  0  0  0  0  0  0  0
    8.6410   -0.9600    0.2600 C   0  0  0  0  0  0  0  0  0  0  0  0
    8.6620    0.4220    0.3740 C   0  0  0  0  0  0  0  0  0  0  0  0
    9.8230    1.1090    0.5170 F   0  0  0  0  0  0  0  0  0  0  0  0
    7.4940    1.1440    0.3450 C   0  0  0  0  0  0  0  0  0  0  0  0
    6.3180    0.4330    0.1990 C   0  0  0  0  0  0  0  0  0  0  0  0
    4.8330   -3.4010   -0.2240 S   0  0  0  0  0  0  0  0  0  0  0  0
    2.9920   -3.3330   -0.3570 C   0  0  0  0  0  0  0  0  0  0  0  0
    1.9590   -4.7140   -0.5470 Cl  0  0  0  0  0  0  0  0  0  0  0  0
   -1.3270   -0.0100   -0.3000 C   0  0  0  0  0  0  0  0  0  0  0  0
   -2.5450    0.6620   -0.3310 C   0  0  0  0  0  0  0  0  0  0  0  0
   -3.8580   -0.0160   -0.3650 C   0  0  1  0  0  0  0  0  0  0  0  0
   -3.6480   -1.4980   -0.4480 C   0  0  0  0  0  0  0  0  0  0  0  0
   -4.8940   -2.1750   -0.7740 N   0  0  0  0  0  0  0  0  0  0  0  0
   -5.9640   -1.4510   -0.1080 C   0  0  0  0  0  0  0  0  0  0  0  0
   -5.3660   -0.8120    1.1300 C   0  0  0  0  0  0  0  0  0  0  0  0
   -4.6130    0.3630    0.8750 N   0  0  1  0  0  0  0  0  0  0  0  0
   -3.8470    0.6820    1.9670 C   0  0  0  0  0  0  0  0  0  0  0  0
   -3.0330   -0.1590    1.8520 O   0  0  0  0  0  0  0  0  0  0  0  0
  1  2  1  0
  2  3  1  0
  3  4  2  0
  3 24  1  0
  4  5  1  0
  5  6  2  0
  6  7  1  0
  6 23  1  0
  7  8  1  0
  8  9  2  0
  8 10  1  0
 10 11  1  0
 10 21  2  0
 11 12  2  0
 12 13  1  0
 12 20  1  0
 13 14  2  0
 13 19  1  0
 14 15  1  0
 15 16  2  0
 16 17  1  0
 16 18  1  0
 18 19  2  0
 20 21  1  0
 21 22  1  0
 23 24  2  0
 25 24  1  1
 25 26  1  0
 25 30  1  0
 26 27  1  0
 27 28  1  0
 28 29  1  0
 29 30  1  0
 30 31  1  1
 31 32  2  0
M  CHG  1  30   1
M  END
