
     RDKit          3D

 32 35  0  0  0  0  0  0  0  0999 V2000
   -2.8430    2.5040    0.9380 O   0  0  0  0  0  0  0  0  0  0  0  0
   -2.8520    1.2230    0.9480 C   0  0  0  0  0  0  0  0  0  0  0  0
   -1.6830    0.6330    1.3370 C   0  0  0  0  0  0  0  0  0  0  0  0
   -1.4820   -0.7290    1.4170 C   0  0  0  0  0  0  0  0  0  0  0  0
   -0.1830   -1.2940    1.8490 C   0  0  0  0  0  0  0  0  0  0  0  0
    0.6970   -1.6280    0.7800 N   0  0  0  0  0  0  0  0  0  0  0  0
    1.9400   -2.1700    1.2310 C   0  0  0  0  0  0  0  0  0  0  0  0
    2.8290   -1.0350    1.6300 C   0  0  0  0  0  0  0  0  0  0  0  0
    3.1190   -0.2110    0.4920 N   0  0  1  0  0  0  0  0  0  0  0  0
    4.1190   -0.7510   -0.3960 C   0  0  2  0  0  0  0  0  0  0  0  0
    5.1160   -1.6170    0.3730 C   0  0  0  0  0  0  0  0  0  0  0  0
    6.1940   -1.6220   -0.5800 O   0  0  0  0  0  0  0  0  0  0  0  0
    6.3140   -0.2890   -0.9890 C   0  0  0  0  0  0  0  0  0  0  0  0
    7.4220    0.4430   -1.4310 C   0  0  0  0  0  0  0  0  0  0  0  0
    7.2980    1.7590   -1.7830 C   0  0  0  0  0  0  0  0  0  0  0  0
    6.0440    2.3470   -1.6910 C   0  0  0  0  0  0  0  0  0  0  0  0
    4.9570    1.6230   -1.2560 C   0  0  0  0  0  0  0  0  0  0  0  0
    5.0690    0.2990   -0.8980 C   0  0  0  0  0  0  0  0  0  0  0  0
    1.9550    0.2490   -0.1980 C   0  0  0  0  0  0  0  0  0  0  0  0
    0.8170   -0.7070   -0.2820 C   0  0  0  0  0  0  0  0  0  0  0  0
   -2.8470   -1.6490    0.9800 S   0  0  0  0  0  0  0  0  0  0  0  0
   -4.1880   -0.7040    0.5310 C   0  0  0  0  0  0  0  0  0  0  0  0
   -5.3430   -1.2050    0.1580 N   0  0  0  0  0  0  0  0  0  0  0  0
   -6.3950   -0.2330   -0.1960 C   0  0  0  0  0  0  0  0  0  0  0  0
   -7.0600    0.3270    0.7580 C   0  0  0  0  0  0  0  0  0  0  0  0
   -8.1420    1.3100    0.7770 C   0  0  0  0  0  0  0  0  0  0  0  0
   -7.6600    2.4360    1.5080 O   0  0  0  0  0  0  0  0  0  0  0  0
   -6.5570   -0.0340   -1.6020 C   0  0  0  0  0  0  0  0  0  0  0  0
   -7.7290    1.0330   -2.3270 Cl  0  0  0  0  0  0  0  0  0  0  0  0
   -5.7710   -0.7030   -2.4740 C   0  0  0  0  0  0  0  0  0  0  0  0
   -5.9280   -0.5110   -3.7890 F   0  0  0  0  0  0  0  0  0  0  0  0
   -3.9780    0.6300    0.5860 N   0  0  0  0  0  0  0  0  0  0  0  0
  1  2  2  0
  2  3  1  0
  2 32  1  0
  3  4  2  0
  4  5  1  0
  4 21  1  0
  5  6  1  0
  6  7  1  0
  6 20  1  0
  7  8  1  0
  9  8  1  1
  9 10  1  0
  9 19  1  0
 10 11  1  1
 10 18  1  0
 11 12  1  0
 12 13  1  0
 13 14  2  0
 13 18  1  0
 14 15  1  0
 15 16  2  0
 16 17  1  0
 17 18  2  0
 19 20  1  0
 21 22  1  0
 22 23  2  3
 22 32  1  0
 23 24  1  0
 24 25  2  3
 24 28  1  0
 25 26  1  0
 26 27  1  0
 28 29  1  0
 28 30  2  3
 30 31  1  0
M  CHG  1   9   1
M  END
