
     RDKit          3D

 32 35  0  0  0  0  0  0  0  0999 V2000
    4.5030   -1.1810   -0.4600 C   0  0  0  0  0  0  0  0  0  0  0  0
    4.5390   -0.0450    0.5440 C   0  0  0  0  0  0  0  0  0  0  0  0
    3.4690    0.6580    0.7740 C   0  0  0  0  0  0  0  0  0  0  0  0
    3.5230    1.7440    1.7400 C   0  0  0  0  0  0  0  0  0  0  0  0
    4.6750    1.9860    2.3630 C   0  0  0  0  0  0  0  0  0  0  0  0
    4.7600    3.0060    3.2830 F   0  0  0  0  0  0  0  0  0  0  0  0
    5.8450    1.2540    2.1440 N   0  0  0  0  0  0  0  0  0  0  0  0
    5.8140    0.2010    1.2190 C   0  0  0  0  0  0  0  0  0  0  0  0
    2.2250    2.4010    1.8540 C   0  0  0  0  0  0  0  0  0  0  0  0
    1.3530    1.7950    0.8070 C   0  0  0  0  0  0  0  0  0  0  0  0
    2.1000    0.6190    0.2490 C   0  0  2  0  0  0  0  0  0  0  0  0
    1.3980   -0.5930    0.6410 N   0  0  0  0  0  0  0  0  0  0  0  0
    0.7950   -1.4600   -0.3040 C   0  0  0  0  0  0  0  0  0  0  0  0
    0.9130   -1.0960   -1.5250 O   0  0  0  0  0  0  0  0  0  0  0  0
    0.0800   -2.6960    0.0620 C   0  0  0  0  0  0  0  0  0  0  0  0
   -0.4370   -3.3550   -1.1800 N   0  0  0  0  0  0  0  0  0  0  0  0
   -1.6070   -3.1880   -1.7410 C   0  0  0  0  0  0  0  0  0  0  0  0
   -2.6650   -2.2290   -1.3080 C   0  0  0  0  0  0  0  0  0  0  0  0
   -2.6450   -1.2920   -0.4270 C   0  0  0  0  0  0  0  0  0  0  0  0
   -3.8460   -0.4820   -0.1900 N   0  0  0  0  0  0  0  0  0  0  0  0
   -3.8240    0.9180   -0.3860 C   0  0  0  0  0  0  0  0  0  0  0  0
   -2.7640    1.4560   -0.7650 O   0  0  0  0  0  0  0  0  0  0  0  0
   -5.0310    1.6930   -0.1420 C   0  0  0  0  0  0  0  0  0  0  0  0
   -5.1190    3.0000   -0.2930 C   0  0  0  0  0  0  0  0  0  0  0  0
   -6.5020    3.4490    0.0460 C   0  0  0  0  0  0  0  0  0  0  0  0
   -7.1740    2.1950    0.4110 C   0  0  0  0  0  0  0  0  0  0  0  0
   -6.3300    1.2030    0.3010 C   0  0  0  0  0  0  0  0  0  0  0  0
   -1.9120   -3.9220   -2.8840 C   0  0  0  0  0  0  0  0  0  0  0  0
   -3.3260   -3.9730   -3.8880 Cl  0  0  0  0  0  0  0  0  0  0  0  0
   -0.4290   -4.8970   -3.1590 S   0  0  0  0  0  0  0  0  0  0  0  0
    0.4320   -4.2340   -1.7380 C   0  0  0  0  0  0  0  0  0  0  0  0
    1.5990   -4.5700   -1.4010 O   0  0  0  0  0  0  0  0  0  0  0  0
  1  2  1  0
  2  3  2  0
  2  8  1  0
  3  4  1  0
  3 11  1  0
  4  5  2  0
  4  9  1  0
  5  6  1  0
  5  7  1  0
  7  8  1  0
  9 10  1  0
 10 11  1  0
 11 12  1  1
 12 13  1  0
 13 14  2  0
 13 15  1  0
 15 16  1  0
 16 17  1  0
 16 31  1  0
 17 18  1  0
 17 28  2  0
 18 19  2  3
 19 20  1  0
 20 21  1  0
 21 22  2  0
 21 23  1  0
 23 24  2  0
 23 27  1  0
 24 25  1  0
 25 26  1  0
 26 27  2  0
 28 29  1  0
 28 30  1  0
 30 31  1  0
 31 32  2  0
M  CHG  1   7   1
M  END
