
     RDKit          3D

 31 34  0  0  0  0  0  0  0  0999 V2000
   -4.4010   -0.0380    1.9750 C   0  0  0  0  0  0  0  0  0  0  0  0
   -4.3950   -0.7280    0.6710 C   0  0  0  0  0  0  0  0  0  0  0  0
   -3.3070   -1.2270    0.1700 C   0  0  0  0  0  0  0  0  0  0  0  0
   -1.9730   -1.2200    0.7260 C   0  0  0  0  0  0  0  0  0  0  0  0
   -0.9880   -1.5460   -0.2420 N   0  0  2  0  0  0  0  0  0  0  0  0
   -0.4790   -0.4060   -0.9830 C   0  0  0  0  0  0  0  0  0  0  0  0
    0.9710   -0.2360   -0.7250 C   0  0  0  0  0  0  0  0  0  0  0  0
    1.4850    0.8680   -0.1970 C   0  0  0  0  0  0  0  0  0  0  0  0
    2.8950    1.0380    0.0570 C   0  0  0  0  0  0  0  0  0  0  0  0
    3.7900    0.0740   -0.2170 N   0  0  0  0  0  0  0  0  0  0  0  0
    5.1000    0.2120    0.0120 C   0  0  0  0  0  0  0  0  0  0  0  0
    5.9680   -0.8640   -0.3080 N   0  0  0  0  0  0  0  0  0  0  0  0
    7.3930   -0.7470   -0.0820 C   0  0  0  0  0  0  0  0  0  0  0  0
    5.4380   -2.0980   -0.8660 C   0  0  0  0  0  0  0  0  0  0  0  0
    5.6110    1.3690    0.5490 C   0  0  0  0  0  0  0  0  0  0  0  0
    4.7290    2.3960    0.8500 C   0  0  0  0  0  0  0  0  0  0  0  0
    3.3720    2.2100    0.5960 C   0  0  0  0  0  0  0  0  0  0  0  0
    2.7260    3.4420    1.0100 C   0  0  0  0  0  0  0  0  0  0  0  0
    1.5020    3.6850    0.9480 O   0  0  0  0  0  0  0  0  0  0  0  0
    3.6980    4.3490    1.5050 N   0  0  0  0  0  0  0  0  0  0  0  0
    4.9590    3.7040    1.4100 C   0  0  0  0  0  0  0  0  0  0  0  0
    6.1060    4.1440    1.7390 O   0  0  0  0  0  0  0  0  0  0  0  0
   -1.4340   -2.5970   -1.1250 C   0  0  0  0  0  0  0  0  0  0  0  0
   -3.1840   -2.0810   -1.3870 S   0  0  0  0  0  0  0  0  0  0  0  0
   -5.6510   -0.8620   -0.0530 C   0  0  0  0  0  0  0  0  0  0  0  0
   -5.9580   -1.9980   -0.6820 O   0  0  0  0  0  0  0  0  0  0  0  0
   -7.1160   -1.9040   -1.2600 C   0  0  0  0  0  0  0  0  0  0  0  0
   -7.7730   -2.8450   -1.9950 F   0  0  0  0  0  0  0  0  0  0  0  0
   -7.6200   -0.6510   -1.0160 C   0  0  0  0  0  0  0  0  0  0  0  0
   -6.6760    0.0070   -0.2450 C   0  0  0  0  0  0  0  0  0  0  0  0
   -6.7630    1.4000    0.2690 C   0  0  0  0  0  0  0  0  0  0  0  0
  1  2  1  0
  2  3  2  3
  2 25  1  0
  3  4  1  0
  3 24  1  0
  4  5  1  0
  5  6  1  6
  5 23  1  0
  6  7  1  0
  7  8  2  3
  8  9  1  0
  9 10  2  0
  9 17  1  0
 10 11  1  0
 11 12  1  0
 11 15  2  0
 12 13  1  0
 12 14  1  0
 15 16  1  0
 16 17  2  0
 16 21  1  0
 17 18  1  0
 18 19  2  0
 18 20  1  0
 20 21  1  0
 21 22  2  0
 23 24  1  0
 25 26  1  0
 25 30  2  0
 26 27  1  0
 27 28  1  0
 27 29  2  0
 29 30  1  0
 30 31  1  0
M  CHG  1   5   1
M  END
