
     RDKit          3D

 44 49  0  0  0  0  0  0  0  0999 V2000
    5.5900    0.7280    3.5360 C   0  0  0  0  0  0  0  0  0  0  0  0
    5.4600   -0.0390    2.2310 C   0  0  0  0  0  0  0  0  0  0  0  0
    5.8840    0.9280    1.1200 C   0  0  0  0  0  0  0  0  0  0  0  0
    5.7860    0.2780   -0.2250 C   0  0  0  0  0  0  0  0  0  0  0  0
    4.6850    0.0710   -1.0110 C   0  0  0  0  0  0  0  0  0  0  0  0
    3.3270    0.4890   -0.7170 C   0  0  0  0  0  0  0  0  0  0  0  0
    3.1280    1.1200    0.3640 O   0  0  0  0  0  0  0  0  0  0  0  0
    2.2180    0.2060   -1.6180 N   0  0  0  0  0  0  0  0  0  0  0  0
    0.9480    0.6980   -1.1990 C   0  0  0  0  0  0  0  0  0  0  0  0
   -0.2000   -0.0010   -1.7660 C   0  0  0  0  0  0  0  0  0  0  0  0
   -1.4900    0.0120   -1.1360 C   0  0  0  0  0  0  0  0  0  0  0  0
   -2.0040    0.6220   -0.1000 C   0  0  0  0  0  0  0  0  0  0  0  0
   -1.3570    1.5350    0.7570 N   0  0  0  0  0  0  0  0  0  0  0  0
   -2.0100    2.0830    1.8950 C   0  0  0  0  0  0  0  0  0  0  0  0
   -1.4040    2.9040    2.6530 O   0  0  0  0  0  0  0  0  0  0  0  0
   -3.3760    1.6910    2.1750 C   0  0  0  0  0  0  0  0  0  0  0  0
   -4.0130    2.2250    3.2880 C   0  0  0  0  0  0  0  0  0  0  0  0
   -5.3120    1.8720    3.5850 C   0  0  0  0  0  0  0  0  0  0  0  0
   -5.9840    2.4480    4.7780 C   0  0  0  0  0  0  0  0  0  0  0  0
   -7.2260    1.8690    5.0010 O   0  0  0  0  0  0  0  0  0  0  0  0
   -5.9650    0.9810    2.7570 C   0  0  0  0  0  0  0  0  0  0  0  0
   -5.3670    0.4340    1.6510 C   0  0  0  0  0  0  0  0  0  0  0  0
   -4.0420    0.8040    1.3620 C   0  0  0  0  0  0  0  0  0  0  0  0
   -3.3750    0.2710    0.2380 N   0  0  0  0  0  0  0  0  0  0  0  0
   -4.1310   -0.6600   -0.5610 C   0  0  0  0  0  0  0  0  0  0  0  0
   -4.5960   -0.3220   -1.8120 C   0  0  0  0  0  0  0  0  0  0  0  0
   -5.3160   -1.2560   -2.5580 C   0  0  0  0  0  0  0  0  0  0  0  0
   -5.5650   -2.5150   -2.0480 C   0  0  0  0  0  0  0  0  0  0  0  0
   -6.3340   -3.5310   -2.8320 C   0  0  2  0  0  0  0  0  0  0  0  0
   -5.6190   -3.7640   -3.9920 F   0  0  0  0  0  0  0  0  0  0  0  0
   -7.6160   -3.0530   -3.1260 F   0  0  0  0  0  0  0  0  0  0  0  0
   -5.1070   -2.8500   -0.8120 C   0  0  0  0  0  0  0  0  0  0  0  0
   -4.3880   -1.9190   -0.0670 C   0  0  0  0  0  0  0  0  0  0  0  0
   -0.0220   -0.7330   -2.9150 C   0  0  0  0  0  0  0  0  0  0  0  0
   -1.0300   -1.5050   -3.6370 C   0  0  0  0  0  0  0  0  0  0  0  0
   -0.5790   -2.5080   -4.3490 C   0  0  0  0  0  0  0  0  0  0  0  0
    1.1920   -2.5330   -4.1460 S   0  0  0  0  0  0  0  0  0  0  0  0
    1.2880   -0.7540   -3.6010 C   0  0  2  0  0  0  0  0  0  0  0  0
    2.4800   -0.5220   -2.7860 C   0  0  0  0  0  0  0  0  0  0  0  0
    5.0960   -0.5800   -2.1000 N   0  0  0  0  0  0  0  0  0  0  0  0
    6.3680   -0.7700   -2.0080 O   0  0  0  0  0  0  0  0  0  0  0  0
    6.8740   -0.2840   -0.9050 C   0  0  0  0  0  0  0  0  0  0  0  0
    8.2780   -0.2910   -0.4230 C   0  0  0  0  0  0  0  0  0  0  0  0
    8.9480    1.0330   -0.5810 C   0  0  0  0  0  0  0  0  0  0  0  0
  1  2  1  0
  2  3  1  0
  3  4  1  0
  4  5  1  0
  4 42  2  0
  5  6  1  0
  5 40  2  0
  6  7  2  0
  6  8  1  0
  8  9  1  0
  8 39  1  0
  9 10  1  0
 10 11  1  0
 10 34  2  0
 11 12  2  3
 12 13  1  0
 12 24  1  0
 13 14  1  0
 14 15  2  0
 14 16  1  0
 16 17  2  0
 16 23  1  0
 17 18  1  0
 18 19  1  0
 18 21  2  0
 19 20  1  0
 21 22  1  0
 22 23  2  0
 23 24  1  0
 24 25  1  0
 25 26  2  0
 25 33  1  0
 26 27  1  0
 27 28  2  0
 28 29  1  0
 28 32  1  0
 29 30  1  6
 29 31  1  0
 32 33  2  0
 34 35  1  0
 34 38  1  0
 35 36  2  0
 36 37  1  0
 37 38  1  0
 38 39  1  1
 40 41  1  0
 41 42  1  0
 42 43  1  0
 43 44  1  0
M  END
