
     RDKit          3D

 44 49  0  0  0  0  0  0  0  0999 V2000
    5.8990    3.2000   -2.0940 C   0  0  0  0  0  0  0  0  0  0  0  0
    6.6400    1.9650   -1.6600 C   0  0  0  0  0  0  0  0  0  0  0  0
    7.6950    1.3740   -2.2320 N   0  0  0  0  0  0  0  0  0  0  0  0
    8.0730    0.2920   -1.5150 C   0  0  0  0  0  0  0  0  0  0  0  0
    9.1060   -0.6010   -1.7080 C   0  0  0  0  0  0  0  0  0  0  0  0
    9.3140   -1.6460   -0.7980 C   0  0  0  0  0  0  0  0  0  0  0  0
   10.3280   -2.5460   -0.9750 F   0  0  0  0  0  0  0  0  0  0  0  0
    8.4670   -1.7600    0.2830 C   0  0  0  0  0  0  0  0  0  0  0  0
    8.6990   -2.8640    1.2420 C   0  0  0  0  0  0  0  0  0  0  0  0
    9.8020   -2.5090    2.0420 F   0  0  0  0  0  0  0  0  0  0  0  0
    7.4360   -0.8810    0.4890 C   0  0  0  0  0  0  0  0  0  0  0  0
    7.2470    0.1550   -0.4300 C   0  0  0  0  0  0  0  0  0  0  0  0
    6.3430    1.2100   -0.5220 C   0  0  0  0  0  0  0  0  0  0  0  0
    5.3110    1.4860    0.4240 C   0  0  0  0  0  0  0  0  0  0  0  0
    5.4840    2.4370    1.2670 O   0  0  0  0  0  0  0  0  0  0  0  0
    4.0620    0.7520    0.4980 C   0  0  0  0  0  0  0  0  0  0  0  0
    3.8650   -0.4760   -0.0810 C   0  0  0  0  0  0  0  0  0  0  0  0
    2.6490   -1.1520    0.0480 C   0  0  0  0  0  0  0  0  0  0  0  0
    1.5910   -0.6330    0.7470 C   0  0  0  0  0  0  0  0  0  0  0  0
    0.3520   -1.2950    0.9670 N   0  0  0  0  0  0  0  0  0  0  0  0
   -0.8800   -0.6520    1.1820 C   0  0  0  0  0  0  0  0  0  0  0  0
   -0.9280    0.6180    1.1380 O   0  0  0  0  0  0  0  0  0  0  0  0
   -2.1020   -1.2970    1.4540 N   0  0  0  0  0  0  0  0  0  0  0  0
   -3.2930   -0.4600    1.6610 C   0  0  0  0  0  0  0  0  0  0  0  0
   -3.3700    0.1950    2.8250 C   0  0  0  0  0  0  0  0  0  0  0  0
   -2.4430    0.1840    3.9660 C   0  0  0  0  0  0  0  0  0  0  0  0
   -1.4340   -0.5130    3.9610 O   0  0  0  0  0  0  0  0  0  0  0  0
   -4.8420    1.0770    2.7550 S   0  0  0  0  0  0  0  0  0  0  0  0
   -5.3180    0.4970    1.0690 C   0  0  0  0  0  0  0  0  0  0  0  0
   -6.4780    1.0980    0.4830 N   0  0  0  0  0  0  0  0  0  0  0  0
   -7.8180    1.1280    1.0130 C   0  0  0  0  0  0  0  0  0  0  0  0
   -8.6400    1.8200   -0.0150 C   0  0  0  0  0  0  0  0  0  0  0  0
   -7.7990    1.8340   -1.2880 C   0  0  0  0  0  0  0  0  0  0  0  0
   -6.4210    1.8590   -0.7330 C   0  0  0  0  0  0  0  0  0  0  0  0
   -4.3070   -0.3180    0.7340 C   0  0  0  0  0  0  0  0  0  0  0  0
   -4.1660   -0.9490   -0.6090 C   0  0  0  0  0  0  0  0  0  0  0  0
   -2.9650   -1.1760   -1.0210 O   0  0  0  0  0  0  0  0  0  0  0  0
   -5.2180   -1.3450   -1.4690 C   0  0  0  0  0  0  0  0  0  0  0  0
   -6.5530   -1.3900   -1.2920 C   0  0  0  0  0  0  0  0  0  0  0  0
   -7.2390   -1.8840   -2.5150 C   0  0  0  0  0  0  0  0  0  0  0  0
   -6.1230   -2.1170   -3.4420 C   0  0  0  0  0  0  0  0  0  0  0  0
   -4.9820   -1.8140   -2.8440 C   0  0  0  0  0  0  0  0  0  0  0  0
    1.8220    0.6240    1.3280 C   0  0  0  0  0  0  0  0  0  0  0  0
    2.9960    1.3000    1.2190 C   0  0  0  0  0  0  0  0  0  0  0  0
  1  2  1  0
  2  3  1  0
  2 13  2  0
  3  4  1  0
  4  5  2  0
  4 12  1  0
  5  6  1  0
  6  7  1  0
  6  8  2  0
  8  9  1  0
  8 11  1  0
  9 10  1  0
 11 12  2  0
 12 13  1  0
 13 14  1  0
 14 15  2  0
 14 16  1  0
 16 17  2  0
 16 44  1  0
 17 18  1  0
 18 19  2  0
 19 20  1  0
 19 43  1  0
 20 21  1  0
 21 22  2  0
 21 23  1  0
 23 24  1  0
 24 25  2  0
 24 35  1  0
 25 26  1  0
 25 28  1  0
 26 27  2  0
 28 29  1  0
 29 30  1  0
 29 35  2  0
 30 31  1  0
 30 34  1  0
 31 32  1  0
 32 33  1  0
 33 34  1  0
 35 36  1  0
 36 37  2  0
 36 38  1  0
 38 39  2  0
 38 42  1  0
 39 40  1  0
 40 41  1  0
 41 42  2  0
 43 44  2  0
M  END
