
     RDKit          3D

 44 49  0  0  0  0  0  0  0  0999 V2000
    9.5000   -0.3030    3.2800 C   0  0  0  0  0  0  0  0  0  0  0  0
    8.8050    0.0600    2.0020 C   0  0  0  0  0  0  0  0  0  0  0  0
    7.4560   -0.1070    1.8370 C   0  0  0  0  0  0  0  0  0  0  0  0
    6.7980    0.2170    0.6710 C   0  0  0  0  0  0  0  0  0  0  0  0
    5.3590    0.0190    0.5590 C   0  0  0  0  0  0  0  0  0  0  0  0
    4.7050   -0.3310    1.5630 O   0  0  0  0  0  0  0  0  0  0  0  0
    4.6370    0.2020   -0.6470 N   0  0  0  0  0  0  0  0  0  0  0  0
    3.2130   -0.0060   -0.7050 C   0  0  0  0  0  0  0  0  0  0  0  0
    2.5720   -1.1900   -0.9820 C   0  0  0  0  0  0  0  0  0  0  0  0
    3.2110   -2.4970   -1.2750 C   0  0  0  0  0  0  0  0  0  0  0  0
    1.2110   -0.9930   -0.9490 N   0  0  0  0  0  0  0  0  0  0  0  0
    0.2750   -2.0170   -1.1860 C   0  0  0  0  0  0  0  0  0  0  0  0
    0.6710   -3.2160   -1.4430 O   0  0  0  0  0  0  0  0  0  0  0  0
   -1.1590   -1.8380   -1.1650 C   0  0  0  0  0  0  0  0  0  0  0  0
   -1.8180   -1.4790   -2.3350 C   0  0  0  0  0  0  0  0  0  0  0  0
   -3.1880   -1.3260   -2.3560 C   0  0  0  0  0  0  0  0  0  0  0  0
   -3.9580   -1.5240   -1.2180 C   0  0  0  0  0  0  0  0  0  0  0  0
   -3.2840   -1.8810   -0.0630 C   0  0  0  0  0  0  0  0  0  0  0  0
   -1.9130   -2.0350   -0.0370 C   0  0  0  0  0  0  0  0  0  0  0  0
   -4.3140   -2.0220    1.0060 C   0  0  0  0  0  0  0  0  0  0  0  0
   -5.5820   -2.2550    0.2240 C   0  0  0  0  0  0  0  0  0  0  0  0
   -5.3530   -1.4480   -0.9530 N   0  0  0  0  0  0  0  0  0  0  0  0
   -6.5160   -0.5740   -1.8560 S   0  0  2  0  0  0  0  0  0  0  0  0
   -7.6020   -1.5670   -2.2450 O   0  0  0  0  0  0  0  0  0  0  0  0
   -5.9190   -0.0080   -3.1110 O   0  0  0  0  0  0  0  0  0  0  0  0
   -7.2840    0.6520   -0.8860 C   0  0  0  0  0  0  0  0  0  0  0  0
   -8.4220    0.3620   -0.1720 C   0  0  0  0  0  0  0  0  0  0  0  0
   -9.0820    1.2870    0.6150 C   0  0  0  0  0  0  0  0  0  0  0  0
   -8.5760    2.5660    0.6900 C   0  0  0  0  0  0  0  0  0  0  0  0
   -9.2520    3.5940    1.5230 C   0  0  2  0  0  0  0  0  0  0  0  0
   -9.2870    3.1240    2.8360 F   0  0  0  0  0  0  0  0  0  0  0  0
  -10.5670    3.7520    1.1020 F   0  0  0  0  0  0  0  0  0  0  0  0
   -7.4370    2.8990   -0.0090 C   0  0  0  0  0  0  0  0  0  0  0  0
   -6.7910    1.9430   -0.7970 C   0  0  0  0  0  0  0  0  0  0  0  0
    0.9530    0.2810   -0.6600 C   0  0  0  0  0  0  0  0  0  0  0  0
   -0.2030    1.0520   -0.4930 C   0  0  0  0  0  0  0  0  0  0  0  0
   -0.1280    2.3920   -0.1850 C   0  0  0  0  0  0  0  0  0  0  0  0
    1.1170    2.9650   -0.0430 C   0  0  0  0  0  0  0  0  0  0  0  0
    2.2720    2.2310   -0.2010 C   0  0  0  0  0  0  0  0  0  0  0  0
    2.1990    0.8960   -0.5080 C   0  0  0  0  0  0  0  0  0  0  0  0
    7.5800    0.7280   -0.3420 C   0  0  0  0  0  0  0  0  0  0  0  0
    8.9430    0.9080   -0.2040 C   0  0  0  0  0  0  0  0  0  0  0  0
    9.5910    0.5740    0.9840 C   0  0  0  0  0  0  0  0  0  0  0  0
   10.9820    0.7610    1.1140 N   0  0  0  0  0  0  0  0  0  0  0  0
  1  2  1  0
  2  3  2  0
  2 43  1  0
  3  4  1  0
  4  5  1  0
  4 41  2  0
  5  6  2  0
  5  7  1  0
  7  8  1  0
  8  9  2  0
  8 40  1  0
  9 10  1  0
  9 11  1  0
 11 12  1  0
 11 35  1  0
 12 13  2  0
 12 14  1  0
 14 15  2  0
 14 19  1  0
 15 16  1  0
 16 17  2  0
 17 18  1  0
 17 22  1  0
 18 19  2  0
 18 20  1  0
 20 21  1  0
 21 22  1  0
 23 22  1  1
 23 24  2  0
 23 25  2  0
 23 26  1  0
 26 27  2  0
 26 34  1  0
 27 28  1  0
 28 29  2  0
 29 30  1  0
 29 33  1  0
 30 31  1  1
 30 32  1  0
 33 34  2  0
 35 36  2  0
 35 40  1  0
 36 37  1  0
 37 38  2  0
 38 39  1  0
 39 40  2  0
 41 42  1  0
 42 43  2  0
 43 44  1  0
M  END
