
     RDKit          3D

 44 49  0  0  0  0  0  0  0  0999 V2000
   -6.2270   -1.1410    1.0970 C   0  0  0  0  0  0  0  0  0  0  0  0
   -5.2610   -0.3550    0.2020 C   0  0  0  0  0  0  0  0  0  0  0  0
   -3.8740   -0.7430    0.4710 C   0  0  0  0  0  0  0  0  0  0  0  0
   -3.5330   -1.7920    1.2420 C   0  0  0  0  0  0  0  0  0  0  0  0
   -2.1140   -1.8870    1.2900 N   0  0  0  0  0  0  0  0  0  0  0  0
   -1.4000   -2.6430    2.2450 C   0  0  0  0  0  0  0  0  0  0  0  0
   -2.0280   -3.2970    3.1510 O   0  0  0  0  0  0  0  0  0  0  0  0
   -0.0220   -2.7600    2.3090 O   0  0  0  0  0  0  0  0  0  0  0  0
    0.6510   -3.5330    3.2880 C   0  0  0  0  0  0  0  0  0  0  0  0
   -1.5520   -1.1100    0.2300 C   0  0  2  0  0  0  0  0  0  0  0  0
   -0.3410   -0.4720    0.4460 N   0  0  0  0  0  0  0  0  0  0  0  0
    0.1410    0.6370   -0.2890 C   0  0  0  0  0  0  0  0  0  0  0  0
    1.3330    0.8460   -0.7600 C   0  0  0  0  0  0  0  0  0  0  0  0
    2.4300   -0.0950   -0.6520 C   0  0  0  0  0  0  0  0  0  0  0  0
    3.5610    0.3420   -1.1090 O   0  0  0  0  0  0  0  0  0  0  0  0
    2.4590   -1.3950   -0.1430 N   0  0  0  0  0  0  0  0  0  0  0  0
    3.6370   -2.1930   -0.0770 C   0  0  0  0  0  0  0  0  0  0  0  0
    3.4300   -3.5790   -0.0020 C   0  0  0  0  0  0  0  0  0  0  0  0
    4.5030   -4.4270    0.0890 C   0  0  0  0  0  0  0  0  0  0  0  0
    5.8330   -3.9590    0.1120 C   0  0  0  0  0  0  0  0  0  0  0  0
    6.0380   -2.6450    0.0410 C   0  0  0  0  0  0  0  0  0  0  0  0
    4.9210   -1.7790   -0.0530 C   0  0  0  0  0  0  0  0  0  0  0  0
    7.4410   -2.1670    0.0640 C   0  0  0  0  0  0  0  0  0  0  0  0
    8.2990   -3.6440    0.7050 S   0  0  0  0  0  0  0  0  0  0  0  0
    7.0190   -4.8420    0.2090 C   0  0  0  0  0  0  0  0  0  0  0  0
    1.7590    2.2090   -1.1350 C   0  0  0  0  0  0  0  0  0  0  0  0
    2.8720    2.2030   -1.8240 O   0  0  0  0  0  0  0  0  0  0  0  0
    1.1740    3.4660   -0.8590 C   0  0  0  0  0  0  0  0  0  0  0  0
    1.5430    4.5430   -1.6700 C   0  0  0  0  0  0  0  0  0  0  0  0
    1.1770    5.8310   -1.4660 C   0  0  0  0  0  0  0  0  0  0  0  0
    0.3860    6.1480   -0.3960 C   0  0  0  0  0  0  0  0  0  0  0  0
   -0.0140    7.4210   -0.1400 F   0  0  0  0  0  0  0  0  0  0  0  0
   -0.0090    5.1290    0.4400 C   0  0  0  0  0  0  0  0  0  0  0  0
   -0.7940    5.4130    1.5100 F   0  0  0  0  0  0  0  0  0  0  0  0
    0.3730    3.8240    0.2180 C   0  0  0  0  0  0  0  0  0  0  0  0
   -0.9670    1.4480   -0.8340 N   0  0  0  0  0  0  0  0  0  0  0  0
   -2.2990    1.0200   -0.5930 C   0  0  0  0  0  0  0  0  0  0  0  0
   -3.4060    1.8430   -1.1520 C   0  0  0  0  0  0  0  0  0  0  0  0
   -3.6070    3.1520   -0.7890 C   0  0  0  0  0  0  0  0  0  0  0  0
   -4.5990    3.9060   -1.3960 C   0  0  0  0  0  0  0  0  0  0  0  0
   -5.4000    3.3710   -2.3670 C   0  0  0  0  0  0  0  0  0  0  0  0
   -5.2050    2.0520   -2.7390 C   0  0  0  0  0  0  0  0  0  0  0  0
   -4.1990    1.3040   -2.1160 C   0  0  0  0  0  0  0  0  0  0  0  0
   -2.6480   -0.0620    0.0470 C   0  0  0  0  0  0  0  0  0  0  0  0
  1  2  1  0
  2  3  1  0
  3  4  2  0
  3 44  1  0
  4  5  1  0
  5  6  1  0
  5 10  1  0
  6  7  2  0
  6  8  1  0
  8  9  1  0
 10 11  1  1
 10 44  1  0
 11 12  1  0
 12 13  2  3
 12 36  1  0
 13 14  1  0
 13 26  1  0
 14 15  2  0
 14 16  1  0
 16 17  1  0
 17 18  2  0
 17 22  1  0
 18 19  1  0
 19 20  2  0
 20 21  1  0
 20 25  1  0
 21 22  2  0
 21 23  1  0
 23 24  1  0
 24 25  1  0
 26 27  2  0
 26 28  1  0
 28 29  2  0
 28 35  1  0
 29 30  1  0
 30 31  2  0
 31 32  1  0
 31 33  1  0
 33 34  1  0
 33 35  2  0
 36 37  1  0
 37 38  1  0
 37 44  2  0
 38 39  2  0
 38 43  1  0
 39 40  1  0
 40 41  2  0
 41 42  1  0
 42 43  2  0
M  END
