
     RDKit          3D

 44 49  0  0  0  0  0  0  0  0999 V2000
   -4.5230    0.8050   -2.9620 O   0  0  0  0  0  0  0  0  0  0  0  0
   -5.6910    0.5750   -2.5230 C   0  0  0  0  0  0  0  0  0  0  0  0
   -5.9700   -0.5780   -1.7680 N   0  0  0  0  0  0  0  0  0  0  0  0
   -7.2830   -0.9340   -1.2290 C   0  0  0  0  0  0  0  0  0  0  0  0
   -7.2630   -2.4360   -1.5850 C   0  0  0  0  0  0  0  0  0  0  0  0
   -5.9040   -2.8370   -1.0670 C   0  0  0  0  0  0  0  0  0  0  0  0
   -5.0450   -1.6140   -1.4140 C   0  0  2  0  0  0  0  0  0  0  0  0
   -4.1610   -1.3290   -0.2700 C   0  0  0  0  0  0  0  0  0  0  0  0
   -4.1000   -0.2900    0.3800 N   0  0  0  0  0  0  0  0  0  0  0  0
   -4.6730    0.9650    0.4480 C   0  0  0  0  0  0  0  0  0  0  0  0
   -5.8340    1.3050    0.9910 C   0  0  0  0  0  0  0  0  0  0  0  0
   -6.0300    2.7520    0.8280 C   0  0  0  0  0  0  0  0  0  0  0  0
   -4.8270    3.2140    0.1290 C   0  0  0  0  0  0  0  0  0  0  0  0
   -4.0620    2.1710   -0.0810 C   0  0  0  0  0  0  0  0  0  0  0  0
   -3.2940   -2.4190    0.1230 N   0  0  0  0  0  0  0  0  0  0  0  0
   -1.9810   -2.2120    0.5590 C   0  0  0  0  0  0  0  0  0  0  0  0
   -1.3590   -0.9830    0.5590 C   0  0  0  0  0  0  0  0  0  0  0  0
   -0.0480   -0.8660    0.9950 C   0  0  0  0  0  0  0  0  0  0  0  0
    0.6230    0.4300    0.9960 C   0  0  0  0  0  0  0  0  0  0  0  0
    0.1320    1.4090    0.3540 O   0  0  0  0  0  0  0  0  0  0  0  0
    1.8310    0.6300    1.7090 N   0  0  0  0  0  0  0  0  0  0  0  0
    2.4940    1.9100    1.7300 C   0  0  0  0  0  0  0  0  0  0  0  0
    1.9370    2.8260    1.0600 O   0  0  0  0  0  0  0  0  0  0  0  0
    3.7240    2.0980    2.4860 C   0  0  0  0  0  0  0  0  0  0  0  0
    3.7620    1.7730    3.8360 C   0  0  0  0  0  0  0  0  0  0  0  0
    4.9070    1.9350    4.5860 C   0  0  0  0  0  0  0  0  0  0  0  0
    6.0430    2.4380    3.9610 C   0  0  0  0  0  0  0  0  0  0  0  0
    7.1740    2.6030    4.6830 F   0  0  0  0  0  0  0  0  0  0  0  0
    5.9720    2.7520    2.6180 C   0  0  0  0  0  0  0  0  0  0  0  0
    4.8380    2.5950    1.8570 C   0  0  0  0  0  0  0  0  0  0  0  0
    4.7260    3.0020    0.1310 S   0  0  0  0  0  0  0  0  0  0  0  0
    5.1970    1.5730   -0.8140 C   0  0  0  0  0  0  0  0  0  0  0  0
    4.2300    0.6740   -1.1930 C   0  0  0  0  0  0  0  0  0  0  0  0
    4.5260   -0.4630   -1.9350 C   0  0  0  0  0  0  0  0  0  0  0  0
    5.8390   -0.6880   -2.2990 C   0  0  0  0  0  0  0  0  0  0  0  0
    6.8340    0.1950   -1.9340 C   0  0  0  0  0  0  0  0  0  0  0  0
    6.5160    1.3140   -1.2000 C   0  0  0  0  0  0  0  0  0  0  0  0
    8.1100   -0.3320   -2.4710 C   0  0  0  0  0  0  0  0  0  0  0  0
    7.8140   -1.7880   -2.7620 C   0  0  0  0  0  0  0  0  0  0  0  0
    6.4070   -1.7390   -3.0360 O   0  0  0  0  0  0  0  0  0  0  0  0
    0.5960   -2.0130    1.4220 C   0  0  0  0  0  0  0  0  0  0  0  0
    0.0020   -3.2410    1.4320 C   0  0  0  0  0  0  0  0  0  0  0  0
   -1.2900   -3.3500    1.0010 C   0  0  0  0  0  0  0  0  0  0  0  0
   -1.8880   -4.5580    1.0080 F   0  0  0  0  0  0  0  0  0  0  0  0
  1  2  2  0
  2  3  1  0
  3  4  1  0
  3  7  1  0
  4  5  1  0
  5  6  1  0
  6  7  1  0
  7  8  1  1
  8  9  2  3
  8 15  1  0
  9 10  1  0
 10 11  2  0
 10 14  1  0
 11 12  1  0
 12 13  1  0
 13 14  2  0
 15 16  1  0
 16 17  2  0
 16 43  1  0
 17 18  1  0
 18 19  1  0
 18 41  2  0
 19 20  2  0
 19 21  1  0
 21 22  1  0
 22 23  2  0
 22 24  1  0
 24 25  2  0
 24 30  1  0
 25 26  1  0
 26 27  2  0
 27 28  1  0
 27 29  1  0
 29 30  2  0
 30 31  1  0
 31 32  1  0
 32 33  2  0
 32 37  1  0
 33 34  1  0
 34 35  2  0
 35 36  1  0
 35 40  1  0
 36 37  2  0
 36 38  1  0
 38 39  1  0
 39 40  1  0
 41 42  1  0
 42 43  2  0
 43 44  1  0
M  END
