
     RDKit          3D

 18 20  0  0  0  0  0  0  0  0999 V2000
   -0.0470   -3.8460    0.6630 O   0  0  0  0  0  0  0  0  0  0  0  0
   -0.6060   -2.7370    0.4410 C   0  0  0  0  0  0  0  0  0  0  0  0
   -1.9770   -2.5820    0.4490 O   0  0  0  0  0  0  0  0  0  0  0  0
   -2.5450   -1.5650   -0.3830 C   0  0  0  0  0  0  0  0  0  0  0  0
   -1.8810   -0.2870   -0.0490 C   0  0  0  0  0  0  0  0  0  0  0  0
   -2.4830    0.8350    0.2650 C   0  0  0  0  0  0  0  0  0  0  0  0
   -3.9370    1.0590    0.3490 C   0  0  0  0  0  0  0  0  0  0  0  0
   -4.3200    1.4620    1.6330 O   0  0  0  0  0  0  0  0  0  0  0  0
   -0.4060   -0.3150   -0.0870 C   0  0  0  0  0  0  0  0  0  0  0  0
    0.3160    0.8330   -0.3550 C   0  0  0  0  0  0  0  0  0  0  0  0
    1.6950    0.7690   -0.3820 C   0  0  0  0  0  0  0  0  0  0  0  0
    2.4470    1.9070   -0.6490 C   0  0  0  0  0  0  0  0  0  0  0  0
    3.8200    1.7940   -0.6640 C   0  0  0  0  0  0  0  0  0  0  0  0
    4.4290    0.5840   -0.4220 C   0  0  0  0  0  0  0  0  0  0  0  0
    3.6720   -0.5140   -0.1630 C   0  0  0  0  0  0  0  0  0  0  0  0
    2.2870   -0.4590   -0.1350 C   0  0  0  0  0  0  0  0  0  0  0  0
    1.5660   -1.6040    0.1330 C   0  0  0  0  0  0  0  0  0  0  0  0
    0.1910   -1.5440    0.1600 C   0  0  0  0  0  0  0  0  0  0  0  0
  1  2  2  0
  2  3  1  0
  2 18  1  0
  3  4  1  0
  4  5  1  0
  5  6  2  3
  5  9  1  0
  6  7  1  0
  7  8  1  0
  9 10  2  0
  9 18  1  0
 10 11  1  0
 11 12  2  0
 11 16  1  0
 12 13  1  0
 13 14  2  0
 14 15  1  0
 15 16  2  0
 16 17  1  0
 17 18  2  0
M  END
