
     RDKit          3D

 22 24  0  0  0  0  0  0  0  0999 V2000
    8.2690    0.3280   -0.2380 N   0  0  0  0  0  0  0  0  0  0  0  0
    7.1170   -0.0060    0.2090 C   0  0  0  0  0  0  0  0  0  0  0  0
    5.9640    0.0820   -0.5960 N   0  0  0  0  0  0  0  0  0  0  0  0
    4.7820    0.0130   -0.0600 C   0  0  0  0  0  0  0  0  0  0  0  0
    4.4610   -0.1400    1.2340 N   0  0  0  0  0  0  0  0  0  0  0  0
    3.1200   -0.1560    1.3190 C   0  0  0  0  0  0  0  0  0  0  0  0
    2.5710   -0.0120    0.0620 C   0  0  0  0  0  0  0  0  0  0  0  0
    1.1330    0.0160   -0.2400 C   0  0  0  0  0  0  0  0  0  0  0  0
    0.8200    0.1520   -1.4230 O   0  0  0  0  0  0  0  0  0  0  0  0
    0.1690   -0.1090    0.7830 N   0  0  0  0  0  0  0  0  0  0  0  0
   -1.2240   -0.0970    0.6180 C   0  0  0  0  0  0  0  0  0  0  0  0
   -2.0140   -0.2350    1.7670 C   0  0  0  0  0  0  0  0  0  0  0  0
   -3.3750   -0.2380    1.7300 C   0  0  0  0  0  0  0  0  0  0  0  0
   -4.0590   -0.1030    0.5400 C   0  0  0  0  0  0  0  0  0  0  0  0
   -5.4350   -0.1060    0.5060 C   0  0  0  0  0  0  0  0  0  0  0  0
   -6.0840    0.0320   -0.6980 C   0  0  0  0  0  0  0  0  0  0  0  0
   -5.3400    0.1710   -1.8600 C   0  0  0  0  0  0  0  0  0  0  0  0
   -3.9440    0.1700   -1.7870 C   0  0  0  0  0  0  0  0  0  0  0  0
   -3.1660    0.3100   -2.9460 O   0  0  0  0  0  0  0  0  0  0  0  0
   -3.2880    0.0330   -0.5870 C   0  0  0  0  0  0  0  0  0  0  0  0
   -1.8880    0.0370   -0.5550 C   0  0  0  0  0  0  0  0  0  0  0  0
    3.6220    0.0900   -0.7650 N   0  0  0  0  0  0  0  0  0  0  0  0
  1  2  2  0
  2  3  1  0
  3  4  2  3
  4  5  1  0
  4 22  1  0
  5  6  1  0
  6  7  2  0
  7  8  1  0
  7 22  1  0
  8  9  2  0
  8 10  1  0
 10 11  1  0
 11 12  2  0
 11 21  1  0
 12 13  1  0
 13 14  2  0
 14 15  1  0
 14 20  1  0
 15 16  2  0
 16 17  1  0
 17 18  2  0
 18 19  1  0
 18 20  1  0
 20 21  2  0
M  END
