
     RDKit          3D

 22 24  0  0  0  0  0  0  0  0999 V2000
    1.5080    1.3700   -1.7150 O   0  0  0  0  0  0  0  0  0  0  0  0
    1.9840    0.7550   -0.7080 C   0  0  0  0  0  0  0  0  0  0  0  0
    1.0900    0.0020    0.0960 N   0  0  0  0  0  0  0  0  0  0  0  0
   -0.3240   -0.0400   -0.2560 C   0  0  0  0  0  0  0  0  0  0  0  0
   -1.1180   -0.8760    0.6940 C   0  0  0  0  0  0  0  0  0  0  0  0
   -2.5440   -0.8350    0.2210 C   0  0  0  0  0  0  0  0  0  0  0  0
   -2.8850   -1.2900   -1.0380 O   0  0  0  0  0  0  0  0  0  0  0  0
   -3.4750   -0.3730    0.9820 N   0  0  0  0  0  0  0  0  0  0  0  0
   -4.8200   -0.3240    0.5590 C   0  0  0  0  0  0  0  0  0  0  0  0
   -5.7670   -1.1770    0.9120 C   0  0  0  0  0  0  0  0  0  0  0  0
   -7.0620   -0.8350    0.2890 C   0  0  0  0  0  0  0  0  0  0  0  0
   -6.8520    0.5900   -0.1480 C   0  0  0  0  0  0  0  0  0  0  0  0
   -5.3740    0.7090   -0.3560 C   0  0  0  0  0  0  0  0  0  0  0  0
    3.3780    0.8640   -0.4560 N   0  0  0  0  0  0  0  0  0  0  0  0
    4.2240    1.6460   -1.3410 C   0  0  0  0  0  0  0  0  0  0  0  0
    5.6650    1.2800   -1.2920 C   0  0  0  0  0  0  0  0  0  0  0  0
    5.9670   -0.0830   -0.7730 C   0  0  0  0  0  0  0  0  0  0  0  0
    5.2860   -0.2600    0.5340 C   0  0  0  0  0  0  0  0  0  0  0  0
    5.6190   -0.8200    1.7500 C   0  0  0  0  0  0  0  0  0  0  0  0
    4.5380   -0.6500    2.5290 N   0  0  0  0  0  0  0  0  0  0  0  0
    3.5660   -0.0290    1.8900 N   0  0  0  0  0  0  0  0  0  0  0  0
    4.0010    0.2240    0.6530 C   0  0  0  0  0  0  0  0  0  0  0  0
  1  2  2  0
  2  3  1  0
  2 14  1  0
  3  4  1  0
  4  5  1  0
  5  6  1  0
  6  7  1  0
  6  8  2  3
  8  9  1  0
  9 10  2  0
  9 13  1  0
 10 11  1  0
 11 12  1  0
 12 13  1  0
 14 15  1  0
 14 22  1  0
 15 16  1  0
 16 17  1  0
 17 18  1  0
 18 19  2  0
 18 22  1  0
 19 20  1  0
 20 21  1  0
 21 22  2  0
M  END
