
     RDKit          3D

 18 20  0  0  0  0  0  0  0  0999 V2000
    4.0160    0.4990    0.4270 C   0  0  0  0  0  0  0  0  0  0  0  0
    3.3770   -0.5830   -0.4100 C   0  0  0  0  0  0  0  0  0  0  0  0
    2.0440   -0.9310    0.0460 C   0  0  0  0  0  0  0  0  0  0  0  0
    1.8660   -2.0500    0.8550 C   0  0  0  0  0  0  0  0  0  0  0  0
    0.6200   -2.3870    1.3320 C   0  0  0  0  0  0  0  0  0  0  0  0
   -0.4690   -1.5850    0.9910 C   0  0  0  0  0  0  0  0  0  0  0  0
   -1.6670   -1.8830    1.4310 O   0  0  0  0  0  0  0  0  0  0  0  0
   -2.7280   -1.1790    1.1500 C   0  0  0  0  0  0  0  0  0  0  0  0
   -3.8500   -1.5250    1.6090 O   0  0  0  0  0  0  0  0  0  0  0  0
   -2.6860   -0.0310    0.3470 C   0  0  0  0  0  0  0  0  0  0  0  0
   -3.9400    0.7020    0.0770 C   0  0  0  0  0  0  0  0  0  0  0  0
   -3.8370    1.8060   -0.7090 O   0  0  0  0  0  0  0  0  0  0  0  0
   -1.4490    0.3220   -0.1400 C   0  0  0  0  0  0  0  0  0  0  0  0
   -0.3390   -0.4690    0.1920 C   0  0  0  0  0  0  0  0  0  0  0  0
    0.9400   -0.1800   -0.2580 C   0  0  0  0  0  0  0  0  0  0  0  0
    1.1000    0.9870   -1.1080 C   0  0  0  0  0  0  0  0  0  0  0  0
    0.0670    1.7330   -1.4260 C   0  0  0  0  0  0  0  0  0  0  0  0
   -1.3320    1.5130   -0.9950 C   0  0  0  0  0  0  0  0  0  0  0  0
  1  2  1  0
  2  3  1  0
  3  4  2  0
  3 15  1  0
  4  5  1  0
  5  6  2  0
  6  7  1  0
  6 14  1  0
  7  8  1  0
  8  9  2  0
  8 10  1  0
 10 11  1  0
 10 13  2  0
 11 12  1  0
 13 14  1  0
 13 18  1  0
 14 15  2  0
 15 16  1  0
 16 17  2  0
 17 18  1  0
M  END
