
     RDKit          3D

 18 20  0  0  0  0  0  0  0  0999 V2000
    5.0820   -1.6840   -0.0270 O   0  0  0  0  0  0  0  0  0  0  0  0
    4.4020   -0.4960    0.1890 C   0  0  0  0  0  0  0  0  0  0  0  0
    5.0950    0.6520    0.5130 C   0  0  0  0  0  0  0  0  0  0  0  0
    4.4200    1.8360    0.7290 C   0  0  0  0  0  0  0  0  0  0  0  0
    3.0520    1.9160    0.6290 C   0  0  0  0  0  0  0  0  0  0  0  0
    2.3560    0.7490    0.3000 C   0  0  0  0  0  0  0  0  0  0  0  0
    1.0770    0.5170    0.1360 O   0  0  0  0  0  0  0  0  0  0  0  0
    0.8350   -0.7320   -0.1730 C   0  0  0  0  0  0  0  0  0  0  0  0
   -0.5050   -1.3570   -0.4330 C   0  0  0  0  0  0  0  0  0  0  0  0
   -1.4740   -0.3650   -0.2870 O   0  0  0  0  0  0  0  0  0  0  0  0
   -2.7440   -0.8660   -0.5120 C   0  0  1  0  0  0  0  0  0  0  0  0
   -3.5660   -0.7340    0.7040 C   0  0  0  0  0  0  0  0  0  0  0  0
   -4.3190    0.3540    0.9260 C   0  0  0  0  0  0  0  0  0  0  0  0
   -4.2770    1.4110   -0.1180 C   0  0  0  0  0  0  0  0  0  0  0  0
   -4.1450    0.8610   -1.4960 C   0  0  0  0  0  0  0  0  0  0  0  0
   -3.4090   -0.2310   -1.6820 C   0  0  0  0  0  0  0  0  0  0  0  0
    2.0650   -1.3620   -0.2130 C   0  0  0  0  0  0  0  0  0  0  0  0
    3.0350   -0.4300    0.0860 C   0  0  0  0  0  0  0  0  0  0  0  0
  1  2  1  0
  2  3  2  0
  2 18  1  0
  3  4  1  0
  4  5  2  0
  5  6  1  0
  6  7  1  0
  6 18  2  0
  7  8  1  0
  8  9  1  0
  8 17  2  0
  9 10  1  0
 11 10  1  1
 11 12  1  0
 11 16  1  0
 12 13  2  0
 13 14  1  0
 14 15  1  0
 15 16  2  0
 17 18  1  0
M  END
