
     RDKit          3D

 17 19  0  0  0  0  0  0  0  0999 V2000
    4.2740    1.8810    2.0580 O   0  0  0  0  0  0  0  0  0  0  0  0
    4.1920    1.0700    1.1200 C   0  0  0  0  0  0  0  0  0  0  0  0
    5.3250    0.4830    0.4210 C   0  0  0  0  0  0  0  0  0  0  0  0
    4.8180   -0.3170   -0.4970 C   0  0  0  0  0  0  0  0  0  0  0  0
    3.3580   -0.3110   -0.4660 C   0  0  0  0  0  0  0  0  0  0  0  0
    2.3740   -0.9430   -1.1810 C   0  0  0  0  0  0  0  0  0  0  0  0
    1.0110   -0.7410   -0.9240 C   0  0  0  0  0  0  0  0  0  0  0  0
    0.1010   -1.4260   -1.7030 O   0  0  0  0  0  0  0  0  0  0  0  0
    0.5920    0.1080    0.0660 C   0  0  0  0  0  0  0  0  0  0  0  0
   -0.7140    0.3480    0.3670 O   0  0  0  0  0  0  0  0  0  0  0  0
   -1.8980   -0.0960   -0.1290 C   0  0  1  0  0  0  0  0  0  0  0  0
   -2.6720   -0.7210    1.0550 C   0  0  0  0  0  0  0  0  0  0  0  0
   -4.0950   -0.6690    0.4860 C   0  0  0  0  0  0  0  0  0  0  0  0
   -4.1670    0.7510    0.0050 C   0  0  0  0  0  0  0  0  0  0  0  0
   -2.7740    1.1230   -0.4330 C   0  0  0  0  0  0  0  0  0  0  0  0
    1.6150    0.7490    0.7910 C   0  0  0  0  0  0  0  0  0  0  0  0
    2.9480    0.5460    0.5330 C   0  0  0  0  0  0  0  0  0  0  0  0
  1  2  2  0
  2  3  1  0
  2 17  1  0
  3  4  2  0
  4  5  1  0
  5  6  2  0
  5 17  1  0
  6  7  1  0
  7  8  1  0
  7  9  2  0
  9 10  1  0
  9 16  1  0
 11 10  1  1
 11 12  1  0
 11 15  1  0
 12 13  1  0
 13 14  1  0
 14 15  1  0
 16 17  2  0
M  END
