
     RDKit          3D

 22 24  0  0  0  0  0  0  0  0999 V2000
   -1.1620    4.6120   -0.9830 C   0  0  0  0  0  0  0  0  0  0  0  0
   -0.8140    3.1750   -0.6880 C   0  0  0  0  0  0  0  0  0  0  0  0
    0.4380    2.6400   -0.5730 C   0  0  0  0  0  0  0  0  0  0  0  0
    0.3400    1.2870   -0.2970 C   0  0  0  0  0  0  0  0  0  0  0  0
    1.4050    0.3630   -0.1040 N   0  0  0  0  0  0  0  0  0  0  0  0
    2.7800    0.6780   -0.1620 C   0  0  0  0  0  0  0  0  0  0  0  0
    3.1390    1.8510   -0.4010 O   0  0  0  0  0  0  0  0  0  0  0  0
    3.7580   -0.3550    0.0530 N   0  0  0  0  0  0  0  0  0  0  0  0
    5.1580   -0.0270   -0.0090 C   0  0  1  0  0  0  0  0  0  0  0  0
    6.0260   -0.7220    1.0820 C   0  0  0  0  0  0  0  0  0  0  0  0
    6.1510   -1.1350   -0.3200 C   0  0  0  0  0  0  0  0  0  0  0  0
   -1.0040    1.0350   -0.2510 C   0  0  0  0  0  0  0  0  0  0  0  0
   -1.6590   -0.2700    0.0120 C   0  0  0  0  0  0  0  0  0  0  0  0
   -0.9610   -1.2590    0.2170 O   0  0  0  0  0  0  0  0  0  0  0  0
   -3.0620   -0.3750    0.0280 N   0  0  0  0  0  0  0  0  0  0  0  0
   -3.7960   -1.5730    0.2640 C   0  0  0  0  0  0  0  0  0  0  0  0
   -3.2680   -2.8380    0.2660 C   0  0  0  0  0  0  0  0  0  0  0  0
   -4.0890   -3.9370    0.5280 C   0  0  0  0  0  0  0  0  0  0  0  0
   -5.4310   -3.7590    0.7850 C   0  0  0  0  0  0  0  0  0  0  0  0
   -5.9230   -2.5280    0.7790 N   0  0  0  0  0  0  0  0  0  0  0  0
   -5.1740   -1.4590    0.5340 C   0  0  0  0  0  0  0  0  0  0  0  0
   -1.6910    2.1880   -0.4900 N   0  0  0  0  0  0  0  0  0  0  0  0
  1  2  1  0
  2  3  2  0
  2 22  1  0
  3  4  1  0
  4  5  1  0
  4 12  2  0
  5  6  1  0
  6  7  2  0
  6  8  1  0
  9  8  1  1
  9 10  1  0
  9 11  1  0
 10 11  1  0
 12 13  1  0
 12 22  1  0
 13 14  2  0
 13 15  1  0
 15 16  1  0
 16 17  2  0
 16 21  1  0
 17 18  1  0
 18 19  2  0
 19 20  1  0
 20 21  2  0
M  END
