
     RDKit          3D

 36 40  0  0  0  0  0  0  0  0999 V2000
    5.1810   -2.2880    0.1130 C   0  0  0  0  0  0  0  0  0  0  0  0
    3.8890   -2.0900   -0.4630 N   0  0  0  0  0  0  0  0  0  0  0  0
    3.3090   -3.3780   -0.7450 C   0  0  0  0  0  0  0  0  0  0  0  0
    1.8740   -3.3610   -1.1360 C   0  0  0  0  0  0  0  0  0  0  0  0
    1.3450   -1.9920   -1.2670 C   0  0  0  0  0  0  0  0  0  0  0  0
    0.2770   -1.7380   -2.0940 C   0  0  0  0  0  0  0  0  0  0  0  0
   -0.2420   -0.4420   -2.2220 C   0  0  0  0  0  0  0  0  0  0  0  0
    0.2680    0.6380   -1.5440 C   0  0  0  0  0  0  0  0  0  0  0  0
   -0.2160    1.9010   -1.6500 O   0  0  0  0  0  0  0  0  0  0  0  0
   -1.2420    2.4710   -2.3480 C   0  0  0  0  0  0  0  0  0  0  0  0
   -2.6250    1.9890   -2.0010 C   0  0  0  0  0  0  0  0  0  0  0  0
   -3.6160    2.6820   -2.8010 N   0  0  0  0  0  0  0  0  0  0  0  0
   -4.0400    2.2620   -4.0050 C   0  0  0  0  0  0  0  0  0  0  0  0
   -3.6540    1.2170   -4.6380 O   0  0  0  0  0  0  0  0  0  0  0  0
   -4.9610    3.1590   -4.4270 N   0  0  0  0  0  0  0  0  0  0  0  0
   -5.1250    4.1290   -3.5210 C   0  0  0  0  0  0  0  0  0  0  0  0
   -5.9100    5.2480   -3.4370 C   0  0  0  0  0  0  0  0  0  0  0  0
   -5.8870    6.1140   -2.3370 C   0  0  0  0  0  0  0  0  0  0  0  0
   -5.0060    5.7630   -1.3190 C   0  0  0  0  0  0  0  0  0  0  0  0
   -4.2020    4.6420   -1.3750 C   0  0  0  0  0  0  0  0  0  0  0  0
   -4.2630    3.8220   -2.4800 C   0  0  0  0  0  0  0  0  0  0  0  0
    1.3620    0.3540   -0.7050 C   0  0  0  0  0  0  0  0  0  0  0  0
    1.8910    1.4160   -0.0180 F   0  0  0  0  0  0  0  0  0  0  0  0
    1.8630   -0.9120   -0.5860 C   0  0  0  0  0  0  0  0  0  0  0  0
    3.0360   -1.2030    0.2880 C   0  0  1  0  0  0  0  0  0  0  0  0
    2.6560   -1.8810    1.5130 N   0  0  0  0  0  0  0  0  0  0  0  0
    2.8490   -1.3480    2.7890 C   0  0  0  0  0  0  0  0  0  0  0  0
    3.3810   -0.2120    2.9020 O   0  0  0  0  0  0  0  0  0  0  0  0
    2.4730   -2.0170    4.0450 C   0  0  0  0  0  0  0  0  0  0  0  0
    1.9190   -3.2630    4.2510 C   0  0  0  0  0  0  0  0  0  0  0  0
    1.6910   -3.6290    5.5160 C   0  0  0  0  0  0  0  0  0  0  0  0
    1.9870   -2.8200    6.5400 C   0  0  0  0  0  0  0  0  0  0  0  0
    1.8830   -2.9210    7.9920 C   0  0  2  0  0  0  0  0  0  0  0  0
    3.0470   -3.5880    8.4210 F   0  0  0  0  0  0  0  0  0  0  0  0
    0.8260   -3.7310    8.3160 F   0  0  0  0  0  0  0  0  0  0  0  0
    2.6650   -1.3720    5.6500 S   0  0  0  0  0  0  0  0  0  0  0  0
  1  2  1  0
  2  3  1  0
  2 25  1  0
  3  4  1  0
  4  5  1  0
  5  6  2  0
  5 24  1  0
  6  7  1  0
  7  8  2  0
  8  9  1  0
  8 22  1  0
  9 10  1  0
 10 11  1  0
 11 12  1  0
 12 13  1  0
 12 21  1  0
 13 14  2  0
 13 15  1  0
 15 16  1  0
 16 17  2  0
 16 21  1  0
 17 18  1  0
 18 19  2  0
 19 20  1  0
 20 21  2  0
 22 23  1  0
 22 24  2  0
 24 25  1  0
 25 26  1  1
 26 27  1  0
 27 28  2  0
 27 29  1  0
 29 30  2  0
 29 36  1  0
 30 31  1  0
 31 32  2  0
 32 33  1  0
 32 36  1  0
 33 34  1  6
 33 35  1  0
M  END
