
     RDKit          3D

 36 39  0  0  0  0  0  0  0  0999 V2000
    0.5290    3.7970    0.3180 C   0  0  0  0  0  0  0  0  0  0  0  0
    0.0730    2.4410    0.3340 O   0  0  0  0  0  0  0  0  0  0  0  0
    0.7420    1.5040   -0.5410 C   0  0  0  0  0  0  0  0  0  0  0  0
    1.9690    1.3100   -0.2160 C   0  0  0  0  0  0  0  0  0  0  0  0
    2.9680    0.4910   -0.8190 C   0  0  0  0  0  0  0  0  0  0  0  0
    4.1060    0.3290   -0.1920 N   0  0  0  0  0  0  0  0  0  0  0  0
    5.2560   -0.4380   -0.5800 C   0  0  1  0  0  0  0  0  0  0  0  0
    6.3040   -0.4380    0.4750 C   0  0  0  0  0  0  0  0  0  0  0  0
    5.8900   -1.0070    1.7690 C   0  0  0  0  0  0  0  0  0  0  0  0
    6.8010   -1.0490    2.8420 N   0  0  0  0  0  0  0  0  0  0  0  0
    4.7400   -1.4520    1.9260 O   0  0  0  0  0  0  0  0  0  0  0  0
    4.9580   -1.8020   -1.0640 C   0  0  0  0  0  0  0  0  0  0  0  0
    5.7570   -2.7890   -0.5600 C   0  0  0  0  0  0  0  0  0  0  0  0
    5.5780   -4.1220   -0.9600 C   0  0  0  0  0  0  0  0  0  0  0  0
    4.6130   -4.4960   -1.8580 C   0  0  0  0  0  0  0  0  0  0  0  0
    3.8100   -3.5210   -2.3670 C   0  0  0  0  0  0  0  0  0  0  0  0
    3.9750   -2.2210   -1.9840 C   0  0  0  0  0  0  0  0  0  0  0  0
    3.0130   -1.3400   -2.6180 N   0  0  0  0  0  0  0  0  0  0  0  0
    2.7400    0.0040   -2.1840 C   0  0  0  0  0  0  0  0  0  0  0  0
    2.2850    0.7940   -3.0490 O   0  0  0  0  0  0  0  0  0  0  0  0
   -0.1140    0.9620   -1.5900 C   0  0  0  0  0  0  0  0  0  0  0  0
   -1.3690    0.3670   -1.0890 N   0  0  0  0  0  0  0  0  0  0  0  0
   -2.3970    1.0630   -0.4220 C   0  0  0  0  0  0  0  0  0  0  0  0
   -2.2940    2.2850   -0.2180 O   0  0  0  0  0  0  0  0  0  0  0  0
   -3.6010    0.3780    0.0470 C   0  0  0  0  0  0  0  0  0  0  0  0
   -3.8720   -0.9210   -0.1420 N   0  0  0  0  0  0  0  0  0  0  0  0
   -5.0480   -1.2170    0.4280 C   0  0  0  0  0  0  0  0  0  0  0  0
   -5.5330   -0.0340    1.0030 C   0  0  0  0  0  0  0  0  0  0  0  0
   -4.6240    0.9570    0.7600 C   0  0  0  0  0  0  0  0  0  0  0  0
   -4.7130    2.3600    1.1300 C   0  0  2  0  0  0  0  0  0  0  0  0
   -5.7610    2.6540    2.1380 C   0  0  0  0  0  0  0  0  0  0  0  0
   -4.9340    3.2550   -0.0840 C   0  0  0  0  0  0  0  0  0  0  0  0
   -6.8200   -0.3900    1.6200 C   0  0  0  0  0  0  0  0  0  0  0  0
   -7.3610    0.1180    2.6080 O   0  0  0  0  0  0  0  0  0  0  0  0
   -7.3360   -1.5280    0.7660 C   0  0  0  0  0  0  0  0  0  0  0  0
   -6.0230   -2.3200    0.6670 C   0  0  0  0  0  0  0  0  0  0  0  0
  1  2  1  0
  2  3  1  0
  3  4  2  3
  3 21  1  0
  4  5  1  0
  5  6  2  0
  5 19  1  0
  6  7  1  0
  7  8  1  1
  7 12  1  0
  8  9  1  0
  9 10  1  0
  9 11  2  0
 12 13  2  0
 12 17  1  0
 13 14  1  0
 14 15  2  0
 15 16  1  0
 16 17  2  0
 17 18  1  0
 18 19  1  0
 19 20  2  0
 21 22  1  0
 22 23  1  0
 23 24  2  0
 23 25  1  0
 25 26  1  0
 25 29  2  0
 26 27  1  0
 27 28  2  0
 27 36  1  0
 28 29  1  0
 28 33  1  0
 29 30  1  0
 30 31  1  1
 30 32  1  0
 33 34  2  0
 33 35  1  0
 35 36  1  0
M  CHG  1   6   1
M  END
