
     RDKit          3D

 36 40  0  0  0  0  0  0  0  0999 V2000
   -3.8380    3.8690    2.1070 C   0  0  0  0  0  0  0  0  0  0  0  0
   -2.4660    3.5290    2.0520 O   0  0  0  0  0  0  0  0  0  0  0  0
   -2.0060    2.8790    0.9190 C   0  0  0  0  0  0  0  0  0  0  0  0
   -2.7590    2.5970   -0.0230 O   0  0  0  0  0  0  0  0  0  0  0  0
   -0.5680    2.5280    0.8720 C   0  0  0  0  0  0  0  0  0  0  0  0
   -0.2910    1.8560   -0.3610 N   0  0  0  0  0  0  0  0  0  0  0  0
   -0.9080    0.5830   -0.6260 C   0  0  0  0  0  0  0  0  0  0  0  0
   -1.7920    0.1530    0.3070 N   0  0  0  0  0  0  0  0  0  0  0  0
   -2.4750   -0.9740    0.1660 C   0  0  0  0  0  0  0  0  0  0  0  0
   -3.3860   -1.5720    0.9610 N   0  0  0  0  0  0  0  0  0  0  0  0
   -3.7770   -2.6930    0.3640 C   0  0  0  0  0  0  0  0  0  0  0  0
   -4.6960   -3.6420    0.7930 C   0  0  0  0  0  0  0  0  0  0  0  0
   -4.9300   -4.7240   -0.0080 C   0  0  0  0  0  0  0  0  0  0  0  0
   -4.2670   -4.8780   -1.2260 C   0  0  0  0  0  0  0  0  0  0  0  0
   -3.3580   -3.9290   -1.6400 C   0  0  0  0  0  0  0  0  0  0  0  0
   -3.1220   -2.8480   -0.8420 C   0  0  0  0  0  0  0  0  0  0  0  0
   -2.2830   -1.7390   -0.9690 C   0  0  0  0  0  0  0  0  0  0  0  0
   -1.3950   -1.3360   -1.9350 C   0  0  0  0  0  0  0  0  0  0  0  0
   -0.6820   -0.1460   -1.7700 C   0  0  0  0  0  0  0  0  0  0  0  0
    0.3240    0.2930   -2.7280 C   0  0  0  0  0  0  0  0  0  0  0  0
    1.7220   -0.0960   -2.4590 C   0  0  0  0  0  0  0  0  0  0  0  0
    2.3140    0.3710   -1.2200 N   0  0  0  0  0  0  0  0  0  0  0  0
    3.0170    1.5960   -1.1830 C   0  0  0  0  0  0  0  0  0  0  0  0
    3.2380    2.4050   -2.1140 O   0  0  0  0  0  0  0  0  0  0  0  0
    3.5530    1.7970    0.4780 S   0  0  2  0  0  0  0  0  0  0  0  0
    5.3300    1.6850    0.6410 C   0  0  0  0  0  0  0  0  0  0  0  0
    6.0680    2.7310   -0.1610 C   0  0  1  0  0  0  0  0  0  0  0  0
    5.7470    2.5640   -1.4930 F   0  0  0  0  0  0  0  0  0  0  0  0
    5.8700    3.9950    0.2990 F   0  0  0  0  0  0  0  0  0  0  0  0
    7.4240    2.4260   -0.0420 F   0  0  0  0  0  0  0  0  0  0  0  0
    2.8640    0.2820    1.0750 C   0  0  0  0  0  0  0  0  0  0  0  0
    2.8560   -0.3190    2.3330 C   0  0  0  0  0  0  0  0  0  0  0  0
    2.2380   -1.5190    2.5490 C   0  0  0  0  0  0  0  0  0  0  0  0
    1.6140   -2.1330    1.4910 C   0  0  0  0  0  0  0  0  0  0  0  0
    1.6160   -1.5580    0.2680 C   0  0  0  0  0  0  0  0  0  0  0  0
    2.2500   -0.3120    0.0130 C   0  0  0  0  0  0  0  0  0  0  0  0
  1  2  1  0
  2  3  1  0
  3  4  2  0
  3  5  1  0
  5  6  1  0
  6  7  1  0
  7  8  2  0
  7 19  1  0
  8  9  1  0
  9 10  1  0
  9 17  2  0
 10 11  1  0
 11 12  2  0
 11 16  1  0
 12 13  1  0
 13 14  2  0
 14 15  1  0
 15 16  2  0
 16 17  1  0
 17 18  1  0
 18 19  2  0
 19 20  1  0
 20 21  1  0
 21 22  1  0
 22 23  1  0
 22 36  1  0
 23 24  2  0
 23 25  1  0
 25 26  1  6
 25 31  1  0
 26 27  1  0
 27 28  1  6
 27 29  1  0
 27 30  1  0
 31 32  2  0
 31 36  1  0
 32 33  1  0
 33 34  2  0
 34 35  1  0
 35 36  2  0
M  END
