
     RDKit          3D

 36 39  0  0  0  0  0  0  0  0999 V2000
   -6.1050    0.2590    0.5210 C   0  0  0  0  0  0  0  0  0  0  0  0
   -4.9440   -0.6260    0.2140 C   0  0  2  0  0  0  0  0  0  0  0  0
   -4.9870   -1.2050   -1.1890 C   0  0  0  0  0  0  0  0  0  0  0  0
   -4.8180   -1.8020    1.1670 C   0  0  0  0  0  0  0  0  0  0  0  0
   -3.4220   -2.0330    1.3780 N   0  0  0  0  0  0  0  0  0  0  0  0
   -2.6820   -1.1060    0.5500 C   0  0  2  0  0  0  0  0  0  0  0  0
   -1.3750   -0.8310    1.2230 C   0  0  0  0  0  0  0  0  0  0  0  0
   -0.5070    0.1420    0.4310 C   0  0  0  0  0  0  0  0  0  0  0  0
    0.7460    0.2870    1.2600 C   0  0  1  0  0  0  0  0  0  0  0  0
    1.4090   -1.0240    1.4380 C   0  0  0  0  0  0  0  0  0  0  0  0
    1.3530   -1.5750    2.5920 O   0  0  0  0  0  0  0  0  0  0  0  0
    2.1280   -1.7610    0.4180 C   0  0  0  0  0  0  0  0  0  0  0  0
    2.2830   -1.3010   -0.8750 C   0  0  0  0  0  0  0  0  0  0  0  0
    2.9820   -2.0830   -1.7740 C   0  0  0  0  0  0  0  0  0  0  0  0
    3.5300   -3.2980   -1.4400 C   0  0  0  0  0  0  0  0  0  0  0  0
    4.2110   -4.0650   -2.3070 N   0  0  0  0  0  0  0  0  0  0  0  0
    4.7370   -5.2610   -1.9340 C   0  0  0  0  0  0  0  0  0  0  0  0
    5.3760   -5.9720   -2.7620 O   0  0  0  0  0  0  0  0  0  0  0  0
    4.5860   -5.7210   -0.6510 C   0  0  0  0  0  0  0  0  0  0  0  0
    5.0830   -6.8450   -0.3080 O   0  0  0  0  0  0  0  0  0  0  0  0
    3.9060   -4.9600    0.2220 N   0  0  0  0  0  0  0  0  0  0  0  0
    3.3850   -3.7700   -0.1570 C   0  0  0  0  0  0  0  0  0  0  0  0
    2.6830   -2.9820    0.7420 C   0  0  0  0  0  0  0  0  0  0  0  0
    1.6570    1.3620    0.8840 C   0  0  0  0  0  0  0  0  0  0  0  0
    3.0160    1.1540    0.9490 C   0  0  0  0  0  0  0  0  0  0  0  0
    3.8160    2.1970    0.5820 C   0  0  0  0  0  0  0  0  0  0  0  0
    3.3410    3.4370    0.1530 C   0  0  0  0  0  0  0  0  0  0  0  0
    4.2240    4.4320   -0.1980 O   0  0  0  0  0  0  0  0  0  0  0  0
    1.9540    3.6380    0.0900 C   0  0  0  0  0  0  0  0  0  0  0  0
    1.4510    4.8850   -0.3400 N   0  0  0  0  0  0  0  0  0  0  0  0
    0.0910    5.1950   -0.4490 C   0  0  0  0  0  0  0  0  0  0  0  0
   -0.8430    4.4400   -0.1900 O   0  0  0  0  0  0  0  0  0  0  0  0
   -0.2300    6.5980   -0.9320 C   0  0  0  0  0  0  0  0  0  0  0  0
   -0.3450    6.5860   -2.7390 S   0  0  0  0  0  0  0  0  0  0  0  0
    1.1470    2.5980    0.4560 C   0  0  0  0  0  0  0  0  0  0  0  0
   -3.5990    0.0690    0.4650 C   0  0  0  0  0  0  0  0  0  0  0  0
  2  1  1  1
  2  3  1  0
  2  4  1  0
  2 36  1  0
  4  5  1  0
  5  6  1  0
  6  7  1  1
  6 36  1  0
  7  8  1  0
  9  8  1  6
  9 10  1  0
  9 24  1  0
 10 11  2  0
 10 12  1  0
 12 13  2  0
 12 23  1  0
 13 14  1  0
 14 15  2  0
 15 16  1  0
 15 22  1  0
 16 17  1  0
 17 18  2  0
 17 19  1  0
 19 20  2  0
 19 21  1  0
 21 22  1  0
 22 23  2  0
 24 25  2  0
 24 35  1  0
 25 26  1  0
 26 27  2  0
 27 28  1  0
 27 29  1  0
 29 30  1  0
 29 35  2  0
 30 31  1  0
 31 32  2  0
 31 33  1  0
 33 34  1  0
M  CHG  1   5   1
M  END
