
     RDKit          3D

 22 22  0  0  0  0  0  0  0  0999 V2000
   -3.9070    1.4900    0.3650 O   0  0  0  0  0  0  0  0  0  0  0  0
   -3.2360    0.4550    0.4510 C   0  0  0  0  0  0  0  0  0  0  0  0
   -3.7700   -0.7390   -0.0030 O   0  0  0  0  0  0  0  0  0  0  0  0
   -5.0400   -0.8560   -0.5610 C   0  0  0  0  0  0  0  0  0  0  0  0
   -6.1530   -0.4350    0.3950 C   0  0  0  0  0  0  0  0  0  0  0  0
   -7.3950   -0.5640   -0.1880 O   0  0  0  0  0  0  0  0  0  0  0  0
   -1.8550    0.4080    1.0250 C   0  0  1  0  0  0  0  0  0  0  0  0
   -0.8440   -0.0340    0.0110 C   0  0  0  0  0  0  0  0  0  0  0  0
    0.2400    1.0480    0.1230 C   0  0  1  0  0  0  0  0  0  0  0  0
    0.9750    0.8280    1.2560 O   0  0  0  0  0  0  0  0  0  0  0  0
    1.0110    1.1820   -1.1380 C   0  0  0  0  0  0  0  0  0  0  0  0
    1.7160    0.0790   -1.4840 O   0  0  0  0  0  0  0  0  0  0  0  0
    2.6800   -0.3560   -0.6100 C   0  0  0  0  0  0  0  0  0  0  0  0
    3.3680   -1.5680   -1.2560 C   0  0  1  0  0  0  0  0  0  0  0  0
    3.9630   -1.2570   -2.4540 O   0  0  0  0  0  0  0  0  0  0  0  0
    4.3240   -2.1920   -0.2880 C   0  0  0  0  0  0  0  0  0  0  0  0
    5.3990   -1.2210    0.1450 C   0  0  0  0  0  0  0  0  0  0  0  0
    6.2580   -1.8850    1.0480 O   0  0  0  0  0  0  0  0  0  0  0  0
   -0.6660    2.2640    0.3580 C   0  0  2  0  0  0  0  0  0  0  0  0
   -1.4660    2.4710   -0.7510 O   0  0  0  0  0  0  0  0  0  0  0  0
    0.0490    3.3790    0.7200 O   0  0  0  0  0  0  0  0  0  0  0  0
   -1.5130    1.7540    1.4270 N   0  0  0  0  0  0  0  0  0  0  0  0
  1  2  2  0
  2  3  1  0
  7  2  1  6
  3  4  1  0
  4  5  1  0
  5  6  1  0
  7  8  1  0
  7 22  1  0
  8  9  1  0
  9 10  1  1
  9 11  1  0
  9 19  1  0
 11 12  1  0
 12 13  1  0
 13 14  1  0
 14 15  1  6
 14 16  1  0
 16 17  1  0
 17 18  1  0
 19 20  1  6
 19 21  1  0
 19 22  1  0
M  END
