
     RDKit          3D

 22 22  0  0  0  0  0  0  0  0999 V2000
   -5.3940   -1.3460   -1.3860 N   0  0  0  0  0  0  0  0  0  0  0  0
   -4.0730   -0.8340   -1.0910 C   0  0  0  0  0  0  0  0  0  0  0  0
   -4.0250   -0.2370    0.3220 C   0  0  1  0  0  0  0  0  0  0  0  0
   -2.7450    0.2210    0.5130 O   0  0  0  0  0  0  0  0  0  0  0  0
   -2.0800   -0.3990    1.5660 C   0  0  0  0  0  0  0  0  0  0  0  0
   -0.6960    0.2120    1.6450 C   0  0  2  0  0  0  0  0  0  0  0  0
    0.0200   -0.0340    0.3330 C   0  0  0  0  0  0  0  0  0  0  0  0
    1.3800   -0.5400    0.7400 C   0  0  1  0  0  0  0  0  0  0  0  0
    1.8800   -1.5310   -0.0930 O   0  0  0  0  0  0  0  0  0  0  0  0
    2.3070    0.6130    0.9360 C   0  0  0  0  0  0  0  0  0  0  0  0
    2.5270    1.4860   -0.2470 C   0  0  1  0  0  0  0  0  0  0  0  0
    3.4310    2.5160    0.1390 O   0  0  0  0  0  0  0  0  0  0  0  0
    3.2320    0.7060   -1.3290 C   0  0  0  0  0  0  0  0  0  0  0  0
    4.3890    0.1780   -0.7720 O   0  0  0  0  0  0  0  0  0  0  0  0
    5.1380   -0.5640   -1.6550 C   0  0  2  0  0  0  0  0  0  0  0  0
    5.2810   -1.8860   -1.2310 O   0  0  0  0  0  0  0  0  0  0  0  0
    6.4100   -0.0360   -1.8670 O   0  0  0  0  0  0  0  0  0  0  0  0
    1.0250   -1.1620    2.1000 C   0  0  0  0  0  0  0  0  0  0  0  0
    0.0770   -0.3110    2.6490 O   0  0  0  0  0  0  0  0  0  0  0  0
   -5.0340    0.8640    0.3420 C   0  0  0  0  0  0  0  0  0  0  0  0
   -6.2530    0.6050    0.1800 O   0  0  0  0  0  0  0  0  0  0  0  0
   -4.6920    2.1950    0.5340 O   0  0  0  0  0  0  0  0  0  0  0  0
  1  2  1  0
  3  2  1  6
  3  4  1  0
  3 20  1  0
  4  5  1  0
  6  5  1  6
  6  7  1  0
  6 19  1  0
  7  8  1  0
  8  9  1  6
  8 10  1  0
  8 18  1  0
 10 11  1  0
 11 12  1  1
 11 13  1  0
 13 14  1  0
 14 15  1  0
 15 16  1  1
 15 17  1  0
 18 19  1  0
 20 21  2  0
 20 22  1  0
M  CHG  1   1   1
M  END
