
     RDKit          3D

 22 23  0  0  0  0  0  0  0  0999 V2000
   -2.0330    2.9900    2.5260 O   0  0  0  0  0  0  0  0  0  0  0  0
   -2.1900    3.4650    1.3650 C   0  0  0  0  0  0  0  0  0  0  0  0
   -2.6020    4.7690    1.1300 O   0  0  0  0  0  0  0  0  0  0  0  0
   -1.9330    2.6280    0.3040 O   0  0  0  0  0  0  0  0  0  0  0  0
   -1.5080    1.2810    0.4450 C   0  0  1  0  0  0  0  0  0  0  0  0
   -2.3930    0.3080   -0.2380 C   0  0  0  0  0  0  0  0  0  0  0  0
   -1.7410   -0.9090   -0.7730 C   0  0  1  0  0  0  0  0  0  0  0  0
   -2.1360   -2.1670    0.0100 C   0  0  0  0  0  0  0  0  0  0  0  0
   -1.7250   -3.3130   -0.6650 O   0  0  0  0  0  0  0  0  0  0  0  0
   -2.3200   -1.1430   -2.1790 C   0  0  0  0  0  0  0  0  0  0  0  0
   -3.7050   -1.1720   -2.0310 O   0  0  0  0  0  0  0  0  0  0  0  0
   -0.3900   -0.8800   -0.9160 O   0  0  0  0  0  0  0  0  0  0  0  0
    0.2930   -0.1250    0.0320 C   0  0  1  0  0  0  0  0  0  0  0  0
   -0.1020   -0.4980    1.3400 O   0  0  0  0  0  0  0  0  0  0  0  0
    1.7570   -0.1940   -0.1500 C   0  0  1  0  0  0  0  0  0  0  0  0
    2.0840    0.3040   -1.4220 O   0  0  0  0  0  0  0  0  0  0  0  0
    2.4890    0.5080    0.9580 C   0  0  0  0  0  0  0  0  0  0  0  0
    3.8940    0.7910    0.3960 C   0  0  0  0  0  0  0  0  0  0  0  0
    4.3340   -0.5370   -0.2320 C   0  0  0  0  0  0  0  0  0  0  0  0
    3.6010   -1.6030    0.2610 O   0  0  0  0  0  0  0  0  0  0  0  0
    2.2880   -1.6240   -0.1580 C   0  0  0  0  0  0  0  0  0  0  0  0
   -0.1500    1.2380   -0.1160 N   0  0  0  0  0  0  0  0  0  0  0  0
  1  2  2  0
  2  3  1  0
  2  4  1  0
  5  4  1  6
  5  6  1  0
  5 22  1  0
  6  7  1  0
  7  8  1  1
  7 10  1  0
  7 12  1  0
  8  9  1  0
 10 11  1  0
 12 13  1  0
 13 14  1  1
 13 15  1  0
 13 22  1  0
 15 16  1  6
 15 17  1  0
 15 21  1  0
 17 18  1  0
 18 19  1  0
 19 20  1  0
 20 21  1  0
M  END
