
     RDKit          3D

 18 20  0  0  0  0  0  0  0  0999 V2000
    3.7450   -1.4710   -0.0140 O   0  0  0  0  0  0  0  0  0  0  0  0
    2.3680   -1.5410   -0.1680 C   0  0  0  0  0  0  0  0  0  0  0  0
    1.8100   -2.6840   -0.6180 N   0  0  0  0  0  0  0  0  0  0  0  0
    0.4650   -2.7340   -0.7620 C   0  0  0  0  0  0  0  0  0  0  0  0
   -0.2950   -1.6240   -0.4490 C   0  0  0  0  0  0  0  0  0  0  0  0
   -1.6780   -1.7300   -0.6170 O   0  0  0  0  0  0  0  0  0  0  0  0
   -2.4930   -0.6210   -0.3090 C   0  0  0  0  0  0  0  0  0  0  0  0
   -2.2040    0.6330   -0.5930 C   0  0  0  0  0  0  0  0  0  0  0  0
   -3.2880    1.5180   -0.1210 C   0  0  0  0  0  0  0  0  0  0  0  0
   -4.2550    0.5870    0.4820 C   0  0  0  0  0  0  0  0  0  0  0  0
   -3.7700   -0.6350    0.3590 C   0  0  0  0  0  0  0  0  0  0  0  0
    0.2780   -0.4910   -0.0020 N   0  0  0  0  0  0  0  0  0  0  0  0
    1.6240   -0.4250    0.1480 C   0  0  0  0  0  0  0  0  0  0  0  0
    2.2860    0.7430    0.6160 N   0  0  0  0  0  0  0  0  0  0  0  0
    2.7680    0.9770    1.8530 C   0  0  0  0  0  0  0  0  0  0  0  0
    3.3250    2.2380    1.8450 C   0  0  0  0  0  0  0  0  0  0  0  0
    3.1680    2.7360    0.6060 N   0  0  0  0  0  0  0  0  0  0  0  0
    2.5500    1.8270   -0.0960 N   0  0  0  0  0  0  0  0  0  0  0  0
  1  2  1  0
  2  3  2  0
  2 13  1  0
  3  4  1  0
  4  5  2  0
  5  6  1  0
  5 12  1  0
  6  7  1  0
  7  8  2  0
  7 11  1  0
  8  9  1  0
  9 10  1  0
 10 11  2  0
 12 13  2  0
 13 14  1  0
 14 15  1  0
 14 18  1  0
 15 16  2  0
 16 17  1  0
 17 18  2  0
M  END
