
     RDKit          3D

 22 21  0  0  0  0  0  0  0  0999 V2000
    0.5540   -2.3980   -1.9100 C   0  0  0  0  0  0  0  0  0  0  0  0
    0.8700   -1.9770   -0.4910 C   0  0  1  0  0  0  0  0  0  0  0  0
    1.5690   -0.7860   -0.5390 O   0  0  0  0  0  0  0  0  0  0  0  0
    2.8720   -0.9160   -0.0580 C   0  0  0  0  0  0  0  0  0  0  0  0
    3.5210    0.4530   -0.1670 C   0  0  2  0  0  0  0  0  0  0  0  0
    3.4980    0.8150   -1.5280 O   0  0  0  0  0  0  0  0  0  0  0  0
    4.9670    0.3260    0.2530 C   0  0  2  0  0  0  0  0  0  0  0  0
    4.9940   -0.0270    1.5840 O   0  0  0  0  0  0  0  0  0  0  0  0
    5.6330    1.6640   -0.0030 C   0  0  0  0  0  0  0  0  0  0  0  0
    4.9900    2.6870    0.7130 O   0  0  0  0  0  0  0  0  0  0  0  0
   -0.3520   -1.7800    0.3140 C   0  0  0  0  0  0  0  0  0  0  0  0
   -1.1430   -2.7300    0.4950 O   0  0  0  0  0  0  0  0  0  0  0  0
   -0.6220   -0.5560    0.8650 O   0  0  0  0  0  0  0  0  0  0  0  0
   -1.7830   -0.3490    1.6340 C   0  0  0  0  0  0  0  0  0  0  0  0
   -3.0570   -0.5720    0.9130 C   0  0  1  0  0  0  0  0  0  0  0  0
   -4.0980   -0.3090    1.8370 O   0  0  0  0  0  0  0  0  0  0  0  0
   -3.2330    0.1730   -0.3530 C   0  0  2  0  0  0  0  0  0  0  0  0
   -4.5170   -0.2450   -0.9370 N   0  0  0  0  0  0  0  0  0  0  0  0
   -2.2680   -0.1820   -1.2940 O   0  0  0  0  0  0  0  0  0  0  0  0
   -3.2510    1.6530   -0.2530 C   0  0  0  0  0  0  0  0  0  0  0  0
   -4.3490    2.2150    0.6150 C   0  0  0  0  0  0  0  0  0  0  0  0
   -5.5800    1.8210    0.0920 O   0  0  0  0  0  0  0  0  0  0  0  0
  2  1  1  6
  2  3  1  0
  2 11  1  0
  3  4  1  0
  4  5  1  0
  5  6  1  6
  5  7  1  0
  7  8  1  1
  7  9  1  0
  9 10  1  0
 11 12  2  0
 11 13  1  0
 13 14  1  0
 14 15  1  0
 15 16  1  1
 15 17  1  0
 17 18  1  6
 17 19  1  0
 17 20  1  0
 20 21  1  0
 21 22  1  0
M  END
