
     RDKit          3D

 22 22  0  0  0  0  0  0  0  0999 V2000
    3.0860   -1.3850   -1.8830 O   0  0  0  0  0  0  0  0  0  0  0  0
    2.8530   -0.4760   -1.0120 C   0  0  0  0  0  0  0  0  0  0  0  0
    3.9430    0.3760   -0.7080 N   0  0  0  0  0  0  0  0  0  0  0  0
    5.2460    0.2340   -1.3390 C   0  0  0  0  0  0  0  0  0  0  0  0
    6.1690    1.3040   -0.7810 C   0  0  0  0  0  0  0  0  0  0  0  0
    6.3040    1.1650    0.5990 O   0  0  0  0  0  0  0  0  0  0  0  0
    1.5190   -0.4200   -0.4440 C   0  0  1  0  0  0  0  0  0  0  0  0
    0.7230   -1.4310   -1.0020 O   0  0  0  0  0  0  0  0  0  0  0  0
   -0.6050   -1.0490   -0.9130 C   0  0  1  0  0  0  0  0  0  0  0  0
   -1.3220   -2.0560   -1.5870 O   0  0  0  0  0  0  0  0  0  0  0  0
   -1.0220   -0.9420    0.5070 C   0  0  2  0  0  0  0  0  0  0  0  0
   -1.5190    0.3730    0.9740 C   0  0  0  0  0  0  0  0  0  0  0  0
   -2.6200    0.9210    0.4080 O   0  0  0  0  0  0  0  0  0  0  0  0
   -3.8010    0.2410    0.4840 C   0  0  1  0  0  0  0  0  0  0  0  0
   -4.7670    0.9840    1.4530 C   0  0  0  0  0  0  0  0  0  0  0  0
   -4.1930    1.0570    2.7180 O   0  0  0  0  0  0  0  0  0  0  0  0
   -4.5000    0.2350   -0.8420 C   0  0  1  0  0  0  0  0  0  0  0  0
   -4.7590    1.5780   -1.1970 O   0  0  0  0  0  0  0  0  0  0  0  0
   -3.7570   -0.3210   -1.8660 O   0  0  0  0  0  0  0  0  0  0  0  0
    0.1400   -1.3470    1.4060 C   0  0  0  0  0  0  0  0  0  0  0  0
    1.4290   -0.6080    1.0360 C   0  0  2  0  0  0  0  0  0  0  0  0
    1.3820    0.6120    1.6880 O   0  0  0  0  0  0  0  0  0  0  0  0
  1  2  2  0
  2  3  1  0
  7  2  1  6
  3  4  1  0
  4  5  1  0
  5  6  1  0
  7  8  1  0
  7 21  1  0
  8  9  1  0
  9 10  1  6
  9 11  1  0
 11 12  1  1
 11 20  1  0
 12 13  1  0
 13 14  1  0
 14 15  1  1
 14 17  1  0
 15 16  1  0
 17 18  1  6
 17 19  1  0
 20 21  1  0
 21 22  1  1
M  END
