
     RDKit          3D

 16 16  0  0  0  0  0  0  0  0999 V2000
    1.2840   -1.8000   -4.1330 C   0  0  0  0  0  0  0  0  0  0  0  0
    0.5920   -2.1100   -3.0320 C   0  0  0  0  0  0  0  0  0  0  0  0
    0.4990   -1.1230   -1.9710 C   0  0  0  0  0  0  0  0  0  0  0  0
   -0.1450   -1.2840   -0.8350 C   0  0  0  0  0  0  0  0  0  0  0  0
   -0.1430   -0.2190    0.1090 N   0  0  0  0  0  0  0  0  0  0  0  0
   -0.4710    1.1070   -0.2120 C   0  0  0  0  0  0  0  0  0  0  0  0
   -0.9110    1.4950   -1.7820 S   0  0  0  0  0  0  0  0  0  0  0  0
   -0.4700    2.1800    0.6720 N   0  0  0  0  0  0  0  0  0  0  0  0
   -0.1060    2.1110    2.0350 C   0  0  0  0  0  0  0  0  0  0  0  0
    0.8430    1.3750    2.7010 C   0  0  0  0  0  0  0  0  0  0  0  0
    0.7630    1.6600    4.0340 N   0  0  0  0  0  0  0  0  0  0  0  0
   -0.1780    2.5330    4.2540 N   0  0  0  0  0  0  0  0  0  0  0  0
   -0.7260    2.8320    3.0810 C   0  0  0  0  0  0  0  0  0  0  0  0
   -0.8400   -2.5630   -0.5920 C   0  0  2  0  0  0  0  0  0  0  0  0
    0.2600   -3.9630   -0.5780 Cl  0  0  0  0  0  0  0  0  0  0  0  0
   -2.1120   -2.9190   -1.7750 Cl  0  0  0  0  0  0  0  0  0  0  0  0
  1  2  2  0
  2  3  1  0
  3  4  2  3
  4  5  1  0
  4 14  1  0
  5  6  1  0
  6  7  2  0
  6  8  1  0
  8  9  1  0
  9 10  1  0
  9 13  2  0
 10 11  2  0
 11 12  1  0
 12 13  1  0
 14 15  1  6
 14 16  1  0
M  END
