
     RDKit          3D

 23 24  0  0  0  0  0  0  0  0999 V2000
    5.4300    2.5370    1.0140 C   0  0  0  0  0  0  0  0  0  0  0  0
    5.8180    1.9090   -0.3180 C   0  0  0  0  0  0  0  0  0  0  0  0
    5.4470    0.4420   -0.2740 C   0  0  0  0  0  0  0  0  0  0  0  0
    4.0690    0.3120   -0.0650 O   0  0  0  0  0  0  0  0  0  0  0  0
    3.5070   -0.9390    0.0100 C   0  0  0  0  0  0  0  0  0  0  0  0
    2.1660   -1.0220    0.0080 C   0  0  0  0  0  0  0  0  0  0  0  0
    1.4930   -2.2980    0.0830 C   0  0  0  0  0  0  0  0  0  0  0  0
    0.2030   -2.4110    0.0830 C   0  0  0  0  0  0  0  0  0  0  0  0
   -0.7270   -1.2480    0.0040 C   0  0  0  0  0  0  0  0  0  0  0  0
   -2.0070   -1.4600    0.0100 C   0  0  0  0  0  0  0  0  0  0  0  0
   -3.0680   -0.4970   -0.0540 C   0  0  0  0  0  0  0  0  0  0  0  0
   -4.3550   -1.0570   -0.2600 C   0  0  0  0  0  0  0  0  0  0  0  0
   -5.4630   -0.2840   -0.3190 C   0  0  0  0  0  0  0  0  0  0  0  0
   -6.8190   -0.8550   -0.5350 C   0  0  0  0  0  0  0  0  0  0  0  0
   -5.3380    1.0740   -0.1760 C   0  0  0  0  0  0  0  0  0  0  0  0
   -4.1120    1.6530    0.0260 C   0  0  0  0  0  0  0  0  0  0  0  0
   -4.0120    3.1240    0.1760 C   0  0  0  0  0  0  0  0  0  0  0  0
   -2.9760    0.8570    0.0870 C   0  0  0  0  0  0  0  0  0  0  0  0
   -1.6960    1.5370    0.3570 C   0  0  0  0  0  0  0  0  0  0  0  0
    2.3300   -3.5010    0.1640 C   0  0  0  0  0  0  0  0  0  0  0  0
    1.8440   -4.6580    0.2330 O   0  0  0  0  0  0  0  0  0  0  0  0
    3.7880   -3.3670    0.1640 C   0  0  0  0  0  0  0  0  0  0  0  0
    4.3200   -2.1580    0.0910 C   0  0  0  0  0  0  0  0  0  0  0  0
  1  2  1  0
  2  3  1  0
  3  4  1  0
  4  5  1  0
  5  6  2  0
  5 23  1  0
  6  7  1  0
  7  8  2  3
  7 20  1  0
  8  9  1  0
  9 10  2  3
 10 11  1  0
 11 12  2  0
 11 18  1  0
 12 13  1  0
 13 14  1  0
 13 15  2  0
 15 16  1  0
 16 17  1  0
 16 18  2  0
 18 19  1  0
 20 21  2  0
 20 22  1  0
 22 23  2  0
M  END
