
     RDKit          3D

 16 17  0  0  0  0  0  0  0  0999 V2000
    4.9350    1.2000    0.0070 N   0  0  0  0  0  0  0  0  0  0  0  0
    3.7790    0.3240   -0.0220 C   0  0  0  0  0  0  0  0  0  0  0  0
    2.6380    0.3140    0.3070 N   0  0  0  0  0  0  0  0  0  0  0  0
    1.7650   -0.6490    0.1590 C   0  0  0  0  0  0  0  0  0  0  0  0
    0.3360   -0.5310    0.6230 C   0  0  0  0  0  0  0  0  0  0  0  0
   -0.4710   -0.0190   -0.4620 N   0  0  0  0  0  0  0  0  0  0  0  0
   -1.8610    0.1630   -0.2170 C   0  0  0  0  0  0  0  0  0  0  0  0
   -2.3530    1.3550    0.2700 C   0  0  0  0  0  0  0  0  0  0  0  0
   -1.2120    2.6650    0.5870 Cl  0  0  0  0  0  0  0  0  0  0  0  0
   -3.7030    1.5210    0.5040 C   0  0  0  0  0  0  0  0  0  0  0  0
   -4.5950    0.5410    0.2710 N   0  0  0  0  0  0  0  0  0  0  0  0
   -4.1350   -0.6320   -0.2050 C   0  0  0  0  0  0  0  0  0  0  0  0
   -2.7940   -0.8420   -0.4530 C   0  0  0  0  0  0  0  0  0  0  0  0
   -2.2180   -2.3830   -1.0760 Cl  0  0  0  0  0  0  0  0  0  0  0  0
    2.2270   -1.7850   -0.4510 C   0  0  0  0  0  0  0  0  0  0  0  0
    3.9720   -1.3370   -0.7730 S   0  0  0  0  0  0  0  0  0  0  0  0
  1  2  1  0
  2  3  2  0
  2 16  1  0
  3  4  1  0
  4  5  1  0
  4 15  2  0
  5  6  1  0
  6  7  1  0
  7  8  2  0
  7 13  1  0
  8  9  1  0
  8 10  1  0
 10 11  2  0
 11 12  1  0
 12 13  2  0
 13 14  1  0
 15 16  1  0
M  END
