
     RDKit          3D

 16 17  0  0  0  0  0  0  0  0999 V2000
    3.1070    3.1250   -0.3570 S   0  0  0  0  0  0  0  0  0  0  0  0
    2.3590    1.4950   -0.4030 C   0  0  0  0  0  0  0  0  0  0  0  0
    1.0930    1.1690   -0.1160 N   0  0  0  0  0  0  0  0  0  0  0  0
    0.9060   -0.1430   -0.2640 C   0  0  0  0  0  0  0  0  0  0  0  0
   -0.2420   -0.9140   -0.0670 N   0  0  0  0  0  0  0  0  0  0  0  0
   -1.4830   -0.3890    0.3320 C   0  0  0  0  0  0  0  0  0  0  0  0
   -1.7620    0.9500    0.4310 C   0  0  0  0  0  0  0  0  0  0  0  0
   -3.0240    1.3970    0.8460 C   0  0  0  0  0  0  0  0  0  0  0  0
   -3.9740    0.4490    1.1520 C   0  0  0  0  0  0  0  0  0  0  0  0
   -5.5600    1.0040    1.6730 Cl  0  0  0  0  0  0  0  0  0  0  0  0
   -3.6710   -0.8540    1.0450 N   0  0  0  0  0  0  0  0  0  0  0  0
   -2.4860   -1.3190    0.6550 C   0  0  0  0  0  0  0  0  0  0  0  0
    2.1500   -0.6740   -0.6740 C   0  0  0  0  0  0  0  0  0  0  0  0
    2.4550   -2.1070   -0.9710 C   0  0  0  0  0  0  0  0  0  0  0  0
    2.6050   -2.9950    0.5610 Cl  0  0  0  0  0  0  0  0  0  0  0  0
    2.9900    0.3660   -0.7400 N   0  0  0  0  0  0  0  0  0  0  0  0
  1  2  1  0
  2  3  2  0
  2 16  1  0
  3  4  1  0
  4  5  1  0
  4 13  2  0
  5  6  1  0
  6  7  2  0
  6 12  1  0
  7  8  1  0
  8  9  2  0
  9 10  1  0
  9 11  1  0
 11 12  2  0
 13 14  1  0
 13 16  1  0
 14 15  1  0
M  END
