
     RDKit          3D

 16 17  0  0  0  0  0  0  0  0999 V2000
   -4.6620    1.0090    0.2740 C   0  0  0  0  0  0  0  0  0  0  0  0
   -3.9910   -0.3110    1.2600 S   0  0  0  0  0  0  0  0  0  0  0  0
   -2.2960   -0.7040    0.9560 C   0  0  0  0  0  0  0  0  0  0  0  0
   -1.6000   -1.9830    1.9670 Cl  0  0  0  0  0  0  0  0  0  0  0  0
   -1.5120   -0.1590    0.0720 C   0  0  0  0  0  0  0  0  0  0  0  0
   -2.0610    0.8720   -0.7550 N   0  0  0  0  0  0  0  0  0  0  0  0
   -0.1500   -0.5260   -0.1180 N   0  0  0  0  0  0  0  0  0  0  0  0
    0.8330    0.3730   -0.1190 N   0  0  0  0  0  0  0  0  0  0  0  0
    2.0270   -0.2110   -0.3150 C   0  0  0  0  0  0  0  0  0  0  0  0
    3.3440    0.4810   -0.3700 C   0  0  1  0  0  0  0  0  0  0  0  0
    3.3230    1.9910   -0.3180 C   0  0  0  0  0  0  0  0  0  0  0  0
    3.6850    1.1850    0.9130 C   0  0  0  0  0  0  0  0  0  0  0  0
    1.8020   -1.5580   -0.4480 C   0  0  0  0  0  0  0  0  0  0  0  0
    3.0100   -2.8000   -0.7230 Cl  0  0  0  0  0  0  0  0  0  0  0  0
    0.4270   -1.7090   -0.3180 C   0  0  0  0  0  0  0  0  0  0  0  0
   -0.2520   -2.9360   -0.3910 N   0  0  0  0  0  0  0  0  0  0  0  0
  1  2  1  0
  2  3  1  0
  3  4  1  0
  3  5  2  3
  5  6  1  0
  5  7  1  0
  7  8  1  0
  7 15  1  0
  8  9  2  0
 10  9  1  1
  9 13  1  0
 10 11  1  0
 10 12  1  0
 11 12  1  0
 13 14  1  0
 13 15  2  0
 15 16  1  0
M  END
