
     RDKit          3D

 32 33  0  0  0  0  0  0  0  0999 V2000
   -6.6300   -2.8870   -1.0340 C   0  0  0  0  0  0  0  0  0  0  0  0
   -5.4520   -2.2700   -1.4380 O   0  0  0  0  0  0  0  0  0  0  0  0
   -5.6630   -0.9520   -1.8330 C   0  0  0  0  0  0  0  0  0  0  0  0
   -6.2170   -0.0710   -0.7640 C   0  0  2  0  0  0  0  0  0  0  0  0
   -6.3740    1.2030   -1.3060 O   0  0  0  0  0  0  0  0  0  0  0  0
   -5.4030   -0.0570    0.5000 C   0  0  2  0  0  0  0  0  0  0  0  0
   -5.9950    0.7150    1.4640 O   0  0  0  0  0  0  0  0  0  0  0  0
   -5.6320    2.0300    1.5100 C   0  0  2  0  0  0  0  0  0  0  0  0
   -6.4410    2.8600    0.7380 O   0  0  0  0  0  0  0  0  0  0  0  0
   -4.2040    2.3240    1.1990 C   0  0  0  0  0  0  0  0  0  0  0  0
   -3.7130    1.6320    0.1130 O   0  0  0  0  0  0  0  0  0  0  0  0
   -3.9480    0.2930    0.2670 C   0  0  1  0  0  0  0  0  0  0  0  0
   -3.1890   -0.2360    1.4610 C   0  0  0  0  0  0  0  0  0  0  0  0
   -1.7950   -0.0600    1.3650 O   0  0  0  0  0  0  0  0  0  0  0  0
   -0.9970   -0.5930    0.3710 C   0  0  0  0  0  0  0  0  0  0  0  0
   -1.5350   -1.2860   -0.5170 O   0  0  0  0  0  0  0  0  0  0  0  0
    0.4340   -0.3250    0.3980 C   0  0  0  0  0  0  0  0  0  0  0  0
    1.2790   -0.8340   -0.5730 O   0  0  0  0  0  0  0  0  0  0  0  0
    0.9670    0.4130    1.3560 C   0  0  0  0  0  0  0  0  0  0  0  0
    2.3840    0.6970    1.4100 C   0  0  0  0  0  0  0  0  0  0  0  0
    2.8410    1.3950    2.3290 O   0  0  0  0  0  0  0  0  0  0  0  0
    3.2180    0.1980    0.4540 O   0  0  0  0  0  0  0  0  0  0  0  0
    4.6170    0.4190    0.4200 C   0  0  1  0  0  0  0  0  0  0  0  0
    5.3990   -0.8490    0.5650 C   0  0  0  0  0  0  0  0  0  0  0  0
    6.8350   -0.7780    0.2000 C   0  0  1  0  0  0  0  0  0  0  0  0
    7.2050   -1.7910   -0.8810 C   0  0  0  0  0  0  0  0  0  0  0  0
    6.9110   -3.0540   -0.3500 O   0  0  0  0  0  0  0  0  0  0  0  0
    7.2690    0.6120   -0.1750 C   0  0  2  0  0  0  0  0  0  0  0  0
    7.2540    1.3860    0.9610 O   0  0  0  0  0  0  0  0  0  0  0  0
    6.3530    1.1230   -1.2570 C   0  0  0  0  0  0  0  0  0  0  0  0
    4.9210    1.2180   -0.8020 C   0  0  1  0  0  0  0  0  0  0  0  0
    4.0820    0.9180   -1.8820 O   0  0  0  0  0  0  0  0  0  0  0  0
  1  2  1  0
  2  3  1  0
  3  4  1  0
  4  5  1  6
  4  6  1  0
  6  7  1  1
  6 12  1  0
  7  8  1  0
  8  9  1  6
  8 10  1  0
 10 11  1  0
 11 12  1  0
 12 13  1  1
 13 14  1  0
 14 15  1  0
 15 16  2  0
 15 17  1  0
 17 18  1  0
 17 19  2  3
 19 20  1  0
 20 21  2  0
 20 22  1  0
 23 22  1  6
 23 24  1  0
 23 31  1  0
 24 25  1  0
 25 26  1  6
 25 28  1  0
 26 27  1  0
 28 29  1  1
 28 30  1  0
 30 31  1  0
 31 32  1  6
M  END
