
     RDKit          3D

 32 32  0  0  0  0  0  0  0  0999 V2000
    7.4380    1.9730   -1.2170 C   0  0  0  0  0  0  0  0  0  0  0  0
    6.3370    1.7660   -0.1690 C   0  0  2  0  0  0  0  0  0  0  0  0
    6.9210    1.2060    0.9710 O   0  0  0  0  0  0  0  0  0  0  0  0
    5.3390    0.8040   -0.7270 C   0  0  2  0  0  0  0  0  0  0  0  0
    4.7400    1.3370   -1.8660 O   0  0  0  0  0  0  0  0  0  0  0  0
    4.2970    0.5240    0.3220 C   0  0  0  0  0  0  0  0  0  0  0  0
    4.5940    0.0420    1.4350 O   0  0  0  0  0  0  0  0  0  0  0  0
    2.9590    0.7950    0.0810 O   0  0  0  0  0  0  0  0  0  0  0  0
    1.9980    0.5220    1.0840 C   0  0  0  0  0  0  0  0  0  0  0  0
    0.6490    0.9280    0.5060 C   0  0  2  0  0  0  0  0  0  0  0  0
   -0.4220    0.9750    1.5370 C   0  0  0  0  0  0  0  0  0  0  0  0
   -1.3610   -0.1710    1.5210 C   0  0  1  0  0  0  0  0  0  0  0  0
   -0.9700   -1.1320    2.6720 C   0  0  0  0  0  0  0  0  0  0  0  0
   -1.9170   -2.1330    2.7900 O   0  0  0  0  0  0  0  0  0  0  0  0
   -2.7820    0.2410    1.8690 C   0  0  2  0  0  0  0  0  0  0  0  0
   -3.5380   -0.9340    2.0900 O   0  0  0  0  0  0  0  0  0  0  0  0
   -3.4470    1.0000    0.7660 C   0  0  0  0  0  0  0  0  0  0  0  0
   -2.9910    2.0960    0.3950 O   0  0  0  0  0  0  0  0  0  0  0  0
   -4.5610    0.5180    0.1430 O   0  0  0  0  0  0  0  0  0  0  0  0
   -5.3260    1.0440   -0.8730 C   0  0  0  0  0  0  0  0  0  0  0  0
   -5.9920    2.3280   -0.5180 C   0  0  1  0  0  0  0  0  0  0  0  0
   -5.1190    3.3420   -0.1990 O   0  0  0  0  0  0  0  0  0  0  0  0
   -6.8960    2.8330   -1.6260 C   0  0  0  0  0  0  0  0  0  0  0  0
   -7.8040    1.8360   -1.9870 O   0  0  0  0  0  0  0  0  0  0  0  0
   -1.4330   -0.8960    0.3670 O   0  0  0  0  0  0  0  0  0  0  0  0
   -0.2660   -0.9650   -0.3360 C   0  0  2  0  0  0  0  0  0  0  0  0
    0.6320   -1.9030    0.1340 O   0  0  0  0  0  0  0  0  0  0  0  0
    0.8770   -2.9530   -0.6940 C   0  0  1  0  0  0  0  0  0  0  0  0
   -0.3360   -3.7790   -1.0340 C   0  0  0  0  0  0  0  0  0  0  0  0
    1.4840   -2.5110   -2.0310 C   0  0  0  0  0  0  0  0  0  0  0  0
    1.8750   -3.8720   -0.0210 C   0  0  0  0  0  0  0  0  0  0  0  0
    0.3360    0.2440   -0.6290 O   0  0  0  0  0  0  0  0  0  0  0  0
  2  1  1  6
  2  3  1  0
  2  4  1  0
  4  5  1  6
  4  6  1  0
  6  7  2  0
  6  8  1  0
  8  9  1  0
 10  9  1  1
 10 11  1  0
 10 32  1  0
 11 12  1  0
 12 13  1  1
 12 15  1  0
 12 25  1  0
 13 14  1  0
 15 16  1  6
 15 17  1  0
 17 18  2  0
 17 19  1  0
 19 20  1  0
 20 21  1  0
 21 22  1  6
 21 23  1  0
 23 24  1  0
 25 26  1  0
 26 27  1  1
 26 32  1  0
 27 28  1  0
 28 29  1  6
 28 30  1  0
 28 31  1  0
M  END
