
     RDKit          3D

 32 33  0  0  0  0  0  0  0  0999 V2000
   -6.8260    1.4200    2.8910 O   0  0  0  0  0  0  0  0  0  0  0  0
   -7.5580    0.7710    2.1380 C   0  0  0  0  0  0  0  0  0  0  0  0
   -7.0360    0.3330    0.7910 C   0  0  0  0  0  0  0  0  0  0  0  0
   -5.6410    0.8180    0.6510 C   0  0  2  0  0  0  0  0  0  0  0  0
   -5.5810    2.1990    0.7280 O   0  0  0  0  0  0  0  0  0  0  0  0
   -4.8030    0.1970   -0.4110 C   0  0  1  0  0  0  0  0  0  0  0  0
   -4.9240    0.8870   -1.7270 C   0  0  0  0  0  0  0  0  0  0  0  0
   -6.2860    0.9480   -2.3460 C   0  0  0  0  0  0  0  0  0  0  0  0
   -6.8410   -0.3050   -2.5410 O   0  0  0  0  0  0  0  0  0  0  0  0
   -3.4240    0.4980   -0.0070 O   0  0  0  0  0  0  0  0  0  0  0  0
   -2.6010   -0.5850    0.2380 C   0  0  0  0  0  0  0  0  0  0  0  0
   -3.0580   -1.7600    0.1060 O   0  0  0  0  0  0  0  0  0  0  0  0
   -1.1660   -0.4020    0.6590 C   0  0  2  0  0  0  0  0  0  0  0  0
   -0.4830    0.2940   -0.4990 C   0  0  0  0  0  0  0  0  0  0  0  0
    0.1120   -0.9230   -1.2210 C   0  0  0  0  0  0  0  0  0  0  0  0
    0.4960   -1.7510   -0.0000 C   0  0  1  0  0  0  0  0  0  0  0  0
    1.7250   -1.1910    0.6720 C   0  0  0  0  0  0  0  0  0  0  0  0
    2.8530   -1.3020   -0.1420 O   0  0  0  0  0  0  0  0  0  0  0  0
    3.9860   -0.7970    0.4520 C   0  0  0  0  0  0  0  0  0  0  0  0
    5.0580   -0.9640   -0.4650 O   0  0  0  0  0  0  0  0  0  0  0  0
    6.3570   -0.5630   -0.1930 C   0  0  0  0  0  0  0  0  0  0  0  0
    7.3520   -1.3900    0.0390 C   0  0  0  0  0  0  0  0  0  0  0  0
    8.7330   -1.0190    0.3300 C   0  0  1  0  0  0  0  0  0  0  0  0
    9.5700   -1.7100   -0.5810 O   0  0  0  0  0  0  0  0  0  0  0  0
    9.0210    0.4150    0.3620 C   0  0  1  0  0  0  0  0  0  0  0  0
   10.0060    0.7170   -0.6220 O   0  0  0  0  0  0  0  0  0  0  0  0
    7.8870    1.3000    0.0980 C   0  0  0  0  0  0  0  0  0  0  0  0
    6.6850    0.8510   -0.1520 C   0  0  0  0  0  0  0  0  0  0  0  0
    5.6620    1.7680   -0.3920 O   0  0  0  0  0  0  0  0  0  0  0  0
   -0.5760   -1.6190    0.8350 O   0  0  0  0  0  0  0  0  0  0  0  0
   -8.8460    0.4460    2.5250 O   0  0  0  0  0  0  0  0  0  0  0  0
   -9.3520    0.8170    3.7190 O   0  0  0  0  0  0  0  0  0  0  0  0
  1  2  2  0
  2  3  1  0
  2 31  1  0
  3  4  1  0
  4  5  1  6
  4  6  1  0
  6  7  1  6
  6 10  1  0
  7  8  1  0
  8  9  1  0
 10 11  1  0
 11 12  2  0
 13 11  1  6
 13 14  1  0
 13 30  1  0
 14 15  1  0
 15 16  1  0
 16 17  1  1
 16 30  1  0
 17 18  1  0
 18 19  1  0
 19 20  1  0
 20 21  1  0
 21 22  2  0
 21 28  1  0
 22 23  1  0
 23 24  1  6
 23 25  1  0
 25 26  1  6
 25 27  1  0
 27 28  2  0
 28 29  1  0
 31 32  1  0
M  END
