
     RDKit          3D

 32 33  0  0  0  0  0  0  0  0999 V2000
   -2.4430   -1.1610   -2.2090 C   0  0  0  0  0  0  0  0  0  0  0  0
   -1.8720   -1.1620   -0.8260 C   0  0  1  0  0  0  0  0  0  0  0  0
   -0.4530   -0.9360   -0.8780 O   0  0  0  0  0  0  0  0  0  0  0  0
    0.4650   -1.8750   -0.4440 C   0  0  0  0  0  0  0  0  0  0  0  0
   -0.0180   -2.9450    0.0030 O   0  0  0  0  0  0  0  0  0  0  0  0
    1.9110   -1.7150   -0.4670 C   0  0  1  0  0  0  0  0  0  0  0  0
    2.5190   -2.8560    0.0440 O   0  0  0  0  0  0  0  0  0  0  0  0
    2.4640   -1.5240   -1.8700 C   0  0  0  0  0  0  0  0  0  0  0  0
    2.8020   -0.1840   -2.1020 O   0  0  0  0  0  0  0  0  0  0  0  0
    3.8690    0.2230   -1.2900 C   0  0  0  0  0  0  0  0  0  0  0  0
    3.7390   -0.5230    0.0120 C   0  0  1  0  0  0  0  0  0  0  0  0
    4.4610    0.1500    1.1220 C   0  0  0  0  0  0  0  0  0  0  0  0
    3.8520    0.5380    2.1490 O   0  0  0  0  0  0  0  0  0  0  0  0
    5.8280    0.3790    1.0740 O   0  0  0  0  0  0  0  0  0  0  0  0
    6.5490    1.0170    2.1110 C   0  0  0  0  0  0  0  0  0  0  0  0
    7.9960    1.0680    1.6690 C   0  0  1  0  0  0  0  0  0  0  0  0
    8.3970   -0.2640    1.4840 O   0  0  0  0  0  0  0  0  0  0  0  0
    8.0950    1.7240    0.2970 C   0  0  0  0  0  0  0  0  0  0  0  0
    9.3890    1.6690   -0.1930 O   0  0  0  0  0  0  0  0  0  0  0  0
    2.3770   -0.6420    0.2860 O   0  0  0  0  0  0  0  0  0  0  0  0
   -2.4090   -0.1530    0.1140 C   0  0  1  0  0  0  0  0  0  0  0  0
   -1.6930   -0.3590    1.3470 O   0  0  0  0  0  0  0  0  0  0  0  0
   -2.0620    1.1150   -0.2990 O   0  0  0  0  0  0  0  0  0  0  0  0
   -3.8430   -0.2580    0.5200 C   0  0  1  0  0  0  0  0  0  0  0  0
   -4.1900    0.8690    1.5110 C   0  0  0  0  0  0  0  0  0  0  0  0
   -4.9440    1.9910    0.8790 C   0  0  0  0  0  0  0  0  0  0  0  0
   -6.3070    1.5320    0.3640 C   0  0  0  0  0  0  0  0  0  0  0  0
   -6.2100    0.0490    0.0160 C   0  0  1  0  0  0  0  0  0  0  0  0
   -6.2760   -0.7630    1.1410 O   0  0  0  0  0  0  0  0  0  0  0  0
   -7.2660   -0.3680   -0.9560 C   0  0  0  0  0  0  0  0  0  0  0  0
   -7.1560    0.4850   -2.0780 O   0  0  0  0  0  0  0  0  0  0  0  0
   -4.8060   -0.1070   -0.6140 C   0  0  0  0  0  0  0  0  0  0  0  0
  2  1  1  6
  2  3  1  0
  2 21  1  0
  3  4  1  0
  4  5  2  0
  4  6  1  0
  6  7  1  1
  6  8  1  0
  6 20  1  0
  8  9  1  0
  9 10  1  0
 10 11  1  0
 11 12  1  1
 11 20  1  0
 12 13  2  0
 12 14  1  0
 14 15  1  0
 15 16  1  0
 16 17  1  6
 16 18  1  0
 18 19  1  0
 21 22  1  1
 21 23  1  0
 21 24  1  0
 24 25  1  1
 24 32  1  0
 25 26  1  0
 26 27  1  0
 27 28  1  0
 28 29  1  1
 28 30  1  0
 28 32  1  0
 30 31  1  0
M  END
