
     RDKit          3D

 32 33  0  0  0  0  0  0  0  0999 V2000
   -0.3240    5.9660   -0.0870 C   0  0  0  0  0  0  0  0  0  0  0  0
   -0.3430    4.5640    0.1250 O   0  0  0  0  0  0  0  0  0  0  0  0
   -0.9720    4.0310    1.2110 C   0  0  0  0  0  0  0  0  0  0  0  0
   -1.5410    4.8030    2.0300 O   0  0  0  0  0  0  0  0  0  0  0  0
   -1.0560    2.5700    1.5330 C   0  0  0  0  0  0  0  0  0  0  0  0
   -0.2670    1.8400    0.5160 C   0  0  2  0  0  0  0  0  0  0  0  0
    1.2040    2.3480    0.6250 C   0  0  0  0  0  0  0  0  0  0  0  0
   -0.6010    2.1240   -0.8080 O   0  0  0  0  0  0  0  0  0  0  0  0
   -0.1960    0.3420    0.6760 C   0  0  1  0  0  0  0  0  0  0  0  0
    0.0180    0.0120    2.0110 O   0  0  0  0  0  0  0  0  0  0  0  0
   -1.1560   -0.4600   -0.0720 C   0  0  0  0  0  0  0  0  0  0  0  0
   -2.6170   -0.3070    0.0610 C   0  0  1  0  0  0  0  0  0  0  0  0
   -3.1630    0.9030   -0.2710 O   0  0  0  0  0  0  0  0  0  0  0  0
   -3.2300   -1.2990   -0.9630 C   0  0  0  0  0  0  0  0  0  0  0  0
   -4.4320   -1.9330   -0.3000 C   0  0  1  0  0  0  0  0  0  0  0  0
   -5.3040   -2.5730   -1.3110 C   0  0  0  0  0  0  0  0  0  0  0  0
   -5.7770   -1.8820   -2.2310 O   0  0  0  0  0  0  0  0  0  0  0  0
   -5.5900   -3.9150   -1.2390 O   0  0  0  0  0  0  0  0  0  0  0  0
   -3.9830   -2.8120    0.6520 O   0  0  0  0  0  0  0  0  0  0  0  0
   -3.2370   -2.1810    1.6030 C   0  0  0  0  0  0  0  0  0  0  0  0
   -3.0580   -0.7060    1.4490 C   0  0  2  0  0  0  0  0  0  0  0  0
   -4.1410    0.0310    1.9220 O   0  0  0  0  0  0  0  0  0  0  0  0
    1.0740    0.0990   -0.0080 O   0  0  0  0  0  0  0  0  0  0  0  0
    1.4980   -1.1770    0.0720 C   0  0  0  0  0  0  0  0  0  0  0  0
    2.8630   -1.2370   -0.6540 C   0  0  1  0  0  0  0  0  0  0  0  0
    3.7470   -0.2320    0.0030 C   0  0  0  0  0  0  0  0  0  0  0  0
    5.0980   -0.5180   -0.0830 O   0  0  0  0  0  0  0  0  0  0  0  0
    5.3860   -1.8470    0.2070 C   0  0  0  0  0  0  0  0  0  0  0  0
    4.6550   -2.6830   -0.8230 C   0  0  2  0  0  0  0  0  0  0  0  0
    5.0780   -2.2630   -2.2170 C   0  0  0  0  0  0  0  0  0  0  0  0
    4.8060   -0.9220   -2.4700 O   0  0  0  0  0  0  0  0  0  0  0  0
    3.3040   -2.5260   -0.5910 O   0  0  0  0  0  0  0  0  0  0  0  0
  1  2  1  0
  2  3  1  0
  3  4  2  0
  3  5  1  0
  5  6  1  0
  6  7  1  6
  6  8  1  0
  6  9  1  0
  9 10  1  1
  9 11  1  0
  9 23  1  0
 11 12  1  0
 12 13  1  6
 12 14  1  0
 12 21  1  0
 14 15  1  0
 15 16  1  6
 15 19  1  0
 16 17  2  0
 16 18  1  0
 19 20  1  0
 20 21  1  0
 21 22  1  6
 23 24  1  0
 25 24  1  1
 25 26  1  0
 25 32  1  0
 26 27  1  0
 27 28  1  0
 28 29  1  0
 29 30  1  6
 29 32  1  0
 30 31  1  0
M  END
