
     RDKit          3D

 31 32  0  0  0  0  0  0  0  0999 V2000
   -3.9220    2.5260   -1.9480 C   0  0  0  0  0  0  0  0  0  0  0  0
   -3.2640    1.7250   -0.9950 O   0  0  0  0  0  0  0  0  0  0  0  0
   -2.8760    0.4170   -1.2260 C   0  0  0  0  0  0  0  0  0  0  0  0
   -3.1310   -0.0740   -2.3560 O   0  0  0  0  0  0  0  0  0  0  0  0
   -2.1870   -0.3470   -0.1580 C   0  0  2  0  0  0  0  0  0  0  0  0
   -0.8670    0.2820    0.1240 C   0  0  1  0  0  0  0  0  0  0  0  0
   -0.2440   -0.4520    1.1450 O   0  0  0  0  0  0  0  0  0  0  0  0
    0.0370    0.2430   -1.0980 C   0  0  0  0  0  0  0  0  0  0  0  0
    0.8140    1.3950   -1.1880 O   0  0  0  0  0  0  0  0  0  0  0  0
    1.4030    1.6570    0.0540 C   0  0  1  0  0  0  0  0  0  0  0  0
    2.3690    2.5920   -0.1250 O   0  0  0  0  0  0  0  0  0  0  0  0
    3.6180    2.1690    0.2200 C   0  0  0  0  0  0  0  0  0  0  0  0
    4.0990    1.0690   -0.6640 C   0  0  2  0  0  0  0  0  0  0  0  0
    3.3760   -0.0840   -0.6870 O   0  0  0  0  0  0  0  0  0  0  0  0
    5.5300    0.7250   -0.3950 C   0  0  0  0  0  0  0  0  0  0  0  0
    6.4230    1.6020   -0.3210 O   0  0  0  0  0  0  0  0  0  0  0  0
    5.9020   -0.5890   -0.2200 O   0  0  0  0  0  0  0  0  0  0  0  0
    7.2480   -0.9770    0.0390 C   0  0  0  0  0  0  0  0  0  0  0  0
    7.2470   -2.4900    0.1690 C   0  0  0  0  0  0  0  0  0  0  0  0
    6.3930   -2.8190    1.2380 O   0  0  0  0  0  0  0  0  0  0  0  0
    0.3510    2.2450    1.0230 C   0  0  1  0  0  0  0  0  0  0  0  0
    0.3410    3.6280    0.8530 O   0  0  0  0  0  0  0  0  0  0  0  0
   -0.9980    1.7370    0.4950 C   0  0  0  0  0  0  0  0  0  0  0  0
   -1.9860   -1.7940   -0.5560 C   0  0  0  0  0  0  0  0  0  0  0  0
   -2.8970   -2.7600    0.1170 C   0  0  1  0  0  0  0  0  0  0  0  0
   -2.4390   -3.1630    1.3840 O   0  0  0  0  0  0  0  0  0  0  0  0
   -4.3400   -2.3380    0.1390 C   0  0  0  0  0  0  0  0  0  0  0  0
   -4.4520   -0.9030    0.5330 C   0  0  1  0  0  0  0  0  0  0  0  0
   -5.5410   -0.6610    1.5580 C   0  0  0  0  0  0  0  0  0  0  0  0
   -5.5280    0.7220    1.8290 O   0  0  0  0  0  0  0  0  0  0  0  0
   -3.1130   -0.3450    1.0340 C   0  0  0  0  0  0  0  0  0  0  0  0
  1  2  1  0
  2  3  1  0
  3  4  2  0
  5  3  1  6
  5  6  1  0
  5 24  1  0
  5 31  1  0
  6  7  1  1
  6  8  1  0
  6 23  1  0
  8  9  1  0
  9 10  1  0
 10 11  1  6
 10 21  1  0
 11 12  1  0
 12 13  1  0
 13 14  1  1
 13 15  1  0
 15 16  2  0
 15 17  1  0
 17 18  1  0
 18 19  1  0
 19 20  1  0
 21 22  1  6
 21 23  1  0
 24 25  1  0
 25 26  1  1
 25 27  1  0
 27 28  1  0
 28 29  1  1
 28 31  1  0
 29 30  1  0
M  END
