
     RDKit          3D

 16 16  0  0  0  0  0  0  0  0999 V2000
   -2.7170    1.5270    0.3430 C   0  0  0  0  0  0  0  0  0  0  0  0
   -2.4800   -0.1930    0.6580 S   0  0  2  0  0  0  0  0  0  0  0  0
   -3.4080   -0.9980   -0.2990 N   0  0  0  0  0  0  0  0  0  0  0  0
   -2.9400   -0.4860    2.1110 N   0  0  0  0  0  0  0  0  0  0  0  0
   -0.7730   -0.6370    0.4180 C   0  0  0  0  0  0  0  0  0  0  0  0
   -0.4240   -0.3180   -1.0130 C   0  0  1  0  0  0  0  0  0  0  0  0
    1.0030   -0.6500   -1.3490 C   0  0  0  0  0  0  0  0  0  0  0  0
    1.9790    0.0870   -0.5230 C   0  0  0  0  0  0  0  0  0  0  0  0
    2.4000   -0.4800    0.6660 C   0  0  0  0  0  0  0  0  0  0  0  0
    3.3110    0.1440    1.4990 C   0  0  0  0  0  0  0  0  0  0  0  0
    3.8370    1.3680    1.1660 C   0  0  0  0  0  0  0  0  0  0  0  0
    3.4170    1.9410   -0.0260 C   0  0  0  0  0  0  0  0  0  0  0  0
    2.5060    1.3120   -0.8540 C   0  0  0  0  0  0  0  0  0  0  0  0
   -1.2830   -1.2020   -1.8710 C   0  0  0  0  0  0  0  0  0  0  0  0
   -2.0970   -0.7550   -2.7000 O   0  0  0  0  0  0  0  0  0  0  0  0
   -1.1670   -2.5790   -1.7340 O   0  0  0  0  0  0  0  0  0  0  0  0
  2  1  1  6
  2  3  2  0
  2  4  2  0
  2  5  1  0
  6  5  1  1
  6  7  1  0
  6 14  1  0
  7  8  1  0
  8  9  2  0
  8 13  1  0
  9 10  1  0
 10 11  2  0
 11 12  1  0
 12 13  2  0
 14 15  2  0
 14 16  1  0
M  END
