
     RDKit          3D

 10  9  0  0  0  0  0  0  0  0999 V2000
    2.4460   -0.6900    0.8860 N   0  0  0  0  0  0  0  0  0  0  0  0
    2.0500    0.6560    0.6610 C   0  0  0  0  0  0  0  0  0  0  0  0
    2.8460    1.5550    1.0240 O   0  0  0  0  0  0  0  0  0  0  0  0
    0.7630    0.9690    0.0300 C   0  0  0  0  0  0  0  0  0  0  0  0
   -0.0750    0.0330   -0.3520 C   0  0  0  0  0  0  0  0  0  0  0  0
    0.2960   -1.3150   -0.1400 N   0  0  0  0  0  0  0  0  0  0  0  0
   -1.3560    0.3630   -0.9800 C   0  0  0  0  0  0  0  0  0  0  0  0
   -2.4730   -0.1200   -0.2580 O   0  0  0  0  0  0  0  0  0  0  0  0
   -2.7430    0.2590    1.0470 C   0  0  0  0  0  0  0  0  0  0  0  0
   -1.9290    1.0670    1.5650 O   0  0  0  0  0  0  0  0  0  0  0  0
  1  2  1  0
  2  3  2  0
  2  4  1  0
  4  5  2  3
  5  6  1  0
  5  7  1  0
  7  8  1  0
  8  9  1  0
  9 10  2  0
M  END
