
     RDKit          3D

 10  9  0  0  0  0  0  0  0  0999 V2000
    3.2300    0.9290    0.9460 N   0  0  0  0  0  0  0  0  0  0  0  0
    2.2590    0.3730    0.0900 C   0  0  0  0  0  0  0  0  0  0  0  0
    1.8580    0.9170   -0.9610 O   0  0  0  0  0  0  0  0  0  0  0  0
    1.7240   -0.8560    0.4450 O   0  0  0  0  0  0  0  0  0  0  0  0
    0.7460   -1.5600   -0.2600 C   0  0  0  0  0  0  0  0  0  0  0  0
   -0.5550   -0.8850   -0.2960 C   0  0  0  0  0  0  0  0  0  0  0  0
   -1.6180   -1.5290   -1.0080 N   0  0  0  0  0  0  0  0  0  0  0  0
   -0.8270    0.2590    0.2680 C   0  0  0  0  0  0  0  0  0  0  0  0
   -2.1610    0.9020    0.2000 C   0  0  0  0  0  0  0  0  0  0  0  0
   -2.0360    2.1490   -0.4140 O   0  0  0  0  0  0  0  0  0  0  0  0
  1  2  1  0
  2  3  2  0
  2  4  1  0
  4  5  1  0
  5  6  1  0
  6  7  1  0
  6  8  2  3
  8  9  1  0
  9 10  1  0
M  END
