
     RDKit          3D

 10  9  0  0  0  0  0  0  0  0999 V2000
    3.9780    0.1480   -0.1520 N   0  0  0  0  0  0  0  0  0  0  0  0
    2.7010    0.1680   -0.7610 C   0  0  0  0  0  0  0  0  0  0  0  0
    2.6170    0.3400   -1.9820 O   0  0  0  0  0  0  0  0  0  0  0  0
    1.5210   -0.0180    0.0830 C   0  0  0  0  0  0  0  0  0  0  0  0
    0.3240    0.0190   -0.6090 O   0  0  0  0  0  0  0  0  0  0  0  0
   -0.6790   -0.1740    0.3450 C   0  0  0  0  0  0  0  0  0  0  0  0
   -2.0240   -0.1620   -0.2320 C   0  0  0  0  0  0  0  0  0  0  0  0
   -2.3230   -1.1390   -1.2180 N   0  0  0  0  0  0  0  0  0  0  0  0
   -2.9670    0.6930    0.1060 C   0  0  0  0  0  0  0  0  0  0  0  0
   -2.7580    1.6760    1.0580 O   0  0  0  0  0  0  0  0  0  0  0  0
  1  2  1  0
  2  3  2  0
  2  4  1  0
  4  5  1  0
  5  6  1  0
  6  7  1  0
  7  8  1  0
  7  9  2  3
  9 10  1  0
M  END
