
     RDKit          3D

 14 14  0  0  0  0  0  0  0  0999 V2000
    4.5590    0.7500    1.1860 C   0  0  0  0  0  0  0  0  0  0  0  0
    3.7150    0.5030    0.0010 C   0  0  0  0  0  0  0  0  0  0  0  0
    3.8350   -0.5730   -0.7420 C   0  0  0  0  0  0  0  0  0  0  0  0
    3.0120   -0.8600   -1.9340 C   0  0  2  0  0  0  0  0  0  0  0  0
    3.6480   -0.3130   -3.0520 O   0  0  0  0  0  0  0  0  0  0  0  0
    1.6420   -0.2230   -1.8560 C   0  0  0  0  0  0  0  0  0  0  0  0
    0.8870   -0.7530   -0.6300 C   0  0  0  0  0  0  0  0  0  0  0  0
   -0.4840   -0.0820   -0.5980 C   0  0  0  0  0  0  0  0  0  0  0  0
   -1.1920   -0.5460    0.5090 O   0  0  0  0  0  0  0  0  0  0  0  0
   -2.4150    0.0620    0.5250 C   0  0  1  0  0  0  0  0  0  0  0  0
   -3.5810   -0.8970    0.5610 C   0  0  0  0  0  0  0  0  0  0  0  0
   -4.7200   -0.0260    1.0520 C   0  0  0  0  0  0  0  0  0  0  0  0
   -4.1260    1.2530    1.5450 C   0  0  0  0  0  0  0  0  0  0  0  0
   -2.6740    0.8760    1.7800 C   0  0  0  0  0  0  0  0  0  0  0  0
  1  2  1  0
  2  3  2  3
  3  4  1  0
  4  5  1  6
  4  6  1  0
  6  7  1  0
  7  8  1  0
  8  9  1  0
 10  9  1  1
 10 11  1  0
 10 14  1  0
 11 12  1  0
 12 13  1  0
 13 14  1  0
M  END
