
     RDKit          3D

  9  9  0  0  0  0  0  0  0  0999 V2000
    2.2750   -0.7630    0.0860 N   0  0  0  0  0  0  0  0  0  0  0  0
    1.0280   -0.0710    0.0260 C   0  0  0  0  0  0  0  0  0  0  0  0
   -0.0060   -0.5910    0.6070 N   0  0  0  0  0  0  0  0  0  0  0  0
   -1.3140    0.0210    0.6090 C   0  0  2  0  0  0  0  0  0  0  0  0
   -2.6010   -1.1620   -0.0400 P   0  0  0  0  0  0  0  0  0  0  0  0
   -2.2540   -2.5900   -0.5130 O   0  0  0  0  0  0  0  0  0  0  0  0
   -1.3200    1.2400   -0.0900 O   0  0  0  0  0  0  0  0  0  0  0  0
   -0.2000    1.7740   -0.7020 C   0  0  0  0  0  0  0  0  0  0  0  0
    0.9150    1.1610   -0.6520 N   0  0  0  0  0  0  0  0  0  0  0  0
  1  2  1  0
  2  3  2  0
  2  9  1  0
  3  4  1  0
  4  5  1  6
  4  7  1  0
  5  6  2  0
  7  8  1  0
  8  9  2  0
M  END
