
     RDKit          3D

  8  8  0  0  0  0  0  0  0  0999 V2000
    2.6490    0.1430   -0.0620 N   0  0  0  0  0  0  0  0  0  0  0  0
    1.3790    0.0920    0.1290 C   0  0  0  0  0  0  0  0  0  0  0  0
    0.7140   -1.1610    0.0250 N   0  0  0  0  0  0  0  0  0  0  0  0
   -0.5790   -1.3110    0.6640 C   0  0  0  0  0  0  0  0  0  0  0  0
   -1.5610   -0.4580   -0.1440 C   0  0  0  0  0  0  0  0  0  0  0  0
   -1.0920    1.3240    0.2230 P   0  0  0  0  0  0  0  0  0  0  0  0
   -1.5650    2.3270   -1.1130 O   0  0  0  0  0  0  0  0  0  0  0  0
    0.6890    1.3010    0.4380 N   0  0  0  0  0  0  0  0  0  0  0  0
  1  2  2  0
  2  3  1  0
  2  8  1  0
  3  4  1  0
  4  5  1  0
  5  6  1  0
  6  7  1  0
  6  8  1  0
M  END
