
     RDKit          3D

  9  9  0  0  0  0  0  0  0  0999 V2000
   -1.5010   -1.0070   -0.2790 C   0  0  0  0  0  0  0  0  0  0  0  0
   -0.6730    0.2320   -0.1450 C   0  0  0  0  0  0  0  0  0  0  0  0
   -1.0750    1.5020   -0.0940 N   0  0  0  0  0  0  0  0  0  0  0  0
   -0.0250    2.2950    0.0270 N   0  0  0  0  0  0  0  0  0  0  0  0
    1.0610    1.5520    0.0550 N   0  0  0  0  0  0  0  0  0  0  0  0
    0.7020    0.2600   -0.0500 C   0  0  0  0  0  0  0  0  0  0  0  0
    1.4980   -0.8660   -0.0670 O   0  0  0  0  0  0  0  0  0  0  0  0
    3.2240   -0.8640    0.0510 P   0  0  0  0  0  0  0  0  0  0  0  0
    3.8670   -0.9070    1.4750 O   0  0  0  0  0  0  0  0  0  0  0  0
  1  2  1  0
  2  3  1  0
  2  6  2  0
  3  4  1  0
  4  5  2  0
  5  6  1  0
  6  7  1  0
  7  8  1  0
  8  9  2  0
M  END
