
     RDKit          3D

 22 24  0  0  0  0  0  0  0  0999 V2000
    6.0000    0.7420    0.1000 N   0  0  0  0  0  0  0  0  0  0  0  0
    4.6610    0.4050   -0.2970 C   0  0  0  0  0  0  0  0  0  0  0  0
    4.3530    0.1460   -1.5800 N   0  0  0  0  0  0  0  0  0  0  0  0
    3.1240   -0.1730   -2.0070 C   0  0  0  0  0  0  0  0  0  0  0  0
    2.1490   -0.2340   -1.0780 N   0  0  0  0  0  0  0  0  0  0  0  0
    2.3640    0.0070    0.2120 C   0  0  0  0  0  0  0  0  0  0  0  0
    3.6370    0.3330    0.6240 C   0  0  0  0  0  0  0  0  0  0  0  0
    3.5610    0.5190    1.9520 N   0  0  0  0  0  0  0  0  0  0  0  0
    2.2960    0.3160    2.3370 C   0  0  0  0  0  0  0  0  0  0  0  0
    1.5340   -0.0020    1.2830 N   0  0  0  0  0  0  0  0  0  0  0  0
    0.1170   -0.3030    1.2340 C   0  0  1  0  0  0  0  0  0  0  0  0
   -0.6930    0.8830    0.7690 C   0  0  0  0  0  0  0  0  0  0  0  0
   -1.8470    0.2260    0.0270 C   0  0  2  0  0  0  0  0  0  0  0  0
   -3.0530    0.5960    0.5690 O   0  0  0  0  0  0  0  0  0  0  0  0
   -4.1050    1.2620   -0.5740 P   0  0  2  0  0  0  0  0  0  0  0  0
   -3.6630    2.6550   -0.9620 O   0  0  0  0  0  0  0  0  0  0  0  0
   -5.6430    1.3530    0.1110 O   0  0  0  0  0  0  0  0  0  0  0  0
   -4.1910    0.3400   -1.9670 O   0  0  0  0  0  0  0  0  0  0  0  0
   -1.5940   -1.2360    0.3190 C   0  0  1  0  0  0  0  0  0  0  0  0
   -2.1830   -2.1390   -0.7280 C   0  0  0  0  0  0  0  0  0  0  0  0
   -1.7720   -1.7870   -2.0120 O   0  0  0  0  0  0  0  0  0  0  0  0
   -0.1910   -1.2750    0.3160 O   0  0  0  0  0  0  0  0  0  0  0  0
  1  2  1  0
  2  3  2  0
  2  7  1  0
  3  4  1  0
  4  5  2  0
  5  6  1  0
  6  7  2  0
  6 10  1  0
  7  8  1  0
  8  9  2  0
  9 10  1  0
 11 10  1  6
 11 12  1  0
 11 22  1  0
 12 13  1  0
 13 14  1  1
 13 19  1  0
 14 15  1  0
 15 16  2  0
 15 17  1  1
 15 18  1  0
 19 20  1  6
 19 22  1  0
 20 21  1  0
M  END
