
     RDKit          3D

  8  8  0  0  0  0  0  0  0  0999 V2000
   -2.5650   -0.5560   -0.2920 N   0  0  0  0  0  0  0  0  0  0  0  0
   -1.2710   -0.0180   -0.0890 C   0  0  0  0  0  0  0  0  0  0  0  0
   -0.1640   -0.7520   -0.1030 N   0  0  0  0  0  0  0  0  0  0  0  0
    1.0910   -0.3440    0.0760 C   0  0  0  0  0  0  0  0  0  0  0  0
    2.0660   -1.3510    0.0060 O   0  0  0  0  0  0  0  0  0  0  0  0
    1.5260    0.9300    0.3160 C   0  0  0  0  0  0  0  0  0  0  0  0
    0.7110    1.9900    0.4090 N   0  0  0  0  0  0  0  0  0  0  0  0
   -0.9400    1.6800    0.2090 P   0  0  0  0  0  0  0  0  0  0  0  0
  1  2  1  0
  2  3  2  0
  2  8  1  0
  3  4  1  0
  4  5  1  0
  4  6  2  0
  6  7  1  0
  7  8  2  0
M  END
