
     RDKit          3D

 38 40  0  0  0  0  0  0  0  0999 V2000
    0.4160    7.4210   -0.9110 C   0  0  0  0  0  0  0  0  0  0  0  0
    0.7680    5.9370   -0.8410 C   0  0  0  0  0  0  0  0  0  0  0  0
    0.8750    5.5080    0.4650 O   0  0  0  0  0  0  0  0  0  0  0  0
    1.2760    3.8200    0.4470 P   0  0  0  0  0  0  0  0  0  0  0  0
    0.5830    3.1390   -0.9740 O   0  0  0  0  0  0  0  0  0  0  0  0
    0.6580    2.9560    2.0010 C   0  0  0  0  0  0  0  0  0  0  0  0
   -0.3420    1.9590    1.5470 C   0  0  0  0  0  0  0  0  0  0  0  0
   -1.6500    2.0860    1.6070 N   0  0  0  0  0  0  0  0  0  0  0  0
   -2.2140    0.9630    1.0620 C   0  0  0  0  0  0  0  0  0  0  0  0
   -3.6710    0.8070    0.9840 C   0  0  0  0  0  0  0  0  0  0  0  0
   -4.3150    2.0550    1.6250 C   0  0  0  0  0  0  0  0  0  0  0  0
   -5.6850    1.8850    1.5440 O   0  0  0  0  0  0  0  0  0  0  0  0
   -1.2050    0.1440    0.6620 N   0  0  0  0  0  0  0  0  0  0  0  0
   -1.3980   -1.0630   -0.0200 C   0  0  0  0  0  0  0  0  0  0  0  0
   -0.3760   -1.6040   -0.6030 O   0  0  0  0  0  0  0  0  0  0  0  0
   -2.6210   -1.8640   -0.1960 C   0  0  2  0  0  0  0  0  0  0  0  0
   -2.8820   -2.7390    1.0310 C   0  0  0  0  0  0  0  0  0  0  0  0
   -4.0380   -3.4630    0.7880 O   0  0  0  0  0  0  0  0  0  0  0  0
   -3.7950   -4.7460    0.2810 C   0  0  0  0  0  0  0  0  0  0  0  0
   -4.3760   -4.8250   -1.1420 C   0  0  0  0  0  0  0  0  0  0  0  0
   -4.1050   -3.1780   -1.8300 S   0  0  1  0  0  0  0  0  0  0  0  0
   -4.2920   -3.1400   -3.2910 O   0  0  0  0  0  0  0  0  0  0  0  0
   -5.0630   -2.2260   -1.1650 O   0  0  0  0  0  0  0  0  0  0  0  0
   -2.4820   -2.7620   -1.3660 N   0  0  0  0  0  0  0  0  0  0  0  0
   -0.0250    0.7010    0.9440 C   0  0  0  0  0  0  0  0  0  0  0  0
    1.3190    0.3400    0.7660 N   0  0  0  0  0  0  0  0  0  0  0  0
    1.9730   -0.8910    0.8130 C   0  0  0  0  0  0  0  0  0  0  0  0
    1.3490   -1.9110    1.2090 O   0  0  0  0  0  0  0  0  0  0  0  0
    3.3810   -1.0870    0.4250 C   0  0  0  0  0  0  0  0  0  0  0  0
    4.1010   -0.1460   -0.2360 C   0  0  0  0  0  0  0  0  0  0  0  0
    5.4300   -0.3730   -0.5650 C   0  0  0  0  0  0  0  0  0  0  0  0
    6.0830   -1.5630   -0.2390 C   0  0  0  0  0  0  0  0  0  0  0  0
    7.4100   -1.7790   -0.5730 O   0  0  0  0  0  0  0  0  0  0  0  0
    7.8050   -2.3740   -1.7590 C   0  0  0  0  0  0  0  0  0  0  0  0
    6.8960   -2.7350   -2.5670 O   0  0  0  0  0  0  0  0  0  0  0  0
    9.1190   -2.5980   -2.1170 O   0  0  0  0  0  0  0  0  0  0  0  0
    5.3310   -2.5070    0.4330 C   0  0  0  0  0  0  0  0  0  0  0  0
    3.9950   -2.2690    0.7610 C   0  0  0  0  0  0  0  0  0  0  0  0
  1  2  1  0
  2  3  1  0
  3  4  1  0
  4  5  1  0
  4  6  1  0
  6  7  1  0
  7  8  1  0
  7 25  2  0
  8  9  2  0
  9 10  1  0
  9 13  1  0
 10 11  1  0
 11 12  1  0
 13 14  1  0
 13 25  1  0
 14 15  2  0
 16 14  1  1
 16 17  1  0
 16 24  1  0
 17 18  1  0
 18 19  1  0
 19 20  1  0
 21 20  1  1
 21 22  2  0
 21 23  2  0
 21 24  1  0
 25 26  1  0
 26 27  1  0
 27 28  2  0
 27 29  1  0
 29 30  2  0
 29 38  1  0
 30 31  1  0
 31 32  2  0
 32 33  1  0
 32 37  1  0
 33 34  1  0
 34 35  2  0
 34 36  1  0
 37 38  2  0
M  END
