
     RDKit          3D

 39 40  0  0  0  0  0  0  0  0999 V2000
   -0.6530   -7.0410    1.0900 C   0  0  0  0  0  0  0  0  0  0  0  0
   -0.9100   -5.6240    0.8600 C   0  0  0  0  0  0  0  0  0  0  0  0
    0.0310   -4.6960    0.9570 C   0  0  0  0  0  0  0  0  0  0  0  0
    1.3270   -4.9990    1.2740 O   0  0  0  0  0  0  0  0  0  0  0  0
   -0.2860   -3.3630    0.7430 O   0  0  0  0  0  0  0  0  0  0  0  0
   -0.2150   -2.6480   -0.4220 C   0  0  0  0  0  0  0  0  0  0  0  0
    0.2160   -3.3150   -1.4230 O   0  0  0  0  0  0  0  0  0  0  0  0
   -0.5960   -1.2450   -0.5510 C   0  0  2  0  0  0  0  0  0  0  0  0
    0.0360   -0.3400    0.4130 C   0  0  0  0  0  0  0  0  0  0  0  0
    1.4430   -0.1960    0.5220 C   0  0  0  0  0  0  0  0  0  0  0  0
    2.2820    0.2350   -0.6580 N   0  0  0  0  0  0  0  0  0  0  0  0
    3.8240    0.3170   -0.0020 S   0  0  2  0  0  0  0  0  0  0  0  0
    3.8600   -0.7520    1.1470 O   0  0  0  0  0  0  0  0  0  0  0  0
    3.9440    1.6720    0.8020 O   0  0  0  0  0  0  0  0  0  0  0  0
    5.2520    0.0550   -0.8430 N   0  0  0  0  0  0  0  0  0  0  0  0
    5.9420    1.3290   -0.8040 C   0  0  0  0  0  0  0  0  0  0  0  0
    7.3350    1.4110   -1.2920 C   0  0  0  0  0  0  0  0  0  0  0  0
    8.0200    0.4760   -0.3890 O   0  0  0  0  0  0  0  0  0  0  0  0
    9.3800    1.3270    0.3090 P   0  0  0  0  0  0  0  0  0  0  0  0
   10.5860    1.8310   -0.7500 O   0  0  0  0  0  0  0  0  0  0  0  0
    8.6790    2.7300    1.1660 O   0  0  0  0  0  0  0  0  0  0  0  0
   -2.1120   -1.0280   -0.3030 C   0  0  0  0  0  0  0  0  0  0  0  0
   -2.8180   -2.0150   -0.3680 O   0  0  0  0  0  0  0  0  0  0  0  0
   -2.5250    0.2560   -0.0260 N   0  0  0  0  0  0  0  0  0  0  0  0
   -3.2840    1.1080   -0.5560 C   0  0  0  0  0  0  0  0  0  0  0  0
   -3.3550    2.3410    0.1760 N   0  0  0  0  0  0  0  0  0  0  0  0
   -3.8120    2.3680    1.5490 C   0  0  0  0  0  0  0  0  0  0  0  0
   -4.6600    3.3580    1.7720 C   0  0  0  0  0  0  0  0  0  0  0  0
   -5.3920    3.8090    2.9770 C   0  0  0  0  0  0  0  0  0  0  0  0
   -4.9050    3.3890    4.1730 O   0  0  0  0  0  0  0  0  0  0  0  0
   -3.6990    2.9130    3.9840 O   0  0  0  0  0  0  0  0  0  0  0  0
   -3.7100    1.6090    3.7580 O   0  0  0  0  0  0  0  0  0  0  0  0
   -3.3360    1.3330    2.4480 C   0  0  0  0  0  0  0  0  0  0  0  0
   -4.0290    0.8750   -1.7920 C   0  0  0  0  0  0  0  0  0  0  0  0
   -3.4730    0.0910   -2.7750 C   0  0  0  0  0  0  0  0  0  0  0  0
   -4.1650   -0.1790   -3.9640 C   0  0  0  0  0  0  0  0  0  0  0  0
   -5.4170    0.3190   -4.2090 C   0  0  0  0  0  0  0  0  0  0  0  0
   -5.9920    1.1250   -3.2080 C   0  0  0  0  0  0  0  0  0  0  0  0
   -5.3110    1.3870   -2.0440 C   0  0  0  0  0  0  0  0  0  0  0  0
  1  2  1  0
  2  3  2  3
  3  4  1  0
  3  5  1  0
  5  6  1  0
  6  7  2  0
  6  8  1  0
  8  9  1  1
  8 22  1  0
  9 10  1  0
 10 11  1  0
 12 11  1  6
 12 13  2  0
 12 14  2  0
 12 15  1  0
 15 16  1  0
 16 17  1  0
 17 18  1  0
 18 19  1  0
 19 20  1  0
 19 21  1  0
 22 23  2  0
 22 24  1  0
 24 25  2  3
 25 26  1  0
 25 34  1  0
 26 27  1  0
 27 28  2  0
 27 33  1  0
 28 29  1  0
 29 30  1  0
 30 31  1  0
 31 32  1  0
 32 33  1  0
 34 35  2  0
 34 39  1  0
 35 36  1  0
 36 37  2  0
 37 38  1  0
 38 39  2  0
M  END
