
     RDKit          3D

 35 36  0  0  0  0  0  0  0  0999 V2000
   -2.6510   -0.9040    2.2520 C   0  0  0  0  0  0  0  0  0  0  0  0
   -2.0710   -0.8980    0.8790 C   0  0  2  0  0  0  0  0  0  0  0  0
   -0.7100   -0.7820    0.9510 O   0  0  0  0  0  0  0  0  0  0  0  0
   -0.0440   -0.9650   -0.2780 C   0  0  1  0  0  0  0  0  0  0  0  0
    0.2020   -2.2400   -0.5680 O   0  0  0  0  0  0  0  0  0  0  0  0
    0.9080   -3.0890    0.1810 C   0  0  0  0  0  0  0  0  0  0  0  0
    0.9210   -4.4990   -0.4800 C   0  0  1  0  0  0  0  0  0  0  0  0
    1.7700   -5.3860    0.3880 C   0  0  0  0  0  0  0  0  0  0  0  0
   -0.3660   -4.9660   -0.5970 O   0  0  0  0  0  0  0  0  0  0  0  0
   -0.7280   -5.2300   -1.8210 O   0  0  0  0  0  0  0  0  0  0  0  0
   -1.0830   -0.5360   -1.3930 C   0  0  0  0  0  0  0  0  0  0  0  0
   -1.8230    0.5390   -0.9960 O   0  0  0  0  0  0  0  0  0  0  0  0
   -2.6960    0.2260    0.0570 C   0  0  1  0  0  0  0  0  0  0  0  0
   -3.9170   -0.2560   -0.4020 O   0  0  0  0  0  0  0  0  0  0  0  0
   -4.5770    0.6660   -1.2070 C   0  0  0  0  0  0  0  0  0  0  0  0
   -6.1850   -0.0870   -1.7560 P   0  0  0  0  0  0  0  0  0  0  0  0
   -7.5370    0.6880   -1.0000 O   0  0  0  0  0  0  0  0  0  0  0  0
   -6.2010   -1.8070   -1.4710 O   0  0  0  0  0  0  0  0  0  0  0  0
   -2.8550    1.4900    0.8720 C   0  0  0  0  0  0  0  0  0  0  0  0
   -2.5930    2.6250    0.1120 O   0  0  0  0  0  0  0  0  0  0  0  0
   -2.2880    3.7270    0.8850 C   0  0  0  0  0  0  0  0  0  0  0  0
   -0.9010    3.6410    1.4930 C   0  0  0  0  0  0  0  0  0  0  0  0
    0.1540    3.4080    0.4340 C   0  0  0  0  0  0  0  0  0  0  0  0
    0.0510    2.1410   -0.1230 O   0  0  0  0  0  0  0  0  0  0  0  0
    0.8370    1.2110    0.5520 C   0  0  0  0  0  0  0  0  0  0  0  0
    1.0590    0.0030   -0.3740 C   0  0  2  0  0  0  0  0  0  0  0  0
    1.1100    0.5020   -1.7100 O   0  0  0  0  0  0  0  0  0  0  0  0
    2.4580   -0.4610   -0.0910 C   0  0  0  0  0  0  0  0  0  0  0  0
    3.2530    0.7330   -0.2320 O   0  0  0  0  0  0  0  0  0  0  0  0
    4.5860    0.4050    0.0140 C   0  0  0  0  0  0  0  0  0  0  0  0
    5.4910    1.6000   -0.1130 C   0  0  0  0  0  0  0  0  0  0  0  0
    6.7970    1.1530    0.1540 O   0  0  0  0  0  0  0  0  0  0  0  0
    7.6700    2.1340    0.0680 O   0  0  0  0  0  0  0  0  0  0  0  0
    7.1830    3.1370    0.7920 O   0  0  0  0  0  0  0  0  0  0  0  0
    7.1030    4.1690   -0.0280 O   0  0  0  0  0  0  0  0  0  0  0  0
  2  1  1  1
  2  3  1  0
  2 13  1  0
  3  4  1  0
  4  5  1  6
  4 11  1  0
  4 26  1  0
  5  6  1  0
  6  7  1  0
  7  8  1  1
  7  9  1  0
  9 10  1  0
 11 12  1  0
 12 13  1  0
 13 14  1  6
 13 19  1  0
 14 15  1  0
 15 16  1  0
 16 17  1  0
 16 18  1  0
 19 20  1  0
 20 21  1  0
 21 22  1  0
 22 23  1  0
 23 24  1  0
 24 25  1  0
 25 26  1  0
 26 27  1  6
 26 28  1  0
 28 29  1  0
 29 30  1  0
 30 31  1  0
 31 32  1  0
 32 33  1  0
 33 34  1  0
 34 35  1  0
M  END
