
     RDKit          3D

 37 38  0  0  0  0  0  0  0  0999 V2000
    7.4740    1.6040   -0.4690 O   0  0  0  0  0  0  0  0  0  0  0  0
    7.8590    0.4250   -0.3110 C   0  0  0  0  0  0  0  0  0  0  0  0
    6.9910   -0.5680    0.1560 N   0  0  0  0  0  0  0  0  0  0  0  0
    5.6340   -0.3920    0.4930 C   0  0  0  0  0  0  0  0  0  0  0  0
    4.8600    0.7020    0.2160 C   0  0  0  0  0  0  0  0  0  0  0  0
    3.5210    0.8350    0.5920 C   0  0  0  0  0  0  0  0  0  0  0  0
    2.9110   -0.1740    1.2830 C   0  0  0  0  0  0  0  0  0  0  0  0
    1.4930   -0.1170    1.7250 C   0  0  0  0  0  0  0  0  0  0  0  0
    0.4880   -0.8490    0.3820 P   0  0  2  0  0  0  0  0  0  0  0  0
    0.8930   -2.3050    0.3220 O   0  0  0  0  0  0  0  0  0  0  0  0
    0.8970   -0.0380   -1.0420 O   0  0  0  0  0  0  0  0  0  0  0  0
   -1.1460   -0.6570    0.6740 O   0  0  0  0  0  0  0  0  0  0  0  0
   -1.8890   -0.2540   -0.4220 C   0  0  2  0  0  0  0  0  0  0  0  0
   -2.2950    1.1790   -0.3030 C   0  0  0  0  0  0  0  0  0  0  0  0
   -1.4150    2.1610    0.0980 C   0  0  0  0  0  0  0  0  0  0  0  0
   -1.8100    3.5020    0.2070 C   0  0  0  0  0  0  0  0  0  0  0  0
   -3.1020    3.8670   -0.0890 C   0  0  0  0  0  0  0  0  0  0  0  0
   -3.5440    5.2260    0.0120 N   0  0  0  0  0  0  0  0  0  0  0  0
   -2.7580    6.1130    0.3700 O   0  0  0  0  0  0  0  0  0  0  0  0
   -4.8310    5.5930   -0.2780 O   0  0  0  0  0  0  0  0  0  0  0  0
   -3.9780    2.9010   -0.4860 C   0  0  0  0  0  0  0  0  0  0  0  0
   -3.5790    1.5610   -0.5940 C   0  0  0  0  0  0  0  0  0  0  0  0
   -3.0240   -1.1470   -0.7870 C   0  0  1  0  0  0  0  0  0  0  0  0
   -2.5060   -2.5160   -1.1920 C   0  0  0  0  0  0  0  0  0  0  0  0
   -1.9980   -3.1850   -0.1000 O   0  0  0  0  0  0  0  0  0  0  0  0
   -4.0270   -1.3330    0.1980 N   0  0  0  0  0  0  0  0  0  0  0  0
   -5.2310   -1.8490   -0.3520 C   0  0  1  0  0  0  0  0  0  0  0  0
   -5.2310   -3.2450   -0.4950 O   0  0  0  0  0  0  0  0  0  0  0  0
   -6.4500   -1.5450    0.5080 C   0  0  1  0  0  0  0  0  0  0  0  0
   -6.1930   -2.2890    2.1100 Cl  0  0  0  0  0  0  0  0  0  0  0  0
   -6.7490    0.1730    0.7120 Cl  0  0  0  0  0  0  0  0  0  0  0  0
    3.6690   -1.2870    1.5730 C   0  0  0  0  0  0  0  0  0  0  0  0
    4.9770   -1.4180    1.2060 C   0  0  0  0  0  0  0  0  0  0  0  0
    9.2950    0.1160   -0.6450 C   0  0  1  0  0  0  0  0  0  0  0  0
    9.8920    1.2820   -1.0610 F   0  0  0  0  0  0  0  0  0  0  0  0
    9.9450   -0.3450    0.4810 F   0  0  0  0  0  0  0  0  0  0  0  0
    9.2660   -0.8200   -1.6550 F   0  0  0  0  0  0  0  0  0  0  0  0
  1  2  2  0
  2  3  1  0
  2 34  1  0
  3  4  1  0
  4  5  2  0
  4 33  1  0
  5  6  1  0
  6  7  2  0
  7  8  1  0
  7 32  1  0
  8  9  1  0
  9 10  2  0
  9 11  1  6
  9 12  1  0
 13 12  1  1
 13 14  1  0
 13 23  1  0
 14 15  2  0
 14 22  1  0
 15 16  1  0
 16 17  2  0
 17 18  1  0
 17 21  1  0
 18 19  2  0
 18 20  1  0
 21 22  2  0
 23 24  1  1
 23 26  1  0
 24 25  1  0
 26 27  1  0
 27 28  1  1
 27 29  1  0
 29 30  1  1
 29 31  1  0
 32 33  2  0
 34 35  1  6
 34 36  1  0
 34 37  1  0
M  CHG  2  18   1  20  -1
M  END
