
     RDKit          3D

 38 39  0  0  0  0  0  0  0  0999 V2000
   -5.2110    0.8150   -4.6130 C   0  0  0  0  0  0  0  0  0  0  0  0
   -4.3790   -0.0220   -3.7810 N   0  0  0  0  0  0  0  0  0  0  0  0
   -4.9610   -1.1900   -3.1620 C   0  0  0  0  0  0  0  0  0  0  0  0
   -5.5820   -0.8210   -1.4780 P   0  0  0  0  0  0  0  0  0  0  0  0
   -4.8310    0.5880   -0.7870 O   0  0  0  0  0  0  0  0  0  0  0  0
   -5.2340   -2.2010   -0.4560 O   0  0  0  0  0  0  0  0  0  0  0  0
   -3.0030    0.2900   -3.6150 C   0  0  0  0  0  0  0  0  0  0  0  0
   -2.4420    1.2400   -4.2120 O   0  0  0  0  0  0  0  0  0  0  0  0
   -2.1750   -0.4480   -2.7640 O   0  0  0  0  0  0  0  0  0  0  0  0
   -0.7910   -0.1240   -2.6120 C   0  0  1  0  0  0  0  0  0  0  0  0
   -0.5830    0.5550   -1.2680 C   0  0  0  0  0  0  0  0  0  0  0  0
    0.8290    0.9150   -1.0480 C   0  0  0  0  0  0  0  0  0  0  0  0
    1.0550    1.6400    0.1870 N   0  0  0  0  0  0  0  0  0  0  0  0
    1.3400    0.8580    1.3470 C   0  0  0  0  0  0  0  0  0  0  0  0
    1.5930    1.5000    2.4270 O   0  0  0  0  0  0  0  0  0  0  0  0
    1.3440   -0.5530    1.3340 N   0  0  0  0  0  0  0  0  0  0  0  0
    1.6630   -1.2680    2.5790 C   0  0  0  0  0  0  0  0  0  0  0  0
    3.0350   -0.9730    3.0820 C   0  0  0  0  0  0  0  0  0  0  0  0
    3.3340   -1.6680    4.3510 C   0  0  0  0  0  0  0  0  0  0  0  0
    3.1940   -3.4860    4.0490 S   0  0  2  0  0  0  0  0  0  0  0  0
    4.3490   -3.9930    2.6750 C   0  0  0  0  0  0  0  0  0  0  0  0
    1.5320   -4.1520    3.9330 C   0  0  0  0  0  0  0  0  0  0  0  0
    1.6710   -5.2010    4.8800 O   0  0  0  0  0  0  0  0  0  0  0  0
    2.2420   -4.7050    5.9230 O   0  0  0  0  0  0  0  0  0  0  0  0
    3.5820   -4.4520    5.5970 C   0  0  0  0  0  0  0  0  0  0  0  0
    0.9500    3.0280    0.3690 C   0  0  0  0  0  0  0  0  0  0  0  0
    1.2770    3.3970    1.5850 O   0  0  0  0  0  0  0  0  0  0  0  0
    0.5620    4.0930   -0.4900 C   0  0  0  0  0  0  0  0  0  0  0  0
    0.1690    4.0240   -1.7960 C   0  0  0  0  0  0  0  0  0  0  0  0
   -0.2270    5.1320   -2.5520 C   0  0  0  0  0  0  0  0  0  0  0  0
   -0.2350    6.3820   -1.9660 C   0  0  0  0  0  0  0  0  0  0  0  0
   -0.6310    7.5030   -2.7110 O   0  0  0  0  0  0  0  0  0  0  0  0
    0.1450    6.4520   -0.7040 N   0  0  0  0  0  0  0  0  0  0  0  0
    0.5340    5.4040    0.0500 C   0  0  0  0  0  0  0  0  0  0  0  0
    0.9150    5.5780    1.3660 O   0  0  0  0  0  0  0  0  0  0  0  0
    0.0730   -1.2660   -2.8740 C   0  0  0  0  0  0  0  0  0  0  0  0
    1.3480   -1.2500   -2.8780 O   0  0  0  0  0  0  0  0  0  0  0  0
   -0.4470   -2.5550   -3.1590 O   0  0  0  0  0  0  0  0  0  0  0  0
  1  2  1  0
  2  3  1  0
  2  7  1  0
  3  4  1  0
  4  5  1  0
  4  6  1  0
  7  8  2  0
  7  9  1  0
  9 10  1  0
 10 11  1  1
 10 36  1  0
 11 12  1  0
 12 13  1  0
 13 14  1  0
 13 26  1  0
 14 15  2  0
 14 16  1  0
 16 17  1  0
 17 18  1  0
 18 19  1  0
 19 20  1  0
 20 21  1  6
 20 22  1  0
 20 25  1  0
 22 23  1  0
 23 24  1  0
 24 25  1  0
 26 27  2  0
 26 28  1  0
 28 29  2  0
 28 34  1  0
 29 30  1  0
 30 31  2  0
 31 32  1  0
 31 33  1  0
 33 34  2  0
 34 35  1  0
 36 37  2  0
 36 38  1  0
M  END
