
     RDKit          3D

 35 35  0  0  0  0  0  0  0  0999 V2000
    6.8470   -1.2010   -3.9790 C   0  0  0  0  0  0  0  0  0  0  0  0
    6.2860   -0.7790   -2.7690 O   0  0  0  0  0  0  0  0  0  0  0  0
    4.9220   -0.7430   -2.6170 C   0  0  0  0  0  0  0  0  0  0  0  0
    4.1940   -1.0920   -3.5710 O   0  0  0  0  0  0  0  0  0  0  0  0
    4.3500   -0.2910   -1.3310 C   0  0  2  0  0  0  0  0  0  0  0  0
    4.9820   -0.9810   -0.1860 C   0  0  0  0  0  0  0  0  0  0  0  0
    4.1590   -1.9890    0.5000 C   0  0  0  0  0  0  0  0  0  0  0  0
    4.5980   -2.7950    1.2980 O   0  0  0  0  0  0  0  0  0  0  0  0
    2.7070   -2.0400    0.2140 C   0  0  0  0  0  0  0  0  0  0  0  0
    2.2920   -0.7110   -0.3190 C   0  0  1  0  0  0  0  0  0  0  0  0
    2.2600    0.4070    0.6940 C   0  0  2  0  0  0  0  0  0  0  0  0
    1.6450    0.0320    1.9990 C   0  0  0  0  0  0  0  0  0  0  0  0
    0.2960   -0.2990    1.9850 O   0  0  0  0  0  0  0  0  0  0  0  0
   -0.7800    0.4700    1.6490 C   0  0  0  0  0  0  0  0  0  0  0  0
   -0.6210    1.6460    1.2990 O   0  0  0  0  0  0  0  0  0  0  0  0
   -2.1820   -0.0810    1.6910 C   0  0  1  0  0  0  0  0  0  0  0  0
   -2.3460   -0.6530    3.0500 C   0  0  0  0  0  0  0  0  0  0  0  0
   -3.6050   -1.2530    3.1980 O   0  0  0  0  0  0  0  0  0  0  0  0
   -4.0640   -1.8670    4.3330 C   0  0  0  0  0  0  0  0  0  0  0  0
   -3.3110   -1.9060    5.3310 O   0  0  0  0  0  0  0  0  0  0  0  0
   -5.3380   -2.4390    4.3910 O   0  0  0  0  0  0  0  0  0  0  0  0
   -3.0290    0.9100    1.2970 O   0  0  0  0  0  0  0  0  0  0  0  0
   -3.6100    0.7510    0.0750 C   0  0  1  0  0  0  0  0  0  0  0  0
   -5.0560    1.0050   -0.0740 C   0  0  0  0  0  0  0  0  0  0  0  0
   -6.0060    0.2100    0.7390 C   0  0  0  0  0  0  0  0  0  0  0  0
   -5.7920    0.4450    2.0780 O   0  0  0  0  0  0  0  0  0  0  0  0
   -2.7970    1.9390   -1.1710 P   0  0  0  0  0  0  0  0  0  0  0  0
   -3.1420    3.5720   -0.7080 O   0  0  0  0  0  0  0  0  0  0  0  0
   -3.5100    1.5730   -2.7180 O   0  0  0  0  0  0  0  0  0  0  0  0
   -3.1340    0.2710   -3.0320 C   0  0  0  0  0  0  0  0  0  0  0  0
    1.6510    1.5610    0.1650 O   0  0  0  0  0  0  0  0  0  0  0  0
    2.2690    2.7600   -0.0560 C   0  0  0  0  0  0  0  0  0  0  0  0
    3.4870    2.8690    0.2290 O   0  0  0  0  0  0  0  0  0  0  0  0
    1.5850    3.8550   -0.5870 O   0  0  0  0  0  0  0  0  0  0  0  0
    2.9980   -0.3330   -1.4160 O   0  0  0  0  0  0  0  0  0  0  0  0
  1  2  1  0
  2  3  1  0
  3  4  2  0
  5  3  1  6
  5  6  1  0
  5 35  1  0
  6  7  1  0
  7  8  2  0
  7  9  1  0
 10  9  1  1
 10 11  1  0
 10 35  1  0
 11 12  1  1
 11 31  1  0
 12 13  1  0
 13 14  1  0
 14 15  2  0
 14 16  1  0
 16 17  1  1
 16 22  1  0
 17 18  1  0
 18 19  1  0
 19 20  2  0
 19 21  1  0
 22 23  1  0
 23 24  1  1
 23 27  1  0
 24 25  1  0
 25 26  1  0
 27 28  1  0
 27 29  1  0
 29 30  1  0
 31 32  1  0
 32 33  2  0
 32 34  1  0
M  END
