
     RDKit          3D

 37 39  0  0  0  0  0  0  0  0999 V2000
    4.5560   -4.0700    1.3750 C   0  0  0  0  0  0  0  0  0  0  0  0
    3.4570   -3.4770    0.6310 C   0  0  0  0  0  0  0  0  0  0  0  0
    3.1900   -2.1010    0.4590 C   0  0  0  0  0  0  0  0  0  0  0  0
    3.6800   -0.9670    0.7980 C   0  0  0  0  0  0  0  0  0  0  0  0
    4.8750   -0.7950    1.6060 C   0  0  0  0  0  0  0  0  0  0  0  0
    5.2440    0.4400    1.8600 O   0  0  0  0  0  0  0  0  0  0  0  0
    5.6750   -1.7550    2.1410 O   0  0  0  0  0  0  0  0  0  0  0  0
    3.0290    0.2980    0.3820 C   0  0  0  0  0  0  0  0  0  0  0  0
    3.7220    1.3330    0.8400 O   0  0  0  0  0  0  0  0  0  0  0  0
    1.9500    0.5950   -0.3190 N   0  0  0  0  0  0  0  0  0  0  0  0
    1.4900    2.0210   -0.6250 C   0  0  1  0  0  0  0  0  0  0  0  0
    2.3270    3.0270   -0.0410 C   0  0  0  0  0  0  0  0  0  0  0  0
    2.2960    3.3600    1.3170 O   0  0  0  0  0  0  0  0  0  0  0  0
    3.1670    3.6830   -0.7670 N   0  0  0  0  0  0  0  0  0  0  0  0
    4.0050    4.6620   -0.2850 O   0  0  0  0  0  0  0  0  0  0  0  0
    4.3450    5.7170   -1.1890 C   0  0  0  0  0  0  0  0  0  0  0  0
    1.5730    1.8990   -2.1210 C   0  0  0  0  0  0  0  0  0  0  0  0
    1.1630    0.5890   -2.3430 O   0  0  0  0  0  0  0  0  0  0  0  0
    0.7100   -0.2110   -1.1470 S   0  0  0  0  0  0  0  0  0  0  0  0
    0.7040   -1.4240   -1.9270 O   0  0  0  0  0  0  0  0  0  0  0  0
   -0.1470   -0.5970    0.1480 C   0  0  0  0  0  0  0  0  0  0  0  0
   -1.6350   -0.6530    0.1130 N   0  0  0  0  0  0  0  0  0  0  0  0
   -2.2150   -0.1550    1.2700 C   0  0  0  0  0  0  0  0  0  0  0  0
   -3.6650   -0.2000    1.5400 C   0  0  0  0  0  0  0  0  0  0  0  0
   -3.9280    0.3990    2.9680 C   0  0  0  0  0  0  0  0  0  0  0  0
   -5.7490    0.3000    3.2580 P   0  0  0  0  0  0  0  0  0  0  0  0
   -5.9960   -0.6150    4.7200 O   0  0  0  0  0  0  0  0  0  0  0  0
   -6.4900    1.8740    3.3640 O   0  0  0  0  0  0  0  0  0  0  0  0
   -2.1820   -0.8030   -1.1300 C   0  0  2  0  0  0  0  0  0  0  0  0
   -3.6290   -0.4360   -1.3320 C   0  0  0  0  0  0  0  0  0  0  0  0
   -4.1000   -0.7660   -2.7580 C   0  0  0  0  0  0  0  0  0  0  0  0
   -3.0300   -1.2880   -3.6320 C   0  0  0  0  0  0  0  0  0  0  0  0
   -2.9310   -0.9330   -4.8410 O   0  0  0  0  0  0  0  0  0  0  0  0
   -2.1190   -2.2090   -3.0440 N   0  0  0  0  0  0  0  0  0  0  0  0
   -2.1750   -2.2760   -1.6080 C   0  0  0  0  0  0  0  0  0  0  0  0
   -1.4560    0.0830   -2.1520 C   0  0  0  0  0  0  0  0  0  0  0  0
   -0.6550    0.9600   -1.3730 O   0  0  0  0  0  0  0  0  0  0  0  0
  1  2  1  0
  2  3  1  0
  3  4  2  3
  4  5  1  0
  4  8  1  0
  5  6  2  0
  5  7  1  0
  8  9  2  0
  8 10  1  0
 10 11  1  0
 10 19  1  0
 11 12  1  1
 11 17  1  0
 12 13  1  0
 12 14  2  3
 14 15  1  0
 15 16  1  0
 17 18  1  0
 18 19  1  0
 19 20  2  0
 19 21  1  0
 19 37  1  0
 21 22  1  0
 22 23  1  0
 22 29  1  0
 23 24  1  0
 24 25  1  0
 25 26  1  0
 26 27  1  0
 26 28  1  0
 29 30  1  1
 29 35  1  0
 29 36  1  0
 30 31  1  0
 31 32  1  0
 32 33  2  0
 32 34  1  0
 34 35  1  0
 36 37  1  0
M  END
