
     RDKit          3D

 15 16  0  0  0  0  0  0  0  0999 V2000
   -2.6330   -0.6490    2.0410 C   0  0  0  0  0  0  0  0  0  0  0  0
   -1.9150   -0.5540    0.6730 C   0  0  1  0  0  0  0  0  0  0  0  0
   -1.8860   -1.9820    0.1930 C   0  0  0  0  0  0  0  0  0  0  0  0
   -2.8490    0.2060   -0.2020 C   0  0  0  0  0  0  0  0  0  0  0  0
   -2.5410    1.6900   -0.2980 C   0  0  0  0  0  0  0  0  0  0  0  0
   -1.5330    1.8950   -1.4000 C   0  0  0  0  0  0  0  0  0  0  0  0
   -0.5340    0.7510   -1.4580 C   0  0  0  0  0  0  0  0  0  0  0  0
    0.1700    0.6950   -0.1290 C   0  0  2  0  0  0  0  0  0  0  0  0
    1.5990    0.2140   -0.2620 C   0  0  2  0  0  0  0  0  0  0  0  0
    2.3120    1.1310   -1.1650 N   0  0  0  0  0  0  0  0  0  0  0  0
    1.7930   -1.1410   -0.7630 C   0  0  0  0  0  0  0  0  0  0  0  0
    3.2420   -1.4510   -0.3630 C   0  0  0  0  0  0  0  0  0  0  0  0
    3.4820   -0.6880    0.8990 C   0  0  0  0  0  0  0  0  0  0  0  0
    2.3380    0.3010    1.0560 C   0  0  0  0  0  0  0  0  0  0  0  0
   -0.5960    0.0430    0.9560 C   0  0  0  0  0  0  0  0  0  0  0  0
  2  1  1  1
  2  3  1  0
  2  4  1  0
  2 15  1  0
  4  5  1  0
  5  6  1  0
  6  7  1  0
  8  7  1  6
  8  9  1  0
  8 15  1  0
  9 10  1  6
  9 11  1  0
  9 14  1  0
 11 12  1  0
 12 13  1  0
 13 14  1  0
M  CHG  1  10   1
M  END
