
     RDKit          3D

 16 17  0  0  0  0  0  0  0  0999 V2000
   -4.3010    0.9420   -0.9130 C   0  0  0  0  0  0  0  0  0  0  0  0
   -3.5550    0.7590    0.3780 C   0  0  0  0  0  0  0  0  0  0  0  0
   -2.1710    0.2700    0.1860 C   0  0  0  0  0  0  0  0  0  0  0  0
   -1.1630    1.1980    0.1600 C   0  0  0  0  0  0  0  0  0  0  0  0
    0.1400    0.8130   -0.0010 C   0  0  0  0  0  0  0  0  0  0  0  0
    1.1860    1.7090   -0.0660 C   0  0  0  0  0  0  0  0  0  0  0  0
    2.4930    1.3550   -0.2410 C   0  0  0  0  0  0  0  0  0  0  0  0
    3.8280    2.4750   -0.2780 Cl  0  0  0  0  0  0  0  0  0  0  0  0
    2.7620   -0.0220   -0.3600 C   0  0  0  0  0  0  0  0  0  0  0  0
    4.2000   -0.4140   -0.6200 C   0  0  0  0  0  0  0  0  0  0  0  0
    5.0050   -0.0170    0.5570 N   0  0  0  0  0  0  0  0  0  0  0  0
    1.7690   -0.9490   -0.3080 C   0  0  0  0  0  0  0  0  0  0  0  0
    0.4600   -0.5270   -0.1330 C   0  0  0  0  0  0  0  0  0  0  0  0
   -0.5570   -1.4940   -0.1130 C   0  0  0  0  0  0  0  0  0  0  0  0
   -1.8730   -1.0800    0.0470 C   0  0  0  0  0  0  0  0  0  0  0  0
   -2.9780   -2.0940    0.1070 C   0  0  0  0  0  0  0  0  0  0  0  0
  1  2  1  0
  2  3  1  0
  3  4  2  0
  3 15  1  0
  4  5  1  0
  5  6  2  0
  5 13  1  0
  6  7  1  0
  7  8  1  0
  7  9  2  0
  9 10  1  0
  9 12  1  0
 10 11  1  0
 12 13  2  0
 13 14  1  0
 14 15  2  0
 15 16  1  0
M  CHG  1  11   1
M  END
