
     RDKit          3D

 26 27  0  0  0  0  0  0  0  0999 V2000
    2.5950   -2.1570    0.7130 C   0  0  0  0  0  0  0  0  0  0  0  0
    3.1300   -0.8960    0.0840 C   0  0  2  0  0  0  0  0  0  0  0  0
    4.6120   -0.7760    0.2330 C   0  0  0  0  0  0  0  0  0  0  0  0
    5.2870   -0.2900   -1.0290 C   0  0  0  0  0  0  0  0  0  0  0  0
    4.9870    1.1450   -1.3430 C   0  0  2  0  0  0  0  0  0  0  0  0
    5.8080    2.0380   -0.5510 N   0  0  0  0  0  0  0  0  0  0  0  0
    3.5170    1.4830   -1.2240 C   0  0  0  0  0  0  0  0  0  0  0  0
    3.0090    1.4610    0.1820 C   0  0  0  0  0  0  0  0  0  0  0  0
    2.3940    0.2390    0.5710 N   0  0  0  0  0  0  0  0  0  0  0  0
    1.0220    0.0770    0.1780 C   0  0  0  0  0  0  0  0  0  0  0  0
    0.0510    0.9620    0.8360 C   0  0  0  0  0  0  0  0  0  0  0  0
   -1.2410    0.7370    0.4170 O   0  0  0  0  0  0  0  0  0  0  0  0
   -2.0780   -0.3300    0.5350 C   0  0  0  0  0  0  0  0  0  0  0  0
   -1.7640   -1.4960    1.1890 C   0  0  0  0  0  0  0  0  0  0  0  0
   -2.6330   -2.5590    1.2950 C   0  0  0  0  0  0  0  0  0  0  0  0
   -3.8800   -2.4440    0.7150 C   0  0  0  0  0  0  0  0  0  0  0  0
   -4.7760   -3.5360    0.8210 N   0  0  0  0  0  0  0  0  0  0  0  0
   -4.2160   -1.2780    0.0530 C   0  0  0  0  0  0  0  0  0  0  0  0
   -3.3470   -0.2250   -0.0490 C   0  0  0  0  0  0  0  0  0  0  0  0
   -3.6350    0.9770   -0.7410 N   0  0  0  0  0  0  0  0  0  0  0  0
   -4.9190    1.2350   -1.2460 C   0  0  0  0  0  0  0  0  0  0  0  0
   -5.1200    1.4610   -2.6720 N   0  0  0  0  0  0  0  0  0  0  0  0
   -5.9250    1.3310   -0.4790 N   0  0  0  0  0  0  0  0  0  0  0  0
   -5.9410    1.1970    1.2100 S   0  0  2  0  0  0  0  0  0  0  0  0
   -4.5690    1.2610    1.8270 O   0  0  0  0  0  0  0  0  0  0  0  0
   -6.6500    0.0010    1.7350 O   0  0  0  0  0  0  0  0  0  0  0  0
  2  1  1  1
  2  3  1  0
  2  9  1  0
  3  4  1  0
  4  5  1  0
  5  6  1  1
  5  7  1  0
  7  8  1  0
  8  9  1  0
  9 10  1  0
 10 11  1  0
 11 12  1  0
 12 13  1  0
 13 14  2  0
 13 19  1  0
 14 15  1  0
 15 16  2  0
 16 17  1  0
 16 18  1  0
 18 19  2  0
 19 20  1  0
 20 21  1  0
 21 22  1  0
 21 23  2  3
 24 23  1  6
 24 25  2  0
 24 26  2  0
M  CHG  2   6   1  23   1
M  END
