
     RDKit          3D

 25 26  0  0  0  0  0  0  0  0999 V2000
    3.7360   -0.7740   -1.6310 C   0  0  0  0  0  0  0  0  0  0  0  0
    3.9990   -0.5890   -0.1860 C   0  0  2  0  0  0  0  0  0  0  0  0
    3.4550    0.7060    0.4000 C   0  0  0  0  0  0  0  0  0  0  0  0
    2.0250    0.7380    0.2410 C   0  0  0  0  0  0  0  0  0  0  0  0
    1.4020   -0.1600   -0.4600 O   0  0  0  0  0  0  0  0  0  0  0  0
    1.1290    1.6510    0.7820 N   0  0  0  0  0  0  0  0  0  0  0  0
   -0.2100    1.4830    0.3450 C   0  0  0  0  0  0  0  0  0  0  0  0
   -1.0380    1.4910    1.2130 N   0  0  0  0  0  0  0  0  0  0  0  0
   -2.4190    1.3330    1.0240 C   0  0  0  0  0  0  0  0  0  0  0  0
   -3.1070    1.2060    2.3830 C   0  0  0  0  0  0  0  0  0  0  0  0
   -2.4250    0.1530    3.1690 N   0  0  0  0  0  0  0  0  0  0  0  0
   -3.0410    1.1770   -0.0860 C   0  0  0  0  0  0  0  0  0  0  0  0
   -4.4980    1.0130   -0.1610 C   0  0  0  0  0  0  0  0  0  0  0  0
   -5.2050    2.1650   -0.8040 C   0  0  0  0  0  0  0  0  0  0  0  0
   -6.6090    2.0330   -0.9730 N   0  0  0  0  0  0  0  0  0  0  0  0
   -4.6530    3.2050   -1.1900 O   0  0  0  0  0  0  0  0  0  0  0  0
   -2.3710    1.1890   -1.4270 C   0  0  2  0  0  0  0  0  0  0  0  0
   -2.4430   -0.0950   -2.1540 C   0  0  0  0  0  0  0  0  0  0  0  0
   -1.8570   -1.2960   -1.5060 C   0  0  0  0  0  0  0  0  0  0  0  0
   -2.0820   -2.3720   -2.4100 O   0  0  0  0  0  0  0  0  0  0  0  0
   -0.7580    1.9270   -1.3690 S   0  0  0  0  0  0  0  0  0  0  0  0
    5.4660   -0.5620    0.0800 C   0  0  0  0  0  0  0  0  0  0  0  0
    5.8340   -1.9640    0.5060 C   0  0  0  0  0  0  0  0  0  0  0  0
    4.5330   -2.6160    0.8010 C   0  0  0  0  0  0  0  0  0  0  0  0
    3.4590   -1.6690    0.6220 N   0  0  0  0  0  0  0  0  0  0  0  0
  2  1  1  6
  2  3  1  0
  2 22  1  0
  2 25  1  0
  3  4  1  0
  4  5  2  0
  4  6  1  0
  6  7  1  0
  7  8  2  0
  7 21  1  0
  8  9  1  0
  9 10  1  0
  9 12  2  0
 10 11  1  0
 12 13  1  0
 12 17  1  0
 13 14  1  0
 14 15  1  0
 14 16  2  0
 17 18  1  1
 17 21  1  0
 18 19  1  0
 19 20  1  0
 22 23  1  0
 23 24  1  0
 24 25  1  0
M  CHG  2  11   1  25   1
M  END
