
     RDKit          3D

 16 17  0  0  0  0  0  0  0  0999 V2000
    1.4790    1.6930   -2.1600 O   0  0  0  0  0  0  0  0  0  0  0  0
    2.0130    1.1110   -1.1730 C   0  0  0  0  0  0  0  0  0  0  0  0
    3.4270    1.2710   -0.9430 N   0  0  0  0  0  0  0  0  0  0  0  0
    4.0760    0.6210    0.1760 C   0  0  0  0  0  0  0  0  0  0  0  0
    3.1760   -0.1790    1.0050 C   0  0  0  0  0  0  0  0  0  0  0  0
    1.8900   -0.3110    0.7770 C   0  0  0  0  0  0  0  0  0  0  0  0
    1.2170    0.3090   -0.3070 N   0  0  0  0  0  0  0  0  0  0  0  0
   -0.1710    0.1720   -0.5610 C   0  0  2  0  0  0  0  0  0  0  0  0
   -0.9700    0.6450    0.5040 O   0  0  0  0  0  0  0  0  0  0  0  0
   -2.2360    0.3340    0.0080 C   0  0  2  0  0  0  0  0  0  0  0  0
   -3.3300    0.6380    0.9940 C   0  0  0  0  0  0  0  0  0  0  0  0
   -3.2130   -0.0510    2.1720 O   0  0  0  0  0  0  0  0  0  0  0  0
   -2.0960   -1.1610   -0.2350 C   0  0  1  0  0  0  0  0  0  0  0  0
   -2.9570   -1.6160   -1.2210 O   0  0  0  0  0  0  0  0  0  0  0  0
   -0.6510   -1.2420   -0.7040 C   0  0  1  0  0  0  0  0  0  0  0  0
   -0.6230   -1.5570   -2.0650 O   0  0  0  0  0  0  0  0  0  0  0  0
  1  2  2  0
  2  3  1  0
  2  7  1  0
  3  4  1  0
  4  5  1  0
  5  6  2  0
  6  7  1  0
  8  7  1  1
  8  9  1  0
  8 15  1  0
  9 10  1  0
 10 11  1  1
 10 13  1  0
 11 12  1  0
 13 14  1  6
 13 15  1  0
 15 16  1  6
M  END
