
     RDKit          3D

 26 28  0  0  0  0  0  0  0  0999 V2000
    5.8880   -0.3200   -0.0670 C   0  0  0  0  0  0  0  0  0  0  0  0
    4.5750   -0.5380    0.6820 C   0  0  0  0  0  0  0  0  0  0  0  0
    3.5480   -0.9320   -0.3320 C   0  0  1  0  0  0  0  0  0  0  0  0
    4.0020   -2.1540   -0.9720 N   0  0  0  0  0  0  0  0  0  0  0  0
    2.1910   -1.1930    0.2410 C   0  0  0  0  0  0  0  0  0  0  0  0
    1.6360   -0.0350    0.9160 N   0  0  2  0  0  0  0  0  0  0  0  0
    0.3920   -0.4190    1.5510 C   0  0  0  0  0  0  0  0  0  0  0  0
   -0.5970   -0.0280    0.5060 C   0  0  0  0  0  0  0  0  0  0  0  0
   -1.8150   -0.5300    0.4350 C   0  0  0  0  0  0  0  0  0  0  0  0
   -2.4370   -1.7430    1.5830 S   0  0  0  0  0  0  0  0  0  0  0  0
   -3.7260   -2.7380    0.8630 C   0  0  0  0  0  0  0  0  0  0  0  0
   -5.0290   -2.4500    0.9050 N   0  0  0  0  0  0  0  0  0  0  0  0
   -5.7270   -3.4090    0.2650 C   0  0  0  0  0  0  0  0  0  0  0  0
   -6.9640   -3.4300    0.1300 O   0  0  0  0  0  0  0  0  0  0  0  0
   -4.8060   -4.3030   -0.1740 N   0  0  0  0  0  0  0  0  0  0  0  0
   -3.6010   -3.8920    0.1900 N   0  0  0  0  0  0  0  0  0  0  0  0
    0.0720    0.9390   -0.3160 C   0  0  0  0  0  0  0  0  0  0  0  0
   -0.5560    1.8340   -1.2970 C   0  0  2  0  0  0  0  0  0  0  0  0
    0.4120    2.6220   -1.9610 O   0  0  0  0  0  0  0  0  0  0  0  0
   -1.5410    2.7600   -0.7390 C   0  0  0  0  0  0  0  0  0  0  0  0
   -1.8770    2.8620    0.5330 C   0  0  0  0  0  0  0  0  0  0  0  0
   -2.8810    3.8170    1.0440 C   0  0  0  0  0  0  0  0  0  0  0  0
   -3.4480    4.6280    0.0560 O   0  0  0  0  0  0  0  0  0  0  0  0
   -3.1230    4.5500   -1.2770 C   0  0  0  0  0  0  0  0  0  0  0  0
   -2.2210    3.6690   -1.6600 C   0  0  0  0  0  0  0  0  0  0  0  0
    1.3310    0.9120   -0.0620 N   0  0  0  0  0  0  0  0  0  0  0  0
  1  2  1  0
  2  3  1  0
  3  4  1  1
  3  5  1  0
  6  5  1  6
  6  7  1  0
  6 26  1  0
  7  8  1  0
  8  9  2  3
  8 17  1  0
  9 10  1  0
 10 11  1  0
 11 12  2  0
 11 16  1  0
 12 13  1  0
 13 14  2  0
 13 15  1  0
 15 16  1  0
 17 18  1  0
 17 26  2  0
 18 19  1  1
 18 20  1  0
 20 21  2  0
 20 25  1  0
 21 22  1  0
 22 23  1  0
 23 24  1  0
 24 25  2  0
M  CHG  2   4   1   6   1
M  END
