
     RDKit          3D

 26 27  0  0  0  0  0  0  0  0999 V2000
   -1.4090    4.9730    1.1770 C   0  0  0  0  0  0  0  0  0  0  0  0
   -2.1890    3.4110    1.6310 S   0  0  0  0  0  0  0  0  0  0  0  0
   -1.3680    2.0340    0.8300 C   0  0  2  0  0  0  0  0  0  0  0  0
   -1.5300    2.0460   -0.6500 C   0  0  0  0  0  0  0  0  0  0  0  0
   -1.6360    0.6090   -1.0390 C   0  0  0  0  0  0  0  0  0  0  0  0
   -1.4140   -0.2340    0.1500 C   0  0  2  0  0  0  0  0  0  0  0  0
   -0.1110   -0.3870    0.6990 N   0  0  0  0  0  0  0  0  0  0  0  0
    1.1150   -0.6050    0.0630 C   0  0  0  0  0  0  0  0  0  0  0  0
    1.9480   -1.7350    0.4160 N   0  0  0  0  0  0  0  0  0  0  0  0
    1.5010    0.1920   -0.8300 N   0  0  0  0  0  0  0  0  0  0  0  0
    2.7730   -0.0740   -1.4640 C   0  0  0  0  0  0  0  0  0  0  0  0
    3.9110    0.2380   -0.5040 C   0  0  0  0  0  0  0  0  0  0  0  0
    3.8830    1.6910   -0.0850 C   0  0  0  0  0  0  0  0  0  0  0  0
    5.0230    1.9480    0.8610 C   0  0  0  0  0  0  0  0  0  0  0  0
    6.2480    1.6840    0.2790 O   0  0  0  0  0  0  0  0  0  0  0  0
   -2.1470   -1.5300    0.0260 C   0  0  0  0  0  0  0  0  0  0  0  0
   -1.7890   -2.5690   -0.8000 C   0  0  0  0  0  0  0  0  0  0  0  0
   -0.8270   -2.7420   -1.8480 C   0  0  0  0  0  0  0  0  0  0  0  0
   -0.7860   -4.0340   -2.5150 N   0  0  0  0  0  0  0  0  0  0  0  0
   -0.0230   -1.9480   -2.2670 O   0  0  0  0  0  0  0  0  0  0  0  0
   -2.6570   -3.6290   -0.5000 N   0  0  0  0  0  0  0  0  0  0  0  0
   -3.4850   -3.2540    0.4380 C   0  0  0  0  0  0  0  0  0  0  0  0
   -4.4930   -4.0310    0.9980 O   0  0  0  0  0  0  0  0  0  0  0  0
   -3.1780   -1.9520    0.7720 N   0  0  0  0  0  0  0  0  0  0  0  0
   -3.8960   -1.2280    1.7860 C   0  0  0  0  0  0  0  0  0  0  0  0
   -2.1030    0.6850    1.2080 C   0  0  0  0  0  0  0  0  0  0  0  0
  1  2  1  0
  3  2  1  1
  3  4  1  0
  3 26  1  0
  4  5  1  0
  5  6  1  0
  6  7  1  1
  6 16  1  0
  6 26  1  0
  7  8  1  0
  8  9  1  0
  8 10  2  3
 10 11  1  0
 11 12  1  0
 12 13  1  0
 13 14  1  0
 14 15  1  0
 16 17  2  0
 16 24  1  0
 17 18  1  0
 17 21  1  0
 18 19  1  0
 18 20  2  0
 21 22  2  0
 22 23  1  0
 22 24  1  0
 24 25  1  0
M  CHG  2  10   1  19   1
M  END
