
     RDKit          3D

 17 19  0  0  0  0  0  0  0  0999 V2000
    3.9240    1.0940    2.1980 C   0  0  0  0  0  0  0  0  0  0  0  0
    4.0220    0.9210    0.8040 O   0  0  0  0  0  0  0  0  0  0  0  0
    2.9670    0.3590    0.0580 C   0  0  0  0  0  0  0  0  0  0  0  0
    3.0890    0.2000   -1.3060 C   0  0  0  0  0  0  0  0  0  0  0  0
    2.0750   -0.3460   -2.0640 C   0  0  0  0  0  0  0  0  0  0  0  0
    0.9290   -0.7300   -1.4100 C   0  0  0  0  0  0  0  0  0  0  0  0
    0.8240   -0.5630   -0.0410 C   0  0  0  0  0  0  0  0  0  0  0  0
    1.8240   -0.0340    0.6460 N   0  0  0  0  0  0  0  0  0  0  0  0
   -0.4610   -1.0140    0.5680 C   0  0  1  0  0  0  0  0  0  0  0  0
   -0.5920   -0.6430    1.9360 N   0  0  0  0  0  0  0  0  0  0  0  0
   -1.5660   -0.4540   -0.3100 C   0  0  2  0  0  0  0  0  0  0  0  0
   -1.5290    1.0480   -0.3540 C   0  0  0  0  0  0  0  0  0  0  0  0
   -2.7320    1.4670    0.4500 C   0  0  0  0  0  0  0  0  0  0  0  0
   -3.5560    0.2130    0.4750 C   0  0  0  0  0  0  0  0  0  0  0  0
   -2.7620   -0.8520    0.2180 O   0  0  0  0  0  0  0  0  0  0  0  0
   -1.4330   -0.9770   -1.6970 C   0  0  0  0  0  0  0  0  0  0  0  0
   -0.1310   -1.2910   -2.1360 N   0  0  0  0  0  0  0  0  0  0  0  0
  1  2  1  0
  2  3  1  0
  3  4  2  0
  3  8  1  0
  4  5  1  0
  5  6  2  0
  6  7  1  0
  6 17  1  0
  7  8  2  0
  7  9  1  0
  9 10  1  1
  9 11  1  0
 11 12  1  6
 11 15  1  0
 11 16  1  0
 12 13  1  0
 13 14  1  0
 14 15  1  0
 16 17  1  0
M  CHG  2  10   1  17   1
M  END
