
     RDKit          3D

 17 19  0  0  0  0  0  0  0  0999 V2000
   -0.7070    0.9210    3.2370 N   0  0  0  0  0  0  0  0  0  0  0  0
    0.0310    0.7110    2.2130 C   0  0  0  0  0  0  0  0  0  0  0  0
   -0.5370    0.8600    0.8370 C   0  0  0  0  0  0  0  0  0  0  0  0
   -1.8020    1.2110    0.6480 C   0  0  0  0  0  0  0  0  0  0  0  0
   -2.7840    1.4960    1.6660 N   0  0  0  0  0  0  0  0  0  0  0  0
   -2.0540    1.2050   -0.7860 C   0  0  0  0  0  0  0  0  0  0  0  0
   -0.9880    0.8660   -1.4380 C   0  0  0  0  0  0  0  0  0  0  0  0
   -0.2560    0.5830   -2.7090 C   0  0  0  0  0  0  0  0  0  0  0  0
   -0.6840    1.0070   -3.8090 O   0  0  0  0  0  0  0  0  0  0  0  0
    0.9430   -0.2200   -2.3750 C   0  0  0  0  0  0  0  0  0  0  0  0
    0.7250   -0.5080   -0.9220 C   0  0  2  0  0  0  0  0  0  0  0  0
    2.1090   -0.5890   -0.3060 C   0  0  0  0  0  0  0  0  0  0  0  0
    2.0660   -1.5780    0.7190 N   0  0  0  0  0  0  0  0  0  0  0  0
    0.7420   -2.1510    0.7140 C   0  0  0  0  0  0  0  0  0  0  0  0
    0.2900   -2.8220    1.6700 O   0  0  0  0  0  0  0  0  0  0  0  0
    0.1080   -1.7820   -0.5810 C   0  0  0  0  0  0  0  0  0  0  0  0
    0.0920    0.7290   -0.4230 C   0  0  2  0  0  0  0  0  0  0  0  0
  1  2  2  0
  2  3  1  0
  3  4  2  0
 17  3  1  1
  4  5  1  0
  4  6  1  0
  6  7  2  0
  7  8  1  0
  7 17  1  0
  8  9  2  0
  8 10  1  0
 11 10  1  6
 11 12  1  0
 11 16  1  0
 11 17  1  0
 12 13  1  0
 13 14  1  0
 14 15  2  0
 14 16  1  0
M  END
