
     RDKit          3D

 17 18  0  0  0  0  0  0  0  0999 V2000
    3.5510   -2.1940    0.7310 N   0  0  0  0  0  0  0  0  0  0  0  0
    2.3640   -1.8770    0.4110 C   0  0  0  0  0  0  0  0  0  0  0  0
    1.2230   -2.8230    0.3630 C   0  0  0  0  0  0  0  0  0  0  0  0
    0.0690   -2.1960    1.0800 C   0  0  0  0  0  0  0  0  0  0  0  0
   -0.3370   -0.8750    0.6140 N   0  0  0  0  0  0  0  0  0  0  0  0
   -1.6480   -1.0190    0.0890 C   0  0  0  0  0  0  0  0  0  0  0  0
   -2.4990    0.1130   -0.1930 C   0  0  1  0  0  0  0  0  0  0  0  0
   -3.7520   -0.2710   -0.7560 O   0  0  0  0  0  0  0  0  0  0  0  0
   -2.9340    0.9500    1.0190 C   0  0  0  0  0  0  0  0  0  0  0  0
   -3.6420    2.0800    0.2540 C   0  0  0  0  0  0  0  0  0  0  0  0
   -3.2050    2.0380   -1.0620 O   0  0  0  0  0  0  0  0  0  0  0  0
   -2.0200    1.2540   -1.0380 C   0  0  0  0  0  0  0  0  0  0  0  0
    0.5820   -0.4220   -0.4450 C   0  0  0  0  0  0  0  0  0  0  0  0
    1.9960   -0.5100    0.0500 C   0  0  0  0  0  0  0  0  0  0  0  0
    2.8350    0.4680    0.1680 C   0  0  0  0  0  0  0  0  0  0  0  0
    2.5840    1.8780   -0.1600 C   0  0  0  0  0  0  0  0  0  0  0  0
    3.5420    2.2710   -1.1980 N   0  0  0  0  0  0  0  0  0  0  0  0
  1  2  2  0
  2  3  1  0
  2 14  1  0
  3  4  1  0
  4  5  1  0
  5  6  1  0
  5 13  1  0
  6  7  1  0
  7  8  1  6
  7  9  1  0
  7 12  1  0
  9 10  1  0
 10 11  1  0
 11 12  1  0
 13 14  1  0
 14 15  2  3
 15 16  1  0
 16 17  1  0
M  CHG  1  17   1
M  END
