
     RDKit          3D

 27 29  0  0  0  0  0  0  0  0999 V2000
    5.8400   -4.4750   -0.5260 C   0  0  0  0  0  0  0  0  0  0  0  0
    5.6770   -2.9790   -0.4930 C   0  0  0  0  0  0  0  0  0  0  0  0
    4.2940   -2.6000   -0.4080 N   0  0  0  0  0  0  0  0  0  0  0  0
    3.8330   -1.2770   -0.3610 C   0  0  0  0  0  0  0  0  0  0  0  0
    4.6590   -0.3300   -0.3940 O   0  0  0  0  0  0  0  0  0  0  0  0
    2.4010   -0.9790   -0.2740 C   0  0  0  0  0  0  0  0  0  0  0  0
    1.9830    0.2750   -0.2300 C   0  0  0  0  0  0  0  0  0  0  0  0
    0.5530    0.5390   -0.1440 C   0  0  0  0  0  0  0  0  0  0  0  0
   -0.2490   -0.4590   -0.1120 N   0  0  0  0  0  0  0  0  0  0  0  0
   -1.6650   -0.3210   -0.0280 C   0  0  0  0  0  0  0  0  0  0  0  0
   -2.4360   -1.3840    0.0000 C   0  0  0  0  0  0  0  0  0  0  0  0
   -1.8960   -2.7570   -0.0520 C   0  0  0  0  0  0  0  0  0  0  0  0
   -0.6850   -3.0430   -0.1260 O   0  0  0  0  0  0  0  0  0  0  0  0
   -2.9930   -3.6050   -0.0010 O   0  0  0  0  0  0  0  0  0  0  0  0
   -4.1240   -2.8470    0.0760 C   0  0  0  0  0  0  0  0  0  0  0  0
   -5.4990   -3.4300    0.1460 C   0  0  0  0  0  0  0  0  0  0  0  0
   -3.8610   -1.5350    0.0800 C   0  0  0  0  0  0  0  0  0  0  0  0
   -4.9050   -0.4710    0.1560 C   0  0  0  0  0  0  0  0  0  0  0  0
   -2.1590    1.0040    0.0200 N   0  0  0  0  0  0  0  0  0  0  0  0
   -1.2870    2.1500   -0.0130 C   0  0  0  0  0  0  0  0  0  0  0  0
   -1.8250    3.4410    0.0380 C   0  0  0  0  0  0  0  0  0  0  0  0
   -0.9570    4.5130    0.0040 C   0  0  0  0  0  0  0  0  0  0  0  0
    0.3980    4.2850   -0.0780 C   0  0  0  0  0  0  0  0  0  0  0  0
    1.2610    5.3640   -0.1110 O   0  0  0  0  0  0  0  0  0  0  0  0
    0.8630    6.6990   -0.0680 C   0  0  0  0  0  0  0  0  0  0  0  0
    0.9250    2.9840   -0.1280 C   0  0  0  0  0  0  0  0  0  0  0  0
    0.0650    1.9100   -0.0940 C   0  0  0  0  0  0  0  0  0  0  0  0
  1  2  1  0
  2  3  1  0
  3  4  1  0
  4  5  2  0
  4  6  1  0
  6  7  2  3
  7  8  1  0
  8  9  2  0
  8 27  1  0
  9 10  1  0
 10 11  2  3
 10 19  1  0
 11 12  1  0
 11 17  1  0
 12 13  2  0
 12 14  1  0
 14 15  1  0
 15 16  1  0
 15 17  2  0
 17 18  1  0
 19 20  1  0
 20 21  2  0
 20 27  1  0
 21 22  1  0
 22 23  2  0
 23 24  1  0
 23 26  1  0
 24 25  1  0
 26 27  2  0
M  END
