
     RDKit          3D

 17 19  0  0  0  0  0  0  0  0999 V2000
    2.3640    1.7350    0.0180 N   0  0  0  0  0  0  0  0  0  0  0  0
    1.7160    0.8980   -0.9040 C   0  0  1  0  0  0  0  0  0  0  0  0
    2.7770    0.2140   -1.8760 C   0  0  0  0  0  0  0  0  0  0  0  0
    3.0320   -0.5870   -0.6890 C   0  0  2  0  0  0  0  0  0  0  0  0
    3.5530   -1.9040   -0.5550 C   0  0  0  0  0  0  0  0  0  0  0  0
    2.8350   -2.9430   -0.1100 C   0  0  0  0  0  0  0  0  0  0  0  0
    1.5390   -2.7240    0.1960 O   0  0  0  0  0  0  0  0  0  0  0  0
    0.8540   -1.5070    0.0540 C   0  0  0  0  0  0  0  0  0  0  0  0
   -0.5120   -1.4850    0.4610 C   0  0  0  0  0  0  0  0  0  0  0  0
   -0.9540   -2.6490    0.8850 O   0  0  0  0  0  0  0  0  0  0  0  0
   -1.4250   -0.4470    0.4780 N   0  0  0  0  0  0  0  0  0  0  0  0
   -1.2680    0.9260    0.1290 C   0  0  0  0  0  0  0  0  0  0  0  0
   -2.5130    1.6890    0.6100 C   0  0  0  0  0  0  0  0  0  0  0  0
   -3.7220    1.2210    0.0180 N   0  0  0  0  0  0  0  0  0  0  0  0
   -3.7220   -0.2340   -0.1470 C   0  0  0  0  0  0  0  0  0  0  0  0
   -2.8180   -0.7790    0.9250 C   0  0  0  0  0  0  0  0  0  0  0  0
    1.5100   -0.4900   -0.4350 C   0  0  0  0  0  0  0  0  0  0  0  0
  2  1  1  1
  2  3  1  0
  2 17  1  0
  4  3  1  6
  4  5  1  0
  4 17  1  0
  5  6  2  0
  6  7  1  0
  7  8  1  0
  8  9  1  0
  8 17  2  0
  9 10  2  0
  9 11  1  0
 11 12  1  0
 11 16  1  0
 12 13  1  0
 13 14  1  0
 14 15  1  0
 15 16  1  0
M  CHG  2   1   1  14   1
M  END
