
     RDKit          3D

 17 18  0  0  0  0  0  0  0  0999 V2000
   -2.6160    2.2160    0.6340 C   0  0  0  0  0  0  0  0  0  0  0  0
   -1.4650    1.6470    0.4140 C   0  0  0  0  0  0  0  0  0  0  0  0
   -0.2860    2.3610    0.8890 N   0  0  0  0  0  0  0  0  0  0  0  0
    0.9630    1.7390    0.7360 C   0  0  0  0  0  0  0  0  0  0  0  0
    1.1330    0.5480    0.1920 C   0  0  0  0  0  0  0  0  0  0  0  0
    2.4860    0.0160    0.0900 C   0  0  0  0  0  0  0  0  0  0  0  0
    3.5680    0.6470    0.5150 C   0  0  0  0  0  0  0  0  0  0  0  0
    4.9060   -0.0260    0.3420 C   0  0  0  0  0  0  0  0  0  0  0  0
    5.4320   -0.1720    1.6310 O   0  0  0  0  0  0  0  0  0  0  0  0
    2.5970   -1.2420   -0.5030 O   0  0  0  0  0  0  0  0  0  0  0  0
    1.5130   -2.1020   -0.4110 C   0  0  0  0  0  0  0  0  0  0  0  0
    0.1960   -1.5010   -0.8360 C   0  0  0  0  0  0  0  0  0  0  0  0
    0.0210   -0.1840   -0.2840 N   0  0  0  0  0  0  0  0  0  0  0  0
   -1.3470    0.3520   -0.1940 C   0  0  0  0  0  0  0  0  0  0  0  0
   -2.3070   -0.2890   -0.7540 C   0  0  0  0  0  0  0  0  0  0  0  0
   -3.7090   -0.0960   -1.0270 C   0  0  0  0  0  0  0  0  0  0  0  0
   -4.6030   -1.0480   -0.3580 N   0  0  0  0  0  0  0  0  0  0  0  0
  1  2  2  0
  2  3  1  0
  2 14  1  0
  3  4  1  0
  4  5  2  0
  5  6  1  0
  5 13  1  0
  6  7  2  3
  6 10  1  0
  7  8  1  0
  8  9  1  0
 10 11  1  0
 11 12  1  0
 12 13  1  0
 13 14  1  0
 14 15  2  3
 15 16  1  0
 16 17  1  0
M  CHG  1  17   1
M  END
