
     RDKit          3D

 17 18  0  0  0  0  0  0  0  0999 V2000
   -4.1600   -0.1650   -0.0440 C   0  0  0  0  0  0  0  0  0  0  0  0
   -2.7110    0.1400   -0.3240 C   0  0  2  0  0  0  0  0  0  0  0  0
   -2.5590    0.3570   -1.8010 C   0  0  0  0  0  0  0  0  0  0  0  0
   -1.7970   -0.9940    0.0810 C   0  0  0  0  0  0  0  0  0  0  0  0
   -0.5600   -0.2990    0.3630 N   0  0  0  0  0  0  0  0  0  0  0  0
    0.7210   -0.9020    0.2320 C   0  0  0  0  0  0  0  0  0  0  0  0
    0.7970   -2.1480   -0.0710 N   0  0  0  0  0  0  0  0  0  0  0  0
    2.0040   -0.1870    0.4250 C   0  0  0  0  0  0  0  0  0  0  0  0
    3.0030   -0.6170   -0.2850 C   0  0  0  0  0  0  0  0  0  0  0  0
    2.7910   -1.6950   -1.1470 O   0  0  0  0  0  0  0  0  0  0  0  0
    4.3490   -0.0500   -0.2510 C   0  0  0  0  0  0  0  0  0  0  0  0
    5.2990   -0.9950    0.1490 O   0  0  0  0  0  0  0  0  0  0  0  0
    2.2190    0.9230    1.3520 C   0  0  0  0  0  0  0  0  0  0  0  0
    1.2950    1.8060    1.7290 C   0  0  0  0  0  0  0  0  0  0  0  0
   -0.1080    1.9140    1.3510 C   0  0  0  0  0  0  0  0  0  0  0  0
   -0.9180    1.0280    0.7680 C   0  0  0  0  0  0  0  0  0  0  0  0
   -2.2840    1.2780    0.4580 N   0  0  0  0  0  0  0  0  0  0  0  0
  2  1  1  6
  2  3  1  0
  2  4  1  0
  2 17  1  0
  4  5  1  0
  5  6  1  0
  5 16  1  0
  6  7  2  0
  6  8  1  0
  8  9  2  3
  8 13  1  0
  9 10  1  0
  9 11  1  0
 11 12  1  0
 13 14  2  0
 14 15  1  0
 15 16  2  0
 16 17  1  0
M  END
