
     RDKit          3D

 21 22  0  0  0  0  0  0  0  0999 V2000
    3.0690   -0.5010   -1.9360 C   0  0  0  0  0  0  0  0  0  0  0  0
    3.4130   -0.7410   -0.5660 N   0  0  0  0  0  0  0  0  0  0  0  0
    4.7860   -1.0640   -0.2370 C   0  0  0  0  0  0  0  0  0  0  0  0
    5.8080    0.4220    0.1290 P   0  0  0  0  0  0  0  0  0  0  0  0
    5.0940    1.8870   -0.4430 O   0  0  0  0  0  0  0  0  0  0  0  0
    7.4420    0.2380   -0.3610 O   0  0  0  0  0  0  0  0  0  0  0  0
    2.4320   -0.6690    0.4920 C   0  0  0  0  0  0  0  0  0  0  0  0
    2.8160   -0.8920    1.6500 O   0  0  0  0  0  0  0  0  0  0  0  0
    1.1110   -0.3530    0.1590 N   0  0  0  0  0  0  0  0  0  0  0  0
    0.0400   -0.2550    1.1660 C   0  0  0  0  0  0  0  0  0  0  0  0
    0.3740   -0.4750    2.4650 C   0  0  0  0  0  0  0  0  0  0  0  0
   -1.2760   -0.2320    3.3200 S   0  0  0  0  0  0  0  0  0  0  0  0
   -2.1670    0.1230    1.8490 C   0  0  0  0  0  0  0  0  0  0  0  0
   -1.2490    0.0490    0.8450 C   0  0  0  0  0  0  0  0  0  0  0  0
   -1.9750    0.3420   -0.3740 O   0  0  0  0  0  0  0  0  0  0  0  0
   -3.2790   -0.0770   -0.1340 C   0  0  2  0  0  0  0  0  0  0  0  0
   -3.2490   -1.6040   -0.0010 C   0  0  0  0  0  0  0  0  0  0  0  0
   -4.2690    0.2680   -1.1550 C   0  0  0  0  0  0  0  0  0  0  0  0
   -4.4780    1.7120   -1.4450 C   0  0  0  0  0  0  0  0  0  0  0  0
   -4.8980    2.4740   -0.3850 O   0  0  0  0  0  0  0  0  0  0  0  0
   -3.5290    0.4660    1.2450 C   0  0  0  0  0  0  0  0  0  0  0  0
  1  2  1  0
  2  3  1  0
  2  7  1  0
  3  4  1  0
  4  5  1  0
  4  6  1  0
  7  8  2  0
  7  9  1  0
  9 10  1  0
 10 11  2  0
 10 14  1  0
 11 12  1  0
 12 13  1  0
 13 14  2  0
 13 21  1  0
 14 15  1  0
 15 16  1  0
 16 17  1  1
 16 18  1  0
 16 21  1  0
 18 19  1  0
 19 20  1  0
M  END
