
     RDKit          3D

 16 16  0  0  0  0  0  0  0  0999 V2000
   -4.2270    1.7100   -0.9800 N   0  0  0  0  0  0  0  0  0  0  0  0
   -3.7400    0.5770   -0.2340 C   0  0  0  0  0  0  0  0  0  0  0  0
   -4.6600   -0.1400    0.5020 C   0  0  0  0  0  0  0  0  0  0  0  0
   -4.2690   -1.2410    1.2450 C   0  0  0  0  0  0  0  0  0  0  0  0
   -2.9370   -1.5940    1.2250 C   0  0  0  0  0  0  0  0  0  0  0  0
   -2.0090   -0.8610    0.4760 C   0  0  0  0  0  0  0  0  0  0  0  0
   -2.4030    0.2330   -0.2620 C   0  0  0  0  0  0  0  0  0  0  0  0
   -1.3300    1.2410   -1.2340 S   0  0  0  0  0  0  0  0  0  0  0  0
    0.4010    0.8030   -1.1600 C   0  0  0  0  0  0  0  0  0  0  0  0
    0.9130    1.1190    0.2280 C   0  0  0  0  0  0  0  0  0  0  0  0
    2.3820    0.7800    0.4070 C   0  0  0  0  0  0  0  0  0  0  0  0
    2.6120   -0.6770    0.1740 C   0  0  0  0  0  0  0  0  0  0  0  0
    4.3850   -0.9990    0.4100 P   0  0  2  0  0  0  0  0  0  0  0  0
    4.7150   -1.2820    1.8540 O   0  0  0  0  0  0  0  0  0  0  0  0
    5.2400    0.3790   -0.0600 O   0  0  0  0  0  0  0  0  0  0  0  0
    4.8020   -2.3460   -0.5050 O   0  0  0  0  0  0  0  0  0  0  0  0
  1  2  1  0
  2  3  2  0
  2  7  1  0
  3  4  1  0
  4  5  2  0
  5  6  1  0
  6  7  2  0
  7  8  1  0
  8  9  1  0
  9 10  1  0
 10 11  1  0
 11 12  1  0
 12 13  1  0
 13 14  2  0
 13 15  1  6
 13 16  1  0
M  END
