
     RDKit          3D

 21 23  0  0  0  0  0  0  0  0999 V2000
   -6.0190   -1.2920    1.7860 O   0  0  0  0  0  0  0  0  0  0  0  0
   -5.0830   -1.1410    0.6480 S   0  0  1  0  0  0  0  0  0  0  0  0
   -5.1620   -2.3230   -0.3030 O   0  0  0  0  0  0  0  0  0  0  0  0
   -5.3960    0.3780   -0.2630 C   0  0  0  0  0  0  0  0  0  0  0  0
   -4.2970    0.5750   -1.1060 O   0  0  0  0  0  0  0  0  0  0  0  0
   -2.9680    0.4090   -0.7630 C   0  0  0  0  0  0  0  0  0  0  0  0
   -2.0740    1.0580   -1.5630 N   0  0  0  0  0  0  0  0  0  0  0  0
   -0.7480    1.0060   -1.3740 C   0  0  0  0  0  0  0  0  0  0  0  0
   -0.2710    0.2550   -0.3130 C   0  0  0  0  0  0  0  0  0  0  0  0
    1.1710    0.2120   -0.1260 C   0  0  0  0  0  0  0  0  0  0  0  0
    1.6800    0.0800    1.1440 C   0  0  0  0  0  0  0  0  0  0  0  0
    3.0270    0.0330    1.3850 C   0  0  0  0  0  0  0  0  0  0  0  0
    3.9080    0.1190    0.3310 C   0  0  0  0  0  0  0  0  0  0  0  0
    5.6910    0.0520    0.6900 P   0  0  0  0  0  0  0  0  0  0  0  0
    6.1610    1.5770    1.3930 O   0  0  0  0  0  0  0  0  0  0  0  0
    6.0200   -1.2630    1.7770 O   0  0  0  0  0  0  0  0  0  0  0  0
    3.3950    0.2500   -0.9380 C   0  0  0  0  0  0  0  0  0  0  0  0
    2.0510    0.2980   -1.1830 C   0  0  0  0  0  0  0  0  0  0  0  0
   -1.1720   -0.4050    0.5020 C   0  0  0  0  0  0  0  0  0  0  0  0
   -2.5370   -0.3420    0.2950 C   0  0  0  0  0  0  0  0  0  0  0  0
   -3.4340   -1.0330    1.1510 N   0  0  0  0  0  0  0  0  0  0  0  0
  1  2  2  0
  2  3  2  0
  2  4  1  6
  2 21  1  0
  4  5  1  0
  5  6  1  0
  6  7  2  0
  6 20  1  0
  7  8  1  0
  8  9  2  0
  9 10  1  0
  9 19  1  0
 10 11  2  0
 10 18  1  0
 11 12  1  0
 12 13  2  0
 13 14  1  0
 13 17  1  0
 14 15  1  0
 14 16  1  0
 17 18  2  0
 19 20  2  0
 20 21  1  0
M  END
