
     RDKit          3D

 21 22  0  0  0  0  0  0  0  0999 V2000
    6.4360   -0.6890   -1.2890 C   0  0  0  0  0  0  0  0  0  0  0  0
    5.4790    0.4100   -0.8710 C   0  0  0  0  0  0  0  0  0  0  0  0
    5.1880    0.2110    0.6080 C   0  0  0  0  0  0  0  0  0  0  0  0
    4.2330    1.2670    1.1260 C   0  0  0  0  0  0  0  0  0  0  0  0
    2.6130    1.2270    0.2380 P   0  0  0  0  0  0  0  0  0  0  0  0
    1.8500    2.7820    0.2170 O   0  0  0  0  0  0  0  0  0  0  0  0
    1.4960   -0.0420    0.9290 C   0  0  0  0  0  0  0  0  0  0  0  0
    1.1190   -0.2800    2.1670 C   0  0  0  0  0  0  0  0  0  0  0  0
    0.2120   -1.4110    2.2220 N   0  0  0  0  0  0  0  0  0  0  0  0
   -0.4780   -1.4950    0.6800 S   0  0  0  0  0  0  0  0  0  0  0  0
   -0.2090   -2.7820   -0.2820 O   0  0  0  0  0  0  0  0  0  0  0  0
   -1.6720   -2.2630    1.1860 O   0  0  0  0  0  0  0  0  0  0  0  0
   -1.3470   -0.1720    0.1440 C   0  0  0  0  0  0  0  0  0  0  0  0
   -2.7940   -0.1900    0.1910 N   0  0  0  0  0  0  0  0  0  0  0  0
   -3.3880   -1.2360   -0.5800 C   0  0  0  0  0  0  0  0  0  0  0  0
   -4.4730   -0.7020   -1.4970 C   0  0  0  0  0  0  0  0  0  0  0  0
   -5.5150    0.0400   -0.6680 C   0  0  2  0  0  0  0  0  0  0  0  0
   -6.3300    0.7940   -1.5130 O   0  0  0  0  0  0  0  0  0  0  0  0
   -4.8760    0.9460    0.3480 C   0  0  0  0  0  0  0  0  0  0  0  0
   -3.3870    1.0920    0.0040 C   0  0  0  0  0  0  0  0  0  0  0  0
    0.8390   -1.0050    0.1870 O   0  0  0  0  0  0  0  0  0  0  0  0
  1  2  1  0
  2  3  1  0
  3  4  1  0
  4  5  1  0
  5  6  1  0
  5  7  1  0
  7  8  2  0
  7 21  1  0
  8  9  1  0
  9 10  1  0
 10 11  2  0
 10 12  1  0
 10 13  1  0
 10 21  1  0
 13 14  1  0
 14 15  1  0
 14 20  1  0
 15 16  1  0
 16 17  1  0
 17 18  1  6
 17 19  1  0
 19 20  1  0
M  END
