
     RDKit          3D

 20 21  0  0  0  0  0  0  0  0999 V2000
   -0.4470   -3.5540    0.2730 C   0  0  0  0  0  0  0  0  0  0  0  0
   -1.2410   -2.2860    0.4170 C   0  0  0  0  0  0  0  0  0  0  0  0
   -2.5660   -2.3160    0.7920 C   0  0  0  0  0  0  0  0  0  0  0  0
   -2.9780   -1.0060    0.8250 C   0  0  0  0  0  0  0  0  0  0  0  0
   -1.8890   -0.2410    0.4700 C   0  0  0  0  0  0  0  0  0  0  0  0
   -1.9500    1.2600    0.3910 C   0  0  0  0  0  0  0  0  0  0  0  0
   -3.2810    1.7360    0.7350 N   0  0  0  0  0  0  0  0  0  0  0  0
   -3.3780    3.4280    0.6550 S   0  0  1  0  0  0  0  0  0  0  0  0
   -4.4630    3.9190    1.5640 O   0  0  0  0  0  0  0  0  0  0  0  0
   -2.0670    4.1190    0.9050 O   0  0  0  0  0  0  0  0  0  0  0  0
   -0.8210   -1.0290    0.2180 N   0  0  0  0  0  0  0  0  0  0  0  0
    0.4640   -0.6300   -0.1690 C   0  0  0  0  0  0  0  0  0  0  0  0
    0.6700   -0.1990   -1.4770 C   0  0  0  0  0  0  0  0  0  0  0  0
    1.9440    0.1850   -1.8260 C   0  0  0  0  0  0  0  0  0  0  0  0
    2.9860    0.1510   -0.9280 C   0  0  0  0  0  0  0  0  0  0  0  0
    4.6640    0.6710   -1.4330 P   0  0  0  0  0  0  0  0  0  0  0  0
    5.8890   -0.0630   -0.4630 O   0  0  0  0  0  0  0  0  0  0  0  0
    4.8090    2.3940   -1.4430 O   0  0  0  0  0  0  0  0  0  0  0  0
    2.7710   -0.2820    0.3810 C   0  0  0  0  0  0  0  0  0  0  0  0
    1.5000   -0.6710    0.7480 C   0  0  0  0  0  0  0  0  0  0  0  0
  1  2  1  0
  2  3  2  0
  2 11  1  0
  3  4  1  0
  4  5  2  0
  5  6  1  0
  5 11  1  0
  6  7  1  0
  8  7  1  1
  8  9  2  0
  8 10  2  0
 11 12  1  0
 12 13  2  0
 12 20  1  0
 13 14  1  0
 14 15  2  0
 15 16  1  0
 15 19  1  0
 16 17  1  0
 16 18  1  0
 19 20  2  0
M  END
