
     RDKit          3D

 22 22  0  0  0  0  0  0  0  0999 V2000
    2.2320    2.1720   -1.1460 O   0  0  0  0  0  0  0  0  0  0  0  0
    2.6750    1.0730   -0.7030 C   0  0  0  0  0  0  0  0  0  0  0  0
    4.1350    0.7880   -0.7530 C   0  0  0  0  0  0  0  0  0  0  0  0
    4.3410   -0.4790   -0.2040 O   0  0  0  0  0  0  0  0  0  0  0  0
    5.5820   -1.0870   -0.0810 C   0  0  0  0  0  0  0  0  0  0  0  0
    6.5800   -0.4680   -0.4840 O   0  0  0  0  0  0  0  0  0  0  0  0
    5.6490   -2.3520    0.4840 O   0  0  0  0  0  0  0  0  0  0  0  0
    1.7520    0.1640   -0.1770 N   0  0  0  0  0  0  0  0  0  0  0  0
    0.3190    0.4540   -0.1330 C   0  0  0  0  0  0  0  0  0  0  0  0
   -0.2320    0.4620    1.0670 C   0  0  0  0  0  0  0  0  0  0  0  0
   -1.5630    0.7030    1.4390 N   0  0  0  0  0  0  0  0  0  0  0  0
   -2.4470    1.7510    0.9970 C   0  0  0  0  0  0  0  0  0  0  0  0
   -3.6580    1.3190    0.2910 C   0  0  0  0  0  0  0  0  0  0  0  0
   -4.5720    2.1770    0.0920 O   0  0  0  0  0  0  0  0  0  0  0  0
   -3.7770    0.0190   -0.1360 O   0  0  0  0  0  0  0  0  0  0  0  0
   -3.8860   -1.1570    0.5740 C   0  0  0  0  0  0  0  0  0  0  0  0
   -2.7740   -2.1470    0.4200 C   0  0  0  0  0  0  0  0  0  0  0  0
   -1.7680   -1.8040   -0.4390 O   0  0  0  0  0  0  0  0  0  0  0  0
   -2.1890   -0.9170   -1.2960 O   0  0  0  0  0  0  0  0  0  0  0  0
   -1.4610    0.0780   -1.9280 C   0  0  0  0  0  0  0  0  0  0  0  0
   -1.9380    0.3920   -3.0580 O   0  0  0  0  0  0  0  0  0  0  0  0
   -0.3010    0.6920   -1.3810 N   0  0  0  0  0  0  0  0  0  0  0  0
  1  2  2  0
  2  3  1  0
  2  8  1  0
  3  4  1  0
  4  5  1  0
  5  6  2  0
  5  7  1  0
  8  9  1  0
  9 10  2  0
  9 22  1  0
 10 11  1  0
 11 12  1  0
 12 13  1  0
 13 14  2  0
 13 15  1  0
 15 16  1  0
 16 17  1  0
 17 18  1  0
 18 19  1  0
 19 20  1  0
 20 21  2  0
 20 22  1  0
M  END
