
     RDKit          3D

 20 21  0  0  0  0  0  0  0  0999 V2000
    1.0650   -1.4790   -1.5230 N   0  0  0  0  0  0  0  0  0  0  0  0
    1.0200   -0.5480   -0.5620 C   0  0  0  0  0  0  0  0  0  0  0  0
    2.2760   -0.2100    0.0050 C   0  0  0  0  0  0  0  0  0  0  0  0
    2.6930    0.5990    0.9190 C   0  0  0  0  0  0  0  0  0  0  0  0
    4.1730    0.6690    1.2460 C   0  0  0  0  0  0  0  0  0  0  0  0
    5.1580   -0.5010    0.1970 P   0  0  0  0  0  0  0  0  0  0  0  0
    5.1190   -2.0990    0.8080 O   0  0  0  0  0  0  0  0  0  0  0  0
    6.7840    0.0610    0.0250 O   0  0  0  0  0  0  0  0  0  0  0  0
   -0.3210   -0.0700   -0.2950 C   0  0  0  0  0  0  0  0  0  0  0  0
   -0.6630    0.8800    0.6330 C   0  0  0  0  0  0  0  0  0  0  0  0
   -1.9770    1.2930    0.8370 C   0  0  0  0  0  0  0  0  0  0  0  0
   -3.0310    0.7630    0.1070 C   0  0  0  0  0  0  0  0  0  0  0  0
   -2.6760   -0.1800   -0.8110 C   0  0  0  0  0  0  0  0  0  0  0  0
   -1.3990   -0.5970   -1.0260 C   0  0  0  0  0  0  0  0  0  0  0  0
   -4.1890   -0.6870   -1.5920 S   0  0  1  0  0  0  0  0  0  0  0  0
   -4.3740   -0.0240   -2.9030 O   0  0  0  0  0  0  0  0  0  0  0  0
   -4.2860   -2.1680   -1.6350 O   0  0  0  0  0  0  0  0  0  0  0  0
   -5.2880    0.0010   -0.3440 C   0  0  0  0  0  0  0  0  0  0  0  0
   -4.4210    1.0810    0.1990 C   0  0  0  0  0  0  0  0  0  0  0  0
   -4.9660    2.1570    0.6820 N   0  0  0  0  0  0  0  0  0  0  0  0
  1  2  2  0
  2  3  1  0
  2  9  1  0
  3  4  2  3
  4  5  1  0
  5  6  1  0
  6  7  1  0
  6  8  1  0
  9 10  2  0
  9 14  1  0
 10 11  1  0
 11 12  2  0
 12 13  1  0
 12 19  1  0
 13 14  2  0
 13 15  1  0
 15 16  2  0
 15 17  2  0
 15 18  1  1
 18 19  1  0
 19 20  2  0
M  END
