
     RDKit          3D

 31 33  0  0  0  0  0  0  0  0999 V2000
   -5.6380   -2.6750    0.1290 C   0  0  0  0  0  0  0  0  0  0  0  0
   -5.4120   -1.6120    1.1870 C   0  0  1  0  0  0  0  0  0  0  0  0
   -3.9670   -1.5280    1.4010 C   0  0  0  0  0  0  0  0  0  0  0  0
   -3.2310   -2.4180    1.9090 O   0  0  0  0  0  0  0  0  0  0  0  0
   -3.5330   -0.2600    0.9330 N   0  0  0  0  0  0  0  0  0  0  0  0
   -2.3580    0.6240    0.7580 C   0  0  0  0  0  0  0  0  0  0  0  0
   -1.1370    0.2300    1.4010 C   0  0  0  0  0  0  0  0  0  0  0  0
   -0.9950   -1.0340    1.6810 O   0  0  0  0  0  0  0  0  0  0  0  0
   -0.0720    1.0020    1.7920 N   0  0  0  0  0  0  0  0  0  0  0  0
    1.1120    0.3790    2.4080 C   0  0  0  0  0  0  0  0  0  0  0  0
    1.7310   -0.5590    1.4130 C   0  0  0  0  0  0  0  0  0  0  0  0
    2.0880    0.2110    0.2840 O   0  0  0  0  0  0  0  0  0  0  0  0
    2.8070   -0.8780   -0.8730 P   0  0  0  0  0  0  0  0  0  0  0  0
    2.3250   -2.5240   -0.5150 O   0  0  0  0  0  0  0  0  0  0  0  0
    4.6660   -0.7880   -0.6800 C   0  0  1  0  0  0  0  0  0  0  0  0
    5.3380   -1.1990   -1.9690 C   0  0  0  0  0  0  0  0  0  0  0  0
    6.8380   -1.2810   -1.6770 C   0  0  0  0  0  0  0  0  0  0  0  0
    7.2240   -0.0070   -0.9710 C   0  0  0  0  0  0  0  0  0  0  0  0
    6.2590    0.9780   -1.0460 O   0  0  0  0  0  0  0  0  0  0  0  0
    5.0860    0.6380   -0.3940 C   0  0  0  0  0  0  0  0  0  0  0  0
   -2.7310    1.7480    0.2070 C   0  0  0  0  0  0  0  0  0  0  0  0
   -1.9230    2.9020   -0.1760 C   0  0  0  0  0  0  0  0  0  0  0  0
   -0.5290    3.0500   -0.1460 N   0  0  0  0  0  0  0  0  0  0  0  0
   -2.5110    3.9510   -0.6030 O   0  0  0  0  0  0  0  0  0  0  0  0
   -4.1610    1.6890   -0.0180 N   0  0  0  0  0  0  0  0  0  0  0  0
   -5.0030    2.6610   -0.6010 C   0  0  0  0  0  0  0  0  0  0  0  0
   -4.6640    3.7700   -1.0530 O   0  0  0  0  0  0  0  0  0  0  0  0
   -6.3940    2.3500   -0.6880 O   0  0  0  0  0  0  0  0  0  0  0  0
   -4.6540    0.4070    0.4490 C   0  0  0  0  0  0  0  0  0  0  0  0
   -5.7530   -0.3230    0.5690 C   0  0  0  0  0  0  0  0  0  0  0  0
   -7.0520    0.0740    0.1670 O   0  0  0  0  0  0  0  0  0  0  0  0
  2  1  1  6
  2  3  1  0
  2 30  1  0
  3  4  2  0
  3  5  1  0
  5  6  1  0
  5 29  1  0
  6  7  1  0
  6 21  2  0
  7  8  2  0
  7  9  1  0
  9 10  1  0
 10 11  1  0
 11 12  1  0
 12 13  1  0
 13 14  1  0
 15 13  1  6
 15 16  1  0
 15 20  1  0
 16 17  1  0
 17 18  1  0
 18 19  1  0
 19 20  1  0
 21 22  1  0
 21 25  1  0
 22 23  1  0
 22 24  2  0
 25 26  1  0
 25 29  1  0
 26 27  2  0
 26 28  1  0
 29 30  2  0
 30 31  1  0
M  END
