
     RDKit          3D

 31 33  0  0  0  0  0  0  0  0999 V2000
   -8.9720    1.0020   -1.7640 N   0  0  0  0  0  0  0  0  0  0  0  0
   -7.7910    1.6550   -1.2820 C   0  0  0  0  0  0  0  0  0  0  0  0
   -7.7620    2.8840   -1.0060 O   0  0  0  0  0  0  0  0  0  0  0  0
   -6.5820    0.9260   -1.0950 N   0  0  0  0  0  0  0  0  0  0  0  0
   -5.3970    1.5990   -0.6080 C   0  0  1  0  0  0  0  0  0  0  0  0
   -4.8580    0.8270    0.5990 C   0  0  0  0  0  0  0  0  0  0  0  0
   -3.9320    0.1540   -0.2870 N   0  0  0  0  0  0  0  0  0  0  0  0
   -3.1690   -1.0320   -0.2450 C   0  0  0  0  0  0  0  0  0  0  0  0
   -2.4430   -1.3250   -1.2240 O   0  0  0  0  0  0  0  0  0  0  0  0
   -3.1820   -1.8970    0.8330 O   0  0  0  0  0  0  0  0  0  0  0  0
   -2.4090   -3.0560    0.8240 C   0  0  0  0  0  0  0  0  0  0  0  0
   -1.0450   -2.7200    0.6920 O   0  0  0  0  0  0  0  0  0  0  0  0
   -0.4030   -1.9260    1.6250 C   0  0  0  0  0  0  0  0  0  0  0  0
   -0.9970   -1.4710    2.6250 O   0  0  0  0  0  0  0  0  0  0  0  0
    1.0120   -1.6210    1.4220 C   0  0  2  0  0  0  0  0  0  0  0  0
    1.5840   -0.7430    2.5270 C   0  0  0  0  0  0  0  0  0  0  0  0
    2.8750   -0.1820    1.8790 C   0  0  0  0  0  0  0  0  0  0  0  0
    2.6980   -0.3650    0.4950 N   0  0  0  0  0  0  0  0  0  0  0  0
    3.6090   -0.2340   -0.5700 C   0  0  0  0  0  0  0  0  0  0  0  0
    3.1970   -0.5390   -1.7730 O   0  0  0  0  0  0  0  0  0  0  0  0
    4.9980    0.2070   -0.5500 C   0  0  0  0  0  0  0  0  0  0  0  0
    5.7220    0.2340   -1.6600 C   0  0  0  0  0  0  0  0  0  0  0  0
    7.1220    0.6600   -1.7460 C   0  0  1  0  0  0  0  0  0  0  0  0
    7.8610   -0.4030   -2.2710 O   0  0  0  0  0  0  0  0  0  0  0  0
    7.1680    2.1130   -2.9360 P   0  0  0  0  0  0  0  0  0  0  0  0
    7.7390    3.4930   -2.5160 O   0  0  0  0  0  0  0  0  0  0  0  0
    7.6440    1.1080   -0.5310 O   0  0  0  0  0  0  0  0  0  0  0  0
    6.9180    1.0940    0.6450 C   0  0  0  0  0  0  0  0  0  0  0  0
    5.6490    0.6670    0.6610 C   0  0  0  0  0  0  0  0  0  0  0  0
    1.2940   -0.7100    0.2530 C   0  0  0  0  0  0  0  0  0  0  0  0
   -4.1060    1.2110   -1.2560 C   0  0  0  0  0  0  0  0  0  0  0  0
  1  2  1  0
  2  3  2  0
  2  4  1  0
  5  4  1  6
  5  6  1  0
  5 31  1  0
  6  7  1  0
  7  8  1  0
  7 31  1  0
  8  9  2  0
  8 10  1  0
 10 11  1  0
 11 12  1  0
 12 13  1  0
 13 14  2  0
 15 13  1  1
 15 16  1  0
 15 30  1  0
 16 17  1  0
 17 18  1  0
 18 19  1  0
 18 30  1  0
 19 20  2  0
 19 21  1  0
 21 22  2  0
 21 29  1  0
 22 23  1  0
 23 24  1  6
 23 25  1  0
 23 27  1  0
 25 26  2  0
 27 28  1  0
 28 29  2  0
M  END
