
     RDKit          3D

 31 33  0  0  0  0  0  0  0  0999 V2000
   -7.2380    1.3630    0.2910 O   0  0  0  0  0  0  0  0  0  0  0  0
   -6.9560    0.2400    0.8250 C   0  0  0  0  0  0  0  0  0  0  0  0
   -5.6130   -0.2670    0.6900 C   0  0  0  0  0  0  0  0  0  0  0  0
   -4.6720    0.4170    0.0190 C   0  0  0  0  0  0  0  0  0  0  0  0
   -3.3340   -0.0910   -0.1140 C   0  0  0  0  0  0  0  0  0  0  0  0
   -2.3050    0.4430   -0.7170 C   0  0  0  0  0  0  0  0  0  0  0  0
   -2.0800    1.6700   -1.4440 C   0  0  0  0  0  0  0  0  0  0  0  0
   -2.7000    2.8050   -1.2410 C   0  0  0  0  0  0  0  0  0  0  0  0
   -2.4190    3.9990   -2.0190 C   0  0  0  0  0  0  0  0  0  0  0  0
   -1.5680    4.1480   -2.9830 N   0  0  0  0  0  0  0  0  0  0  0  0
   -1.5760    5.4110   -3.4820 O   0  0  0  0  0  0  0  0  0  0  0  0
   -2.5050    6.1470   -2.7280 C   0  0  0  0  0  0  0  0  0  0  0  0
   -3.0700    5.2280   -1.8210 O   0  0  0  0  0  0  0  0  0  0  0  0
   -1.0120    1.4360   -2.3770 N   0  0  0  0  0  0  0  0  0  0  0  0
   -0.5640    0.0730   -2.2340 C   0  0  0  0  0  0  0  0  0  0  0  0
    0.0190   -0.6820   -3.0110 O   0  0  0  0  0  0  0  0  0  0  0  0
   -0.9790   -0.2820   -0.8400 C   0  0  1  0  0  0  0  0  0  0  0  0
   -0.0590    0.2390    0.2120 C   0  0  0  0  0  0  0  0  0  0  0  0
    0.4570   -0.9640    0.8290 N   0  0  0  0  0  0  0  0  0  0  0  0
    1.5490   -1.0240    1.7620 C   0  0  0  0  0  0  0  0  0  0  0  0
    2.8450   -1.2050    1.0490 C   0  0  0  0  0  0  0  0  0  0  0  0
    2.8080   -1.2810   -0.2060 O   0  0  0  0  0  0  0  0  0  0  0  0
    4.0800   -1.2930    1.7020 N   0  0  0  0  0  0  0  0  0  0  0  0
    5.3370   -1.4700    1.0100 C   0  0  0  0  0  0  0  0  0  0  0  0
    5.2940   -2.7640    0.2440 C   0  0  0  0  0  0  0  0  0  0  0  0
    5.0270   -4.2080    1.3740 P   0  0  0  0  0  0  0  0  0  0  0  0
    5.6500   -5.6850    0.6950 O   0  0  0  0  0  0  0  0  0  0  0  0
    5.7310   -3.9420    2.9310 O   0  0  0  0  0  0  0  0  0  0  0  0
   -0.3040   -2.0550    0.3470 C   0  0  0  0  0  0  0  0  0  0  0  0
   -0.1920   -3.2570    0.7690 O   0  0  0  0  0  0  0  0  0  0  0  0
   -1.1950   -1.6340   -0.6530 O   0  0  0  0  0  0  0  0  0  0  0  0
  1  2  2  0
  2  3  1  0
  3  4  2  3
  4  5  1  0
  5  6  2  3
  6  7  1  0
  6 17  1  0
  7  8  2  3
  7 14  1  0
  8  9  1  0
  9 10  2  0
  9 13  1  0
 10 11  1  0
 11 12  1  0
 12 13  1  0
 14 15  1  0
 15 16  2  0
 15 17  1  0
 17 18  1  1
 17 31  1  0
 18 19  1  0
 19 20  1  0
 19 29  1  0
 20 21  1  0
 21 22  2  0
 21 23  1  0
 23 24  1  0
 24 25  1  0
 25 26  1  0
 26 27  1  0
 26 28  1  0
 29 30  2  0
 29 31  1  0
M  END
