
     RDKit          3D

 31 33  0  0  0  0  0  0  0  0999 V2000
   -4.2480   -0.4320    4.1890 C   0  0  0  0  0  0  0  0  0  0  0  0
   -3.2170   -0.3840    3.1970 C   0  0  0  0  0  0  0  0  0  0  0  0
   -3.3990   -0.0550    1.8530 C   0  0  0  0  0  0  0  0  0  0  0  0
   -2.1360   -0.1020    1.1560 C   0  0  0  0  0  0  0  0  0  0  0  0
   -1.1120   -0.4840    1.8730 O   0  0  0  0  0  0  0  0  0  0  0  0
   -1.7830    0.2000   -0.1540 N   0  0  0  0  0  0  0  0  0  0  0  0
   -0.5290    0.1860   -0.7920 C   0  0  0  0  0  0  0  0  0  0  0  0
    0.6670   -0.1120   -0.3450 C   0  0  0  0  0  0  0  0  0  0  0  0
    1.1410   -0.5230    0.8920 O   0  0  0  0  0  0  0  0  0  0  0  0
    2.5930   -0.4300    0.9300 C   0  0  0  0  0  0  0  0  0  0  0  0
    2.8700   -0.9220   -0.4580 C   0  0  2  0  0  0  0  0  0  0  0  0
    4.2130   -0.8300   -0.9830 C   0  0  0  0  0  0  0  0  0  0  0  0
    5.1750   -1.2730   -0.3170 O   0  0  0  0  0  0  0  0  0  0  0  0
    4.5320   -0.2440   -2.2610 N   0  0  0  0  0  0  0  0  0  0  0  0
    5.8490   -0.2790   -2.8500 C   0  0  1  0  0  0  0  0  0  0  0  0
    6.7690    0.5090   -1.9620 C   0  0  0  0  0  0  0  0  0  0  0  0
    7.7440   -0.2240   -1.5950 N   0  0  0  0  0  0  0  0  0  0  0  0
    7.6510   -1.5190   -2.1300 N   0  0  0  0  0  0  0  0  0  0  0  0
    6.4840   -1.5980   -2.9190 C   0  0  0  0  0  0  0  0  0  0  0  0
    6.0870   -2.6050   -3.5440 O   0  0  0  0  0  0  0  0  0  0  0  0
    3.4900    0.4280   -2.9310 C   0  0  0  0  0  0  0  0  0  0  0  0
    3.7640    0.9560   -4.0670 O   0  0  0  0  0  0  0  0  0  0  0  0
    2.1550    0.5140   -2.3440 C   0  0  0  0  0  0  0  0  0  0  0  0
    1.8820   -0.0380   -1.1920 C   0  0  0  0  0  0  0  0  0  0  0  0
   -4.7250    0.3350    1.4440 C   0  0  0  0  0  0  0  0  0  0  0  0
   -5.2130    0.5790    0.3270 C   0  0  0  0  0  0  0  0  0  0  0  0
   -4.7760    0.5780   -0.9430 O   0  0  0  0  0  0  0  0  0  0  0  0
   -5.6800    0.4700    2.5450 O   0  0  0  0  0  0  0  0  0  0  0  0
   -7.0580    1.5350    2.3970 P   0  0  0  0  0  0  0  0  0  0  0  0
   -6.6250    2.9230    1.4810 O   0  0  0  0  0  0  0  0  0  0  0  0
   -8.3770    0.6950    1.6900 O   0  0  0  0  0  0  0  0  0  0  0  0
  1  2  1  0
  2  3  2  3
  3  4  1  0
  3 25  1  0
  4  5  2  0
  4  6  1  0
  6  7  1  0
  7  8  2  3
  8  9  1  0
  8 24  1  0
  9 10  1  0
 11 10  1  1
 11 12  1  0
 11 24  1  0
 12 13  2  0
 12 14  1  0
 15 14  1  1
 14 21  1  0
 15 16  1  0
 15 19  1  0
 16 17  2  0
 17 18  1  0
 18 19  1  0
 19 20  2  0
 21 22  2  0
 21 23  1  0
 23 24  2  0
 25 26  2  3
 25 28  1  0
 26 27  1  0
 28 29  1  0
 29 30  1  0
 29 31  1  0
M  END
