
     RDKit          3D

 30 32  0  0  0  0  0  0  0  0999 V2000
    1.8930   -3.9660    1.0060 C   0  0  0  0  0  0  0  0  0  0  0  0
    1.2620   -2.7790    0.5120 O   0  0  0  0  0  0  0  0  0  0  0  0
    0.2870   -2.1780    1.2920 C   0  0  0  0  0  0  0  0  0  0  0  0
   -0.0060   -2.6830    2.3830 O   0  0  0  0  0  0  0  0  0  0  0  0
   -0.3630   -0.9660    0.7980 C   0  0  2  0  0  0  0  0  0  0  0  0
    0.6500    0.1160    0.5580 C   0  0  0  0  0  0  0  0  0  0  0  0
    1.8460   -0.0610   -0.0710 N   0  0  0  0  0  0  0  0  0  0  0  0
    2.5050    1.1090   -0.1170 C   0  0  0  0  0  0  0  0  0  0  0  0
    3.8160    1.3930   -0.6940 C   0  0  0  0  0  0  0  0  0  0  0  0
    4.5360    0.3810   -1.2890 C   0  0  0  0  0  0  0  0  0  0  0  0
    5.7770    0.6170   -1.8430 C   0  0  0  0  0  0  0  0  0  0  0  0
    6.3240    1.8830   -1.8100 C   0  0  0  0  0  0  0  0  0  0  0  0
    7.5720    2.0910   -2.3750 O   0  0  0  0  0  0  0  0  0  0  0  0
    5.5830    2.8790   -1.2090 C   0  0  0  0  0  0  0  0  0  0  0  0
    4.3580    2.6220   -0.6670 N   0  0  0  0  0  0  0  0  0  0  0  0
    1.6910    1.9920    0.4940 N   0  0  0  0  0  0  0  0  0  0  0  0
    0.6100    1.3800    0.8790 O   0  0  0  0  0  0  0  0  0  0  0  0
   -1.3260   -0.3730    1.8380 C   0  0  0  0  0  0  0  0  0  0  0  0
   -2.0180    0.5700    0.9480 N   0  0  0  0  0  0  0  0  0  0  0  0
   -2.8980    1.4130    1.6430 C   0  0  0  0  0  0  0  0  0  0  0  0
   -3.6150    2.3700    0.7360 C   0  0  1  0  0  0  0  0  0  0  0  0
   -2.7400    3.1610   -0.0060 O   0  0  0  0  0  0  0  0  0  0  0  0
   -4.8560    1.6140   -0.3740 P   0  0  0  0  0  0  0  0  0  0  0  0
   -5.8880    2.7540   -1.1280 O   0  0  0  0  0  0  0  0  0  0  0  0
   -5.7300    0.3220    0.3820 O   0  0  0  0  0  0  0  0  0  0  0  0
   -2.5080   -0.2830   -0.0770 C   0  0  0  0  0  0  0  0  0  0  0  0
   -1.2810   -1.1640   -0.3720 C   0  0  1  0  0  0  0  0  0  0  0  0
   -0.6980   -0.6900   -1.6640 C   0  0  0  0  0  0  0  0  0  0  0  0
   -1.6830   -2.6200   -0.4210 C   0  0  0  0  0  0  0  0  0  0  0  0
   -2.5420   -2.8830   -1.4880 O   0  0  0  0  0  0  0  0  0  0  0  0
  1  2  1  0
  2  3  1  0
  3  4  2  0
  5  3  1  1
  5  6  1  0
  5 18  1  0
  5 27  1  0
  6  7  2  0
  6 17  1  0
  7  8  1  0
  8  9  1  0
  8 16  2  0
  9 10  2  0
  9 15  1  0
 10 11  1  0
 11 12  2  0
 12 13  1  0
 12 14  1  0
 14 15  2  0
 16 17  1  0
 18 19  1  0
 19 20  1  0
 19 26  1  0
 20 21  1  0
 21 22  1  6
 21 23  1  0
 23 24  1  0
 23 25  1  0
 26 27  1  0
 27 28  1  6
 27 29  1  0
 29 30  1  0
M  END
