
     RDKit          3D

 31 33  0  0  0  0  0  0  0  0999 V2000
    0.9130   -1.4700   -0.0970 O   0  0  0  0  0  0  0  0  0  0  0  0
    1.9290   -0.7880    0.1540 C   0  0  0  0  0  0  0  0  0  0  0  0
    3.2190   -1.3540   -0.0120 N   0  0  0  0  0  0  0  0  0  0  0  0
    3.4460   -2.7000   -0.4630 C   0  0  0  0  0  0  0  0  0  0  0  0
    2.8270   -3.7320    0.4510 C   0  0  0  0  0  0  0  0  0  0  0  0
    3.1020   -4.9920   -0.0700 O   0  0  0  0  0  0  0  0  0  0  0  0
    1.7510    0.5820    0.6130 C   0  0  0  0  0  0  0  0  0  0  0  0
    0.5620    1.1330    0.7760 C   0  0  0  0  0  0  0  0  0  0  0  0
   -0.6170    0.3850    0.5000 N   0  0  0  0  0  0  0  0  0  0  0  0
   -1.1330    0.3140   -0.6560 C   0  0  0  0  0  0  0  0  0  0  0  0
   -0.5900    0.9470   -1.6970 N   0  0  0  0  0  0  0  0  0  0  0  0
   -1.1640    0.8570   -2.9380 C   0  0  0  0  0  0  0  0  0  0  0  0
   -2.2770    0.1360   -3.1370 N   0  0  0  0  0  0  0  0  0  0  0  0
   -2.8540   -0.5160   -2.1180 C   0  0  0  0  0  0  0  0  0  0  0  0
   -2.2780   -0.4290   -0.8500 C   0  0  0  0  0  0  0  0  0  0  0  0
   -2.7940   -1.1500    0.2740 C   0  0  0  0  0  0  0  0  0  0  0  0
   -1.9930   -1.8240    1.0150 O   0  0  0  0  0  0  0  0  0  0  0  0
   -4.2030   -1.1610    0.6310 C   0  0  0  0  0  0  0  0  0  0  0  0
   -5.0960   -0.4500   -0.0240 C   0  0  0  0  0  0  0  0  0  0  0  0
   -6.5300   -0.4600    0.3280 C   0  0  0  0  0  0  0  0  0  0  0  0
   -6.8340   -1.2690    1.4050 O   0  0  0  0  0  0  0  0  0  0  0  0
   -5.9010   -2.0050    2.0800 C   0  0  0  0  0  0  0  0  0  0  0  0
   -4.6240   -2.0160    1.7820 C   0  0  0  0  0  0  0  0  0  0  0  0
    0.5330    2.4440    1.2190 O   0  0  0  0  0  0  0  0  0  0  0  0
    1.5440    3.3880    0.9860 C   0  0  0  0  0  0  0  0  0  0  0  0
    2.8980    2.7660    0.7240 C   0  0  1  0  0  0  0  0  0  0  0  0
    3.8000    3.3730    1.5800 O   0  0  0  0  0  0  0  0  0  0  0  0
    5.0220    4.1450    0.6270 P   0  0  0  0  0  0  0  0  0  0  0  0
    6.1050    2.9780   -0.0690 O   0  0  0  0  0  0  0  0  0  0  0  0
    5.8930    5.2230    1.6660 O   0  0  0  0  0  0  0  0  0  0  0  0
    2.8810    1.3580    0.8990 O   0  0  0  0  0  0  0  0  0  0  0  0
  1  2  2  0
  2  3  1  0
  2  7  1  0
  3  4  1  0
  4  5  1  0
  5  6  1  0
  7  8  2  0
  7 31  1  0
  8  9  1  0
  8 24  1  0
  9 10  2  3
 10 11  1  0
 10 15  1  0
 11 12  2  0
 12 13  1  0
 13 14  1  0
 14 15  2  0
 15 16  1  0
 16 17  2  0
 16 18  1  0
 18 19  2  0
 18 23  1  0
 19 20  1  0
 20 21  1  0
 21 22  1  0
 22 23  2  0
 24 25  1  0
 25 26  1  0
 26 27  1  1
 26 31  1  0
 27 28  1  0
 28 29  1  0
 28 30  1  0
M  END
