
     RDKit          3D

 21 22  0  0  0  0  0  0  0  0999 V2000
    5.3410   -1.2710    0.0050 C   0  0  0  0  0  0  0  0  0  0  0  0
    4.2510   -0.7160    0.6910 O   0  0  0  0  0  0  0  0  0  0  0  0
    3.6200    0.4350    0.2560 C   0  0  0  0  0  0  0  0  0  0  0  0
    4.0520    1.0100   -0.8050 O   0  0  0  0  0  0  0  0  0  0  0  0
    2.4380    1.0440    0.9770 C   0  0  0  0  0  0  0  0  0  0  0  0
    1.6640    1.8770    0.0160 C   0  0  0  0  0  0  0  0  0  0  0  0
    1.9480    3.1560   -0.4000 C   0  0  0  0  0  0  0  0  0  0  0  0
    0.9520    3.4490   -1.2930 N   0  0  0  0  0  0  0  0  0  0  0  0
    0.1320    2.3780   -1.3830 N   0  0  0  0  0  0  0  0  0  0  0  0
    0.5600    1.4290   -0.5910 N   0  0  0  0  0  0  0  0  0  0  0  0
   -0.0690    0.1280   -0.3960 C   0  0  0  0  0  0  0  0  0  0  0  0
    0.2050   -0.9320   -1.0620 N   0  0  0  0  0  0  0  0  0  0  0  0
   -0.5720   -2.0330   -0.6470 C   0  0  0  0  0  0  0  0  0  0  0  0
   -0.8740   -3.0700   -1.2880 O   0  0  0  0  0  0  0  0  0  0  0  0
   -0.9570   -1.6730    0.7660 C   0  0  0  0  0  0  0  0  0  0  0  0
   -1.1180   -0.1800    0.6020 C   0  0  2  0  0  0  0  0  0  0  0  0
   -2.3670    0.2230    0.0150 N   0  0  0  0  0  0  0  0  0  0  0  0
   -3.4570   -0.7140    0.1550 C   0  0  0  0  0  0  0  0  0  0  0  0
   -4.9190    0.0230   -0.7220 P   0  0  0  0  0  0  0  0  0  0  0  0
   -5.5310    1.3990    0.0870 O   0  0  0  0  0  0  0  0  0  0  0  0
   -6.1410   -1.1850   -0.9030 O   0  0  0  0  0  0  0  0  0  0  0  0
  1  2  1  0
  2  3  1  0
  3  4  2  0
  3  5  1  0
  5  6  1  0
  6  7  2  0
  6 10  1  0
  7  8  1  0
  8  9  2  0
  9 10  1  0
 10 11  1  0
 11 12  2  0
 11 16  1  0
 12 13  1  0
 13 14  2  0
 13 15  1  0
 15 16  1  0
 16 17  1  6
 17 18  1  0
 18 19  1  0
 19 20  1  0
 19 21  1  0
M  END
