
     RDKit          3D

 22 23  0  0  0  0  0  0  0  0999 V2000
   -2.2800   -2.1130   -1.8880 O   0  0  0  0  0  0  0  0  0  0  0  0
   -1.2670   -1.4210   -2.1400 C   0  0  0  0  0  0  0  0  0  0  0  0
   -0.7010   -0.6710   -1.1610 O   0  0  0  0  0  0  0  0  0  0  0  0
   -1.2020   -0.6320    0.1380 C   0  0  2  0  0  0  0  0  0  0  0  0
   -1.7150    0.6510    0.5590 N   0  0  0  0  0  0  0  0  0  0  0  0
   -1.6630    1.5440   -0.5420 C   0  0  0  0  0  0  0  0  0  0  0  0
   -1.1660    2.9050   -0.2670 C   0  0  0  0  0  0  0  0  0  0  0  0
   -0.2090    3.0850    0.7640 N   0  0  0  0  0  0  0  0  0  0  0  0
    0.5850    2.1280    1.4340 C   0  0  0  0  0  0  0  0  0  0  0  0
    0.6330    2.1380    2.7190 O   0  0  0  0  0  0  0  0  0  0  0  0
    1.3510    1.1410    0.8370 O   0  0  0  0  0  0  0  0  0  0  0  0
    1.8760    1.1610   -0.4400 C   0  0  0  0  0  0  0  0  0  0  0  0
    2.0820   -0.2120   -0.9820 C   0  0  0  0  0  0  0  0  0  0  0  0
    2.7290   -0.5140   -2.1210 N   0  0  0  0  0  0  0  0  0  0  0  0
    2.7560   -1.8260   -2.3270 C   0  0  0  0  0  0  0  0  0  0  0  0
    2.0850   -2.3520   -1.2500 C   0  0  0  0  0  0  0  0  0  0  0  0
    1.6740   -1.3590   -0.4290 N   0  0  0  0  0  0  0  0  0  0  0  0
    0.9700   -1.4060    0.7720 N   0  0  0  0  0  0  0  0  0  0  0  0
   -0.1900   -1.1410    1.1370 C   0  0  0  0  0  0  0  0  0  0  0  0
   -0.8390   -1.3110    2.8510 P   0  0  0  0  0  0  0  0  0  0  0  0
   -1.7390   -2.8030    2.9820 O   0  0  0  0  0  0  0  0  0  0  0  0
    0.4240   -1.2450    4.0190 O   0  0  0  0  0  0  0  0  0  0  0  0
  1  2  2  0
  2  3  1  0
  4  3  1  6
  4  5  1  0
  4 19  1  0
  5  6  1  0
  6  7  1  0
  7  8  1  0
  8  9  1  0
  9 10  2  0
  9 11  1  0
 11 12  1  0
 12 13  1  0
 13 14  2  0
 13 17  1  0
 14 15  1  0
 15 16  2  0
 16 17  1  0
 17 18  1  0
 18 19  2  0
 19 20  1  0
 20 21  1  0
 20 22  1  0
M  END
