
     RDKit          3D

 22 23  0  0  0  0  0  0  0  0999 V2000
   -2.1450    1.8570   -0.6030 N   0  0  0  0  0  0  0  0  0  0  0  0
   -1.7930    0.8480    0.1200 C   0  0  0  0  0  0  0  0  0  0  0  0
   -2.3390    0.7340    1.4190 N   0  0  0  0  0  0  0  0  0  0  0  0
   -3.7310    1.7410    1.9040 P   0  0  0  0  0  0  0  0  0  0  0  0
   -4.4570    2.5380    0.5520 O   0  0  0  0  0  0  0  0  0  0  0  0
   -4.8860    0.8550    2.8320 O   0  0  0  0  0  0  0  0  0  0  0  0
   -0.8740   -0.1530   -0.3440 N   0  0  0  0  0  0  0  0  0  0  0  0
   -1.4450   -1.4900   -0.4690 C   0  0  0  0  0  0  0  0  0  0  0  0
   -2.4410   -1.5420   -1.5640 C   0  0  0  0  0  0  0  0  0  0  0  0
   -3.0930   -2.7790   -1.8190 N   0  0  0  0  0  0  0  0  0  0  0  0
   -2.7550   -0.5670   -2.2930 O   0  0  0  0  0  0  0  0  0  0  0  0
    0.4710    0.1950   -0.6410 C   0  0  0  0  0  0  0  0  0  0  0  0
    1.5010   -0.3770    0.2840 C   0  0  2  0  0  0  0  0  0  0  0  0
    1.4480    0.3080    1.6240 C   0  0  0  0  0  0  0  0  0  0  0  0
    2.3910    1.3780    1.5480 O   0  0  0  0  0  0  0  0  0  0  0  0
    3.2490    1.1710    0.4540 C   0  0  0  0  0  0  0  0  0  0  0  0
    4.2560    1.9380    0.1320 C   0  0  0  0  0  0  0  0  0  0  0  0
    4.5660    3.0520    0.8730 O   0  0  0  0  0  0  0  0  0  0  0  0
    2.8130   -0.0040   -0.2120 N   0  0  0  0  0  0  0  0  0  0  0  0
    3.1490   -1.0020   -1.2040 C   0  0  0  0  0  0  0  0  0  0  0  0
    2.1990   -2.1130   -0.8370 C   0  0  0  0  0  0  0  0  0  0  0  0
    1.5590   -1.7350    0.3460 O   0  0  0  0  0  0  0  0  0  0  0  0
  1  2  2  0
  2  3  1  0
  2  7  1  0
  3  4  1  0
  4  5  1  0
  4  6  1  0
  7  8  1  0
  7 12  1  0
  8  9  1  0
  9 10  1  0
  9 11  2  0
 13 12  1  6
 13 14  1  0
 13 19  1  0
 13 22  1  0
 14 15  1  0
 15 16  1  0
 16 17  2  3
 16 19  1  0
 17 18  1  0
 19 20  1  0
 20 21  1  0
 21 22  1  0
M  END
