
     RDKit          3D

 22 24  0  0  0  0  0  0  0  0999 V2000
   -1.6410   -2.2250    1.0080 O   0  0  0  0  0  0  0  0  0  0  0  0
   -1.0990   -1.1370    0.6820 C   0  0  0  0  0  0  0  0  0  0  0  0
   -1.8650    0.0790    0.5250 C   0  0  0  0  0  0  0  0  0  0  0  0
   -1.2300    1.2360    0.1720 N   0  0  0  0  0  0  0  0  0  0  0  0
   -1.9130    2.3860    0.0170 C   0  0  0  0  0  0  0  0  0  0  0  0
   -3.2430    2.4580    0.2000 N   0  0  0  0  0  0  0  0  0  0  0  0
   -3.9380    1.3880    0.5420 N   0  0  0  0  0  0  0  0  0  0  0  0
   -5.2450    1.1950    0.7800 C   0  0  0  0  0  0  0  0  0  0  0  0
   -5.3980   -0.0980    1.0920 N   0  0  0  0  0  0  0  0  0  0  0  0
   -4.2020   -0.7530    1.0590 C   0  0  0  0  0  0  0  0  0  0  0  0
   -4.0090   -1.9610    1.3000 O   0  0  0  0  0  0  0  0  0  0  0  0
   -3.2190    0.1440    0.7120 C   0  0  0  0  0  0  0  0  0  0  0  0
    0.3210   -1.1510    0.4710 N   0  0  0  0  0  0  0  0  0  0  0  0
    1.1480   -2.2980    0.6110 C   0  0  0  0  0  0  0  0  0  0  0  0
    2.5650   -1.7180    0.8040 C   0  0  1  0  0  0  0  0  0  0  0  0
    3.5100   -2.6490    0.3400 O   0  0  0  0  0  0  0  0  0  0  0  0
    2.4920   -0.4920   -0.0370 C   0  0  2  0  0  0  0  0  0  0  0  0
    3.4270    0.4730    0.2920 O   0  0  0  0  0  0  0  0  0  0  0  0
    4.4810    0.8820   -0.9930 P   0  0  0  0  0  0  0  0  0  0  0  0
    3.7760    0.3470   -2.4860 O   0  0  0  0  0  0  0  0  0  0  0  0
    4.6180    2.6170   -1.0510 O   0  0  0  0  0  0  0  0  0  0  0  0
    1.0780   -0.0220    0.0960 C   0  0  0  0  0  0  0  0  0  0  0  0
  1  2  2  0
  2  3  1  0
  2 13  1  0
  3  4  1  0
  3 12  2  0
  4  5  2  0
  5  6  1  0
  6  7  1  0
  7  8  1  0
  7 12  1  0
  8  9  2  0
  9 10  1  0
 10 11  2  0
 10 12  1  0
 13 14  1  0
 13 22  1  0
 14 15  1  0
 15 16  1  6
 15 17  1  0
 17 18  1  1
 17 22  1  0
 18 19  1  0
 19 20  1  0
 19 21  1  0
M  END
