
     RDKit          3D

 21 22  0  0  0  0  0  0  0  0999 V2000
   -3.6560    2.2730    0.0040 N   0  0  0  0  0  0  0  0  0  0  0  0
   -3.3750    1.1260    0.8910 C   0  0  2  0  0  0  0  0  0  0  0  0
   -2.0930    0.5730    0.5860 N   0  0  0  0  0  0  0  0  0  0  0  0
   -1.9730   -0.7790    0.1470 C   0  0  0  0  0  0  0  0  0  0  0  0
   -0.7810   -1.2600   -0.1260 C   0  0  0  0  0  0  0  0  0  0  0  0
    0.3930   -0.4540    0.0090 N   0  0  0  0  0  0  0  0  0  0  0  0
    0.7620    0.3180   -1.1450 C   0  0  0  0  0  0  0  0  0  0  0  0
    1.9720    1.1860   -0.9230 C   0  0  0  0  0  0  0  0  0  0  0  0
    2.9650    0.5490    0.0370 C   0  0  1  0  0  0  0  0  0  0  0  0
    4.0290    1.4070    0.1810 O   0  0  0  0  0  0  0  0  0  0  0  0
    5.5300    0.6870   -0.3170 P   0  0  0  0  0  0  0  0  0  0  0  0
    6.2980    1.6220   -1.5620 O   0  0  0  0  0  0  0  0  0  0  0  0
    5.2380   -0.9450   -0.8540 O   0  0  0  0  0  0  0  0  0  0  0  0
    2.2510    0.4170    1.3640 C   0  0  0  0  0  0  0  0  0  0  0  0
    1.0670   -0.5050    1.2730 C   0  0  0  0  0  0  0  0  0  0  0  0
   -3.1640   -1.5800    0.0150 C   0  0  0  0  0  0  0  0  0  0  0  0
   -3.1990   -2.8000   -0.3660 N   0  0  0  0  0  0  0  0  0  0  0  0
   -2.2030   -3.5930   -0.7180 O   0  0  0  0  0  0  0  0  0  0  0  0
   -4.4440   -0.9950    0.3300 N   0  0  0  0  0  0  0  0  0  0  0  0
   -4.5090    0.2050    0.7160 C   0  0  0  0  0  0  0  0  0  0  0  0
   -5.8130    0.6800    0.9980 O   0  0  0  0  0  0  0  0  0  0  0  0
  2  1  1  6
  2  3  1  0
  2 20  1  0
  3  4  1  0
  4  5  2  3
  4 16  1  0
  5  6  1  0
  6  7  1  0
  6 15  1  0
  7  8  1  0
  8  9  1  0
  9 10  1  1
  9 14  1  0
 10 11  1  0
 11 12  1  0
 11 13  1  0
 14 15  1  0
 16 17  2  3
 16 19  1  0
 17 18  1  0
 19 20  2  0
 20 21  1  0
M  END
