
     RDKit          3D

 22 23  0  0  0  0  0  0  0  0999 V2000
    1.6240    2.3110   -0.3860 C   0  0  0  0  0  0  0  0  0  0  0  0
    1.9550    0.9310   -0.1260 N   0  0  0  0  0  0  0  0  0  0  0  0
    1.2910    0.1880    0.9070 C   0  0  0  0  0  0  0  0  0  0  0  0
   -0.1830    0.1300    0.6400 C   0  0  0  0  0  0  0  0  0  0  0  0
   -1.1000    1.0360    1.0820 N   0  0  0  0  0  0  0  0  0  0  0  0
   -2.3180    0.6690    0.6560 C   0  0  0  0  0  0  0  0  0  0  0  0
   -2.1230   -0.4960   -0.0660 C   0  0  0  0  0  0  0  0  0  0  0  0
   -0.8440   -0.7680   -0.0430 O   0  0  0  0  0  0  0  0  0  0  0  0
   -3.4150   -0.9980   -0.5910 C   0  0  1  0  0  0  0  0  0  0  0  0
   -3.6030   -2.4410   -0.2370 C   0  0  0  0  0  0  0  0  0  0  0  0
   -4.5930   -2.7690    0.4600 O   0  0  0  0  0  0  0  0  0  0  0  0
   -2.6640   -3.3400   -0.7030 O   0  0  0  0  0  0  0  0  0  0  0  0
   -4.4390   -0.1270    0.0720 C   0  0  0  0  0  0  0  0  0  0  0  0
   -3.6950    0.9880    0.6480 N   0  0  0  0  0  0  0  0  0  0  0  0
   -4.2840    2.1750    1.1100 C   0  0  0  0  0  0  0  0  0  0  0  0
   -3.5590    3.0860    1.5930 O   0  0  0  0  0  0  0  0  0  0  0  0
    2.9550    0.3080   -0.9110 C   0  0  0  0  0  0  0  0  0  0  0  0
    2.6080   -0.3150   -1.9830 N   0  0  0  0  0  0  0  0  0  0  0  0
    4.3250    0.3510   -0.5470 N   0  0  0  0  0  0  0  0  0  0  0  0
    5.5160   -0.8310   -1.1980 P   0  0  0  0  0  0  0  0  0  0  0  0
    5.2100   -2.3850   -0.4960 O   0  0  0  0  0  0  0  0  0  0  0  0
    7.1150   -0.3360   -0.7810 O   0  0  0  0  0  0  0  0  0  0  0  0
  1  2  1  0
  2  3  1  0
  2 17  1  0
  3  4  1  0
  4  5  2  0
  4  8  1  0
  5  6  1  0
  6  7  2  0
  6 14  1  0
  7  8  1  0
  7  9  1  0
  9 10  1  1
  9 13  1  0
 10 11  2  0
 10 12  1  0
 13 14  1  0
 14 15  1  0
 15 16  2  0
 17 18  2  0
 17 19  1  0
 19 20  1  0
 20 21  1  0
 20 22  1  0
M  END
