
     RDKit          3D

 21 22  0  0  0  0  0  0  0  0999 V2000
   -3.8250   -1.5930   -2.2060 O   0  0  0  0  0  0  0  0  0  0  0  0
   -3.2520   -0.9630   -1.2790 C   0  0  0  0  0  0  0  0  0  0  0  0
   -1.8420   -0.8170   -1.0730 N   0  0  0  0  0  0  0  0  0  0  0  0
   -1.5830   -0.0310    0.0850 C   0  0  0  0  0  0  0  0  0  0  0  0
   -0.3150    0.3640    0.6590 C   0  0  0  0  0  0  0  0  0  0  0  0
    0.8370    0.0140    0.1330 C   0  0  0  0  0  0  0  0  0  0  0  0
    1.0060   -0.7750   -1.0320 N   0  0  0  0  0  0  0  0  0  0  0  0
    2.1540   -1.0970   -1.5160 C   0  0  0  0  0  0  0  0  0  0  0  0
    2.1430   -1.8840   -2.6780 O   0  0  0  0  0  0  0  0  0  0  0  0
    3.3660   -0.6760   -0.9020 N   0  0  0  0  0  0  0  0  0  0  0  0
    3.2870    0.0500    0.1690 C   0  0  0  0  0  0  0  0  0  0  0  0
    4.5480    0.4490    0.7490 N   0  0  0  0  0  0  0  0  0  0  0  0
    6.0710    0.1790   -0.1190 P   0  0  0  0  0  0  0  0  0  0  0  0
    6.7590   -1.3690    0.1610 O   0  0  0  0  0  0  0  0  0  0  0  0
    7.1960    1.4240    0.3810 O   0  0  0  0  0  0  0  0  0  0  0  0
    2.0630    0.4440    0.7600 N   0  0  0  0  0  0  0  0  0  0  0  0
   -2.7700    0.3150    0.6040 C   0  0  0  0  0  0  0  0  0  0  0  0
   -3.8710   -0.2150   -0.1710 C   0  0  0  0  0  0  0  0  0  0  0  0
   -5.1670   -0.0980    0.0100 C   0  0  0  0  0  0  0  0  0  0  0  0
   -5.6790    0.6740    1.1540 C   0  0  0  0  0  0  0  0  0  0  0  0
   -6.4690    1.7430    0.7130 O   0  0  0  0  0  0  0  0  0  0  0  0
  1  2  2  0
  2  3  1  0
  2 18  1  0
  3  4  1  0
  4  5  1  0
  4 17  2  0
  5  6  2  3
  6  7  1  0
  6 16  1  0
  7  8  2  0
  8  9  1  0
  8 10  1  0
 10 11  2  0
 11 12  1  0
 11 16  1  0
 12 13  1  0
 13 14  1  0
 13 15  1  0
 17 18  1  0
 18 19  2  3
 19 20  1  0
 20 21  1  0
M  END
