
     RDKit          3D

 28 30  0  0  0  0  0  0  0  0999 V2000
   -6.6520    1.2400    0.5580 N   0  0  0  0  0  0  0  0  0  0  0  0
   -5.8560    0.0940    0.3160 C   0  0  0  0  0  0  0  0  0  0  0  0
   -4.5520    0.2620    0.0350 N   0  0  0  0  0  0  0  0  0  0  0  0
   -3.7110   -0.7690   -0.2110 C   0  0  0  0  0  0  0  0  0  0  0  0
   -4.2510   -2.0340   -0.1630 C   0  0  0  0  0  0  0  0  0  0  0  0
   -3.2250   -2.8720   -0.4390 N   0  0  0  0  0  0  0  0  0  0  0  0
   -2.1150   -2.1470   -0.6450 C   0  0  0  0  0  0  0  0  0  0  0  0
   -2.4000   -0.8500   -0.5080 N   0  0  0  0  0  0  0  0  0  0  0  0
   -1.5640    0.3130   -0.6280 C   0  0  2  0  0  0  0  0  0  0  0  0
   -0.2610    0.0300   -0.9680 O   0  0  0  0  0  0  0  0  0  0  0  0
    0.3330    1.2920   -0.8600 C   0  0  2  0  0  0  0  0  0  0  0  0
    1.8530    1.1900   -0.8290 C   0  0  0  0  0  0  0  0  0  0  0  0
    2.2330    0.4590    0.2130 O   0  0  0  0  0  0  0  0  0  0  0  0
    3.7410    0.1130    0.6020 P   0  0  0  0  0  0  0  0  0  0  0  0
    4.5500    1.0870    1.7710 O   0  0  0  0  0  0  0  0  0  0  0  0
    4.4340    0.8550   -0.5160 O   0  0  0  0  0  0  0  0  0  0  0  0
    4.4610   -1.3250    0.2230 O   0  0  0  0  0  0  0  0  0  0  0  0
    5.7500   -1.4510   -0.5750 P   0  0  0  0  0  0  0  0  0  0  0  0
    5.6470   -3.1230   -0.4280 O   0  0  0  0  0  0  0  0  0  0  0  0
    4.9810   -0.7260   -1.8890 O   0  0  0  0  0  0  0  0  0  0  0  0
    6.7030   -0.6140    0.3790 O   0  0  0  0  0  0  0  0  0  0  0  0
   -0.2140    1.9220    0.3950 C   0  0  1  0  0  0  0  0  0  0  0  0
   -0.7850    3.1840    0.1420 O   0  0  0  0  0  0  0  0  0  0  0  0
   -1.3690    0.9990    0.7270 C   0  0  1  0  0  0  0  0  0  0  0  0
   -2.5060    1.6760    1.1070 O   0  0  0  0  0  0  0  0  0  0  0  0
   -5.5850   -2.2360    0.1230 C   0  0  0  0  0  0  0  0  0  0  0  0
   -6.0900   -3.3640    0.1720 O   0  0  0  0  0  0  0  0  0  0  0  0
   -6.3510   -1.1570    0.3550 N   0  0  0  0  0  0  0  0  0  0  0  0
  1  2  1  0
  2  3  2  0
  2 28  1  0
  3  4  1  0
  4  5  2  0
  4  8  1  0
  5  6  1  0
  5 26  1  0
  6  7  2  0
  7  8  1  0
  9  8  1  1
  9 10  1  0
  9 24  1  0
 10 11  1  0
 11 12  1  1
 11 22  1  0
 12 13  1  0
 13 14  1  0
 14 15  1  0
 14 16  1  0
 14 17  1  0
 17 18  1  0
 18 19  1  0
 18 20  1  0
 18 21  1  0
 22 23  1  6
 22 24  1  0
 24 25  1  6
 26 27  2  0
 26 28  1  0
M  END
