
     RDKit          3D

 21 21  0  0  0  0  0  0  0  0999 V2000
    6.2680   -0.7970   -0.4030 C   0  0  0  0  0  0  0  0  0  0  0  0
    4.8600   -0.4850   -0.0690 C   0  0  0  0  0  0  0  0  0  0  0  0
    4.3250    0.6300   -0.4370 N   0  0  0  0  0  0  0  0  0  0  0  0
    4.1000   -1.3840    0.6430 O   0  0  0  0  0  0  0  0  0  0  0  0
    3.0640   -0.9840    1.3530 O   0  0  0  0  0  0  0  0  0  0  0  0
    1.8230   -0.2670    0.4110 P   0  0  0  0  0  0  0  0  0  0  0  0
    0.0380    0.1230    1.1860 P   0  0  0  0  0  0  0  0  0  0  0  0
   -1.2640    0.9020    0.1100 C   0  0  0  0  0  0  0  0  0  0  0  0
   -2.3400    0.0910   -0.1390 C   0  0  0  0  0  0  0  0  0  0  0  0
   -2.4830   -1.2930    0.3890 C   0  0  2  0  0  0  0  0  0  0  0  0
   -3.8050   -1.8460   -0.1340 C   0  0  0  0  0  0  0  0  0  0  0  0
   -2.5160   -1.1890    1.9040 C   0  0  0  0  0  0  0  0  0  0  0  0
   -1.3970   -2.1700   -0.0620 C   0  0  0  0  0  0  0  0  0  0  0  0
   -0.6520   -2.7270    0.7220 O   0  0  0  0  0  0  0  0  0  0  0  0
   -3.5630    0.8140   -1.1440 P   0  0  0  0  0  0  0  0  0  0  0  0
   -3.1140    2.4410   -1.6070 C   0  0  0  0  0  0  0  0  0  0  0  0
   -1.9050    2.8580   -1.1100 C   0  0  0  0  0  0  0  0  0  0  0  0
   -1.5970    4.0530   -1.4630 O   0  0  0  0  0  0  0  0  0  0  0  0
   -1.0750    2.1460   -0.3300 N   0  0  0  0  0  0  0  0  0  0  0  0
    0.1280    2.8280    0.0470 C   0  0  0  0  0  0  0  0  0  0  0  0
    0.4170    3.9860   -0.3000 O   0  0  0  0  0  0  0  0  0  0  0  0
  1  2  1  0
  2  3  2  0
  2  4  1  0
  4  5  1  0
  5  6  1  0
  6  7  2  3
  7  8  1  0
  8  9  2  0
  8 19  1  0
  9 10  1  0
  9 15  1  0
 10 11  1  6
 10 12  1  0
 10 13  1  0
 13 14  2  0
 15 16  2  0
 16 17  1  0
 17 18  2  0
 17 19  1  0
 19 20  1  0
 20 21  2  0
M  END
