
     RDKit          3D

 21 22  0  0  0  0  0  0  0  0999 V2000
    4.9510    0.3960   -0.2560 C   0  0  0  0  0  0  0  0  0  0  0  0
    3.8970    0.0420    0.7530 C   0  0  0  0  0  0  0  0  0  0  0  0
    2.5500   -0.0930    0.1400 C   0  0  0  0  0  0  0  0  0  0  0  0
    1.5980    0.7360    0.6020 C   0  0  0  0  0  0  0  0  0  0  0  0
    0.2650    0.7020    0.0920 N   0  0  0  0  0  0  0  0  0  0  0  0
   -0.3660    1.8970   -0.3460 N   0  0  0  0  0  0  0  0  0  0  0  0
   -1.3610    1.8110   -1.2020 C   0  0  0  0  0  0  0  0  0  0  0  0
   -2.0380    2.9100   -1.6970 O   0  0  0  0  0  0  0  0  0  0  0  0
   -1.5080    4.2140   -1.4550 C   0  0  0  0  0  0  0  0  0  0  0  0
   -1.6970    0.5360   -1.5840 O   0  0  0  0  0  0  0  0  0  0  0  0
   -1.7490   -0.4160   -0.5490 N   0  0  0  0  0  0  0  0  0  0  0  0
   -2.8100   -0.0230    0.2820 C   0  0  0  0  0  0  0  0  0  0  0  0
   -3.3470   -0.8070    1.3780 C   0  0  0  0  0  0  0  0  0  0  0  0
   -0.4380   -0.5230   -0.0520 C   0  0  2  0  0  0  0  0  0  0  0  0
   -0.2970   -1.5740    0.9990 C   0  0  2  0  0  0  0  0  0  0  0  0
    0.9550   -1.6720    1.5930 O   0  0  0  0  0  0  0  0  0  0  0  0
   -0.5360   -2.8840    0.3230 C   0  0  0  0  0  0  0  0  0  0  0  0
   -1.6490   -3.0330   -0.5140 N   0  0  0  0  0  0  0  0  0  0  0  0
    0.2480   -3.8240    0.5030 O   0  0  0  0  0  0  0  0  0  0  0  0
    0.6390   -1.2520   -1.4880 P   0  0  0  0  0  0  0  0  0  0  0  0
    2.2760   -1.0160   -0.8540 O   0  0  0  0  0  0  0  0  0  0  0  0
  1  2  1  0
  2  3  1  0
  3  4  2  0
  3 21  1  0
  4  5  1  0
  5  6  1  0
  5 14  1  0
  6  7  2  0
  7  8  1  0
  7 10  1  0
  8  9  1  0
 10 11  1  0
 11 12  1  0
 11 14  1  0
 12 13  1  0
 14 15  1  0
 14 20  1  6
 15 16  1  6
 15 17  1  0
 17 18  1  0
 17 19  2  0
 20 21  1  0
M  END
