
     RDKit          3D

 21 21  0  0  0  0  0  0  0  0999 V2000
   -3.4480   -4.5130   -1.1760 C   0  0  0  0  0  0  0  0  0  0  0  0
   -3.8400   -3.5420   -2.2690 C   0  0  0  0  0  0  0  0  0  0  0  0
   -3.2450   -2.2840   -1.9810 N   0  0  0  0  0  0  0  0  0  0  0  0
   -3.5420   -1.3970   -1.1490 C   0  0  0  0  0  0  0  0  0  0  0  0
   -4.6510   -1.5110   -0.2500 C   0  0  0  0  0  0  0  0  0  0  0  0
   -5.3730   -2.5270   -0.2700 O   0  0  0  0  0  0  0  0  0  0  0  0
   -2.5160    0.1170   -1.0740 P   0  0  0  0  0  0  0  0  0  0  0  0
   -1.1190    0.2770   -1.9440 C   0  0  0  0  0  0  0  0  0  0  0  0
   -0.3930    1.5100   -1.8080 N   0  0  0  0  0  0  0  0  0  0  0  0
   -0.3810    2.1110   -0.5570 C   0  0  0  0  0  0  0  0  0  0  0  0
    0.4320    2.2520    0.4020 C   0  0  0  0  0  0  0  0  0  0  0  0
   -0.1310    3.0180    1.5190 O   0  0  0  0  0  0  0  0  0  0  0  0
    1.7890    1.8010    0.5910 C   0  0  0  0  0  0  0  0  0  0  0  0
    2.4570    2.1750    1.7830 C   0  0  0  0  0  0  0  0  0  0  0  0
    3.7380    1.7630    2.0110 C   0  0  0  0  0  0  0  0  0  0  0  0
    4.3850    2.1460    3.2030 O   0  0  0  0  0  0  0  0  0  0  0  0
    5.7110    1.6910    3.3910 C   0  0  0  0  0  0  0  0  0  0  0  0
    4.3490    1.0050    1.0970 N   0  0  0  0  0  0  0  0  0  0  0  0
    3.7720    0.6360   -0.0160 N   0  0  0  0  0  0  0  0  0  0  0  0
    2.4910    1.0280   -0.2800 C   0  0  0  0  0  0  0  0  0  0  0  0
    1.9410    0.5890   -1.4980 O   0  0  0  0  0  0  0  0  0  0  0  0
  1  2  1  0
  2  3  1  0
  3  4  2  3
  4  5  1  0
  4  7  1  0
  5  6  2  0
  7  8  2  3
  8  9  1  0
  9 10  1  0
 10 11  2  3
 11 12  1  0
 11 13  1  0
 13 14  2  0
 13 20  1  0
 14 15  1  0
 15 16  1  0
 15 18  2  0
 16 17  1  0
 18 19  1  0
 19 20  2  0
 20 21  1  0
M  END
