
     RDKit          3D

 21 22  0  0  0  0  0  0  0  0999 V2000
    4.3370    1.3210   -1.6280 C   0  0  0  0  0  0  0  0  0  0  0  0
    3.5280    0.4540   -0.7990 N   0  0  0  0  0  0  0  0  0  0  0  0
    4.2010    0.0710    0.4160 C   0  0  0  0  0  0  0  0  0  0  0  0
    2.2880    0.9150   -0.5940 O   0  0  0  0  0  0  0  0  0  0  0  0
    1.5250   -0.1200   -0.1040 C   0  0  1  0  0  0  0  0  0  0  0  0
    0.7830    0.2520    1.1620 C   0  0  0  0  0  0  0  0  0  0  0  0
   -0.2970   -0.6340    1.3450 N   0  0  0  0  0  0  0  0  0  0  0  0
    0.1500   -1.9860    1.5670 C   0  0  0  0  0  0  0  0  0  0  0  0
    0.9480   -2.1200    2.6770 O   0  0  0  0  0  0  0  0  0  0  0  0
   -1.2010   -0.5420    0.2140 C   0  0  2  0  0  0  0  0  0  0  0  0
   -2.0250    0.6780    0.2110 C   0  0  0  0  0  0  0  0  0  0  0  0
   -3.4700    0.4480    0.1360 C   0  0  0  0  0  0  0  0  0  0  0  0
   -4.3860    1.5920    0.1270 N   0  0  0  0  0  0  0  0  0  0  0  0
   -3.9810   -0.7540    0.0780 C   0  0  0  0  0  0  0  0  0  0  0  0
   -3.1380   -1.9300    0.0830 C   0  0  0  0  0  0  0  0  0  0  0  0
   -3.8010   -3.2270    0.0140 C   0  0  0  0  0  0  0  0  0  0  0  0
   -5.0440   -3.3110   -0.0460 O   0  0  0  0  0  0  0  0  0  0  0  0
   -1.8720   -1.8020    0.1460 N   0  0  0  0  0  0  0  0  0  0  0  0
    0.0670   -0.5000   -1.1990 P   0  0  0  0  0  0  0  0  0  0  0  0
   -0.4110    1.2330   -2.4700 P   0  0  0  0  0  0  0  0  0  0  0  0
    0.0640    3.1320   -1.4950 P   0  0  0  0  0  0  0  0  0  0  0  0
  1  2  1  0
  2  3  1  0
  2  4  1  0
  5  4  1  6
  5  6  1  0
  5 19  1  0
  6  7  1  0
  7  8  1  0
  7 10  1  0
  8  9  1  0
 10 11  1  1
 10 18  1  0
 10 19  1  0
 11 12  1  0
 12 13  1  0
 12 14  2  0
 14 15  1  0
 15 16  1  0
 15 18  2  0
 16 17  2  0
 19 20  1  0
 20 21  1  0
M  END
