
     RDKit          3D

 38 42  0  0  0  0  0  0  0  0999 V2000
    0.2400   -1.2180    2.8050 C   0  0  0  0  0  0  0  0  0  0  0  0
    1.1480   -0.0820    2.5980 C   0  0  0  0  0  0  0  0  0  0  0  0
    1.1700    0.5760    1.2390 C   0  0  0  0  0  0  0  0  0  0  0  0
    1.5000   -0.3700    0.1590 C   0  0  0  0  0  0  0  0  0  0  0  0
    0.5890   -1.1910   -0.4390 C   0  0  0  0  0  0  0  0  0  0  0  0
   -0.8190   -1.2960   -0.2570 C   0  0  0  0  0  0  0  0  0  0  0  0
   -1.3250   -2.4680   -0.7590 O   0  0  0  0  0  0  0  0  0  0  0  0
   -1.8980   -0.6040    0.2590 N   0  0  0  0  0  0  0  0  0  0  0  0
   -3.2310   -1.3460    0.2450 C   0  0  0  0  0  0  0  0  0  0  0  0
   -4.0800   -0.8300   -0.8890 C   0  0  1  0  0  0  0  0  0  0  0  0
   -5.4570   -1.1170   -0.6380 N   0  0  0  0  0  0  0  0  0  0  0  0
   -5.9140   -2.4090   -0.8870 C   0  0  1  0  0  0  0  0  0  0  0  0
   -7.3550   -2.5460   -1.4010 C   0  0  0  0  0  0  0  0  0  0  0  0
   -6.8590   -3.8590   -2.0290 C   0  0  0  0  0  0  0  0  0  0  0  0
   -5.4900   -3.1570   -2.1050 C   0  0  0  0  0  0  0  0  0  0  0  0
   -3.8670    0.6890   -0.8790 C   0  0  0  0  0  0  0  0  0  0  0  0
   -3.5190    1.1450    0.5180 C   0  0  2  0  0  0  0  0  0  0  0  0
   -3.6270    2.6340    0.5500 C   0  0  0  0  0  0  0  0  0  0  0  0
   -3.9430    3.2640   -0.4390 O   0  0  0  0  0  0  0  0  0  0  0  0
   -3.3490    3.3880    1.8010 C   0  0  2  0  0  0  0  0  0  0  0  0
   -4.2920    2.9620    2.9080 C   0  0  0  0  0  0  0  0  0  0  0  0
   -3.4820    4.8710    1.5810 C   0  0  0  0  0  0  0  0  0  0  0  0
   -2.0280    0.7450    0.7250 C   0  0  0  0  0  0  0  0  0  0  0  0
    1.1270   -2.1200   -1.3210 N   0  0  0  0  0  0  0  0  0  0  0  0
    2.4110   -2.2430   -1.6030 C   0  0  0  0  0  0  0  0  0  0  0  0
    2.8260   -3.1260   -2.4280 O   0  0  0  0  0  0  0  0  0  0  0  0
    3.3340   -1.4360   -1.0260 C   0  0  0  0  0  0  0  0  0  0  0  0
    4.7100   -1.3650   -1.1510 C   0  0  0  0  0  0  0  0  0  0  0  0
    5.0970   -0.3480   -0.3140 C   0  0  0  0  0  0  0  0  0  0  0  0
    3.9780    0.1570    0.2800 N   0  0  0  0  0  0  0  0  0  0  0  0
    2.8800   -0.4910   -0.1380 C   0  0  0  0  0  0  0  0  0  0  0  0
    6.5300    0.0270   -0.1820 C   0  0  2  0  0  0  0  0  0  0  0  0
    6.7170    1.4650    0.1660 C   0  0  0  0  0  0  0  0  0  0  0  0
    6.1370    2.4050   -0.8630 C   0  0  0  0  0  0  0  0  0  0  0  0
    6.3720    3.8360   -0.4270 C   0  0  0  0  0  0  0  0  0  0  0  0
    7.2680   -0.4160   -1.4230 C   0  0  0  0  0  0  0  0  0  0  0  0
    7.0620   -1.9360   -1.4890 C   0  0  0  0  0  0  0  0  0  0  0  0
    5.6640   -2.1640   -1.9790 C   0  0  0  0  0  0  0  0  0  0  0  0
  1  2  1  0
  2  3  1  0
  3  4  1  0
  4  5  2  0
  4 31  1  0
  5  6  1  0
  5 24  1  0
  6  7  2  0
  6  8  1  0
  8  9  1  0
  8 23  1  0
  9 10  1  0
 10 11  1  1
 10 16  1  0
 12 11  1  6
 12 13  1  0
 12 15  1  0
 13 14  1  0
 14 15  1  0
 16 17  1  0
 17 18  1  6
 17 23  1  0
 18 19  2  0
 18 20  1  0
 20 21  1  1
 20 22  1  0
 24 25  1  0
 25 26  2  0
 25 27  1  0
 27 28  1  0
 27 31  2  0
 28 29  2  0
 28 38  1  0
 29 30  1  0
 29 32  1  0
 30 31  1  0
 32 33  1  6
 32 36  1  0
 33 34  1  0
 34 35  1  0
 36 37  1  0
 37 38  1  0
M  CHG  1  11   1
M  END
