
     RDKit          3D

 38 41  0  0  0  0  0  0  0  0999 V2000
    8.8940    0.2170   -0.4790 C   0  0  0  0  0  0  0  0  0  0  0  0
    8.3510   -0.6050    0.6710 C   0  0  0  0  0  0  0  0  0  0  0  0
    6.9600   -0.8190    0.4450 N   0  0  0  0  0  0  0  0  0  0  0  0
    6.3200   -1.6000    1.4880 C   0  0  0  0  0  0  0  0  0  0  0  0
    4.8480   -1.2710    1.4140 C   0  0  0  0  0  0  0  0  0  0  0  0
    4.2740   -1.4090    0.0420 C   0  0  1  0  0  0  0  0  0  0  0  0
    3.4310   -0.2520   -0.2000 N   0  0  0  0  0  0  0  0  0  0  0  0
    2.0410   -0.2880   -0.2970 C   0  0  0  0  0  0  0  0  0  0  0  0
    1.4680   -1.3960   -0.1680 O   0  0  0  0  0  0  0  0  0  0  0  0
    1.2780    0.9420   -0.5430 C   0  0  0  0  0  0  0  0  0  0  0  0
   -0.0370    0.8020   -0.6140 C   0  0  0  0  0  0  0  0  0  0  0  0
   -0.9150    1.9040   -0.8500 C   0  0  0  0  0  0  0  0  0  0  0  0
   -2.2210    1.7590   -0.9050 C   0  0  0  0  0  0  0  0  0  0  0  0
   -3.0610    0.6810   -0.7750 N   0  0  0  0  0  0  0  0  0  0  0  0
   -2.9370   -0.6730   -0.5190 C   0  0  0  0  0  0  0  0  0  0  0  0
   -1.8870   -1.2550   -0.3280 O   0  0  0  0  0  0  0  0  0  0  0  0
   -4.1630   -1.5620   -0.4570 C   0  0  0  0  0  0  0  0  0  0  0  0
   -4.0230   -2.8340   -0.2100 C   0  0  0  0  0  0  0  0  0  0  0  0
   -5.1470   -3.7310   -0.1380 C   0  0  0  0  0  0  0  0  0  0  0  0
   -4.9470   -5.0820    0.1440 C   0  0  0  0  0  0  0  0  0  0  0  0
   -5.9910   -5.9700    0.2170 C   0  0  0  0  0  0  0  0  0  0  0  0
   -7.2340   -5.5180    0.0110 N   0  0  0  0  0  0  0  0  0  0  0  0
   -7.5190   -4.2470   -0.2630 C   0  0  0  0  0  0  0  0  0  0  0  0
   -6.4490   -3.3480   -0.3360 C   0  0  0  0  0  0  0  0  0  0  0  0
   -2.8930    3.0940   -1.1220 C   0  0  0  0  0  0  0  0  0  0  0  0
   -3.7080    3.6300   -0.2830 C   0  0  0  0  0  0  0  0  0  0  0  0
   -4.1830    3.1920    0.9880 C   0  0  0  0  0  0  0  0  0  0  0  0
   -4.7900    2.0970    1.4630 C   0  0  0  0  0  0  0  0  0  0  0  0
   -5.0040    2.2610    2.8400 C   0  0  0  0  0  0  0  0  0  0  0  0
   -4.5010    3.4900    3.1420 C   0  0  0  0  0  0  0  0  0  0  0  0
   -4.4720    4.1610    4.4760 C   0  0  0  0  0  0  0  0  0  0  0  0
   -4.0340    4.0110    2.0710 O   0  0  0  0  0  0  0  0  0  0  0  0
   -2.4340    3.8370   -2.3640 C   0  0  0  0  0  0  0  0  0  0  0  0
   -0.9210    3.8510   -2.3850 C   0  0  0  0  0  0  0  0  0  0  0  0
   -0.4000    3.3020   -1.0600 C   0  0  0  0  0  0  0  0  0  0  0  0
    5.2110   -1.5830   -1.0740 C   0  0  1  0  0  0  0  0  0  0  0  0
    4.9100   -0.5960   -2.2140 C   0  0  0  0  0  0  0  0  0  0  0  0
    6.6620   -1.4750   -0.7900 C   0  0  0  0  0  0  0  0  0  0  0  0
  1  2  1  0
  2  3  1  0
  3  4  1  0
  3 38  1  0
  4  5  1  0
  5  6  1  0
  6  7  1  6
  6 36  1  0
  7  8  1  0
  8  9  2  0
  8 10  1  0
 10 11  2  3
 11 12  1  0
 12 13  2  0
 12 35  1  0
 13 14  1  0
 13 25  1  0
 14 15  1  0
 15 16  2  0
 15 17  1  0
 17 18  2  3
 18 19  1  0
 19 20  2  0
 19 24  1  0
 20 21  1  0
 21 22  2  0
 22 23  1  0
 23 24  2  0
 25 26  2  3
 25 33  1  0
 26 27  1  0
 27 28  2  0
 27 32  1  0
 28 29  1  0
 29 30  2  0
 30 31  1  0
 30 32  1  0
 33 34  1  0
 34 35  1  0
 36 37  1  6
 36 38  1  0
M  CHG  1  22   1
M  END
