
     RDKit          3D

 38 41  0  0  0  0  0  0  0  0999 V2000
    5.3440    5.0820    0.6830 C   0  0  0  0  0  0  0  0  0  0  0  0
    4.6310    3.8800    1.0220 N   0  0  0  0  0  0  0  0  0  0  0  0
    3.2210    3.8180    0.7720 C   0  0  0  0  0  0  0  0  0  0  0  0
    2.5380    4.8790    0.2170 C   0  0  0  0  0  0  0  0  0  0  0  0
    1.1820    4.8100   -0.0190 C   0  0  0  0  0  0  0  0  0  0  0  0
    0.4870    3.6700    0.2990 C   0  0  0  0  0  0  0  0  0  0  0  0
    1.1120    2.5790    0.8530 C   0  0  0  0  0  0  0  0  0  0  0  0
    0.3870    1.3440    1.2090 C   0  0  0  0  0  0  0  0  0  0  0  0
    0.3820    0.2830    0.2580 N   0  0  1  0  0  0  0  0  0  0  0  0
   -0.3540    0.6050   -0.8980 C   0  0  0  0  0  0  0  0  0  0  0  0
   -1.6300   -0.1200   -1.1690 C   0  0  0  0  0  0  0  0  0  0  0  0
   -2.5780   -0.2600   -0.0380 C   0  0  1  0  0  0  0  0  0  0  0  0
   -3.3560    1.0020   -0.0420 N   0  0  0  0  0  0  0  0  0  0  0  0
   -3.4930    2.0120    0.9770 C   0  0  0  0  0  0  0  0  0  0  0  0
   -4.7920    2.7500    0.6820 C   0  0  0  0  0  0  0  0  0  0  0  0
   -4.6870    2.8350   -0.8420 C   0  0  0  0  0  0  0  0  0  0  0  0
   -4.1670    1.4760   -1.1380 C   0  0  0  0  0  0  0  0  0  0  0  0
   -4.4320    0.8770   -2.2090 O   0  0  0  0  0  0  0  0  0  0  0  0
   -3.4800   -1.4520   -0.0750 C   0  0  0  0  0  0  0  0  0  0  0  0
   -4.8150   -1.1160    0.2210 C   0  0  0  0  0  0  0  0  0  0  0  0
   -5.8570   -2.0130    0.2580 C   0  0  0  0  0  0  0  0  0  0  0  0
   -5.5800   -3.3230   -0.0120 C   0  0  0  0  0  0  0  0  0  0  0  0
   -4.2810   -3.6570   -0.3000 C   0  0  0  0  0  0  0  0  0  0  0  0
   -3.2070   -2.7430   -0.3390 C   0  0  0  0  0  0  0  0  0  0  0  0
   -1.9290   -3.4100   -0.6600 C   0  0  0  0  0  0  0  0  0  0  0  0
   -0.8070   -3.2300    0.2820 C   0  0  0  0  0  0  0  0  0  0  0  0
    0.4290   -2.9500   -0.2530 O   0  0  0  0  0  0  0  0  0  0  0  0
    1.0150   -2.2990   -1.2460 C   0  0  0  0  0  0  0  0  0  0  0  0
    1.6080   -1.0990   -1.2360 C   0  0  0  0  0  0  0  0  0  0  0  0
    1.7500   -0.1970   -0.0710 C   0  0  2  0  0  0  0  0  0  0  0  0
    2.3630   -0.8600    1.0950 C   0  0  0  0  0  0  0  0  0  0  0  0
    3.7620   -1.3290    0.9390 C   0  0  0  0  0  0  0  0  0  0  0  0
    3.9440   -2.2980   -0.1430 C   0  0  0  0  0  0  0  0  0  0  0  0
    4.3630   -3.5460    0.0870 C   0  0  0  0  0  0  0  0  0  0  0  0
    4.5370   -4.4860   -0.9950 C   0  0  0  0  0  0  0  0  0  0  0  0
    4.9780   -5.8130   -0.7910 N   0  0  0  0  0  0  0  0  0  0  0  0
    4.2910   -4.1340   -2.1810 O   0  0  0  0  0  0  0  0  0  0  0  0
    2.4790    2.6950    1.0740 C   0  0  0  0  0  0  0  0  0  0  0  0
  1  2  1  0
  2  3  1  0
  3  4  2  0
  3 38  1  0
  4  5  1  0
  5  6  2  0
  6  7  1  0
  7  8  1  0
  7 38  2  0
  9  8  1  1
  9 10  1  0
  9 30  1  0
 10 11  1  0
 11 12  1  0
 12 13  1  6
 12 19  1  0
 13 14  1  0
 13 17  1  0
 14 15  1  0
 15 16  1  0
 16 17  1  0
 17 18  2  0
 19 20  2  0
 19 24  1  0
 20 21  1  0
 21 22  2  0
 22 23  1  0
 23 24  2  0
 24 25  1  0
 25 26  1  0
 26 27  1  0
 27 28  1  0
 28 29  2  0
 29 30  1  0
 30 31  1  1
 31 32  1  0
 32 33  1  0
 33 34  2  3
 34 35  1  0
 35 36  1  0
 35 37  2  0
M  CHG  1   9   1
M  END
