
     RDKit          3D

 38 41  0  0  0  0  0  0  0  0999 V2000
    7.8510    1.3250    0.2430 C   0  0  0  0  0  0  0  0  0  0  0  0
    6.4650    1.0450    0.7190 C   0  0  0  0  0  0  0  0  0  0  0  0
    6.2570   -0.2000    1.4860 C   0  0  0  0  0  0  0  0  0  0  0  0
    6.5090   -1.5160    0.8470 C   0  0  2  0  0  0  0  0  0  0  0  0
    7.9030   -1.7560    0.3250 C   0  0  0  0  0  0  0  0  0  0  0  0
    7.9070   -3.2160   -0.1330 C   0  0  0  0  0  0  0  0  0  0  0  0
    7.0190   -3.4200   -1.3330 C   0  0  0  0  0  0  0  0  0  0  0  0
    5.8960   -2.4010   -1.4350 C   0  0  2  0  0  0  0  0  0  0  0  0
    6.2520   -1.3530   -2.3830 C   0  0  0  0  0  0  0  0  0  0  0  0
    5.4430   -2.0530   -0.0510 C   0  0  2  0  0  0  0  0  0  0  0  0
    4.1460   -1.4660    0.0730 N   0  0  0  0  0  0  0  0  0  0  0  0
    3.6950   -0.5190   -0.7060 N   0  0  0  0  0  0  0  0  0  0  0  0
    2.4720    0.0640   -0.6140 C   0  0  0  0  0  0  0  0  0  0  0  0
    2.1930    0.9800   -1.4670 O   0  0  0  0  0  0  0  0  0  0  0  0
    1.5950   -0.3310    0.3560 C   0  0  0  0  0  0  0  0  0  0  0  0
    0.2840    0.2900    0.5230 C   0  0  0  0  0  0  0  0  0  0  0  0
   -0.5350   -0.4010    1.2270 O   0  0  0  0  0  0  0  0  0  0  0  0
   -0.1360    1.5180    0.0100 N   0  0  0  0  0  0  0  0  0  0  0  0
   -1.4010    2.1130    0.1630 C   0  0  0  0  0  0  0  0  0  0  0  0
   -1.5440    3.4810   -0.1370 C   0  0  0  0  0  0  0  0  0  0  0  0
   -2.7530    4.1250   -0.0260 C   0  0  0  0  0  0  0  0  0  0  0  0
   -2.8640    5.5890   -0.3560 C   0  0  0  0  0  0  0  0  0  0  0  0
   -3.8800    3.4470    0.3890 C   0  0  0  0  0  0  0  0  0  0  0  0
   -3.7770    2.1110    0.6900 C   0  0  0  0  0  0  0  0  0  0  0  0
   -4.8860    1.3290    1.1200 N   0  0  0  0  0  0  0  0  0  0  0  0
   -5.5130    0.8120   -0.0780 C   0  0  2  0  0  0  0  0  0  0  0  0
   -6.2200    1.8650   -0.8840 C   0  0  0  0  0  0  0  0  0  0  0  0
   -7.3450    2.4910   -0.0800 C   0  0  0  0  0  0  0  0  0  0  0  0
   -8.3610    1.4020    0.1860 C   0  0  0  0  0  0  0  0  0  0  0  0
   -7.8880    0.0310   -0.2090 C   0  0  0  0  0  0  0  0  0  0  0  0
   -6.4990   -0.2560    0.2730 C   0  0  1  0  0  0  0  0  0  0  0  0
   -6.0020   -1.5550   -0.3110 C   0  0  0  0  0  0  0  0  0  0  0  0
   -6.9330   -2.6970   -0.0080 C   0  0  0  0  0  0  0  0  0  0  0  0
   -6.3640   -3.9640   -0.6270 C   0  0  0  0  0  0  0  0  0  0  0  0
   -2.5410    1.4820    0.5690 C   0  0  0  0  0  0  0  0  0  0  0  0
    2.0220   -1.3380    1.2140 C   0  0  0  0  0  0  0  0  0  0  0  0
    3.2660   -1.8730    1.0560 C   0  0  0  0  0  0  0  0  0  0  0  0
    3.6550   -2.7960    1.8460 O   0  0  0  0  0  0  0  0  0  0  0  0
  1  2  1  0
  2  3  1  0
  4  3  1  6
  4  5  1  0
  4 10  1  0
  5  6  1  0
  6  7  1  0
  7  8  1  0
  8  9  1  1
  8 10  1  0
 10 11  1  6
 11 12  1  0
 11 37  1  0
 12 13  1  0
 13 14  2  0
 13 15  1  0
 15 16  1  0
 15 36  2  0
 16 17  2  0
 16 18  1  0
 18 19  1  0
 19 20  2  0
 19 35  1  0
 20 21  1  0
 21 22  1  0
 21 23  2  0
 23 24  1  0
 24 25  1  0
 24 35  2  0
 26 25  1  1
 26 27  1  0
 26 31  1  0
 27 28  1  0
 28 29  1  0
 29 30  1  0
 30 31  1  0
 31 32  1  6
 32 33  1  0
 33 34  1  0
 36 37  1  0
 37 38  2  0
M  CHG  1  25   1
M  END
