
     RDKit          3D

 38 41  0  0  0  0  0  0  0  0999 V2000
   12.0660    1.9160   -1.8950 C   0  0  0  0  0  0  0  0  0  0  0  0
   10.7480    1.8520   -1.2770 N   0  0  0  0  0  0  0  0  0  0  0  0
   10.2040    0.5370   -1.5660 C   0  0  0  0  0  0  0  0  0  0  0  0
    8.8540    0.4170   -0.9560 C   0  0  0  0  0  0  0  0  0  0  0  0
    8.2550    1.4530   -0.2740 C   0  0  0  0  0  0  0  0  0  0  0  0
    7.0040    1.3200    0.2840 C   0  0  0  0  0  0  0  0  0  0  0  0
    6.2660    0.1290    0.1940 C   0  0  0  0  0  0  0  0  0  0  0  0
    4.9780    0.0920    0.7920 N   0  0  0  0  0  0  0  0  0  0  0  0
    4.1990   -1.0490    0.9820 C   0  0  0  0  0  0  0  0  0  0  0  0
    4.5790   -2.1700    0.6360 O   0  0  0  0  0  0  0  0  0  0  0  0
    2.8380   -0.8560    1.6450 C   0  0  2  0  0  0  0  0  0  0  0  0
    3.1310   -0.3720    3.0160 C   0  0  0  0  0  0  0  0  0  0  0  0
    2.6430   -1.2800    4.0650 C   0  0  0  0  0  0  0  0  0  0  0  0
    1.9880   -2.4060    3.8380 C   0  0  0  0  0  0  0  0  0  0  0  0
    1.7060   -2.8240    2.4740 C   0  0  0  0  0  0  0  0  0  0  0  0
    2.1000   -2.1010    1.4650 C   0  0  0  0  0  0  0  0  0  0  0  0
    1.7860   -2.4970    0.0390 C   0  0  0  0  0  0  0  0  0  0  0  0
    1.0650   -1.5200   -0.5740 O   0  0  0  0  0  0  0  0  0  0  0  0
   -0.1630   -1.0330   -0.3100 C   0  0  0  0  0  0  0  0  0  0  0  0
   -1.0020   -1.4660    0.6830 C   0  0  0  0  0  0  0  0  0  0  0  0
   -2.2650   -0.8830    0.8740 C   0  0  0  0  0  0  0  0  0  0  0  0
   -2.6990    0.1470    0.0630 C   0  0  0  0  0  0  0  0  0  0  0  0
   -4.0440    0.7140    0.3250 C   0  0  0  0  0  0  0  0  0  0  0  0
   -5.1150    0.0100   -0.4310 C   0  0  0  0  0  0  0  0  0  0  0  0
   -4.7330   -0.9220   -1.1720 O   0  0  0  0  0  0  0  0  0  0  0  0
   -6.4750    0.3370   -0.3480 N   0  0  0  0  0  0  0  0  0  0  0  0
   -6.8390    1.4420    0.5360 C   0  0  2  0  0  0  0  0  0  0  0  0
   -7.3700    0.8510    1.8140 C   0  0  0  0  0  0  0  0  0  0  0  0
   -7.8300    2.3640   -0.1380 C   0  0  0  0  0  0  0  0  0  0  0  0
   -9.0450    1.6680   -0.6410 C   0  0  0  0  0  0  0  0  0  0  0  0
   -8.9570    1.1670   -1.9910 N   0  0  0  0  0  0  0  0  0  0  0  0
   -7.7760    0.4450   -2.3170 C   0  0  0  0  0  0  0  0  0  0  0  0
   -7.3860   -0.4280   -1.1420 C   0  0  1  0  0  0  0  0  0  0  0  0
   -6.9410   -1.7910   -1.5270 C   0  0  0  0  0  0  0  0  0  0  0  0
   -1.8770    0.5970   -0.9390 C   0  0  0  0  0  0  0  0  0  0  0  0
   -0.6560    0.0220   -1.1120 C   0  0  0  0  0  0  0  0  0  0  0  0
    6.8610   -0.8970   -0.4820 C   0  0  0  0  0  0  0  0  0  0  0  0
    8.1410   -0.7550   -1.0510 C   0  0  0  0  0  0  0  0  0  0  0  0
  1  2  1  0
  2  3  1  0
  3  4  1  0
  4  5  2  0
  4 38  1  0
  5  6  1  0
  6  7  2  0
  7  8  1  0
  7 37  1  0
  8  9  1  0
  9 10  2  0
 11  9  1  6
 11 12  1  0
 11 16  1  0
 12 13  1  0
 13 14  2  0
 14 15  1  0
 15 16  2  0
 16 17  1  0
 17 18  1  0
 18 19  1  0
 19 20  2  0
 19 36  1  0
 20 21  1  0
 21 22  2  0
 22 23  1  0
 22 35  1  0
 23 24  1  0
 24 25  2  0
 24 26  1  0
 26 27  1  0
 26 33  1  0
 27 28  1  1
 27 29  1  0
 29 30  1  0
 30 31  1  0
 31 32  1  0
 32 33  1  0
 33 34  1  6
 35 36  2  0
 37 38  2  0
M  CHG  1  31   1
M  END
