
     RDKit          3D

 45 50  0  0  0  0  0  0  0  0999 V2000
    0.0720    3.6680   -1.6980 C   0  0  0  0  0  0  0  0  0  0  0  0
   -0.6370    2.3640   -1.3230 C   0  0  0  0  0  0  0  0  0  0  0  0
    0.2030    1.2250   -1.4120 C   0  0  0  0  0  0  0  0  0  0  0  0
   -0.3280   -0.1740   -1.6370 C   0  0  0  0  0  0  0  0  0  0  0  0
   -0.7770   -0.5070   -2.9950 O   0  0  0  0  0  0  0  0  0  0  0  0
   -0.3780   -1.0640   -0.5930 C   0  0  0  0  0  0  0  0  0  0  0  0
   -0.8650   -0.7740    0.7730 C   0  0  0  0  0  0  0  0  0  0  0  0
   -0.5990    0.0150    1.7220 O   0  0  0  0  0  0  0  0  0  0  0  0
   -2.0280   -1.6070    1.3260 C   0  0  0  0  0  0  0  0  0  0  0  0
   -2.3070   -2.6980    0.3680 C   0  0  1  0  0  0  0  0  0  0  0  0
   -3.1360   -2.4170   -0.7990 C   0  0  0  0  0  0  0  0  0  0  0  0
   -4.5930   -2.3700   -0.7260 C   0  0  0  0  0  0  0  0  0  0  0  0
   -5.4230   -1.5470    0.1070 C   0  0  0  0  0  0  0  0  0  0  0  0
   -5.8840   -0.1680   -0.4260 C   0  0  1  0  0  0  0  0  0  0  0  0
   -7.1150    0.2720    0.3210 C   0  0  0  0  0  0  0  0  0  0  0  0
   -4.6860    0.7690   -0.4360 C   0  0  0  0  0  0  0  0  0  0  0  0
   -4.0660    0.8630   -1.6640 C   0  0  0  0  0  0  0  0  0  0  0  0
   -2.8380    1.4830   -1.8690 C   0  0  0  0  0  0  0  0  0  0  0  0
   -2.0590    2.0890   -0.8910 C   0  0  0  0  0  0  0  0  0  0  0  0
   -2.6770    2.0330    0.3820 C   0  0  0  0  0  0  0  0  0  0  0  0
   -2.1840    2.5930    1.5100 N   0  0  0  0  0  0  0  0  0  0  0  0
   -2.6260    2.6720    2.7610 C   0  0  0  0  0  0  0  0  0  0  0  0
   -3.7990    2.0910    2.9990 C   0  0  0  0  0  0  0  0  0  0  0  0
   -4.3810    1.4950    1.9210 C   0  0  0  0  0  0  0  0  0  0  0  0
   -3.9530    1.3920    0.6060 C   0  0  0  0  0  0  0  0  0  0  0  0
   -1.0030   -3.2880    0.1730 N   0  0  0  0  0  0  0  0  0  0  0  0
   -0.0010   -2.5200   -0.5210 C   0  0  2  0  0  0  0  0  0  0  0  0
    1.3600   -2.8020    0.0250 C   0  0  0  0  0  0  0  0  0  0  0  0
    1.6360   -2.5690    1.4550 C   0  0  0  0  0  0  0  0  0  0  0  0
    2.9650   -3.0480    1.7030 O   0  0  0  0  0  0  0  0  0  0  0  0
    4.1120   -2.3550    1.8160 C   0  0  0  0  0  0  0  0  0  0  0  0
    4.7610   -2.4170    2.9280 O   0  0  0  0  0  0  0  0  0  0  0  0
    4.7440   -1.4940    0.7580 C   0  0  0  0  0  0  0  0  0  0  0  0
    5.5380   -0.5120    1.4010 O   0  0  0  0  0  0  0  0  0  0  0  0
    6.3960    0.3860    0.7380 C   0  0  0  0  0  0  0  0  0  0  0  0
    7.7640    0.4060    0.9490 C   0  0  0  0  0  0  0  0  0  0  0  0
    8.6300    1.2650    0.3120 C   0  0  0  0  0  0  0  0  0  0  0  0
    8.1330    2.1640   -0.5870 C   0  0  0  0  0  0  0  0  0  0  0  0
    6.7690    2.1540   -0.8030 C   0  0  0  0  0  0  0  0  0  0  0  0
    5.8780    1.3050   -0.1770 C   0  0  0  0  0  0  0  0  0  0  0  0
    4.4890    1.3390   -0.4240 O   0  0  0  0  0  0  0  0  0  0  0  0
    3.4980    1.5950    0.5230 C   0  0  0  0  0  0  0  0  0  0  0  0
    2.1170    1.1970    0.1960 C   0  0  0  0  0  0  0  0  0  0  0  0
    1.6250    1.5380   -1.1840 C   0  0  1  0  0  0  0  0  0  0  0  0
    2.6240    0.9560   -2.1330 C   0  0  0  0  0  0  0  0  0  0  0  0
  1  2  1  0
  2  3  2  0
  2 19  1  0
  3  4  1  0
  3 44  1  0
  4  5  1  0
  4  6  2  0
  6  7  1  0
  6 27  1  0
  7  8  2  0
  7  9  1  0
  9 10  1  0
 10 11  1  6
 10 26  1  0
 11 12  1  0
 12 13  1  0
 13 14  1  0
 14 15  1  1
 14 16  1  0
 16 17  2  0
 16 25  1  0
 17 18  1  0
 18 19  2  0
 19 20  1  0
 20 21  2  0
 20 25  1  0
 21 22  1  0
 22 23  2  0
 23 24  1  0
 24 25  2  0
 26 27  1  0
 27 28  1  1
 28 29  1  0
 29 30  1  0
 30 31  1  0
 31 32  2  0
 31 33  1  0
 33 34  1  0
 34 35  1  0
 35 36  2  0
 35 40  1  0
 36 37  1  0
 37 38  2  0
 38 39  1  0
 39 40  2  0
 40 41  1  0
 41 42  1  0
 42 43  1  0
 43 44  1  0
 44 45  1  6
M  CHG  2  21   1  26   1
M  END
