
     RDKit          3D

 45 51  0  0  0  0  0  0  0  0999 V2000
   -4.9710   -4.9230    0.1310 C   0  0  0  0  0  0  0  0  0  0  0  0
   -4.4280   -3.5370   -0.2650 C   0  0  2  0  0  0  0  0  0  0  0  0
   -5.0100   -3.2450   -1.4970 O   0  0  0  0  0  0  0  0  0  0  0  0
   -5.4970   -2.0420   -1.9490 C   0  0  0  0  0  0  0  0  0  0  0  0
   -6.6770   -1.9290   -2.3680 O   0  0  0  0  0  0  0  0  0  0  0  0
   -4.6290   -0.8570   -1.9500 C   0  0  0  0  0  0  0  0  0  0  0  0
   -4.7780    0.0000   -0.7910 N   0  0  2  0  0  0  0  0  0  0  0  0
   -5.9900    0.7920   -0.9730 C   0  0  0  0  0  0  0  0  0  0  0  0
   -6.4220    1.4990    0.2870 C   0  0  1  0  0  0  0  0  0  0  0  0
   -5.4600    2.3770    0.7550 O   0  0  0  0  0  0  0  0  0  0  0  0
   -6.0700    3.3480    1.5110 C   0  0  0  0  0  0  0  0  0  0  0  0
   -7.5070    3.4340    1.0850 C   0  0  0  0  0  0  0  0  0  0  0  0
   -7.5850    2.3790   -0.0230 C   0  0  1  0  0  0  0  0  0  0  0  0
   -7.4000    3.0890   -1.3290 C   0  0  0  0  0  0  0  0  0  0  0  0
   -3.5980    0.8450   -0.7440 C   0  0  0  0  0  0  0  0  0  0  0  0
   -2.8170    0.7040    0.5450 C   0  0  0  0  0  0  0  0  0  0  0  0
   -1.6140   -0.0390    0.3030 N   0  0  0  0  0  0  0  0  0  0  0  0
   -1.3200   -0.9300    1.4080 C   0  0  2  0  0  0  0  0  0  0  0  0
    0.0350   -1.4640    1.3660 C   0  0  0  0  0  0  0  0  0  0  0  0
    0.3020   -2.7990    1.5590 C   0  0  0  0  0  0  0  0  0  0  0  0
    1.5880   -3.3310    1.5290 C   0  0  0  0  0  0  0  0  0  0  0  0
    2.6410   -2.4710    1.2950 C   0  0  0  0  0  0  0  0  0  0  0  0
    3.9450   -2.6190    1.2020 O   0  0  0  0  0  0  0  0  0  0  0  0
    4.5580   -1.4930    0.9640 C   0  0  0  0  0  0  0  0  0  0  0  0
    5.8770   -1.1160    0.7850 C   0  0  0  0  0  0  0  0  0  0  0  0
    6.2700    0.1930    0.5370 C   0  0  0  0  0  0  0  0  0  0  0  0
    7.7130    0.4590    0.4130 C   0  0  0  0  0  0  0  0  0  0  0  0
    8.2650    1.0810   -0.6120 C   0  0  0  0  0  0  0  0  0  0  0  0
    7.4400    1.5470   -1.7190 C   0  0  0  0  0  0  0  0  0  0  0  0
    7.9810    2.1800   -2.7240 C   0  0  0  0  0  0  0  0  0  0  0  0
    9.4150    2.4800   -2.8480 C   0  0  0  0  0  0  0  0  0  0  0  0
   10.2060    1.9880   -1.7080 C   0  0  0  0  0  0  0  0  0  0  0  0
    9.6990    1.3440   -0.6730 C   0  0  0  0  0  0  0  0  0  0  0  0
   10.6080    0.8950    0.4090 C   0  0  0  0  0  0  0  0  0  0  0  0
    9.8950    0.2170    1.4910 C   0  0  0  0  0  0  0  0  0  0  0  0
    8.6120    0.0200    1.5020 C   0  0  0  0  0  0  0  0  0  0  0  0
    5.3000    1.1640    0.4680 C   0  0  0  0  0  0  0  0  0  0  0  0
    3.9620    0.8270    0.6420 C   0  0  0  0  0  0  0  0  0  0  0  0
    3.6210   -0.4860    0.8850 C   0  0  0  0  0  0  0  0  0  0  0  0
    2.3990   -1.1300    1.0990 C   0  0  0  0  0  0  0  0  0  0  0  0
    1.1250   -0.6470    1.1350 C   0  0  0  0  0  0  0  0  0  0  0  0
   -2.3140   -2.0650    1.3940 C   0  0  0  0  0  0  0  0  0  0  0  0
   -2.0980   -2.8260    0.2360 O   0  0  0  0  0  0  0  0  0  0  0  0
   -2.9510   -3.7210   -0.3370 C   0  0  0  0  0  0  0  0  0  0  0  0
   -2.5160   -4.7510   -0.9560 O   0  0  0  0  0  0  0  0  0  0  0  0
  2  1  1  6
  2  3  1  0
  2 44  1  0
  3  4  1  0
  4  5  2  0
  4  6  1  0
  6  7  1  0
  7  8  1  6
  7 15  1  0
  9  8  1  6
  9 10  1  0
  9 13  1  0
 10 11  1  0
 11 12  1  0
 12 13  1  0
 13 14  1  6
 15 16  1  0
 16 17  1  0
 17 18  1  0
 18 19  1  6
 18 42  1  0
 19 20  2  0
 19 41  1  0
 20 21  1  0
 21 22  2  0
 22 23  1  0
 22 40  1  0
 23 24  1  0
 24 25  2  0
 24 39  1  0
 25 26  1  0
 26 27  1  0
 26 37  2  0
 27 28  2  0
 27 36  1  0
 28 29  1  0
 28 33  1  0
 29 30  2  0
 30 31  1  0
 31 32  1  0
 32 33  2  0
 33 34  1  0
 34 35  1  0
 35 36  2  0
 37 38  1  0
 38 39  2  0
 39 40  1  0
 40 41  2  0
 42 43  1  0
 43 44  1  0
 44 45  2  0
M  CHG  2   7   1  17   1
M  END
