
     RDKit          3D

 45 50  0  0  0  0  0  0  0  0999 V2000
    5.0980    1.5620   -0.4570 C   0  0  0  0  0  0  0  0  0  0  0  0
    5.0540    0.0810   -0.6530 C   0  0  2  0  0  0  0  0  0  0  0  0
    4.4400   -0.2100   -2.0330 C   0  0  0  0  0  0  0  0  0  0  0  0
    3.0060   -0.6440   -1.9910 C   0  0  0  0  0  0  0  0  0  0  0  0
    1.9350   -0.1040   -2.5830 C   0  0  0  0  0  0  0  0  0  0  0  0
    0.7630   -0.7780   -2.3630 C   0  0  0  0  0  0  0  0  0  0  0  0
    0.5580   -1.9380   -1.6280 C   0  0  0  0  0  0  0  0  0  0  0  0
    1.7250   -2.5030   -0.9970 C   0  0  0  0  0  0  0  0  0  0  0  0
    2.8780   -1.8840   -1.1650 C   0  0  0  0  0  0  0  0  0  0  0  0
    4.1510   -1.9890   -0.4460 C   0  0  0  0  0  0  0  0  0  0  0  0
    5.1230   -2.6810   -0.2380 O   0  0  0  0  0  0  0  0  0  0  0  0
    4.2140   -0.6320    0.3390 C   0  0  1  0  0  0  0  0  0  0  0  0
    4.6220   -0.8110    1.7270 C   0  0  0  0  0  0  0  0  0  0  0  0
    3.4650   -1.5390    2.3770 C   0  0  0  0  0  0  0  0  0  0  0  0
    2.3950   -1.0860    2.9470 C   0  0  0  0  0  0  0  0  0  0  0  0
    1.8510    0.2290    3.2020 C   0  0  0  0  0  0  0  0  0  0  0  0
    2.0670    0.7900    4.4720 C   0  0  0  0  0  0  0  0  0  0  0  0
    1.6020    2.0230    4.8690 C   0  0  0  0  0  0  0  0  0  0  0  0
    0.8750    2.7900    4.0070 C   0  0  0  0  0  0  0  0  0  0  0  0
    0.6410    2.2740    2.7540 C   0  0  0  0  0  0  0  0  0  0  0  0
    1.1010    1.0360    2.3370 C   0  0  0  0  0  0  0  0  0  0  0  0
    0.6820    0.7060    0.9570 C   0  0  0  0  0  0  0  0  0  0  0  0
   -0.7830    0.8180    0.7480 N   0  0  0  0  0  0  0  0  0  0  0  0
   -1.2850    1.8350   -0.1120 C   0  0  0  0  0  0  0  0  0  0  0  0
   -1.4890    1.5250   -1.5680 C   0  0  1  0  0  0  0  0  0  0  0  0
   -2.8830    2.0520   -1.9450 C   0  0  0  0  0  0  0  0  0  0  0  0
   -2.9940    3.5330   -1.8160 C   0  0  0  0  0  0  0  0  0  0  0  0
   -2.0310    4.2370   -2.7550 C   0  0  0  0  0  0  0  0  0  0  0  0
   -0.6600    3.6810   -2.6800 C   0  0  0  0  0  0  0  0  0  0  0  0
   -0.4910    2.2350   -2.4270 C   0  0  0  0  0  0  0  0  0  0  0  0
   -1.4770    0.0590   -1.9070 C   0  0  0  0  0  0  0  0  0  0  0  0
   -0.4970   -0.3200   -2.8810 O   0  0  0  0  0  0  0  0  0  0  0  0
   -1.5790   -0.1310    1.4730 C   0  0  0  0  0  0  0  0  0  0  0  0
   -1.0390   -0.7860    2.4320 O   0  0  0  0  0  0  0  0  0  0  0  0
   -2.9980   -0.4390    1.2220 C   0  0  0  0  0  0  0  0  0  0  0  0
   -3.2310   -1.9430    1.3850 C   0  0  1  0  0  0  0  0  0  0  0  0
   -4.4770   -2.1030    2.2270 C   0  0  0  0  0  0  0  0  0  0  0  0
   -5.6610   -1.4780    1.5790 C   0  0  0  0  0  0  0  0  0  0  0  0
   -6.7540   -1.5070    2.1060 O   0  0  0  0  0  0  0  0  0  0  0  0
   -3.4160   -2.6130    0.1160 N   0  0  0  0  0  0  0  0  0  0  0  0
   -2.5440   -3.7580   -0.0300 C   0  0  0  0  0  0  0  0  0  0  0  0
   -2.3690   -4.1980   -1.4590 C   0  0  0  0  0  0  0  0  0  0  0  0
   -1.6980   -3.0280   -2.1790 C   0  0  0  0  0  0  0  0  0  0  0  0
   -2.2600   -2.7810   -3.2630 O   0  0  0  0  0  0  0  0  0  0  0  0
   -0.6690   -2.5280   -1.5010 O   0  0  0  0  0  0  0  0  0  0  0  0
  2  1  1  1
  2  3  1  0
  2 12  1  0
  3  4  1  0
  4  5  2  0
  4  9  1  0
  5  6  1  0
  6  7  2  0
  6 32  1  0
  7  8  1  0
  7 45  1  0
  8  9  2  0
  9 10  1  0
 10 11  2  0
 10 12  1  0
 12 13  1  1
 13 14  1  0
 14 15  2  0
 15 16  1  0
 16 17  2  0
 16 21  1  0
 17 18  1  0
 18 19  2  0
 19 20  1  0
 20 21  2  0
 21 22  1  0
 22 23  1  0
 23 24  1  0
 23 33  1  0
 24 25  1  0
 25 26  1  6
 25 30  1  0
 25 31  1  0
 26 27  1  0
 27 28  1  0
 28 29  1  0
 29 30  1  0
 31 32  1  0
 33 34  2  0
 33 35  1  0
 35 36  1  0
 36 37  1  1
 36 40  1  0
 37 38  1  0
 38 39  2  0
 40 41  1  0
 41 42  1  0
 42 43  1  0
 43 44  2  0
 43 45  1  0
M  CHG  1  40   1
M  END
