
     RDKit          3D

 45 50  0  0  0  0  0  0  0  0999 V2000
   -4.7120    6.0560    0.8230 C   0  0  0  0  0  0  0  0  0  0  0  0
   -5.1280    4.7100    1.3840 C   0  0  0  0  0  0  0  0  0  0  0  0
   -4.5800    3.6270    0.5030 C   0  0  0  0  0  0  0  0  0  0  0  0
   -3.5460    2.8700    0.7440 O   0  0  0  0  0  0  0  0  0  0  0  0
   -3.3280    2.0080   -0.2440 C   0  0  0  0  0  0  0  0  0  0  0  0
   -2.2370    1.0020   -0.2970 C   0  0  0  0  0  0  0  0  0  0  0  0
   -1.0180    1.3890    0.1180 C   0  0  0  0  0  0  0  0  0  0  0  0
   -0.9360    2.8120    0.5790 C   0  0  0  0  0  0  0  0  0  0  0  0
    0.1860    0.5810    0.1670 C   0  0  0  0  0  0  0  0  0  0  0  0
    1.3410    1.1350   -0.3870 C   0  0  0  0  0  0  0  0  0  0  0  0
    2.5570    0.5090   -0.4410 C   0  0  0  0  0  0  0  0  0  0  0  0
    2.6770   -0.7500    0.0790 C   0  0  0  0  0  0  0  0  0  0  0  0
    1.5410   -1.3310    0.6420 C   0  0  0  0  0  0  0  0  0  0  0  0
    1.7510   -2.6320    1.1540 O   0  0  0  0  0  0  0  0  0  0  0  0
    1.5410   -3.7000    0.2410 C   0  0  0  0  0  0  0  0  0  0  0  0
    0.3070   -0.6980    0.6990 C   0  0  0  0  0  0  0  0  0  0  0  0
   -0.7780   -1.3450    1.2830 O   0  0  0  0  0  0  0  0  0  0  0  0
   -1.5770   -0.9790    2.3520 C   0  0  0  0  0  0  0  0  0  0  0  0
   -2.3280   -2.2530    2.7990 C   0  0  0  0  0  0  0  0  0  0  0  0
   -2.5750   -3.0910    1.6150 N   0  0  0  0  0  0  0  0  0  0  0  0
   -3.5640   -2.4570    0.8090 C   0  0  0  0  0  0  0  0  0  0  0  0
   -3.5240   -2.7400   -0.6410 C   0  0  1  0  0  0  0  0  0  0  0  0
   -4.0540   -4.1520   -0.8500 C   0  0  0  0  0  0  0  0  0  0  0  0
   -5.5480   -3.9520   -0.8760 C   0  0  0  0  0  0  0  0  0  0  0  0
   -5.7970   -2.6140   -1.0270 O   0  0  0  0  0  0  0  0  0  0  0  0
   -4.6280   -1.9390   -1.3060 C   0  0  0  0  0  0  0  0  0  0  0  0
   -2.2510   -2.5300   -1.3560 C   0  0  0  0  0  0  0  0  0  0  0  0
   -1.9640   -1.0660   -1.7140 C   0  0  0  0  0  0  0  0  0  0  0  0
   -2.5220   -0.2450   -0.7550 O   0  0  0  0  0  0  0  0  0  0  0  0
    3.7940   -1.5660    0.1360 O   0  0  0  0  0  0  0  0  0  0  0  0
    5.0920   -1.1700   -0.2450 C   0  0  0  0  0  0  0  0  0  0  0  0
    5.9370   -2.2130   -0.4950 C   0  0  0  0  0  0  0  0  0  0  0  0
    7.2450   -1.9800   -0.8790 C   0  0  0  0  0  0  0  0  0  0  0  0
    8.1890   -3.1170   -1.1590 C   0  0  0  0  0  0  0  0  0  0  0  0
    7.7030   -0.7050   -1.0100 C   0  0  0  0  0  0  0  0  0  0  0  0
    6.8830    0.3780   -0.7670 C   0  0  0  0  0  0  0  0  0  0  0  0
    7.4020    1.7660   -0.9150 C   0  0  0  0  0  0  0  0  0  0  0  0
    5.5860    0.1290   -0.3860 C   0  0  0  0  0  0  0  0  0  0  0  0
    4.8020    1.3620   -0.1520 C   0  0  2  0  0  0  0  0  0  0  0  0
    4.2730    1.3940    1.2130 N   0  0  0  0  0  0  0  0  0  0  0  0
    4.9100    2.4480    1.9980 C   0  0  0  0  0  0  0  0  0  0  0  0
    3.6030    1.3400   -1.0850 C   0  0  0  0  0  0  0  0  0  0  0  0
   -4.3120    2.2660   -1.1570 C   0  0  0  0  0  0  0  0  0  0  0  0
   -5.1260    3.2890   -0.7170 C   0  0  0  0  0  0  0  0  0  0  0  0
   -6.3060    3.8870   -1.3820 C   0  0  0  0  0  0  0  0  0  0  0  0
  1  2  1  0
  2  3  1  0
  3  4  1  0
  3 44  2  0
  4  5  1  0
  5  6  1  0
  5 43  2  0
  6  7  2  0
  6 29  1  0
  7  8  1  0
  7  9  1  0
  9 10  2  0
  9 16  1  0
 10 11  1  0
 11 12  2  0
 11 42  1  0
 12 13  1  0
 12 30  1  0
 13 14  1  0
 13 16  2  0
 14 15  1  0
 16 17  1  0
 17 18  1  0
 18 19  1  0
 19 20  1  0
 20 21  1  0
 22 21  1  1
 22 23  1  0
 22 26  1  0
 22 27  1  0
 23 24  1  0
 24 25  1  0
 25 26  1  0
 27 28  1  0
 28 29  1  0
 30 31  1  0
 31 32  2  0
 31 38  1  0
 32 33  1  0
 33 34  1  0
 33 35  2  0
 35 36  1  0
 36 37  1  0
 36 38  2  0
 38 39  1  0
 39 40  1  1
 39 42  1  0
 40 41  1  0
 43 44  1  0
 44 45  1  0
M  CHG  2  20   1  40   1
M  END
