
     RDKit          3D

 45 51  0  0  0  0  0  0  0  0999 V2000
   -3.7010   -5.6550   -0.3630 C   0  0  0  0  0  0  0  0  0  0  0  0
   -2.8960   -4.3720   -0.7700 C   0  0  1  0  0  0  0  0  0  0  0  0
   -3.6250   -3.9670   -2.0620 C   0  0  0  0  0  0  0  0  0  0  0  0
   -3.1200   -3.4480    0.3310 C   0  0  0  0  0  0  0  0  0  0  0  0
   -2.5310   -2.0900    0.3350 C   0  0  0  0  0  0  0  0  0  0  0  0
   -3.2380   -0.9760    0.1170 C   0  0  0  0  0  0  0  0  0  0  0  0
   -4.6890   -1.1360   -0.1460 C   0  0  1  0  0  0  0  0  0  0  0  0
   -5.3700   -0.2640    0.9370 C   0  0  0  0  0  0  0  0  0  0  0  0
   -5.1010   -0.6100   -1.5200 C   0  0  0  0  0  0  0  0  0  0  0  0
   -2.7470    0.4220    0.2040 C   0  0  0  0  0  0  0  0  0  0  0  0
   -3.2400    1.2840    1.1300 O   0  0  0  0  0  0  0  0  0  0  0  0
   -2.7110    2.4470    1.0730 C   0  0  0  0  0  0  0  0  0  0  0  0
   -2.9170    3.6170    1.8230 C   0  0  0  0  0  0  0  0  0  0  0  0
   -2.2010    4.7540    1.5490 C   0  0  0  0  0  0  0  0  0  0  0  0
   -1.2830    4.7090    0.5230 C   0  0  0  0  0  0  0  0  0  0  0  0
   -1.0980    3.5580   -0.1960 C   0  0  0  0  0  0  0  0  0  0  0  0
   -1.8010    2.3960    0.0530 C   0  0  0  0  0  0  0  0  0  0  0  0
   -1.8320    1.0940   -0.4990 C   0  0  0  0  0  0  0  0  0  0  0  0
   -1.0020    0.7060   -1.6250 C   0  0  0  0  0  0  0  0  0  0  0  0
    0.0580    1.4040   -1.8930 O   0  0  0  0  0  0  0  0  0  0  0  0
   -1.1640   -0.3990   -2.5660 C   0  0  0  0  0  0  0  0  0  0  0  0
    0.0740   -1.0560   -2.7070 O   0  0  0  0  0  0  0  0  0  0  0  0
    1.2580   -0.8750   -2.0780 C   0  0  0  0  0  0  0  0  0  0  0  0
    2.2700   -0.5340   -2.7920 O   0  0  0  0  0  0  0  0  0  0  0  0
    1.4770   -1.0420   -0.6280 C   0  0  1  0  0  0  0  0  0  0  0  0
    1.1680   -2.3980   -0.1240 C   0  0  2  0  0  0  0  0  0  0  0  0
    1.9530   -3.3850   -0.9460 C   0  0  0  0  0  0  0  0  0  0  0  0
    3.4000   -3.1270   -0.7630 C   0  0  0  0  0  0  0  0  0  0  0  0
    3.8010   -1.6870   -0.7970 C   0  0  0  0  0  0  0  0  0  0  0  0
    2.8760   -0.7790   -0.2170 N   0  0  1  0  0  0  0  0  0  0  0  0
    3.2300    0.5730   -0.4110 C   0  0  0  0  0  0  0  0  0  0  0  0
    4.1160    1.1090    0.6130 C   0  0  0  0  0  0  0  0  0  0  0  0
    4.5910    0.4100    1.6700 C   0  0  0  0  0  0  0  0  0  0  0  0
    5.4440    0.9650    2.6340 C   0  0  0  0  0  0  0  0  0  0  0  0
    5.8290    2.2620    2.5320 C   0  0  0  0  0  0  0  0  0  0  0  0
    5.3680    3.0240    1.4630 C   0  0  0  0  0  0  0  0  0  0  0  0
    4.5340    2.4530    0.5340 C   0  0  0  0  0  0  0  0  0  0  0  0
    4.1880    3.4560   -0.4940 C   0  0  0  0  0  0  0  0  0  0  0  0
    5.3290    4.4770   -0.3660 C   0  0  0  0  0  0  0  0  0  0  0  0
    5.6180    4.4420    1.1120 C   0  0  0  0  0  0  0  0  0  0  0  0
   -0.2900   -2.7830   -0.1750 C   0  0  0  0  0  0  0  0  0  0  0  0
   -1.1210   -1.9840    0.6460 N   0  0  0  0  0  0  0  0  0  0  0  0
   -0.7100    5.9670    0.4590 O   0  0  0  0  0  0  0  0  0  0  0  0
   -1.5950    6.8660    1.1060 C   0  0  0  0  0  0  0  0  0  0  0  0
   -2.1800    6.0490    2.1070 O   0  0  0  0  0  0  0  0  0  0  0  0
  2  1  1  1
  2  3  1  0
  2  4  1  0
  4  5  1  0
  5  6  2  0
  5 42  1  0
  6  7  1  0
  6 10  1  0
  7  8  1  1
  7  9  1  0
 10 11  1  0
 10 18  2  0
 11 12  1  0
 12 13  2  0
 12 17  1  0
 13 14  1  0
 14 15  2  0
 14 45  1  0
 15 16  1  0
 15 43  1  0
 16 17  2  0
 17 18  1  0
 18 19  1  0
 19 20  2  0
 19 21  1  0
 21 22  1  0
 22 23  1  0
 23 24  2  0
 25 23  1  6
 25 26  1  0
 25 30  1  0
 26 27  1  6
 26 41  1  0
 27 28  1  0
 28 29  1  0
 29 30  1  0
 30 31  1  6
 31 32  1  0
 32 33  2  0
 32 37  1  0
 33 34  1  0
 34 35  2  0
 35 36  1  0
 36 37  2  0
 36 40  1  0
 37 38  1  0
 38 39  1  0
 39 40  1  0
 41 42  1  0
 43 44  1  0
 44 45  1  0
M  CHG  2  30   1  42   1
M  END
