
     RDKit          3D

 45 50  0  0  0  0  0  0  0  0999 V2000
    8.6500    1.4860    3.5470 C   0  0  0  0  0  0  0  0  0  0  0  0
    8.1540    0.4770    2.6970 O   0  0  0  0  0  0  0  0  0  0  0  0
    7.1930    0.7710    1.7390 C   0  0  0  0  0  0  0  0  0  0  0  0
    6.7290    2.0520    1.6260 C   0  0  0  0  0  0  0  0  0  0  0  0
    5.7790    2.3460    0.6780 C   0  0  0  0  0  0  0  0  0  0  0  0
    5.2470    1.3890   -0.1980 C   0  0  0  0  0  0  0  0  0  0  0  0
    5.7060    0.0950   -0.0910 C   0  0  0  0  0  0  0  0  0  0  0  0
    6.6780   -0.1750    0.8860 C   0  0  0  0  0  0  0  0  0  0  0  0
    5.2390   -1.0300   -0.9250 C   0  0  0  0  0  0  0  0  0  0  0  0
    6.1790   -1.6870   -1.7360 C   0  0  0  0  0  0  0  0  0  0  0  0
    5.8510   -2.7350   -2.5680 C   0  0  0  0  0  0  0  0  0  0  0  0
    4.5520   -3.1760   -2.6260 C   0  0  0  0  0  0  0  0  0  0  0  0
    3.6280   -2.5350   -1.8300 C   0  0  0  0  0  0  0  0  0  0  0  0
    3.9440   -1.4820   -0.9890 C   0  0  0  0  0  0  0  0  0  0  0  0
    2.8120   -0.9490   -0.1530 C   0  0  0  0  0  0  0  0  0  0  0  0
    2.2340   -1.8980    0.6750 O   0  0  0  0  0  0  0  0  0  0  0  0
    1.5440   -3.0450    0.3630 C   0  0  0  0  0  0  0  0  0  0  0  0
    0.3070   -3.0500   -0.1330 C   0  0  0  0  0  0  0  0  0  0  0  0
   -0.4820   -1.8270   -0.4110 C   0  0  0  0  0  0  0  0  0  0  0  0
   -1.7760   -2.2430   -0.9570 N   0  0  0  0  0  0  0  0  0  0  0  0
   -2.5410   -2.9140    0.0480 C   0  0  0  0  0  0  0  0  0  0  0  0
   -3.6040   -1.9790    0.6540 C   0  0  0  0  0  0  0  0  0  0  0  0
   -4.7360   -1.9510   -0.3130 C   0  0  0  0  0  0  0  0  0  0  0  0
   -5.8970   -1.0880    0.0130 C   0  0  2  0  0  0  0  0  0  0  0  0
   -7.0700   -1.8630    0.1860 O   0  0  0  0  0  0  0  0  0  0  0  0
   -6.1840   -0.2910   -1.2770 C   0  0  0  0  0  0  0  0  0  0  0  0
   -4.9950    0.6640   -1.3630 C   0  0  0  0  0  0  0  0  0  0  0  0
   -5.3930    1.7640   -0.4790 N   0  0  2  0  0  0  0  0  0  0  0  0
   -4.3560    2.7140   -0.4080 C   0  0  0  0  0  0  0  0  0  0  0  0
   -3.0310    2.4080    0.0920 C   0  0  0  0  0  0  0  0  0  0  0  0
   -2.5000    1.7870    1.1740 C   0  0  0  0  0  0  0  0  0  0  0  0
   -1.1100    1.6380    1.3940 C   0  0  0  0  0  0  0  0  0  0  0  0
   -1.0310    0.9950    2.5260 O   0  0  0  0  0  0  0  0  0  0  0  0
   -0.1920    2.1340    0.4910 C   0  0  0  0  0  0  0  0  0  0  0  0
    1.2130    2.1070    0.5010 C   0  0  0  0  0  0  0  0  0  0  0  0
    1.9220    2.6880   -0.5450 C   0  0  0  0  0  0  0  0  0  0  0  0
    1.2880    3.2990   -1.6030 C   0  0  0  0  0  0  0  0  0  0  0  0
   -0.0870    3.3480   -1.6530 C   0  0  0  0  0  0  0  0  0  0  0  0
   -0.8260    2.7740   -0.6190 C   0  0  0  0  0  0  0  0  0  0  0  0
   -2.1240    2.8440   -0.7060 O   0  0  0  0  0  0  0  0  0  0  0  0
    3.3530    2.6560   -0.5250 O   0  0  0  0  0  0  0  0  0  0  0  0
    4.2690    1.8960   -1.1970 C   0  0  0  0  0  0  0  0  0  0  0  0
   -5.9690    1.3200    0.7350 C   0  0  0  0  0  0  0  0  0  0  0  0
   -5.7330   -0.1120    1.1190 C   0  0  1  0  0  0  0  0  0  0  0  0
   -6.7960   -0.4380    2.1830 C   0  0  0  0  0  0  0  0  0  0  0  0
  1  2  1  0
  2  3  1  0
  3  4  2  0
  3  8  1  0
  4  5  1  0
  5  6  2  0
  6  7  1  0
  6 42  1  0
  7  8  2  0
  7  9  1  0
  9 10  2  0
  9 14  1  0
 10 11  1  0
 11 12  2  0
 12 13  1  0
 13 14  2  0
 14 15  1  0
 15 16  1  0
 16 17  1  0
 17 18  2  0
 18 19  1  0
 19 20  1  0
 20 21  1  0
 21 22  1  0
 22 23  1  0
 23 24  1  0
 24 25  1  1
 24 26  1  0
 24 44  1  0
 26 27  1  0
 27 28  1  0
 28 29  1  1
 28 43  1  0
 29 30  1  0
 30 31  2  0
 30 40  1  0
 31 32  1  0
 32 33  2  0
 32 34  1  0
 34 35  2  0
 34 39  1  0
 35 36  1  0
 36 37  2  0
 36 41  1  0
 37 38  1  0
 38 39  2  0
 39 40  1  0
 41 42  1  0
 43 44  1  0
 44 45  1  1
M  CHG  2  20   1  28   1
M  END
