
     RDKit          3D

 45 50  0  0  0  0  0  0  0  0999 V2000
   -0.2520   -2.6570    4.0600 C   0  0  0  0  0  0  0  0  0  0  0  0
   -1.0730   -1.9490    2.9570 C   0  0  0  0  0  0  0  0  0  0  0  0
   -1.0100   -2.7030    1.8570 O   0  0  0  0  0  0  0  0  0  0  0  0
   -1.5930   -2.4950    0.5680 C   0  0  0  0  0  0  0  0  0  0  0  0
   -2.3100   -1.2820    0.6210 C   0  0  0  0  0  0  0  0  0  0  0  0
   -3.0430   -0.6980   -0.4240 C   0  0  0  0  0  0  0  0  0  0  0  0
   -3.0180   -1.4800   -1.5750 C   0  0  0  0  0  0  0  0  0  0  0  0
   -3.5970   -1.3730   -2.8650 O   0  0  0  0  0  0  0  0  0  0  0  0
   -2.2830   -2.7140   -1.6240 C   0  0  0  0  0  0  0  0  0  0  0  0
   -2.5160   -3.2050   -2.9800 O   0  0  0  0  0  0  0  0  0  0  0  0
   -3.6200   -3.9980   -3.3140 C   0  0  0  0  0  0  0  0  0  0  0  0
   -1.5560   -3.2470   -0.5940 C   0  0  0  0  0  0  0  0  0  0  0  0
   -0.5640   -4.3860   -0.7180 C   0  0  0  0  0  0  0  0  0  0  0  0
    0.7710   -3.9500   -1.2480 C   0  0  0  0  0  0  0  0  0  0  0  0
    1.3670   -2.6300   -0.8420 C   0  0  2  0  0  0  0  0  0  0  0  0
    1.3590   -1.5340   -1.8430 C   0  0  0  0  0  0  0  0  0  0  0  0
    0.5130   -0.3250   -1.5410 C   0  0  0  0  0  0  0  0  0  0  0  0
    1.2460    0.9260   -1.8200 C   0  0  0  0  0  0  0  0  0  0  0  0
    1.3470    1.9920   -0.7880 C   0  0  1  0  0  0  0  0  0  0  0  0
    0.5240    3.1960   -1.2660 C   0  0  0  0  0  0  0  0  0  0  0  0
   -0.2950    3.8450   -0.3350 N   0  0  0  0  0  0  0  0  0  0  0  0
   -1.6480    4.1930   -0.7550 C   0  0  1  0  0  0  0  0  0  0  0  0
   -1.6100    4.7940   -2.0960 C   0  0  0  0  0  0  0  0  0  0  0  0
   -2.6500    3.0750   -0.5490 C   0  0  0  0  0  0  0  0  0  0  0  0
   -2.4380    1.7460   -0.6890 C   0  0  0  0  0  0  0  0  0  0  0  0
   -3.4420    0.8090   -0.3470 C   0  0  0  0  0  0  0  0  0  0  0  0
   -4.6320    1.3350    0.1110 C   0  0  0  0  0  0  0  0  0  0  0  0
   -4.8990    2.6690    0.2620 C   0  0  0  0  0  0  0  0  0  0  0  0
   -3.8770    3.5300   -0.0770 C   0  0  0  0  0  0  0  0  0  0  0  0
   -4.1070    4.9090    0.0660 O   0  0  0  0  0  0  0  0  0  0  0  0
   -5.3640    5.3210    0.5480 C   0  0  0  0  0  0  0  0  0  0  0  0
    1.1850    1.6950    0.5580 O   0  0  0  0  0  0  0  0  0  0  0  0
    1.9180    1.9900    1.7130 C   0  0  0  0  0  0  0  0  0  0  0  0
    1.5810    3.0570    2.4770 C   0  0  0  0  0  0  0  0  0  0  0  0
    2.2670    3.4700    3.6980 C   0  0  0  0  0  0  0  0  0  0  0  0
    3.2980    2.7680    4.1170 C   0  0  0  0  0  0  0  0  0  0  0  0
    3.6760    1.6740    3.3780 O   0  0  0  0  0  0  0  0  0  0  0  0
    3.0620    1.2260    2.2030 C   0  0  0  0  0  0  0  0  0  0  0  0
    3.6260    0.1380    1.7080 C   0  0  0  0  0  0  0  0  0  0  0  0
    3.1580   -0.5580    0.4740 C   0  0  0  0  0  0  0  0  0  0  0  0
    3.4360   -1.9940    0.3930 C   0  0  2  0  0  0  0  0  0  0  0  0
    4.9480   -2.1130    0.1030 C   0  0  2  0  0  0  0  0  0  0  0  0
    5.4110   -3.5520   -0.0150 C   0  0  0  0  0  0  0  0  0  0  0  0
    5.8660   -2.6860    1.1060 C   0  0  0  0  0  0  0  0  0  0  0  0
    2.7490   -2.8430   -0.4520 N   0  0  0  0  0  0  0  0  0  0  0  0
  1  2  1  0
  2  3  1  0
  3  4  1  0
  4  5  2  0
  4 12  1  0
  5  6  1  0
  6  7  2  0
  6 26  1  0
  7  8  1  0
  7  9  1  0
  9 10  1  0
  9 12  2  0
 10 11  1  0
 12 13  1  0
 13 14  1  0
 15 14  1  6
 15 16  1  0
 15 45  1  0
 16 17  1  0
 17 18  1  0
 18 19  1  0
 19 20  1  6
 19 32  1  0
 20 21  1  0
 21 22  1  0
 22 23  1  6
 22 24  1  0
 24 25  1  0
 24 29  2  0
 25 26  2  0
 26 27  1  0
 27 28  2  0
 28 29  1  0
 29 30  1  0
 30 31  1  0
 32 33  1  0
 33 34  2  0
 33 38  1  0
 34 35  1  0
 35 36  2  0
 36 37  1  0
 37 38  1  0
 38 39  2  0
 39 40  1  0
 41 40  1  6
 41 42  1  0
 41 45  1  0
 42 43  1  6
 42 44  1  0
 43 44  1  0
M  CHG  2  21   1  45   1
M  END
