
     RDKit          3D

 45 49  0  0  0  0  0  0  0  0999 V2000
   -4.2510   -0.8130    0.8450 O   0  0  0  0  0  0  0  0  0  0  0  0
   -3.5670    0.2330    1.0970 C   0  0  0  0  0  0  0  0  0  0  0  0
   -3.9210    0.9180    2.2810 N   0  0  0  0  0  0  0  0  0  0  0  0
   -4.9910    0.4630    3.1550 C   0  0  0  0  0  0  0  0  0  0  0  0
   -6.2920    0.8070    2.5470 C   0  0  0  0  0  0  0  0  0  0  0  0
   -6.7550    2.0970    2.5730 C   0  0  0  0  0  0  0  0  0  0  0  0
   -7.9710    2.4160    2.0090 C   0  0  0  0  0  0  0  0  0  0  0  0
   -8.7320    1.4360    1.4130 C   0  0  0  0  0  0  0  0  0  0  0  0
   -8.2530    0.1410    1.3930 C   0  0  0  0  0  0  0  0  0  0  0  0
   -7.0480   -0.1780    1.9530 C   0  0  0  0  0  0  0  0  0  0  0  0
   -2.4820    0.6830    0.1980 C   0  0  2  0  0  0  0  0  0  0  0  0
   -2.4190   -0.1280   -0.9440 O   0  0  0  0  0  0  0  0  0  0  0  0
   -2.6160    0.5500   -2.1220 C   0  0  0  0  0  0  0  0  0  0  0  0
   -2.5380   -0.4520   -3.2360 C   0  0  0  0  0  0  0  0  0  0  0  0
   -3.6670   -1.1530   -3.6550 C   0  0  0  0  0  0  0  0  0  0  0  0
   -3.6170   -2.0800   -4.6750 C   0  0  0  0  0  0  0  0  0  0  0  0
   -2.4250   -2.3370   -5.3160 C   0  0  0  0  0  0  0  0  0  0  0  0
   -1.2910   -1.6570   -4.9230 C   0  0  0  0  0  0  0  0  0  0  0  0
   -1.3680   -0.7350   -3.9010 C   0  0  0  0  0  0  0  0  0  0  0  0
   -1.1520    0.6850    0.9170 C   0  0  2  0  0  0  0  0  0  0  0  0
   -1.2470    1.4870    2.0440 O   0  0  0  0  0  0  0  0  0  0  0  0
   -0.0350    1.1510    0.0060 C   0  0  1  0  0  0  0  0  0  0  0  0
   -0.3310    2.4650   -0.3530 O   0  0  0  0  0  0  0  0  0  0  0  0
    1.3060    1.0140    0.6650 C   0  0  1  0  0  0  0  0  0  0  0  0
    1.5470   -0.2950    0.9810 O   0  0  0  0  0  0  0  0  0  0  0  0
    1.6970   -0.5680    2.3180 C   0  0  0  0  0  0  0  0  0  0  0  0
    1.9450   -2.0240    2.5220 C   0  0  0  0  0  0  0  0  0  0  0  0
    2.5060   -2.5250    3.6680 C   0  0  0  0  0  0  0  0  0  0  0  0
    2.6890   -3.8880    3.7620 C   0  0  0  0  0  0  0  0  0  0  0  0
    2.3200   -4.7440    2.7350 C   0  0  0  0  0  0  0  0  0  0  0  0
    1.7530   -4.2430    1.5760 C   0  0  0  0  0  0  0  0  0  0  0  0
    1.5720   -2.8740    1.4860 C   0  0  0  0  0  0  0  0  0  0  0  0
    2.3660    1.6140   -0.1980 C   0  0  0  0  0  0  0  0  0  0  0  0
    2.3050    2.8080   -0.5820 O   0  0  0  0  0  0  0  0  0  0  0  0
    3.4970    0.8610   -0.6280 N   0  0  0  0  0  0  0  0  0  0  0  0
    4.5190    1.4510   -1.4640 C   0  0  1  0  0  0  0  0  0  0  0  0
    5.8510    1.4210   -0.8110 C   0  0  0  0  0  0  0  0  0  0  0  0
    6.3130    1.8870    0.4040 C   0  0  0  0  0  0  0  0  0  0  0  0
    7.6290    1.7350    0.7960 C   0  0  0  0  0  0  0  0  0  0  0  0
    8.5370    1.1040   -0.0270 C   0  0  0  0  0  0  0  0  0  0  0  0
    8.0960    0.6310   -1.2460 C   0  0  0  0  0  0  0  0  0  0  0  0
    6.7580    0.7920   -1.6310 C   0  0  0  0  0  0  0  0  0  0  0  0
    6.1420    0.3450   -2.8920 C   0  0  0  0  0  0  0  0  0  0  0  0
    4.7070    0.7820   -2.7820 C   0  0  1  0  0  0  0  0  0  0  0  0
    3.8210   -0.2760   -3.0140 O   0  0  0  0  0  0  0  0  0  0  0  0
  1  2  2  0
  2  3  1  0
  2 11  1  0
  3  4  1  0
  4  5  1  0
  5  6  2  0
  5 10  1  0
  6  7  1  0
  7  8  2  0
  8  9  1  0
  9 10  2  0
 11 12  1  6
 11 20  1  0
 12 13  1  0
 13 14  1  0
 14 15  2  0
 14 19  1  0
 15 16  1  0
 16 17  2  0
 17 18  1  0
 18 19  2  0
 20 21  1  1
 20 22  1  0
 22 23  1  1
 22 24  1  0
 24 25  1  6
 24 33  1  0
 25 26  1  0
 26 27  1  0
 27 28  2  0
 27 32  1  0
 28 29  1  0
 29 30  2  0
 30 31  1  0
 31 32  2  0
 33 34  2  0
 33 35  1  0
 36 35  1  1
 36 37  1  0
 36 44  1  0
 37 38  2  0
 37 42  1  0
 38 39  1  0
 39 40  2  0
 40 41  1  0
 41 42  2  0
 42 43  1  0
 43 44  1  0
 44 45  1  1
M  END
