
     RDKit          3D

 45 50  0  0  0  0  0  0  0  0999 V2000
   -5.5310    0.4940    1.0450 C   0  0  0  0  0  0  0  0  0  0  0  0
   -4.2150    0.2030    0.3640 C   0  0  0  0  0  0  0  0  0  0  0  0
   -3.5710    1.1650   -0.2840 C   0  0  0  0  0  0  0  0  0  0  0  0
   -4.2030    2.5110   -0.3040 C   0  0  0  0  0  0  0  0  0  0  0  0
   -3.6630    3.7110   -0.2280 C   0  0  0  0  0  0  0  0  0  0  0  0
   -2.1690    3.9110   -0.1030 C   0  0  0  0  0  0  0  0  0  0  0  0
   -1.5020    3.7610    1.0960 C   0  0  0  0  0  0  0  0  0  0  0  0
   -0.0880    3.8170    1.1670 C   0  0  0  0  0  0  0  0  0  0  0  0
    0.7540    4.0190    0.0990 C   0  0  0  0  0  0  0  0  0  0  0  0
    0.0650    4.1800   -1.0860 C   0  0  0  0  0  0  0  0  0  0  0  0
   -1.3500    4.1290   -1.1990 C   0  0  0  0  0  0  0  0  0  0  0  0
    2.2590    3.8540    0.1440 C   0  0  0  0  0  0  0  0  0  0  0  0
    3.4740    4.4620    0.4180 C   0  0  0  0  0  0  0  0  0  0  0  0
    4.4690    3.5590    0.1860 C   0  0  0  0  0  0  0  0  0  0  0  0
    3.8750    2.3900   -0.2330 C   0  0  0  0  0  0  0  0  0  0  0  0
    2.6250    2.6050   -0.2370 O   0  0  0  0  0  0  0  0  0  0  0  0
    4.4980    1.1360   -0.6190 C   0  0  0  0  0  0  0  0  0  0  0  0
    4.3250   -0.0990   -0.2310 C   0  0  0  0  0  0  0  0  0  0  0  0
    5.1750   -1.1490   -0.8840 C   0  0  0  0  0  0  0  0  0  0  0  0
    5.9090   -0.8060   -1.8560 O   0  0  0  0  0  0  0  0  0  0  0  0
    5.2030   -2.4540   -0.4930 O   0  0  0  0  0  0  0  0  0  0  0  0
    4.4140   -2.8610    0.5540 C   0  0  0  0  0  0  0  0  0  0  0  0
    4.5360   -4.3310    0.9090 C   0  0  0  0  0  0  0  0  0  0  0  0
    3.6350   -2.0530    1.1780 C   0  0  0  0  0  0  0  0  0  0  0  0
    2.8370   -2.5680    2.2840 C   0  0  0  0  0  0  0  0  0  0  0  0
    2.0430   -1.9110    2.9820 O   0  0  0  0  0  0  0  0  0  0  0  0
    2.9230   -3.9230    2.6510 O   0  0  0  0  0  0  0  0  0  0  0  0
    2.1700   -4.4710    3.7160 C   0  0  0  0  0  0  0  0  0  0  0  0
    3.4300   -0.6110    0.8110 C   0  0  2  0  0  0  0  0  0  0  0  0
    1.9680   -0.2690    0.7480 C   0  0  0  0  0  0  0  0  0  0  0  0
    1.5920    0.4360    1.9280 C   0  0  0  0  0  0  0  0  0  0  0  0
    0.2960    0.7910    2.1890 C   0  0  0  0  0  0  0  0  0  0  0  0
   -0.6200    0.4360    1.2600 C   0  0  0  0  0  0  0  0  0  0  0  0
   -0.2970   -0.2710    0.0540 C   0  0  0  0  0  0  0  0  0  0  0  0
    1.0020   -0.6140   -0.1860 C   0  0  0  0  0  0  0  0  0  0  0  0
   -1.6120   -0.4760   -0.6790 C   0  0  2  0  0  0  0  0  0  0  0  0
   -1.6230   -1.3730   -1.8460 C   0  0  2  0  0  0  0  0  0  0  0  0
   -2.9680   -1.4770   -2.4950 C   0  0  0  0  0  0  0  0  0  0  0  0
   -3.6060   -2.8600   -2.2640 C   0  0  0  0  0  0  0  0  0  0  0  0
   -3.5230   -3.2580   -0.9540 O   0  0  0  0  0  0  0  0  0  0  0  0
   -2.2200   -3.4340   -0.5270 C   0  0  0  0  0  0  0  0  0  0  0  0
   -1.2490   -2.8110   -1.4890 C   0  0  0  0  0  0  0  0  0  0  0  0
   -2.3040    0.8260   -0.9370 C   0  0  1  0  0  0  0  0  0  0  0  0
   -2.2900    1.2110   -2.3300 N   0  0  0  0  0  0  0  0  0  0  0  0
   -1.2410    1.3540   -2.9690 N   0  0  0  0  0  0  0  0  0  0  0  0
  1  2  1  0
  2  3  2  3
  3  4  1  0
  3 43  1  0
  4  5  2  0
  5  6  1  0
  6  7  2  0
  6 11  1  0
  7  8  1  0
  8  9  2  0
  9 10  1  0
  9 12  1  0
 10 11  2  0
 12 13  2  0
 12 16  1  0
 13 14  1  0
 14 15  2  0
 15 16  1  0
 15 17  1  0
 17 18  2  0
 18 19  1  0
 18 29  1  0
 19 20  2  0
 19 21  1  0
 21 22  1  0
 22 23  1  0
 22 24  2  0
 24 25  1  0
 29 24  1  6
 25 26  2  0
 25 27  1  0
 27 28  1  0
 29 30  1  0
 30 31  1  0
 30 35  2  0
 31 32  2  0
 32 33  1  0
 33 34  2  0
 34 35  1  0
 36 34  1  6
 36 37  1  0
 36 43  1  0
 37 38  1  1
 37 42  1  0
 38 39  1  0
 39 40  1  0
 40 41  1  0
 41 42  1  0
 43 44  1  6
 44 45  2  0
M  CHG  2  44   1  45   1
M  END
