
     RDKit          3D

 44 48  0  0  0  0  0  0  0  0999 V2000
    9.3560    6.1270   -0.4740 C   0  0  0  0  0  0  0  0  0  0  0  0
    8.6760    5.2640    0.4190 O   0  0  0  0  0  0  0  0  0  0  0  0
    7.9330    4.1700   -0.0030 C   0  0  0  0  0  0  0  0  0  0  0  0
    7.3100    3.4010    0.9860 C   0  0  0  0  0  0  0  0  0  0  0  0
    6.5590    2.3140    0.6470 C   0  0  0  0  0  0  0  0  0  0  0  0
    6.3850    1.9310   -0.6940 C   0  0  0  0  0  0  0  0  0  0  0  0
    5.5900    0.7970   -0.9300 O   0  0  0  0  0  0  0  0  0  0  0  0
    4.2330    0.9010   -0.5220 C   0  0  0  0  0  0  0  0  0  0  0  0
    3.9150    2.0470   -0.0420 O   0  0  0  0  0  0  0  0  0  0  0  0
    3.2920   -0.1030   -0.5920 N   0  0  0  0  0  0  0  0  0  0  0  0
    1.9220   -0.0030   -0.1330 C   0  0  0  0  0  0  0  0  0  0  0  0
    1.7120   -0.9750    1.0050 C   0  0  1  0  0  0  0  0  0  0  0  0
    0.2740   -1.3350    1.0230 C   0  0  0  0  0  0  0  0  0  0  0  0
   -0.4270   -1.2790    2.0510 O   0  0  0  0  0  0  0  0  0  0  0  0
   -0.2860   -1.7360   -0.1940 N   0  0  0  0  0  0  0  0  0  0  0  0
   -1.6810   -2.0740   -0.4110 C   0  0  0  0  0  0  0  0  0  0  0  0
   -2.3950   -0.8210    0.1190 C   0  0  0  0  0  0  0  0  0  0  0  0
   -2.9540   -0.8330    1.2400 O   0  0  0  0  0  0  0  0  0  0  0  0
   -2.3510    0.2520   -0.6770 O   0  0  0  0  0  0  0  0  0  0  0  0
   -2.8690    1.5040   -0.5360 C   0  0  0  0  0  0  0  0  0  0  0  0
   -4.2550    1.7370   -0.9100 C   0  0  0  0  0  0  0  0  0  0  0  0
   -5.3650    1.2100   -0.4220 O   0  0  0  0  0  0  0  0  0  0  0  0
   -5.8280    1.5850    0.8040 C   0  0  2  0  0  0  0  0  0  0  0  0
   -6.3480    0.5050    1.6260 C   0  0  0  0  0  0  0  0  0  0  0  0
   -7.1210   -0.5640    0.8500 C   0  0  0  0  0  0  0  0  0  0  0  0
   -8.5960   -0.4170    1.0330 C   0  0  0  0  0  0  0  0  0  0  0  0
   -9.2990    0.4750    0.0760 C   0  0  2  0  0  0  0  0  0  0  0  0
   -8.7950    0.4260   -1.3290 C   0  0  0  0  0  0  0  0  0  0  0  0
   -7.9110    1.6700   -1.5080 C   0  0  0  0  0  0  0  0  0  0  0  0
   -7.9890    2.4660   -0.2840 C   0  0  1  0  0  0  0  0  0  0  0  0
   -9.2350    1.9350    0.4550 C   0  0  0  0  0  0  0  0  0  0  0  0
   -6.8610    2.7150    0.5820 C   0  0  0  0  0  0  0  0  0  0  0  0
    2.5540   -2.1850    1.0060 C   0  0  0  0  0  0  0  0  0  0  0  0
    3.8610   -2.1450    0.2970 C   0  0  1  0  0  0  0  0  0  0  0  0
    4.5520   -3.4450    0.2540 C   0  0  1  0  0  0  0  0  0  0  0  0
    5.0380   -3.8080    1.6470 C   0  0  0  0  0  0  0  0  0  0  0  0
    6.2890   -4.6500    1.4220 C   0  0  0  0  0  0  0  0  0  0  0  0
    6.0340   -5.8790    0.1600 S   0  0  0  0  0  0  0  0  0  0  0  0
    7.2230   -5.8160   -0.8260 O   0  0  0  0  0  0  0  0  0  0  0  0
    4.4800   -5.6790   -0.7250 C   0  0  0  0  0  0  0  0  0  0  0  0
    3.6360   -4.5890   -0.1690 C   0  0  0  0  0  0  0  0  0  0  0  0
    3.6660   -1.4550   -1.0510 C   0  0  0  0  0  0  0  0  0  0  0  0
    6.9760    2.6590   -1.6530 C   0  0  0  0  0  0  0  0  0  0  0  0
    7.7540    3.7830   -1.3060 C   0  0  0  0  0  0  0  0  0  0  0  0
  1  2  1  0
  2  3  1  0
  3  4  2  0
  3 44  1  0
  4  5  1  0
  5  6  2  0
  6  7  1  0
  6 43  1  0
  7  8  1  0
  8  9  2  0
  8 10  1  0
 10 11  1  0
 10 42  1  0
 11 12  1  0
 12 13  1  6
 12 33  1  0
 13 14  2  0
 13 15  1  0
 15 16  1  0
 16 17  1  0
 17 18  2  0
 17 19  1  0
 19 20  1  0
 20 21  1  0
 21 22  1  0
 23 22  1  6
 23 24  1  0
 23 32  1  0
 24 25  1  0
 25 26  1  0
 27 26  1  1
 27 28  1  0
 27 31  1  0
 28 29  1  0
 30 29  1  6
 30 31  1  0
 30 32  1  0
 34 33  1  6
 34 35  1  0
 34 42  1  0
 35 36  1  1
 35 41  1  0
 36 37  1  0
 38 37  1  1
 38 39  2  0
 38 40  1  0
 40 41  1  0
 43 44  2  0
M  END
