
     RDKit          3D

 44 49  0  0  0  0  0  0  0  0999 V2000
   -9.0340   -0.1200   -0.0900 C   0  0  0  0  0  0  0  0  0  0  0  0
   -8.0510   -1.1360   -0.5750 C   0  0  1  0  0  0  0  0  0  0  0  0
   -6.8750   -0.4750   -1.2350 C   0  0  0  0  0  0  0  0  0  0  0  0
   -5.5920   -1.2310   -1.1940 C   0  0  1  0  0  0  0  0  0  0  0  0
   -4.5860   -0.4420   -0.4170 C   0  0  0  0  0  0  0  0  0  0  0  0
   -4.9450    0.6240    0.1400 O   0  0  0  0  0  0  0  0  0  0  0  0
   -3.1950   -0.8590   -0.2710 C   0  0  0  0  0  0  0  0  0  0  0  0
   -2.6650   -1.9560   -0.8980 C   0  0  0  0  0  0  0  0  0  0  0  0
   -1.3190   -2.3180   -0.7000 C   0  0  0  0  0  0  0  0  0  0  0  0
   -0.4730   -1.6170    0.1110 C   0  0  0  0  0  0  0  0  0  0  0  0
    0.8540   -1.9990    0.3220 N   0  0  0  0  0  0  0  0  0  0  0  0
    1.6170   -3.0180   -0.2650 C   0  0  0  0  0  0  0  0  0  0  0  0
    0.9930   -3.7290   -1.1490 O   0  0  0  0  0  0  0  0  0  0  0  0
    2.9830   -3.3380    0.0230 C   0  0  1  0  0  0  0  0  0  0  0  0
    3.6600   -4.4050   -0.7570 C   0  0  0  0  0  0  0  0  0  0  0  0
    5.1720   -4.1870   -0.4870 C   0  0  0  0  0  0  0  0  0  0  0  0
    5.1130   -3.0090    0.5200 C   0  0  0  0  0  0  0  0  0  0  0  0
    4.0080   -2.2790   -0.0760 N   0  0  0  0  0  0  0  0  0  0  0  0
    3.8960   -1.0250   -0.6270 C   0  0  0  0  0  0  0  0  0  0  0  0
    2.6990   -0.7270   -1.0530 O   0  0  0  0  0  0  0  0  0  0  0  0
    4.8540    0.0210   -0.8180 C   0  0  0  0  0  0  0  0  0  0  0  0
    4.4090    1.2930   -1.2490 C   0  0  0  0  0  0  0  0  0  0  0  0
    5.2630    2.3370   -1.4890 C   0  0  0  0  0  0  0  0  0  0  0  0
    6.6020    2.2070   -1.3230 C   0  0  0  0  0  0  0  0  0  0  0  0
    7.0950    0.9970   -0.9060 C   0  0  0  0  0  0  0  0  0  0  0  0
    6.2170   -0.0480   -0.6700 C   0  0  0  0  0  0  0  0  0  0  0  0
    8.4650    0.8740   -0.7400 O   0  0  0  0  0  0  0  0  0  0  0  0
    9.3850    1.7980   -1.2920 C   0  0  0  0  0  0  0  0  0  0  0  0
    8.8320    3.1910   -1.0130 C   0  0  0  0  0  0  0  0  0  0  0  0
    7.5180    3.2200   -1.5460 O   0  0  0  0  0  0  0  0  0  0  0  0
   -1.0150   -0.5020    0.7470 C   0  0  0  0  0  0  0  0  0  0  0  0
   -0.1770    0.2150    1.5680 O   0  0  0  0  0  0  0  0  0  0  0  0
   -0.4780    1.3610    2.2960 C   0  0  0  0  0  0  0  0  0  0  0  0
   -0.8780    2.5260    1.4490 C   0  0  0  0  0  0  0  0  0  0  0  0
   -0.8360    2.3870    0.2270 O   0  0  0  0  0  0  0  0  0  0  0  0
   -1.3100    3.8040    2.0520 C   0  0  1  0  0  0  0  0  0  0  0  0
   -1.6380    4.7650    0.9430 C   0  0  0  0  0  0  0  0  0  0  0  0
   -2.2060    6.0130    1.5810 C   0  0  0  0  0  0  0  0  0  0  0  0
   -3.2920    5.2560    2.8550 S   0  0  0  0  0  0  0  0  0  0  0  0
   -2.6340    3.5430    2.7850 C   0  0  0  0  0  0  0  0  0  0  0  0
   -2.3270   -0.1520    0.5510 C   0  0  0  0  0  0  0  0  0  0  0  0
   -5.6800   -2.6130   -0.6210 C   0  0  0  0  0  0  0  0  0  0  0  0
   -6.9750   -2.9790    0.0220 C   0  0  0  0  0  0  0  0  0  0  0  0
   -7.6100   -1.8710    0.5470 O   0  0  0  0  0  0  0  0  0  0  0  0
  2  1  1  1
  2  3  1  0
  2 44  1  0
  3  4  1  0
  4  5  1  1
  4 42  1  0
  5  6  2  0
  5  7  1  0
  7  8  2  0
  7 41  1  0
  8  9  1  0
  9 10  2  0
 10 11  1  0
 10 31  1  0
 11 12  1  0
 12 13  2  0
 14 12  1  6
 14 15  1  0
 14 18  1  0
 15 16  1  0
 16 17  1  0
 17 18  1  0
 18 19  1  0
 19 20  2  0
 19 21  1  0
 21 22  2  0
 21 26  1  0
 22 23  1  0
 23 24  2  0
 24 25  1  0
 24 30  1  0
 25 26  2  0
 25 27  1  0
 27 28  1  0
 28 29  1  0
 29 30  1  0
 31 32  1  0
 31 41  2  0
 32 33  1  0
 33 34  1  0
 34 35  2  0
 36 34  1  6
 36 37  1  0
 36 40  1  0
 37 38  1  0
 38 39  1  0
 39 40  1  0
 42 43  1  0
 43 44  1  0
M  END
