
     RDKit          3D

 44 49  0  0  0  0  0  0  0  0999 V2000
    1.9440   -4.1540   -1.9650 C   0  0  0  0  0  0  0  0  0  0  0  0
    2.0390   -2.6500   -2.0340 C   0  0  0  0  0  0  0  0  0  0  0  0
    1.7750   -2.1080   -0.7420 O   0  0  0  0  0  0  0  0  0  0  0  0
    1.8090   -0.7290   -0.5530 C   0  0  0  0  0  0  0  0  0  0  0  0
    3.0630   -0.1950   -0.2080 C   0  0  0  0  0  0  0  0  0  0  0  0
    4.1350   -1.0190   -0.0780 O   0  0  0  0  0  0  0  0  0  0  0  0
    5.4390   -0.8310    0.2550 C   0  0  0  0  0  0  0  0  0  0  0  0
    5.7650   -0.3060    1.6110 C   0  0  1  0  0  0  0  0  0  0  0  0
    5.2600   -1.1910    2.5910 O   0  0  0  0  0  0  0  0  0  0  0  0
    7.2950   -0.4340    1.7510 C   0  0  0  0  0  0  0  0  0  0  0  0
    7.9670    0.4130    0.8130 N   0  0  0  0  0  0  0  0  0  0  0  0
    8.3590    0.0650   -0.5020 C   0  0  0  0  0  0  0  0  0  0  0  0
    8.5200   -1.0950   -0.9520 O   0  0  0  0  0  0  0  0  0  0  0  0
    8.5470    1.3230   -1.2570 C   0  0  0  0  0  0  0  0  0  0  0  0
    8.7340    2.4070   -0.2000 C   0  0  0  0  0  0  0  0  0  0  0  0
    8.3510    1.7720    1.0810 C   0  0  0  0  0  0  0  0  0  0  0  0
    8.3720    2.3540    2.1830 O   0  0  0  0  0  0  0  0  0  0  0  0
    3.1800    1.1530   -0.0070 C   0  0  0  0  0  0  0  0  0  0  0  0
    2.0760    1.9680   -0.1420 C   0  0  0  0  0  0  0  0  0  0  0  0
    0.8730    1.3970   -0.4800 C   0  0  0  0  0  0  0  0  0  0  0  0
    0.6850    0.0590   -0.6970 C   0  0  0  0  0  0  0  0  0  0  0  0
   -0.5380   -0.5580   -0.9850 C   0  0  0  0  0  0  0  0  0  0  0  0
   -0.8320   -2.3870   -0.8350 S   0  0  0  0  0  0  0  0  0  0  0  0
   -2.4210   -2.3700   -1.3450 C   0  0  0  0  0  0  0  0  0  0  0  0
   -2.7370   -1.1000   -1.6330 C   0  0  0  0  0  0  0  0  0  0  0  0
   -1.8110   -0.1150   -1.4540 C   0  0  0  0  0  0  0  0  0  0  0  0
   -2.2830    1.3140   -1.5690 C   0  0  0  0  0  0  0  0  0  0  0  0
   -1.7350    2.0980   -2.3650 O   0  0  0  0  0  0  0  0  0  0  0  0
   -3.4020    1.7410   -0.7140 N   0  0  0  0  0  0  0  0  0  0  0  0
   -3.5010    1.4040    0.6750 C   0  0  1  0  0  0  0  0  0  0  0  0
   -2.8890    2.5230    1.5380 C   0  0  0  0  0  0  0  0  0  0  0  0
   -3.8500    3.6280    1.8180 C   0  0  0  0  0  0  0  0  0  0  0  0
   -5.2450    3.1310    2.1230 C   0  0  0  0  0  0  0  0  0  0  0  0
   -5.1620    1.6980    2.5100 C   0  0  0  0  0  0  0  0  0  0  0  0
   -4.7560    0.8890    1.2550 C   0  0  1  0  0  0  0  0  0  0  0  0
   -5.9360    0.6280    0.3970 C   0  0  0  0  0  0  0  0  0  0  0  0
   -6.7480   -0.5880    0.6870 C   0  0  0  0  0  0  0  0  0  0  0  0
   -6.1680   -1.7820    1.0000 O   0  0  0  0  0  0  0  0  0  0  0  0
   -5.7010   -2.8100    0.1340 C   0  0  0  0  0  0  0  0  0  0  0  0
   -6.1540   -3.9740    0.1910 O   0  0  0  0  0  0  0  0  0  0  0  0
   -4.6920   -2.4160   -0.7880 C   0  0  2  0  0  0  0  0  0  0  0  0
   -5.1210   -1.6560   -2.0190 C   0  0  0  0  0  0  0  0  0  0  0  0
   -4.0200   -0.7580   -2.4120 C   0  0  0  0  0  0  0  0  0  0  0  0
   -3.6420   -3.3920   -1.3240 C   0  0  0  0  0  0  0  0  0  0  0  0
  1  2  1  0
  2  3  1  0
  3  4  1  0
  4  5  2  0
  4 21  1  0
  5  6  1  0
  5 18  1  0
  6  7  1  0
  7  8  1  0
  8  9  1  1
  8 10  1  0
 10 11  1  0
 11 12  1  0
 11 16  1  0
 12 13  2  0
 12 14  1  0
 14 15  1  0
 15 16  1  0
 16 17  2  0
 18 19  2  0
 19 20  1  0
 20 21  2  0
 21 22  1  0
 22 23  1  0
 22 26  2  0
 23 24  1  0
 24 25  2  0
 24 44  1  0
 25 26  1  0
 25 43  1  0
 26 27  1  0
 27 28  2  0
 27 29  1  0
 29 30  1  0
 30 31  1  1
 30 35  1  0
 31 32  1  0
 32 33  1  0
 33 34  1  0
 35 34  1  1
 35 36  1  0
 36 37  1  0
 37 38  1  0
 38 39  1  0
 39 40  2  0
 39 41  1  0
 41 42  1  6
 41 44  1  0
 42 43  1  0
M  END
