
     RDKit          3D

 44 48  0  0  0  0  0  0  0  0999 V2000
   -8.4290   -1.0950   -1.2360 C   0  0  0  0  0  0  0  0  0  0  0  0
   -9.4630   -0.6820   -0.2510 C   0  0  0  0  0  0  0  0  0  0  0  0
   -8.8670    0.4330    0.6840 C   0  0  0  0  0  0  0  0  0  0  0  0
   -7.7660   -0.2340    1.2880 N   0  0  0  0  0  0  0  0  0  0  0  0
   -7.8630   -1.3710    2.2000 C   0  0  0  0  0  0  0  0  0  0  0  0
   -6.8460   -2.4220    1.8970 C   0  0  0  0  0  0  0  0  0  0  0  0
   -5.8390   -2.0820    0.9910 O   0  0  0  0  0  0  0  0  0  0  0  0
   -5.4310   -0.7600    0.8150 C   0  0  0  0  0  0  0  0  0  0  0  0
   -4.1600   -0.3530    0.5090 C   0  0  0  0  0  0  0  0  0  0  0  0
   -3.8650    0.9640    0.3550 C   0  0  0  0  0  0  0  0  0  0  0  0
   -2.6130    1.5070    0.0490 N   0  0  0  0  0  0  0  0  0  0  0  0
   -1.3990    0.7910   -0.2530 C   0  0  0  0  0  0  0  0  0  0  0  0
   -1.4730   -0.4470   -0.2400 O   0  0  0  0  0  0  0  0  0  0  0  0
   -0.1750    1.5070   -0.5530 C   0  0  0  0  0  0  0  0  0  0  0  0
    1.1290    0.8190   -0.6400 C   0  0  2  0  0  0  0  0  0  0  0  0
    1.6970    0.1600    0.5480 C   0  0  1  0  0  0  0  0  0  0  0  0
    1.7590    1.2750    1.4960 O   0  0  0  0  0  0  0  0  0  0  0  0
    1.0690   -0.8810    1.3310 C   0  0  0  0  0  0  0  0  0  0  0  0
    0.7170   -2.1830    0.8440 C   0  0  0  0  0  0  0  0  0  0  0  0
    0.0890   -2.9670    1.6190 O   0  0  0  0  0  0  0  0  0  0  0  0
    0.9990   -2.6660   -0.3920 O   0  0  0  0  0  0  0  0  0  0  0  0
    0.6980   -3.9070   -0.9380 C   0  0  0  0  0  0  0  0  0  0  0  0
    3.1870   -0.0920    0.3570 C   0  0  0  0  0  0  0  0  0  0  0  0
    3.9000   -0.9530   -0.3270 C   0  0  0  0  0  0  0  0  0  0  0  0
    5.2570   -0.9160   -0.3040 C   0  0  0  0  0  0  0  0  0  0  0  0
    5.8430    0.0260    0.4400 C   0  0  0  0  0  0  0  0  0  0  0  0
    7.2810    0.3120    0.6400 C   0  0  0  0  0  0  0  0  0  0  0  0
    7.6740    1.2110    1.3910 O   0  0  0  0  0  0  0  0  0  0  0  0
    8.2520   -0.4300   -0.0190 O   0  0  0  0  0  0  0  0  0  0  0  0
    9.6220   -0.2390    0.1040 C   0  0  1  0  0  0  0  0  0  0  0  0
   10.4530   -1.4680    0.2390 C   0  0  0  0  0  0  0  0  0  0  0  0
   11.8210   -0.9790   -0.2190 C   0  0  0  0  0  0  0  0  0  0  0  0
   11.5810    0.0820   -1.2660 C   0  0  0  0  0  0  0  0  0  0  0  0
   10.0820    0.2950   -1.2700 C   0  0  0  0  0  0  0  0  0  0  0  0
    4.4980    0.8990    1.1360 S   0  0  0  0  0  0  0  0  0  0  0  0
    2.1060    1.9710   -1.0880 C   0  0  0  0  0  0  0  0  0  0  0  0
    1.5810    2.1980   -2.4860 C   0  0  0  0  0  0  0  0  0  0  0  0
    0.8970    1.0760   -2.8750 O   0  0  0  0  0  0  0  0  0  0  0  0
    1.2520    0.0550   -1.9600 C   0  0  0  0  0  0  0  0  0  0  0  0
   -4.8920    1.9150    0.5200 C   0  0  0  0  0  0  0  0  0  0  0  0
   -4.6380    3.3840    0.3380 C   0  0  0  0  0  0  0  0  0  0  0  0
   -6.1830    1.5360    0.8320 C   0  0  0  0  0  0  0  0  0  0  0  0
   -7.2710    2.5030    1.0700 C   0  0  0  0  0  0  0  0  0  0  0  0
   -6.4550    0.2070    0.9780 C   0  0  0  0  0  0  0  0  0  0  0  0
  1  2  1  0
  2  3  1  0
  3  4  1  0
  4  5  1  0
  4 44  1  0
  5  6  1  0
  6  7  1  0
  7  8  1  0
  8  9  2  0
  8 44  1  0
  9 10  1  0
 10 11  1  0
 10 40  2  0
 11 12  1  0
 12 13  2  0
 12 14  1  0
 15 14  1  1
 15 16  1  0
 15 36  1  0
 15 39  1  0
 16 17  1  1
 16 18  1  0
 16 23  1  0
 18 19  1  0
 19 20  2  0
 19 21  1  0
 21 22  1  0
 23 24  2  0
 23 35  1  0
 24 25  1  0
 25 26  2  0
 26 27  1  0
 26 35  1  0
 27 28  2  0
 27 29  1  0
 30 29  1  6
 30 31  1  0
 30 34  1  0
 31 32  1  0
 32 33  1  0
 33 34  1  0
 36 37  1  0
 37 38  1  0
 38 39  1  0
 40 41  1  0
 40 42  1  0
 42 43  1  0
 42 44  2  0
M  END
