
     RDKit          3D

 44 48  0  0  0  0  0  0  0  0999 V2000
   -1.2950    1.1880    1.4990 C   0  0  0  0  0  0  0  0  0  0  0  0
   -1.3650   -0.2590    1.1370 C   0  0  0  0  0  0  0  0  0  0  0  0
   -0.3540   -0.8240    0.5020 C   0  0  0  0  0  0  0  0  0  0  0  0
    0.8320    0.0620    0.2020 C   0  0  0  0  0  0  0  0  0  0  0  0
    2.0160   -0.6100    0.8480 C   0  0  0  0  0  0  0  0  0  0  0  0
    3.2810    0.1720    0.6340 C   0  0  0  0  0  0  0  0  0  0  0  0
    3.1860    1.2450    0.0210 O   0  0  0  0  0  0  0  0  0  0  0  0
    4.5070   -0.3180    1.1180 N   0  0  0  0  0  0  0  0  0  0  0  0
    5.7350    0.3230    0.9690 C   0  0  0  0  0  0  0  0  0  0  0  0
    5.9740    1.4830    0.3060 C   0  0  0  0  0  0  0  0  0  0  0  0
    7.2350    2.0620    0.1820 C   0  0  0  0  0  0  0  0  0  0  0  0
    8.2840    1.4030    0.7720 C   0  0  0  0  0  0  0  0  0  0  0  0
    8.0930    0.2270    1.4530 C   0  0  0  0  0  0  0  0  0  0  0  0
    6.8310   -0.3610    1.5830 C   0  0  0  0  0  0  0  0  0  0  0  0
    6.6740   -1.4750    2.2340 O   0  0  0  0  0  0  0  0  0  0  0  0
    7.2160   -2.4790    2.9370 C   0  0  0  0  0  0  0  0  0  0  0  0
    8.1740   -3.1530    2.1690 F   0  0  0  0  0  0  0  0  0  0  0  0
    9.6540    1.9890    0.6690 C   0  0  0  0  0  0  0  0  0  0  0  0
    9.7250    2.5800   -0.7420 C   0  0  0  0  0  0  0  0  0  0  0  0
    8.7880    3.7490   -0.7800 C   0  0  0  0  0  0  0  0  0  0  0  0
    7.3810    3.3310   -0.5640 C   0  0  0  0  0  0  0  0  0  0  0  0
   -0.3780   -2.1810   -0.0270 C   0  0  0  0  0  0  0  0  0  0  0  0
   -1.5170   -2.8760    0.1420 C   0  0  0  0  0  0  0  0  0  0  0  0
   -1.5430   -4.1390   -0.3370 F   0  0  0  0  0  0  0  0  0  0  0  0
   -2.6950   -2.2410    0.7210 C   0  0  0  0  0  0  0  0  0  0  0  0
   -3.8980   -2.6850    0.4710 C   0  0  0  0  0  0  0  0  0  0  0  0
   -4.3170   -3.8050   -0.3480 C   0  0  0  0  0  0  0  0  0  0  0  0
   -4.0190   -5.1300   -0.1860 C   0  0  0  0  0  0  0  0  0  0  0  0
   -4.6330   -5.8460   -1.2100 C   0  0  0  0  0  0  0  0  0  0  0  0
   -5.2900   -4.9010   -1.9600 C   0  0  0  0  0  0  0  0  0  0  0  0
   -6.0950   -5.2510   -3.1860 C   0  0  0  0  0  0  0  0  0  0  0  0
   -5.0880   -3.7420   -1.4370 O   0  0  0  0  0  0  0  0  0  0  0  0
   -2.4960   -1.0950    1.6020 C   0  0  2  0  0  0  0  0  0  0  0  0
   -3.6990   -0.3060    1.9770 C   0  0  0  0  0  0  0  0  0  0  0  0
   -4.2540    0.4870    0.9330 N   0  0  0  0  0  0  0  0  0  0  0  0
   -5.3900    1.3170    1.1210 C   0  0  0  0  0  0  0  0  0  0  0  0
   -5.9190    1.3410    2.2820 O   0  0  0  0  0  0  0  0  0  0  0  0
   -5.9890    2.1490    0.0750 C   0  0  1  0  0  0  0  0  0  0  0  0
   -7.0170    2.8990    0.6000 O   0  0  0  0  0  0  0  0  0  0  0  0
   -4.9310    2.9910   -0.6090 C   0  0  0  0  0  0  0  0  0  0  0  0
   -5.6390    3.3760   -1.8830 C   0  0  0  0  0  0  0  0  0  0  0  0
   -6.6480    2.3820   -2.1220 N   0  0  1  0  0  0  0  0  0  0  0  0
   -6.4300    1.7270   -3.4140 C   0  0  0  0  0  0  0  0  0  0  0  0
   -6.5190    1.3590   -1.1060 C   0  0  0  0  0  0  0  0  0  0  0  0
  1  2  1  0
  2  3  2  0
  2 33  1  0
  3  4  1  0
  3 22  1  0
  4  5  1  0
  5  6  1  0
  6  7  2  0
  6  8  1  0
  8  9  1  0
  9 10  2  0
  9 14  1  0
 10 11  1  0
 11 12  2  0
 11 21  1  0
 12 13  1  0
 12 18  1  0
 13 14  2  0
 14 15  1  0
 15 16  1  0
 16 17  1  0
 18 19  1  0
 19 20  1  0
 20 21  1  0
 22 23  2  0
 23 24  1  0
 23 25  1  0
 25 26  2  3
 25 33  1  0
 26 27  1  0
 27 28  2  0
 27 32  1  0
 28 29  1  0
 29 30  2  0
 30 31  1  0
 30 32  1  0
 33 34  1  6
 34 35  1  0
 35 36  1  0
 36 37  2  0
 36 38  1  0
 38 39  1  1
 38 40  1  0
 38 44  1  0
 40 41  1  0
 41 42  1  0
 42 43  1  6
 42 44  1  0
M  CHG  1  42   1
M  END
