
     RDKit          3D

 44 48  0  0  0  0  0  0  0  0999 V2000
   -3.5050    3.8980   -1.0480 C   0  0  0  0  0  0  0  0  0  0  0  0
   -3.9460    3.1480    0.2130 C   0  0  0  0  0  0  0  0  0  0  0  0
   -4.2560    1.8400   -0.2060 O   0  0  0  0  0  0  0  0  0  0  0  0
   -4.7020    0.8270    0.6380 C   0  0  0  0  0  0  0  0  0  0  0  0
   -4.8240    1.1550    1.8660 O   0  0  0  0  0  0  0  0  0  0  0  0
   -5.0150   -0.5240    0.1790 C   0  0  2  0  0  0  0  0  0  0  0  0
   -6.4090   -0.8640    0.6400 C   0  0  0  0  0  0  0  0  0  0  0  0
   -7.5260   -0.0530    0.1860 C   0  0  1  0  0  0  0  0  0  0  0  0
   -7.5730    1.3940    0.4780 C   0  0  0  0  0  0  0  0  0  0  0  0
   -7.8210   -0.2670   -1.2900 C   0  0  0  0  0  0  0  0  0  0  0  0
   -9.2130   -0.2880   -1.3200 O   0  0  0  0  0  0  0  0  0  0  0  0
   -9.5200   -1.0290   -0.1920 C   0  0  0  0  0  0  0  0  0  0  0  0
   -8.6960   -0.5920    0.8090 O   0  0  0  0  0  0  0  0  0  0  0  0
   -4.1630   -1.6260    0.7410 C   0  0  0  0  0  0  0  0  0  0  0  0
   -2.6790   -1.5190    0.5090 C   0  0  2  0  0  0  0  0  0  0  0  0
   -2.0160   -0.5410    1.4000 C   0  0  1  0  0  0  0  0  0  0  0  0
   -2.3180   -0.7770    2.8850 C   0  0  0  0  0  0  0  0  0  0  0  0
   -1.8280    0.3870    3.5280 O   0  0  0  0  0  0  0  0  0  0  0  0
   -0.4640    0.4990    3.5050 C   0  0  0  0  0  0  0  0  0  0  0  0
   -0.0400    0.6970    2.0420 C   0  0  0  0  0  0  0  0  0  0  0  0
   -0.5590   -0.5310    1.3850 N   0  0  0  0  0  0  0  0  0  0  0  0
    0.3180   -1.4650    0.9040 C   0  0  0  0  0  0  0  0  0  0  0  0
   -0.0640   -2.5180    0.3470 O   0  0  0  0  0  0  0  0  0  0  0  0
    1.7240   -1.3100    1.0030 N   0  0  0  0  0  0  0  0  0  0  0  0
    2.6510   -2.3330    0.4720 C   0  0  2  0  0  0  0  0  0  0  0  0
    3.4010   -2.9980    1.5970 C   0  0  0  0  0  0  0  0  0  0  0  0
    4.4060   -2.0260    2.1600 C   0  0  0  0  0  0  0  0  0  0  0  0
    5.5030   -1.8150    1.1480 C   0  0  0  0  0  0  0  0  0  0  0  0
    4.9160   -1.4610   -0.1610 C   0  0  0  0  0  0  0  0  0  0  0  0
    3.6070   -1.7230   -0.4680 C   0  0  0  0  0  0  0  0  0  0  0  0
    3.1960   -1.3570   -1.7570 C   0  0  0  0  0  0  0  0  0  0  0  0
    4.0510   -0.7730   -2.6530 C   0  0  0  0  0  0  0  0  0  0  0  0
    5.3680   -0.5190   -2.3160 C   0  0  0  0  0  0  0  0  0  0  0  0
    6.2470    0.0860   -3.3650 C   0  0  0  0  0  0  0  0  0  0  0  0
    5.8030   -0.8590   -1.0750 C   0  0  0  0  0  0  0  0  0  0  0  0
    7.4880   -0.5480   -0.5950 S   0  0  0  0  0  0  0  0  0  0  0  0
    7.6880    1.0280    0.2280 C   0  0  0  0  0  0  0  0  0  0  0  0
    7.4960    2.1900   -0.7060 C   0  0  1  0  0  0  0  0  0  0  0  0
    7.6430    3.3850    0.0510 O   0  0  0  0  0  0  0  0  0  0  0  0
    8.5990    2.2300   -1.7560 C   0  0  0  0  0  0  0  0  0  0  0  0
    8.3340    3.4160   -2.6480 C   0  0  0  0  0  0  0  0  0  0  0  0
   -2.5460   -1.1500   -0.9590 C   0  0  0  0  0  0  0  0  0  0  0  0
   -3.8600   -1.2590   -1.6950 C   0  0  0  0  0  0  0  0  0  0  0  0
   -4.8810   -0.5510   -1.1940 O   0  0  0  0  0  0  0  0  0  0  0  0
  1  2  1  0
  2  3  1  0
  3  4  1  0
  4  5  2  0
  4  6  1  0
  6  7  1  6
  6 14  1  0
  6 44  1  0
  7  8  1  0
  8  9  1  6
  8 10  1  0
  8 13  1  0
 10 11  1  0
 11 12  1  0
 12 13  1  0
 15 14  1  1
 15 16  1  0
 15 42  1  0
 16 17  1  1
 16 21  1  0
 17 18  1  0
 18 19  1  0
 19 20  1  0
 20 21  1  0
 21 22  1  0
 22 23  2  0
 22 24  1  0
 25 24  1  1
 25 26  1  0
 25 30  1  0
 26 27  1  0
 27 28  1  0
 28 29  1  0
 29 30  2  0
 29 35  1  0
 30 31  1  0
 31 32  2  0
 32 33  1  0
 33 34  1  0
 33 35  2  0
 35 36  1  0
 36 37  1  0
 37 38  1  0
 38 39  1  1
 38 40  1  0
 40 41  1  0
 42 43  1  0
 43 44  1  0
M  END
