
     RDKit          3D

 43 47  0  0  0  0  0  0  0  0999 V2000
    7.5570    2.2460   -2.0990 C   0  0  0  0  0  0  0  0  0  0  0  0
    6.6870    1.5900   -2.7970 C   0  0  0  0  0  0  0  0  0  0  0  0
    5.8330    0.4850   -2.3170 C   0  0  0  0  0  0  0  0  0  0  0  0
    5.0120   -0.0530   -3.1920 C   0  0  0  0  0  0  0  0  0  0  0  0
    5.9520    0.0870   -0.9750 N   0  0  0  0  0  0  0  0  0  0  0  0
    5.2420   -0.9340   -0.3140 C   0  0  0  0  0  0  0  0  0  0  0  0
    4.3990   -1.5980   -0.9380 O   0  0  0  0  0  0  0  0  0  0  0  0
    5.4780   -1.2390    1.1130 C   0  0  0  0  0  0  0  0  0  0  0  0
    6.7490   -1.1440    1.6180 C   0  0  0  0  0  0  0  0  0  0  0  0
    7.0510   -1.4130    2.9320 C   0  0  0  0  0  0  0  0  0  0  0  0
    6.0360   -1.8000    3.8120 C   0  0  0  0  0  0  0  0  0  0  0  0
    4.7660   -1.8900    3.2940 C   0  0  0  0  0  0  0  0  0  0  0  0
    4.4640   -1.6180    1.9610 C   0  0  0  0  0  0  0  0  0  0  0  0
    3.1380   -1.7300    1.4650 N   0  0  0  0  0  0  0  0  0  0  0  0
    2.3130   -0.5910    1.2120 C   0  0  0  0  0  0  0  0  0  0  0  0
    0.7940   -1.0030    1.2690 C   0  0  1  0  0  0  0  0  0  0  0  0
   -0.0250    0.1150    0.8400 C   0  0  0  0  0  0  0  0  0  0  0  0
   -1.4840    0.1930    0.7980 C   0  0  1  0  0  0  0  0  0  0  0  0
   -1.9530   -0.0390    2.2890 C   0  0  0  0  0  0  0  0  0  0  0  0
   -1.7870    1.4680    0.4450 O   0  0  0  0  0  0  0  0  0  0  0  0
   -2.3010    2.5780    0.1370 C   0  0  0  0  0  0  0  0  0  0  0  0
   -2.5890    2.9040   -1.1920 C   0  0  0  0  0  0  0  0  0  0  0  0
   -3.1430    4.0870   -1.5740 C   0  0  0  0  0  0  0  0  0  0  0  0
   -3.4490    5.0370   -0.6180 C   0  0  0  0  0  0  0  0  0  0  0  0
   -3.1970    4.7870    0.6970 C   0  0  0  0  0  0  0  0  0  0  0  0
   -2.6450    3.6040    1.0500 C   0  0  0  0  0  0  0  0  0  0  0  0
   -3.6400    6.0020    1.4750 C   0  0  2  0  0  0  0  0  0  0  0  0
   -4.9510    5.7420    1.8660 O   0  0  0  0  0  0  0  0  0  0  0  0
   -3.6950    7.0460    0.3970 C   0  0  0  0  0  0  0  0  0  0  0  0
   -4.0210    6.3140   -0.7960 O   0  0  0  0  0  0  0  0  0  0  0  0
   -2.3240   -0.7360    0.0130 C   0  0  1  0  0  0  0  0  0  0  0  0
   -3.7970   -0.2850    0.1630 C   0  0  0  0  0  0  0  0  0  0  0  0
   -1.9310   -0.8230   -1.4400 C   0  0  0  0  0  0  0  0  0  0  0  0
   -3.0440   -1.4140   -2.2930 C   0  0  0  0  0  0  0  0  0  0  0  0
   -3.4390   -2.6640   -1.7450 N   0  0  2  0  0  0  0  0  0  0  0  0
   -4.7310   -3.0150   -2.3490 C   0  0  0  0  0  0  0  0  0  0  0  0
   -5.0590   -4.4650   -2.1680 C   0  0  0  0  0  0  0  0  0  0  0  0
   -3.5960   -2.7740   -0.3470 C   0  0  0  0  0  0  0  0  0  0  0  0
   -2.4330   -2.1720    0.4790 C   0  0  0  0  0  0  0  0  0  0  0  0
    0.7980   -1.9950    0.2510 O   0  0  0  0  0  0  0  0  0  0  0  0
    1.2700   -3.1930    0.7150 C   0  0  0  0  0  0  0  0  0  0  0  0
    2.6470   -3.0270    1.2250 C   0  0  0  0  0  0  0  0  0  0  0  0
    3.3090   -4.0830    1.4170 O   0  0  0  0  0  0  0  0  0  0  0  0
  1  2  2  0
  2  3  1  0
  3  4  2  0
  3  5  1  0
  5  6  1  0
  6  7  2  0
  6  8  1  0
  8  9  2  0
  8 13  1  0
  9 10  1  0
 10 11  2  0
 11 12  1  0
 12 13  2  0
 13 14  1  0
 14 15  1  0
 14 42  1  0
 15 16  1  0
 16 17  1  6
 16 40  1  0
 17 18  1  0
 18 19  1  1
 18 20  1  0
 18 31  1  0
 20 21  1  0
 21 22  2  0
 21 26  1  0
 22 23  1  0
 23 24  2  0
 24 25  1  0
 24 30  1  0
 25 26  2  0
 25 27  1  0
 27 28  1  6
 27 29  1  0
 29 30  1  0
 31 32  1  6
 31 33  1  0
 31 39  1  0
 33 34  1  0
 34 35  1  0
 35 36  1  6
 35 38  1  0
 36 37  1  0
 38 39  1  0
 40 41  1  0
 41 42  1  0
 42 43  2  0
M  CHG  1  35   1
M  END
