
     RDKit          3D

 43 46  0  0  0  0  0  0  0  0999 V2000
   -8.2370    3.0240    0.3000 C   0  0  0  0  0  0  0  0  0  0  0  0
   -9.0390    2.2330   -0.3650 C   0  0  0  0  0  0  0  0  0  0  0  0
   -8.9530    0.7840   -0.4210 C   0  0  0  0  0  0  0  0  0  0  0  0
   -9.8280    0.0990   -1.1140 C   0  0  0  0  0  0  0  0  0  0  0  0
  -10.8980    0.7990   -1.8380 C   0  0  0  0  0  0  0  0  0  0  0  0
   -7.8570    0.0800    0.2720 C   0  0  1  0  0  0  0  0  0  0  0  0
   -8.1120   -1.4210    0.2250 C   0  0  0  0  0  0  0  0  0  0  0  0
   -6.6590    0.3100   -0.5660 N   0  0  0  0  0  0  0  0  0  0  0  0
   -5.5040   -0.0040    0.2160 C   0  0  2  0  0  0  0  0  0  0  0  0
   -4.8840    1.2820    0.7260 C   0  0  0  0  0  0  0  0  0  0  0  0
   -4.5080   -0.7430   -0.6200 C   0  0  2  0  0  0  0  0  0  0  0  0
   -5.0500   -1.9990   -1.2630 C   0  0  0  0  0  0  0  0  0  0  0  0
   -3.3380   -1.0640    0.1380 O   0  0  0  0  0  0  0  0  0  0  0  0
   -2.0780   -0.6060   -0.1920 C   0  0  0  0  0  0  0  0  0  0  0  0
   -1.9530    0.1140   -1.1900 O   0  0  0  0  0  0  0  0  0  0  0  0
   -0.9700   -1.0080    0.6680 C   0  0  0  0  0  0  0  0  0  0  0  0
    0.2330   -0.5530    0.3090 C   0  0  0  0  0  0  0  0  0  0  0  0
    0.2300    0.2270   -0.8200 O   0  0  0  0  0  0  0  0  0  0  0  0
    1.4320    0.4610   -1.5030 C   0  0  0  0  0  0  0  0  0  0  0  0
    2.6690    0.5300   -0.6860 C   0  0  0  0  0  0  0  0  0  0  0  0
    2.6560   -0.3020    0.5560 C   0  0  0  0  0  0  0  0  0  0  0  0
    3.8890   -0.3470    1.3330 C   0  0  0  0  0  0  0  0  0  0  0  0
    3.9640   -0.7750    2.5110 O   0  0  0  0  0  0  0  0  0  0  0  0
    5.1170    0.1020    0.7840 N   0  0  0  0  0  0  0  0  0  0  0  0
    6.3840    0.1240    1.4230 C   0  0  0  0  0  0  0  0  0  0  0  0
    6.5510    0.1010    2.7780 C   0  0  0  0  0  0  0  0  0  0  0  0
    7.8340    0.1010    3.3480 C   0  0  0  0  0  0  0  0  0  0  0  0
    8.9440    0.1250    2.5360 C   0  0  0  0  0  0  0  0  0  0  0  0
    8.8140    0.1490    1.1400 C   0  0  0  0  0  0  0  0  0  0  0  0
   10.0010    0.1370    0.3990 N   0  0  0  0  0  0  0  0  0  0  0  0
   10.1200    0.5520   -0.9410 C   0  0  0  0  0  0  0  0  0  0  0  0
   11.1120   -0.0240   -1.7540 C   0  0  0  0  0  0  0  0  0  0  0  0
   11.2960    0.3560   -3.0610 C   0  0  0  0  0  0  0  0  0  0  0  0
   10.5120    1.3270   -3.6390 C   0  0  0  0  0  0  0  0  0  0  0  0
    9.5400    1.9010   -2.8620 C   0  0  0  0  0  0  0  0  0  0  0  0
    9.3560    1.5200   -1.5500 C   0  0  0  0  0  0  0  0  0  0  0  0
    7.5440    0.1470    0.6460 C   0  0  0  0  0  0  0  0  0  0  0  0
    1.5290   -0.8020    0.9930 C   0  0  0  0  0  0  0  0  0  0  0  0
    1.7210   -1.7440    2.1030 C   0  0  0  0  0  0  0  0  0  0  0  0
    2.7880   -2.3830    2.0980 O   0  0  0  0  0  0  0  0  0  0  0  0
    0.7770   -1.9980    3.1970 C   0  0  0  0  0  0  0  0  0  0  0  0
   -0.4750   -2.6610    2.5870 C   0  0  0  0  0  0  0  0  0  0  0  0
   -1.2110   -1.8040    1.7680 O   0  0  0  0  0  0  0  0  0  0  0  0
  1  2  2  0
  2  3  1  0
  3  4  2  3
  3  6  1  0
  4  5  1  0
  6  7  1  6
  6  8  1  0
  8  9  1  0
  9 10  1  6
  9 11  1  0
 11 12  1  1
 11 13  1  0
 13 14  1  0
 14 15  2  0
 14 16  1  0
 16 17  2  0
 16 43  1  0
 17 18  1  0
 17 38  1  0
 18 19  1  0
 19 20  1  0
 20 21  1  0
 21 22  1  0
 21 38  2  0
 22 23  2  0
 22 24  1  0
 24 25  1  0
 25 26  2  0
 25 37  1  0
 26 27  1  0
 27 28  2  0
 28 29  1  0
 29 30  1  0
 29 37  2  0
 30 31  1  0
 31 32  2  0
 31 36  1  0
 32 33  1  0
 33 34  2  0
 34 35  1  0
 35 36  2  0
 38 39  1  0
 39 40  2  0
 39 41  1  0
 41 42  1  0
 42 43  1  0
M  CHG  1   8   1
M  END
