
     RDKit          3D

 43 47  0  0  0  0  0  0  0  0999 V2000
   -4.6210   -2.4260    1.4800 C   0  0  0  0  0  0  0  0  0  0  0  0
   -4.5910   -1.6400    0.2560 N   0  0  0  0  0  0  0  0  0  0  0  0
   -4.4270   -0.2380    0.5080 C   0  0  2  0  0  0  0  0  0  0  0  0
   -5.5870    0.5820    0.0090 C   0  0  0  0  0  0  0  0  0  0  0  0
   -6.7570    0.0840    0.5170 C   0  0  0  0  0  0  0  0  0  0  0  0
   -7.9580    0.7100    0.1910 C   0  0  0  0  0  0  0  0  0  0  0  0
   -7.9590    1.8120   -0.6300 C   0  0  0  0  0  0  0  0  0  0  0  0
   -9.1640    2.4270   -0.9470 O   0  0  0  0  0  0  0  0  0  0  0  0
   -9.1370    3.5570   -1.7900 C   0  0  0  0  0  0  0  0  0  0  0  0
   -6.7700    2.2840   -1.1230 C   0  0  0  0  0  0  0  0  0  0  0  0
   -5.5500    1.6790   -0.8140 C   0  0  0  0  0  0  0  0  0  0  0  0
   -4.3960    2.3540   -1.4510 C   0  0  0  0  0  0  0  0  0  0  0  0
   -3.3990    2.7600   -0.4090 C   0  0  0  0  0  0  0  0  0  0  0  0
   -2.9530    1.6840    0.5040 C   0  0  0  0  0  0  0  0  0  0  0  0
   -3.1450    0.2700   -0.0610 C   0  0  1  0  0  0  0  0  0  0  0  0
   -2.0680   -0.4900    0.3980 O   0  0  0  0  0  0  0  0  0  0  0  0
   -1.0960   -0.9660   -0.4820 C   0  0  0  0  0  0  0  0  0  0  0  0
   -1.3000   -0.6630   -1.6940 O   0  0  0  0  0  0  0  0  0  0  0  0
    0.0140   -1.7100   -0.0020 C   0  0  0  0  0  0  0  0  0  0  0  0
    1.1310   -0.9620    0.4180 C   0  0  0  0  0  0  0  0  0  0  0  0
    1.0980    0.4130    0.3990 O   0  0  0  0  0  0  0  0  0  0  0  0
    2.1760    1.1930    0.7950 C   0  0  0  0  0  0  0  0  0  0  0  0
    3.4070    1.0120   -0.0080 C   0  0  0  0  0  0  0  0  0  0  0  0
    3.2860    0.4220   -1.2550 C   0  0  0  0  0  0  0  0  0  0  0  0
    4.4060    0.2570   -1.9940 C   0  0  0  0  0  0  0  0  0  0  0  0
    5.6770    0.6560   -1.5530 C   0  0  0  0  0  0  0  0  0  0  0  0
    6.8290    0.4570   -2.4710 C   0  0  0  0  0  0  0  0  0  0  0  0
    5.8150    1.2370   -0.3270 C   0  0  0  0  0  0  0  0  0  0  0  0
    7.0710    1.7140    0.2370 C   0  0  0  0  0  0  0  0  0  0  0  0
    8.3740    1.4960   -0.1160 C   0  0  0  0  0  0  0  0  0  0  0  0
    9.2210    2.1630    0.7800 C   0  0  0  0  0  0  0  0  0  0  0  0
   10.6780    2.1680    0.7300 C   0  0  0  0  0  0  0  0  0  0  0  0
    8.4080    2.7540    1.6360 N   0  0  0  0  0  0  0  0  0  0  0  0
    7.1470    2.5160    1.3530 N   0  0  0  0  0  0  0  0  0  0  0  0
    4.6470    1.4030    0.4290 C   0  0  0  0  0  0  0  0  0  0  0  0
    2.2700   -1.5880    0.8560 C   0  0  0  0  0  0  0  0  0  0  0  0
    2.3230   -2.9850    0.8850 C   0  0  0  0  0  0  0  0  0  0  0  0
    1.2280   -3.6830    0.4730 C   0  0  0  0  0  0  0  0  0  0  0  0
    1.2810   -5.0910    0.5030 O   0  0  0  0  0  0  0  0  0  0  0  0
    2.4410   -5.7300    0.9530 C   0  0  0  0  0  0  0  0  0  0  0  0
    0.0500   -3.0660    0.0200 C   0  0  0  0  0  0  0  0  0  0  0  0
   -0.9620   -3.9240   -0.3590 O   0  0  0  0  0  0  0  0  0  0  0  0
   -1.8870   -4.4150    0.5870 C   0  0  0  0  0  0  0  0  0  0  0  0
  1  2  1  0
  3  2  1  6
  3  4  1  0
  3 15  1  0
  4  5  2  0
  4 11  1  0
  5  6  1  0
  6  7  2  0
  7  8  1  0
  7 10  1  0
  8  9  1  0
 10 11  2  0
 11 12  1  0
 12 13  1  0
 13 14  1  0
 14 15  1  0
 15 16  1  1
 16 17  1  0
 17 18  2  0
 17 19  1  0
 19 20  1  0
 19 41  2  0
 20 21  1  0
 20 36  2  0
 21 22  1  0
 22 23  1  0
 23 24  2  0
 23 35  1  0
 24 25  1  0
 25 26  2  0
 26 27  1  0
 26 28  1  0
 28 29  1  0
 28 35  2  0
 29 30  1  0
 29 34  2  0
 30 31  2  0
 31 32  1  0
 31 33  1  0
 33 34  1  0
 36 37  1  0
 37 38  2  0
 38 39  1  0
 38 41  1  0
 39 40  1  0
 41 42  1  0
 42 43  1  0
M  CHG  1   2   1
M  END
