
     RDKit          3D

 43 47  0  0  0  0  0  0  0  0999 V2000
   -3.0900    5.1450    1.6870 C   0  0  0  0  0  0  0  0  0  0  0  0
   -2.4320    3.8990    1.1860 C   0  0  0  0  0  0  0  0  0  0  0  0
   -3.4240    2.8780    0.8380 N   0  0  0  0  0  0  0  0  0  0  0  0
   -3.2780    1.6770    1.5830 C   0  0  0  0  0  0  0  0  0  0  0  0
   -3.3290    0.4040    0.6710 C   0  0  1  0  0  0  0  0  0  0  0  0
   -4.5820    0.4170   -0.0190 C   0  0  0  0  0  0  0  0  0  0  0  0
   -5.6520    0.9830    0.7040 C   0  0  0  0  0  0  0  0  0  0  0  0
   -6.9330    1.0020    0.2480 C   0  0  0  0  0  0  0  0  0  0  0  0
   -7.2420    0.4550   -0.9700 C   0  0  0  0  0  0  0  0  0  0  0  0
   -6.2590   -0.1110   -1.7290 C   0  0  0  0  0  0  0  0  0  0  0  0
   -4.9520   -0.1150   -1.2340 C   0  0  0  0  0  0  0  0  0  0  0  0
   -3.9590   -0.6700   -1.9960 O   0  0  0  0  0  0  0  0  0  0  0  0
   -4.1820   -1.2600   -3.2350 C   0  0  0  0  0  0  0  0  0  0  0  0
   -5.0550   -2.4720   -3.1540 C   0  0  0  0  0  0  0  0  0  0  0  0
   -8.6080    0.5950   -1.2120 O   0  0  0  0  0  0  0  0  0  0  0  0
   -9.2110    0.9090    0.0370 C   0  0  0  0  0  0  0  0  0  0  0  0
   -8.1510    1.4910    0.7620 O   0  0  0  0  0  0  0  0  0  0  0  0
   -2.0020    0.2240    0.1620 C   0  0  2  0  0  0  0  0  0  0  0  0
   -1.5870   -0.9330   -0.6530 C   0  0  0  0  0  0  0  0  0  0  0  0
   -0.3180   -1.5680   -0.2360 N   0  0  0  0  0  0  0  0  0  0  0  0
    0.7160   -1.8990   -1.1420 C   0  0  0  0  0  0  0  0  0  0  0  0
    0.6130   -1.6420   -2.3730 O   0  0  0  0  0  0  0  0  0  0  0  0
    1.9470   -2.5570   -0.7240 C   0  0  0  0  0  0  0  0  0  0  0  0
    3.0870   -1.8680   -0.3840 C   0  0  0  0  0  0  0  0  0  0  0  0
    4.2410   -2.5100    0.0000 C   0  0  0  0  0  0  0  0  0  0  0  0
    5.4970   -1.8340    0.3370 C   0  0  0  0  0  0  0  0  0  0  0  0
    6.3050   -2.4420    1.0600 O   0  0  0  0  0  0  0  0  0  0  0  0
    5.8260   -0.5510   -0.1190 N   0  0  0  0  0  0  0  0  0  0  0  0
    6.9990    0.1920    0.1230 C   0  0  0  0  0  0  0  0  0  0  0  0
    8.0570   -0.2270    0.8840 C   0  0  0  0  0  0  0  0  0  0  0  0
    9.2080    0.5400    1.0860 C   0  0  0  0  0  0  0  0  0  0  0  0
    9.2730    1.7730    0.4870 C   0  0  0  0  0  0  0  0  0  0  0  0
    8.2340    2.2500   -0.2950 C   0  0  0  0  0  0  0  0  0  0  0  0
    8.3560    3.6020   -0.9210 C   0  0  0  0  0  0  0  0  0  0  0  0
    7.1420    1.4600   -0.4530 C   0  0  0  0  0  0  0  0  0  0  0  0
    6.0190    1.9570   -1.2850 C   0  0  0  0  0  0  0  0  0  0  0  0
    4.2080   -3.8980    0.0330 C   0  0  0  0  0  0  0  0  0  0  0  0
    3.0620   -4.5980   -0.3090 C   0  0  0  0  0  0  0  0  0  0  0  0
    1.9140   -3.9570   -0.6930 C   0  0  0  0  0  0  0  0  0  0  0  0
    0.6700   -4.6760   -1.0670 C   0  0  0  0  0  0  0  0  0  0  0  0
   -0.1600   -1.8820    1.1530 C   0  0  0  0  0  0  0  0  0  0  0  0
   -0.9690   -0.8740    1.9330 C   0  0  0  0  0  0  0  0  0  0  0  0
   -1.1140    0.3120    1.2720 O   0  0  0  0  0  0  0  0  0  0  0  0
  1  2  1  0
  2  3  1  0
  3  4  1  0
  5  4  1  6
  5  6  1  0
  5 18  1  0
  6  7  2  0
  6 11  1  0
  7  8  1  0
  8  9  2  0
  8 17  1  0
  9 10  1  0
  9 15  1  0
 10 11  2  0
 11 12  1  0
 12 13  1  0
 13 14  1  0
 15 16  1  0
 16 17  1  0
 18 19  1  1
 18 43  1  0
 19 20  1  0
 20 21  1  0
 20 41  1  0
 21 22  2  0
 21 23  1  0
 23 24  2  0
 23 39  1  0
 24 25  1  0
 25 26  1  0
 25 37  2  0
 26 27  2  0
 26 28  1  0
 28 29  1  0
 29 30  2  0
 29 35  1  0
 30 31  1  0
 31 32  2  0
 32 33  1  0
 33 34  1  0
 33 35  2  0
 35 36  1  0
 37 38  1  0
 38 39  2  0
 39 40  1  0
 41 42  1  0
 42 43  1  0
M  CHG  1   3   1
M  END
