
     RDKit          3D

 43 47  0  0  0  0  0  0  0  0999 V2000
    8.1010    3.8600   -0.0190 C   0  0  0  0  0  0  0  0  0  0  0  0
    8.6240    2.8480    0.9890 C   0  0  1  0  0  0  0  0  0  0  0  0
    7.9340    3.1270    2.3070 C   0  0  0  0  0  0  0  0  0  0  0  0
    8.1370    1.5110    0.4950 C   0  0  0  0  0  0  0  0  0  0  0  0
    8.9980    0.4890    0.1650 C   0  0  0  0  0  0  0  0  0  0  0  0
    8.5070   -0.7400   -0.2930 C   0  0  0  0  0  0  0  0  0  0  0  0
    7.1560   -0.9620   -0.4250 C   0  0  0  0  0  0  0  0  0  0  0  0
    6.2930    0.0640   -0.0930 C   0  0  0  0  0  0  0  0  0  0  0  0
    6.7820    1.2690    0.3550 C   0  0  0  0  0  0  0  0  0  0  0  0
    4.8480   -0.2430   -0.2630 C   0  0  0  0  0  0  0  0  0  0  0  0
    4.6180   -1.6020    0.4050 C   0  0  2  0  0  0  0  0  0  0  0  0
    5.3030   -1.5590    1.7600 C   0  0  0  0  0  0  0  0  0  0  0  0
    5.2130   -2.6540   -0.4840 C   0  0  1  0  0  0  0  0  0  0  0  0
    4.3830   -2.8470   -1.6060 O   0  0  0  0  0  0  0  0  0  0  0  0
    3.0380   -3.3010   -1.2710 C   0  0  0  0  0  0  0  0  0  0  0  0
    2.9840   -4.6930   -0.9970 C   0  0  0  0  0  0  0  0  0  0  0  0
    4.0970   -5.3630   -1.0630 O   0  0  0  0  0  0  0  0  0  0  0  0
    2.1360   -2.4070   -1.2770 C   0  0  0  0  0  0  0  0  0  0  0  0
    0.7310   -2.4600   -1.0030 C   0  0  0  0  0  0  0  0  0  0  0  0
    0.0400   -1.3190   -1.1160 C   0  0  0  0  0  0  0  0  0  0  0  0
   -1.3860   -1.2740   -0.8630 C   0  0  0  0  0  0  0  0  0  0  0  0
   -2.0230   -0.1250   -0.9860 C   0  0  0  0  0  0  0  0  0  0  0  0
   -3.4470    0.0180   -0.7550 C   0  0  0  0  0  0  0  0  0  0  0  0
   -4.1380   -0.6630    0.2180 C   0  0  0  0  0  0  0  0  0  0  0  0
   -5.5090   -0.5270    0.4370 C   0  0  0  0  0  0  0  0  0  0  0  0
   -6.0980   -1.2920    1.4950 C   0  0  0  0  0  0  0  0  0  0  0  0
   -7.2950   -1.2550    1.8080 O   0  0  0  0  0  0  0  0  0  0  0  0
   -6.1880    0.3390   -0.3740 C   0  0  0  0  0  0  0  0  0  0  0  0
   -7.5820    0.5570   -0.2840 N   0  0  0  0  0  0  0  0  0  0  0  0
   -8.2820    1.4910   -1.1390 C   0  0  2  0  0  0  0  0  0  0  0  0
   -7.8640    2.9350   -0.8980 C   0  0  0  0  0  0  0  0  0  0  0  0
   -9.0170    3.6920   -0.2260 C   0  0  0  0  0  0  0  0  0  0  0  0
   -9.4520    2.9200    0.9000 N   0  0  0  0  0  0  0  0  0  0  0  0
  -10.1150    1.6900    0.4810 C   0  0  0  0  0  0  0  0  0  0  0  0
   -9.7640    1.3260   -0.9430 C   0  0  0  0  0  0  0  0  0  0  0  0
   -5.5260    1.0300   -1.3510 N   0  0  0  0  0  0  0  0  0  0  0  0
   -4.2070    0.8770   -1.5360 C   0  0  0  0  0  0  0  0  0  0  0  0
   -3.5880    1.5130   -2.4370 O   0  0  0  0  0  0  0  0  0  0  0  0
   -2.0030   -2.4480   -0.5040 O   0  0  0  0  0  0  0  0  0  0  0  0
   -1.3380   -3.6020   -0.1250 C   0  0  0  0  0  0  0  0  0  0  0  0
    0.0950   -3.7140   -0.5800 C   0  0  0  0  0  0  0  0  0  0  0  0
    6.5860   -2.2330   -0.9000 C   0  0  0  0  0  0  0  0  0  0  0  0
    7.3100   -2.9230   -1.6590 O   0  0  0  0  0  0  0  0  0  0  0  0
  2  1  1  6
  2  3  1  0
  2  4  1  0
  4  5  2  0
  4  9  1  0
  5  6  1  0
  6  7  2  0
  7  8  1  0
  7 42  1  0
  8  9  2  0
  8 10  1  0
 10 11  1  0
 11 12  1  1
 11 13  1  0
 13 14  1  6
 13 42  1  0
 14 15  1  0
 15 16  1  0
 15 18  2  3
 16 17  2  0
 18 19  1  0
 19 20  2  0
 19 41  1  0
 20 21  1  0
 21 22  2  3
 21 39  1  0
 22 23  1  0
 23 24  2  0
 23 37  1  0
 24 25  1  0
 25 26  1  0
 25 28  2  0
 26 27  2  0
 28 29  1  0
 28 36  1  0
 30 29  1  1
 30 31  1  0
 30 35  1  0
 31 32  1  0
 32 33  1  0
 33 34  1  0
 34 35  1  0
 36 37  1  0
 37 38  2  0
 39 40  1  0
 40 41  1  0
 42 43  2  0
M  CHG  1  33   1
M  END
