
     RDKit          3D

 43 47  0  0  0  0  0  0  0  0999 V2000
   -9.6640   -2.2550   -2.3900 C   0  0  0  0  0  0  0  0  0  0  0  0
   -8.5900   -1.4940   -1.9530 O   0  0  0  0  0  0  0  0  0  0  0  0
   -8.6280   -0.2120   -1.4330 C   0  0  0  0  0  0  0  0  0  0  0  0
   -9.8530    0.4000   -1.3210 C   0  0  0  0  0  0  0  0  0  0  0  0
   -9.9330    1.6890   -0.8020 C   0  0  0  0  0  0  0  0  0  0  0  0
   -8.7980    2.3350   -0.4100 C   0  0  0  0  0  0  0  0  0  0  0  0
   -8.8730    3.7170    0.1400 C   0  0  0  0  0  0  0  0  0  0  0  0
   -7.5550    1.6980   -0.5290 C   0  0  0  0  0  0  0  0  0  0  0  0
   -7.4450    0.4350   -1.0340 C   0  0  0  0  0  0  0  0  0  0  0  0
   -6.2340   -0.2940   -1.2050 C   0  0  0  0  0  0  0  0  0  0  0  0
   -4.9610    0.1970   -0.8560 N   0  0  2  0  0  0  0  0  0  0  0  0
   -4.5930    1.5120   -1.1880 C   0  0  0  0  0  0  0  0  0  0  0  0
   -3.1280    1.4740   -1.6860 C   0  0  0  0  0  0  0  0  0  0  0  0
   -2.6680    0.1370   -1.0690 C   0  0  1  0  0  0  0  0  0  0  0  0
   -2.5720    0.2910    0.3080 O   0  0  0  0  0  0  0  0  0  0  0  0
   -1.5040   -0.0710    1.1130 C   0  0  0  0  0  0  0  0  0  0  0  0
   -0.4890    0.8330    1.3370 C   0  0  0  0  0  0  0  0  0  0  0  0
   -0.4980    2.2000    0.7350 C   0  0  0  0  0  0  0  0  0  0  0  0
    0.5730    0.4510    2.1480 C   0  0  0  0  0  0  0  0  0  0  0  0
    0.6440   -0.7840    2.7270 C   0  0  0  0  0  0  0  0  0  0  0  0
    1.7730   -1.1560    3.5780 C   0  0  0  0  0  0  0  0  0  0  0  0
    2.8480   -1.8310    2.9220 N   0  0  0  0  0  0  0  0  0  0  0  0
    3.8460   -1.2400    2.1110 C   0  0  0  0  0  0  0  0  0  0  0  0
    3.7910    0.0010    1.9460 O   0  0  0  0  0  0  0  0  0  0  0  0
    4.9240   -2.0330    1.4690 C   0  0  1  0  0  0  0  0  0  0  0  0
    4.2080   -2.8900    0.4090 C   0  0  0  0  0  0  0  0  0  0  0  0
    5.8330   -1.1900    0.7260 N   0  0  0  0  0  0  0  0  0  0  0  0
    7.2430   -1.3300    0.7880 C   0  0  0  0  0  0  0  0  0  0  0  0
    7.7140   -2.2430    1.5270 O   0  0  0  0  0  0  0  0  0  0  0  0
    8.1400   -0.4700    0.0380 C   0  0  0  0  0  0  0  0  0  0  0  0
    7.6910    0.6820   -0.5750 C   0  0  0  0  0  0  0  0  0  0  0  0
    8.5710    1.4920   -1.2920 C   0  0  0  0  0  0  0  0  0  0  0  0
    9.8900    1.1540   -1.3970 C   0  0  0  0  0  0  0  0  0  0  0  0
   10.3320   -0.0060   -0.7780 C   0  0  0  0  0  0  0  0  0  0  0  0
    9.4620   -0.8050   -0.0690 C   0  0  0  0  0  0  0  0  0  0  0  0
   11.6770   -0.2980   -0.9200 O   0  0  0  0  0  0  0  0  0  0  0  0
   12.6460    0.6990   -1.0350 C   0  0  0  0  0  0  0  0  0  0  0  0
   12.1810    1.9490   -1.7080 C   0  0  0  0  0  0  0  0  0  0  0  0
   10.8110    1.9150   -2.0930 O   0  0  0  0  0  0  0  0  0  0  0  0
   -0.4130   -1.6500    2.4600 C   0  0  0  0  0  0  0  0  0  0  0  0
   -1.4900   -1.3340    1.6690 C   0  0  0  0  0  0  0  0  0  0  0  0
   -2.5840   -2.3380    1.4460 C   0  0  0  0  0  0  0  0  0  0  0  0
   -3.9050   -0.6670   -1.3930 C   0  0  0  0  0  0  0  0  0  0  0  0
  1  2  1  0
  2  3  1  0
  3  4  2  0
  3  9  1  0
  4  5  1  0
  5  6  2  0
  6  7  1  0
  6  8  1  0
  8  9  2  0
  9 10  1  0
 11 10  1  6
 11 12  1  0
 11 43  1  0
 12 13  1  0
 13 14  1  0
 14 15  1  1
 14 43  1  0
 15 16  1  0
 16 17  2  0
 16 41  1  0
 17 18  1  0
 17 19  1  0
 19 20  2  0
 20 21  1  0
 20 40  1  0
 21 22  1  0
 22 23  1  0
 23 24  2  0
 23 25  1  0
 25 26  1  6
 25 27  1  0
 27 28  1  0
 28 29  2  0
 28 30  1  0
 30 31  2  0
 30 35  1  0
 31 32  1  0
 32 33  2  0
 33 34  1  0
 33 39  1  0
 34 35  2  0
 34 36  1  0
 36 37  1  0
 37 38  1  0
 38 39  1  0
 40 41  2  0
 41 42  1  0
M  CHG  1  11   1
M  END
