
     RDKit          3D

 43 46  0  0  0  0  0  0  0  0999 V2000
   -4.9470   -3.5290    0.2630 C   0  0  0  0  0  0  0  0  0  0  0  0
   -4.4420   -2.3540   -0.0350 C   0  0  0  0  0  0  0  0  0  0  0  0
   -4.7610   -1.5570   -1.2460 C   0  0  0  0  0  0  0  0  0  0  0  0
   -4.3280   -0.2370   -0.8360 N   0  0  0  0  0  0  0  0  0  0  0  0
   -3.4090   -0.3500    0.2760 C   0  0  0  0  0  0  0  0  0  0  0  0
   -3.4650   -1.5570    0.7400 C   0  0  0  0  0  0  0  0  0  0  0  0
   -2.6570   -2.0720    1.8920 C   0  0  0  0  0  0  0  0  0  0  0  0
   -1.4980   -2.9140    1.4580 C   0  0  1  0  0  0  0  0  0  0  0  0
   -1.7490   -4.3290    1.4330 N   0  0  0  0  0  0  0  0  0  0  0  0
   -2.2010   -4.9020    2.6570 C   0  0  0  0  0  0  0  0  0  0  0  0
   -2.2150   -6.4240    2.4390 C   0  0  0  0  0  0  0  0  0  0  0  0
   -1.1770   -2.4930    0.0290 C   0  0  0  0  0  0  0  0  0  0  0  0
   -0.2130   -1.4880    0.1050 O   0  0  0  0  0  0  0  0  0  0  0  0
    0.2520   -0.6540   -0.9060 C   0  0  0  0  0  0  0  0  0  0  0  0
    1.5380   -0.3260   -0.7780 C   0  0  0  0  0  0  0  0  0  0  0  0
    2.2260    0.5320   -1.7250 C   0  0  0  0  0  0  0  0  0  0  0  0
    3.5430    0.6960   -1.7270 C   0  0  0  0  0  0  0  0  0  0  0  0
    4.1200    1.5320   -2.6640 O   0  0  0  0  0  0  0  0  0  0  0  0
    5.2290    1.2030   -3.4570 C   0  0  0  0  0  0  0  0  0  0  0  0
    5.5330    2.3920   -4.3400 C   0  0  0  0  0  0  0  0  0  0  0  0
    4.4280    0.0060   -0.7490 C   0  0  0  0  0  0  0  0  0  0  0  0
    3.6920   -1.2020   -0.2640 C   0  0  1  0  0  0  0  0  0  0  0  0
    4.5080   -2.1870    0.4810 C   0  0  0  0  0  0  0  0  0  0  0  0
    5.1850   -1.7540    1.7160 C   0  0  0  0  0  0  0  0  0  0  0  0
    2.3850   -0.8040    0.3570 C   0  0  1  0  0  0  0  0  0  0  0  0
    2.4280    0.2570    1.3410 C   0  0  0  0  0  0  0  0  0  0  0  0
    1.8220    1.3420    1.1080 O   0  0  0  0  0  0  0  0  0  0  0  0
    3.0810    0.2290    2.5590 O   0  0  0  0  0  0  0  0  0  0  0  0
    3.0690    1.3180    3.4630 C   0  0  0  0  0  0  0  0  0  0  0  0
    3.8520    1.0240    4.7080 C   0  0  0  0  0  0  0  0  0  0  0  0
   -0.4860   -0.1350   -2.0270 C   0  0  0  0  0  0  0  0  0  0  0  0
    0.0540   -0.5890   -3.1700 O   0  0  0  0  0  0  0  0  0  0  0  0
   -1.6010    0.7090   -2.1390 N   0  0  0  0  0  0  0  0  0  0  0  0
   -2.0840    1.8400   -1.4280 C   0  0  0  0  0  0  0  0  0  0  0  0
   -2.1680    3.0770   -2.1270 C   0  0  0  0  0  0  0  0  0  0  0  0
   -2.5900    4.2530   -1.6160 C   0  0  0  0  0  0  0  0  0  0  0  0
   -2.6360    5.4270   -2.3910 O   0  0  0  0  0  0  0  0  0  0  0  0
   -3.0910    6.6180   -1.7800 C   0  0  0  0  0  0  0  0  0  0  0  0
   -3.0470    7.7340   -2.8130 C   0  0  0  0  0  0  0  0  0  0  0  0
   -2.9790    4.2670   -0.2930 C   0  0  0  0  0  0  0  0  0  0  0  0
   -2.9170    3.0940    0.4220 C   0  0  0  0  0  0  0  0  0  0  0  0
   -2.4800    1.8890   -0.1210 C   0  0  0  0  0  0  0  0  0  0  0  0
   -2.5650    0.7340    0.8140 C   0  0  0  0  0  0  0  0  0  0  0  0
  1  2  2  0
  2  3  1  0
  2  6  1  0
  3  4  1  0
  4  5  1  0
  5  6  2  0
  5 43  1  0
  6  7  1  0
  7  8  1  0
  8  9  1  6
  8 12  1  0
  9 10  1  0
 10 11  1  0
 12 13  1  0
 13 14  1  0
 14 15  2  3
 14 31  1  0
 15 16  1  0
 15 25  1  0
 16 17  2  0
 17 18  1  0
 17 21  1  0
 18 19  1  0
 19 20  1  0
 21 22  1  0
 22 23  1  1
 22 25  1  0
 23 24  1  0
 25 26  1  1
 26 27  2  0
 26 28  1  0
 28 29  1  0
 29 30  1  0
 31 32  2  0
 31 33  1  0
 33 34  1  0
 34 35  2  0
 34 42  1  0
 35 36  1  0
 36 37  1  0
 36 40  2  0
 37 38  1  0
 38 39  1  0
 40 41  1  0
 41 42  2  0
 42 43  1  0
M  CHG  1   9   1
M  END
