
     RDKit          3D

 26 29  0  0  0  0  0  0  0  0999 V2000
   -4.7930   -2.7180    0.3180 C   0  0  0  0  0  0  0  0  0  0  0  0
   -3.6180   -2.3790   -0.4630 N   0  0  2  0  0  0  0  0  0  0  0  0
   -2.5810   -3.2940   -0.1330 C   0  0  0  0  0  0  0  0  0  0  0  0
   -1.2820   -2.6880   -0.5930 C   0  0  0  0  0  0  0  0  0  0  0  0
   -1.0190   -1.5100    0.3790 C   0  0  1  0  0  0  0  0  0  0  0  0
    0.3750   -1.1310    0.3750 C   0  0  0  0  0  0  0  0  0  0  0  0
    1.0590   -1.2280    1.4590 O   0  0  0  0  0  0  0  0  0  0  0  0
    1.1480   -0.6470   -0.7080 N   0  0  0  0  0  0  0  0  0  0  0  0
    2.4860   -0.3100   -0.6970 N   0  0  0  0  0  0  0  0  0  0  0  0
    3.1380    0.6400    0.0930 C   0  0  0  0  0  0  0  0  0  0  0  0
    2.4560    1.2990    0.9120 O   0  0  0  0  0  0  0  0  0  0  0  0
    4.5670    0.8810   -0.0080 C   0  0  0  0  0  0  0  0  0  0  0  0
    5.4400    0.1000   -0.7340 C   0  0  0  0  0  0  0  0  0  0  0  0
    6.7950    0.3710   -0.7930 C   0  0  0  0  0  0  0  0  0  0  0  0
    7.3460    1.4390   -0.1280 C   0  0  0  0  0  0  0  0  0  0  0  0
    6.4690    2.2390    0.6110 C   0  0  0  0  0  0  0  0  0  0  0  0
    5.1240    1.9540    0.6580 C   0  0  0  0  0  0  0  0  0  0  0  0
   -2.0490   -0.5260    0.1060 C   0  0  0  0  0  0  0  0  0  0  0  0
   -3.2950   -1.0060   -0.3020 C   0  0  0  0  0  0  0  0  0  0  0  0
   -4.3530   -0.1380   -0.5790 C   0  0  0  0  0  0  0  0  0  0  0  0
   -4.1510    1.2040   -0.4440 C   0  0  0  0  0  0  0  0  0  0  0  0
   -2.9450    1.6900   -0.0470 C   0  0  0  0  0  0  0  0  0  0  0  0
   -1.9000    0.8380    0.2270 C   0  0  0  0  0  0  0  0  0  0  0  0
   -0.7060    1.6140    0.6410 C   0  0  0  0  0  0  0  0  0  0  0  0
   -1.2780    2.9860    1.0120 C   0  0  0  0  0  0  0  0  0  0  0  0
   -2.5340    3.1120    0.1680 C   0  0  0  0  0  0  0  0  0  0  0  0
  2  1  1  1
  2  3  1  0
  2 19  1  0
  3  4  1  0
  4  5  1  0
  5  6  1  6
  5 18  1  0
  6  7  2  0
  6  8  1  0
  8  9  1  0
  9 10  1  0
 10 11  2  0
 10 12  1  0
 12 13  2  0
 12 17  1  0
 13 14  1  0
 14 15  2  0
 15 16  1  0
 16 17  2  0
 18 19  2  0
 18 23  1  0
 19 20  1  0
 20 21  2  0
 21 22  1  0
 22 23  2  0
 22 26  1  0
 23 24  1  0
 24 25  1  0
 25 26  1  0
M  CHG  1   2   1
M  END
