
     RDKit          3D

 26 29  0  0  0  0  0  0  0  0999 V2000
   -5.3650    1.5730   -1.7970 C   0  0  0  0  0  0  0  0  0  0  0  0
   -5.0120    0.3080   -1.6540 C   0  0  0  0  0  0  0  0  0  0  0  0
   -5.3750   -0.7870   -2.4730 N   0  0  0  0  0  0  0  0  0  0  0  0
   -4.8330   -1.8610   -2.0080 C   0  0  0  0  0  0  0  0  0  0  0  0
   -4.0460   -1.5540   -0.8100 C   0  0  0  0  0  0  0  0  0  0  0  0
   -4.1550   -0.2490   -0.5990 C   0  0  0  0  0  0  0  0  0  0  0  0
   -3.5630    0.4960    0.4450 N   0  0  0  0  0  0  0  0  0  0  0  0
   -2.1650    0.8770    0.4290 C   0  0  2  0  0  0  0  0  0  0  0  0
   -1.3570   -0.3780    0.3780 C   0  0  0  0  0  0  0  0  0  0  0  0
    0.0780   -0.1490    0.5870 N   0  0  0  0  0  0  0  0  0  0  0  0
    0.9720   -0.7120   -0.3040 C   0  0  0  0  0  0  0  0  0  0  0  0
    0.5280   -1.4080   -1.2790 O   0  0  0  0  0  0  0  0  0  0  0  0
    2.4090   -0.5560   -0.1940 C   0  0  0  0  0  0  0  0  0  0  0  0
    3.1500    0.0820    0.6760 O   0  0  0  0  0  0  0  0  0  0  0  0
    4.4130   -0.0010    0.4520 C   0  0  0  0  0  0  0  0  0  0  0  0
    5.4890    0.5390    1.1530 C   0  0  0  0  0  0  0  0  0  0  0  0
    6.7600    0.2740    0.6610 C   0  0  0  0  0  0  0  0  0  0  0  0
    6.9570   -0.4930   -0.4740 C   0  0  0  0  0  0  0  0  0  0  0  0
    5.8710   -1.0160   -1.1500 C   0  0  0  0  0  0  0  0  0  0  0  0
    4.5810   -0.7620   -0.6730 C   0  0  0  0  0  0  0  0  0  0  0  0
    3.3320   -1.1210   -1.0950 C   0  0  0  0  0  0  0  0  0  0  0  0
    3.0220   -1.9560   -2.2880 C   0  0  0  0  0  0  0  0  0  0  0  0
    0.4360    0.6480    1.7100 C   0  0  0  0  0  0  0  0  0  0  0  0
   -0.3700    1.9450    1.7760 C   0  0  0  0  0  0  0  0  0  0  0  0
   -1.8390    1.7280    1.6250 C   0  0  2  0  0  0  0  0  0  0  0  0
   -2.3790    1.1160    2.9140 C   0  0  0  0  0  0  0  0  0  0  0  0
  1  2  2  0
  2  3  1  0
  2  6  1  0
  3  4  2  0
  4  5  1  0
  5  6  2  0
  6  7  1  0
  8  7  1  1
  8  9  1  0
  8 25  1  0
  9 10  1  0
 10 11  1  0
 10 23  1  0
 11 12  2  0
 11 13  1  0
 13 14  1  0
 13 21  2  0
 14 15  1  0
 15 16  2  0
 15 20  1  0
 16 17  1  0
 17 18  2  0
 18 19  1  0
 19 20  2  0
 20 21  1  0
 21 22  1  0
 23 24  1  0
 24 25  1  0
 25 26  1  1
M  CHG  1   3   1
M  END
