
     RDKit          3D

 26 29  0  0  0  0  0  0  0  0999 V2000
   -3.8880   -1.2490   -3.2350 C   0  0  0  0  0  0  0  0  0  0  0  0
   -3.6470   -0.7660   -1.8590 C   0  0  0  0  0  0  0  0  0  0  0  0
   -4.6990   -0.8370   -0.9730 C   0  0  0  0  0  0  0  0  0  0  0  0
   -4.5730   -0.4280    0.3450 C   0  0  0  0  0  0  0  0  0  0  0  0
   -5.7380   -0.5210    1.2890 C   0  0  0  0  0  0  0  0  0  0  0  0
   -3.4020    0.0590    0.8140 C   0  0  0  0  0  0  0  0  0  0  0  0
   -2.3080    0.1380   -0.0830 C   0  0  0  0  0  0  0  0  0  0  0  0
   -2.4520   -0.2710   -1.3880 C   0  0  0  0  0  0  0  0  0  0  0  0
   -1.0830    0.6330    0.5310 C   0  0  1  0  0  0  0  0  0  0  0  0
    0.1150    0.7460   -0.1940 N   0  0  0  0  0  0  0  0  0  0  0  0
    0.9730   -0.4040   -0.1850 C   0  0  1  0  0  0  0  0  0  0  0  0
    0.5550   -1.5790   -0.9920 C   0  0  0  0  0  0  0  0  0  0  0  0
    2.3830   -0.0580   -0.3370 C   0  0  0  0  0  0  0  0  0  0  0  0
    2.8220    0.9770   -1.1180 C   0  0  0  0  0  0  0  0  0  0  0  0
    4.1630    1.3180   -1.2050 C   0  0  0  0  0  0  0  0  0  0  0  0
    5.0770    0.5970   -0.4910 C   0  0  0  0  0  0  0  0  0  0  0  0
    4.6680   -0.4410    0.2930 C   0  0  0  0  0  0  0  0  0  0  0  0
    3.3460   -0.7850    0.3870 C   0  0  0  0  0  0  0  0  0  0  0  0
    5.6650   -1.1620    1.0320 N   0  0  0  0  0  0  0  0  0  0  0  0
    7.0080   -0.7500    0.9030 C   0  0  0  0  0  0  0  0  0  0  0  0
    7.9250   -1.5230    1.2500 O   0  0  0  0  0  0  0  0  0  0  0  0
    7.3790    0.5900    0.3610 C   0  0  0  0  0  0  0  0  0  0  0  0
    6.4270    0.9860   -0.6150 O   0  0  0  0  0  0  0  0  0  0  0  0
   -1.4320    1.9820    1.2160 C   0  0  0  0  0  0  0  0  0  0  0  0
   -2.6900    1.8890    2.0020 C   0  0  0  0  0  0  0  0  0  0  0  0
   -3.1860    0.5150    2.1470 N   0  0  0  0  0  0  0  0  0  0  0  0
  1  2  1  0
  2  3  2  0
  2  8  1  0
  3  4  1  0
  4  5  1  0
  4  6  2  0
  6  7  1  0
  6 26  1  0
  7  8  2  0
  7  9  1  0
  9 10  1  6
  9 24  1  0
 10 11  1  0
 11 12  1  6
 11 13  1  0
 13 14  2  0
 13 18  1  0
 14 15  1  0
 15 16  2  0
 16 17  1  0
 16 23  1  0
 17 18  2  0
 17 19  1  0
 19 20  1  0
 20 21  2  0
 20 22  1  0
 22 23  1  0
 24 25  1  0
 25 26  1  0
M  CHG  1  26   1
M  END
