
     RDKit          3D

 25 28  0  0  0  0  0  0  0  0999 V2000
   -2.8390   -5.6870   -2.4060 C   0  0  0  0  0  0  0  0  0  0  0  0
   -2.2670   -4.4260   -1.8140 C   0  0  0  0  0  0  0  0  0  0  0  0
   -1.3850   -3.6490   -2.5330 C   0  0  0  0  0  0  0  0  0  0  0  0
   -0.8700   -2.4890   -1.9870 C   0  0  0  0  0  0  0  0  0  0  0  0
   -1.2150   -2.0650   -0.7120 C   0  0  0  0  0  0  0  0  0  0  0  0
   -0.7300   -0.9390   -0.1610 N   0  0  0  0  0  0  0  0  0  0  0  0
   -1.1000   -0.5610    1.0960 C   0  0  0  0  0  0  0  0  0  0  0  0
   -0.5520    0.6250    1.5950 C   0  0  0  0  0  0  0  0  0  0  0  0
    0.3400    1.3320    0.7590 N   0  0  0  0  0  0  0  0  0  0  0  0
    1.0050    2.5500    1.0200 C   0  0  0  0  0  0  0  0  0  0  0  0
    0.8100    3.1120    2.1160 O   0  0  0  0  0  0  0  0  0  0  0  0
    1.9120    3.1940    0.0790 C   0  0  0  0  0  0  0  0  0  0  0  0
    2.4860    4.3490    0.4250 C   0  0  0  0  0  0  0  0  0  0  0  0
    3.4000    5.0540   -0.4560 C   0  0  0  0  0  0  0  0  0  0  0  0
    3.6050    6.2980   -0.3610 O   0  0  0  0  0  0  0  0  0  0  0  0
    4.1240    4.2990   -1.5070 C   0  0  0  0  0  0  0  0  0  0  0  0
    3.7540    2.8390   -1.4270 C   0  0  0  0  0  0  0  0  0  0  0  0
    2.2580    2.6490   -1.2610 C   0  0  0  0  0  0  0  0  0  0  0  0
   -0.9260    1.0100    2.8620 C   0  0  0  0  0  0  0  0  0  0  0  0
   -1.8170    0.2300    3.5950 C   0  0  0  0  0  0  0  0  0  0  0  0
   -2.3550   -0.9350    3.1050 C   0  0  0  0  0  0  0  0  0  0  0  0
   -1.9810   -1.3280    1.8260 C   0  0  0  0  0  0  0  0  0  0  0  0
   -2.4700   -2.4790    1.2470 C   0  0  0  0  0  0  0  0  0  0  0  0
   -2.1070   -2.8780   -0.0230 C   0  0  0  0  0  0  0  0  0  0  0  0
   -2.6000   -4.0200   -0.5880 N   0  0  0  0  0  0  0  0  0  0  0  0
  1  2  1  0
  2  3  2  0
  2 25  1  0
  3  4  1  0
  4  5  2  0
  5  6  1  0
  5 24  1  0
  6  7  2  0
  7  8  1  0
  7 22  1  0
  8  9  1  0
  8 19  2  0
  9 10  1  0
 10 11  2  0
 10 12  1  0
 12 13  2  0
 12 18  1  0
 13 14  1  0
 14 15  2  0
 14 16  1  0
 16 17  1  0
 17 18  1  0
 19 20  1  0
 20 21  2  0
 21 22  1  0
 22 23  2  0
 23 24  1  0
 24 25  2  0
M  CHG  1  25   1
M  END
