
     RDKit          3D

 26 29  0  0  0  0  0  0  0  0999 V2000
    7.9980   -1.3090   -0.5450 N   0  0  0  0  0  0  0  0  0  0  0  0
    6.6710   -1.5080   -1.0050 C   0  0  0  0  0  0  0  0  0  0  0  0
    6.5070   -2.2740   -1.9830 O   0  0  0  0  0  0  0  0  0  0  0  0
    5.5880   -0.8180   -0.3220 C   0  0  0  0  0  0  0  0  0  0  0  0
    5.6860    0.0010    0.7110 C   0  0  0  0  0  0  0  0  0  0  0  0
    4.3860    0.4910    1.1100 C   0  0  0  0  0  0  0  0  0  0  0  0
    3.4340   -0.0090    0.3370 C   0  0  0  0  0  0  0  0  0  0  0  0
    2.0130   -0.0790    0.0210 C   0  0  0  0  0  0  0  0  0  0  0  0
    0.9270    0.6500    0.7520 C   0  0  0  0  0  0  0  0  0  0  0  0
   -0.3780    0.3250    0.1400 N   0  0  0  0  0  0  0  0  0  0  0  0
   -0.9280    1.0930   -0.9100 C   0  0  0  0  0  0  0  0  0  0  0  0
   -1.6960    2.3080   -0.6220 C   0  0  1  0  0  0  0  0  0  0  0  0
   -2.1740    2.9950   -1.9320 C   0  0  0  0  0  0  0  0  0  0  0  0
   -3.1440    3.9780   -1.3130 C   0  0  0  0  0  0  0  0  0  0  0  0
   -3.9500    3.1340   -0.3800 C   0  0  0  0  0  0  0  0  0  0  0  0
   -3.0310    1.9860    0.0060 C   0  0  0  0  0  0  0  0  0  0  0  0
   -1.0400   -0.7820    0.6710 C   0  0  0  0  0  0  0  0  0  0  0  0
   -0.4790   -1.4200    1.6530 O   0  0  0  0  0  0  0  0  0  0  0  0
   -2.3370   -1.3630    0.2680 C   0  0  1  0  0  0  0  0  0  0  0  0
   -2.1540   -2.8910    0.3040 C   0  0  0  0  0  0  0  0  0  0  0  0
   -2.9890   -3.3940    1.4530 C   0  0  0  0  0  0  0  0  0  0  0  0
   -3.1800   -2.2210    2.2810 N   0  0  0  0  0  0  0  0  0  0  0  0
   -3.4280   -1.2070    1.2910 C   0  0  0  0  0  0  0  0  0  0  0  0
    1.9140   -0.8990   -1.0130 C   0  0  0  0  0  0  0  0  0  0  0  0
    3.2380   -1.3820   -1.4000 C   0  0  0  0  0  0  0  0  0  0  0  0
    4.1520   -0.8730   -0.6210 C   0  0  0  0  0  0  0  0  0  0  0  0
  1  2  1  0
  2  3  2  0
  2  4  1  0
  4  5  2  0
  4 26  1  0
  5  6  1  0
  6  7  2  0
  7  8  1  0
  7 26  1  0
  8  9  1  0
  8 24  2  0
  9 10  1  0
 10 11  1  0
 10 17  1  0
 12 11  1  6
 12 13  1  0
 12 16  1  0
 13 14  1  0
 14 15  1  0
 15 16  1  0
 17 18  2  0
 19 17  1  1
 19 20  1  0
 19 23  1  0
 20 21  1  0
 21 22  1  0
 22 23  1  0
 24 25  1  0
 25 26  2  0
M  CHG  1  22   1
M  END
