
     RDKit          3D

 26 29  0  0  0  0  0  0  0  0999 V2000
   -7.2500   -1.7920    0.2790 C   0  0  0  0  0  0  0  0  0  0  0  0
   -5.9600   -1.0480    0.1870 C   0  0  0  0  0  0  0  0  0  0  0  0
   -5.1880   -1.1000   -0.9810 C   0  0  0  0  0  0  0  0  0  0  0  0
   -4.0020   -0.4070   -1.0440 C   0  0  0  0  0  0  0  0  0  0  0  0
   -3.5400    0.3460    0.0120 C   0  0  0  0  0  0  0  0  0  0  0  0
   -2.4310    1.1280    0.2540 C   0  0  0  0  0  0  0  0  0  0  0  0
   -1.3430    1.3690   -0.6900 C   0  0  0  0  0  0  0  0  0  0  0  0
   -1.4730    2.3570   -1.4500 O   0  0  0  0  0  0  0  0  0  0  0  0
   -0.1780    0.5540   -0.7790 N   0  0  0  0  0  0  0  0  0  0  0  0
   -0.1190   -0.5630    0.1410 C   0  0  0  0  0  0  0  0  0  0  0  0
    1.0530   -1.4640   -0.0460 C   0  0  0  0  0  0  0  0  0  0  0  0
    2.2460   -0.6570   -0.5170 C   0  0  1  0  0  0  0  0  0  0  0  0
    1.8910   -0.1570   -1.8990 C   0  0  0  0  0  0  0  0  0  0  0  0
    0.8230    0.8920   -1.7460 C   0  0  0  0  0  0  0  0  0  0  0  0
    2.5360    0.5080    0.4070 C   0  0  0  0  0  0  0  0  0  0  0  0
    3.7400    1.2360   -0.1330 C   0  0  0  0  0  0  0  0  0  0  0  0
    4.9030    0.3970   -0.0260 N   0  0  2  0  0  0  0  0  0  0  0  0
    5.7930    0.5250   -1.1760 C   0  0  0  0  0  0  0  0  0  0  0  0
    4.6040   -0.9840    0.2600 C   0  0  0  0  0  0  0  0  0  0  0  0
    3.4760   -1.5420   -0.5430 C   0  0  1  0  0  0  0  0  0  0  0  0
    3.1550   -2.7980   -0.0250 O   0  0  0  0  0  0  0  0  0  0  0  0
   -2.4900    1.6590    1.5240 C   0  0  0  0  0  0  0  0  0  0  0  0
   -1.4640    2.5600    2.1440 C   0  0  0  0  0  0  0  0  0  0  0  0
   -3.6320    1.2080    2.0710 N   0  0  0  0  0  0  0  0  0  0  0  0
   -4.2910    0.4160    1.1930 C   0  0  0  0  0  0  0  0  0  0  0  0
   -5.4750   -0.2890    1.2290 C   0  0  0  0  0  0  0  0  0  0  0  0
  1  2  1  0
  2  3  2  0
  2 26  1  0
  3  4  1  0
  4  5  2  0
  5  6  1  0
  5 25  1  0
  6  7  1  0
  6 22  2  0
  7  8  2  0
  7  9  1  0
  9 10  1  0
  9 14  1  0
 10 11  1  0
 12 11  1  1
 12 13  1  0
 12 15  1  0
 12 20  1  0
 13 14  1  0
 15 16  1  0
 16 17  1  0
 17 18  1  6
 17 19  1  0
 19 20  1  0
 20 21  1  1
 22 23  1  0
 22 24  1  0
 24 25  1  0
 25 26  2  0
M  CHG  1  17   1
M  END
