
     RDKit          3D

 26 29  0  0  0  0  0  0  0  0999 V2000
   -5.9100   -0.3230   -2.9780 C   0  0  0  0  0  0  0  0  0  0  0  0
   -5.3460   -0.1640   -1.6080 C   0  0  0  0  0  0  0  0  0  0  0  0
   -6.1870   -0.0270   -0.5280 C   0  0  0  0  0  0  0  0  0  0  0  0
   -5.6850    0.1230    0.7590 C   0  0  0  0  0  0  0  0  0  0  0  0
   -6.5990    0.2710    1.9190 C   0  0  0  0  0  0  0  0  0  0  0  0
   -4.3170    0.1400    0.9980 C   0  0  0  0  0  0  0  0  0  0  0  0
   -3.8190    0.2850    2.2360 N   0  0  0  0  0  0  0  0  0  0  0  0
   -2.4980    0.3060    2.5070 C   0  0  0  0  0  0  0  0  0  0  0  0
   -1.6390    0.1700    1.4350 C   0  0  0  0  0  0  0  0  0  0  0  0
   -2.1210    0.0200    0.1520 C   0  0  0  0  0  0  0  0  0  0  0  0
   -1.2970   -0.1190   -0.9420 O   0  0  0  0  0  0  0  0  0  0  0  0
    0.0890   -0.1090   -0.7720 C   0  0  0  0  0  0  0  0  0  0  0  0
    0.7550   -1.2690   -0.4330 C   0  0  0  0  0  0  0  0  0  0  0  0
    2.1460   -1.2470   -0.2650 C   0  0  0  0  0  0  0  0  0  0  0  0
    2.8690   -0.0920   -0.4290 C   0  0  0  0  0  0  0  0  0  0  0  0
    4.3280   -0.0580   -0.2510 C   0  0  1  0  0  0  0  0  0  0  0  0
    4.8900    1.3380   -0.2930 C   0  0  0  0  0  0  0  0  0  0  0  0
    6.3510    1.2560   -0.0500 C   0  0  0  0  0  0  0  0  0  0  0  0
    7.0930    1.9120   -0.7480 O   0  0  0  0  0  0  0  0  0  0  0  0
    6.8500    0.3790    1.0300 C   0  0  0  0  0  0  0  0  0  0  0  0
    6.1430   -0.9820    0.9850 C   0  0  0  0  0  0  0  0  0  0  0  0
    4.7130   -0.7160    0.9600 N   0  0  0  0  0  0  0  0  0  0  0  0
    2.1690    1.0450   -0.7670 C   0  0  0  0  0  0  0  0  0  0  0  0
    0.8160    1.0090   -0.9280 N   0  0  0  0  0  0  0  0  0  0  0  0
   -3.4950    0.0010   -0.1000 C   0  0  0  0  0  0  0  0  0  0  0  0
   -3.9860   -0.1480   -1.3730 C   0  0  0  0  0  0  0  0  0  0  0  0
  1  2  1  0
  2  3  2  0
  2 26  1  0
  3  4  1  0
  4  5  1  0
  4  6  2  0
  6  7  1  0
  6 25  1  0
  7  8  2  0
  8  9  1  0
  9 10  2  0
 10 11  1  0
 10 25  1  0
 11 12  1  0
 12 13  2  0
 12 24  1  0
 13 14  1  0
 14 15  2  0
 16 15  1  1
 15 23  1  0
 16 17  1  0
 16 22  1  0
 17 18  1  0
 18 19  2  0
 18 20  1  0
 20 21  1  0
 21 22  1  0
 23 24  2  0
 25 26  2  0
M  CHG  1  22   1
M  END
