
     RDKit          3D

 26 29  0  0  0  0  0  0  0  0999 V2000
   -3.4360    2.9980   -0.0700 C   0  0  0  0  0  0  0  0  0  0  0  0
   -4.3190    1.8100   -0.2660 C   0  0  0  0  0  0  0  0  0  0  0  0
   -3.7480    0.6090   -0.2130 C   0  0  0  0  0  0  0  0  0  0  0  0
   -2.3020    0.4840    0.0300 C   0  0  0  0  0  0  0  0  0  0  0  0
   -1.7310   -0.7040    0.0590 C   0  0  0  0  0  0  0  0  0  0  0  0
   -0.2830   -0.8350    0.3050 C   0  0  0  0  0  0  0  0  0  0  0  0
    0.2220   -2.0150    0.3220 O   0  0  0  0  0  0  0  0  0  0  0  0
    0.5810    0.2680    0.5240 N   0  0  0  0  0  0  0  0  0  0  0  0
    1.9830    0.1200    0.7600 C   0  0  0  0  0  0  0  0  0  0  0  0
    2.7260   -0.5580   -0.3690 C   0  0  0  0  0  0  0  0  0  0  0  0
    4.1500   -0.6200    0.0350 C   0  0  0  0  0  0  0  0  0  0  0  0
    4.7580   -1.7650    0.4950 C   0  0  0  0  0  0  0  0  0  0  0  0
    6.0870   -1.7990    0.8710 C   0  0  0  0  0  0  0  0  0  0  0  0
    6.8440   -0.6550    0.7890 C   0  0  0  0  0  0  0  0  0  0  0  0
    6.2480    0.5040    0.3280 C   0  0  0  0  0  0  0  0  0  0  0  0
    6.8080    1.7490    0.1640 C   0  0  0  0  0  0  0  0  0  0  0  0
    5.7960    2.5440   -0.3200 C   0  0  0  0  0  0  0  0  0  0  0  0
    4.6790    1.8040   -0.4400 N   0  0  0  0  0  0  0  0  0  0  0  0
    4.9040    0.5290   -0.0500 C   0  0  0  0  0  0  0  0  0  0  0  0
   -2.4810   -1.9490   -0.1630 C   0  0  0  0  0  0  0  0  0  0  0  0
   -3.8720   -1.8620   -0.3290 N   0  0  1  0  0  0  0  0  0  0  0  0
   -4.5760   -2.7160    0.6580 C   0  0  0  0  0  0  0  0  0  0  0  0
   -4.4890   -0.6150   -0.4110 C   0  0  0  0  0  0  0  0  0  0  0  0
   -5.8100   -0.5590   -0.6630 C   0  0  0  0  0  0  0  0  0  0  0  0
   -6.3920    0.6790   -0.7190 O   0  0  0  0  0  0  0  0  0  0  0  0
   -5.7560    1.9140   -0.5060 C   0  0  0  0  0  0  0  0  0  0  0  0
  1  2  1  0
  2  3  2  0
  2 26  1  0
  3  4  1  0
  3 23  1  0
  4  5  2  0
  5  6  1  0
  5 20  1  0
  6  7  2  0
  6  8  1  0
  8  9  1  0
  9 10  1  0
 10 11  1  0
 11 12  2  0
 11 19  1  0
 12 13  1  0
 13 14  2  0
 14 15  1  0
 15 16  1  0
 15 19  2  0
 16 17  2  0
 17 18  1  0
 18 19  1  0
 20 21  1  0
 21 22  1  1
 21 23  1  0
 23 24  2  0
 24 25  1  0
 25 26  1  0
M  CHG  1  21   1
M  END
