
     RDKit          3D

 42 46  0  0  0  0  0  0  0  0999 V2000
   -7.9720   -2.7380    1.0330 C   0  0  0  0  0  0  0  0  0  0  0  0
   -6.5370   -2.3030    0.9000 C   0  0  0  0  0  0  0  0  0  0  0  0
   -5.7980   -2.5870   -0.2280 C   0  0  0  0  0  0  0  0  0  0  0  0
   -4.4890   -2.2000   -0.3720 C   0  0  0  0  0  0  0  0  0  0  0  0
   -3.8760   -1.5000    0.6410 C   0  0  0  0  0  0  0  0  0  0  0  0
   -2.5110   -1.0740    0.5090 N   0  0  0  0  0  0  0  0  0  0  0  0
   -2.1050   -0.0600   -0.3880 C   0  0  0  0  0  0  0  0  0  0  0  0
   -3.1760    0.6090   -1.1950 C   0  0  0  0  0  0  0  0  0  0  0  0
   -4.1160    1.3080   -0.3510 N   0  0  0  0  0  0  0  0  0  0  0  0
   -5.2450    2.0060   -0.8650 C   0  0  0  0  0  0  0  0  0  0  0  0
   -5.4120    2.0000   -2.1110 O   0  0  0  0  0  0  0  0  0  0  0  0
   -6.1430    2.6770   -0.0560 O   0  0  0  0  0  0  0  0  0  0  0  0
   -7.2510    3.3540   -0.6180 C   0  0  0  0  0  0  0  0  0  0  0  0
   -8.0790    4.0160    0.4630 C   0  0  2  0  0  0  0  0  0  0  0  0
   -7.3340    4.9400    1.1740 F   0  0  0  0  0  0  0  0  0  0  0  0
   -8.6060    3.0850    1.3310 F   0  0  0  0  0  0  0  0  0  0  0  0
   -9.0830    4.7240   -0.1670 F   0  0  0  0  0  0  0  0  0  0  0  0
   -1.5560   -1.7650    1.3600 C   0  0  0  0  0  0  0  0  0  0  0  0
   -0.1790   -1.2090    1.1400 C   0  0  0  0  0  0  0  0  0  0  0  0
    0.2820   -0.0150    1.5590 N   0  0  0  0  0  0  0  0  0  0  0  0
    1.5370    0.1050    1.1690 N   0  0  0  0  0  0  0  0  0  0  0  0
    1.8830   -1.0170    0.4960 C   0  0  0  0  0  0  0  0  0  0  0  0
    3.1880   -1.3090   -0.1130 C   0  0  0  0  0  0  0  0  0  0  0  0
    3.3940   -2.5130   -0.7530 C   0  0  0  0  0  0  0  0  0  0  0  0
    4.5960   -2.8420   -1.3400 C   0  0  0  0  0  0  0  0  0  0  0  0
    5.6380   -1.9150   -1.2790 C   0  0  0  0  0  0  0  0  0  0  0  0
    7.1510   -2.3450   -2.0180 Cl  0  0  0  0  0  0  0  0  0  0  0  0
    5.4560   -0.6960   -0.6410 C   0  0  0  0  0  0  0  0  0  0  0  0
    6.5220    0.2380   -0.5940 N   0  0  0  0  0  0  0  0  0  0  0  0
    7.1560    0.8130   -1.7530 C   0  0  0  0  0  0  0  0  0  0  0  0
    8.4800    1.2970   -1.2450 C   0  0  0  0  0  0  0  0  0  0  0  0
    9.6360    1.7390   -1.6490 C   0  0  0  0  0  0  0  0  0  0  0  0
   10.5050    2.0400   -0.4920 C   0  0  0  0  0  0  0  0  0  0  0  0
    9.6310    1.6880    0.6550 C   0  0  0  0  0  0  0  0  0  0  0  0
   10.0150    1.8040    1.9630 F   0  0  0  0  0  0  0  0  0  0  0  0
    8.4700    1.2630    0.2080 C   0  0  0  0  0  0  0  0  0  0  0  0
    7.1190    0.7480    0.6210 C   0  0  0  0  0  0  0  0  0  0  0  0
    4.2150   -0.4040   -0.0580 C   0  0  0  0  0  0  0  0  0  0  0  0
    0.8300   -1.7710    0.5040 O   0  0  0  0  0  0  0  0  0  0  0  0
   -4.5980   -1.2070    1.7760 C   0  0  0  0  0  0  0  0  0  0  0  0
   -3.8290   -0.3210    3.1130 Cl  0  0  0  0  0  0  0  0  0  0  0  0
   -5.9120   -1.6060    1.9000 C   0  0  0  0  0  0  0  0  0  0  0  0
  1  2  1  0
  2  3  2  0
  2 42  1  0
  3  4  1  0
  4  5  2  0
  5  6  1  0
  5 40  1  0
  6  7  1  0
  6 18  1  0
  7  8  1  0
  8  9  1  0
  9 10  1  0
 10 11  2  0
 10 12  1  0
 12 13  1  0
 13 14  1  0
 14 15  1  1
 14 16  1  0
 14 17  1  0
 18 19  1  0
 19 20  2  0
 19 39  1  0
 20 21  1  0
 21 22  2  0
 22 23  1  0
 22 39  1  0
 23 24  2  0
 23 38  1  0
 24 25  1  0
 25 26  2  0
 26 27  1  0
 26 28  1  0
 28 29  1  0
 28 38  2  0
 29 30  1  0
 29 37  1  0
 30 31  1  0
 31 32  2  0
 31 36  1  0
 32 33  1  0
 33 34  1  0
 34 35  1  0
 34 36  2  0
 36 37  1  0
 40 41  1  0
 40 42  2  0
M  END
