
     RDKit          3D

 42 46  0  0  0  0  0  0  0  0999 V2000
    5.3740    3.1490   -1.2740 N   0  0  0  0  0  0  0  0  0  0  0  0
    6.1870    2.1350   -1.3130 C   0  0  0  0  0  0  0  0  0  0  0  0
    5.9310    0.8550   -0.8440 O   0  0  0  0  0  0  0  0  0  0  0  0
    7.0090    0.0190   -1.0410 C   0  0  0  0  0  0  0  0  0  0  0  0
    7.1590   -1.3110   -0.7220 C   0  0  0  0  0  0  0  0  0  0  0  0
    6.1180   -2.0950   -0.0730 C   0  0  0  0  0  0  0  0  0  0  0  0
    4.8950   -1.6670    0.3100 N   0  0  0  0  0  0  0  0  0  0  0  0
    4.2050   -2.6870    0.8820 C   0  0  0  0  0  0  0  0  0  0  0  0
    2.8600   -2.6640    1.4320 C   0  0  0  0  0  0  0  0  0  0  0  0
    2.1590   -1.5610    1.4120 C   0  0  0  0  0  0  0  0  0  0  0  0
    0.8100   -1.4650    1.9440 C   0  0  0  0  0  0  0  0  0  0  0  0
    0.1260   -2.5090    2.5220 C   0  0  0  0  0  0  0  0  0  0  0  0
   -1.1610   -2.3790    3.0220 C   0  0  0  0  0  0  0  0  0  0  0  0
   -1.7600   -1.1490    2.9270 C   0  0  0  0  0  0  0  0  0  0  0  0
   -1.1150   -0.0720    2.3560 C   0  0  0  0  0  0  0  0  0  0  0  0
   -1.7630    1.2250    2.2620 C   0  0  0  0  0  0  0  0  0  0  0  0
   -1.6600    2.0910    3.1610 O   0  0  0  0  0  0  0  0  0  0  0  0
   -2.5260    1.4950    1.1160 N   0  0  0  0  0  0  0  0  0  0  0  0
   -2.6940    0.5490    0.0340 C   0  0  0  0  0  0  0  0  0  0  0  0
   -4.1610    0.2350   -0.0960 C   0  0  0  0  0  0  0  0  0  0  0  0
   -4.9200    1.4440   -0.0030 N   0  0  0  0  0  0  0  0  0  0  0  0
   -6.1640    1.3780   -0.7540 C   0  0  0  0  0  0  0  0  0  0  0  0
   -7.1450    0.4460   -0.1630 C   0  0  0  0  0  0  0  0  0  0  0  0
   -7.6250   -0.6230   -0.7540 C   0  0  0  0  0  0  0  0  0  0  0  0
   -7.2690   -1.0820   -2.1140 C   0  0  0  0  0  0  0  0  0  0  0  0
   -6.7170   -2.3580   -2.0220 F   0  0  0  0  0  0  0  0  0  0  0  0
   -7.6640    0.7510    1.2350 C   0  0  2  0  0  0  0  0  0  0  0  0
   -8.3260    1.9810    1.1470 F   0  0  0  0  0  0  0  0  0  0  0  0
   -6.3250    0.9490    2.3800 Cl  0  0  0  0  0  0  0  0  0  0  0  0
   -4.1820    2.6490   -0.2260 C   0  0  0  0  0  0  0  0  0  0  0  0
   -3.2040    2.7710    0.9550 C   0  0  0  0  0  0  0  0  0  0  0  0
    0.1580   -0.2310    1.8700 C   0  0  0  0  0  0  0  0  0  0  0  0
    0.9740    1.1410    1.1440 Cl  0  0  0  0  0  0  0  0  0  0  0  0
    5.0510   -3.7330    0.8280 N   0  0  0  0  0  0  0  0  0  0  0  0
    6.1710   -3.3520    0.2600 O   0  0  0  0  0  0  0  0  0  0  0  0
    8.3520   -1.9200   -1.0310 C   0  0  0  0  0  0  0  0  0  0  0  0
    9.3840   -1.2140   -1.6500 C   0  0  0  0  0  0  0  0  0  0  0  0
    9.2140    0.1170   -1.9610 C   0  0  0  0  0  0  0  0  0  0  0  0
    8.0070    0.7540   -1.6550 C   0  0  0  0  0  0  0  0  0  0  0  0
    7.5600    2.1530   -1.8730 C   0  0  1  0  0  0  0  0  0  0  0  0
    7.4340    2.4000   -3.2310 F   0  0  0  0  0  0  0  0  0  0  0  0
    8.3640    3.0790   -1.2530 F   0  0  0  0  0  0  0  0  0  0  0  0
  1  2  2  0
  2  3  1  0
  2 40  1  0
  3  4  1  0
  4  5  2  0
  4 39  1  0
  5  6  1  0
  5 36  1  0
  6  7  2  0
  6 35  1  0
  7  8  1  0
  8  9  1  0
  8 34  2  0
  9 10  2  3
 10 11  1  0
 11 12  2  0
 11 32  1  0
 12 13  1  0
 13 14  2  0
 14 15  1  0
 15 16  1  0
 15 32  2  0
 16 17  2  0
 16 18  1  0
 18 19  1  0
 18 31  1  0
 19 20  1  0
 20 21  1  0
 21 22  1  0
 21 30  1  0
 22 23  1  0
 23 24  2  3
 23 27  1  0
 24 25  1  0
 25 26  1  0
 27 28  1  6
 27 29  1  0
 30 31  1  0
 32 33  1  0
 34 35  1  0
 36 37  2  0
 37 38  1  0
 38 39  2  0
 39 40  1  0
 40 41  1  6
 40 42  1  0
M  END
