
     RDKit          3D

 42 48  0  0  0  0  0  0  0  0999 V2000
    3.5850    3.2150   -1.3880 C   0  0  0  0  0  0  0  0  0  0  0  0
    3.5920    1.8800   -0.7430 C   0  0  0  0  0  0  0  0  0  0  0  0
    2.5390    0.9660   -0.6070 C   0  0  0  0  0  0  0  0  0  0  0  0
    1.2080    1.3110   -1.0770 C   0  0  0  0  0  0  0  0  0  0  0  0
    0.1100    0.4880   -0.6830 N   0  0  0  0  0  0  0  0  0  0  0  0
   -0.1810    0.7210    0.7540 C   0  0  0  0  0  0  0  0  0  0  0  0
   -1.2490   -0.2390    1.1500 C   0  0  0  0  0  0  0  0  0  0  0  0
   -2.4980    0.0890    0.3630 N   0  0  0  0  0  0  0  0  0  0  0  0
   -3.5950    0.3530    1.2020 C   0  0  0  0  0  0  0  0  0  0  0  0
   -3.4150    1.2940    2.1890 N   0  0  0  0  0  0  0  0  0  0  0  0
   -4.3580    1.4300    3.1270 C   0  0  0  0  0  0  0  0  0  0  0  0
   -5.4850    0.6800    3.1660 C   0  0  0  0  0  0  0  0  0  0  0  0
   -5.7240   -0.2880    2.1770 C   0  0  0  0  0  0  0  0  0  0  0  0
   -4.7550   -0.3940    1.2230 C   0  0  0  0  0  0  0  0  0  0  0  0
   -4.9350   -1.2950    0.0380 C   0  0  0  0  0  0  0  0  0  0  0  0
   -6.2350   -0.9830   -0.5170 N   0  0  1  0  0  0  0  0  0  0  0  0
   -7.1670   -1.9640   -0.8170 C   0  0  0  0  0  0  0  0  0  0  0  0
   -8.6010   -1.4460   -0.7100 C   0  0  0  0  0  0  0  0  0  0  0  0
   -8.7710   -0.0770   -1.3480 C   0  0  0  0  0  0  0  0  0  0  0  0
   -7.6820    0.8950   -1.0320 C   0  0  0  0  0  0  0  0  0  0  0  0
   -6.8270    0.2030    0.0640 C   0  0  0  0  0  0  0  0  0  0  0  0
   -2.3030    0.0870   -1.0400 C   0  0  0  0  0  0  0  0  0  0  0  0
   -1.0700    0.9130   -1.4270 C   0  0  0  0  0  0  0  0  0  0  0  0
    2.9880   -0.1570   -0.0540 N   0  0  0  0  0  0  0  0  0  0  0  0
    2.4800   -1.3970    0.2000 C   0  0  0  0  0  0  0  0  0  0  0  0
    1.3120   -1.6610   -0.0240 O   0  0  0  0  0  0  0  0  0  0  0  0
    3.3070   -2.3520    0.6900 N   0  0  0  0  0  0  0  0  0  0  0  0
    2.7330   -3.6840    0.8700 C   0  0  0  0  0  0  0  0  0  0  0  0
    4.6070   -2.1960    0.9490 C   0  0  0  0  0  0  0  0  0  0  0  0
    5.3650   -3.0610    1.4060 O   0  0  0  0  0  0  0  0  0  0  0  0
    5.1530   -0.9320    0.6710 C   0  0  0  0  0  0  0  0  0  0  0  0
    6.5060   -0.6890    0.7390 C   0  0  0  0  0  0  0  0  0  0  0  0
    6.9380    0.5790    0.2900 C   0  0  0  0  0  0  0  0  0  0  0  0
    8.3370    0.6720    0.0650 N   0  0  0  0  0  0  0  0  0  0  0  0
    8.9210    0.2010   -1.2300 C   0  0  0  0  0  0  0  0  0  0  0  0
   10.2670   -0.3370   -0.8450 C   0  0  0  0  0  0  0  0  0  0  0  0
   10.6420    0.5560    0.2420 N   0  0  0  0  0  0  0  0  0  0  0  0
    9.4160    1.1040    0.8000 C   0  0  0  0  0  0  0  0  0  0  0  0
    9.4060    1.8560    1.7980 O   0  0  0  0  0  0  0  0  0  0  0  0
    6.0650    1.5200   -0.1730 C   0  0  0  0  0  0  0  0  0  0  0  0
    4.6970    1.2630   -0.2420 C   0  0  0  0  0  0  0  0  0  0  0  0
    4.2950    0.0170    0.1800 C   0  0  0  0  0  0  0  0  0  0  0  0
  1  2  1  0
  2  3  2  0
  2 41  1  0
  3  4  1  0
  3 24  1  0
  4  5  1  0
  5  6  1  0
  5 23  1  0
  6  7  1  0
  7  8  1  0
  8  9  1  0
  8 22  1  0
  9 10  2  0
  9 14  1  0
 10 11  1  0
 11 12  2  0
 12 13  1  0
 13 14  2  0
 14 15  1  0
 16 15  1  1
 16 17  1  0
 16 21  1  0
 17 18  1  0
 18 19  1  0
 19 20  1  0
 20 21  1  0
 22 23  1  0
 24 25  1  0
 24 42  1  0
 25 26  2  0
 25 27  1  0
 27 28  1  0
 27 29  1  0
 29 30  2  0
 29 31  1  0
 31 32  1  0
 31 42  2  0
 32 33  2  0
 33 34  1  0
 33 40  1  0
 34 35  1  0
 34 38  1  0
 35 36  1  0
 36 37  1  0
 37 38  1  0
 38 39  2  0
 40 41  2  0
 41 42  1  0
M  CHG  2  10   1  16   1
M  END
