
     RDKit          3D

 42 46  0  0  0  0  0  0  0  0999 V2000
    1.5220    2.3120   -0.8530 C   0  0  0  0  0  0  0  0  0  0  0  0
    1.4010    0.8270   -0.5750 C   0  0  1  0  0  0  0  0  0  0  0  0
    2.5700    0.1780   -1.0690 N   0  0  0  0  0  0  0  0  0  0  0  0
    3.6790   -0.0210   -0.1900 C   0  0  0  0  0  0  0  0  0  0  0  0
    4.9750   -0.1480   -0.6810 C   0  0  0  0  0  0  0  0  0  0  0  0
    6.0550   -0.3370    0.1350 C   0  0  0  0  0  0  0  0  0  0  0  0
    7.4620   -0.4790   -0.3330 C   0  0  0  0  0  0  0  0  0  0  0  0
    8.2660    0.7480   -0.1160 C   0  0  0  0  0  0  0  0  0  0  0  0
    9.6820    0.6720   -0.5870 C   0  0  0  0  0  0  0  0  0  0  0  0
   10.5320   -0.3780    0.0460 C   0  0  1  0  0  0  0  0  0  0  0  0
   10.0190   -1.6180   -0.1930 F   0  0  0  0  0  0  0  0  0  0  0  0
   12.1900   -0.3670   -0.6350 Cl  0  0  0  0  0  0  0  0  0  0  0  0
    5.8250   -0.4000    1.4920 C   0  0  0  0  0  0  0  0  0  0  0  0
    7.1160   -0.6390    2.6490 Cl  0  0  0  0  0  0  0  0  0  0  0  0
    4.5390   -0.2740    1.9880 C   0  0  0  0  0  0  0  0  0  0  0  0
    3.4420   -0.0830    1.1630 C   0  0  0  0  0  0  0  0  0  0  0  0
    2.0910    0.0410    1.7590 C   0  0  0  0  0  0  0  0  0  0  0  0
    1.1390    0.5450    0.8210 N   0  0  0  0  0  0  0  0  0  0  0  0
   -0.2530    0.8880    0.9880 C   0  0  0  0  0  0  0  0  0  0  0  0
   -0.7930    1.2210    2.0820 O   0  0  0  0  0  0  0  0  0  0  0  0
   -0.8980    0.7830   -0.2970 N   0  0  0  0  0  0  0  0  0  0  0  0
   -2.2930    1.0430   -0.5580 C   0  0  0  0  0  0  0  0  0  0  0  0
   -3.0820   -0.1980   -0.3920 C   0  0  0  0  0  0  0  0  0  0  0  0
   -2.5350   -1.3810   -0.0790 N   0  0  0  0  0  0  0  0  0  0  0  0
   -3.2750   -2.4880    0.0650 C   0  0  0  0  0  0  0  0  0  0  0  0
   -4.6480   -2.4230   -0.1110 C   0  0  0  0  0  0  0  0  0  0  0  0
   -5.4400   -3.5250    0.0260 C   0  0  0  0  0  0  0  0  0  0  0  0
   -6.7920   -3.3760   -0.1650 C   0  0  0  0  0  0  0  0  0  0  0  0
   -7.3500   -2.1350   -0.4910 C   0  0  0  0  0  0  0  0  0  0  0  0
   -6.5510   -1.0320   -0.6280 C   0  0  0  0  0  0  0  0  0  0  0  0
   -7.0760    0.2870   -0.9640 C   0  0  0  0  0  0  0  0  0  0  0  0
   -6.2710    1.2540   -1.0610 O   0  0  0  0  0  0  0  0  0  0  0  0
   -8.5150    0.5030   -1.1910 C   0  0  0  0  0  0  0  0  0  0  0  0
   -9.2760    0.8770    0.0420 C   0  0  0  0  0  0  0  0  0  0  0  0
   -8.8000    2.1400    0.6820 C   0  0  1  0  0  0  0  0  0  0  0  0
   -7.4980    2.0320    1.0550 F   0  0  0  0  0  0  0  0  0  0  0  0
   -8.8840    3.2180   -0.1960 F   0  0  0  0  0  0  0  0  0  0  0  0
   -9.5760    2.4770    1.7720 F   0  0  0  0  0  0  0  0  0  0  0  0
   -5.1930   -1.2170   -0.4290 C   0  0  0  0  0  0  0  0  0  0  0  0
   -4.4040   -0.1250   -0.5640 N   0  0  0  0  0  0  0  0  0  0  0  0
    0.1390    0.3760   -1.2020 C   0  0  0  0  0  0  0  0  0  0  0  0
   -0.0770   -0.2310   -2.2760 O   0  0  0  0  0  0  0  0  0  0  0  0
  2  1  1  1
  2  3  1  0
  2 18  1  0
  2 41  1  0
  3  4  1  0
  4  5  2  0
  4 16  1  0
  5  6  1  0
  6  7  1  0
  6 13  2  0
  7  8  1  0
  8  9  1  0
  9 10  1  0
 10 11  1  6
 10 12  1  0
 13 14  1  0
 13 15  1  0
 15 16  2  0
 16 17  1  0
 17 18  1  0
 18 19  1  0
 19 20  2  0
 19 21  1  0
 21 22  1  0
 21 41  1  0
 22 23  1  0
 23 24  2  0
 23 40  1  0
 24 25  1  0
 25 26  2  0
 26 27  1  0
 26 39  1  0
 27 28  2  0
 28 29  1  0
 29 30  2  0
 30 31  1  0
 30 39  1  0
 31 32  2  0
 31 33  1  0
 33 34  1  0
 34 35  1  0
 35 36  1  1
 35 37  1  0
 35 38  1  0
 39 40  2  0
 41 42  2  0
M  END
