
     RDKit          3D

 28 30  0  0  0  0  0  0  0  0999 V2000
    7.7140    2.0620    0.1400 C   0  0  0  0  0  0  0  0  0  0  0  0
    7.1540    2.6500    1.2460 O   0  0  0  0  0  0  0  0  0  0  0  0
    6.3490    1.7350    1.9000 C   0  0  0  0  0  0  0  0  0  0  0  0
    5.2680    1.3170    0.9830 C   0  0  0  0  0  0  0  0  0  0  0  0
    4.7800    0.0530    1.0310 C   0  0  0  0  0  0  0  0  0  0  0  0
    3.7540   -0.3220    0.1610 C   0  0  0  0  0  0  0  0  0  0  0  0
    3.2020    0.5200   -0.7550 C   0  0  0  0  0  0  0  0  0  0  0  0
    2.2010    0.2530   -1.7320 C   0  0  0  0  0  0  0  0  0  0  0  0
    1.7130   -0.8650   -2.1310 C   0  0  0  0  0  0  0  0  0  0  0  0
    1.9380   -2.2670   -1.8050 C   0  0  0  0  0  0  0  0  0  0  0  0
    0.7020   -2.8110   -1.3070 O   0  0  0  0  0  0  0  0  0  0  0  0
    0.0790   -2.2930   -0.1870 C   0  0  0  0  0  0  0  0  0  0  0  0
    0.6180   -1.3220    0.3990 O   0  0  0  0  0  0  0  0  0  0  0  0
   -1.2030   -2.8490    0.3420 C   0  0  0  0  0  0  0  0  0  0  0  0
   -2.3070   -1.9870   -0.1900 C   0  0  1  0  0  0  0  0  0  0  0  0
   -2.3840   -1.9480   -1.5650 O   0  0  0  0  0  0  0  0  0  0  0  0
   -3.6740   -2.4010    0.3160 C   0  0  0  0  0  0  0  0  0  0  0  0
   -4.4110   -1.1180    0.3420 C   0  0  0  0  0  0  0  0  0  0  0  0
   -5.7750   -0.8100    0.3600 C   0  0  0  0  0  0  0  0  0  0  0  0
   -6.2030    0.4960    0.3850 C   0  0  0  0  0  0  0  0  0  0  0  0
   -7.6820    0.7200    0.4040 C   0  0  0  0  0  0  0  0  0  0  0  0
   -5.3140    1.5430    0.3930 C   0  0  0  0  0  0  0  0  0  0  0  0
   -5.7640    2.8920    0.4180 N   0  0  0  0  0  0  0  0  0  0  0  0
   -3.9740    1.2340    0.3750 C   0  0  0  0  0  0  0  0  0  0  0  0
   -3.5190   -0.0900    0.3490 C   0  0  0  0  0  0  0  0  0  0  0  0
   -2.1290   -0.5700    0.3230 C   0  0  0  0  0  0  0  0  0  0  0  0
    3.7530    1.8200   -0.7540 C   0  0  0  0  0  0  0  0  0  0  0  0
    4.7550    2.2240    0.0820 C   0  0  0  0  0  0  0  0  0  0  0  0
  1  2  1  0
  2  3  1  0
  3  4  1  0
  4  5  2  0
  4 28  1  0
  5  6  1  0
  6  7  2  0
  7  8  1  0
  7 27  1  0
  8  9  2  3
  9 10  1  0
 10 11  1  0
 11 12  1  0
 12 13  2  0
 12 14  1  0
 14 15  1  0
 15 16  1  6
 15 17  1  0
 15 26  1  0
 17 18  1  0
 18 19  2  0
 18 25  1  0
 19 20  1  0
 20 21  1  0
 20 22  2  0
 22 23  1  0
 22 24  1  0
 24 25  2  0
 25 26  1  0
 27 28  2  0
M  END
