
     RDKit          3D

 28 29  0  0  0  0  0  0  0  0999 V2000
   -1.2500    6.4420   -1.2860 C   0  0  0  0  0  0  0  0  0  0  0  0
   -0.3810    6.1960   -0.1160 C   0  0  0  0  0  0  0  0  0  0  0  0
   -0.1130    4.9410    0.2570 C   0  0  0  0  0  0  0  0  0  0  0  0
   -0.6480    3.8030   -0.4490 C   0  0  0  0  0  0  0  0  0  0  0  0
   -0.3590    2.5790   -0.0490 C   0  0  0  0  0  0  0  0  0  0  0  0
   -0.9080    1.4470   -0.7740 C   0  0  0  0  0  0  0  0  0  0  0  0
   -1.6650    1.7030   -1.7780 O   0  0  0  0  0  0  0  0  0  0  0  0
   -0.6900    0.0870   -0.4750 N   0  0  0  0  0  0  0  0  0  0  0  0
   -1.3840   -0.9120   -1.2810 C   0  0  0  0  0  0  0  0  0  0  0  0
   -2.7270   -1.2500   -0.6680 C   0  0  2  0  0  0  0  0  0  0  0  0
   -2.5900   -1.7550    0.6070 O   0  0  0  0  0  0  0  0  0  0  0  0
   -3.3880   -2.3270   -1.5080 C   0  0  0  0  0  0  0  0  0  0  0  0
   -4.6600   -2.6600   -0.9790 O   0  0  0  0  0  0  0  0  0  0  0  0
   -4.7870   -3.1550    0.3100 C   0  0  0  0  0  0  0  0  0  0  0  0
   -4.5800   -4.4020    0.7250 C   0  0  0  0  0  0  0  0  0  0  0  0
   -4.8350   -4.4800    2.1940 C   0  0  0  0  0  0  0  0  0  0  0  0
   -5.2100   -3.1000    2.5200 C   0  0  0  0  0  0  0  0  0  0  0  0
   -5.1890   -2.3200    1.4530 C   0  0  0  0  0  0  0  0  0  0  0  0
    0.2260   -0.2880    0.5670 C   0  0  0  0  0  0  0  0  0  0  0  0
    1.6210   -0.5820    0.1260 C   0  0  1  0  0  0  0  0  0  0  0  0
    1.6650   -1.6360   -0.8010 O   0  0  0  0  0  0  0  0  0  0  0  0
    2.2630    0.5950   -0.5100 C   0  0  0  0  0  0  0  0  0  0  0  0
    3.7130    0.3110   -0.8880 C   0  0  0  0  0  0  0  0  0  0  0  0
    4.4550   -0.3200    0.2680 C   0  0  1  0  0  0  0  0  0  0  0  0
    4.8400   -1.7200   -0.1410 C   0  0  0  0  0  0  0  0  0  0  0  0
    5.7490    0.4540    0.5560 C   0  0  0  0  0  0  0  0  0  0  0  0
    3.6470   -0.2800    1.5360 C   0  0  0  0  0  0  0  0  0  0  0  0
    2.3970   -1.0780    1.3340 C   0  0  0  0  0  0  0  0  0  0  0  0
  1  2  1  0
  2  3  2  3
  3  4  1  0
  4  5  2  3
  5  6  1  0
  6  7  2  0
  6  8  1  0
  8  9  1  0
  8 19  1  0
  9 10  1  0
 10 11  1  1
 10 12  1  0
 12 13  1  0
 13 14  1  0
 14 15  2  0
 14 18  1  0
 15 16  1  0
 16 17  1  0
 17 18  2  0
 19 20  1  0
 20 21  1  6
 20 22  1  0
 20 28  1  0
 22 23  1  0
 23 24  1  0
 24 25  1  6
 24 26  1  0
 24 27  1  0
 27 28  1  0
M  END
