
     RDKit          3D

 28 30  0  0  0  0  0  0  0  0999 V2000
    0.8310   -0.0750    2.1290 C   0  0  0  0  0  0  0  0  0  0  0  0
    1.5700   -0.4350    0.9280 C   0  0  0  0  0  0  0  0  0  0  0  0
    2.8810   -0.2090    0.8790 C   0  0  0  0  0  0  0  0  0  0  0  0
    3.8960   -0.6620   -0.1760 C   0  0  0  0  0  0  0  0  0  0  0  0
    4.9600   -0.2810   -0.0230 O   0  0  0  0  0  0  0  0  0  0  0  0
    6.2650    0.0690   -0.2830 C   0  0  2  0  0  0  0  0  0  0  0  0
    6.5890    1.1010    0.8190 C   0  0  0  0  0  0  0  0  0  0  0  0
    7.2300    2.1710    0.0490 C   0  0  0  0  0  0  0  0  0  0  0  0
    6.9520    1.9980   -1.2800 O   0  0  0  0  0  0  0  0  0  0  0  0
    6.0440    1.0790   -1.4930 C   0  0  0  0  0  0  0  0  0  0  0  0
    3.0970   -1.4380   -1.0560 C   0  0  0  0  0  0  0  0  0  0  0  0
    1.7770   -1.6730   -1.0830 C   0  0  0  0  0  0  0  0  0  0  0  0
    1.2210   -2.6010   -2.0460 C   0  0  0  0  0  0  0  0  0  0  0  0
    0.9630   -1.1270   -0.0670 C   0  0  0  0  0  0  0  0  0  0  0  0
   -0.4760   -0.9420   -0.2750 C   0  0  1  0  0  0  0  0  0  0  0  0
   -1.2530   -2.1770   -0.0600 C   0  0  0  0  0  0  0  0  0  0  0  0
   -2.6610   -1.8170   -0.5290 C   0  0  0  0  0  0  0  0  0  0  0  0
   -3.2860   -1.0190    0.4190 C   0  0  2  0  0  0  0  0  0  0  0  0
   -3.4080   -1.4460    1.8640 C   0  0  0  0  0  0  0  0  0  0  0  0
   -3.5340   -1.8250    3.1110 N   0  0  0  0  0  0  0  0  0  0  0  0
   -4.6280   -0.3640    0.1650 C   0  0  1  0  0  0  0  0  0  0  0  0
   -5.2030    0.2050    1.2430 O   0  0  0  0  0  0  0  0  0  0  0  0
   -4.6230    0.6200   -0.9760 C   0  0  0  0  0  0  0  0  0  0  0  0
   -5.8640    1.5900   -0.8030 C   0  0  0  0  0  0  0  0  0  0  0  0
   -5.6030    2.3850    0.4720 C   0  0  0  0  0  0  0  0  0  0  0  0
   -6.0300    3.7330    0.2540 O   0  0  0  0  0  0  0  0  0  0  0  0
   -2.3620    0.2990    0.7620 C   0  0  0  0  0  0  0  0  0  0  0  0
   -1.1210    0.3450   -0.0190 C   0  0  0  0  0  0  0  0  0  0  0  0
  1  2  1  0
  2  3  2  0
  2 14  1  0
  3  4  1  0
  4  5  1  0
  4 11  2  0
  6  5  1  1
  6  7  1  0
  6 10  1  0
  7  8  1  0
  8  9  1  0
  9 10  1  0
 11 12  1  0
 12 13  1  0
 12 14  2  0
 15 14  1  1
 15 16  1  0
 15 28  1  0
 16 17  1  0
 17 18  1  0
 18 19  1  1
 18 21  1  0
 18 27  1  0
 19 20  3  0
 21 22  1  1
 21 23  1  0
 23 24  1  0
 24 25  1  0
 25 26  1  0
 27 28  1  0
M  END
