
     RDKit          3D

 20 20  0  0  0  0  0  0  0  0999 V2000
   -2.1940    1.8350    1.1420 N   0  0  0  0  0  0  0  0  0  0  0  0
   -2.7940    0.8710    0.3680 C   0  0  0  0  0  0  0  0  0  0  0  0
   -4.1050    0.9700    0.3540 O   0  0  0  0  0  0  0  0  0  0  0  0
   -2.2500   -0.1770   -0.3910 C   0  0  0  0  0  0  0  0  0  0  0  0
   -1.0610   -0.5710   -0.6100 C   0  0  0  0  0  0  0  0  0  0  0  0
    0.2630   -0.1790   -0.2210 C   0  0  0  0  0  0  0  0  0  0  0  0
    1.3650   -0.8350   -0.6440 C   0  0  0  0  0  0  0  0  0  0  0  0
    2.5990   -0.3300   -0.1750 C   0  0  0  0  0  0  0  0  0  0  0  0
    4.1780   -1.0470   -0.6130 S   0  0  1  0  0  0  0  0  0  0  0  0
    4.9780   -0.0770   -1.4220 O   0  0  0  0  0  0  0  0  0  0  0  0
    4.9080   -1.2760    0.6830 O   0  0  0  0  0  0  0  0  0  0  0  0
    2.5910    0.6990    0.6080 C   0  0  0  0  0  0  0  0  0  0  0  0
    3.5530    1.4090    1.2140 F   0  0  0  0  0  0  0  0  0  0  0  0
    0.8470    1.0850    0.7830 S   0  0  2  0  0  0  0  0  0  0  0  0
    0.5060    0.9580    2.2380 O   0  0  0  0  0  0  0  0  0  0  0  0
    0.6380    2.4700    0.2380 O   0  0  0  0  0  0  0  0  0  0  0  0
   -3.3430   -1.0510   -1.1320 C   0  0  1  0  0  0  0  0  0  0  0  0
   -2.7130   -2.0290   -1.8330 F   0  0  0  0  0  0  0  0  0  0  0  0
   -4.1570   -1.5910   -0.1600 F   0  0  0  0  0  0  0  0  0  0  0  0
   -4.0940   -0.2010   -1.9050 F   0  0  0  0  0  0  0  0  0  0  0  0
  1  2  1  0
  2  3  2  0
  2  4  1  0
  4  5  2  3
  4 17  1  0
  5  6  1  0
  6  7  2  0
 14  6  1  6
  7  8  1  0
  9  8  1  1
  8 12  2  0
  9 10  2  0
  9 11  2  0
 12 13  1  0
 12 14  1  0
 14 15  2  0
 14 16  2  0
 17 18  1  6
 17 19  1  0
 17 20  1  0
M  END
