
     RDKit          3D

 28 30  0  0  0  0  0  0  0  0999 V2000
    9.0980   -1.6770    0.8560 O   0  0  0  0  0  0  0  0  0  0  0  0
    8.9490   -0.5850    0.2260 C   0  0  0  0  0  0  0  0  0  0  0  0
    9.4340    0.5960    0.7710 O   0  0  0  0  0  0  0  0  0  0  0  0
    8.2590   -0.6470   -1.0660 C   0  0  0  0  0  0  0  0  0  0  0  0
    6.7600   -0.7990   -0.9360 C   0  0  0  0  0  0  0  0  0  0  0  0
    6.2590    0.4050   -0.1680 C   0  0  0  0  0  0  0  0  0  0  0  0
    4.8350    0.3790    0.0240 N   0  0  0  0  0  0  0  0  0  0  0  0
    3.9020    0.3600   -1.0420 C   0  0  0  0  0  0  0  0  0  0  0  0
    4.3200    0.3650   -2.2310 O   0  0  0  0  0  0  0  0  0  0  0  0
    2.4570    0.3330   -0.8540 C   0  0  0  0  0  0  0  0  0  0  0  0
    1.8770    0.2880    0.3950 C   0  0  0  0  0  0  0  0  0  0  0  0
    0.5060    0.2650    0.5550 C   0  0  0  0  0  0  0  0  0  0  0  0
   -0.3550    0.2850   -0.5230 C   0  0  0  0  0  0  0  0  0  0  0  0
   -1.8040    0.2590   -0.3110 C   0  0  1  0  0  0  0  0  0  0  0  0
   -2.1700   -1.1070    0.2810 C   0  0  0  0  0  0  0  0  0  0  0  0
   -3.6640   -1.1580    0.2550 C   0  0  0  0  0  0  0  0  0  0  0  0
   -4.2450   -0.1620    1.2130 C   0  0  2  0  0  0  0  0  0  0  0  0
   -5.6580    0.0530    0.8220 C   0  0  0  0  0  0  0  0  0  0  0  0
   -6.7220   -0.3480    1.5970 C   0  0  0  0  0  0  0  0  0  0  0  0
   -8.0350   -0.1440    1.2240 C   0  0  0  0  0  0  0  0  0  0  0  0
   -8.3050    0.4860    0.0270 C   0  0  0  0  0  0  0  0  0  0  0  0
   -7.2610    0.8990   -0.7720 C   0  0  0  0  0  0  0  0  0  0  0  0
   -5.9360    0.6810   -0.3730 C   0  0  0  0  0  0  0  0  0  0  0  0
   -3.4770    1.0900    1.3960 C   0  0  0  0  0  0  0  0  0  0  0  0
   -2.3530    1.3790    0.4940 C   0  0  2  0  0  0  0  0  0  0  0  0
   -2.6780    2.4160   -0.4160 O   0  0  0  0  0  0  0  0  0  0  0  0
    0.2210    0.3300   -1.7710 C   0  0  0  0  0  0  0  0  0  0  0  0
    1.5860    0.3530   -1.9320 C   0  0  0  0  0  0  0  0  0  0  0  0
  1  2  2  0
  2  3  1  0
  2  4  1  0
  4  5  1  0
  5  6  1  0
  6  7  1  0
  7  8  1  0
  8  9  2  0
  8 10  1  0
 10 11  2  0
 10 28  1  0
 11 12  1  0
 12 13  2  0
 14 13  1  1
 13 27  1  0
 14 15  1  0
 14 25  1  0
 15 16  1  0
 16 17  1  0
 17 18  1  6
 17 24  1  0
 18 19  2  0
 18 23  1  0
 19 20  1  0
 20 21  2  0
 21 22  1  0
 22 23  2  0
 24 25  1  0
 25 26  1  6
 27 28  2  0
M  END
