
     RDKit          3D

 28 30  0  0  0  0  0  0  0  0999 V2000
   -5.2910   -1.5660   -0.0550 C   0  0  0  0  0  0  0  0  0  0  0  0
   -4.3320   -1.2740   -1.1720 C   0  0  1  0  0  0  0  0  0  0  0  0
   -4.9520   -0.1700   -1.9950 C   0  0  0  0  0  0  0  0  0  0  0  0
   -2.9190   -1.2080   -0.8750 C   0  0  0  0  0  0  0  0  0  0  0  0
   -2.2850   -0.2800    0.0590 C   0  0  1  0  0  0  0  0  0  0  0  0
   -2.7330   -0.3390    1.4900 C   0  0  0  0  0  0  0  0  0  0  0  0
   -2.4460   -1.5420    2.2660 C   0  0  0  0  0  0  0  0  0  0  0  0
   -1.6180   -2.6290    1.6670 C   0  0  0  0  0  0  0  0  0  0  0  0
   -0.6770   -2.0840    0.6350 C   0  0  0  0  0  0  0  0  0  0  0  0
    0.2600   -2.7540    0.1300 O   0  0  0  0  0  0  0  0  0  0  0  0
   -0.8370   -0.6850    0.1680 C   0  0  0  0  0  0  0  0  0  0  0  0
    0.1850    0.0770   -0.0910 C   0  0  0  0  0  0  0  0  0  0  0  0
    1.5060   -0.4120    0.0460 N   0  0  0  0  0  0  0  0  0  0  0  0
    2.6960    0.3120   -0.2250 C   0  0  0  0  0  0  0  0  0  0  0  0
    2.6220    1.4850   -0.6320 O   0  0  0  0  0  0  0  0  0  0  0  0
    4.0510   -0.3430   -0.0210 C   0  0  0  0  0  0  0  0  0  0  0  0
    5.1140    0.6530   -0.3810 C   0  0  1  0  0  0  0  0  0  0  0  0
    4.9690    1.7620    0.4550 O   0  0  0  0  0  0  0  0  0  0  0  0
    6.4390    0.0110   -0.1430 C   0  0  0  0  0  0  0  0  0  0  0  0
    7.3330   -0.4320   -1.0700 C   0  0  0  0  0  0  0  0  0  0  0  0
    8.4050   -0.9470   -0.3940 C   0  0  0  0  0  0  0  0  0  0  0  0
    8.1010   -0.7860    0.9560 C   0  0  0  0  0  0  0  0  0  0  0  0
    6.9220   -0.2110    1.0520 O   0  0  0  0  0  0  0  0  0  0  0  0
    0.0380    1.4960   -0.4850 C   0  0  0  0  0  0  0  0  0  0  0  0
   -1.3390    2.0220   -0.4280 C   0  0  1  0  0  0  0  0  0  0  0  0
   -1.4070    2.9340    0.8180 C   0  0  0  0  0  0  0  0  0  0  0  0
   -1.4450    3.0280   -1.5980 C   0  0  0  0  0  0  0  0  0  0  0  0
   -2.4750    1.1090   -0.4420 C   0  0  0  0  0  0  0  0  0  0  0  0
  2  1  1  1
  2  3  1  0
  2  4  1  0
  5  4  1  6
  5  6  1  0
  5 11  1  0
  5 28  1  0
  6  7  1  0
  7  8  1  0
  8  9  1  0
  9 10  2  0
  9 11  1  0
 11 12  2  0
 12 13  1  0
 12 24  1  0
 13 14  1  0
 14 15  2  0
 14 16  1  0
 16 17  1  0
 17 18  1  1
 17 19  1  0
 19 20  2  0
 19 23  1  0
 20 21  1  0
 21 22  2  0
 22 23  1  0
 24 25  1  0
 25 26  1  1
 25 27  1  0
 25 28  1  0
M  END
