
     RDKit          3D

 28 30  0  0  0  0  0  0  0  0999 V2000
    0.5620   -3.7670    0.3910 C   0  0  0  0  0  0  0  0  0  0  0  0
   -0.3370   -2.6780    0.3310 O   0  0  0  0  0  0  0  0  0  0  0  0
    0.0550   -1.3830    0.3780 C   0  0  0  0  0  0  0  0  0  0  0  0
    1.4050   -1.1070    0.4920 C   0  0  0  0  0  0  0  0  0  0  0  0
    1.8810    0.1810    0.5380 C   0  0  0  0  0  0  0  0  0  0  0  0
    3.2210    0.3610    0.6540 O   0  0  0  0  0  0  0  0  0  0  0  0
    3.9400    1.5440    0.7060 C   0  0  0  0  0  0  0  0  0  0  0  0
    5.4170    1.3550    0.8570 C   0  0  0  0  0  0  0  0  0  0  0  0
    6.0380    0.5560   -0.2400 C   0  0  0  0  0  0  0  0  0  0  0  0
    7.5270    0.4200   -0.0450 C   0  0  0  0  0  0  0  0  0  0  0  0
    8.0700   -0.3970   -1.1570 C   0  0  0  0  0  0  0  0  0  0  0  0
    9.4620   -0.4180   -1.3970 N   0  0  0  0  0  0  0  0  0  0  0  0
    7.2940   -1.0790   -1.8910 O   0  0  0  0  0  0  0  0  0  0  0  0
    0.9380    1.2140    0.4620 C   0  0  0  0  0  0  0  0  0  0  0  0
   -0.4060    0.9290    0.3500 C   0  0  0  0  0  0  0  0  0  0  0  0
   -1.2960    1.9600    0.2530 C   0  0  0  0  0  0  0  0  0  0  0  0
   -2.6700    1.7230    0.1090 C   0  0  0  0  0  0  0  0  0  0  0  0
   -3.5610    2.8780   -0.0200 C   0  0  0  0  0  0  0  0  0  0  0  0
   -3.1870    0.4430    0.0620 C   0  0  0  0  0  0  0  0  0  0  0  0
   -4.5570    0.1400   -0.0010 C   0  0  2  0  0  0  0  0  0  0  0  0
   -5.1290   -0.9870   -0.7850 C   0  0  0  0  0  0  0  0  0  0  0  0
   -6.3600   -1.2870    0.0420 C   0  0  0  0  0  0  0  0  0  0  0  0
   -6.7580    0.0180    0.6900 C   0  0  0  0  0  0  0  0  0  0  0  0
   -5.7100    1.0130    0.0690 C   0  0  2  0  0  0  0  0  0  0  0  0
   -6.3970    1.2690   -1.1420 O   0  0  0  0  0  0  0  0  0  0  0  0
   -2.2430   -0.5970    0.1720 C   0  0  0  0  0  0  0  0  0  0  0  0
   -2.6450   -2.0060    0.3700 C   0  0  0  0  0  0  0  0  0  0  0  0
   -0.8820   -0.3630    0.3060 C   0  0  0  0  0  0  0  0  0  0  0  0
  1  2  1  0
  2  3  1  0
  3  4  2  0
  3 28  1  0
  4  5  1  0
  5  6  1  0
  5 14  2  0
  6  7  1  0
  7  8  1  0
  8  9  1  0
  9 10  1  0
 10 11  1  0
 11 12  1  0
 11 13  2  0
 14 15  1  0
 15 16  2  0
 15 28  1  0
 16 17  1  0
 17 18  1  0
 17 19  2  0
 20 19  1  6
 19 26  1  0
 20 21  1  0
 20 24  1  0
 21 22  1  0
 22 23  1  0
 23 24  1  0
 24 25  1  6
 26 27  1  0
 26 28  2  0
M  END
