
     RDKit          3D

 28 30  0  0  0  0  0  0  0  0999 V2000
   -2.1140    3.9920   -2.1930 C   0  0  0  0  0  0  0  0  0  0  0  0
   -1.4900    2.9380   -2.8150 O   0  0  0  0  0  0  0  0  0  0  0  0
   -0.9060    2.0230   -1.9470 C   0  0  0  0  0  0  0  0  0  0  0  0
   -1.9640    1.4400   -1.0610 C   0  0  1  0  0  0  0  0  0  0  0  0
   -2.9200    0.8250   -1.8560 O   0  0  0  0  0  0  0  0  0  0  0  0
   -1.3970    0.4840   -0.0310 C   0  0  0  0  0  0  0  0  0  0  0  0
   -0.1000    0.2760   -0.0790 C   0  0  0  0  0  0  0  0  0  0  0  0
    0.6820   -0.5740    0.7770 C   0  0  0  0  0  0  0  0  0  0  0  0
    1.9440   -0.8350    0.7790 C   0  0  0  0  0  0  0  0  0  0  0  0
    2.6050   -1.7720    1.7850 C   0  0  0  0  0  0  0  0  0  0  0  0
    3.9420   -1.0660    2.0290 C   0  0  0  0  0  0  0  0  0  0  0  0
    4.2460   -0.5080    0.6630 C   0  0  0  0  0  0  0  0  0  0  0  0
    3.0600   -0.4140   -0.0550 C   0  0  0  0  0  0  0  0  0  0  0  0
    3.1170    0.0390   -1.3460 C   0  0  0  0  0  0  0  0  0  0  0  0
    4.3460    0.3890   -1.8860 C   0  0  0  0  0  0  0  0  0  0  0  0
    5.4950    0.2910   -1.1620 C   0  0  0  0  0  0  0  0  0  0  0  0
    6.7320    0.6610   -1.7510 N   0  0  0  0  0  0  0  0  0  0  0  0
    5.4610   -0.1630    0.1350 C   0  0  0  0  0  0  0  0  0  0  0  0
    6.7210   -0.2600    0.8940 C   0  0  0  0  0  0  0  0  0  0  0  0
   -2.3570   -0.1210    0.9270 C   0  0  1  0  0  0  0  0  0  0  0  0
   -2.7380    0.8880    1.7780 O   0  0  0  0  0  0  0  0  0  0  0  0
   -4.0790    1.0210    1.9890 C   0  0  0  0  0  0  0  0  0  0  0  0
   -4.9090    0.9830    0.7520 C   0  0  0  0  0  0  0  0  0  0  0  0
   -4.7800   -0.3790    0.1610 C   0  0  0  0  0  0  0  0  0  0  0  0
   -3.4200   -0.9180    0.3010 C   0  0  2  0  0  0  0  0  0  0  0  0
   -3.5730   -2.3320    0.8990 C   0  0  0  0  0  0  0  0  0  0  0  0
   -2.3560   -3.1700    0.7700 C   0  0  0  0  0  0  0  0  0  0  0  0
   -2.6760   -4.4240    1.3530 O   0  0  0  0  0  0  0  0  0  0  0  0
  1  2  1  0
  2  3  1  0
  3  4  1  0
  4  5  1  6
  4  6  1  0
  6  7  2  3
 20  6  1  6
  7  8  1  0
  8  9  2  3
  9 10  1  0
  9 13  1  0
 10 11  1  0
 11 12  1  0
 12 13  2  0
 12 18  1  0
 13 14  1  0
 14 15  2  0
 15 16  1  0
 16 17  1  0
 16 18  2  0
 18 19  1  0
 20 21  1  0
 20 25  1  0
 21 22  1  0
 22 23  1  0
 23 24  1  0
 24 25  1  0
 25 26  1  1
 26 27  1  0
 27 28  1  0
M  END
