
     RDKit          3D

 36 37  0  0  0  0  0  0  0  0999 V2000
    8.5530    1.2980    3.5060 C   0  0  0  0  0  0  0  0  0  0  0  0
    7.6580    0.3130    4.2050 C   0  0  0  0  0  0  0  0  0  0  0  0
    6.2920    0.5010    3.9860 O   0  0  0  0  0  0  0  0  0  0  0  0
    5.7400    0.3950    2.7250 C   0  0  0  0  0  0  0  0  0  0  0  0
    6.5050    0.0780    1.6280 C   0  0  0  0  0  0  0  0  0  0  0  0
    5.9290   -0.0200    0.3790 C   0  0  0  0  0  0  0  0  0  0  0  0
    4.5750    0.1960    0.2030 C   0  0  0  0  0  0  0  0  0  0  0  0
    3.9600    0.1370   -1.1160 C   0  0  0  0  0  0  0  0  0  0  0  0
    2.8980   -0.5750   -1.4190 C   0  0  0  0  0  0  0  0  0  0  0  0
    2.4110   -0.4980   -2.8420 C   0  0  0  0  0  0  0  0  0  0  0  0
    2.4100   -1.6990   -3.4780 F   0  0  0  0  0  0  0  0  0  0  0  0
    2.1760   -1.4680   -0.4520 C   0  0  2  0  0  0  0  0  0  0  0  0
    2.1910   -2.9060   -0.9540 C   0  0  0  0  0  0  0  0  0  0  0  0
    0.8680   -1.0000   -0.1170 N   0  0  0  0  0  0  0  0  0  0  0  0
   -0.1790   -1.5540   -0.9130 C   0  0  0  0  0  0  0  0  0  0  0  0
   -1.2800   -0.5220   -0.9950 C   0  0  0  0  0  0  0  0  0  0  0  0
   -1.1780    0.5850   -0.4210 O   0  0  0  0  0  0  0  0  0  0  0  0
   -2.4590   -0.7930   -1.7340 N   0  0  0  0  0  0  0  0  0  0  0  0
   -3.5710    0.1530   -1.8620 C   0  0  1  0  0  0  0  0  0  0  0  0
   -3.0710    1.4500   -2.4590 C   0  0  0  0  0  0  0  0  0  0  0  0
   -4.5290   -0.4770   -2.8460 C   0  0  0  0  0  0  0  0  0  0  0  0
   -4.1650    0.3960   -0.5230 C   0  0  2  0  0  0  0  0  0  0  0  0
   -4.6640   -0.8790    0.0520 N   0  0  0  0  0  0  0  0  0  0  0  0
   -4.0630   -1.4930    1.1720 C   0  0  0  0  0  0  0  0  0  0  0  0
   -4.5610   -2.7080    1.7040 N   0  0  0  0  0  0  0  0  0  0  0  0
   -3.0650   -0.9710    1.7240 O   0  0  0  0  0  0  0  0  0  0  0  0
   -5.2650    1.3540   -0.4380 C   0  0  0  0  0  0  0  0  0  0  0  0
   -5.8530    1.9510   -1.5180 C   0  0  0  0  0  0  0  0  0  0  0  0
   -6.9000    2.8410   -1.3570 C   0  0  0  0  0  0  0  0  0  0  0  0
   -7.3750    3.1490   -0.1200 C   0  0  0  0  0  0  0  0  0  0  0  0
   -8.4090    4.0320    0.0040 F   0  0  0  0  0  0  0  0  0  0  0  0
   -6.7940    2.5580    0.9730 C   0  0  0  0  0  0  0  0  0  0  0  0
   -5.7440    1.6650    0.8140 C   0  0  0  0  0  0  0  0  0  0  0  0
   -5.2150    1.1170    1.9570 F   0  0  0  0  0  0  0  0  0  0  0  0
    3.8150    0.5100    1.2890 C   0  0  0  0  0  0  0  0  0  0  0  0
    4.3800    0.6070    2.5210 C   0  0  0  0  0  0  0  0  0  0  0  0
  1  2  1  0
  2  3  1  0
  3  4  1  0
  4  5  2  0
  4 36  1  0
  5  6  1  0
  6  7  2  0
  7  8  1  0
  7 35  1  0
  8  9  2  3
  9 10  1  0
  9 12  1  0
 10 11  1  0
 12 13  1  6
 12 14  1  0
 14 15  1  0
 15 16  1  0
 16 17  2  0
 16 18  1  0
 18 19  1  0
 19 20  1  6
 19 21  1  0
 19 22  1  0
 22 23  1  6
 22 27  1  0
 23 24  1  0
 24 25  1  0
 24 26  2  0
 27 28  2  0
 27 33  1  0
 28 29  1  0
 29 30  2  0
 30 31  1  0
 30 32  1  0
 32 33  2  0
 33 34  1  0
 35 36  2  0
M  CHG  1  14   1
M  END
