
     RDKit          3D

 36 37  0  0  0  0  0  0  0  0999 V2000
   -8.8460   -1.1930    2.1730 C   0  0  0  0  0  0  0  0  0  0  0  0
   -9.4070   -0.4530    1.2560 C   0  0  0  0  0  0  0  0  0  0  0  0
  -10.6350    0.1040    1.4870 F   0  0  0  0  0  0  0  0  0  0  0  0
   -8.7310   -0.2030   -0.0030 C   0  0  0  0  0  0  0  0  0  0  0  0
   -9.3410    0.5400   -0.9220 C   0  0  0  0  0  0  0  0  0  0  0  0
   -8.7640    0.8700   -2.2430 C   0  0  0  0  0  0  0  0  0  0  0  0
   -8.6240    2.3180   -2.4090 N   0  0  0  0  0  0  0  0  0  0  0  0
   -7.4440   -0.7620   -0.2380 N   0  0  0  0  0  0  0  0  0  0  0  0
   -6.3350   -0.3290    0.5310 C   0  0  0  0  0  0  0  0  0  0  0  0
   -6.5250    0.5570    1.4040 O   0  0  0  0  0  0  0  0  0  0  0  0
   -4.9580   -0.9070    0.3200 C   0  0  0  0  0  0  0  0  0  0  0  0
   -3.9930   -0.2470    1.2700 C   0  0  0  0  0  0  0  0  0  0  0  0
   -2.5720   -0.7870    1.1260 C   0  0  1  0  0  0  0  0  0  0  0  0
   -2.5310   -2.2630    1.4040 C   0  0  0  0  0  0  0  0  0  0  0  0
   -1.9850   -0.3770   -0.1690 C   0  0  0  0  0  0  0  0  0  0  0  0
   -0.6900   -0.7520   -0.5030 N   0  0  0  0  0  0  0  0  0  0  0  0
   -0.3310   -2.0690   -0.7910 C   0  0  0  0  0  0  0  0  0  0  0  0
    0.8760   -2.6040   -0.0660 C   0  0  0  0  0  0  0  0  0  0  0  0
    1.4430   -1.8090    0.8570 O   0  0  0  0  0  0  0  0  0  0  0  0
    1.3620   -0.4670    0.8100 C   0  0  1  0  0  0  0  0  0  0  0  0
    2.6950    0.2660    0.7530 C   0  0  0  0  0  0  0  0  0  0  0  0
    3.5210   -0.0590   -0.3960 C   0  0  0  0  0  0  0  0  0  0  0  0
    3.1640   -0.9110   -1.2320 O   0  0  0  0  0  0  0  0  0  0  0  0
    4.7680    0.6040   -0.5840 N   0  0  0  0  0  0  0  0  0  0  0  0
    5.1770    1.6010    0.3680 C   0  0  0  0  0  0  0  0  0  0  0  0
    6.6170    1.5280    0.6060 C   0  0  0  0  0  0  0  0  0  0  0  0
    7.4570    1.1880   -0.3910 C   0  0  0  0  0  0  0  0  0  0  0  0
    8.8890    1.1220   -0.1420 C   0  0  0  0  0  0  0  0  0  0  0  0
    9.7560    0.8040   -1.0660 C   0  0  0  0  0  0  0  0  0  0  0  0
   11.2220    0.7120   -0.9030 C   0  0  0  0  0  0  0  0  0  0  0  0
    9.3770    1.4470    1.2300 C   0  0  2  0  0  0  0  0  0  0  0  0
    9.0740    2.7610    1.5420 F   0  0  0  0  0  0  0  0  0  0  0  0
   10.7200    1.2910    1.3910 F   0  0  0  0  0  0  0  0  0  0  0  0
    6.9000    0.8780   -1.7150 C   0  0  0  0  0  0  0  0  0  0  0  0
    5.5460    0.2480   -1.7120 C   0  0  0  0  0  0  0  0  0  0  0  0
    0.3740    0.1320   -0.1560 C   0  0  0  0  0  0  0  0  0  0  0  0
  1  2  2  0
  2  3  1  0
  2  4  1  0
  4  5  2  3
  4  8  1  0
  5  6  1  0
  6  7  1  0
  8  9  1  0
  9 10  2  0
  9 11  1  0
 11 12  1  0
 12 13  1  0
 13 14  1  6
 13 15  1  0
 15 16  1  0
 16 17  1  0
 16 36  1  0
 17 18  1  0
 18 19  1  0
 19 20  1  0
 20 21  1  6
 20 36  1  0
 21 22  1  0
 22 23  2  0
 22 24  1  0
 24 25  1  0
 24 35  1  0
 25 26  1  0
 26 27  2  0
 27 28  1  0
 27 34  1  0
 28 29  2  3
 28 31  1  0
 29 30  1  0
 31 32  1  6
 31 33  1  0
 34 35  1  0
M  CHG  1   7   1
M  END
