
     RDKit          3D

 35 36  0  0  0  0  0  0  0  0999 V2000
    2.9000    2.6460    1.2260 C   0  0  0  0  0  0  0  0  0  0  0  0
    4.0310    3.3390    1.2260 C   0  0  0  0  0  0  0  0  0  0  0  0
    5.2450    2.6750    0.6610 C   0  0  0  0  0  0  0  0  0  0  0  0
    4.9410    1.3500    0.2050 N   0  0  0  0  0  0  0  0  0  0  0  0
    6.0780    0.6530   -0.3430 C   0  0  0  0  0  0  0  0  0  0  0  0
    5.6500   -0.6920   -0.8020 C   0  0  0  0  0  0  0  0  0  0  0  0
    4.3140   -1.0960   -0.6820 C   0  0  0  0  0  0  0  0  0  0  0  0
    3.8830   -2.3220   -1.0960 C   0  0  0  0  0  0  0  0  0  0  0  0
    2.5670   -2.8170   -1.0170 N   0  0  0  0  0  0  0  0  0  0  0  0
    1.4320   -2.1350   -0.5140 C   0  0  0  0  0  0  0  0  0  0  0  0
    1.5420   -0.9780   -0.0850 O   0  0  0  0  0  0  0  0  0  0  0  0
    0.0820   -2.7490   -0.4730 C   0  0  1  0  0  0  0  0  0  0  0  0
    0.0470   -4.0170    0.3310 C   0  0  0  0  0  0  0  0  0  0  0  0
   -0.9080   -1.8320    0.0740 N   0  0  0  0  0  0  0  0  0  0  0  0
   -2.0410   -1.4380   -0.6780 C   0  0  0  0  0  0  0  0  0  0  0  0
   -2.1020   -1.9570   -1.8480 O   0  0  0  0  0  0  0  0  0  0  0  0
   -3.0940   -0.5340   -0.2510 C   0  0  0  0  0  0  0  0  0  0  0  0
   -4.2160   -0.4800   -1.0950 C   0  0  0  0  0  0  0  0  0  0  0  0
   -5.2720    0.3290   -0.7710 C   0  0  0  0  0  0  0  0  0  0  0  0
   -5.3010    1.1120    0.3600 C   0  0  0  0  0  0  0  0  0  0  0  0
   -6.3710    1.8990    0.6510 O   0  0  0  0  0  0  0  0  0  0  0  0
   -7.5340    2.0280   -0.1060 C   0  0  0  0  0  0  0  0  0  0  0  0
   -8.2910    0.7300   -0.2840 C   0  0  0  0  0  0  0  0  0  0  0  0
   -4.2050    1.0610    1.1830 C   0  0  0  0  0  0  0  0  0  0  0  0
   -4.0400    1.8680    2.4150 C   0  0  0  0  0  0  0  0  0  0  0  0
   -3.4960    3.2230    2.1560 C   0  0  0  0  0  0  0  0  0  0  0  0
   -4.3440    3.9920    1.2890 N   0  0  0  0  0  0  0  0  0  0  0  0
   -3.1100    0.2320    0.8630 C   0  0  0  0  0  0  0  0  0  0  0  0
   -2.0370    0.2060    1.6900 F   0  0  0  0  0  0  0  0  0  0  0  0
    4.8540   -3.1500   -1.6470 C   0  0  0  0  0  0  0  0  0  0  0  0
    4.4870   -4.3930   -2.0820 F   0  0  0  0  0  0  0  0  0  0  0  0
    6.1620   -2.8060   -1.7860 C   0  0  0  0  0  0  0  0  0  0  0  0
    7.1330   -3.7790   -2.3940 C   0  0  0  0  0  0  0  0  0  0  0  0
    6.5730   -1.5640   -1.3600 C   0  0  0  0  0  0  0  0  0  0  0  0
    7.8580   -1.2260   -1.4960 F   0  0  0  0  0  0  0  0  0  0  0  0
  1  2  2  0
  2  3  1  0
  3  4  1  0
  4  5  1  0
  5  6  1  0
  6  7  2  0
  6 34  1  0
  7  8  1  0
  8  9  1  0
  8 30  2  0
  9 10  1  0
 10 11  2  0
 10 12  1  0
 12 13  1  1
 12 14  1  0
 14 15  1  0
 15 16  2  0
 15 17  1  0
 17 18  2  0
 17 28  1  0
 18 19  1  0
 19 20  2  0
 20 21  1  0
 20 24  1  0
 21 22  1  0
 22 23  1  0
 24 25  1  0
 24 28  2  0
 25 26  1  0
 26 27  1  0
 28 29  1  0
 30 31  1  0
 30 32  1  0
 32 33  1  0
 32 34  2  0
 34 35  1  0
M  CHG  1  27   1
M  END
