
     RDKit          3D

 37 41  0  0  0  0  0  0  0  0999 V2000
    9.5360    0.8040    0.8640 N   0  0  0  0  0  0  0  0  0  0  0  0
    8.5660   -0.1800    0.4660 C   0  0  0  0  0  0  0  0  0  0  0  0
    8.8170   -1.4520    0.1100 N   0  0  0  0  0  0  0  0  0  0  0  0
    7.6640   -2.0730   -0.1980 C   0  0  0  0  0  0  0  0  0  0  0  0
    6.6330   -1.1580   -0.0300 C   0  0  0  0  0  0  0  0  0  0  0  0
    5.1690   -1.3780   -0.2490 C   0  0  1  0  0  0  0  0  0  0  0  0
    4.3810   -1.2270    1.0100 C   0  0  0  0  0  0  0  0  0  0  0  0
    2.9370   -0.8950    0.6080 C   0  0  0  0  0  0  0  0  0  0  0  0
    2.9500    0.5700    0.2420 C   0  0  2  0  0  0  0  0  0  0  0  0
    1.6730    1.0840   -0.1390 N   0  0  0  0  0  0  0  0  0  0  0  0
    1.0010    2.1450    0.5170 C   0  0  0  0  0  0  0  0  0  0  0  0
    1.6030    2.6480    1.4980 O   0  0  0  0  0  0  0  0  0  0  0  0
   -0.3150    2.6770    0.1330 C   0  0  2  0  0  0  0  0  0  0  0  0
   -0.5990    3.8850    0.9760 C   0  0  0  0  0  0  0  0  0  0  0  0
   -1.8360    4.3560    0.9100 C   0  0  0  0  0  0  0  0  0  0  0  0
   -2.8220    3.6720    0.0310 C   0  0  0  0  0  0  0  0  0  0  0  0
   -2.6360    2.2380    0.3110 N   0  0  0  0  0  0  0  0  0  0  0  0
   -3.5480    1.2820    0.5400 C   0  0  0  0  0  0  0  0  0  0  0  0
   -4.8220    1.4450    0.5560 O   0  0  0  0  0  0  0  0  0  0  0  0
   -2.8820    0.1420    0.7500 N   0  0  0  0  0  0  0  0  0  0  0  0
   -3.4010   -1.1740    1.0150 C   0  0  0  0  0  0  0  0  0  0  0  0
   -3.5560   -2.0820   -0.1290 C   0  0  0  0  0  0  0  0  0  0  0  0
   -4.6280   -1.6920   -1.4280 S   0  0  2  0  0  0  0  0  0  0  0  0
   -4.5390   -2.7970   -2.4680 O   0  0  0  0  0  0  0  0  0  0  0  0
   -4.1140   -0.4410   -2.1350 O   0  0  0  0  0  0  0  0  0  0  0  0
   -6.3000   -1.5260   -1.0320 C   0  0  0  0  0  0  0  0  0  0  0  0
   -7.0800   -2.6070   -0.6450 C   0  0  0  0  0  0  0  0  0  0  0  0
   -8.4130   -2.4260   -0.3760 C   0  0  0  0  0  0  0  0  0  0  0  0
   -9.0180   -1.1810   -0.4800 C   0  0  0  0  0  0  0  0  0  0  0  0
   -8.2490   -0.1050   -0.8650 C   0  0  0  0  0  0  0  0  0  0  0  0
   -6.9120   -0.3010   -1.1320 C   0  0  0  0  0  0  0  0  0  0  0  0
   -1.5460    0.4630    0.6360 C   0  0  0  0  0  0  0  0  0  0  0  0
   -0.6310   -0.3720    0.7760 O   0  0  0  0  0  0  0  0  0  0  0  0
   -1.4140    1.7550    0.3650 N   0  0  0  0  0  0  0  0  0  0  0  0
    3.9530    0.7500   -0.8610 C   0  0  0  0  0  0  0  0  0  0  0  0
    4.5970   -0.5170   -1.3210 C   0  0  0  0  0  0  0  0  0  0  0  0
    7.2350   -0.0260    0.3730 N   0  0  0  0  0  0  0  0  0  0  0  0
  1  2  1  0
  2  3  2  0
  2 37  1  0
  3  4  1  0
  4  5  2  0
  6  5  1  1
  5 37  1  0
  6  7  1  0
  6 36  1  0
  7  8  1  0
  8  9  1  0
  9 10  1  6
  9 35  1  0
 10 11  1  0
 11 12  2  0
 13 11  1  1
 13 14  1  0
 13 34  1  0
 14 15  2  0
 15 16  1  0
 16 17  1  0
 17 18  1  0
 17 34  1  0
 18 19  2  0
 18 20  1  0
 20 21  1  0
 20 32  1  0
 21 22  1  0
 23 22  1  1
 23 24  2  0
 23 25  2  0
 23 26  1  0
 26 27  2  0
 26 31  1  0
 27 28  1  0
 28 29  2  0
 29 30  1  0
 30 31  2  0
 32 33  2  0
 32 34  1  0
 35 36  1  0
M  END
