
     RDKit          3D

 36 37  0  0  0  0  0  0  0  0999 V2000
   -3.1290    3.7680    0.4720 C   0  0  0  0  0  0  0  0  0  0  0  0
   -1.9960    4.5470    0.2690 O   0  0  0  0  0  0  0  0  0  0  0  0
   -0.9880    4.1490    1.1210 C   0  0  0  0  0  0  0  0  0  0  0  0
   -0.5910    2.7180    0.8830 C   0  0  0  0  0  0  0  0  0  0  0  0
   -0.7190    1.8660    1.8770 C   0  0  0  0  0  0  0  0  0  0  0  0
   -0.4150    0.4620    1.9120 C   0  0  0  0  0  0  0  0  0  0  0  0
   -0.6540   -0.1070    3.1210 C   0  0  0  0  0  0  0  0  0  0  0  0
   -1.1640    0.6070    4.2810 C   0  0  1  0  0  0  0  0  0  0  0  0
   -2.4290    1.1190    4.1560 F   0  0  0  0  0  0  0  0  0  0  0  0
   -1.2550   -0.3440    5.3210 F   0  0  0  0  0  0  0  0  0  0  0  0
   -0.3380    1.6450    4.7160 F   0  0  0  0  0  0  0  0  0  0  0  0
    0.0860   -0.3430    0.8170 C   0  0  2  0  0  0  0  0  0  0  0  0
    1.4420    0.1180    0.4500 N   0  0  0  0  0  0  0  0  0  0  0  0
    2.5660   -0.7710    0.4800 C   0  0  0  0  0  0  0  0  0  0  0  0
    2.3650   -1.9760    0.8250 O   0  0  0  0  0  0  0  0  0  0  0  0
    3.9230   -0.3870    0.1450 C   0  0  0  0  0  0  0  0  0  0  0  0
    4.3040    0.8290   -0.2240 C   0  0  0  0  0  0  0  0  0  0  0  0
    5.7040    1.1300   -0.5460 C   0  0  0  0  0  0  0  0  0  0  0  0
    6.0700    2.5200   -0.9540 C   0  0  0  0  0  0  0  0  0  0  0  0
    6.6320    0.2070   -0.4840 C   0  0  0  0  0  0  0  0  0  0  0  0
    8.0660    0.4730   -0.8020 C   0  0  0  0  0  0  0  0  0  0  0  0
    6.2860   -1.1210   -0.0940 N   0  0  0  0  0  0  0  0  0  0  0  0
    4.9440   -1.3750    0.2080 N   0  0  0  0  0  0  0  0  0  0  0  0
   -0.7130   -0.6930   -0.3590 C   0  0  2  0  0  0  0  0  0  0  0  0
   -1.2360    0.2760   -1.2380 N   0  0  0  0  0  0  0  0  0  0  0  0
   -1.8650   -0.3500   -2.4270 C   0  0  0  0  0  0  0  0  0  0  0  0
   -2.8260    0.6380   -3.0490 C   0  0  0  0  0  0  0  0  0  0  0  0
   -3.4360    0.1120   -4.1620 O   0  0  0  0  0  0  0  0  0  0  0  0
   -4.1680   -1.0390   -3.9310 C   0  0  0  0  0  0  0  0  0  0  0  0
   -1.7670   -1.7440   -0.0130 C   0  0  0  0  0  0  0  0  0  0  0  0
   -1.4710   -3.0800    0.0360 C   0  0  0  0  0  0  0  0  0  0  0  0
   -2.4210   -4.0210    0.3580 C   0  0  0  0  0  0  0  0  0  0  0  0
   -3.7300   -3.6580    0.6480 C   0  0  0  0  0  0  0  0  0  0  0  0
   -4.7680   -4.6580    0.9990 C   0  0  0  0  0  0  0  0  0  0  0  0
   -3.9920   -2.3060    0.5880 C   0  0  0  0  0  0  0  0  0  0  0  0
   -3.0510   -1.3520    0.2680 C   0  0  0  0  0  0  0  0  0  0  0  0
  1  2  1  0
  2  3  1  0
  3  4  1  0
  4  5  2  3
  5  6  1  0
  6  7  2  3
  6 12  1  0
  7  8  1  0
  8  9  1  6
  8 10  1  0
  8 11  1  0
 12 13  1  6
 12 24  1  0
 13 14  1  0
 14 15  2  0
 14 16  1  0
 16 17  2  0
 16 23  1  0
 17 18  1  0
 18 19  1  0
 18 20  2  0
 20 21  1  0
 20 22  1  0
 22 23  1  0
 24 25  1  1
 24 30  1  0
 25 26  1  0
 26 27  1  0
 27 28  1  0
 28 29  1  0
 30 31  2  0
 30 36  1  0
 31 32  1  0
 32 33  2  0
 33 34  1  0
 33 35  1  0
 35 36  2  0
M  CHG  1  25   1
M  END
