
     RDKit          3D

 36 37  0  0  0  0  0  0  0  0999 V2000
   -5.9710   -2.5640   -0.0200 C   0  0  0  0  0  0  0  0  0  0  0  0
   -5.4440   -1.4310   -0.7380 N   0  0  0  0  0  0  0  0  0  0  0  0
   -4.0930   -1.1580   -0.2960 C   0  0  0  0  0  0  0  0  0  0  0  0
   -3.3040   -2.1080    0.0910 C   0  0  0  0  0  0  0  0  0  0  0  0
   -1.9570   -2.1140    0.5600 C   0  0  0  0  0  0  0  0  0  0  0  0
   -1.4840   -3.3450    0.9210 C   0  0  0  0  0  0  0  0  0  0  0  0
   -0.1330   -3.5590    1.4270 C   0  0  2  0  0  0  0  0  0  0  0  0
    0.1990   -4.9200    1.3530 F   0  0  0  0  0  0  0  0  0  0  0  0
   -0.0590   -3.2210    2.7750 F   0  0  0  0  0  0  0  0  0  0  0  0
   -1.0150   -1.0030    0.7180 C   0  0  0  0  0  0  0  0  0  0  0  0
   -0.5510   -0.3060   -0.4160 N   0  0  0  0  0  0  0  0  0  0  0  0
   -1.2590    0.6270   -1.2120 C   0  0  0  0  0  0  0  0  0  0  0  0
   -1.7200    1.7870   -0.3880 C   0  0  0  0  0  0  0  0  0  0  0  0
   -1.0600    2.1280    0.7550 C   0  0  0  0  0  0  0  0  0  0  0  0
   -1.4780    3.1910    1.5210 C   0  0  0  0  0  0  0  0  0  0  0  0
   -2.6010    3.9140    1.0930 C   0  0  0  0  0  0  0  0  0  0  0  0
   -3.2850    3.5950   -0.0500 C   0  0  0  0  0  0  0  0  0  0  0  0
   -4.4060    4.2790   -0.5130 N   0  0  0  0  0  0  0  0  0  0  0  0
   -5.0130    5.3930    0.0760 C   0  0  0  0  0  0  0  0  0  0  0  0
   -4.5760    5.8960    1.1210 O   0  0  0  0  0  0  0  0  0  0  0  0
   -2.8200    2.5110   -0.7870 C   0  0  0  0  0  0  0  0  0  0  0  0
    0.7850   -0.6440   -0.8810 C   0  0  0  0  0  0  0  0  0  0  0  0
    1.8930    0.1100   -0.6020 C   0  0  0  0  0  0  0  0  0  0  0  0
    3.1560   -0.2660   -1.0650 C   0  0  0  0  0  0  0  0  0  0  0  0
    4.3570    0.5210   -0.7700 C   0  0  1  0  0  0  0  0  0  0  0  0
    4.1630    1.8920   -0.8960 O   0  0  0  0  0  0  0  0  0  0  0  0
    4.9330    0.2510    0.5930 C   0  0  1  0  0  0  0  0  0  0  0  0
    6.1600    1.1270    0.7450 C   0  0  0  0  0  0  0  0  0  0  0  0
    4.0080    0.5770    1.7200 C   0  0  0  0  0  0  0  0  0  0  0  0
    5.3850   -1.1650    0.6960 C   0  0  0  0  0  0  0  0  0  0  0  0
    6.4120   -1.5750   -0.2040 N   0  0  0  0  0  0  0  0  0  0  0  0
    4.8890   -1.9370    1.5220 O   0  0  0  0  0  0  0  0  0  0  0  0
    3.2240   -1.4200   -1.8080 C   0  0  0  0  0  0  0  0  0  0  0  0
    2.0990   -2.1830   -2.0900 C   0  0  0  0  0  0  0  0  0  0  0  0
    0.8680   -1.8040   -1.6300 C   0  0  0  0  0  0  0  0  0  0  0  0
   -0.2600   -2.5440   -1.9030 F   0  0  0  0  0  0  0  0  0  0  0  0
  1  2  1  0
  2  3  1  0
  3  4  2  3
  4  5  1  0
  5  6  2  3
  5 10  1  0
  6  7  1  0
  7  8  1  1
  7  9  1  0
 10 11  1  0
 11 12  1  0
 11 22  1  0
 12 13  1  0
 13 14  2  0
 13 21  1  0
 14 15  1  0
 15 16  2  0
 16 17  1  0
 17 18  1  0
 17 21  2  0
 18 19  1  0
 19 20  2  0
 22 23  2  0
 22 35  1  0
 23 24  1  0
 24 25  1  0
 24 33  2  0
 25 26  1  1
 25 27  1  0
 27 28  1  1
 27 29  1  0
 27 30  1  0
 30 31  1  0
 30 32  2  0
 33 34  1  0
 34 35  2  0
 35 36  1  0
M  CHG  1   2   1
M  END
