
     RDKit          3D

 37 40  0  0  0  0  0  0  0  0999 V2000
    6.2290   -3.2480    2.5600 N   0  0  0  0  0  0  0  0  0  0  0  0
    5.3580   -2.4640    1.7430 C   0  0  0  0  0  0  0  0  0  0  0  0
    5.7370   -2.0630    0.5440 C   0  0  0  0  0  0  0  0  0  0  0  0
    6.9950   -2.4340    0.1300 F   0  0  0  0  0  0  0  0  0  0  0  0
    4.9400   -1.2810   -0.3640 C   0  0  0  0  0  0  0  0  0  0  0  0
    5.4630   -0.9450   -1.5350 C   0  0  0  0  0  0  0  0  0  0  0  0
    4.7310   -0.2130   -2.3980 F   0  0  0  0  0  0  0  0  0  0  0  0
    6.7090   -1.3090   -1.9010 F   0  0  0  0  0  0  0  0  0  0  0  0
    3.5870   -0.8230   -0.0650 C   0  0  0  0  0  0  0  0  0  0  0  0
    2.5680   -1.5370    0.4800 C   0  0  0  0  0  0  0  0  0  0  0  0
    1.4950   -0.6590    0.5650 C   0  0  0  0  0  0  0  0  0  0  0  0
    1.9220    0.5730    0.0560 C   0  0  0  0  0  0  0  0  0  0  0  0
    1.0580    1.7500   -0.0150 C   0  0  0  0  0  0  0  0  0  0  0  0
   -0.1390    1.7650    0.3910 N   0  0  0  0  0  0  0  0  0  0  0  0
   -0.9600    0.8580    0.9570 N   0  0  0  0  0  0  0  0  0  0  0  0
   -2.0040    0.1720    0.2770 C   0  0  0  0  0  0  0  0  0  0  0  0
   -2.2080    0.3930   -0.9180 O   0  0  0  0  0  0  0  0  0  0  0  0
   -2.8220   -0.7940    1.0320 C   0  0  0  0  0  0  0  0  0  0  0  0
   -3.8660   -1.4150    0.1940 N   0  0  0  0  0  0  0  0  0  0  0  0
   -3.5780   -2.6230   -0.4890 C   0  0  0  0  0  0  0  0  0  0  0  0
   -2.3640   -2.8660   -0.7660 O   0  0  0  0  0  0  0  0  0  0  0  0
   -4.5700   -3.6350   -0.9100 C   0  0  0  0  0  0  0  0  0  0  0  0
   -6.0480   -2.7770   -1.5510 S   0  0  0  0  0  0  0  0  0  0  0  0
   -6.1720   -1.2520   -0.6360 C   0  0  0  0  0  0  0  0  0  0  0  0
   -7.4000   -0.6080   -0.7350 C   0  0  0  0  0  0  0  0  0  0  0  0
   -7.5740    0.5700   -0.0550 C   0  0  0  0  0  0  0  0  0  0  0  0
   -6.5440    1.0810    0.6990 C   0  0  0  0  0  0  0  0  0  0  0  0
   -5.3420    0.4480    0.7940 C   0  0  0  0  0  0  0  0  0  0  0  0
   -5.1250   -0.7610    0.1130 C   0  0  0  0  0  0  0  0  0  0  0  0
    1.5680    2.9860   -0.5790 C   0  0  0  0  0  0  0  0  0  0  0  0
    0.7280    4.1100   -0.6550 C   0  0  0  0  0  0  0  0  0  0  0  0
    1.1410    5.3140   -1.1720 C   0  0  0  0  0  0  0  0  0  0  0  0
    2.4200    5.4500   -1.6380 C   0  0  0  0  0  0  0  0  0  0  0  0
    3.2890    4.3720   -1.5860 C   0  0  0  0  0  0  0  0  0  0  0  0
    4.5520    4.5020   -2.0430 F   0  0  0  0  0  0  0  0  0  0  0  0
    2.8430    3.1460   -1.0510 C   0  0  0  0  0  0  0  0  0  0  0  0
    3.1520    0.3720   -0.2830 O   0  0  0  0  0  0  0  0  0  0  0  0
  1  2  1  0
  2  3  2  3
  3  4  1  0
  3  5  1  0
  5  6  2  3
  5  9  1  0
  6  7  1  0
  6  8  1  0
  9 10  2  0
  9 37  1  0
 10 11  1  0
 11 12  2  0
 12 13  1  0
 12 37  1  0
 13 14  2  3
 13 30  1  0
 14 15  1  0
 15 16  1  0
 16 17  2  0
 16 18  1  0
 18 19  1  0
 19 20  1  0
 19 29  1  0
 20 21  2  0
 20 22  1  0
 22 23  1  0
 23 24  1  0
 24 25  2  0
 24 29  1  0
 25 26  1  0
 26 27  2  0
 27 28  1  0
 28 29  2  0
 30 31  2  0
 30 36  1  0
 31 32  1  0
 32 33  2  0
 33 34  1  0
 34 35  1  0
 34 36  2  0
M  CHG  1   1   1
M  END
