
     RDKit          3D

 36 37  0  0  0  0  0  0  0  0999 V2000
    6.1130   -1.8610   -2.7250 C   0  0  0  0  0  0  0  0  0  0  0  0
    6.4100   -0.8050   -1.9760 C   0  0  0  0  0  0  0  0  0  0  0  0
    7.6510   -0.3210   -1.9610 F   0  0  0  0  0  0  0  0  0  0  0  0
    5.3650   -0.1860   -1.1590 C   0  0  0  0  0  0  0  0  0  0  0  0
    5.6100    0.8550   -0.4150 C   0  0  0  0  0  0  0  0  0  0  0  0
    6.9790    1.4470   -0.3760 C   0  0  0  0  0  0  0  0  0  0  0  0
    4.0370   -0.8410   -1.1850 C   0  0  0  0  0  0  0  0  0  0  0  0
    3.1240   -0.2710   -0.2470 N   0  0  0  0  0  0  0  0  0  0  0  0
    3.3130   -0.2900    1.1550 C   0  0  0  0  0  0  0  0  0  0  0  0
    4.3700   -0.8530    1.5990 O   0  0  0  0  0  0  0  0  0  0  0  0
    2.3340    0.3190    2.0630 C   0  0  0  0  0  0  0  0  0  0  0  0
    1.1510    0.8250    1.4020 N   0  0  0  0  0  0  0  0  0  0  0  0
    0.2670   -0.1240    0.7360 C   0  0  0  0  0  0  0  0  0  0  0  0
    0.6600   -1.3090    0.8410 O   0  0  0  0  0  0  0  0  0  0  0  0
   -0.9290    0.3500    0.0450 C   0  0  1  0  0  0  0  0  0  0  0  0
   -2.0060   -0.5080   -0.2150 N   0  0  0  0  0  0  0  0  0  0  0  0
   -2.1190   -1.7980    0.3550 C   0  0  1  0  0  0  0  0  0  0  0  0
   -2.9970   -1.7990    1.6280 C   0  0  0  0  0  0  0  0  0  0  0  0
   -2.8550   -2.7550   -0.5460 C   0  0  0  0  0  0  0  0  0  0  0  0
   -2.4130   -4.0380   -0.7590 C   0  0  0  0  0  0  0  0  0  0  0  0
   -3.1240   -4.9030   -1.6060 C   0  0  0  0  0  0  0  0  0  0  0  0
   -4.2720   -4.4800   -2.2310 C   0  0  0  0  0  0  0  0  0  0  0  0
   -4.7120   -3.1960   -2.0170 C   0  0  0  0  0  0  0  0  0  0  0  0
   -5.9660   -2.7130   -2.6950 C   0  0  0  0  0  0  0  0  0  0  0  0
   -3.9990   -2.3640   -1.1830 C   0  0  0  0  0  0  0  0  0  0  0  0
   -1.3080    1.7230    0.5320 C   0  0  0  0  0  0  0  0  0  0  0  0
   -0.7310    2.8650   -0.0460 C   0  0  0  0  0  0  0  0  0  0  0  0
   -1.1030    4.1270    0.4370 C   0  0  0  0  0  0  0  0  0  0  0  0
   -1.9960    4.2560    1.4340 C   0  0  0  0  0  0  0  0  0  0  0  0
   -2.3970    5.4930    1.9640 N   0  0  0  0  0  0  0  0  0  0  0  0
   -1.9930    6.7740    1.5330 C   0  0  0  0  0  0  0  0  0  0  0  0
   -1.2010    6.9180    0.5900 O   0  0  0  0  0  0  0  0  0  0  0  0
   -2.4570    7.9230    2.1390 F   0  0  0  0  0  0  0  0  0  0  0  0
   -2.5460    3.0960    1.9800 C   0  0  0  0  0  0  0  0  0  0  0  0
   -3.4520    3.2020    2.9870 F   0  0  0  0  0  0  0  0  0  0  0  0
   -2.2150    1.8330    1.5430 C   0  0  0  0  0  0  0  0  0  0  0  0
  1  2  2  0
  2  3  1  0
  2  4  1  0
  4  5  2  3
  4  7  1  0
  5  6  1  0
  7  8  1  0
  8  9  1  0
  9 10  2  0
  9 11  1  0
 11 12  1  0
 12 13  1  0
 13 14  2  0
 13 15  1  0
 15 16  1  1
 15 26  1  0
 16 17  1  0
 17 18  1  1
 17 19  1  0
 19 20  2  0
 19 25  1  0
 20 21  1  0
 21 22  2  0
 22 23  1  0
 23 24  1  0
 23 25  2  0
 26 27  2  0
 26 36  1  0
 27 28  1  0
 28 29  2  0
 29 30  1  0
 29 34  1  0
 30 31  1  0
 31 32  2  0
 31 33  1  0
 34 35  1  0
 34 36  2  0
M  CHG  1  16   1
M  END
