
     RDKit          3D

 12 13  0  0  0  0  0  0  0  0999 V2000
    3.1330   -0.2000   -0.2390 C   0  0  0  0  0  0  0  0  0  0  0  0
    1.6990    0.1820   -0.1290 C   0  0  0  0  0  0  0  0  0  0  0  0
    1.1480    1.4060   -0.0770 N   0  0  0  0  0  0  0  0  0  0  0  0
   -0.1910    1.3480    0.0210 C   0  0  0  0  0  0  0  0  0  0  0  0
   -1.1850    2.2580    0.1030 N   0  0  0  0  0  0  0  0  0  0  0  0
   -2.4860    1.9340    0.1960 C   0  0  0  0  0  0  0  0  0  0  0  0
   -2.8580    0.6420    0.2110 N   0  0  0  0  0  0  0  0  0  0  0  0
   -1.8970   -0.3010    0.1320 C   0  0  0  0  0  0  0  0  0  0  0  0
   -2.2660   -1.6590    0.1460 N   0  0  0  0  0  0  0  0  0  0  0  0
   -0.5570    0.0240    0.0360 C   0  0  0  0  0  0  0  0  0  0  0  0
    0.6180   -0.6940   -0.0580 C   0  0  0  0  0  0  0  0  0  0  0  0
    0.7360   -2.0760   -0.0790 O   0  0  0  0  0  0  0  0  0  0  0  0
  1  2  1  0
  2  3  1  0
  2 11  2  0
  3  4  1  0
  4  5  2  0
  4 10  1  0
  5  6  1  0
  6  7  2  0
  7  8  1  0
  8  9  1  0
  8 10  2  0
 10 11  1  0
 11 12  1  0
M  END
