
     RDKit          3D

 12 13  0  0  0  0  0  0  0  0999 V2000
   -2.0030    1.7660    0.0570 N   0  0  0  0  0  0  0  0  0  0  0  0
   -2.1140    0.3790   -0.0860 C   0  0  0  0  0  0  0  0  0  0  0  0
   -3.1910   -0.3220   -0.2270 N   0  0  0  0  0  0  0  0  0  0  0  0
   -2.8970   -1.7080   -0.3420 C   0  0  0  0  0  0  0  0  0  0  0  0
   -1.6070   -1.8420   -0.2680 N   0  0  0  0  0  0  0  0  0  0  0  0
   -1.0120   -0.5590   -0.1020 C   0  0  0  0  0  0  0  0  0  0  0  0
    0.2890   -0.3170    0.0100 C   0  0  0  0  0  0  0  0  0  0  0  0
    0.8460    0.9800    0.1740 N   0  0  0  0  0  0  0  0  0  0  0  0
    2.2530    0.8580   -0.1670 C   0  0  0  0  0  0  0  0  0  0  0  0
    2.5790   -0.5000    0.4240 C   0  0  0  0  0  0  0  0  0  0  0  0
    1.3800   -1.2850   -0.0100 C   0  0  0  0  0  0  0  0  0  0  0  0
    1.3070   -2.5010   -0.3260 O   0  0  0  0  0  0  0  0  0  0  0  0
  1  2  1  0
  2  3  2  0
  2  6  1  0
  3  4  1  0
  4  5  2  0
  5  6  1  0
  6  7  2  3
  7  8  1  0
  7 11  1  0
  8  9  1  0
  9 10  1  0
 10 11  1  0
 11 12  2  0
M  END
