
     RDKit          3D

 12 13  0  0  0  0  0  0  0  0999 V2000
    3.3940   -0.4860   -0.0090 N   0  0  0  0  0  0  0  0  0  0  0  0
    2.0010   -0.3220    0.1560 C   0  0  0  0  0  0  0  0  0  0  0  0
    1.2410   -1.4170    0.0750 C   0  0  0  0  0  0  0  0  0  0  0  0
   -0.1770   -1.5590    0.1980 N   0  0  0  0  0  0  0  0  0  0  0  0
   -1.1580   -0.5420   -0.0210 C   0  0  0  0  0  0  0  0  0  0  0  0
   -2.4910   -0.7620   -0.3120 C   0  0  0  0  0  0  0  0  0  0  0  0
   -3.1150    0.4200   -0.4540 N   0  0  0  0  0  0  0  0  0  0  0  0
   -2.2460    1.4310   -0.2690 C   0  0  0  0  0  0  0  0  0  0  0  0
   -1.0290    0.8350    0.0000 C   0  0  0  0  0  0  0  0  0  0  0  0
    0.1730    1.5650    0.2600 N   0  0  0  0  0  0  0  0  0  0  0  0
    1.4860    1.0350    0.4060 C   0  0  0  0  0  0  0  0  0  0  0  0
    2.3510    1.8440    0.8110 O   0  0  0  0  0  0  0  0  0  0  0  0
  1  2  1  0
  2  3  2  0
  2 11  1  0
  3  4  1  0
  4  5  1  0
  5  6  2  0
  5  9  1  0
  6  7  1  0
  7  8  1  0
  8  9  2  0
  9 10  1  0
 10 11  1  0
 11 12  2  0
M  END
