
     RDKit          3D

 12 13  0  0  0  0  0  0  0  0999 V2000
   -1.8520   -3.0580   -0.2050 N   0  0  0  0  0  0  0  0  0  0  0  0
   -1.1890   -1.7830   -0.1520 C   0  0  0  0  0  0  0  0  0  0  0  0
   -0.0270   -1.6500    0.3790 N   0  0  0  0  0  0  0  0  0  0  0  0
    0.6890   -0.4290    0.4690 C   0  0  0  0  0  0  0  0  0  0  0  0
    1.9330   -0.2890    1.0390 C   0  0  0  0  0  0  0  0  0  0  0  0
    2.5870    0.8840    1.1090 N   0  0  0  0  0  0  0  0  0  0  0  0
    2.0410    2.0210    0.6100 C   0  0  0  0  0  0  0  0  0  0  0  0
    2.7100    3.2310    0.6790 O   0  0  0  0  0  0  0  0  0  0  0  0
    0.7960    1.9390    0.0270 C   0  0  0  0  0  0  0  0  0  0  0  0
    0.1130    0.7150   -0.0460 C   0  0  0  0  0  0  0  0  0  0  0  0
   -1.1560    0.6170   -0.6370 N   0  0  0  0  0  0  0  0  0  0  0  0
   -1.8840   -0.6270   -0.7280 C   0  0  0  0  0  0  0  0  0  0  0  0
  1  2  1  0
  2  3  2  0
  2 12  1  0
  3  4  1  0
  4  5  2  0
  4 10  1  0
  5  6  1  0
  6  7  2  0
  7  8  1  0
  7  9  1  0
  9 10  2  0
 10 11  1  0
 11 12  1  0
M  END
