
     RDKit          3D

 12 13  0  0  0  0  0  0  0  0999 V2000
    3.0430   -1.8750    0.2280 N   0  0  0  0  0  0  0  0  0  0  0  0
    1.9020   -1.0400    0.1420 C   0  0  0  0  0  0  0  0  0  0  0  0
    2.0270    0.3170    0.1160 N   0  0  0  0  0  0  0  0  0  0  0  0
    0.9200    1.0770    0.0350 C   0  0  0  0  0  0  0  0  0  0  0  0
    0.9580    2.5030    0.0020 N   0  0  0  0  0  0  0  0  0  0  0  0
   -0.3560    0.5090   -0.0240 C   0  0  0  0  0  0  0  0  0  0  0  0
   -0.4400   -0.8520    0.0040 C   0  0  0  0  0  0  0  0  0  0  0  0
    0.7000   -1.6240    0.0880 N   0  0  0  0  0  0  0  0  0  0  0  0
   -1.7590   -1.5070   -0.0550 C   0  0  0  0  0  0  0  0  0  0  0  0
   -2.8030   -0.6170   -0.1360 O   0  0  0  0  0  0  0  0  0  0  0  0
   -2.7450    0.7390   -0.1660 C   0  0  0  0  0  0  0  0  0  0  0  0
   -1.5510    1.3400   -0.1120 C   0  0  0  0  0  0  0  0  0  0  0  0
  1  2  1  0
  2  3  2  0
  2  8  1  0
  3  4  1  0
  4  5  1  0
  4  6  2  0
  6  7  1  0
  6 12  1  0
  7  8  2  0
  7  9  1  0
  9 10  1  0
 10 11  1  0
 11 12  2  0
M  END
