
     RDKit          3D

 11 12  0  0  0  0  0  0  0  0999 V2000
   -3.0780    0.1330    0.0580 N   0  0  0  0  0  0  0  0  0  0  0  0
   -1.8420    0.8140   -0.0440 C   0  0  0  0  0  0  0  0  0  0  0  0
   -0.7330    0.1230    0.0030 C   0  0  0  0  0  0  0  0  0  0  0  0
   -0.7680   -1.3170    0.1580 C   0  0  0  0  0  0  0  0  0  0  0  0
    0.3340   -2.0550    0.2110 C   0  0  0  0  0  0  0  0  0  0  0  0
    1.5750   -1.3990    0.1110 N   0  0  0  0  0  0  0  0  0  0  0  0
    1.7000    0.0000   -0.0420 C   0  0  0  0  0  0  0  0  0  0  0  0
    2.7850    0.8080   -0.1540 N   0  0  0  0  0  0  0  0  0  0  0  0
    2.3340    2.0450   -0.2750 N   0  0  0  0  0  0  0  0  0  0  0  0
    0.9930    2.0810   -0.2470 C   0  0  0  0  0  0  0  0  0  0  0  0
    0.5580    0.7730   -0.0970 C   0  0  0  0  0  0  0  0  0  0  0  0
  1  2  1  0
  2  3  2  3
  3  4  1  0
  3 11  1  0
  4  5  2  0
  5  6  1  0
  6  7  1  0
  7  8  1  0
  7 11  2  0
  8  9  1  0
  9 10  2  0
 10 11  1  0
M  END
