
     RDKit          3D

 11 11  0  0  0  0  0  0  0  0999 V2000
   -2.9910   -1.1410    0.6930 C   0  0  0  0  0  0  0  0  0  0  0  0
   -2.0910   -0.0450    0.2890 C   0  0  0  0  0  0  0  0  0  0  0  0
   -0.8010   -0.2640    0.2370 C   0  0  0  0  0  0  0  0  0  0  0  0
   -0.2620   -1.5730    0.5760 C   0  0  0  0  0  0  0  0  0  0  0  0
    1.0160   -1.7250    0.5060 N   0  0  0  0  0  0  0  0  0  0  0  0
    1.9420   -0.7150    0.1250 C   0  0  0  0  0  0  0  0  0  0  0  0
    3.3440   -1.0270    0.0910 N   0  0  0  0  0  0  0  0  0  0  0  0
    1.5410    0.5050   -0.2000 C   0  0  0  0  0  0  0  0  0  0  0  0
    0.1140    0.7940   -0.1570 C   0  0  0  0  0  0  0  0  0  0  0  0
   -0.3740    1.9500   -0.4540 N   0  0  0  0  0  0  0  0  0  0  0  0
    0.3580    3.0390   -0.8410 N   0  0  0  0  0  0  0  0  0  0  0  0
  1  2  1  0
  2  3  2  3
  3  4  1  0
  3  9  1  0
  4  5  2  0
  5  6  1  0
  6  7  1  0
  6  8  2  0
  8  9  1  0
  9 10  2  3
 10 11  1  0
M  END
