
     RDKit          3D

 12 13  0  0  0  0  0  0  0  0999 V2000
    3.2630   -0.9330   -0.1840 N   0  0  0  0  0  0  0  0  0  0  0  0
    2.0620   -0.1940   -0.2710 C   0  0  0  0  0  0  0  0  0  0  0  0
    2.1520    1.1090   -0.1960 N   0  0  0  0  0  0  0  0  0  0  0  0
    1.1550    2.1200   -0.2490 C   0  0  0  0  0  0  0  0  0  0  0  0
    1.4730    3.2650   -0.6690 O   0  0  0  0  0  0  0  0  0  0  0  0
   -0.2210    1.9560    0.1420 N   0  0  0  0  0  0  0  0  0  0  0  0
   -0.9530    0.7240    0.1730 C   0  0  0  0  0  0  0  0  0  0  0  0
   -2.2330    0.6150    0.4550 C   0  0  0  0  0  0  0  0  0  0  0  0
   -2.6710   -0.8010    0.3970 C   0  0  0  0  0  0  0  0  0  0  0  0
   -1.4380   -1.5190    0.0340 C   0  0  0  0  0  0  0  0  0  0  0  0
   -0.4900   -0.6340   -0.0850 C   0  0  0  0  0  0  0  0  0  0  0  0
    0.8660   -0.9590   -0.4330 N   0  0  0  0  0  0  0  0  0  0  0  0
  1  2  1  0
  2  3  2  0
  2 12  1  0
  3  4  1  0
  4  5  2  0
  4  6  1  0
  6  7  1  0
  7  8  2  0
  7 11  1  0
  8  9  1  0
  9 10  1  0
 10 11  2  0
 11 12  1  0
M  END
