
     RDKit          3D

 12 11  0  0  0  0  0  0  0  0999 V2000
   -1.3960   -2.0130    1.2220 C   0  0  0  0  0  0  0  0  0  0  0  0
   -2.1400   -1.0790    0.7010 C   0  0  0  0  0  0  0  0  0  0  0  0
   -1.7220    0.1970    0.1870 C   0  0  0  0  0  0  0  0  0  0  0  0
   -0.2870    0.6300    0.1860 C   0  0  0  0  0  0  0  0  0  0  0  0
    0.4520   -0.2120   -0.7990 C   0  0  0  0  0  0  0  0  0  0  0  0
    1.9230    0.1180   -0.8820 C   0  0  0  0  0  0  0  0  0  0  0  0
    2.6210   -0.0750    0.4430 C   0  0  0  0  0  0  0  0  0  0  0  0
    4.0920    0.2620    0.3380 C   0  0  0  0  0  0  0  0  0  0  0  0
    4.7210   -0.5610   -0.6080 O   0  0  0  0  0  0  0  0  0  0  0  0
   -2.6600    1.0230   -0.2940 C   0  0  0  0  0  0  0  0  0  0  0  0
   -4.0870    0.6190   -0.2900 C   0  0  0  0  0  0  0  0  0  0  0  0
   -2.3130    2.2670   -0.8030 O   0  0  0  0  0  0  0  0  0  0  0  0
  1  2  2  0
  2  3  1  0
  3  4  1  0
  3 10  2  3
  4  5  1  0
  5  6  1  0
  6  7  1  0
  7  8  1  0
  8  9  1  0
 10 11  1  0
 10 12  1  0
M  END
