
     RDKit          3D

 13 13  0  0  0  0  0  0  0  0999 V2000
    1.7410   -2.5490   -0.7140 C   0  0  0  0  0  0  0  0  0  0  0  0
    2.2320   -1.3800   -1.0650 C   0  0  0  0  0  0  0  0  0  0  0  0
    3.3480   -1.3540   -1.8780 O   0  0  0  0  0  0  0  0  0  0  0  0
    1.6120   -0.1570   -0.6070 C   0  0  0  0  0  0  0  0  0  0  0  0
    2.0690    1.0380   -0.9330 C   0  0  0  0  0  0  0  0  0  0  0  0
    3.2570    1.2180   -1.7970 C   0  0  0  0  0  0  0  0  0  0  0  0
    0.4880   -0.2610    0.2120 O   0  0  0  0  0  0  0  0  0  0  0  0
   -0.8160    0.0830   -0.2330 C   0  0  0  0  0  0  0  0  0  0  0  0
   -1.7490   -0.1670    0.9360 C   0  0  1  0  0  0  0  0  0  0  0  0
   -1.4470    0.7800    2.0800 C   0  0  0  0  0  0  0  0  0  0  0  0
   -2.7420    0.6670    2.8740 C   0  0  0  0  0  0  0  0  0  0  0  0
   -3.7380    0.3820    1.7890 C   0  0  0  0  0  0  0  0  0  0  0  0
   -3.0630    0.1330    0.6270 O   0  0  0  0  0  0  0  0  0  0  0  0
  1  2  2  0
  2  3  1  0
  2  4  1  0
  4  5  2  3
  4  7  1  0
  5  6  1  0
  7  8  1  0
  9  8  1  6
  9 10  1  0
  9 13  1  0
 10 11  1  0
 11 12  1  0
 12 13  1  0
M  END
