
     RDKit          3D

 13 14  0  0  0  0  0  0  0  0999 V2000
    0.3310   -0.5630   -0.6870 O   0  0  0  0  0  0  0  0  0  0  0  0
    0.4070    0.1760    0.3040 C   0  0  0  0  0  0  0  0  0  0  0  0
    1.6910    0.5930    0.9080 C   0  0  0  0  0  0  0  0  0  0  0  0
    2.9050    0.0720    0.2330 C   0  0  2  0  0  0  0  0  0  0  0  0
    4.1050    0.5050    0.8630 O   0  0  0  0  0  0  0  0  0  0  0  0
    2.8880    0.2220   -1.2960 C   0  0  0  0  0  0  0  0  0  0  0  0
    2.9850   -1.1100   -0.6150 C   0  0  0  0  0  0  0  0  0  0  0  0
   -0.8100    0.6010    0.8280 O   0  0  0  0  0  0  0  0  0  0  0  0
   -2.0490    0.2650    0.3330 C   0  0  0  0  0  0  0  0  0  0  0  0
   -3.1580    0.7240    0.9060 C   0  0  0  0  0  0  0  0  0  0  0  0
   -4.2990    0.2060    0.1740 C   0  0  0  0  0  0  0  0  0  0  0  0
   -3.7280   -0.6170   -0.9060 C   0  0  0  0  0  0  0  0  0  0  0  0
   -2.4230   -0.5700   -0.7970 C   0  0  0  0  0  0  0  0  0  0  0  0
  1  2  2  0
  2  3  1  0
  2  8  1  0
  3  4  1  0
  4  5  1  1
  4  6  1  0
  4  7  1  0
  6  7  1  0
  8  9  1  0
  9 10  2  0
  9 13  1  0
 10 11  1  0
 11 12  1  0
 12 13  2  0
M  END
