
     RDKit          3D

 13 13  0  0  0  0  0  0  0  0999 V2000
    0.7750   -0.4350    0.7200 O   0  0  0  0  0  0  0  0  0  0  0  0
    0.8640   -0.1300   -0.4950 C   0  0  0  0  0  0  0  0  0  0  0  0
   -0.0280   -0.6320   -1.5570 C   0  0  0  0  0  0  0  0  0  0  0  0
   -1.1300   -1.5170   -1.0410 C   0  0  0  0  0  0  0  0  0  0  0  0
   -2.0270   -0.7810   -0.1010 C   0  0  0  0  0  0  0  0  0  0  0  0
   -1.9010    0.4920    0.2300 C   0  0  0  0  0  0  0  0  0  0  0  0
   -2.9800    0.8700    1.1920 C   0  0  0  0  0  0  0  0  0  0  0  0
   -3.7320   -0.3760    1.3550 C   0  0  0  0  0  0  0  0  0  0  0  0
   -3.1830   -1.3160    0.6140 C   0  0  0  0  0  0  0  0  0  0  0  0
    1.8750    0.7400   -0.8580 O   0  0  0  0  0  0  0  0  0  0  0  0
    2.7910    1.2920    0.0410 C   0  0  0  0  0  0  0  0  0  0  0  0
    3.6120    0.2480    0.7630 C   0  0  0  0  0  0  0  0  0  0  0  0
    4.4760    0.9390    1.6210 O   0  0  0  0  0  0  0  0  0  0  0  0
  1  2  2  0
  2  3  1  0
  2 10  1  0
  3  4  1  0
  4  5  1  0
  5  6  2  0
  5  9  1  0
  6  7  1  0
  7  8  1  0
  8  9  2  0
 10 11  1  0
 11 12  1  0
 12 13  1  0
M  END
