
     RDKit          3D

 31 31  0  0  0  0  0  0  0  0999 V2000
   -7.5070    1.4180    3.0400 O   0  0  0  0  0  0  0  0  0  0  0  0
   -7.8430    0.9930    1.9130 C   0  0  0  0  0  0  0  0  0  0  0  0
   -6.7810    0.6300    1.0000 N   0  0  0  0  0  0  0  0  0  0  0  0
   -5.4520    0.7470    1.3510 C   0  0  0  0  0  0  0  0  0  0  0  0
   -4.3740    0.4880    0.6830 C   0  0  0  0  0  0  0  0  0  0  0  0
   -3.0190    0.6890    1.3040 C   0  0  0  0  0  0  0  0  0  0  0  0
   -2.9360    1.1760    2.5930 O   0  0  0  0  0  0  0  0  0  0  0  0
   -1.9820    0.3780    0.5550 C   0  0  0  0  0  0  0  0  0  0  0  0
   -2.0450   -0.1360   -0.7740 N   0  0  0  0  0  0  0  0  0  0  0  0
   -1.0860    0.0630   -1.7740 C   0  0  0  0  0  0  0  0  0  0  0  0
   -1.2900   -0.4610   -2.9270 O   0  0  0  0  0  0  0  0  0  0  0  0
    0.1570    0.8260   -1.6370 C   0  0  0  0  0  0  0  0  0  0  0  0
    1.3530   -0.0090   -1.4730 C   0  0  0  0  0  0  0  0  0  0  0  0
    2.9500    0.7980   -1.4730 S   0  0  0  0  0  0  0  0  0  0  0  0
    4.3020   -0.3360   -1.4010 C   0  0  0  0  0  0  0  0  0  0  0  0
    5.2080   -0.1550   -0.4990 N   0  0  0  0  0  0  0  0  0  0  0  0
    6.3040   -1.0100   -0.3810 N   0  0  0  0  0  0  0  0  0  0  0  0
    7.3990   -0.6300    0.2090 C   0  0  0  0  0  0  0  0  0  0  0  0
    8.4730   -1.5230    0.3040 O   0  0  0  0  0  0  0  0  0  0  0  0
    8.5370   -2.4930   -0.6460 F   0  0  0  0  0  0  0  0  0  0  0  0
    7.4580    0.7140    0.7470 C   0  0  0  0  0  0  0  0  0  0  0  0
    6.4840    1.4880    0.6440 O   0  0  0  0  0  0  0  0  0  0  0  0
    8.6830    1.1820    1.4270 C   0  0  0  0  0  0  0  0  0  0  0  0
    8.5480    2.4930    1.8730 F   0  0  0  0  0  0  0  0  0  0  0  0
    1.2750   -1.3080   -1.3400 C   0  0  0  0  0  0  0  0  0  0  0  0
    0.0590   -1.9620   -1.3480 O   0  0  0  0  0  0  0  0  0  0  0  0
    2.4480   -2.0870   -1.1840 O   0  0  0  0  0  0  0  0  0  0  0  0
   -3.2560   -0.9480   -1.0800 C   0  0  0  0  0  0  0  0  0  0  0  0
   -4.3820   -0.0110   -0.6840 C   0  0  0  0  0  0  0  0  0  0  0  0
   -5.2460    0.4240   -1.5590 C   0  0  0  0  0  0  0  0  0  0  0  0
   -5.1340   -0.1610   -2.8470 O   0  0  0  0  0  0  0  0  0  0  0  0
  1  2  2  0
  2  3  1  0
  3  4  1  0
  4  5  2  3
  5  6  1  0
  5 29  1  0
  6  7  1  0
  6  8  2  0
  8  9  1  0
  9 10  1  0
  9 28  1  0
 10 11  2  0
 10 12  1  0
 12 13  1  0
 13 14  1  0
 13 25  2  3
 14 15  1  0
 15 16  2  3
 16 17  1  0
 17 18  2  3
 18 19  1  0
 18 21  1  0
 19 20  1  0
 21 22  2  0
 21 23  1  0
 23 24  1  0
 25 26  1  0
 25 27  1  0
 28 29  1  0
 29 30  2  3
 30 31  1  0
M  END
