
     RDKit          3D

 32 35  0  0  0  0  0  0  0  0999 V2000
   -5.6280    3.1700   -0.7400 C   0  0  0  0  0  0  0  0  0  0  0  0
   -6.5850    2.2060   -0.0720 C   0  0  0  0  0  0  0  0  0  0  0  0
   -7.0360    1.1750   -0.9340 N   0  0  0  0  0  0  0  0  0  0  0  0
   -6.0860    0.2030   -1.3510 C   0  0  0  0  0  0  0  0  0  0  0  0
   -5.6850   -0.6710   -0.1600 C   0  0  0  0  0  0  0  0  0  0  0  0
   -4.7130   -1.7380   -0.5980 C   0  0  0  0  0  0  0  0  0  0  0  0
   -3.4560   -1.2160   -1.1370 C   0  0  0  0  0  0  0  0  0  0  0  0
   -3.4410   -0.8960   -2.4860 N   0  0  0  0  0  0  0  0  0  0  0  0
   -2.2880   -0.4100   -2.7680 N   0  0  0  0  0  0  0  0  0  0  0  0
   -1.5110   -0.3900   -1.6400 C   0  0  0  0  0  0  0  0  0  0  0  0
   -2.2170   -0.8950   -0.5940 C   0  0  0  0  0  0  0  0  0  0  0  0
   -1.8760   -0.9890    0.8190 C   0  0  0  0  0  0  0  0  0  0  0  0
   -2.8190   -1.2660    1.8200 C   0  0  0  0  0  0  0  0  0  0  0  0
   -2.1590   -1.3690    2.9650 N   0  0  0  0  0  0  0  0  0  0  0  0
   -0.8600   -1.1800    2.7690 C   0  0  0  0  0  0  0  0  0  0  0  0
    0.1150   -1.2730    3.9000 C   0  0  0  0  0  0  0  0  0  0  0  0
   -0.6770   -0.9500    1.4570 N   0  0  0  0  0  0  0  0  0  0  0  0
    0.6090   -0.7510    0.8310 C   0  0  0  0  0  0  0  0  0  0  0  0
    0.7500   -0.7320   -0.4100 O   0  0  0  0  0  0  0  0  0  0  0  0
    1.8320   -0.5550    1.5170 N   0  0  0  0  0  0  0  0  0  0  0  0
    3.1140   -0.3830    0.8560 C   0  0  0  0  0  0  0  0  0  0  0  0
    3.3770   -0.7450   -0.4290 C   0  0  0  0  0  0  0  0  0  0  0  0
    4.6730   -0.4800   -0.9250 C   0  0  0  0  0  0  0  0  0  0  0  0
    5.6440    0.1120   -0.1750 C   0  0  0  0  0  0  0  0  0  0  0  0
    6.9860    0.3820   -0.6760 C   0  0  0  0  0  0  0  0  0  0  0  0
    7.3620    0.1010   -1.9510 C   0  0  0  0  0  0  0  0  0  0  0  0
    8.6470    0.3710   -2.3770 C   0  0  0  0  0  0  0  0  0  0  0  0
    9.5500    0.9290   -1.5010 C   0  0  0  0  0  0  0  0  0  0  0  0
    9.2110    1.2270   -0.2100 C   0  0  0  0  0  0  0  0  0  0  0  0
    7.9320    0.9490    0.1830 C   0  0  0  0  0  0  0  0  0  0  0  0
    5.3290    0.4530    1.1050 N   0  0  0  0  0  0  0  0  0  0  0  0
    4.1190    0.2200    1.6060 C   0  0  0  0  0  0  0  0  0  0  0  0
  1  2  1  0
  2  3  1  0
  3  4  1  0
  4  5  1  0
  5  6  1  0
  6  7  1  0
  7  8  1  0
  7 11  2  0
  8  9  1  0
  9 10  2  0
 10 11  1  0
 11 12  1  0
 12 13  2  0
 12 17  1  0
 13 14  1  0
 14 15  2  0
 15 16  1  0
 15 17  1  0
 17 18  1  0
 18 19  2  0
 18 20  1  0
 20 21  1  0
 21 22  2  0
 21 32  1  0
 22 23  1  0
 23 24  2  0
 24 25  1  0
 24 31  1  0
 25 26  2  0
 25 30  1  0
 26 27  1  0
 27 28  2  0
 28 29  1  0
 29 30  2  0
 31 32  2  0
M  END
