
     RDKit          3D

 32 35  0  0  0  0  0  0  0  0999 V2000
   -3.3500    3.0700    1.1060 C   0  0  0  0  0  0  0  0  0  0  0  0
   -4.6450    2.5210    0.5220 C   0  0  0  0  0  0  0  0  0  0  0  0
   -4.5950    1.1240    0.3840 N   0  0  0  0  0  0  0  0  0  0  0  0
   -3.6890    0.5870   -0.6080 C   0  0  0  0  0  0  0  0  0  0  0  0
   -3.7380   -0.9090   -0.5380 C   0  0  0  0  0  0  0  0  0  0  0  0
   -4.9110   -1.6380   -0.4190 C   0  0  0  0  0  0  0  0  0  0  0  0
   -4.5530   -2.9530   -0.3330 C   0  0  0  0  0  0  0  0  0  0  0  0
   -5.5050   -4.0770   -0.1860 C   0  0  0  0  0  0  0  0  0  0  0  0
   -3.2240   -2.9760   -0.4040 N   0  0  0  0  0  0  0  0  0  0  0  0
   -2.7210   -1.7220   -0.5290 N   0  0  0  0  0  0  0  0  0  0  0  0
   -1.2610   -1.5400   -0.6560 C   0  0  0  0  0  0  0  0  0  0  0  0
   -0.6640   -1.2310    0.6580 C   0  0  0  0  0  0  0  0  0  0  0  0
   -0.9300   -2.1340    1.6820 C   0  0  0  0  0  0  0  0  0  0  0  0
   -0.5200   -1.8310    2.9820 C   0  0  0  0  0  0  0  0  0  0  0  0
    0.1400   -0.6300    3.1920 C   0  0  0  0  0  0  0  0  0  0  0  0
    0.3980    0.2520    2.1750 C   0  0  0  0  0  0  0  0  0  0  0  0
    0.0000   -0.0300    0.8740 C   0  0  0  0  0  0  0  0  0  0  0  0
    0.3160    0.9010   -0.0750 O   0  0  0  0  0  0  0  0  0  0  0  0
    1.0350    0.8170   -1.2310 C   0  0  0  0  0  0  0  0  0  0  0  0
    0.4350    1.2510   -2.4430 C   0  0  0  0  0  0  0  0  0  0  0  0
    1.1260    1.1770   -3.6140 C   0  0  0  0  0  0  0  0  0  0  0  0
    2.4100    0.6820   -3.6130 C   0  0  0  0  0  0  0  0  0  0  0  0
    3.0040    0.2590   -2.4550 C   0  0  0  0  0  0  0  0  0  0  0  0
    2.3140    0.3210   -1.2220 C   0  0  0  0  0  0  0  0  0  0  0  0
    3.0380   -0.1910   -0.0650 C   0  0  0  0  0  0  0  0  0  0  0  0
    2.7060   -1.1870    0.7200 N   0  0  0  0  0  0  0  0  0  0  0  0
    3.6440   -1.3490    1.6250 N   0  0  0  0  0  0  0  0  0  0  0  0
    4.5920   -0.4570    1.4330 N   0  0  0  0  0  0  0  0  0  0  0  0
    4.2600    0.3050    0.3730 C   0  0  0  0  0  0  0  0  0  0  0  0
    4.9830    1.3960   -0.1880 N   0  0  0  0  0  0  0  0  0  0  0  0
    6.2430    1.8420    0.3050 C   0  0  0  0  0  0  0  0  0  0  0  0
    7.3540    0.8500    0.1090 C   0  0  0  0  0  0  0  0  0  0  0  0
  1  2  1  0
  2  3  1  0
  3  4  1  0
  4  5  1  0
  5  6  2  0
  5 10  1  0
  6  7  1  0
  7  8  1  0
  7  9  2  0
  9 10  1  0
 10 11  1  0
 11 12  1  0
 12 13  2  0
 12 17  1  0
 13 14  1  0
 14 15  2  0
 15 16  1  0
 16 17  2  0
 17 18  1  0
 18 19  1  0
 19 20  2  0
 19 24  1  0
 20 21  1  0
 21 22  2  0
 22 23  1  0
 23 24  2  0
 24 25  1  0
 25 26  1  0
 25 29  2  0
 26 27  2  0
 27 28  1  0
 28 29  1  0
 29 30  1  0
 30 31  1  0
 31 32  1  0
M  END
