
     RDKit          3D

 32 32  0  0  0  0  0  0  0  0999 V2000
   -0.5320   -3.0180   -2.4330 C   0  0  0  0  0  0  0  0  0  0  0  0
   -0.8250   -1.8820   -1.9310 N   0  0  0  0  0  0  0  0  0  0  0  0
   -0.2670   -1.5220   -0.6560 C   0  0  1  0  0  0  0  0  0  0  0  0
   -0.7050   -2.5620    0.3790 C   0  0  0  0  0  0  0  0  0  0  0  0
   -1.4550   -3.4770   -0.0190 N   0  0  0  0  0  0  0  0  0  0  0  0
   -2.0410   -4.5690    0.6130 C   0  0  0  0  0  0  0  0  0  0  0  0
   -0.2800   -2.4660    1.6640 O   0  0  0  0  0  0  0  0  0  0  0  0
   -0.9910   -2.7890    2.8080 C   0  0  0  0  0  0  0  0  0  0  0  0
    1.5290   -1.4640   -0.6980 S   0  0  0  0  0  0  0  0  0  0  0  0
    2.1140    0.2610   -0.8440 C   0  0  1  0  0  0  0  0  0  0  0  0
    3.5010    0.3050   -0.3400 C   0  0  0  0  0  0  0  0  0  0  0  0
    3.8720    1.1830    0.5580 C   0  0  0  0  0  0  0  0  0  0  0  0
    4.5250   -0.6430   -0.8530 C   0  0  0  0  0  0  0  0  0  0  0  0
    2.2180    0.5670   -2.3210 C   0  0  0  0  0  0  0  0  0  0  0  0
    2.9680   -0.1680   -3.0030 O   0  0  0  0  0  0  0  0  0  0  0  0
    1.5460    1.5880   -2.9270 O   0  0  0  0  0  0  0  0  0  0  0  0
    1.2270    1.1390   -0.3160 O   0  0  0  0  0  0  0  0  0  0  0  0
    0.2060    0.6240    0.4590 C   0  0  1  0  0  0  0  0  0  0  0  0
    0.8570   -0.1990    1.3900 F   0  0  0  0  0  0  0  0  0  0  0  0
   -0.4390    1.6360    1.2400 N   0  0  0  0  0  0  0  0  0  0  0  0
   -1.2570    1.1550    2.3240 C   0  0  0  0  0  0  0  0  0  0  0  0
    0.3040    2.7540    1.6550 C   0  0  2  0  0  0  0  0  0  0  0  0
    0.9330    3.5270    0.6220 N   0  0  0  0  0  0  0  0  0  0  0  0
    1.1930    2.4620    2.6820 O   0  0  0  0  0  0  0  0  0  0  0  0
   -0.6410    3.6550    2.2400 O   0  0  0  0  0  0  0  0  0  0  0  0
   -0.8140   -0.2010   -0.2160 C   0  0  2  0  0  0  0  0  0  0  0  0
   -1.8420   -0.4570    0.7020 F   0  0  0  0  0  0  0  0  0  0  0  0
   -1.4900    0.4420   -1.3950 C   0  0  1  0  0  0  0  0  0  0  0  0
   -2.5640   -0.4880   -1.7930 N   0  0  0  0  0  0  0  0  0  0  0  0
   -2.1420    1.7420   -1.0820 C   0  0  0  0  0  0  0  0  0  0  0  0
   -2.7730    2.2800   -2.3180 C   0  0  0  0  0  0  0  0  0  0  0  0
   -3.8590    1.8850   -2.7280 O   0  0  0  0  0  0  0  0  0  0  0  0
  1  2  2  0
  3  2  1  6
  3  4  1  0
  3  9  1  0
  3 26  1  0
  4  5  2  3
  4  7  1  0
  5  6  1  0
  7  8  1  0
  9 10  1  0
 10 11  1  1
 10 14  1  0
 10 17  1  0
 11 12  2  0
 11 13  1  0
 14 15  2  0
 14 16  1  0
 17 18  1  0
 18 19  1  1
 18 20  1  0
 18 26  1  0
 20 21  1  0
 20 22  1  0
 22 23  1  6
 22 24  1  0
 22 25  1  0
 26 27  1  1
 26 28  1  0
 28 29  1  1
 28 30  1  0
 30 31  1  0
 31 32  2  0
M  END
