
     RDKit          3D

 32 35  0  0  0  0  0  0  0  0999 V2000
   -7.7250    1.5850   -1.2740 C   0  0  0  0  0  0  0  0  0  0  0  0
   -6.3960    0.8640   -1.4930 C   0  0  0  0  0  0  0  0  0  0  0  0
   -5.3680    1.5340   -0.6150 C   0  0  0  0  0  0  0  0  0  0  0  0
   -4.0070    0.8960   -0.7550 C   0  0  1  0  0  0  0  0  0  0  0  0
   -3.5980    1.0150   -2.1950 C   0  0  0  0  0  0  0  0  0  0  0  0
   -3.0700    1.7150    0.1260 C   0  0  0  0  0  0  0  0  0  0  0  0
   -4.0460   -0.4480   -0.2030 C   0  0  0  0  0  0  0  0  0  0  0  0
   -5.1250   -1.0120    0.3610 N   0  0  0  0  0  0  0  0  0  0  0  0
   -4.8490   -2.2160    0.7710 N   0  0  0  0  0  0  0  0  0  0  0  0
   -3.5850   -2.5150    0.5050 C   0  0  0  0  0  0  0  0  0  0  0  0
   -3.0520   -1.4050   -0.1150 C   0  0  0  0  0  0  0  0  0  0  0  0
   -1.6580   -1.4440   -0.5310 C   0  0  0  0  0  0  0  0  0  0  0  0
   -0.8720   -1.9960    0.5560 N   0  0  0  0  0  0  0  0  0  0  0  0
    0.3430   -1.4060    0.9170 C   0  0  0  0  0  0  0  0  0  0  0  0
    1.0960   -1.9400    1.9630 C   0  0  0  0  0  0  0  0  0  0  0  0
    2.2880   -1.3400    2.2980 C   0  0  0  0  0  0  0  0  0  0  0  0
    2.6960   -0.2150    1.5720 C   0  0  0  0  0  0  0  0  0  0  0  0
    1.9420    0.3000    0.5430 C   0  0  0  0  0  0  0  0  0  0  0  0
    2.3590    1.4400   -0.2010 N   0  0  0  0  0  0  0  0  0  0  0  0
    3.6010    2.1300    0.0260 C   0  0  0  0  0  0  0  0  0  0  0  0
    4.7790    1.2540   -0.2910 C   0  0  0  0  0  0  0  0  0  0  0  0
    4.5420    0.1020   -0.7000 O   0  0  0  0  0  0  0  0  0  0  0  0
    6.1010    1.7000   -0.1380 N   0  0  0  0  0  0  0  0  0  0  0  0
    7.2830    0.9930   -0.3920 C   0  0  0  0  0  0  0  0  0  0  0  0
    8.4960    1.6660   -0.3040 C   0  0  0  0  0  0  0  0  0  0  0  0
    9.7120    1.0320   -0.5340 C   0  0  0  0  0  0  0  0  0  0  0  0
    9.7140   -0.3010   -0.8600 C   0  0  0  0  0  0  0  0  0  0  0  0
    8.5560   -0.9530   -0.9470 N   0  0  0  0  0  0  0  0  0  0  0  0
    7.3510   -0.3330   -0.7200 C   0  0  0  0  0  0  0  0  0  0  0  0
    0.7790   -0.3250    0.2530 N   0  0  0  0  0  0  0  0  0  0  0  0
   -1.3530   -3.1650    1.2710 C   0  0  0  0  0  0  0  0  0  0  0  0
   -2.6540   -3.6790    0.6980 C   0  0  0  0  0  0  0  0  0  0  0  0
  1  2  1  0
  2  3  1  0
  3  4  1  0
  4  5  1  6
  4  6  1  0
  4  7  1  0
  7  8  2  0
  7 11  1  0
  8  9  1  0
  9 10  1  0
 10 11  2  0
 10 32  1  0
 11 12  1  0
 12 13  1  0
 13 14  1  0
 13 31  1  0
 14 15  2  0
 14 30  1  0
 15 16  1  0
 16 17  2  0
 17 18  1  0
 18 19  1  0
 18 30  2  0
 19 20  1  0
 20 21  1  0
 21 22  2  0
 21 23  1  0
 23 24  1  0
 24 25  2  0
 24 29  1  0
 25 26  1  0
 26 27  2  0
 27 28  1  0
 28 29  2  0
 31 32  1  0
M  END
