
     RDKit          3D

 33 36  0  0  0  0  0  0  0  0999 V2000
   -8.2210   -1.1010   -0.6270 N   0  0  0  0  0  0  0  0  0  0  0  0
   -6.8140   -0.8610   -0.5830 C   0  0  1  0  0  0  0  0  0  0  0  0
   -6.4430    0.4250    0.0960 C   0  0  0  0  0  0  0  0  0  0  0  0
   -4.8890    0.5220   -0.0200 C   0  0  0  0  0  0  0  0  0  0  0  0
   -4.3630   -0.3890    1.0150 C   0  0  2  0  0  0  0  0  0  0  0  0
   -2.9810   -0.9070    0.9230 C   0  0  0  0  0  0  0  0  0  0  0  0
   -1.9010    0.0160    0.9420 N   0  0  0  0  0  0  0  0  0  0  0  0
   -1.5800    0.9970   -0.0000 C   0  0  0  0  0  0  0  0  0  0  0  0
   -2.2760    1.1330   -1.0240 O   0  0  0  0  0  0  0  0  0  0  0  0
   -0.4130    1.9180    0.1600 C   0  0  2  0  0  0  0  0  0  0  0  0
   -0.3690    2.8240   -1.0010 C   0  0  0  0  0  0  0  0  0  0  0  0
    0.1650    2.4220   -2.1390 C   0  0  0  0  0  0  0  0  0  0  0  0
    0.7140    1.0150   -2.1750 C   0  0  0  0  0  0  0  0  0  0  0  0
    1.3490    0.7350   -0.8810 N   0  0  0  0  0  0  0  0  0  0  0  0
    2.4750    0.0700   -0.5260 C   0  0  0  0  0  0  0  0  0  0  0  0
    3.2410   -0.4880   -1.3620 O   0  0  0  0  0  0  0  0  0  0  0  0
    2.6320    0.1000    0.8020 N   0  0  0  0  0  0  0  0  0  0  0  0
    3.7100   -0.4640    1.5860 C   0  0  0  0  0  0  0  0  0  0  0  0
    4.7790    0.5250    1.9070 C   0  0  0  0  0  0  0  0  0  0  0  0
    5.6930    1.2260    0.6080 S   0  0  1  0  0  0  0  0  0  0  0  0
    4.8540    2.0740   -0.3140 O   0  0  0  0  0  0  0  0  0  0  0  0
    6.7000    2.1950    1.2210 O   0  0  0  0  0  0  0  0  0  0  0  0
    6.6290    0.1010   -0.3290 C   0  0  0  0  0  0  0  0  0  0  0  0
    6.4260   -0.2300   -1.6300 C   0  0  0  0  0  0  0  0  0  0  0  0
    7.2080   -1.1660   -2.3190 C   0  0  0  0  0  0  0  0  0  0  0  0
    8.2270   -1.7740   -1.6380 C   0  0  0  0  0  0  0  0  0  0  0  0
    8.4530   -1.4580   -0.3240 C   0  0  0  0  0  0  0  0  0  0  0  0
    7.6770   -0.5400    0.3310 C   0  0  0  0  0  0  0  0  0  0  0  0
    1.5710    0.8040    1.2880 C   0  0  0  0  0  0  0  0  0  0  0  0
    1.4180    1.0150    2.5140 O   0  0  0  0  0  0  0  0  0  0  0  0
    0.8150    1.1730    0.2430 N   0  0  0  0  0  0  0  0  0  0  0  0
   -5.3310   -1.5330    1.3160 C   0  0  0  0  0  0  0  0  0  0  0  0
   -6.0390   -1.9880    0.0620 C   0  0  0  0  0  0  0  0  0  0  0  0
  2  1  1  1
  2  3  1  0
  2 33  1  0
  3  4  1  0
  4  5  1  0
  5  6  1  6
  5 32  1  0
  6  7  1  0
  7  8  1  0
  8  9  2  0
 10  8  1  6
 10 11  1  0
 10 31  1  0
 11 12  2  0
 12 13  1  0
 13 14  1  0
 14 15  1  0
 14 31  1  0
 15 16  2  0
 15 17  1  0
 17 18  1  0
 17 29  1  0
 18 19  1  0
 20 19  1  1
 20 21  2  0
 20 22  2  0
 20 23  1  0
 23 24  2  0
 23 28  1  0
 24 25  1  0
 25 26  2  0
 26 27  1  0
 27 28  2  0
 29 30  2  0
 29 31  1  0
 32 33  1  0
M  CHG  1   1   1
M  END
