
     RDKit          3D

 32 34  0  0  0  0  0  0  0  0999 V2000
    7.6010   -0.1810    0.7750 C   0  0  0  0  0  0  0  0  0  0  0  0
    6.1230   -0.1520    0.8600 C   0  0  0  0  0  0  0  0  0  0  0  0
    5.4120   -0.9510   -0.2470 C   0  0  0  0  0  0  0  0  0  0  0  0
    4.0200   -0.7420   -0.0630 N   0  0  0  0  0  0  0  0  0  0  0  0
    3.1040   -1.2460   -1.0190 C   0  0  1  0  0  0  0  0  0  0  0  0
    3.5370   -1.4760   -2.3090 F   0  0  0  0  0  0  0  0  0  0  0  0
    2.0180   -2.1140   -0.5890 C   0  0  0  0  0  0  0  0  0  0  0  0
    1.5560   -3.3370   -0.2090 F   0  0  0  0  0  0  0  0  0  0  0  0
    1.6710   -0.8020   -0.8030 C   0  0  0  0  0  0  0  0  0  0  0  0
    0.7420    0.2190   -0.8230 O   0  0  0  0  0  0  0  0  0  0  0  0
   -0.2360    0.5090    0.5610 S   0  0  1  0  0  0  0  0  0  0  0  0
    0.4900   -0.1250    1.7180 O   0  0  0  0  0  0  0  0  0  0  0  0
   -0.5840    1.9880    0.7850 N   0  0  0  0  0  0  0  0  0  0  0  0
   -1.7470    2.7880    0.6290 C   0  0  0  0  0  0  0  0  0  0  0  0
   -1.5590    4.1980    0.3190 C   0  0  0  0  0  0  0  0  0  0  0  0
   -0.3660    4.8070    0.1580 C   0  0  0  0  0  0  0  0  0  0  0  0
   -0.6230    6.2550   -0.1480 C   0  0  0  0  0  0  0  0  0  0  0  0
   -1.9310    6.1710   -0.6580 O   0  0  0  0  0  0  0  0  0  0  0  0
   -2.5000    5.2090    0.1120 O   0  0  0  0  0  0  0  0  0  0  0  0
   -3.0070    2.3810    0.7630 C   0  0  0  0  0  0  0  0  0  0  0  0
   -3.9020    3.4470    0.5330 O   0  0  0  0  0  0  0  0  0  0  0  0
   -4.3590    3.5340   -0.7260 O   0  0  0  0  0  0  0  0  0  0  0  0
   -3.6010    1.0800    1.0970 C   0  0  0  0  0  0  0  0  0  0  0  0
   -2.9980    0.0400    0.3700 O   0  0  0  0  0  0  0  0  0  0  0  0
   -1.7120   -0.4410    0.3300 C   0  0  0  0  0  0  0  0  0  0  0  0
   -1.4820   -1.6860    0.1090 N   0  0  0  0  0  0  0  0  0  0  0  0
   -2.4310   -2.7200   -0.1200 C   0  0  1  0  0  0  0  0  0  0  0  0
   -1.8260   -4.0690    0.1290 C   0  0  0  0  0  0  0  0  0  0  0  0
   -3.6100   -2.5460    0.7530 N   0  0  0  0  0  0  0  0  0  0  0  0
   -2.9280   -2.6000   -1.5540 C   0  0  1  0  0  0  0  0  0  0  0  0
   -3.8330   -3.6990   -1.8430 N   0  0  0  0  0  0  0  0  0  0  0  0
   -3.5340   -1.3710   -1.7010 O   0  0  0  0  0  0  0  0  0  0  0  0
  1  2  1  0
  2  3  1  0
  3  4  1  0
  4  5  1  0
  5  6  1  6
  5  7  1  0
  5  9  1  0
  7  8  1  0
  7  9  2  0
  9 10  1  0
 11 10  1  6
 11 12  2  0
 11 13  2  0
 11 25  1  0
 13 14  1  0
 14 15  1  0
 14 20  2  0
 15 16  2  0
 15 19  1  0
 16 17  1  0
 17 18  1  0
 18 19  1  0
 20 21  1  0
 20 23  1  0
 21 22  1  0
 23 24  1  0
 24 25  1  0
 25 26  2  3
 26 27  1  0
 27 28  1  6
 27 29  1  0
 27 30  1  0
 30 31  1  1
 30 32  1  0
M  END
