
     RDKit          3D

 32 35  0  0  0  0  0  0  0  0999 V2000
   -8.6480    0.1040    0.9360 C   0  0  0  0  0  0  0  0  0  0  0  0
   -7.2410    0.1370    0.4050 C   0  0  0  0  0  0  0  0  0  0  0  0
   -6.8140   -0.7560   -0.5540 C   0  0  0  0  0  0  0  0  0  0  0  0
   -5.5110   -0.7080   -1.0310 C   0  0  0  0  0  0  0  0  0  0  0  0
   -5.0630   -1.6790   -2.0660 C   0  0  0  0  0  0  0  0  0  0  0  0
   -4.6070    0.2120   -0.5790 C   0  0  0  0  0  0  0  0  0  0  0  0
   -3.2390    0.2410   -1.1060 C   0  0  0  0  0  0  0  0  0  0  0  0
   -2.4070    1.2480   -0.5400 N   0  0  0  0  0  0  0  0  0  0  0  0
   -1.0740    1.2960   -1.0670 C   0  0  2  0  0  0  0  0  0  0  0  0
   -0.9990    1.6170   -2.5190 C   0  0  0  0  0  0  0  0  0  0  0  0
   -0.3350    0.0120   -0.7440 C   0  0  0  0  0  0  0  0  0  0  0  0
   -0.2360   -0.2180    0.7450 C   0  0  0  0  0  0  0  0  0  0  0  0
    0.5070   -1.5060    1.0140 C   0  0  0  0  0  0  0  0  0  0  0  0
    1.8620   -1.3790    0.4200 C   0  0  0  0  0  0  0  0  0  0  0  0
    3.0060   -0.9110    0.9490 N   0  0  0  0  0  0  0  0  0  0  0  0
    4.0030   -0.9780    0.0500 C   0  0  0  0  0  0  0  0  0  0  0  0
    5.3950   -0.5820    0.1960 C   0  0  0  0  0  0  0  0  0  0  0  0
    5.8230   -0.0590    1.3950 C   0  0  0  0  0  0  0  0  0  0  0  0
    7.1660    0.3260    1.5380 C   0  0  0  0  0  0  0  0  0  0  0  0
    8.0340    0.1790    0.4870 C   0  0  0  0  0  0  0  0  0  0  0  0
    9.4190    0.5810    0.6400 C   0  0  0  0  0  0  0  0  0  0  0  0
   10.4020    0.5020   -0.3010 N   0  0  0  0  0  0  0  0  0  0  0  0
   11.5340    0.9750    0.2420 C   0  0  0  0  0  0  0  0  0  0  0  0
   11.2990    1.3560    1.5080 N   0  0  0  0  0  0  0  0  0  0  0  0
   10.0260    1.1100    1.7240 N   0  0  0  0  0  0  0  0  0  0  0  0
    7.6040   -0.3310   -0.6730 N   0  0  0  0  0  0  0  0  0  0  0  0
    6.3020   -0.7100   -0.8270 C   0  0  0  0  0  0  0  0  0  0  0  0
    3.4200   -1.5110   -1.0630 N   0  0  0  0  0  0  0  0  0  0  0  0
    2.1650   -1.7340   -0.8140 O   0  0  0  0  0  0  0  0  0  0  0  0
   -5.0270    1.1050    0.3770 C   0  0  0  0  0  0  0  0  0  0  0  0
   -6.3380    1.0700    0.8680 C   0  0  0  0  0  0  0  0  0  0  0  0
   -6.8110    2.0260    1.9000 C   0  0  0  0  0  0  0  0  0  0  0  0
  1  2  1  0
  2  3  2  0
  2 31  1  0
  3  4  1  0
  4  5  1  0
  4  6  2  0
  6  7  1  0
  6 30  1  0
  7  8  1  0
  8  9  1  0
  9 10  1  6
  9 11  1  0
 11 12  1  0
 12 13  1  0
 13 14  1  0
 14 15  2  0
 14 29  1  0
 15 16  1  0
 16 17  1  0
 16 28  2  0
 17 18  2  0
 17 27  1  0
 18 19  1  0
 19 20  2  0
 20 21  1  0
 20 26  1  0
 21 22  1  0
 21 25  2  0
 22 23  2  0
 23 24  1  0
 24 25  1  0
 26 27  2  0
 28 29  1  0
 30 31  2  0
 31 32  1  0
M  END
