
     RDKit          3D

 21 22  0  0  0  0  0  0  0  0999 V2000
    5.5770   -0.2690    0.7520 C   0  0  0  0  0  0  0  0  0  0  0  0
    4.7060    0.4020   -0.2760 C   0  0  0  0  0  0  0  0  0  0  0  0
    3.3750    0.7530    0.3630 C   0  0  0  0  0  0  0  0  0  0  0  0
    2.4690    1.4180   -0.5990 C   0  0  0  0  0  0  0  0  0  0  0  0
    2.9160    2.6180   -1.1580 O   0  0  0  0  0  0  0  0  0  0  0  0
    1.2870    0.8880   -0.9100 C   0  0  0  0  0  0  0  0  0  0  0  0
    0.7810   -0.6560   -0.1520 P   0  0  0  0  0  0  0  0  0  0  0  0
    1.3540   -2.0630   -0.9480 O   0  0  0  0  0  0  0  0  0  0  0  0
    0.3970   -2.3530   -1.9090 O   0  0  0  0  0  0  0  0  0  0  0  0
   -0.9460   -1.9180   -1.8730 C   0  0  0  0  0  0  0  0  0  0  0  0
   -1.4770   -0.8410   -2.4100 C   0  0  0  0  0  0  0  0  0  0  0  0
   -1.8880    0.0380   -1.3480 O   0  0  0  0  0  0  0  0  0  0  0  0
   -1.9620   -0.4400   -0.0160 C   0  0  1  0  0  0  0  0  0  0  0  0
   -2.6520    0.6350    0.7040 N   0  0  0  0  0  0  0  0  0  0  0  0
   -3.9440    0.9070    0.0860 C   0  0  0  0  0  0  0  0  0  0  0  0
   -4.5900    2.0210    0.8820 C   0  0  0  0  0  0  0  0  0  0  0  0
   -2.9240   -1.5660    0.0980 N   0  0  0  0  0  0  0  0  0  0  0  0
   -2.2480   -2.8960   -0.9650 P   0  0  0  0  0  0  0  0  0  0  0  0
   -1.6780   -4.2030   -0.0760 O   0  0  0  0  0  0  0  0  0  0  0  0
   -0.7460   -0.6920    0.6320 N   0  0  0  0  0  0  0  0  0  0  0  0
   -0.6570    0.0640    1.8640 C   0  0  0  0  0  0  0  0  0  0  0  0
  1  2  1  0
  2  3  1  0
  3  4  1  0
  4  5  1  0
  4  6  2  3
  6  7  1  0
  7  8  1  0
  7 20  1  0
  8  9  1  0
  9 10  1  0
 10 11  2  0
 10 18  1  0
 11 12  1  0
 12 13  1  0
 13 14  1  1
 13 17  1  0
 13 20  1  0
 14 15  1  0
 15 16  1  0
 17 18  1  0
 18 19  1  0
 20 21  1  0
M  END
