
     RDKit          3D

 21 22  0  0  0  0  0  0  0  0999 V2000
   -1.6200    2.8520   -0.9970 C   0  0  0  0  0  0  0  0  0  0  0  0
   -3.0450    2.4960   -0.6800 C   0  0  0  0  0  0  0  0  0  0  0  0
   -3.2980    1.7920    0.3970 C   0  0  0  0  0  0  0  0  0  0  0  0
   -4.7350    1.4440    0.7020 C   0  0  0  0  0  0  0  0  0  0  0  0
   -2.2500    1.3100    1.3300 C   0  0  0  0  0  0  0  0  0  0  0  0
   -2.2980   -0.5220    1.4340 P   0  0  0  0  0  0  0  0  0  0  0  0
   -1.9790   -1.4610   -0.1310 C   0  0  1  0  0  0  0  0  0  0  0  0
   -1.5520   -0.7550   -1.3030 N   0  0  0  0  0  0  0  0  0  0  0  0
   -0.9480   -1.5900    0.9420 C   0  0  2  0  0  0  0  0  0  0  0  0
   -0.8620   -2.9310    1.6690 C   0  0  0  0  0  0  0  0  0  0  0  0
    0.3100   -3.6870    1.1320 C   0  0  0  0  0  0  0  0  0  0  0  0
    0.3900   -0.9450    0.7850 C   0  0  0  0  0  0  0  0  0  0  0  0
    0.4510    0.1640    0.1940 O   0  0  0  0  0  0  0  0  0  0  0  0
    1.5770   -1.4770    1.2420 O   0  0  0  0  0  0  0  0  0  0  0  0
    2.7630   -0.8940    1.0970 O   0  0  0  0  0  0  0  0  0  0  0  0
    2.9670   -0.1850   -0.4650 P   0  0  0  0  0  0  0  0  0  0  0  0
    3.1210    1.5480   -0.2040 O   0  0  0  0  0  0  0  0  0  0  0  0
    4.4250    1.7240    0.1690 N   0  0  0  0  0  0  0  0  0  0  0  0
    5.2520    1.8520   -0.8620 O   0  0  0  0  0  0  0  0  0  0  0  0
    6.0450    0.7190   -1.0770 C   0  0  0  0  0  0  0  0  0  0  0  0
    4.9610   -0.8070   -1.2220 P   0  0  0  0  0  0  0  0  0  0  0  0
  1  2  1  0
  2  3  2  3
  3  4  1  0
  3  5  1  0
  5  6  1  0
  6  7  1  0
  6  9  1  0
  7  8  1  6
  7  9  1  0
  9 10  1  1
  9 12  1  0
 10 11  1  0
 12 13  2  0
 12 14  1  0
 14 15  1  0
 15 16  1  0
 16 17  1  0
 16 21  1  0
 17 18  1  0
 18 19  1  0
 19 20  1  0
 20 21  1  0
M  END
