
     RDKit          3D

 21 21  0  0  0  0  0  0  0  0999 V2000
    3.6830    2.4010    2.1410 C   0  0  0  0  0  0  0  0  0  0  0  0
    2.7760    1.6680    1.1710 C   0  0  0  0  0  0  0  0  0  0  0  0
    3.0950    2.0460   -0.1740 N   0  0  0  0  0  0  0  0  0  0  0  0
    3.5870    1.2360   -1.0440 C   0  0  0  0  0  0  0  0  0  0  0  0
    3.8890    1.6770   -2.3880 C   0  0  0  0  0  0  0  0  0  0  0  0
    4.3630    0.8810   -3.2130 O   0  0  0  0  0  0  0  0  0  0  0  0
    3.9130   -0.5000   -0.5860 P   0  0  0  0  0  0  0  0  0  0  0  0
    2.8160   -1.6800   -0.9870 C   0  0  0  0  0  0  0  0  0  0  0  0
    1.6120   -1.4130   -1.6820 N   0  0  0  0  0  0  0  0  0  0  0  0
    0.3420   -1.8200   -1.1100 C   0  0  0  0  0  0  0  0  0  0  0  0
   -0.5840   -0.9650   -0.8530 C   0  0  0  0  0  0  0  0  0  0  0  0
   -0.2630    0.3780   -1.1710 O   0  0  0  0  0  0  0  0  0  0  0  0
   -1.8870   -1.2140   -0.2900 C   0  0  0  0  0  0  0  0  0  0  0  0
   -2.7630   -0.1230   -0.0860 C   0  0  0  0  0  0  0  0  0  0  0  0
   -4.0130   -0.2900    0.4450 C   0  0  0  0  0  0  0  0  0  0  0  0
   -4.8220    0.8200    0.6180 O   0  0  0  0  0  0  0  0  0  0  0  0
   -6.1110    0.7080    1.1570 C   0  0  0  0  0  0  0  0  0  0  0  0
   -4.3810   -1.5360    0.7680 N   0  0  0  0  0  0  0  0  0  0  0  0
   -3.5810   -2.5690    0.5880 N   0  0  0  0  0  0  0  0  0  0  0  0
   -2.3280   -2.4660    0.0640 C   0  0  0  0  0  0  0  0  0  0  0  0
   -1.5580   -3.6030   -0.0890 O   0  0  0  0  0  0  0  0  0  0  0  0
  1  2  1  0
  2  3  1  0
  3  4  2  3
  4  5  1  0
  4  7  1  0
  5  6  2  0
  7  8  2  3
  8  9  1  0
  9 10  1  0
 10 11  2  3
 11 12  1  0
 11 13  1  0
 13 14  2  0
 13 20  1  0
 14 15  1  0
 15 16  1  0
 15 18  2  0
 16 17  1  0
 18 19  1  0
 19 20  2  0
 20 21  1  0
M  END
