
     RDKit          3D

 21 23  0  0  0  0  0  0  0  0999 V2000
   -3.9920   -0.8790   -0.3040 C   0  0  0  0  0  0  0  0  0  0  0  0
   -3.5670   -1.0250   -1.7390 C   0  0  0  0  0  0  0  0  0  0  0  0
   -2.1510   -0.9090   -1.8000 O   0  0  0  0  0  0  0  0  0  0  0  0
   -1.6230    0.3140   -1.3340 C   0  0  0  0  0  0  0  0  0  0  0  0
   -0.6310    0.3390   -0.4820 C   0  0  0  0  0  0  0  0  0  0  0  0
    0.2250   -0.6270    0.2310 C   0  0  0  0  0  0  0  0  0  0  0  0
   -0.2860   -1.7570    0.5010 N   0  0  0  0  0  0  0  0  0  0  0  0
    1.5900   -0.2510    0.5660 N   0  0  0  0  0  0  0  0  0  0  0  0
    2.3210   -1.1610    1.2000 N   0  0  0  0  0  0  0  0  0  0  0  0
    1.7200   -2.4780    1.5350 C   0  0  0  0  0  0  0  0  0  0  0  0
    3.5550   -1.0270    1.5790 O   0  0  0  0  0  0  0  0  0  0  0  0
    4.3000    0.4080    1.2480 P   0  0  0  0  0  0  0  0  0  0  0  0
    5.8680    0.9180    1.7210 O   0  0  0  0  0  0  0  0  0  0  0  0
    3.2140    1.4820    0.4220 C   0  0  0  0  0  0  0  0  0  0  0  0
    3.5790    2.6330    0.0740 O   0  0  0  0  0  0  0  0  0  0  0  0
    1.9910    0.9560    0.2090 N   0  0  0  0  0  0  0  0  0  0  0  0
    1.1030    1.8840   -0.4900 C   0  0  0  0  0  0  0  0  0  0  0  0
    1.5930    2.6940   -1.2800 O   0  0  0  0  0  0  0  0  0  0  0  0
   -0.3500    1.7990   -0.2090 C   0  0  1  0  0  0  0  0  0  0  0  0
   -1.2650    2.5270   -1.0170 C   0  0  0  0  0  0  0  0  0  0  0  0
   -2.0310    1.6680   -1.6840 C   0  0  0  0  0  0  0  0  0  0  0  0
  1  2  1  0
  2  3  1  0
  3  4  1  0
  4  5  2  0
  4 21  1  0
  5  6  1  0
  5 19  1  0
  6  7  2  0
  6  8  1  0
  8  9  1  0
  8 16  1  0
  9 10  1  0
  9 11  1  0
 11 12  1  0
 12 13  1  0
 12 14  1  0
 14 15  2  0
 14 16  1  0
 16 17  1  0
 17 18  2  0
 17 19  1  0
 19 20  1  6
 20 21  2  0
M  END
