
     RDKit          3D

 28 30  0  0  0  0  0  0  0  0999 V2000
    6.8380   -0.6690    0.3490 N   0  0  0  0  0  0  0  0  0  0  0  0
    5.9080    0.3790    0.2120 C   0  0  0  0  0  0  0  0  0  0  0  0
    4.6340    0.0640   -0.0420 N   0  0  0  0  0  0  0  0  0  0  0  0
    3.6460    0.9640   -0.1960 C   0  0  0  0  0  0  0  0  0  0  0  0
    3.9600    2.2980   -0.0840 C   0  0  0  0  0  0  0  0  0  0  0  0
    2.8270    2.9760   -0.2740 N   0  0  0  0  0  0  0  0  0  0  0  0
    1.8330    2.0850   -0.4970 C   0  0  0  0  0  0  0  0  0  0  0  0
    2.3260    0.8340   -0.4520 N   0  0  0  0  0  0  0  0  0  0  0  0
    1.6770   -0.4260   -0.6250 C   0  0  2  0  0  0  0  0  0  0  0  0
    0.3800   -0.3450   -1.0530 O   0  0  0  0  0  0  0  0  0  0  0  0
   -0.2920   -1.4870   -0.7160 C   0  0  2  0  0  0  0  0  0  0  0  0
   -1.5750   -1.0820   -0.0030 C   0  0  0  0  0  0  0  0  0  0  0  0
   -2.3140   -0.3190   -0.8540 O   0  0  0  0  0  0  0  0  0  0  0  0
   -3.7380    0.2790   -0.4300 P   0  0  0  0  0  0  0  0  0  0  0  0
   -3.9850    1.9370   -0.3180 O   0  0  0  0  0  0  0  0  0  0  0  0
   -3.5430    0.1830    1.0780 O   0  0  0  0  0  0  0  0  0  0  0  0
   -5.0890   -0.7020   -0.3240 O   0  0  0  0  0  0  0  0  0  0  0  0
   -6.4070    0.0380   -0.5150 P   0  0  0  0  0  0  0  0  0  0  0  0
   -6.2080    0.8180    0.9330 O   0  0  0  0  0  0  0  0  0  0  0  0
   -5.9230    0.6890   -1.9300 O   0  0  0  0  0  0  0  0  0  0  0  0
   -7.2290   -1.4010   -0.5350 O   0  0  0  0  0  0  0  0  0  0  0  0
    0.5910   -2.2780    0.2390 C   0  0  1  0  0  0  0  0  0  0  0  0
    1.3810   -3.1960   -0.4530 O   0  0  0  0  0  0  0  0  0  0  0  0
    1.5450   -1.1680    0.6970 C   0  0  1  0  0  0  0  0  0  0  0  0
    2.7360   -1.6680    1.1530 O   0  0  0  0  0  0  0  0  0  0  0  0
    5.2810    2.6270    0.1800 C   0  0  0  0  0  0  0  0  0  0  0  0
    5.5800    3.8580    0.2850 O   0  0  0  0  0  0  0  0  0  0  0  0
    6.2270    1.6810    0.3240 N   0  0  0  0  0  0  0  0  0  0  0  0
  1  2  1  0
  2  3  2  0
  2 28  1  0
  3  4  1  0
  4  5  2  0
  4  8  1  0
  5  6  1  0
  5 26  1  0
  6  7  2  0
  7  8  1  0
  9  8  1  1
  9 10  1  0
  9 24  1  0
 10 11  1  0
 11 12  1  1
 11 22  1  0
 12 13  1  0
 13 14  1  0
 14 15  1  0
 14 16  1  0
 14 17  1  0
 17 18  1  0
 18 19  1  0
 18 20  1  0
 18 21  1  0
 22 23  1  6
 22 24  1  0
 24 25  1  6
 26 27  2  0
 26 28  1  0
M  END
