
     RDKit          3D

 21 22  0  0  0  0  0  0  0  0999 V2000
    3.9500    1.0700   -0.2740 C   0  0  0  0  0  0  0  0  0  0  0  0
    3.4300    0.5450    0.9500 N   0  0  0  0  0  0  0  0  0  0  0  0
    4.1380   -0.5960    1.4350 C   0  0  0  0  0  0  0  0  0  0  0  0
    2.1130    0.4200    0.8720 O   0  0  0  0  0  0  0  0  0  0  0  0
    1.7680   -0.2080   -0.2910 C   0  0  1  0  0  0  0  0  0  0  0  0
    1.0700   -1.5220    0.1110 C   0  0  0  0  0  0  0  0  0  0  0  0
   -0.1080   -1.1610    0.8010 N   0  0  0  0  0  0  0  0  0  0  0  0
   -0.8270   -2.3670    1.1390 C   0  0  0  0  0  0  0  0  0  0  0  0
   -1.1240   -3.0510   -0.0300 O   0  0  0  0  0  0  0  0  0  0  0  0
   -0.9720   -0.3410   -0.0220 C   0  0  2  0  0  0  0  0  0  0  0  0
   -1.6640    0.6970    0.8030 C   0  0  0  0  0  0  0  0  0  0  0  0
   -3.1120    0.7440    0.6440 C   0  0  0  0  0  0  0  0  0  0  0  0
   -3.9090    1.7140    1.3840 N   0  0  0  0  0  0  0  0  0  0  0  0
   -3.7580   -0.0680   -0.1570 C   0  0  0  0  0  0  0  0  0  0  0  0
   -3.0750   -1.0770   -0.9490 C   0  0  0  0  0  0  0  0  0  0  0  0
   -3.8610   -1.9410   -1.8100 C   0  0  0  0  0  0  0  0  0  0  0  0
   -3.2710   -2.8050   -2.4880 O   0  0  0  0  0  0  0  0  0  0  0  0
   -1.8100   -1.1500   -0.8420 N   0  0  0  0  0  0  0  0  0  0  0  0
    0.2900    0.5780   -1.0990 P   0  0  0  0  0  0  0  0  0  0  0  0
    0.3000    2.7120   -0.7110 P   0  0  0  0  0  0  0  0  0  0  0  0
    1.4490    3.7140   -2.3050 P   0  0  0  0  0  0  0  0  0  0  0  0
  1  2  1  0
  2  3  1  0
  2  4  1  0
  5  4  1  1
  5  6  1  0
  5 19  1  0
  6  7  1  0
  7  8  1  0
  7 10  1  0
  8  9  1  0
 10 11  1  1
 10 18  1  0
 10 19  1  0
 11 12  1  0
 12 13  1  0
 12 14  2  0
 14 15  1  0
 15 16  1  0
 15 18  2  0
 16 17  2  0
 19 20  1  0
 20 21  1  0
M  END
