
     RDKit          3D

 21 21  0  0  0  0  0  0  0  0999 V2000
    5.6050    0.4880    1.2540 C   0  0  0  0  0  0  0  0  0  0  0  0
    4.1890    0.7240    0.9330 C   0  0  0  0  0  0  0  0  0  0  0  0
    3.7970    1.3070   -0.1680 N   0  0  0  0  0  0  0  0  0  0  0  0
    3.2070    0.3220    1.8190 O   0  0  0  0  0  0  0  0  0  0  0  0
    1.9200    0.1790    1.4860 O   0  0  0  0  0  0  0  0  0  0  0  0
    1.6040   -1.3460    0.7270 P   0  0  0  0  0  0  0  0  0  0  0  0
    0.1000   -1.4560   -0.5880 P   0  0  0  0  0  0  0  0  0  0  0  0
   -0.9320    0.0350   -0.9850 C   0  0  0  0  0  0  0  0  0  0  0  0
   -2.2040    0.0250   -0.4110 C   0  0  0  0  0  0  0  0  0  0  0  0
   -2.6790   -1.0870    0.4330 C   0  0  1  0  0  0  0  0  0  0  0  0
   -2.7160   -2.4020   -0.3180 C   0  0  0  0  0  0  0  0  0  0  0  0
   -1.8210   -1.2490    1.6860 C   0  0  0  0  0  0  0  0  0  0  0  0
   -4.0530   -0.7980    0.8770 C   0  0  0  0  0  0  0  0  0  0  0  0
   -4.6350    0.2070    0.5610 O   0  0  0  0  0  0  0  0  0  0  0  0
   -3.1400    1.4320   -0.7960 P   0  0  0  0  0  0  0  0  0  0  0  0
   -2.2900    2.5480   -1.8130 C   0  0  0  0  0  0  0  0  0  0  0  0
   -1.0230    2.1300   -2.1400 C   0  0  0  0  0  0  0  0  0  0  0  0
   -0.3890    2.9550   -2.8940 O   0  0  0  0  0  0  0  0  0  0  0  0
   -0.4410    1.0000   -1.7560 N   0  0  0  0  0  0  0  0  0  0  0  0
    0.9030    0.7930   -2.2540 C   0  0  0  0  0  0  0  0  0  0  0  0
    1.5790   -0.2290   -1.9850 O   0  0  0  0  0  0  0  0  0  0  0  0
  1  2  1  0
  2  3  2  0
  2  4  1  0
  4  5  1  0
  5  6  1  0
  6  7  2  3
  7  8  1  0
  8  9  2  0
  8 19  1  0
  9 10  1  0
  9 15  1  0
 10 11  1  6
 10 12  1  0
 10 13  1  0
 13 14  2  0
 15 16  2  0
 16 17  1  0
 17 18  2  0
 17 19  1  0
 19 20  1  0
 20 21  2  0
M  END
