
     RDKit          3D

 28 32  0  0  0  0  0  0  0  0999 V2000
    5.2180    3.0900   -0.4330 N   0  0  0  0  0  0  0  0  0  0  0  0
    5.3980    1.6900   -0.4630 C   0  0  0  0  0  0  0  0  0  0  0  0
    6.6590    1.1690   -0.6790 C   0  0  0  0  0  0  0  0  0  0  0  0
    6.8270   -0.1860   -0.7070 C   0  0  0  0  0  0  0  0  0  0  0  0
    5.7650   -1.0260   -0.5260 C   0  0  0  0  0  0  0  0  0  0  0  0
    5.8910   -2.4430   -0.5470 N   0  0  0  0  0  0  0  0  0  0  0  0
    4.5030   -0.4900   -0.3100 C   0  0  0  0  0  0  0  0  0  0  0  0
    4.3210    0.8740   -0.2790 C   0  0  0  0  0  0  0  0  0  0  0  0
    3.0470    1.4280   -0.0610 N   0  0  0  0  0  0  0  0  0  0  0  0
    1.9350    0.5780    0.1290 C   0  0  0  0  0  0  0  0  0  0  0  0
    0.9320    0.4410   -0.7120 C   0  0  0  0  0  0  0  0  0  0  0  0
   -0.0190   -0.4930   -0.1970 C   0  0  1  0  0  0  0  0  0  0  0  0
   -1.3560    0.1030    0.0860 C   0  0  0  0  0  0  0  0  0  0  0  0
   -1.5730    1.2870    0.7230 C   0  0  0  0  0  0  0  0  0  0  0  0
   -2.9630    1.4560    0.7720 C   0  0  0  0  0  0  0  0  0  0  0  0
   -3.5260    0.3840    0.1720 N   0  0  0  0  0  0  0  0  0  0  0  0
   -4.9060    0.0700   -0.0420 C   0  0  1  0  0  0  0  0  0  0  0  0
   -5.8300    0.7610    0.9280 C   0  0  0  0  0  0  0  0  0  0  0  0
   -7.1570    0.8620    0.2040 C   0  0  0  0  0  0  0  0  0  0  0  0
   -6.9450    0.2630   -1.1690 C   0  0  0  0  0  0  0  0  0  0  0  0
   -5.4410    0.4920   -1.3710 C   0  0  0  0  0  0  0  0  0  0  0  0
   -2.5300   -0.4120   -0.2300 N   0  0  0  0  0  0  0  0  0  0  0  0
   -0.2020   -2.0530   -1.1250 S   0  0  0  0  0  0  0  0  0  0  0  0
   -0.3110   -3.1730    0.3370 C   0  0  0  0  0  0  0  0  0  0  0  0
   -0.3290   -2.1320    1.4690 C   0  0  0  0  0  0  0  0  0  0  0  0
    0.5580   -1.0550    1.0210 N   0  0  0  0  0  0  0  0  0  0  0  0
    1.7520   -0.3370    1.2470 C   0  0  0  0  0  0  0  0  0  0  0  0
    2.5170   -0.4690    2.2390 O   0  0  0  0  0  0  0  0  0  0  0  0
  1  2  1  0
  2  3  2  0
  2  8  1  0
  3  4  1  0
  4  5  2  0
  5  6  1  0
  5  7  1  0
  7  8  2  0
  8  9  1  0
  9 10  1  0
 10 11  2  0
 10 27  1  0
 11 12  1  0
 12 13  1  1
 12 23  1  0
 12 26  1  0
 13 14  1  0
 13 22  2  0
 14 15  2  0
 15 16  1  0
 17 16  1  1
 16 22  1  0
 17 18  1  0
 17 21  1  0
 18 19  1  0
 19 20  1  0
 20 21  1  0
 23 24  1  0
 24 25  1  0
 25 26  1  0
 26 27  1  0
 27 28  2  0
M  CHG  1   6   1
M  END
