
     RDKit          3D

 29 33  0  0  0  0  0  0  0  0999 V2000
    6.6480    0.8500   -0.2810 C   0  0  0  0  0  0  0  0  0  0  0  0
    6.2290   -0.5780   -0.5220 C   0  0  1  0  0  0  0  0  0  0  0  0
    6.2280   -1.4160    1.1130 S   0  0  0  0  0  0  0  0  0  0  0  0
    4.7290   -0.8930    1.9080 C   0  0  0  0  0  0  0  0  0  0  0  0
    4.5660   -0.9960    3.2620 C   0  0  0  0  0  0  0  0  0  0  0  0
    3.3540   -0.5550    3.7920 C   0  0  0  0  0  0  0  0  0  0  0  0
    2.3760   -0.0450    3.0110 N   0  0  0  0  0  0  0  0  0  0  0  0
    2.5430    0.0530    1.6830 C   0  0  0  0  0  0  0  0  0  0  0  0
    1.7770    0.5090    0.6110 C   0  0  0  0  0  0  0  0  0  0  0  0
    0.4790    1.0440    0.7210 N   0  0  0  0  0  0  0  0  0  0  0  0
   -0.2700    1.4970   -0.4250 C   0  0  0  0  0  0  0  0  0  0  0  0
   -0.5000    0.2940   -1.3510 C   0  0  2  0  0  0  0  0  0  0  0  0
   -1.2390    0.6560   -2.5090 N   0  0  0  0  0  0  0  0  0  0  0  0
   -0.9000   -0.8560   -0.5790 C   0  0  0  0  0  0  0  0  0  0  0  0
   -1.9750   -1.3550   -0.1010 C   0  0  0  0  0  0  0  0  0  0  0  0
   -3.3400   -0.8500   -0.2000 C   0  0  0  0  0  0  0  0  0  0  0  0
   -4.4030   -1.4560    0.3690 C   0  0  0  0  0  0  0  0  0  0  0  0
   -5.6280   -0.7270    0.1090 C   0  0  0  0  0  0  0  0  0  0  0  0
   -6.9440   -0.6690    0.3010 C   0  0  0  0  0  0  0  0  0  0  0  0
   -7.4920    0.5240   -0.3740 C   0  0  0  0  0  0  0  0  0  0  0  0
   -6.2870    1.1440   -0.9800 C   0  0  0  0  0  0  0  0  0  0  0  0
   -6.2210    2.6200   -1.9360 Cl  0  0  0  0  0  0  0  0  0  0  0  0
   -5.2340    0.4010   -0.6860 C   0  0  0  0  0  0  0  0  0  0  0  0
   -3.8210    0.2720   -0.8940 N   0  0  0  0  0  0  0  0  0  0  0  0
    2.5290    0.3330   -0.4950 N   0  0  0  0  0  0  0  0  0  0  0  0
    3.7150   -0.2060   -0.1690 N   0  0  0  0  0  0  0  0  0  0  0  0
    3.7200   -0.3730    1.1470 C   0  0  0  0  0  0  0  0  0  0  0  0
    4.8200   -0.5670   -0.9890 C   0  0  0  0  0  0  0  0  0  0  0  0
    4.5280   -0.8910   -2.1880 O   0  0  0  0  0  0  0  0  0  0  0  0
  2  1  1  1
  2  3  1  0
  2 28  1  0
  3  4  1  0
  4  5  1  0
  4 27  2  0
  5  6  2  0
  6  7  1  0
  7  8  2  0
  8  9  1  0
  8 27  1  0
  9 10  1  0
  9 25  2  0
 10 11  1  0
 11 12  1  0
 12 13  1  6
 12 14  1  0
 14 15  2  3
 15 16  1  0
 16 17  2  0
 16 24  1  0
 17 18  1  0
 18 19  2  0
 18 23  1  0
 19 20  1  0
 20 21  1  0
 21 22  1  0
 21 23  2  0
 23 24  1  0
 25 26  1  0
 26 27  1  0
 26 28  1  0
 28 29  2  0
M  CHG  1  24   1
M  END
