
     RDKit          3D

 29 32  0  0  0  0  0  0  0  0999 V2000
    5.3720   -1.8310    0.6130 C   0  0  0  0  0  0  0  0  0  0  0  0
    6.2910   -0.7510    0.1360 C   0  0  0  0  0  0  0  0  0  0  0  0
    7.6080   -0.8810    0.2370 N   0  0  0  0  0  0  0  0  0  0  0  0
    8.4080    0.1080   -0.2280 C   0  0  0  0  0  0  0  0  0  0  0  0
    7.9410    1.2630   -0.8100 C   0  0  0  0  0  0  0  0  0  0  0  0
    6.5760    1.4110   -0.9210 C   0  0  0  0  0  0  0  0  0  0  0  0
    5.7740    0.4000   -0.4460 C   0  0  0  0  0  0  0  0  0  0  0  0
    4.3360    0.5490   -0.5050 C   0  0  0  0  0  0  0  0  0  0  0  0
    3.7210    1.1040    0.5930 C   0  0  0  0  0  0  0  0  0  0  0  0
    2.3500    1.1490    0.8840 C   0  0  0  0  0  0  0  0  0  0  0  0
    1.3200    0.5990    0.1610 C   0  0  0  0  0  0  0  0  0  0  0  0
    0.1110    0.2370    0.8920 C   0  0  0  0  0  0  0  0  0  0  0  0
   -0.9950   -0.3390    0.3450 N   0  0  0  0  0  0  0  0  0  0  0  0
   -1.9350   -0.5470    1.3040 C   0  0  0  0  0  0  0  0  0  0  0  0
   -3.2620   -1.1680    1.1690 C   0  0  1  0  0  0  0  0  0  0  0  0
   -4.4010   -0.3190    1.4980 C   0  0  0  0  0  0  0  0  0  0  0  0
   -5.2480   -0.1960    0.4820 C   0  0  0  0  0  0  0  0  0  0  0  0
   -6.5070    0.6030    0.5260 C   0  0  1  0  0  0  0  0  0  0  0  0
   -6.5250    1.7940   -0.3820 C   0  0  0  0  0  0  0  0  0  0  0  0
   -7.6230   -0.4050    0.1860 C   0  0  0  0  0  0  0  0  0  0  0  0
   -4.7700   -0.9630   -0.7000 C   0  0  0  0  0  0  0  0  0  0  0  0
   -3.4660   -1.5490   -0.2750 C   0  0  0  0  0  0  0  0  0  0  0  0
   -1.3730   -0.0850    2.4270 N   0  0  0  0  0  0  0  0  0  0  0  0
   -0.1720    0.3700    2.1650 O   0  0  0  0  0  0  0  0  0  0  0  0
    1.3420    0.3500   -1.1990 C   0  0  0  0  0  0  0  0  0  0  0  0
    0.2280    0.2360   -1.7440 O   0  0  0  0  0  0  0  0  0  0  0  0
    2.4220    0.2140   -2.0190 N   0  0  0  0  0  0  0  0  0  0  0  0
    3.7370    0.1350   -1.6760 C   0  0  0  0  0  0  0  0  0  0  0  0
    4.5420   -0.3790   -2.5080 O   0  0  0  0  0  0  0  0  0  0  0  0
  1  2  1  0
  2  3  2  0
  2  7  1  0
  3  4  1  0
  4  5  2  0
  5  6  1  0
  6  7  2  0
  7  8  1  0
  8  9  2  0
  8 28  1  0
  9 10  1  0
 10 11  2  0
 11 12  1  0
 11 25  1  0
 12 13  2  0
 12 24  1  0
 13 14  1  0
 15 14  1  6
 14 23  2  0
 15 16  1  0
 15 22  1  0
 16 17  2  0
 17 18  1  0
 17 21  1  0
 18 19  1  6
 18 20  1  0
 21 22  1  0
 23 24  1  0
 25 26  2  0
 25 27  1  0
 27 28  1  0
 28 29  2  0
M  END
