
     RDKit          3D

 28 32  0  0  0  0  0  0  0  0999 V2000
   -1.7850   -4.7010   -0.6720 C   0  0  0  0  0  0  0  0  0  0  0  0
   -0.4980   -4.0380   -0.6780 N   0  0  0  0  0  0  0  0  0  0  0  0
   -0.4760   -2.5900   -0.6970 C   0  0  0  0  0  0  0  0  0  0  0  0
   -1.5670   -1.9000   -0.6250 N   0  0  0  0  0  0  0  0  0  0  0  0
   -1.6520   -0.6410   -0.5840 C   0  0  0  0  0  0  0  0  0  0  0  0
   -2.7290    0.2890   -0.5090 N   0  0  0  0  0  0  0  0  0  0  0  0
   -3.2830    0.9910   -1.6220 C   0  0  0  0  0  0  0  0  0  0  0  0
   -4.5800    1.6000   -1.1730 C   0  0  0  0  0  0  0  0  0  0  0  0
   -4.5620    1.4410    0.3050 C   0  0  1  0  0  0  0  0  0  0  0  0
   -4.7610    2.6950    1.1290 C   0  0  0  0  0  0  0  0  0  0  0  0
   -6.2200    2.3700    1.2200 C   0  0  0  0  0  0  0  0  0  0  0  0
   -5.9060    0.9520    0.7980 C   0  0  0  0  0  0  0  0  0  0  0  0
   -3.3890    0.6180    0.7150 C   0  0  0  0  0  0  0  0  0  0  0  0
    0.0760   -0.2110   -0.6530 S   0  0  0  0  0  0  0  0  0  0  0  0
    0.7210   -1.8370   -0.7340 C   0  0  0  0  0  0  0  0  0  0  0  0
    2.0970   -2.2190   -0.8710 C   0  0  0  0  0  0  0  0  0  0  0  0
    2.6510   -3.3700   -1.1650 N   0  0  0  0  0  0  0  0  0  0  0  0
    4.0120   -3.2460   -1.1410 C   0  0  0  0  0  0  0  0  0  0  0  0
    4.3480   -1.9550   -0.8180 C   0  0  0  0  0  0  0  0  0  0  0  0
    5.5790   -1.3150   -0.6630 C   0  0  0  0  0  0  0  0  0  0  0  0
    6.6300   -1.9620   -0.8310 O   0  0  0  0  0  0  0  0  0  0  0  0
    5.5540   -0.0170   -0.3370 N   0  0  0  0  0  0  0  0  0  0  0  0
    4.4070    0.6560   -0.1620 C   0  0  0  0  0  0  0  0  0  0  0  0
    4.3990    2.0990    0.1970 C   0  0  0  0  0  0  0  0  0  0  0  0
    4.1850    2.3290    1.6020 N   0  0  0  0  0  0  0  0  0  0  0  0
    5.2160    3.1810    2.1700 C   0  0  0  0  0  0  0  0  0  0  0  0
    3.1800    0.0340   -0.3110 C   0  0  0  0  0  0  0  0  0  0  0  0
    3.1400   -1.2950   -0.6440 C   0  0  0  0  0  0  0  0  0  0  0  0
  1  2  1  0
  2  3  1  0
  3  4  1  0
  3 15  2  0
  4  5  2  0
  5  6  1  0
  5 14  1  0
  6  7  1  0
  6 13  1  0
  7  8  1  0
  9  8  1  6
  9 10  1  0
  9 12  1  0
  9 13  1  0
 10 11  1  0
 11 12  1  0
 14 15  1  0
 15 16  1  0
 16 17  1  0
 16 28  2  0
 17 18  1  0
 18 19  2  0
 19 20  1  0
 19 28  1  0
 20 21  2  0
 20 22  1  0
 22 23  1  0
 23 24  1  0
 23 27  2  0
 24 25  1  0
 25 26  1  0
 27 28  1  0
M  CHG  1  25   1
M  END
