
     RDKit          3D

 22 22  0  0  0  0  0  0  0  0999 V2000
    3.8390    1.8350   -0.3850 O   0  0  0  0  0  0  0  0  0  0  0  0
    3.8380    0.5720   -0.6710 C   0  0  0  0  0  0  0  0  0  0  0  0
    5.0350    0.0740   -1.3980 C   0  0  0  0  0  0  0  0  0  0  0  0
    5.8260   -0.3310   -0.2500 O   0  0  0  0  0  0  0  0  0  0  0  0
    6.7910    0.6160   -0.3320 O   0  0  0  0  0  0  0  0  0  0  0  0
    2.7530   -0.2050   -0.2880 N   0  0  0  0  0  0  0  0  0  0  0  0
    1.6450    0.4620    0.3790 C   0  0  0  0  0  0  0  0  0  0  0  0
    1.8790    1.6300    0.8230 O   0  0  0  0  0  0  0  0  0  0  0  0
    0.3990   -0.2080    0.4900 N   0  0  0  0  0  0  0  0  0  0  0  0
   -0.6140    0.5760    1.2180 C   0  0  0  0  0  0  0  0  0  0  0  0
   -1.2490    1.4830    0.2090 C   0  0  0  0  0  0  0  0  0  0  0  0
   -1.1020    0.9440   -1.0530 O   0  0  0  0  0  0  0  0  0  0  0  0
   -2.2590    0.7670   -1.7690 C   0  0  0  0  0  0  0  0  0  0  0  0
   -3.4190    0.8500   -1.1090 O   0  0  0  0  0  0  0  0  0  0  0  0
   -4.3190    0.0090   -0.5540 C   0  0  0  0  0  0  0  0  0  0  0  0
   -5.3690   -0.3770   -1.1040 O   0  0  0  0  0  0  0  0  0  0  0  0
   -4.1110   -0.5520    0.7980 C   0  0  0  0  0  0  0  0  0  0  0  0
   -3.3350   -1.8320    0.7900 C   0  0  0  0  0  0  0  0  0  0  0  0
   -2.3420   -1.7390   -0.1900 O   0  0  0  0  0  0  0  0  0  0  0  0
   -1.1160   -2.0820    0.2980 O   0  0  0  0  0  0  0  0  0  0  0  0
    0.0590   -1.4580   -0.0280 C   0  0  0  0  0  0  0  0  0  0  0  0
    0.8770   -1.9650   -0.7960 O   0  0  0  0  0  0  0  0  0  0  0  0
  1  2  2  0
  2  3  1  0
  2  6  1  0
  3  4  1  0
  4  5  1  0
  6  7  1  0
  7  8  2  0
  7  9  1  0
  9 10  1  0
  9 21  1  0
 10 11  1  0
 11 12  1  0
 12 13  1  0
 13 14  1  0
 14 15  1  0
 15 16  2  0
 15 17  1  0
 17 18  1  0
 18 19  1  0
 19 20  1  0
 20 21  1  0
 21 22  2  0
M  END
