
     RDKit          3D

 22 22  0  0  0  0  0  0  0  0999 V2000
   -3.3100   -2.6800   -0.5810 C   0  0  0  0  0  0  0  0  0  0  0  0
   -2.6170   -1.4800   -0.1490 N   0  0  0  0  0  0  0  0  0  0  0  0
   -3.3580   -0.2680   -0.1810 C   0  0  0  0  0  0  0  0  0  0  0  0
   -4.2200   -0.0910   -1.1150 O   0  0  0  0  0  0  0  0  0  0  0  0
   -3.2360    0.7630    0.7210 O   0  0  0  0  0  0  0  0  0  0  0  0
   -2.2510    0.9710    1.6840 C   0  0  0  0  0  0  0  0  0  0  0  0
   -1.1770    1.9350    1.2650 C   0  0  0  0  0  0  0  0  0  0  0  0
   -1.1680    2.1960   -0.0880 O   0  0  0  0  0  0  0  0  0  0  0  0
   -0.0080    2.6720   -0.4430 O   0  0  0  0  0  0  0  0  0  0  0  0
    0.8790    2.4360   -1.4460 C   0  0  0  0  0  0  0  0  0  0  0  0
    0.8710    3.2510   -2.4380 O   0  0  0  0  0  0  0  0  0  0  0  0
    1.8380    1.4050   -1.5700 N   0  0  0  0  0  0  0  0  0  0  0  0
    1.6830   -0.0140   -1.3630 C   0  0  1  0  0  0  0  0  0  0  0  0
    2.2510   -0.3220    0.0300 C   0  0  0  0  0  0  0  0  0  0  0  0
    3.6180    0.0470    0.0770 O   0  0  0  0  0  0  0  0  0  0  0  0
    4.3080   -0.1520    1.2470 C   0  0  0  0  0  0  0  0  0  0  0  0
    3.6960   -0.6600    2.2460 O   0  0  0  0  0  0  0  0  0  0  0  0
    5.6570    0.1700    1.4150 O   0  0  0  0  0  0  0  0  0  0  0  0
    0.2820   -0.5330   -1.3840 C   0  0  0  0  0  0  0  0  0  0  0  0
   -0.2030   -0.8390   -0.1110 O   0  0  0  0  0  0  0  0  0  0  0  0
   -1.2670   -1.6120    0.2720 C   0  0  0  0  0  0  0  0  0  0  0  0
   -0.9760   -2.5420    1.1000 O   0  0  0  0  0  0  0  0  0  0  0  0
  1  2  1  0
  2  3  1  0
  2 21  1  0
  3  4  2  0
  3  5  1  0
  5  6  1  0
  6  7  1  0
  7  8  1  0
  8  9  1  0
  9 10  1  0
 10 11  2  0
 10 12  1  0
 12 13  1  0
 13 14  1  1
 13 19  1  0
 14 15  1  0
 15 16  1  0
 16 17  2  0
 16 18  1  0
 19 20  1  0
 20 21  1  0
 21 22  2  0
M  END
