
     RDKit          3D

 22 22  0  0  0  0  0  0  0  0999 V2000
   -3.8550   -0.4460   -1.3260 O   0  0  0  0  0  0  0  0  0  0  0  0
   -4.0100   -1.1680   -0.3120 C   0  0  0  0  0  0  0  0  0  0  0  0
   -4.6780   -2.3960   -0.4640 O   0  0  0  0  0  0  0  0  0  0  0  0
   -3.5540   -0.7980    0.9170 O   0  0  0  0  0  0  0  0  0  0  0  0
   -2.8970    0.3070    1.3190 C   0  0  0  0  0  0  0  0  0  0  0  0
   -1.5910    0.6120    0.6990 N   0  0  0  0  0  0  0  0  0  0  0  0
   -1.5510    1.4700   -0.4320 C   0  0  0  0  0  0  0  0  0  0  0  0
   -2.6710    2.1410   -0.6090 O   0  0  0  0  0  0  0  0  0  0  0  0
   -0.5050    1.6900   -1.3560 N   0  0  0  0  0  0  0  0  0  0  0  0
    0.7100    2.3920   -1.2530 C   0  0  0  0  0  0  0  0  0  0  0  0
    1.2880    2.8300   -2.3550 O   0  0  0  0  0  0  0  0  0  0  0  0
    1.4770    2.7390   -0.0700 C   0  0  0  0  0  0  0  0  0  0  0  0
    1.5240    4.0240    0.1760 O   0  0  0  0  0  0  0  0  0  0  0  0
    2.1380    1.8740    0.7880 O   0  0  0  0  0  0  0  0  0  0  0  0
    3.3060    1.2690    0.5840 O   0  0  0  0  0  0  0  0  0  0  0  0
    3.2530   -0.0910    0.6710 C   0  0  0  0  0  0  0  0  0  0  0  0
    2.8720   -0.7660   -0.6040 C   0  0  0  0  0  0  0  0  0  0  0  0
    2.1760   -2.0580   -0.3110 C   0  0  0  0  0  0  0  0  0  0  0  0
    0.6730   -1.7170   -0.2320 C   0  0  0  0  0  0  0  0  0  0  0  0
    0.5610   -0.6630    0.6230 O   0  0  0  0  0  0  0  0  0  0  0  0
   -0.4210   -0.0180    1.2690 C   0  0  0  0  0  0  0  0  0  0  0  0
   -0.3340    0.0640    2.5520 O   0  0  0  0  0  0  0  0  0  0  0  0
  1  2  2  0
  2  3  1  0
  2  4  1  0
  4  5  1  0
  5  6  1  0
  6  7  1  0
  6 21  1  0
  7  8  2  0
  7  9  1  0
  9 10  1  0
 10 11  2  0
 10 12  1  0
 12 13  2  0
 12 14  1  0
 14 15  1  0
 15 16  1  0
 16 17  1  0
 17 18  1  0
 18 19  1  0
 19 20  1  0
 20 21  1  0
 21 22  2  0
M  END
