
     RDKit          3D

 22 22  0  0  0  0  0  0  0  0999 V2000
    0.0170    1.7100    1.6490 O   0  0  0  0  0  0  0  0  0  0  0  0
   -0.4070    1.6290    0.4740 C   0  0  0  0  0  0  0  0  0  0  0  0
    0.0800    0.5200   -0.3720 C   0  0  0  0  0  0  0  0  0  0  0  0
    0.5160   -0.6780    0.4120 C   0  0  1  0  0  0  0  0  0  0  0  0
    1.4810   -0.3360    1.3450 O   0  0  0  0  0  0  0  0  0  0  0  0
    2.7060   -0.9300    1.1420 C   0  0  0  0  0  0  0  0  0  0  0  0
    3.3820   -0.6020   -0.1430 C   0  0  0  0  0  0  0  0  0  0  0  0
    3.6070    0.7850   -0.2290 O   0  0  0  0  0  0  0  0  0  0  0  0
    4.2030    1.0780   -1.3610 O   0  0  0  0  0  0  0  0  0  0  0  0
    5.4230    1.4930   -1.0900 O   0  0  0  0  0  0  0  0  0  0  0  0
    5.9720    0.6310   -0.2760 O   0  0  0  0  0  0  0  0  0  0  0  0
   -0.6290   -1.4180    1.0620 C   0  0  0  0  0  0  0  0  0  0  0  0
   -1.1990   -2.4010    0.2530 O   0  0  0  0  0  0  0  0  0  0  0  0
   -1.9860   -2.2100   -0.8480 C   0  0  0  0  0  0  0  0  0  0  0  0
   -1.7890   -2.9190   -1.8970 O   0  0  0  0  0  0  0  0  0  0  0  0
   -3.0270   -1.2700   -0.9240 N   0  0  0  0  0  0  0  0  0  0  0  0
   -3.8640   -0.8420    0.1520 C   0  0  0  0  0  0  0  0  0  0  0  0
   -3.7180    0.6550    0.3660 C   0  0  0  0  0  0  0  0  0  0  0  0
   -3.1820    1.2130   -0.8230 O   0  0  0  0  0  0  0  0  0  0  0  0
   -2.4000    2.3520   -0.8630 C   0  0  0  0  0  0  0  0  0  0  0  0
   -2.6450    3.2320   -1.7610 O   0  0  0  0  0  0  0  0  0  0  0  0
   -1.3270    2.6120    0.0430 N   0  0  0  0  0  0  0  0  0  0  0  0
  1  2  2  0
  2  3  1  0
  2 22  1  0
  3  4  1  0
  4  5  1  1
  4 12  1  0
  5  6  1  0
  6  7  1  0
  7  8  1  0
  8  9  1  0
  9 10  1  0
 10 11  1  0
 12 13  1  0
 13 14  1  0
 14 15  2  0
 14 16  1  0
 16 17  1  0
 17 18  1  0
 18 19  1  0
 19 20  1  0
 20 21  2  0
 20 22  1  0
M  END
