
     RDKit          3D

 22 22  0  0  0  0  0  0  0  0999 V2000
    5.9120    0.3360    0.0200 O   0  0  0  0  0  0  0  0  0  0  0  0
    4.8530    0.9690   -0.2110 C   0  0  0  0  0  0  0  0  0  0  0  0
    4.8880    2.3140   -0.5010 O   0  0  0  0  0  0  0  0  0  0  0  0
    3.6400    0.2820   -0.1660 O   0  0  0  0  0  0  0  0  0  0  0  0
    3.5960   -1.0680    0.1250 C   0  0  0  0  0  0  0  0  0  0  0  0
    4.6680   -1.6720    0.3500 O   0  0  0  0  0  0  0  0  0  0  0  0
    2.3310   -1.7780    0.1710 C   0  0  0  0  0  0  0  0  0  0  0  0
    1.1720   -0.9590   -0.1100 N   0  0  0  0  0  0  0  0  0  0  0  0
    0.5460   -0.3130    1.0560 C   0  0  0  0  0  0  0  0  0  0  0  0
    0.0690    1.0590    0.6710 C   0  0  0  0  0  0  0  0  0  0  0  0
    0.9270    1.8540    0.1960 O   0  0  0  0  0  0  0  0  0  0  0  0
   -1.2210    1.4770    0.8090 O   0  0  0  0  0  0  0  0  0  0  0  0
   -2.1690    0.9840    1.7020 C   0  0  0  0  0  0  0  0  0  0  0  0
   -3.2260    0.2290    0.9150 C   0  0  0  0  0  0  0  0  0  0  0  0
   -3.5560    0.9460   -0.3440 C   0  0  0  0  0  0  0  0  0  0  0  0
   -3.7570    0.0570   -1.4790 N   0  0  0  0  0  0  0  0  0  0  0  0
   -3.0330   -1.1520   -1.6670 C   0  0  0  0  0  0  0  0  0  0  0  0
   -3.7050   -2.1010   -2.2130 O   0  0  0  0  0  0  0  0  0  0  0  0
   -1.7430   -1.2300   -1.2820 O   0  0  0  0  0  0  0  0  0  0  0  0
   -0.6700   -0.5500   -1.6740 O   0  0  0  0  0  0  0  0  0  0  0  0
    0.6480   -0.7720   -1.4240 C   0  0  0  0  0  0  0  0  0  0  0  0
    1.5170   -0.8310   -2.3400 O   0  0  0  0  0  0  0  0  0  0  0  0
  1  2  2  0
  2  3  1  0
  2  4  1  0
  4  5  1  0
  5  6  2  0
  5  7  1  0
  7  8  1  0
  8  9  1  0
  8 21  1  0
  9 10  1  0
 10 11  2  0
 10 12  1  0
 12 13  1  0
 13 14  1  0
 14 15  1  0
 15 16  1  0
 16 17  1  0
 17 18  2  0
 17 19  1  0
 19 20  1  0
 20 21  1  0
 21 22  2  0
M  END
