
     RDKit          3D

 22 24  0  0  0  0  0  0  0  0999 V2000
    5.1550    0.7780    0.2470 O   0  0  0  0  0  0  0  0  0  0  0  0
    5.7540   -0.0170   -0.5130 C   0  0  0  0  0  0  0  0  0  0  0  0
    7.0650    0.3250   -0.8580 O   0  0  0  0  0  0  0  0  0  0  0  0
    5.1510   -1.2620   -1.0410 C   0  0  0  0  0  0  0  0  0  0  0  0
    3.8280   -1.3740   -0.5570 O   0  0  0  0  0  0  0  0  0  0  0  0
    2.9040   -0.3970   -0.8630 C   0  0  0  0  0  0  0  0  0  0  0  0
    3.2760    0.5710   -1.5730 O   0  0  0  0  0  0  0  0  0  0  0  0
    1.5550   -0.4400   -0.4120 N   0  0  0  0  0  0  0  0  0  0  0  0
    0.5190    0.5360   -0.6820 C   0  0  0  0  0  0  0  0  0  0  0  0
   -0.6460   -0.0520    0.0450 C   0  0  0  0  0  0  0  0  0  0  0  0
   -0.2890   -1.2350    0.6570 C   0  0  0  0  0  0  0  0  0  0  0  0
   -1.3290   -1.7320    1.2890 O   0  0  0  0  0  0  0  0  0  0  0  0
   -2.3790   -0.9590    1.1470 C   0  0  0  0  0  0  0  0  0  0  0  0
   -1.9910    0.1240    0.3620 C   0  0  0  0  0  0  0  0  0  0  0  0
   -2.9120    1.0740    0.0710 O   0  0  0  0  0  0  0  0  0  0  0  0
   -4.2370    1.0760    0.4880 C   0  0  2  0  0  0  0  0  0  0  0  0
   -4.4830    2.2830    1.1600 O   0  0  0  0  0  0  0  0  0  0  0  0
   -5.3960    2.9790    0.5290 O   0  0  0  0  0  0  0  0  0  0  0  0
   -6.6190    2.5230    0.7910 O   0  0  0  0  0  0  0  0  0  0  0  0
   -4.5920   -0.0890    1.3120 C   0  0  0  0  0  0  0  0  0  0  0  0
   -3.7270   -0.9840    1.5880 N   0  0  0  0  0  0  0  0  0  0  0  0
    1.0550   -1.4570    0.3690 O   0  0  0  0  0  0  0  0  0  0  0  0
  1  2  2  0
  2  3  1  0
  2  4  1  0
  4  5  1  0
  5  6  1  0
  6  7  2  0
  6  8  1  0
  8  9  1  0
  8 22  1  0
  9 10  1  0
 10 11  2  0
 10 14  1  0
 11 12  1  0
 11 22  1  0
 12 13  1  0
 13 14  2  0
 13 21  1  0
 14 15  1  0
 15 16  1  0
 16 17  1  1
 16 20  1  0
 17 18  1  0
 18 19  1  0
 20 21  2  0
M  END
