
     RDKit          3D

 22 22  0  0  0  0  0  0  0  0999 V2000
    5.0820    2.6660    0.2320 C   0  0  0  0  0  0  0  0  0  0  0  0
    5.0190    1.2570    0.3630 O   0  0  0  0  0  0  0  0  0  0  0  0
    3.8980    0.6120    0.8240 C   0  0  0  0  0  0  0  0  0  0  0  0
    2.9000    1.3240    1.1370 O   0  0  0  0  0  0  0  0  0  0  0  0
    3.8070   -0.8620    0.9690 C   0  0  0  0  0  0  0  0  0  0  0  0
    2.5430   -1.2970    1.4670 N   0  0  0  0  0  0  0  0  0  0  0  0
    1.3460   -1.0120    0.7540 C   0  0  0  0  0  0  0  0  0  0  0  0
    1.4570   -0.3740   -0.3110 O   0  0  0  0  0  0  0  0  0  0  0  0
    0.0940   -1.3970    1.1680 O   0  0  0  0  0  0  0  0  0  0  0  0
   -1.1000   -1.1430    0.5090 C   0  0  2  0  0  0  0  0  0  0  0  0
   -1.3160    0.3270    0.3750 C   0  0  0  0  0  0  0  0  0  0  0  0
   -2.5440    0.6660   -0.3020 N   0  0  0  0  0  0  0  0  0  0  0  0
   -2.8590    2.0320   -0.4890 C   0  0  0  0  0  0  0  0  0  0  0  0
   -2.0800    2.9420   -0.0710 O   0  0  0  0  0  0  0  0  0  0  0  0
   -4.0320    2.4410   -1.1370 O   0  0  0  0  0  0  0  0  0  0  0  0
   -4.2680    3.7490   -1.2800 O   0  0  0  0  0  0  0  0  0  0  0  0
   -3.7370    4.1700   -2.3890 O   0  0  0  0  0  0  0  0  0  0  0  0
   -2.2410   -1.6780    1.3870 C   0  0  0  0  0  0  0  0  0  0  0  0
   -2.0310   -3.0560    1.4760 O   0  0  0  0  0  0  0  0  0  0  0  0
   -2.2740   -3.5940    0.2000 C   0  0  0  0  0  0  0  0  0  0  0  0
   -2.4310   -2.5880   -0.7540 O   0  0  0  0  0  0  0  0  0  0  0  0
   -1.2300   -1.8770   -0.8090 C   0  0  0  0  0  0  0  0  0  0  0  0
  1  2  1  0
  2  3  1  0
  3  4  2  0
  3  5  1  0
  5  6  1  0
  6  7  1  0
  7  8  2  0
  7  9  1  0
  9 10  1  0
 10 11  1  6
 10 18  1  0
 10 22  1  0
 11 12  1  0
 12 13  1  0
 13 14  2  0
 13 15  1  0
 15 16  1  0
 16 17  1  0
 18 19  1  0
 19 20  1  0
 20 21  1  0
 21 22  1  0
M  END
