
     RDKit          3D

 28 28  0  0  0  0  0  0  0  0999 V2000
   -2.3160   -1.9280   -0.8560 C   0  0  0  0  0  0  0  0  0  0  0  0
   -2.2950   -1.0010    0.3420 C   0  0  2  0  0  0  0  0  0  0  0  0
   -1.5890   -1.6300    1.3540 O   0  0  0  0  0  0  0  0  0  0  0  0
   -0.3670   -1.9120    1.0430 O   0  0  0  0  0  0  0  0  0  0  0  0
    0.3390   -0.9270    0.5890 O   0  0  0  0  0  0  0  0  0  0  0  0
    0.8780   -1.2490   -0.5580 O   0  0  0  0  0  0  0  0  0  0  0  0
    2.2400   -1.4500   -0.5030 C   0  0  1  0  0  0  0  0  0  0  0  0
    2.5340   -2.8960   -0.8520 C   0  0  0  0  0  0  0  0  0  0  0  0
    3.9200   -3.0840   -0.7920 O   0  0  0  0  0  0  0  0  0  0  0  0
    4.1810   -4.3740   -1.1030 N   0  0  0  0  0  0  0  0  0  0  0  0
    2.9650   -0.5920   -1.3240 O   0  0  0  0  0  0  0  0  0  0  0  0
    4.0550    0.3660   -0.3990 P   0  0  0  0  0  0  0  0  0  0  0  0
    4.4110    2.2910   -0.8120 P   0  0  0  0  0  0  0  0  0  0  0  0
    5.5080    3.2160    0.1370 O   0  0  0  0  0  0  0  0  0  0  0  0
    6.4220    2.3760    0.7730 C   0  0  0  0  0  0  0  0  0  0  0  0
    7.3080    3.1340    1.5420 O   0  0  0  0  0  0  0  0  0  0  0  0
    7.9260    3.9520    0.7000 O   0  0  0  0  0  0  0  0  0  0  0  0
   -3.5880   -0.6970    0.6770 O   0  0  0  0  0  0  0  0  0  0  0  0
   -4.1000    0.4290    0.0600 C   0  0  2  0  0  0  0  0  0  0  0  0
   -5.5430    0.4140    0.2750 N   0  0  0  0  0  0  0  0  0  0  0  0
   -6.1770    1.5640   -0.3410 C   0  0  0  0  0  0  0  0  0  0  0  0
   -7.5440    1.5740   -0.1520 O   0  0  0  0  0  0  0  0  0  0  0  0
   -3.7720    0.5540   -1.2690 O   0  0  0  0  0  0  0  0  0  0  0  0
   -2.6300    1.3090   -1.3950 N   0  0  0  0  0  0  0  0  0  0  0  0
   -1.4660    0.5750   -0.2060 P   0  0  0  0  0  0  0  0  0  0  0  0
   -1.2120    1.6620    1.1120 O   0  0  0  0  0  0  0  0  0  0  0  0
   -1.2910    1.1000    2.2760 O   0  0  0  0  0  0  0  0  0  0  0  0
   -2.3340    1.5850    2.9190 O   0  0  0  0  0  0  0  0  0  0  0  0
  2  1  1  6
  2  3  1  0
  2 18  1  0
  2 25  1  0
  3  4  1  0
  4  5  1  0
  5  6  1  0
  6  7  1  0
  7  8  1  6
  7 11  1  0
  8  9  1  0
  9 10  1  0
 11 12  1  0
 12 13  2  3
 13 14  1  0
 14 15  1  0
 15 16  1  0
 16 17  1  0
 18 19  1  0
 19 20  1  6
 19 23  1  0
 20 21  1  0
 21 22  1  0
 23 24  1  0
 24 25  1  0
 25 26  1  0
 26 27  1  0
 27 28  1  0
M  END
