
     RDKit          3D

 26 25  0  0  0  0  0  0  0  0999 V2000
    2.3980   -2.0530   -4.9060 C   0  0  0  0  0  0  0  0  0  0  0  0
    2.7460   -2.8450   -3.7880 O   0  0  0  0  0  0  0  0  0  0  0  0
    2.0480   -3.8990   -3.3300 C   0  0  0  0  0  0  0  0  0  0  0  0
    1.2630   -4.1140   -2.3340 C   0  0  0  0  0  0  0  0  0  0  0  0
    0.7470   -5.4140   -2.2590 F   0  0  0  0  0  0  0  0  0  0  0  0
    0.8740   -3.2260   -1.2980 C   0  0  0  0  0  0  0  0  0  0  0  0
    0.0500   -3.7460   -0.4280 O   0  0  0  0  0  0  0  0  0  0  0  0
    1.2240   -1.8370   -1.0150 C   0  0  0  0  0  0  0  0  0  0  0  0
    0.7460   -1.4940    0.2430 O   0  0  0  0  0  0  0  0  0  0  0  0
    1.0770   -0.2770    0.9080 C   0  0  0  0  0  0  0  0  0  0  0  0
    1.8690    0.4320    0.2290 O   0  0  0  0  0  0  0  0  0  0  0  0
    0.5760    0.0800    2.1980 C   0  0  0  0  0  0  0  0  0  0  0  0
   -0.3510   -0.5170    2.9600 C   0  0  0  0  0  0  0  0  0  0  0  0
   -0.6490   -0.0070    4.1950 O   0  0  0  0  0  0  0  0  0  0  0  0
   -1.0570   -1.6800    2.4520 C   0  0  0  0  0  0  0  0  0  0  0  0
   -1.6760   -0.9000    1.0260 C   0  0  0  0  0  0  0  0  0  0  0  0
   -1.4520    0.3030    0.9790 C   0  0  0  0  0  0  0  0  0  0  0  0
   -1.7310    1.3670   -0.0200 C   0  0  0  0  0  0  0  0  0  0  0  0
   -1.3990    2.6220    0.3390 C   0  0  0  0  0  0  0  0  0  0  0  0
   -1.4940    3.8800   -0.3100 C   0  0  0  0  0  0  0  0  0  0  0  0
   -1.1540    4.9310    0.3570 C   0  0  0  0  0  0  0  0  0  0  0  0
   -0.8280    6.0940    0.9460 C   0  0  0  0  0  0  0  0  0  0  0  0
   -0.5360    6.1650    2.2330 O   0  0  0  0  0  0  0  0  0  0  0  0
   -0.7010    7.4020    0.3960 O   0  0  0  0  0  0  0  0  0  0  0  0
   -1.7000   -2.6300    2.3950 C   0  0  0  0  0  0  0  0  0  0  0  0
   -2.3060   -3.1770    3.5680 F   0  0  0  0  0  0  0  0  0  0  0  0
  1  2  1  0
  2  3  1  0
  3  4  2  3
  4  5  1  0
  4  6  1  0
  6  7  2  0
  6  8  1  0
  8  9  1  0
  9 10  1  0
 10 11  2  0
 10 12  1  0
 12 13  2  3
 13 14  1  0
 13 15  1  0
 15 16  1  0
 15 25  2  3
 16 17  2  3
 17 18  1  0
 18 19  2  3
 19 20  1  0
 20 21  2  3
 21 22  1  0
 22 23  2  0
 22 24  1  0
 25 26  1  0
M  END
