
     RDKit          3D

 25 25  0  0  0  0  0  0  0  0999 V2000
    6.1400    1.9040   -0.9310 C   0  0  0  0  0  0  0  0  0  0  0  0
    5.3660    0.7190   -0.8480 O   0  0  0  0  0  0  0  0  0  0  0  0
    5.8100   -0.4430   -0.2370 C   0  0  0  0  0  0  0  0  0  0  0  0
    6.9670   -0.4200    0.2640 O   0  0  0  0  0  0  0  0  0  0  0  0
    4.9730   -1.6710   -0.1660 C   0  0  0  0  0  0  0  0  0  0  0  0
    4.3540   -1.8370    1.2070 C   0  0  1  0  0  0  0  0  0  0  0  0
    5.3290   -1.9340    2.1670 F   0  0  0  0  0  0  0  0  0  0  0  0
    3.4770   -0.6710    1.5700 C   0  0  0  0  0  0  0  0  0  0  0  0
    2.3260   -0.5000    0.5720 C   0  0  1  0  0  0  0  0  0  0  0  0
    1.5690   -1.6420    0.5780 F   0  0  0  0  0  0  0  0  0  0  0  0
    1.5830    0.7390    0.9360 C   0  0  0  0  0  0  0  0  0  0  0  0
    0.4970    1.0720    0.1400 O   0  0  0  0  0  0  0  0  0  0  0  0
   -0.6550    0.3700   -0.0790 C   0  0  0  0  0  0  0  0  0  0  0  0
   -0.8030   -0.7310    0.4950 O   0  0  0  0  0  0  0  0  0  0  0  0
   -1.6830    0.7990   -0.9040 O   0  0  0  0  0  0  0  0  0  0  0  0
   -2.8440    0.0680   -1.1110 C   0  0  0  0  0  0  0  0  0  0  0  0
   -2.9980   -0.8710   -2.1050 C   0  0  0  0  0  0  0  0  0  0  0  0
   -4.1790   -1.5600   -2.2530 C   0  0  0  0  0  0  0  0  0  0  0  0
   -5.2480   -1.3120   -1.3870 C   0  0  0  0  0  0  0  0  0  0  0  0
   -5.0680   -0.3590   -0.3920 C   0  0  0  0  0  0  0  0  0  0  0  0
   -6.1930   -0.0810    0.5410 C   0  0  0  0  0  0  0  0  0  0  0  0
   -7.2810   -0.8660    0.2310 O   0  0  0  0  0  0  0  0  0  0  0  0
   -3.8960    0.3390   -0.2280 C   0  0  0  0  0  0  0  0  0  0  0  0
   -3.8090    1.2680    0.7920 O   0  0  0  0  0  0  0  0  0  0  0  0
   -4.1590    2.6330    0.6290 C   0  0  0  0  0  0  0  0  0  0  0  0
  1  2  1  0
  2  3  1  0
  3  4  2  0
  3  5  1  0
  5  6  1  0
  6  7  1  1
  6  8  1  0
  8  9  1  0
  9 10  1  1
  9 11  1  0
 11 12  1  0
 12 13  1  0
 13 14  2  0
 13 15  1  0
 15 16  1  0
 16 17  2  0
 16 23  1  0
 17 18  1  0
 18 19  2  0
 19 20  1  0
 20 21  1  0
 20 23  2  0
 21 22  1  0
 23 24  1  0
 24 25  1  0
M  END
