
     RDKit          3D

 28 28  0  0  0  0  0  0  0  0999 V2000
   -3.1940   -2.0560    3.8840 C   0  0  0  0  0  0  0  0  0  0  0  0
   -2.1260   -1.4250    3.0600 C   0  0  0  0  0  0  0  0  0  0  0  0
   -2.1340   -1.9750    1.7450 O   0  0  0  0  0  0  0  0  0  0  0  0
   -1.1350   -1.4690    1.1220 O   0  0  0  0  0  0  0  0  0  0  0  0
   -1.2190   -0.4200    0.2940 C   0  0  2  0  0  0  0  0  0  0  0  0
   -0.1860    0.5900    0.7590 C   0  0  0  0  0  0  0  0  0  0  0  0
    0.9480   -0.3230    0.7910 O   0  0  0  0  0  0  0  0  0  0  0  0
    1.9380    0.2870   -0.4640 P   0  0  0  0  0  0  0  0  0  0  0  0
    1.9850    1.9050   -0.6790 O   0  0  0  0  0  0  0  0  0  0  0  0
    2.9890   -0.7820   -1.2210 O   0  0  0  0  0  0  0  0  0  0  0  0
    4.1590   -0.6260   -0.7010 O   0  0  0  0  0  0  0  0  0  0  0  0
    4.3390   -1.0830    0.4980 O   0  0  0  0  0  0  0  0  0  0  0  0
    5.6070   -0.2430    1.2470 P   0  0  0  0  0  0  0  0  0  0  0  0
    4.9820    1.2430    2.0090 N   0  0  0  0  0  0  0  0  0  0  0  0
    6.9940    0.1400    0.1150 C   0  0  0  0  0  0  0  0  0  0  0  0
    7.2200   -0.6960   -0.9410 O   0  0  0  0  0  0  0  0  0  0  0  0
    6.2990   -0.7360   -1.9030 N   0  0  0  0  0  0  0  0  0  0  0  0
   -2.4780    0.1170   -0.0480 N   0  0  0  0  0  0  0  0  0  0  0  0
   -3.1320   -0.6720   -1.0020 C   0  0  0  0  0  0  0  0  0  0  0  0
   -4.0770   -0.0840   -1.9650 C   0  0  2  0  0  0  0  0  0  0  0  0
   -4.9450   -1.1260   -2.3610 O   0  0  0  0  0  0  0  0  0  0  0  0
   -3.5370    0.3900   -3.1530 O   0  0  0  0  0  0  0  0  0  0  0  0
   -4.4940    0.8010   -3.9340 O   0  0  0  0  0  0  0  0  0  0  0  0
   -5.0490    1.8730   -3.5090 O   0  0  0  0  0  0  0  0  0  0  0  0
   -4.8840    0.9120   -1.4180 O   0  0  0  0  0  0  0  0  0  0  0  0
   -4.0160    2.0180   -0.3970 P   0  0  0  0  0  0  0  0  0  0  0  0
   -3.0230    3.0440   -1.3520 O   0  0  0  0  0  0  0  0  0  0  0  0
   -3.0460    1.0130    0.6640 O   0  0  0  0  0  0  0  0  0  0  0  0
  1  2  1  0
  2  3  1  0
  3  4  1  0
  4  5  1  0
  5  6  1  1
  5 18  1  0
  6  7  1  0
  7  8  1  0
  8  9  1  0
  8 10  1  0
 10 11  1  0
 11 12  1  0
 12 13  1  0
 13 14  1  0
 13 15  1  0
 15 16  1  0
 16 17  1  0
 18 19  1  0
 18 28  1  0
 19 20  1  0
 20 21  1  6
 20 22  1  0
 20 25  1  0
 22 23  1  0
 23 24  1  0
 25 26  1  0
 26 27  1  0
 26 28  1  0
M  END
