
     RDKit          3D

 26 26  0  0  0  0  0  0  0  0999 V2000
    6.6170   -1.0810   -1.5220 O   0  0  0  0  0  0  0  0  0  0  0  0
    6.1410   -2.1460   -1.0810 C   0  0  0  0  0  0  0  0  0  0  0  0
    6.7940   -3.3300   -1.4450 O   0  0  0  0  0  0  0  0  0  0  0  0
    5.0350   -2.1150   -0.2850 O   0  0  0  0  0  0  0  0  0  0  0  0
    4.3230   -0.9700    0.1300 C   0  0  0  0  0  0  0  0  0  0  0  0
    5.2170   -0.0990    0.9410 C   0  0  0  0  0  0  0  0  0  0  0  0
    4.6180    1.1640    1.4550 C   0  0  0  0  0  0  0  0  0  0  0  0
    3.4300    0.9670    2.3180 C   0  0  0  0  0  0  0  0  0  0  0  0
    2.3220    0.3940    1.7470 O   0  0  0  0  0  0  0  0  0  0  0  0
    1.7940    1.1630    0.7160 C   0  0  0  0  0  0  0  0  0  0  0  0
    0.4960    0.4880    0.1640 C   0  0  2  0  0  0  0  0  0  0  0  0
   -0.4890    0.3600    1.2240 C   0  0  0  0  0  0  0  0  0  0  0  0
   -1.7830   -0.2280    1.1520 C   0  0  0  0  0  0  0  0  0  0  0  0
   -2.9130    0.1830    0.2730 C   0  0  1  0  0  0  0  0  0  0  0  0
   -3.3820    1.5650    0.4100 C   0  0  0  0  0  0  0  0  0  0  0  0
   -4.5060    2.0000   -0.4820 C   0  0  0  0  0  0  0  0  0  0  0  0
   -4.8610    3.3250   -0.2610 F   0  0  0  0  0  0  0  0  0  0  0  0
   -2.7740   -0.2240   -0.9970 O   0  0  0  0  0  0  0  0  0  0  0  0
   -3.4030   -1.2370   -1.5710 C   0  0  0  0  0  0  0  0  0  0  0  0
   -4.8670   -1.3120   -1.7610 C   0  0  2  0  0  0  0  0  0  0  0  0
   -5.2980   -0.2440   -2.5330 F   0  0  0  0  0  0  0  0  0  0  0  0
   -5.7430   -1.5620   -0.5990 C   0  0  0  0  0  0  0  0  0  0  0  0
   -5.4450   -2.7670    0.0410 O   0  0  0  0  0  0  0  0  0  0  0  0
    0.8250   -0.5320   -0.8230 C   0  0  0  0  0  0  0  0  0  0  0  0
    1.3370    0.5330   -1.6250 O   0  0  0  0  0  0  0  0  0  0  0  0
    0.2020    1.2440   -1.1090 C   0  0  0  0  0  0  0  0  0  0  0  0
  1  2  2  0
  2  3  1  0
  2  4  1  0
  4  5  1  0
  5  6  1  0
  6  7  1  0
  7  8  1  0
  8  9  1  0
  9 10  1  0
 11 10  1  1
 11 12  1  0
 11 24  1  0
 11 26  1  0
 12 13  1  0
 14 13  1  1
 14 15  1  0
 14 18  1  0
 15 16  1  0
 16 17  1  0
 18 19  1  0
 19 20  1  0
 20 21  1  1
 20 22  1  0
 22 23  1  0
 24 25  1  0
 25 26  1  0
M  END
