
     RDKit          3D

 24 26  0  0  0  0  0  0  0  0999 V2000
   -4.7590    0.4820   -1.8110 N   0  0  0  0  0  0  0  0  0  0  0  0
   -3.9530    0.8140   -0.6620 C   0  0  0  0  0  0  0  0  0  0  0  0
   -2.7800    0.2080   -0.4460 N   0  0  0  0  0  0  0  0  0  0  0  0
   -2.0250    0.5290    0.6440 C   0  0  0  0  0  0  0  0  0  0  0  0
   -2.4980    1.4890    1.5140 C   0  0  0  0  0  0  0  0  0  0  0  0
   -1.5590    1.5890    2.4690 N   0  0  0  0  0  0  0  0  0  0  0  0
   -0.5570    0.7360    2.2050 C   0  0  0  0  0  0  0  0  0  0  0  0
   -0.8240    0.0760    1.0890 N   0  0  0  0  0  0  0  0  0  0  0  0
   -0.0730   -0.9280    0.4040 C   0  0  2  0  0  0  0  0  0  0  0  0
    0.6610   -1.7410    1.2620 O   0  0  0  0  0  0  0  0  0  0  0  0
    1.4690   -2.4910    0.4490 C   0  0  2  0  0  0  0  0  0  0  0  0
    2.8180   -2.6620    1.1450 C   0  0  0  0  0  0  0  0  0  0  0  0
    3.6810   -3.4180    0.3640 O   0  0  0  0  0  0  0  0  0  0  0  0
    1.7000   -1.7500   -0.8260 C   0  0  1  0  0  0  0  0  0  0  0  0
    1.0370   -2.3390   -1.9030 O   0  0  0  0  0  0  0  0  0  0  0  0
    0.9630   -0.4300   -0.5450 C   0  0  2  0  0  0  0  0  0  0  0  0
    1.7740    0.4720    0.0970 O   0  0  0  0  0  0  0  0  0  0  0  0
    2.0910    1.8550   -0.4670 P   0  0  0  0  0  0  0  0  0  0  0  0
    2.8030    2.3730    0.9020 O   0  0  0  0  0  0  0  0  0  0  0  0
    0.4630    2.1230   -0.7030 O   0  0  0  0  0  0  0  0  0  0  0  0
    2.9570    1.1770   -1.6970 O   0  0  0  0  0  0  0  0  0  0  0  0
   -3.7160    2.1240    1.2980 C   0  0  0  0  0  0  0  0  0  0  0  0
   -4.1420    2.9990    2.0950 O   0  0  0  0  0  0  0  0  0  0  0  0
   -4.3980    1.7500    0.2000 N   0  0  0  0  0  0  0  0  0  0  0  0
  1  2  1  0
  2  3  2  0
  2 24  1  0
  3  4  1  0
  4  5  2  0
  4  8  1  0
  5  6  1  0
  5 22  1  0
  6  7  2  0
  7  8  1  0
  9  8  1  1
  9 10  1  0
  9 16  1  0
 10 11  1  0
 11 12  1  1
 11 14  1  0
 12 13  1  0
 14 15  1  6
 14 16  1  0
 16 17  1  1
 17 18  1  0
 18 19  1  0
 18 20  1  0
 18 21  1  0
 22 23  2  0
 22 24  1  0
M  END
