
     RDKit          3D

 27 29  0  0  0  0  0  0  0  0999 V2000
    5.3870   -2.1840   -1.5950 C   0  0  0  0  0  0  0  0  0  0  0  0
    4.0860   -2.3760   -0.9430 N   0  0  0  0  0  0  0  0  0  0  0  0
    3.7560   -1.8080    0.2980 C   0  0  0  0  0  0  0  0  0  0  0  0
    4.5840   -1.1040    0.9000 O   0  0  0  0  0  0  0  0  0  0  0  0
    2.4260   -2.0290    0.9210 C   0  0  2  0  0  0  0  0  0  0  0  0
    1.5720   -2.7940    0.2390 O   0  0  0  0  0  0  0  0  0  0  0  0
    0.4050   -2.1020   -0.0420 C   0  0  0  0  0  0  0  0  0  0  0  0
   -0.5380   -2.5600   -0.7090 O   0  0  0  0  0  0  0  0  0  0  0  0
    0.5380   -0.7670    0.5760 C   0  0  0  0  0  0  0  0  0  0  0  0
   -0.2320    0.4190    0.3230 C   0  0  0  0  0  0  0  0  0  0  0  0
   -1.4020    0.8220   -0.0180 C   0  0  0  0  0  0  0  0  0  0  0  0
   -1.6810    2.2450   -0.2130 N   0  0  0  0  0  0  0  0  0  0  0  0
   -3.0480    2.4500   -0.3750 C   0  0  0  0  0  0  0  0  0  0  0  0
   -3.6120    3.5770   -0.5700 O   0  0  0  0  0  0  0  0  0  0  0  0
   -3.7250    1.1920   -0.2870 C   0  0  0  0  0  0  0  0  0  0  0  0
   -4.9710    0.6260   -0.2680 C   0  0  0  0  0  0  0  0  0  0  0  0
   -6.3010    1.2660   -0.4680 C   0  0  0  0  0  0  0  0  0  0  0  0
   -4.7880   -0.6510   -0.0310 N   0  0  0  0  0  0  0  0  0  0  0  0
   -3.4590   -0.9230    0.1020 C   0  0  0  0  0  0  0  0  0  0  0  0
   -2.9990   -2.2450    0.5760 C   0  0  0  0  0  0  0  0  0  0  0  0
   -2.7480    0.2160   -0.0680 C   0  0  0  0  0  0  0  0  0  0  0  0
    1.7590   -0.7260    1.1600 C   0  0  0  0  0  0  0  0  0  0  0  0
    2.3240    0.2910    1.8550 O   0  0  0  0  0  0  0  0  0  0  0  0
    2.4930    1.6140    1.8530 C   0  0  0  0  0  0  0  0  0  0  0  0
    3.1780    2.2080    0.6690 C   0  0  0  0  0  0  0  0  0  0  0  0
    3.3550    3.6230    0.6770 N   0  0  0  0  0  0  0  0  0  0  0  0
    3.5970    1.5740   -0.3040 O   0  0  0  0  0  0  0  0  0  0  0  0
  1  2  1  0
  2  3  1  0
  3  4  2  0
  5  3  1  6
  5  6  1  0
  5 22  1  0
  6  7  1  0
  7  8  2  0
  7  9  1  0
  9 10  1  0
  9 22  2  0
 10 11  2  3
 11 12  1  0
 11 21  1  0
 12 13  1  0
 13 14  2  0
 13 15  1  0
 15 16  2  0
 15 21  1  0
 16 17  1  0
 16 18  1  0
 18 19  1  0
 19 20  1  0
 19 21  2  0
 22 23  1  0
 23 24  1  0
 24 25  1  0
 25 26  1  0
 25 27  2  0
M  END
