
     RDKit          3D

 27 29  0  0  0  0  0  0  0  0999 V2000
    7.7220   -0.4030    0.4490 C   0  0  0  0  0  0  0  0  0  0  0  0
    6.3060   -0.8320    0.2600 C   0  0  0  0  0  0  0  0  0  0  0  0
    5.6290   -1.0300    1.2880 O   0  0  0  0  0  0  0  0  0  0  0  0
    5.7190   -1.0170   -1.0130 N   0  0  0  0  0  0  0  0  0  0  0  0
    4.3450   -1.4330   -1.1540 C   0  0  0  0  0  0  0  0  0  0  0  0
    3.4270   -0.4410   -0.5160 C   0  0  0  0  0  0  0  0  0  0  0  0
    3.9520    0.5610    0.0230 O   0  0  0  0  0  0  0  0  0  0  0  0
    2.0620   -0.6050   -0.5130 O   0  0  0  0  0  0  0  0  0  0  0  0
    1.2380    0.3760    0.1070 C   0  0  2  0  0  0  0  0  0  0  0  0
    1.4080    1.6890   -0.5410 C   0  0  0  0  0  0  0  0  0  0  0  0
    1.7010    0.5370    1.5720 C   0  0  0  0  0  0  0  0  0  0  0  0
   -0.1530   -0.1420    0.1540 C   0  0  0  0  0  0  0  0  0  0  0  0
   -1.2080    0.3580   -0.4390 C   0  0  0  0  0  0  0  0  0  0  0  0
   -1.4520    1.4900   -1.2920 N   0  0  0  0  0  0  0  0  0  0  0  0
   -2.6990    2.1360   -1.1270 C   0  0  0  0  0  0  0  0  0  0  0  0
   -3.1120    2.9370   -1.9840 O   0  0  0  0  0  0  0  0  0  0  0  0
   -3.4920    1.8350    0.0810 C   0  0  0  0  0  0  0  0  0  0  0  0
   -3.5040    0.3960    0.4900 C   0  0  1  0  0  0  0  0  0  0  0  0
   -4.8700   -0.1750    0.2730 C   0  0  0  0  0  0  0  0  0  0  0  0
   -5.1900   -1.2880   -0.3830 C   0  0  0  0  0  0  0  0  0  0  0  0
   -6.6680   -1.4000   -0.3060 C   0  0  0  0  0  0  0  0  0  0  0  0
   -7.0640   -0.0960   -0.0570 O   0  0  0  0  0  0  0  0  0  0  0  0
   -6.0860    0.3900    0.7400 N   0  0  0  0  0  0  0  0  0  0  0  0
   -2.4430   -0.4550   -0.1370 C   0  0  2  0  0  0  0  0  0  0  0  0
   -1.9700   -1.5380    0.6650 N   0  0  0  0  0  0  0  0  0  0  0  0
   -0.5840   -1.3570    0.8730 C   0  0  0  0  0  0  0  0  0  0  0  0
    0.2120   -2.0690    1.5450 O   0  0  0  0  0  0  0  0  0  0  0  0
  1  2  1  0
  2  3  2  0
  2  4  1  0
  4  5  1  0
  5  6  1  0
  6  7  2  0
  6  8  1  0
  8  9  1  0
  9 10  1  6
  9 11  1  0
  9 12  1  0
 12 13  2  0
 12 26  1  0
 13 14  1  0
 13 24  1  0
 14 15  1  0
 15 16  2  0
 15 17  1  0
 17 18  1  0
 18 19  1  6
 18 24  1  0
 19 20  2  0
 19 23  1  0
 20 21  1  0
 21 22  1  0
 22 23  1  0
 24 25  1  1
 25 26  1  0
 26 27  2  0
M  END
