
     RDKit          3D

 27 28  0  0  0  0  0  0  0  0999 V2000
    3.3690    1.7060    2.4930 C   0  0  0  0  0  0  0  0  0  0  0  0
    3.7410    1.8640    1.1390 O   0  0  0  0  0  0  0  0  0  0  0  0
    2.9350    1.2250    0.1180 C   0  0  0  0  0  0  0  0  0  0  0  0
    1.7720    1.8040   -0.0120 C   0  0  0  0  0  0  0  0  0  0  0  0
    0.6760    1.4280   -0.9640 C   0  0  0  0  0  0  0  0  0  0  0  0
   -0.6050    1.7980   -0.3360 C   0  0  1  0  0  0  0  0  0  0  0  0
   -0.7640    3.2730   -0.3590 N   0  0  0  0  0  0  0  0  0  0  0  0
   -1.7830    1.3230   -0.9270 O   0  0  0  0  0  0  0  0  0  0  0  0
   -2.6270    0.3430   -0.5500 C   0  0  0  0  0  0  0  0  0  0  0  0
   -3.9280    0.5970   -0.2680 C   0  0  0  0  0  0  0  0  0  0  0  0
   -4.5190    1.9150   -0.3480 C   0  0  0  0  0  0  0  0  0  0  0  0
   -5.7120    2.0660   -0.0750 O   0  0  0  0  0  0  0  0  0  0  0  0
   -4.7360   -0.5750    0.1640 C   0  0  0  0  0  0  0  0  0  0  0  0
   -4.0240   -1.2400    1.3160 C   0  0  0  0  0  0  0  0  0  0  0  0
   -2.5290   -1.4030    1.0780 C   0  0  0  0  0  0  0  0  0  0  0  0
   -2.3040   -1.0990   -0.3890 C   0  0  2  0  0  0  0  0  0  0  0  0
   -1.0450   -1.5310   -0.9050 N   0  0  0  0  0  0  0  0  0  0  0  0
   -0.0510   -2.3980   -0.3990 C   0  0  0  0  0  0  0  0  0  0  0  0
   -0.1460   -3.6410   -0.9270 O   0  0  0  0  0  0  0  0  0  0  0  0
    1.0410   -2.2800    0.5440 C   0  0  0  0  0  0  0  0  0  0  0  0
    0.6570   -2.6270    1.7700 O   0  0  0  0  0  0  0  0  0  0  0  0
    2.4050   -1.8910    0.4450 N   0  0  0  0  0  0  0  0  0  0  0  0
    3.2650   -1.2330   -0.4410 C   0  0  0  0  0  0  0  0  0  0  0  0
    4.1550   -2.0580   -1.3350 C   0  0  0  0  0  0  0  0  0  0  0  0
    5.0240   -1.4290   -2.2650 N   0  0  0  0  0  0  0  0  0  0  0  0
    4.1590   -3.3090   -1.2910 O   0  0  0  0  0  0  0  0  0  0  0  0
    3.4960    0.0870   -0.5880 C   0  0  0  0  0  0  0  0  0  0  0  0
  1  2  1  0
  2  3  1  0
  3  4  2  0
  3 27  1  0
  4  5  1  0
  5  6  1  0
  6  7  1  6
  6  8  1  0
  8  9  1  0
  9 10  2  0
  9 16  1  0
 10 11  1  0
 10 13  1  0
 11 12  2  0
 13 14  1  0
 14 15  1  0
 16 15  1  1
 16 17  1  0
 17 18  1  0
 18 19  2  0
 18 20  1  0
 20 21  2  0
 20 22  1  0
 22 23  1  0
 23 24  1  0
 23 27  2  0
 24 25  1  0
 24 26  2  0
M  END
