
     RDKit          3D

 16 17  0  0  0  0  0  0  0  0999 V2000
    4.9400    0.9170   -0.6550 O   0  0  0  0  0  0  0  0  0  0  0  0
    4.3410    0.0300    0.0310 C   0  0  0  0  0  0  0  0  0  0  0  0
    4.2880    0.0870    1.4210 O   0  0  0  0  0  0  0  0  0  0  0  0
    3.6950   -1.0730   -0.6920 C   0  0  0  0  0  0  0  0  0  0  0  0
    2.3670   -0.6260   -1.2970 C   0  0  0  0  0  0  0  0  0  0  0  0
    1.4910   -0.1740   -0.1530 C   0  0  0  0  0  0  0  0  0  0  0  0
    0.1370    0.2940   -0.6520 C   0  0  0  0  0  0  0  0  0  0  0  0
   -0.6640    0.7250    0.5760 C   0  0  2  0  0  0  0  0  0  0  0  0
   -0.7670   -0.7810    1.6140 S   0  0  0  0  0  0  0  0  0  0  0  0
   -2.4320   -1.2630    0.9980 C   0  0  0  0  0  0  0  0  0  0  0  0
   -3.0240    0.0870    0.8280 C   0  0  2  0  0  0  0  0  0  0  0  0
   -4.1370    0.0750   -0.0940 N   0  0  0  0  0  0  0  0  0  0  0  0
   -3.7640    0.7420   -1.2850 C   0  0  0  0  0  0  0  0  0  0  0  0
   -4.5300    0.9930   -2.2770 O   0  0  0  0  0  0  0  0  0  0  0  0
   -2.3910    1.0680   -1.1490 N   0  0  0  0  0  0  0  0  0  0  0  0
   -2.0580    1.0330    0.2350 C   0  0  2  0  0  0  0  0  0  0  0  0
  1  2  2  0
  2  3  1  0
  2  4  1  0
  4  5  1  0
  5  6  1  0
  6  7  1  0
  8  7  1  6
  8  9  1  0
  8 16  1  0
  9 10  1  0
 11 10  1  6
 11 12  1  0
 11 16  1  0
 12 13  1  0
 13 14  2  0
 13 15  1  0
 16 15  1  6
M  END
