
     RDKit          3D

 27 29  0  0  0  0  0  0  0  0999 V2000
    5.4950    2.0400   -0.7090 C   0  0  0  0  0  0  0  0  0  0  0  0
    4.5540    1.2010    0.1020 C   0  0  0  0  0  0  0  0  0  0  0  0
    3.2080    1.0390   -0.5700 C   0  0  0  0  0  0  0  0  0  0  0  0
    2.2640    0.2040    0.2300 C   0  0  2  0  0  0  0  0  0  0  0  0
    1.9660    0.7630    1.5940 C   0  0  0  0  0  0  0  0  0  0  0  0
    2.8390   -1.1510    0.4800 N   0  0  0  0  0  0  0  0  0  0  0  0
    1.6550   -1.8740    0.9020 C   0  0  0  0  0  0  0  0  0  0  0  0
    1.7270   -2.8380    1.7060 O   0  0  0  0  0  0  0  0  0  0  0  0
    0.4950   -1.3070    0.2720 N   0  0  0  0  0  0  0  0  0  0  0  0
   -0.8240   -1.8200    0.2080 C   0  0  0  0  0  0  0  0  0  0  0  0
   -1.8640   -1.0150    0.0590 C   0  0  0  0  0  0  0  0  0  0  0  0
   -1.6110    0.3760    0.0250 N   0  0  0  0  0  0  0  0  0  0  0  0
   -2.3840    1.4690   -0.3940 C   0  0  0  0  0  0  0  0  0  0  0  0
   -1.7170    2.6790   -0.7700 C   0  0  0  0  0  0  0  0  0  0  0  0
   -2.3730    3.7050   -1.1700 O   0  0  0  0  0  0  0  0  0  0  0  0
   -0.3380    2.7870   -0.7110 O   0  0  0  0  0  0  0  0  0  0  0  0
   -3.7230    1.5240   -0.4150 C   0  0  0  0  0  0  0  0  0  0  0  0
   -4.6230    0.4010    0.0170 C   0  0  0  0  0  0  0  0  0  0  0  0
   -4.2920   -0.8550   -0.6860 C   0  0  0  0  0  0  0  0  0  0  0  0
   -3.1520   -1.6690   -0.2850 C   0  0  2  0  0  0  0  0  0  0  0  0
   -3.4050   -2.8220    0.5490 C   0  0  0  0  0  0  0  0  0  0  0  0
   -4.4830   -3.0610    1.1600 O   0  0  0  0  0  0  0  0  0  0  0  0
   -2.3490   -3.7600    0.6890 N   0  0  0  0  0  0  0  0  0  0  0  0
   -1.0350   -3.2630    0.5230 C   0  0  0  0  0  0  0  0  0  0  0  0
   -0.0800   -4.0430    0.6400 O   0  0  0  0  0  0  0  0  0  0  0  0
    1.0810   -0.2410   -0.5250 C   0  0  0  0  0  0  0  0  0  0  0  0
    0.6450    0.1840   -1.6330 O   0  0  0  0  0  0  0  0  0  0  0  0
  1  2  1  0
  2  3  1  0
  3  4  1  0
  4  5  1  1
  4  6  1  0
  4 26  1  0
  6  7  1  0
  7  8  2  0
  7  9  1  0
  9 10  1  0
  9 26  1  0
 10 11  2  0
 10 24  1  0
 11 12  1  0
 11 20  1  0
 12 13  1  0
 13 14  1  0
 13 17  2  0
 14 15  2  0
 14 16  1  0
 17 18  1  0
 18 19  1  0
 20 19  1  1
 20 21  1  0
 21 22  2  0
 21 23  1  0
 23 24  1  0
 24 25  2  0
 26 27  2  0
M  END
