
     RDKit          3D

 11 11  0  0  0  0  0  0  0  0999 V2000
    2.1500    0.4250    1.2880 C   0  0  0  0  0  0  0  0  0  0  0  0
    2.1660    0.2500   -0.0100 C   0  0  0  0  0  0  0  0  0  0  0  0
    3.3790    0.6650   -0.8030 C   0  0  0  0  0  0  0  0  0  0  0  0
    1.0520   -0.3630   -0.7480 C   0  0  0  0  0  0  0  0  0  0  0  0
   -0.0520   -0.8250    0.0160 N   0  0  0  0  0  0  0  0  0  0  0  0
    0.1150   -1.9950    0.8630 C   0  0  0  0  0  0  0  0  0  0  0  0
   -1.3320   -0.1520   -0.0510 C   0  0  0  0  0  0  0  0  0  0  0  0
   -2.2740   -0.3110    0.8090 N   0  0  0  0  0  0  0  0  0  0  0  0
   -3.4510    0.4680    0.5230 C   0  0  0  0  0  0  0  0  0  0  0  0
   -3.0320    1.2720   -0.6750 C   0  0  0  0  0  0  0  0  0  0  0  0
   -1.7730    0.7350   -0.9850 O   0  0  0  0  0  0  0  0  0  0  0  0
  1  2  2  0
  2  3  1  0
  2  4  1  0
  4  5  1  0
  5  6  1  0
  5  7  1  0
  7  8  2  0
  7 11  1  0
  8  9  1  0
  9 10  1  0
 10 11  1  0
M  END
