
     RDKit          3D

 19 20  0  0  0  0  0  0  0  0999 V2000
    3.1010    0.8590    2.1030 N   0  0  0  0  0  0  0  0  0  0  0  0
    3.1160   -0.1340    0.9970 C   0  0  1  0  0  0  0  0  0  0  0  0
    1.8780   -0.0930    0.2410 C   0  0  0  0  0  0  0  0  0  0  0  0
    1.8180    0.2030   -1.0280 C   0  0  0  0  0  0  0  0  0  0  0  0
    0.5260    0.2250   -1.7470 C   0  0  0  0  0  0  0  0  0  0  0  0
   -0.6070   -0.1760   -0.9840 N   0  0  0  0  0  0  0  0  0  0  0  0
   -0.7810   -1.4900   -0.4480 C   0  0  0  0  0  0  0  0  0  0  0  0
    0.0900   -2.3740   -0.6470 O   0  0  0  0  0  0  0  0  0  0  0  0
   -2.0120   -1.7810    0.3480 C   0  0  0  0  0  0  0  0  0  0  0  0
   -2.8570   -0.6070    0.4370 N   0  0  0  0  0  0  0  0  0  0  0  0
   -2.8420    0.3370    1.3470 N   0  0  0  0  0  0  0  0  0  0  0  0
   -3.7780    1.2630    1.0900 C   0  0  0  0  0  0  0  0  0  0  0  0
   -4.0460    2.3140    1.7590 O   0  0  0  0  0  0  0  0  0  0  0  0
   -4.3970    0.8560   -0.0430 N   0  0  0  0  0  0  0  0  0  0  0  0
   -3.8280   -0.2950   -0.4420 C   0  0  0  0  0  0  0  0  0  0  0  0
   -4.1210   -0.9880   -1.4500 O   0  0  0  0  0  0  0  0  0  0  0  0
    3.0460    0.5260   -1.7760 C   0  0  0  0  0  0  0  0  0  0  0  0
    4.1720    0.4930   -1.0900 C   0  0  0  0  0  0  0  0  0  0  0  0
    4.2300    0.1820    0.2390 O   0  0  0  0  0  0  0  0  0  0  0  0
  2  1  1  1
  2  3  1  0
  2 19  1  0
  3  4  2  0
  4  5  1  0
  4 17  1  0
  5  6  1  0
  6  7  1  0
  7  8  2  0
  7  9  1  0
  9 10  1  0
 10 11  1  0
 10 15  1  0
 11 12  1  0
 12 13  2  0
 12 14  1  0
 14 15  1  0
 15 16  2  0
 17 18  2  0
 18 19  1  0
M  END
