
     RDKit          3D

 19 20  0  0  0  0  0  0  0  0999 V2000
   -5.1080    1.1790    0.0880 N   0  0  0  0  0  0  0  0  0  0  0  0
   -4.9750   -0.2390   -0.2090 C   0  0  0  0  0  0  0  0  0  0  0  0
   -5.9930   -0.8810   -0.2160 O   0  0  0  0  0  0  0  0  0  0  0  0
   -3.6430   -0.7710   -0.4530 C   0  0  2  0  0  0  0  0  0  0  0  0
   -2.5750   -0.5740    0.5570 C   0  0  0  0  0  0  0  0  0  0  0  0
   -1.3360   -0.9990   -0.1880 C   0  0  2  0  0  0  0  0  0  0  0  0
   -0.2900   -0.0120   -0.0380 N   0  0  0  0  0  0  0  0  0  0  0  0
    1.0880   -0.4050    0.0340 C   0  0  0  0  0  0  0  0  0  0  0  0
    1.4480   -1.5860    0.0080 O   0  0  0  0  0  0  0  0  0  0  0  0
    2.0330    0.6850    0.0980 N   0  0  0  0  0  0  0  0  0  0  0  0
    3.4370    0.4640    0.1030 C   0  0  0  0  0  0  0  0  0  0  0  0
    4.2010    1.0350    0.9990 C   0  0  0  0  0  0  0  0  0  0  0  0
    5.6550    0.7670    0.9980 C   0  0  0  0  0  0  0  0  0  0  0  0
    6.0880    0.2370   -0.2330 O   0  0  0  0  0  0  0  0  0  0  0  0
    5.2910   -0.3900   -1.1300 N   0  0  0  0  0  0  0  0  0  0  0  0
    4.0070   -0.2950   -0.9930 C   0  0  0  0  0  0  0  0  0  0  0  0
   -1.7100   -0.8000   -1.6780 C   0  0  0  0  0  0  0  0  0  0  0  0
   -0.9040   -1.0110   -2.5800 O   0  0  0  0  0  0  0  0  0  0  0  0
   -3.0480   -0.3560   -1.6970 N   0  0  0  0  0  0  0  0  0  0  0  0
  1  2  1  0
  2  3  2  0
  4  2  1  1
  4  5  1  0
  4 19  1  0
  5  6  1  0
  6  7  1  1
  6 17  1  0
  7  8  1  0
  8  9  2  0
  8 10  1  0
 10 11  1  0
 11 12  2  0
 11 16  1  0
 12 13  1  0
 13 14  1  0
 14 15  1  0
 15 16  2  0
 17 18  2  0
 17 19  1  0
M  END
