
     RDKit          3D

 19 20  0  0  0  0  0  0  0  0999 V2000
    3.4800    1.5460    0.4930 C   0  0  0  0  0  0  0  0  0  0  0  0
    3.1800    0.2120   -0.0350 C   0  0  0  0  0  0  0  0  0  0  0  0
    1.9720   -0.3050   -0.1740 C   0  0  0  0  0  0  0  0  0  0  0  0
    1.7750   -1.6580   -0.7160 C   0  0  0  0  0  0  0  0  0  0  0  0
    2.9450   -2.3820   -1.0840 N   0  0  0  0  0  0  0  0  0  0  0  0
    0.5910   -2.1360   -0.8380 N   0  0  0  0  0  0  0  0  0  0  0  0
   -0.6130   -1.4360   -0.4780 C   0  0  0  0  0  0  0  0  0  0  0  0
   -0.5210   -0.2200    0.0120 C   0  0  0  0  0  0  0  0  0  0  0  0
    0.7890    0.3850    0.1800 N   0  0  0  0  0  0  0  0  0  0  0  0
    0.9000    1.6600    0.6990 N   0  0  0  0  0  0  0  0  0  0  0  0
    0.4400    2.6210    0.0590 O   0  0  0  0  0  0  0  0  0  0  0  0
   -1.7060    0.5970    0.3930 C   0  0  2  0  0  0  0  0  0  0  0  0
   -2.1080    1.4420   -0.8070 C   0  0  0  0  0  0  0  0  0  0  0  0
   -1.4200    1.4070    1.4710 O   0  0  0  0  0  0  0  0  0  0  0  0
   -2.9160   -0.2420    0.7520 C   0  0  2  0  0  0  0  0  0  0  0  0
   -2.8120   -0.6950    2.0510 O   0  0  0  0  0  0  0  0  0  0  0  0
   -3.0730   -1.3650   -0.2320 C   0  0  0  0  0  0  0  0  0  0  0  0
   -4.2090   -1.6300   -0.6580 O   0  0  0  0  0  0  0  0  0  0  0  0
   -1.8880   -2.0730   -0.6290 N   0  0  0  0  0  0  0  0  0  0  0  0
  1  2  1  0
  2  3  2  3
  3  4  1  0
  3  9  1  0
  4  5  1  0
  4  6  2  0
  6  7  1  0
  7  8  2  0
  7 19  1  0
  8  9  1  0
  8 12  1  0
  9 10  1  0
 10 11  2  0
 12 13  1  6
 12 14  1  0
 12 15  1  0
 15 16  1  1
 15 17  1  0
 17 18  2  0
 17 19  1  0
M  END
