
     RDKit          3D

 19 20  0  0  0  0  0  0  0  0999 V2000
    0.0460    0.6270    1.0910 O   0  0  0  0  0  0  0  0  0  0  0  0
   -0.0780   -0.5120    0.9680 C   0  0  0  0  0  0  0  0  0  0  0  0
   -1.1860   -1.4140    0.8020 C   0  0  0  0  0  0  0  0  0  0  0  0
   -2.5450   -0.7830    0.8500 C   0  0  2  0  0  0  0  0  0  0  0  0
   -3.4900   -1.8560    0.6900 N   0  0  0  0  0  0  0  0  0  0  0  0
   -4.2530   -1.6090   -0.4340 N   0  0  0  0  0  0  0  0  0  0  0  0
   -3.8740   -0.4990   -1.0060 C   0  0  0  0  0  0  0  0  0  0  0  0
   -4.1630    0.3970   -2.1680 C   0  0  0  0  0  0  0  0  0  0  0  0
   -3.1840    1.4740   -2.0030 C   0  0  0  0  0  0  0  0  0  0  0  0
   -3.0560    2.5720   -2.8560 O   0  0  0  0  0  0  0  0  0  0  0  0
   -2.4250    1.2980   -0.9450 C   0  0  0  0  0  0  0  0  0  0  0  0
   -2.8200    0.0750   -0.2860 N   0  0  0  0  0  0  0  0  0  0  0  0
    1.4170   -1.3870    0.9840 N   0  0  0  0  0  0  0  0  0  0  0  0
    2.2880   -0.2300    1.1770 C   0  0  0  0  0  0  0  0  0  0  0  0
    2.1030    0.9160    1.2390 O   0  0  0  0  0  0  0  0  0  0  0  0
    3.6510   -0.8120    1.3020 N   0  0  0  0  0  0  0  0  0  0  0  0
    4.7710    0.0130    1.4700 C   0  0  0  0  0  0  0  0  0  0  0  0
    5.0860    0.9480    0.3520 C   0  0  0  0  0  0  0  0  0  0  0  0
    4.1080    1.8570    0.0460 O   0  0  0  0  0  0  0  0  0  0  0  0
  1  2  2  0
  2  3  1  0
  2 13  1  0
  4  3  1  6
  4  5  1  0
  4 12  1  0
  5  6  1  0
  6  7  2  0
  7  8  1  0
  7 12  1  0
  8  9  1  0
  9 10  1  0
  9 11  2  0
 11 12  1  0
 13 14  1  0
 14 15  2  0
 14 16  1  0
 16 17  1  0
 17 18  1  0
 18 19  1  0
M  END
