
     RDKit          3D

 19 20  0  0  0  0  0  0  0  0999 V2000
    5.4120    0.2250    1.0370 N   0  0  0  0  0  0  0  0  0  0  0  0
    5.1320    0.3420   -0.3670 C   0  0  0  0  0  0  0  0  0  0  0  0
    3.6820    0.2140   -0.6650 C   0  0  0  0  0  0  0  0  0  0  0  0
    2.7650    0.0130    0.2840 N   0  0  0  0  0  0  0  0  0  0  0  0
    1.4330   -0.1080    0.0480 C   0  0  0  0  0  0  0  0  0  0  0  0
    0.5450   -0.3200    1.1180 N   0  0  0  0  0  0  0  0  0  0  0  0
   -0.8670   -0.4680    1.0590 C   0  0  1  0  0  0  0  0  0  0  0  0
   -1.5500    0.7350    0.4800 C   0  0  0  0  0  0  0  0  0  0  0  0
   -2.6670    0.2220   -0.4320 C   0  0  2  0  0  0  0  0  0  0  0  0
   -3.5700    1.4090   -0.6870 C   0  0  0  0  0  0  0  0  0  0  0  0
   -4.0980    1.9010    0.5060 O   0  0  0  0  0  0  0  0  0  0  0  0
   -3.4450   -0.7960    0.3710 C   0  0  0  0  0  0  0  0  0  0  0  0
   -2.7060   -1.8720    0.7920 O   0  0  0  0  0  0  0  0  0  0  0  0
   -1.3390   -1.7660    0.4410 C   0  0  2  0  0  0  0  0  0  0  0  0
   -0.6770   -2.7990    1.0740 O   0  0  0  0  0  0  0  0  0  0  0  0
    1.0840   -0.0100   -1.2510 N   0  0  0  0  0  0  0  0  0  0  0  0
    1.9800    0.1920   -2.2310 C   0  0  0  0  0  0  0  0  0  0  0  0
    1.6110    0.2770   -3.4240 O   0  0  0  0  0  0  0  0  0  0  0  0
    3.2870    0.3070   -1.9570 N   0  0  0  0  0  0  0  0  0  0  0  0
  1  2  1  0
  2  3  1  0
  3  4  1  0
  3 19  2  0
  4  5  2  0
  5  6  1  0
  5 16  1  0
  7  6  1  6
  7  8  1  0
  7 14  1  0
  8  9  1  0
  9 10  1  1
  9 12  1  0
 10 11  1  0
 12 13  1  0
 13 14  1  0
 14 15  1  1
 16 17  1  0
 17 18  2  0
 17 19  1  0
M  END
