
     RDKit          3D

 19 20  0  0  0  0  0  0  0  0999 V2000
    4.5180   -1.4020    0.6330 C   0  0  0  0  0  0  0  0  0  0  0  0
    3.6190   -0.2990    0.1440 C   0  0  2  0  0  0  0  0  0  0  0  0
    2.2800   -0.7530   -0.1440 N   0  0  0  0  0  0  0  0  0  0  0  0
    1.7230    0.2240   -1.0700 C   0  0  1  0  0  0  0  0  0  0  0  0
    1.1340    1.4010   -0.3580 C   0  0  0  0  0  0  0  0  0  0  0  0
    0.0790    0.9620    0.5170 N   0  0  0  0  0  0  0  0  0  0  0  0
   -1.0520    0.3030   -0.0230 C   0  0  0  0  0  0  0  0  0  0  0  0
   -1.1560    0.0950   -1.2610 O   0  0  0  0  0  0  0  0  0  0  0  0
   -2.1350   -0.1490    0.8970 C   0  0  0  0  0  0  0  0  0  0  0  0
   -3.2180   -0.8150    0.0930 C   0  0  2  0  0  0  0  0  0  0  0  0
   -3.7230    0.1640   -0.8490 N   0  0  0  0  0  0  0  0  0  0  0  0
   -4.7150    0.9060   -0.1630 C   0  0  0  0  0  0  0  0  0  0  0  0
   -5.1660    2.0660   -0.4520 O   0  0  0  0  0  0  0  0  0  0  0  0
   -5.1490    0.1200    0.9500 N   0  0  0  0  0  0  0  0  0  0  0  0
   -4.4050   -1.0990    0.9200 C   0  0  0  0  0  0  0  0  0  0  0  0
   -4.6550   -2.1980    1.4580 O   0  0  0  0  0  0  0  0  0  0  0  0
    2.9010    0.6250   -1.8570 N   0  0  0  0  0  0  0  0  0  0  0  0
    4.0760    0.1340   -1.2230 C   0  0  0  0  0  0  0  0  0  0  0  0
    5.2340    0.0760   -1.7000 O   0  0  0  0  0  0  0  0  0  0  0  0
  2  1  1  6
  2  3  1  0
  2 18  1  0
  3  4  1  0
  4  5  1  1
  4 17  1  0
  5  6  1  0
  6  7  1  0
  7  8  2  0
  7  9  1  0
 10  9  1  1
 10 11  1  0
 10 15  1  0
 11 12  1  0
 12 13  2  0
 12 14  1  0
 14 15  1  0
 15 16  2  0
 17 18  1  0
 18 19  2  0
M  END
