
     RDKit          3D

 33 35  0  0  0  0  0  0  0  0999 V2000
   -5.9430    4.7480   -2.1330 C   0  0  0  0  0  0  0  0  0  0  0  0
   -5.6290    3.5940   -1.5330 C   0  0  0  0  0  0  0  0  0  0  0  0
   -6.3810    2.4040   -1.7880 C   0  0  0  0  0  0  0  0  0  0  0  0
   -6.1370    1.2480   -1.2440 C   0  0  0  0  0  0  0  0  0  0  0  0
   -5.0300    1.0610   -0.2900 C   0  0  0  0  0  0  0  0  0  0  0  0
   -4.3810   -0.1960   -0.3250 N   0  0  0  0  0  0  0  0  0  0  0  0
   -2.9800   -0.0850   -0.1330 C   0  0  1  0  0  0  0  0  0  0  0  0
   -2.5800    0.4560    1.2080 C   0  0  0  0  0  0  0  0  0  0  0  0
   -1.5710   -0.4250    1.9340 C   0  0  0  0  0  0  0  0  0  0  0  0
   -0.4860   -0.8080    1.0460 N   0  0  0  0  0  0  0  0  0  0  0  0
    0.8180   -1.0560    1.5330 C   0  0  0  0  0  0  0  0  0  0  0  0
    1.0090   -0.9320    2.7930 O   0  0  0  0  0  0  0  0  0  0  0  0
    1.9350   -1.4280    0.7720 N   0  0  0  0  0  0  0  0  0  0  0  0
    3.2230   -1.6780    1.3490 C   0  0  0  0  0  0  0  0  0  0  0  0
    3.3290   -1.5540    2.5980 O   0  0  0  0  0  0  0  0  0  0  0  0
    4.3970   -2.0680    0.5270 C   0  0  0  0  0  0  0  0  0  0  0  0
    5.4900   -2.2890    1.3680 O   0  0  0  0  0  0  0  0  0  0  0  0
    6.0720   -1.3760    2.2210 C   0  0  0  0  0  0  0  0  0  0  0  0
    5.5600   -0.2030    2.2400 O   0  0  0  0  0  0  0  0  0  0  0  0
    7.2180   -1.6750    3.0870 C   0  0  0  0  0  0  0  0  0  0  0  0
    8.5230   -1.3960    2.4100 C   0  0  0  0  0  0  0  0  0  0  0  0
    8.7390    0.2830    1.8920 S   0  0  0  0  0  0  0  0  0  0  0  0
    7.8110    0.7330    0.4220 C   0  0  0  0  0  0  0  0  0  0  0  0
    7.2410   -0.0830   -0.4380 C   0  0  0  0  0  0  0  0  0  0  0  0
    6.5870    0.6950   -1.4990 C   0  0  0  0  0  0  0  0  0  0  0  0
    6.8700    2.0980   -1.1610 C   0  0  0  0  0  0  0  0  0  0  0  0
    7.5740    2.0940   -0.0490 C   0  0  0  0  0  0  0  0  0  0  0  0
   -0.7230   -0.9500   -0.3880 C   0  0  0  0  0  0  0  0  0  0  0  0
   -2.2070   -1.3420   -0.4880 C   0  0  0  0  0  0  0  0  0  0  0  0
   -4.8590   -1.1880   -1.1980 C   0  0  0  0  0  0  0  0  0  0  0  0
   -6.3580   -1.2050   -1.3520 C   0  0  0  0  0  0  0  0  0  0  0  0
   -6.9380    0.0900   -1.5380 N   0  0  0  0  0  0  0  0  0  0  0  0
   -8.2860    0.2470   -2.0080 C   0  0  0  0  0  0  0  0  0  0  0  0
  1  2  2  0
  2  3  1  0
  3  4  2  3
  4  5  1  0
  4 32  1  0
  5  6  1  0
  7  6  1  1
  6 30  1  0
  7  8  1  0
  7 29  1  0
  8  9  1  0
  9 10  1  0
 10 11  1  0
 10 28  1  0
 11 12  2  0
 11 13  1  0
 13 14  1  0
 14 15  2  0
 14 16  1  0
 16 17  1  0
 17 18  1  0
 18 19  2  0
 18 20  1  0
 20 21  1  0
 21 22  1  0
 22 23  1  0
 23 24  2  0
 23 27  1  0
 24 25  1  0
 25 26  1  0
 26 27  2  0
 28 29  1  0
 30 31  1  0
 31 32  1  0
 32 33  1  0
M  END
