
     RDKit          3D

 33 36  0  0  0  0  0  0  0  0999 V2000
  -10.3350    1.6270   -0.4220 C   0  0  0  0  0  0  0  0  0  0  0  0
   -9.2480    0.6950   -0.1050 N   0  0  0  0  0  0  0  0  0  0  0  0
   -8.7310    0.7450    1.1360 C   0  0  0  0  0  0  0  0  0  0  0  0
   -7.6650   -0.1010    1.4380 C   0  0  0  0  0  0  0  0  0  0  0  0
   -7.1820   -0.9390    0.4640 C   0  0  0  0  0  0  0  0  0  0  0  0
   -5.9180   -1.6870    0.7370 C   0  0  0  0  0  0  0  0  0  0  0  0
   -5.7150   -2.7510    0.1480 O   0  0  0  0  0  0  0  0  0  0  0  0
   -5.0380   -1.0860    1.6430 N   0  0  0  0  0  0  0  0  0  0  0  0
   -3.7270   -1.6150    1.9380 C   0  0  0  0  0  0  0  0  0  0  0  0
   -3.0720   -1.5920    0.5530 C   0  0  0  0  0  0  0  0  0  0  0  0
   -2.7170   -2.6110   -0.0230 O   0  0  0  0  0  0  0  0  0  0  0  0
   -2.9460   -0.3130    0.0190 O   0  0  0  0  0  0  0  0  0  0  0  0
   -2.3740   -0.0320   -1.2190 C   0  0  0  0  0  0  0  0  0  0  0  0
   -0.8860   -0.3070   -1.1160 C   0  0  0  0  0  0  0  0  0  0  0  0
   -0.0750   -1.0230   -0.7170 N   0  0  0  0  0  0  0  0  0  0  0  0
    1.2170   -0.9080   -0.7200 C   0  0  0  0  0  0  0  0  0  0  0  0
    1.6940    0.2850   -1.3110 C   0  0  0  0  0  0  0  0  0  0  0  0
    0.2410    1.0990   -1.7910 S   0  0  0  0  0  0  0  0  0  0  0  0
    3.1660    0.5440   -1.3520 C   0  0  0  0  0  0  0  0  0  0  0  0
    3.6720    0.4290    0.0610 C   0  0  2  0  0  0  0  0  0  0  0  0
    3.2900    1.6660    0.8340 C   0  0  0  0  0  0  0  0  0  0  0  0
    5.1020    0.3300    0.0970 N   0  0  0  0  0  0  0  0  0  0  0  0
    5.6910   -0.8880   -0.3780 C   0  0  0  0  0  0  0  0  0  0  0  0
    6.8320   -1.1570    0.6390 C   0  0  0  0  0  0  0  0  0  0  0  0
    7.8690   -0.1000    0.3320 C   0  0  0  0  0  0  0  0  0  0  0  0
    7.6410    1.2020    1.0300 C   0  0  0  0  0  0  0  0  0  0  0  0
    6.7460    2.1590    0.2890 C   0  0  0  0  0  0  0  0  0  0  0  0
    5.7200    1.4800   -0.5460 C   0  0  0  0  0  0  0  0  0  0  0  0
    3.0720   -0.7700    0.7620 C   0  0  0  0  0  0  0  0  0  0  0  0
    2.3770   -1.7350   -0.1990 C   0  0  0  0  0  0  0  0  0  0  0  0
   -7.7110   -0.9890   -0.8000 C   0  0  0  0  0  0  0  0  0  0  0  0
   -8.7900   -0.1270   -1.0650 C   0  0  0  0  0  0  0  0  0  0  0  0
   -9.3200   -0.1410   -2.2040 O   0  0  0  0  0  0  0  0  0  0  0  0
  1  2  1  0
  2  3  1  0
  2 32  1  0
  3  4  2  0
  4  5  1  0
  5  6  1  0
  5 31  2  0
  6  7  2  0
  6  8  1  0
  8  9  1  0
  9 10  1  0
 10 11  2  0
 10 12  1  0
 12 13  1  0
 13 14  1  0
 14 15  2  0
 14 18  1  0
 15 16  1  0
 16 17  2  0
 16 30  1  0
 17 18  1  0
 17 19  1  0
 19 20  1  0
 20 21  1  1
 20 22  1  0
 20 29  1  0
 22 23  1  0
 22 28  1  0
 23 24  1  0
 24 25  1  0
 25 26  1  0
 26 27  1  0
 27 28  1  0
 29 30  1  0
 31 32  1  0
 32 33  2  0
M  END
