
     RDKit          3D

 33 36  0  0  0  0  0  0  0  0999 V2000
   -2.5410   -2.6840    3.3470 C   0  0  0  0  0  0  0  0  0  0  0  0
   -3.0350   -3.2410    2.1020 N   0  0  0  0  0  0  0  0  0  0  0  0
   -2.3560   -2.8960    0.9120 C   0  0  0  0  0  0  0  0  0  0  0  0
   -1.2550   -2.0610    0.9100 C   0  0  0  0  0  0  0  0  0  0  0  0
   -0.6000   -1.7320   -0.2560 C   0  0  0  0  0  0  0  0  0  0  0  0
    0.5440   -0.8550   -0.1930 N   0  0  0  0  0  0  0  0  0  0  0  0
    0.4860    0.3420    0.5920 C   0  0  0  0  0  0  0  0  0  0  0  0
    0.0410    1.5240   -0.1890 C   0  0  0  0  0  0  0  0  0  0  0  0
   -0.2260    1.3490   -1.4020 O   0  0  0  0  0  0  0  0  0  0  0  0
   -0.0940    2.8100    0.3600 N   0  0  0  0  0  0  0  0  0  0  0  0
    0.2180    3.0200    1.7710 C   0  0  0  0  0  0  0  0  0  0  0  0
   -0.8830    3.9130    2.3140 C   0  0  0  0  0  0  0  0  0  0  0  0
   -0.8250    5.1090    1.6210 O   0  0  0  0  0  0  0  0  0  0  0  0
   -1.2240    4.9950    0.3010 C   0  0  0  0  0  0  0  0  0  0  0  0
   -0.5280    3.9010   -0.4470 C   0  0  0  0  0  0  0  0  0  0  0  0
    1.6870   -1.2310   -0.8930 C   0  0  0  0  0  0  0  0  0  0  0  0
    1.7220   -2.3370   -1.4990 O   0  0  0  0  0  0  0  0  0  0  0  0
    2.9310   -0.4080   -0.9990 C   0  0  0  0  0  0  0  0  0  0  0  0
    4.0580   -0.8260   -1.7120 C   0  0  0  0  0  0  0  0  0  0  0  0
    5.1880    0.5500   -1.4800 S   0  0  0  0  0  0  0  0  0  0  0  0
    4.0080    1.4970   -0.4640 C   0  0  0  0  0  0  0  0  0  0  0  0
    4.4480    2.8550    0.0590 C   0  0  2  0  0  0  0  0  0  0  0  0
    4.6600    3.6910   -1.2010 C   0  0  0  0  0  0  0  0  0  0  0  0
    5.7660    2.6230    0.7410 C   0  0  0  0  0  0  0  0  0  0  0  0
    3.0700    0.7660   -0.4400 N   0  0  0  0  0  0  0  0  0  0  0  0
   -1.0640   -2.2550   -1.4380 C   0  0  0  0  0  0  0  0  0  0  0  0
   -2.1680   -3.1000   -1.4900 C   0  0  0  0  0  0  0  0  0  0  0  0
   -2.7960   -3.4070   -0.3160 C   0  0  0  0  0  0  0  0  0  0  0  0
   -3.9600   -4.2860   -0.2710 C   0  0  0  0  0  0  0  0  0  0  0  0
   -4.5130   -4.7320   -1.5760 C   0  0  0  0  0  0  0  0  0  0  0  0
   -3.4990   -4.8600   -2.6730 C   0  0  0  0  0  0  0  0  0  0  0  0
   -2.6510   -3.6480   -2.7460 C   0  0  0  0  0  0  0  0  0  0  0  0
   -2.3610   -3.1170   -3.8430 O   0  0  0  0  0  0  0  0  0  0  0  0
  1  2  1  0
  2  3  1  0
  3  4  2  0
  3 28  1  0
  4  5  1  0
  5  6  1  0
  5 26  2  0
  6  7  1  0
  6 16  1  0
  7  8  1  0
  8  9  2  0
  8 10  1  0
 10 11  1  0
 10 15  1  0
 11 12  1  0
 12 13  1  0
 13 14  1  0
 14 15  1  0
 16 17  2  0
 16 18  1  0
 18 19  2  0
 18 25  1  0
 19 20  1  0
 20 21  1  0
 21 22  1  0
 21 25  2  0
 22 23  1  6
 22 24  1  0
 26 27  1  0
 27 28  2  0
 27 32  1  0
 28 29  1  0
 29 30  1  0
 30 31  1  0
 31 32  1  0
 32 33  2  0
M  END
