
     RDKit          3D

 33 36  0  0  0  0  0  0  0  0999 V2000
    8.1860   -1.5400   -0.4830 C   0  0  0  0  0  0  0  0  0  0  0  0
    7.1220   -0.5620   -0.1920 C   0  0  0  0  0  0  0  0  0  0  0  0
    7.3870    0.5970    0.4930 C   0  0  0  0  0  0  0  0  0  0  0  0
    6.3640    1.4980    0.7520 C   0  0  0  0  0  0  0  0  0  0  0  0
    6.6250    2.7610    1.4900 C   0  0  0  0  0  0  0  0  0  0  0  0
    5.0830    1.2560    0.3370 C   0  0  0  0  0  0  0  0  0  0  0  0
    4.7810    0.0830   -0.3620 C   0  0  0  0  0  0  0  0  0  0  0  0
    3.4120   -0.1480   -0.8120 C   0  0  0  0  0  0  0  0  0  0  0  0
    2.1420    1.0770   -0.6010 S   0  0  0  0  0  0  0  0  0  0  0  0
    0.8270    0.2130   -1.2970 C   0  0  0  0  0  0  0  0  0  0  0  0
   -0.5740    0.6790   -1.4440 C   0  0  0  0  0  0  0  0  0  0  0  0
   -1.3900    0.3350   -0.3370 N   0  0  0  0  0  0  0  0  0  0  0  0
   -0.9820    0.8530    0.9230 C   0  0  0  0  0  0  0  0  0  0  0  0
   -2.2510    1.0980    1.7530 C   0  0  0  0  0  0  0  0  0  0  0  0
   -3.1250   -0.0100    1.4700 N   0  0  0  0  0  0  0  0  0  0  0  0
   -4.5520    0.1720    1.6440 C   0  0  0  0  0  0  0  0  0  0  0  0
   -4.9920    1.2770    2.0370 O   0  0  0  0  0  0  0  0  0  0  0  0
   -5.4750   -0.9250    1.3690 C   0  0  0  0  0  0  0  0  0  0  0  0
   -6.8820   -0.5340    1.0830 C   0  0  0  0  0  0  0  0  0  0  0  0
   -7.0290    0.2660   -0.1150 N   0  0  0  0  0  0  0  0  0  0  0  0
   -7.0980    1.6410   -0.3360 C   0  0  0  0  0  0  0  0  0  0  0  0
   -7.0810    2.5620    0.5030 O   0  0  0  0  0  0  0  0  0  0  0  0
   -7.2040    1.8760   -1.7530 N   0  0  0  0  0  0  0  0  0  0  0  0
   -7.2020    0.6360   -2.4210 C   0  0  0  0  0  0  0  0  0  0  0  0
   -7.2810    0.4640   -3.6730 O   0  0  0  0  0  0  0  0  0  0  0  0
   -7.0930   -0.3980   -1.4120 C   0  0  0  0  0  0  0  0  0  0  0  0
   -7.0600   -1.6330   -1.6150 O   0  0  0  0  0  0  0  0  0  0  0  0
   -2.5500   -1.2510    1.0280 C   0  0  0  0  0  0  0  0  0  0  0  0
   -1.9430   -0.9750   -0.3430 C   0  0  0  0  0  0  0  0  0  0  0  0
    1.4090   -0.9590   -1.6550 C   0  0  0  0  0  0  0  0  0  0  0  0
    2.7140   -1.1550   -1.4150 C   0  0  0  0  0  0  0  0  0  0  0  0
    3.4010   -2.4650   -1.7830 C   0  0  0  0  0  0  0  0  0  0  0  0
    5.7890   -0.7700   -0.6000 C   0  0  0  0  0  0  0  0  0  0  0  0
  1  2  1  0
  2  3  2  0
  2 33  1  0
  3  4  1  0
  4  5  1  0
  4  6  2  0
  6  7  1  0
  7  8  1  0
  7 33  2  0
  8  9  1  0
  8 31  2  0
  9 10  1  0
 10 11  1  0
 10 30  2  0
 11 12  1  0
 12 13  1  0
 12 29  1  0
 13 14  1  0
 14 15  1  0
 15 16  1  0
 15 28  1  0
 16 17  2  0
 16 18  1  0
 18 19  1  0
 19 20  1  0
 20 21  1  0
 20 26  1  0
 21 22  2  0
 21 23  1  0
 23 24  1  0
 24 25  2  0
 24 26  1  0
 26 27  2  0
 28 29  1  0
 30 31  1  0
 31 32  1  0
M  END
