
     RDKit          3D

 32 33  0  0  0  0  0  0  0  0999 V2000
   -2.2840   -3.0070   -2.5050 C   0  0  0  0  0  0  0  0  0  0  0  0
   -2.0930   -2.3990   -1.1480 C   0  0  0  0  0  0  0  0  0  0  0  0
   -0.6180   -2.6090   -0.6970 C   0  0  0  0  0  0  0  0  0  0  0  0
   -0.3800   -4.0750   -0.5290 C   0  0  0  0  0  0  0  0  0  0  0  0
   -1.5790   -4.6730    0.1330 N   0  0  0  0  0  0  0  0  0  0  0  0
   -1.1980   -5.9520    0.6680 C   0  0  0  0  0  0  0  0  0  0  0  0
    0.0850   -1.6020   -0.3470 C   0  0  0  0  0  0  0  0  0  0  0  0
   -0.6760   -0.3330   -0.3930 N   0  0  0  0  0  0  0  0  0  0  0  0
   -1.5410    0.0820    0.6600 C   0  0  0  0  0  0  0  0  0  0  0  0
   -2.1620    1.4170    0.2280 C   0  0  0  0  0  0  0  0  0  0  0  0
   -3.0400    1.8550    1.2780 N   0  0  1  0  0  0  0  0  0  0  0  0
   -3.3110    3.2800    1.1210 C   0  0  0  0  0  0  0  0  0  0  0  0
   -4.2510    3.6850    2.2170 C   0  0  0  0  0  0  0  0  0  0  0  0
   -5.6900    3.4200    1.9220 C   0  0  0  0  0  0  0  0  0  0  0  0
   -5.9420    2.9040    0.5360 C   0  0  0  0  0  0  0  0  0  0  0  0
   -5.2230    1.6340    0.2210 C   0  0  0  0  0  0  0  0  0  0  0  0
   -4.3020    1.1810    1.3140 C   0  0  0  0  0  0  0  0  0  0  0  0
    1.5390   -1.3890   -0.1500 C   0  0  0  0  0  0  0  0  0  0  0  0
    1.8630   -0.2060    0.3020 C   0  0  0  0  0  0  0  0  0  0  0  0
    2.9310    0.6180    0.6610 C   0  0  0  0  0  0  0  0  0  0  0  0
    2.5960    1.7430    1.3460 O   0  0  0  0  0  0  0  0  0  0  0  0
    4.3040    0.5420    0.4540 N   0  0  0  0  0  0  0  0  0  0  0  0
    5.1960    1.4080    1.3040 C   0  0  0  0  0  0  0  0  0  0  0  0
    5.7280    2.4680    0.3750 C   0  0  1  0  0  0  0  0  0  0  0  0
    6.6830    3.3370    1.1770 C   0  0  0  0  0  0  0  0  0  0  0  0
    6.4920    1.8380   -0.6150 O   0  0  0  0  0  0  0  0  0  0  0  0
    5.7490    1.0130   -1.4020 C   0  0  2  0  0  0  0  0  0  0  0  0
    4.6420    1.6990   -2.1750 C   0  0  0  0  0  0  0  0  0  0  0  0
    5.0560   -0.1070   -0.5970 C   0  0  0  0  0  0  0  0  0  0  0  0
    2.4980   -2.4430   -0.2270 C   0  0  0  0  0  0  0  0  0  0  0  0
    2.3720   -3.6920   -0.8980 N   0  0  0  0  0  0  0  0  0  0  0  0
    3.6180   -2.2920    0.3880 O   0  0  0  0  0  0  0  0  0  0  0  0
  1  2  1  0
  2  3  1  0
  3  4  1  0
  3  7  2  3
  4  5  1  0
  5  6  1  0
  7  8  1  0
  7 18  1  0
  8  9  1  0
  9 10  1  0
 11 10  1  6
 11 12  1  0
 11 17  1  0
 12 13  1  0
 13 14  1  0
 14 15  1  0
 15 16  1  0
 16 17  1  0
 18 19  2  3
 18 30  1  0
 19 20  1  0
 20 21  2  0
 20 22  1  0
 22 23  1  0
 22 29  1  0
 23 24  1  0
 24 25  1  1
 24 26  1  0
 26 27  1  0
 27 28  1  1
 27 29  1  0
 30 31  1  0
 30 32  2  0
M  CHG  2   5   1  11   1
M  END
