
     RDKit          3D

 33 35  0  0  0  0  0  0  0  0999 V2000
    2.5080   -1.5860   -1.8910 C   0  0  0  0  0  0  0  0  0  0  0  0
    2.1700   -1.4890   -0.4870 N   0  0  0  0  0  0  0  0  0  0  0  0
    3.0280   -1.8180    0.5900 C   0  0  0  0  0  0  0  0  0  0  0  0
    4.2390   -1.0290    0.7760 C   0  0  0  0  0  0  0  0  0  0  0  0
    4.9720   -1.2830    1.9190 C   0  0  0  0  0  0  0  0  0  0  0  0
    6.1010   -0.6480    2.2190 N   0  0  0  0  0  0  0  0  0  0  0  0
    6.5750    0.3060    1.3670 C   0  0  0  0  0  0  0  0  0  0  0  0
    7.7140    0.9650    1.6390 N   0  0  0  0  0  0  0  0  0  0  0  0
    8.1770    1.9090    0.7840 C   0  0  0  0  0  0  0  0  0  0  0  0
    9.3930    2.6140    1.0720 N   0  0  0  0  0  0  0  0  0  0  0  0
    7.4690    2.1570   -0.3260 N   0  0  0  0  0  0  0  0  0  0  0  0
    6.3470    1.5360   -0.6340 C   0  0  0  0  0  0  0  0  0  0  0  0
    5.5870    1.7850   -1.8030 N   0  0  0  0  0  0  0  0  0  0  0  0
    5.8540    0.5640    0.2310 C   0  0  0  0  0  0  0  0  0  0  0  0
    4.7250   -0.0910   -0.0410 N   0  0  0  0  0  0  0  0  0  0  0  0
    0.8450   -1.0450   -0.1960 C   0  0  0  0  0  0  0  0  0  0  0  0
    0.3990   -0.6880    1.0530 C   0  0  0  0  0  0  0  0  0  0  0  0
   -0.9040   -0.3040    1.3120 C   0  0  0  0  0  0  0  0  0  0  0  0
   -1.8080   -0.2740    0.2770 C   0  0  0  0  0  0  0  0  0  0  0  0
   -3.1850    0.1250    0.6100 C   0  0  0  0  0  0  0  0  0  0  0  0
   -3.4170    1.0660    1.4170 O   0  0  0  0  0  0  0  0  0  0  0  0
   -4.2990   -0.5390    0.0370 N   0  0  0  0  0  0  0  0  0  0  0  0
   -5.6920   -0.1550    0.3650 C   0  0  1  0  0  0  0  0  0  0  0  0
   -6.4530    0.1130   -0.8920 C   0  0  0  0  0  0  0  0  0  0  0  0
   -7.8590    0.5260   -0.5960 C   0  0  0  0  0  0  0  0  0  0  0  0
   -7.8610    1.7710    0.1960 C   0  0  0  0  0  0  0  0  0  0  0  0
   -7.6460    1.7640    1.4200 O   0  0  0  0  0  0  0  0  0  0  0  0
   -8.1080    3.0070   -0.4240 O   0  0  0  0  0  0  0  0  0  0  0  0
   -6.2440   -1.2510    1.1930 C   0  0  0  0  0  0  0  0  0  0  0  0
   -5.5060   -2.2560    1.4250 O   0  0  0  0  0  0  0  0  0  0  0  0
   -7.4990   -1.2720    1.7380 O   0  0  0  0  0  0  0  0  0  0  0  0
   -1.4190   -0.6200   -0.9960 C   0  0  0  0  0  0  0  0  0  0  0  0
   -0.1220   -0.9930   -1.2110 C   0  0  0  0  0  0  0  0  0  0  0  0
  1  2  1  0
  2  3  1  0
  2 16  1  0
  3  4  1  0
  4  5  2  0
  4 15  1  0
  5  6  1  0
  6  7  2  0
  7  8  1  0
  7 14  1  0
  8  9  2  0
  9 10  1  0
  9 11  1  0
 11 12  2  0
 12 13  1  0
 12 14  1  0
 14 15  2  0
 16 17  2  0
 16 33  1  0
 17 18  1  0
 18 19  2  0
 19 20  1  0
 19 32  1  0
 20 21  2  0
 20 22  1  0
 22 23  1  0
 23 24  1  6
 23 29  1  0
 24 25  1  0
 25 26  1  0
 26 27  2  0
 26 28  1  0
 29 30  2  0
 29 31  1  0
 32 33  2  0
M  END
