
     RDKit          3D

 33 36  0  0  0  0  0  0  0  0999 V2000
   -7.9580    2.0710    1.0840 C   0  0  0  0  0  0  0  0  0  0  0  0
   -6.5590    1.5790    1.0730 C   0  0  0  0  0  0  0  0  0  0  0  0
   -6.2240    0.4910    0.4430 C   0  0  0  0  0  0  0  0  0  0  0  0
   -7.2670   -0.2720   -0.2790 C   0  0  0  0  0  0  0  0  0  0  0  0
   -8.5070    0.0840   -0.3060 N   0  0  0  0  0  0  0  0  0  0  0  0
   -6.8530   -1.4820   -0.9750 C   0  0  0  0  0  0  0  0  0  0  0  0
   -5.5940   -1.8440   -0.9370 C   0  0  0  0  0  0  0  0  0  0  0  0
   -4.5770   -1.0890   -0.2260 C   0  0  0  0  0  0  0  0  0  0  0  0
   -4.8430    0.0240    0.4400 C   0  0  0  0  0  0  0  0  0  0  0  0
   -3.7800    0.7400    1.1430 C   0  0  0  0  0  0  0  0  0  0  0  0
   -2.4840    0.3010    1.1640 N   0  0  0  0  0  0  0  0  0  0  0  0
   -1.7250    1.1210    1.8620 C   0  0  0  0  0  0  0  0  0  0  0  0
   -0.3120    0.9980    2.1170 C   0  0  0  0  0  0  0  0  0  0  0  0
    0.2260    1.9250    2.8220 O   0  0  0  0  0  0  0  0  0  0  0  0
    0.4910   -0.0240    1.6670 N   0  0  0  0  0  0  0  0  0  0  0  0
    0.0410   -1.1360    0.8840 C   0  0  0  0  0  0  0  0  0  0  0  0
    0.5910   -0.8850   -0.5330 C   0  0  0  0  0  0  0  0  0  0  0  0
    2.0200   -0.7170   -0.3860 N   0  0  0  0  0  0  0  0  0  0  0  0
    2.7950   -0.4920   -1.5480 C   0  0  0  0  0  0  0  0  0  0  0  0
    2.2740   -0.4360   -2.6820 O   0  0  0  0  0  0  0  0  0  0  0  0
    4.2890   -0.3080   -1.4650 C   0  0  0  0  0  0  0  0  0  0  0  0
    4.8410   -0.1290   -2.8360 C   0  0  0  0  0  0  0  0  0  0  0  0
    6.2640    0.0610   -2.9340 C   0  0  0  0  0  0  0  0  0  0  0  0
    6.6670    0.2970   -4.1690 O   0  0  0  0  0  0  0  0  0  0  0  0
    7.2680    0.0330   -1.9350 C   0  0  0  0  0  0  0  0  0  0  0  0
    7.3580   -0.1700   -0.5720 C   0  0  0  0  0  0  0  0  0  0  0  0
    8.5460   -0.1070    0.0290 C   0  0  0  0  0  0  0  0  0  0  0  0
    9.6730    0.1530   -0.6730 C   0  0  0  0  0  0  0  0  0  0  0  0
    9.0440    0.3300   -2.3290 S   0  0  0  0  0  0  0  0  0  0  0  0
    2.6920   -0.7730    0.8910 C   0  0  0  0  0  0  0  0  0  0  0  0
    1.9390   -0.0240    1.9660 C   0  0  0  0  0  0  0  0  0  0  0  0
   -2.5860    2.1310    2.3050 C   0  0  0  0  0  0  0  0  0  0  0  0
   -3.7560    1.8210    1.8360 O   0  0  0  0  0  0  0  0  0  0  0  0
  1  2  1  0
  2  3  2  3
  3  4  1  0
  3  9  1  0
  4  5  2  0
  4  6  1  0
  6  7  2  0
  7  8  1  0
  8  9  2  0
  9 10  1  0
 10 11  2  0
 10 33  1  0
 11 12  1  0
 12 13  1  0
 12 32  2  0
 13 14  2  0
 13 15  1  0
 15 16  1  0
 15 31  1  0
 16 17  1  0
 17 18  1  0
 18 19  1  0
 18 30  1  0
 19 20  2  0
 19 21  1  0
 21 22  1  0
 22 23  1  0
 23 24  2  0
 23 25  1  0
 25 26  2  0
 25 29  1  0
 26 27  1  0
 27 28  2  0
 28 29  1  0
 30 31  1  0
 32 33  1  0
M  END
