
     RDKit          3D

 33 35  0  0  0  0  0  0  0  0999 V2000
   -2.7700   -2.5160    0.3800 C   0  0  0  0  0  0  0  0  0  0  0  0
   -2.0290   -1.4780   -0.3480 N   0  0  0  0  0  0  0  0  0  0  0  0
   -2.7620   -0.6380   -1.2200 C   0  0  0  0  0  0  0  0  0  0  0  0
   -3.8120    0.1580   -0.4940 C   0  0  0  0  0  0  0  0  0  0  0  0
   -3.5280    1.4520   -0.1300 C   0  0  0  0  0  0  0  0  0  0  0  0
   -4.4250    2.2130    0.5190 N   0  0  0  0  0  0  0  0  0  0  0  0
   -5.6250    1.7020    0.8190 C   0  0  0  0  0  0  0  0  0  0  0  0
   -6.5580    2.4410    1.4740 N   0  0  0  0  0  0  0  0  0  0  0  0
   -7.7500    1.9180    1.7670 C   0  0  0  0  0  0  0  0  0  0  0  0
   -8.6950    2.7280    2.4530 N   0  0  0  0  0  0  0  0  0  0  0  0
   -8.0220    0.6580    1.4110 N   0  0  0  0  0  0  0  0  0  0  0  0
   -7.1560   -0.1200    0.7700 C   0  0  0  0  0  0  0  0  0  0  0  0
   -7.4750   -1.4500    0.4090 N   0  0  0  0  0  0  0  0  0  0  0  0
   -5.9070    0.4080    0.4550 C   0  0  0  0  0  0  0  0  0  0  0  0
   -5.0180   -0.3440   -0.1870 N   0  0  0  0  0  0  0  0  0  0  0  0
   -0.6430   -1.3820   -0.1390 C   0  0  0  0  0  0  0  0  0  0  0  0
    0.1070   -0.4250   -0.7610 C   0  0  0  0  0  0  0  0  0  0  0  0
    1.4850   -0.3900   -0.5060 C   0  0  0  0  0  0  0  0  0  0  0  0
    2.1250   -1.2560    0.3280 C   0  0  0  0  0  0  0  0  0  0  0  0
    3.5530   -1.2070    0.5880 C   0  0  0  0  0  0  0  0  0  0  0  0
    4.1150   -2.0910    1.3240 O   0  0  0  0  0  0  0  0  0  0  0  0
    4.4330   -0.2180    0.0740 N   0  0  0  0  0  0  0  0  0  0  0  0
    5.8380   -0.1650    0.3270 C   0  0  1  0  0  0  0  0  0  0  0  0
    6.6800   -0.3950   -0.8950 C   0  0  0  0  0  0  0  0  0  0  0  0
    6.4840    0.5630   -2.0130 C   0  0  0  0  0  0  0  0  0  0  0  0
    6.7730    1.9680   -1.6600 C   0  0  0  0  0  0  0  0  0  0  0  0
    5.8690    2.7220   -1.2420 O   0  0  0  0  0  0  0  0  0  0  0  0
    8.0480    2.5180   -1.7730 O   0  0  0  0  0  0  0  0  0  0  0  0
    6.2670    0.9760    1.1660 C   0  0  0  0  0  0  0  0  0  0  0  0
    5.4650    1.8200    1.6470 O   0  0  0  0  0  0  0  0  0  0  0  0
    7.6110    1.1560    1.4580 O   0  0  0  0  0  0  0  0  0  0  0  0
    1.3500   -2.2160    0.9480 C   0  0  0  0  0  0  0  0  0  0  0  0
   -0.0090   -2.2760    0.7170 C   0  0  0  0  0  0  0  0  0  0  0  0
  1  2  1  0
  2  3  1  0
  2 16  1  0
  3  4  1  0
  4  5  2  0
  4 15  1  0
  5  6  1  0
  6  7  2  0
  7  8  1  0
  7 14  1  0
  8  9  2  0
  9 10  1  0
  9 11  1  0
 11 12  2  0
 12 13  1  0
 12 14  1  0
 14 15  2  0
 16 17  2  0
 16 33  1  0
 17 18  1  0
 18 19  2  0
 19 20  1  0
 19 32  1  0
 20 21  2  0
 20 22  1  0
 22 23  1  0
 23 24  1  6
 23 29  1  0
 24 25  1  0
 25 26  1  0
 26 27  2  0
 26 28  1  0
 29 30  2  0
 29 31  1  0
 32 33  2  0
M  END
