
     RDKit          3D

 33 35  0  0  0  0  0  0  0  0999 V2000
   -8.1830    2.6990   -2.5600 C   0  0  0  0  0  0  0  0  0  0  0  0
   -7.2860    1.8720   -2.0170 C   0  0  0  0  0  0  0  0  0  0  0  0
   -7.7190    0.7980   -1.1330 C   0  0  0  0  0  0  0  0  0  0  0  0
   -6.8360   -0.0110   -0.5990 C   0  0  0  0  0  0  0  0  0  0  0  0
   -5.3700    0.0400   -0.7980 C   0  0  0  0  0  0  0  0  0  0  0  0
   -4.7530   -0.4420    0.4240 N   0  0  0  0  0  0  0  0  0  0  0  0
   -3.3520   -0.2260    0.5070 C   0  0  1  0  0  0  0  0  0  0  0  0
   -2.5290   -0.9390   -0.5430 C   0  0  0  0  0  0  0  0  0  0  0  0
   -1.2560   -0.1360   -0.8480 C   0  0  0  0  0  0  0  0  0  0  0  0
   -0.7490    0.5110    0.3180 N   0  0  0  0  0  0  0  0  0  0  0  0
    0.5560    0.3380    0.8550 C   0  0  0  0  0  0  0  0  0  0  0  0
    0.8980    0.9670    1.8940 O   0  0  0  0  0  0  0  0  0  0  0  0
    1.5320   -0.5180    0.2910 N   0  0  0  0  0  0  0  0  0  0  0  0
    2.8310   -0.6570    0.8620 C   0  0  0  0  0  0  0  0  0  0  0  0
    3.0880    0.0120    1.8920 O   0  0  0  0  0  0  0  0  0  0  0  0
    3.8580   -1.5530    0.2800 C   0  0  0  0  0  0  0  0  0  0  0  0
    5.0480   -1.4630    1.0350 O   0  0  0  0  0  0  0  0  0  0  0  0
    5.7150   -0.2680    1.1570 C   0  0  0  0  0  0  0  0  0  0  0  0
    5.2380    0.7350    0.5780 O   0  0  0  0  0  0  0  0  0  0  0  0
    6.9780   -0.1280    1.9480 C   0  0  0  0  0  0  0  0  0  0  0  0
    7.4540    1.3180    1.8600 C   0  0  0  0  0  0  0  0  0  0  0  0
    7.7720    1.7780    0.1450 S   0  0  0  0  0  0  0  0  0  0  0  0
    9.1880    0.9050   -0.5210 C   0  0  0  0  0  0  0  0  0  0  0  0
    9.5490    1.0310   -1.7890 C   0  0  0  0  0  0  0  0  0  0  0  0
   10.7440    0.1790   -1.9930 C   0  0  0  0  0  0  0  0  0  0  0  0
   10.9820   -0.4290   -0.6640 C   0  0  0  0  0  0  0  0  0  0  0  0
   10.0700    0.0010    0.1890 C   0  0  0  0  0  0  0  0  0  0  0  0
   -1.6510    1.4360    1.0220 C   0  0  0  0  0  0  0  0  0  0  0  0
   -3.0210    1.2510    0.4210 C   0  0  0  0  0  0  0  0  0  0  0  0
   -5.1230   -1.8070    0.6010 C   0  0  0  0  0  0  0  0  0  0  0  0
   -6.5390   -1.7880    1.1950 C   0  0  0  0  0  0  0  0  0  0  0  0
   -7.3480   -1.0530    0.2600 N   0  0  0  0  0  0  0  0  0  0  0  0
   -8.7660   -1.3690    0.1610 C   0  0  0  0  0  0  0  0  0  0  0  0
  1  2  2  0
  2  3  1  0
  3  4  2  3
  4  5  1  0
  4 32  1  0
  5  6  1  0
  7  6  1  6
  6 30  1  0
  7  8  1  0
  7 29  1  0
  8  9  1  0
  9 10  1  0
 10 11  1  0
 10 28  1  0
 11 12  2  0
 11 13  1  0
 13 14  1  0
 14 15  2  0
 14 16  1  0
 16 17  1  0
 17 18  1  0
 18 19  2  0
 18 20  1  0
 20 21  1  0
 21 22  1  0
 22 23  1  0
 23 24  2  0
 23 27  1  0
 24 25  1  0
 25 26  1  0
 26 27  2  0
 28 29  1  0
 30 31  1  0
 31 32  1  0
 32 33  1  0
M  END
