
     RDKit          3D

 32 33  0  0  0  0  0  0  0  0999 V2000
    0.8060    5.0880   -1.7720 C   0  0  0  0  0  0  0  0  0  0  0  0
    0.3420    3.7400   -2.2200 C   0  0  0  0  0  0  0  0  0  0  0  0
   -0.2450    2.8490   -1.2070 C   0  0  0  0  0  0  0  0  0  0  0  0
   -1.7190    3.2200   -0.8920 C   0  0  0  0  0  0  0  0  0  0  0  0
   -1.8320    4.5650   -0.4000 N   0  0  0  0  0  0  0  0  0  0  0  0
   -2.5820    5.4350   -1.2870 C   0  0  0  0  0  0  0  0  0  0  0  0
    0.2430    1.8640   -0.5680 C   0  0  0  0  0  0  0  0  0  0  0  0
   -0.7470    1.2400    0.3540 N   0  0  0  0  0  0  0  0  0  0  0  0
   -1.6230    0.2000   -0.0920 C   0  0  0  0  0  0  0  0  0  0  0  0
   -2.5560   -0.2670    1.0150 C   0  0  0  0  0  0  0  0  0  0  0  0
   -3.4170   -1.3140    0.5190 N   0  0  1  0  0  0  0  0  0  0  0  0
   -3.9150   -2.1660    1.5690 C   0  0  0  0  0  0  0  0  0  0  0  0
   -4.3940   -3.4500    0.9270 C   0  0  0  0  0  0  0  0  0  0  0  0
   -5.7200   -3.2630    0.2260 C   0  0  0  0  0  0  0  0  0  0  0  0
   -6.4690   -2.0620    0.7580 C   0  0  0  0  0  0  0  0  0  0  0  0
   -5.8250   -0.7590    0.4440 C   0  0  0  0  0  0  0  0  0  0  0  0
   -4.5160   -0.8500   -0.2670 C   0  0  0  0  0  0  0  0  0  0  0  0
    1.5890    1.2280   -0.4680 C   0  0  0  0  0  0  0  0  0  0  0  0
    1.6730    0.1880    0.3230 C   0  0  0  0  0  0  0  0  0  0  0  0
    2.4710   -0.8190    0.8490 C   0  0  0  0  0  0  0  0  0  0  0  0
    1.7460   -1.4720    1.8540 O   0  0  0  0  0  0  0  0  0  0  0  0
    3.6940   -1.4400    0.7660 N   0  0  0  0  0  0  0  0  0  0  0  0
    4.0520   -2.4270    1.8360 C   0  0  0  0  0  0  0  0  0  0  0  0
    5.5530   -2.5080    1.8360 C   0  0  1  0  0  0  0  0  0  0  0  0
    6.0810   -3.1870    3.0830 C   0  0  0  0  0  0  0  0  0  0  0  0
    5.9950   -3.1830    0.6810 O   0  0  0  0  0  0  0  0  0  0  0  0
    5.1620   -2.8870   -0.3710 C   0  0  2  0  0  0  0  0  0  0  0  0
    5.8030   -3.0460   -1.7180 C   0  0  0  0  0  0  0  0  0  0  0  0
    4.6670   -1.4160   -0.2600 C   0  0  0  0  0  0  0  0  0  0  0  0
    2.7780    1.8580   -0.9510 C   0  0  0  0  0  0  0  0  0  0  0  0
    4.0790    1.4320   -0.4800 N   0  0  0  0  0  0  0  0  0  0  0  0
    2.8400    2.7860   -1.7780 O   0  0  0  0  0  0  0  0  0  0  0  0
  1  2  1  0
  2  3  1  0
  3  4  1  0
  3  7  2  3
  4  5  1  0
  5  6  1  0
  7  8  1  0
  7 18  1  0
  8  9  1  0
  9 10  1  0
 11 10  1  1
 11 12  1  0
 11 17  1  0
 12 13  1  0
 13 14  1  0
 14 15  1  0
 15 16  1  0
 16 17  1  0
 18 19  2  3
 18 30  1  0
 19 20  1  0
 20 21  2  0
 20 22  1  0
 22 23  1  0
 22 29  1  0
 23 24  1  0
 24 25  1  1
 24 26  1  0
 26 27  1  0
 27 28  1  6
 27 29  1  0
 30 31  1  0
 30 32  2  0
M  CHG  2   5   1  11   1
M  END
