
     RDKit          3D

 23 24  0  0  0  0  0  0  0  0999 V2000
   -4.1580    2.2040    4.1900 O   0  0  0  0  0  0  0  0  0  0  0  0
   -2.7110    1.8850    4.6620 P   0  0  0  0  0  0  0  0  0  0  0  0
   -1.6920    0.7570    3.7530 O   0  0  0  0  0  0  0  0  0  0  0  0
   -1.6470    0.8140    2.3690 C   0  0  0  0  0  0  0  0  0  0  0  0
   -2.3700    1.7090    1.8240 O   0  0  0  0  0  0  0  0  0  0  0  0
   -0.8560   -0.0540    1.5730 N   0  0  0  0  0  0  0  0  0  0  0  0
   -0.9210    0.1380    0.1290 C   0  0  0  0  0  0  0  0  0  0  0  0
   -0.0480   -0.8260   -0.6070 C   0  0  1  0  0  0  0  0  0  0  0  0
    1.3360   -0.6520   -0.1930 C   0  0  0  0  0  0  0  0  0  0  0  0
    1.8280   -1.7020    0.4070 O   0  0  0  0  0  0  0  0  0  0  0  0
    2.2140    0.4160   -0.3220 N   0  0  0  0  0  0  0  0  0  0  0  0
    3.5640    0.4250    0.2020 C   0  0  0  0  0  0  0  0  0  0  0  0
    4.2950   -0.5580    0.4850 O   0  0  0  0  0  0  0  0  0  0  0  0
    3.9370    1.8700    0.3510 C   0  0  0  0  0  0  0  0  0  0  0  0
    3.2690    2.4390   -0.7800 N   0  0  0  0  0  0  0  0  0  0  0  0
    2.0450    1.6780   -0.9320 C   0  0  0  0  0  0  0  0  0  0  0  0
    1.0830    2.2040   -1.5380 O   0  0  0  0  0  0  0  0  0  0  0  0
   -0.5060   -2.2010   -0.3420 N   0  0  0  0  0  0  0  0  0  0  0  0
   -1.8420   -2.4260   -0.7290 C   0  0  0  0  0  0  0  0  0  0  0  0
   -2.3870   -1.7480   -1.9140 C   0  0  0  0  0  0  0  0  0  0  0  0
   -1.4950   -0.8220   -2.5880 N   0  0  0  0  0  0  0  0  0  0  0  0
   -0.1540   -0.6920   -2.0720 C   0  0  0  0  0  0  0  0  0  0  0  0
    0.7960   -0.4850   -2.8650 O   0  0  0  0  0  0  0  0  0  0  0  0
  1  2  2  0
  2  3  1  0
  3  4  1  0
  4  5  2  0
  4  6  1  0
  6  7  1  0
  8  7  1  1
  8  9  1  0
  8 18  1  0
  8 22  1  0
  9 10  2  0
  9 11  1  0
 11 12  1  0
 11 16  1  0
 12 13  2  0
 12 14  1  0
 14 15  1  0
 15 16  1  0
 16 17  2  0
 18 19  1  0
 19 20  1  0
 20 21  1  0
 21 22  1  0
 22 23  2  0
M  END
