
     RDKit          3D

 23 24  0  0  0  0  0  0  0  0999 V2000
   -1.7740    1.3310    1.8740 N   0  0  0  0  0  0  0  0  0  0  0  0
   -2.1750    0.3010    1.1660 C   0  0  0  0  0  0  0  0  0  0  0  0
   -3.4060   -0.3570    1.5040 N   0  0  0  0  0  0  0  0  0  0  0  0
   -4.7370    0.6420    2.1600 P   0  0  0  0  0  0  0  0  0  0  0  0
   -5.8070    1.1330    0.8650 O   0  0  0  0  0  0  0  0  0  0  0  0
   -5.6730   -0.2370    3.3530 O   0  0  0  0  0  0  0  0  0  0  0  0
   -1.3850   -0.1330    0.0930 N   0  0  0  0  0  0  0  0  0  0  0  0
   -1.2170   -1.5650   -0.1830 C   0  0  0  0  0  0  0  0  0  0  0  0
   -0.6100   -1.7250   -1.5860 C   0  0  0  0  0  0  0  0  0  0  0  0
    0.7340   -1.5520   -1.6660 O   0  0  0  0  0  0  0  0  0  0  0  0
    1.1300   -0.2710   -1.9940 C   0  0  1  0  0  0  0  0  0  0  0  0
    2.4190    0.0770   -1.2660 C   0  0  0  0  0  0  0  0  0  0  0  0
    2.4360    0.0470    0.1720 C   0  0  0  0  0  0  0  0  0  0  0  0
    1.5000   -0.2710    0.9190 O   0  0  0  0  0  0  0  0  0  0  0  0
    3.6220    0.4100    0.8830 O   0  0  0  0  0  0  0  0  0  0  0  0
    3.6150    0.3730    2.2860 C   0  0  0  0  0  0  0  0  0  0  0  0
    4.8920    0.7720    2.6990 O   0  0  0  0  0  0  0  0  0  0  0  0
    5.8240   -0.0150    2.2420 O   0  0  0  0  0  0  0  0  0  0  0  0
    1.5380   -0.0860   -3.4170 C   0  0  0  0  0  0  0  0  0  0  0  0
    0.8490    0.8380   -3.9270 N   0  0  0  0  0  0  0  0  0  0  0  0
   -0.0630    1.3550   -2.9830 C   0  0  0  0  0  0  0  0  0  0  0  0
    0.0630    0.7220   -1.8370 C   0  0  0  0  0  0  0  0  0  0  0  0
   -0.7860    0.9070   -0.6750 N   0  0  0  0  0  0  0  0  0  0  0  0
  1  2  2  0
  2  3  1  0
  2  7  1  0
  3  4  1  0
  4  5  1  0
  4  6  1  0
  7  8  1  0
  7 23  1  0
  8  9  1  0
  9 10  1  0
 10 11  1  0
 11 12  1  1
 11 19  1  0
 11 22  1  0
 12 13  1  0
 13 14  2  0
 13 15  1  0
 15 16  1  0
 16 17  1  0
 17 18  1  0
 19 20  2  0
 20 21  1  0
 21 22  2  0
 22 23  1  0
M  END
