
     RDKit          3D

 24 25  0  0  0  0  0  0  0  0999 V2000
   -2.4840    0.3120    0.0660 N   0  0  0  0  0  0  0  0  0  0  0  0
   -3.1930   -0.2170   -0.8680 C   0  0  0  0  0  0  0  0  0  0  0  0
   -3.3990   -1.6090   -0.9740 N   0  0  0  0  0  0  0  0  0  0  0  0
   -2.4010   -2.3970   -1.0160 C   0  0  0  0  0  0  0  0  0  0  0  0
   -1.0850   -1.8790   -0.9580 N   0  0  0  0  0  0  0  0  0  0  0  0
   -0.4050   -1.1950   -1.9340 O   0  0  0  0  0  0  0  0  0  0  0  0
    0.8380   -0.8800   -1.4560 N   0  0  0  0  0  0  0  0  0  0  0  0
    1.0140   -1.2960   -0.2750 C   0  0  0  0  0  0  0  0  0  0  0  0
    2.1090   -1.2680    0.7470 C   0  0  1  0  0  0  0  0  0  0  0  0
    2.1990   -0.0340    1.2710 O   0  0  0  0  0  0  0  0  0  0  0  0
    3.3730    0.6570    1.0660 C   0  0  0  0  0  0  0  0  0  0  0  0
    3.2590    1.9930    1.7280 C   0  0  0  0  0  0  0  0  0  0  0  0
    2.2050    2.7940    1.2450 O   0  0  0  0  0  0  0  0  0  0  0  0
    2.1160    3.2120   -0.0730 C   0  0  0  0  0  0  0  0  0  0  0  0
    2.9850    2.8940   -0.9220 O   0  0  0  0  0  0  0  0  0  0  0  0
    1.0530    3.9990   -0.4930 O   0  0  0  0  0  0  0  0  0  0  0  0
    1.8110   -2.3870    1.6930 C   0  0  0  0  0  0  0  0  0  0  0  0
    1.4520   -3.5120    0.9520 O   0  0  0  0  0  0  0  0  0  0  0  0
    0.1840   -3.4390    0.4270 C   0  0  0  0  0  0  0  0  0  0  0  0
   -0.2210   -1.9880    0.1670 C   0  0  2  0  0  0  0  0  0  0  0  0
   -3.7870    0.6490   -1.8250 N   0  0  0  0  0  0  0  0  0  0  0  0
   -4.1100    2.3620   -1.3980 P   0  0  0  0  0  0  0  0  0  0  0  0
   -5.2040    2.4660   -0.0430 O   0  0  0  0  0  0  0  0  0  0  0  0
   -2.6670    3.2550   -1.1350 O   0  0  0  0  0  0  0  0  0  0  0  0
  1  2  2  0
  2  3  1  0
  2 21  1  0
  3  4  2  3
  4  5  1  0
  5  6  1  0
  5 20  1  0
  6  7  1  0
  7  8  2  0
  8  9  1  0
  8 20  1  0
  9 10  1  1
  9 17  1  0
 10 11  1  0
 11 12  1  0
 12 13  1  0
 13 14  1  0
 14 15  2  0
 14 16  1  0
 17 18  1  0
 18 19  1  0
 20 19  1  6
 21 22  1  0
 22 23  1  0
 22 24  1  0
M  END
