
     RDKit          3D

 24 24  0  0  0  0  0  0  0  0999 V2000
    4.4450   -0.3130   -0.2580 O   0  0  0  0  0  0  0  0  0  0  0  0
    4.1540    1.1430    0.1110 P   0  0  1  0  0  0  0  0  0  0  0  0
    4.3350    1.3350    1.7860 O   0  0  0  0  0  0  0  0  0  0  0  0
    5.1850    2.1600   -0.7530 O   0  0  0  0  0  0  0  0  0  0  0  0
    2.5370    1.4330   -0.2730 O   0  0  0  0  0  0  0  0  0  0  0  0
    1.7310    0.3140   -0.0620 C   0  0  1  0  0  0  0  0  0  0  0  0
    0.6930    0.5260    0.9800 C   0  0  2  0  0  0  0  0  0  0  0  0
    0.8910   -0.2160    2.1400 O   0  0  0  0  0  0  0  0  0  0  0  0
   -0.7180    0.3140    0.5080 C   0  0  1  0  0  0  0  0  0  0  0  0
   -1.1590    1.4150   -0.2190 O   0  0  0  0  0  0  0  0  0  0  0  0
   -2.3960    2.2560    0.5430 P   0  0  1  0  0  0  0  0  0  0  0  0
   -1.8180    3.5680    1.0440 O   0  0  0  0  0  0  0  0  0  0  0  0
   -3.6580    2.6030   -0.5560 O   0  0  0  0  0  0  0  0  0  0  0  0
   -3.0540    1.3740    1.8330 O   0  0  0  0  0  0  0  0  0  0  0  0
   -0.8940   -0.9830   -0.2550 C   0  0  2  0  0  0  0  0  0  0  0  0
   -1.4450   -1.8970    0.5860 O   0  0  0  0  0  0  0  0  0  0  0  0
   -2.9560   -2.4400    0.3510 P   0  0  2  0  0  0  0  0  0  0  0  0
   -3.8330   -1.8630    1.4750 O   0  0  0  0  0  0  0  0  0  0  0  0
   -3.1600   -4.1130    0.4840 O   0  0  0  0  0  0  0  0  0  0  0  0
   -3.6950   -1.9230   -1.0820 O   0  0  0  0  0  0  0  0  0  0  0  0
    0.3090   -1.4040   -1.0140 C   0  0  1  0  0  0  0  0  0  0  0  0
   -0.0230   -2.0200   -2.2380 O   0  0  0  0  0  0  0  0  0  0  0  0
    1.1700   -0.2060   -1.3600 C   0  0  1  0  0  0  0  0  0  0  0  0
    0.5350    0.7320   -2.1190 O   0  0  0  0  0  0  0  0  0  0  0  0
  1  2  2  0
  2  3  1  1
  2  4  1  0
  2  5  1  0
  6  5  1  6
  6  7  1  0
  6 23  1  0
  7  8  1  1
  7  9  1  0
  9 10  1  6
  9 15  1  0
 10 11  1  0
 11 12  2  0
 11 13  1  6
 11 14  1  0
 15 16  1  1
 15 21  1  0
 16 17  1  0
 17 18  2  0
 17 19  1  6
 17 20  1  0
 21 22  1  6
 21 23  1  0
 23 24  1  1
M  END
