
     RDKit          3D

 23 24  0  0  0  0  0  0  0  0999 V2000
   -3.9630   -1.1130   -0.7410 N   0  0  0  0  0  0  0  0  0  0  0  0
   -3.8390   -0.4920    0.3680 C   0  0  0  0  0  0  0  0  0  0  0  0
   -2.5650   -0.0530    0.7520 N   0  0  0  0  0  0  0  0  0  0  0  0
   -1.3780   -0.3530   -0.0160 C   0  0  2  0  0  0  0  0  0  0  0  0
   -1.0510   -1.7840   -0.1690 C   0  0  0  0  0  0  0  0  0  0  0  0
    0.1820   -2.1110    0.4940 N   0  0  0  0  0  0  0  0  0  0  0  0
    1.3010   -1.2150    0.2930 C   0  0  0  0  0  0  0  0  0  0  0  0
    2.4760   -1.6180    0.4050 O   0  0  0  0  0  0  0  0  0  0  0  0
    0.8740    0.1630   -0.0450 C   0  0  2  0  0  0  0  0  0  0  0  0
    1.8680    1.1570    0.4750 C   0  0  0  0  0  0  0  0  0  0  0  0
    3.2230    1.0380   -0.0810 C   0  0  0  0  0  0  0  0  0  0  0  0
    3.6120    0.2240   -0.9470 O   0  0  0  0  0  0  0  0  0  0  0  0
    4.2250    1.9540    0.4130 N   0  0  0  0  0  0  0  0  0  0  0  0
    5.5590    1.8870   -0.1000 C   0  0  0  0  0  0  0  0  0  0  0  0
    6.3640    2.6960   -0.7150 C   0  0  0  0  0  0  0  0  0  0  0  0
    7.4260    1.7110   -0.7880 C   0  0  0  0  0  0  0  0  0  0  0  0
    8.5820    1.6030   -1.2130 O   0  0  0  0  0  0  0  0  0  0  0  0
    6.5330    0.9050   -0.1380 O   0  0  0  0  0  0  0  0  0  0  0  0
   -0.3600    0.4330    0.5210 O   0  0  0  0  0  0  0  0  0  0  0  0
   -5.0170   -0.2860    1.1320 N   0  0  0  0  0  0  0  0  0  0  0  0
   -6.6050   -0.7630    0.4580 P   0  0  0  0  0  0  0  0  0  0  0  0
   -7.0820   -2.3470    0.9580 O   0  0  0  0  0  0  0  0  0  0  0  0
   -6.4440   -0.8110   -1.2720 O   0  0  0  0  0  0  0  0  0  0  0  0
  1  2  2  0
  2  3  1  0
  2 20  1  0
  4  3  1  1
  4  5  1  0
  4 19  1  0
  5  6  1  0
  6  7  1  0
  7  8  2  0
  7  9  1  0
  9 10  1  1
  9 19  1  0
 10 11  1  0
 11 12  2  0
 11 13  1  0
 13 14  1  0
 14 15  2  0
 14 18  1  0
 15 16  1  0
 16 17  2  0
 16 18  1  0
 20 21  1  0
 21 22  1  0
 21 23  1  0
M  END
