
     RDKit          3D

 23 24  0  0  0  0  0  0  0  0999 V2000
   -0.4240   -3.0480    1.7440 O   0  0  0  0  0  0  0  0  0  0  0  0
    0.3190   -2.1480    2.2060 C   0  0  0  0  0  0  0  0  0  0  0  0
    0.5690   -2.2200    3.5750 O   0  0  0  0  0  0  0  0  0  0  0  0
    0.8890   -1.1120    1.4380 N   0  0  0  0  0  0  0  0  0  0  0  0
    0.6250   -1.0390    0.0220 C   0  0  2  0  0  0  0  0  0  0  0  0
    1.2180   -2.1770   -0.6050 N   0  0  0  0  0  0  0  0  0  0  0  0
    2.5500   -1.8460   -0.8670 N   0  0  0  0  0  0  0  0  0  0  0  0
    2.6700   -0.5390   -0.8580 C   0  0  0  0  0  0  0  0  0  0  0  0
    3.9230    0.2450   -1.0930 C   0  0  0  0  0  0  0  0  0  0  0  0
    4.2490    1.0930    0.1260 C   0  0  0  0  0  0  0  0  0  0  0  0
    5.4180    1.7990   -0.1440 O   0  0  0  0  0  0  0  0  0  0  0  0
    1.4160    0.0470   -0.5850 N   0  0  0  0  0  0  0  0  0  0  0  0
    0.8290    1.3450   -0.7640 C   0  0  0  0  0  0  0  0  0  0  0  0
   -0.4510    1.2030   -1.5600 C   0  0  0  0  0  0  0  0  0  0  0  0
   -1.3370    0.3820   -0.7650 N   0  0  0  0  0  0  0  0  0  0  0  0
   -2.6520    0.8370   -0.4880 C   0  0  0  0  0  0  0  0  0  0  0  0
   -3.0540    1.9550   -0.9280 O   0  0  0  0  0  0  0  0  0  0  0  0
   -3.6210    0.0530    0.3180 C   0  0  0  0  0  0  0  0  0  0  0  0
   -5.2300    0.9520    0.5020 P   0  0  0  0  0  0  0  0  0  0  0  0
   -6.5920   -0.0900    0.3450 O   0  0  0  0  0  0  0  0  0  0  0  0
   -5.3260    2.1710   -0.7320 O   0  0  0  0  0  0  0  0  0  0  0  0
   -0.8130   -0.8520   -0.3080 C   0  0  0  0  0  0  0  0  0  0  0  0
   -1.6130   -1.8120   -0.1850 O   0  0  0  0  0  0  0  0  0  0  0  0
  1  2  2  0
  2  3  1  0
  2  4  1  0
  5  4  1  1
  5  6  1  0
  5 12  1  0
  5 22  1  0
  6  7  1  0
  7  8  2  0
  8  9  1  0
  8 12  1  0
  9 10  1  0
 10 11  1  0
 12 13  1  0
 13 14  1  0
 14 15  1  0
 15 16  1  0
 15 22  1  0
 16 17  2  0
 16 18  1  0
 18 19  1  0
 19 20  1  0
 19 21  1  0
 22 23  2  0
M  END
