
     RDKit          3D

 23 24  0  0  0  0  0  0  0  0999 V2000
    2.2930    1.6780   -0.2140 C   0  0  0  0  0  0  0  0  0  0  0  0
    2.2980    0.4250    0.5210 N   0  0  0  0  0  0  0  0  0  0  0  0
    1.1320   -0.1250    1.1380 C   0  0  0  0  0  0  0  0  0  0  0  0
    0.0910   -0.3740    0.1250 C   0  0  0  0  0  0  0  0  0  0  0  0
   -1.1190   -0.8850    0.3770 N   0  0  0  0  0  0  0  0  0  0  0  0
   -1.7460   -0.9470   -0.8060 C   0  0  0  0  0  0  0  0  0  0  0  0
   -3.1280   -1.4500   -1.0330 C   0  0  2  0  0  0  0  0  0  0  0  0
   -3.5620   -1.0370   -2.4160 C   0  0  0  0  0  0  0  0  0  0  0  0
   -3.7640    0.3320   -2.5160 O   0  0  0  0  0  0  0  0  0  0  0  0
   -4.5330    0.8470   -1.4800 C   0  0  0  0  0  0  0  0  0  0  0  0
   -3.8670    0.4800   -0.1740 C   0  0  1  0  0  0  0  0  0  0  0  0
   -4.4580    1.1690    0.9890 C   0  0  0  0  0  0  0  0  0  0  0  0
   -4.4810    2.4200    1.0550 O   0  0  0  0  0  0  0  0  0  0  0  0
   -4.9950    0.4210    2.0190 O   0  0  0  0  0  0  0  0  0  0  0  0
   -3.9470   -0.9020   -0.0440 O   0  0  0  0  0  0  0  0  0  0  0  0
   -0.9030   -0.4760   -1.7290 N   0  0  0  0  0  0  0  0  0  0  0  0
    0.1960   -0.1370   -1.1450 O   0  0  0  0  0  0  0  0  0  0  0  0
    3.5440   -0.2540    0.6070 C   0  0  0  0  0  0  0  0  0  0  0  0
    3.8950   -1.0350   -0.3840 N   0  0  0  0  0  0  0  0  0  0  0  0
    4.4160   -0.1240    1.7100 N   0  0  0  0  0  0  0  0  0  0  0  0
    6.1700   -0.4680    1.5400 P   0  0  0  0  0  0  0  0  0  0  0  0
    7.0220    0.6040    2.6160 O   0  0  0  0  0  0  0  0  0  0  0  0
    6.6590   -0.1850   -0.0810 O   0  0  0  0  0  0  0  0  0  0  0  0
  1  2  1  0
  2  3  1  0
  2 18  1  0
  3  4  1  0
  4  5  2  0
  4 17  1  0
  5  6  1  0
  7  6  1  1
  6 16  2  0
  7  8  1  0
  7 15  1  0
  8  9  1  0
  9 10  1  0
 10 11  1  0
 11 12  1  1
 11 15  1  0
 12 13  2  0
 12 14  1  0
 16 17  1  0
 18 19  2  0
 18 20  1  0
 20 21  1  0
 21 22  1  0
 21 23  1  0
M  END
