
     RDKit          3D

 23 24  0  0  0  0  0  0  0  0999 V2000
   -0.9940   -3.3960    0.7780 N   0  0  0  0  0  0  0  0  0  0  0  0
   -0.3910   -2.3700    0.5820 C   0  0  0  0  0  0  0  0  0  0  0  0
    0.4820   -2.3290   -0.4560 N   0  0  0  0  0  0  0  0  0  0  0  0
    1.6230   -1.5420   -0.6040 C   0  0  0  0  0  0  0  0  0  0  0  0
    1.8180   -0.8900    0.4500 O   0  0  0  0  0  0  0  0  0  0  0  0
    2.4580   -1.4980   -1.8090 C   0  0  0  0  0  0  0  0  0  0  0  0
    3.5500   -0.5980   -1.5200 N   0  0  0  0  0  0  0  0  0  0  0  0
    4.8630   -0.7290   -0.9840 C   0  0  0  0  0  0  0  0  0  0  0  0
    4.7470    0.7220   -0.5690 C   0  0  0  0  0  0  0  0  0  0  0  0
    3.7380    0.7870   -1.6570 C   0  0  0  0  0  0  0  0  0  0  0  0
    3.3110    1.7500   -2.3450 O   0  0  0  0  0  0  0  0  0  0  0  0
   -1.0150   -1.3010    1.3470 N   0  0  0  0  0  0  0  0  0  0  0  0
   -2.1670   -0.6260    0.8800 C   0  0  0  0  0  0  0  0  0  0  0  0
   -2.0600    0.2830   -0.2860 C   0  0  1  0  0  0  0  0  0  0  0  0
   -3.4660    0.7490   -0.4950 N   0  0  0  0  0  0  0  0  0  0  0  0
   -3.4680    1.9920   -1.2350 C   0  0  0  0  0  0  0  0  0  0  0  0
   -3.0710    3.1290   -0.3090 C   0  0  0  0  0  0  0  0  0  0  0  0
   -1.7910    2.7540    0.2690 N   0  0  0  0  0  0  0  0  0  0  0  0
   -1.2240    1.4940   -0.0640 C   0  0  0  0  0  0  0  0  0  0  0  0
    0.0080    1.4170   -0.1710 O   0  0  0  0  0  0  0  0  0  0  0  0
   -0.2970   -0.9110    2.9210 P   0  0  0  0  0  0  0  0  0  0  0  0
   -0.3170    0.8020    3.0960 O   0  0  0  0  0  0  0  0  0  0  0  0
   -1.2860   -1.6310    4.1340 O   0  0  0  0  0  0  0  0  0  0  0  0
  1  2  2  0
  2  3  1  0
  2 12  1  0
  3  4  1  0
  4  5  2  0
  4  6  1  0
  6  7  1  0
  7  8  1  0
  7 10  1  0
  8  9  1  0
  9 10  1  0
 10 11  2  0
 12 13  1  0
 12 21  1  0
 14 13  1  1
 14 15  1  0
 14 19  1  0
 15 16  1  0
 16 17  1  0
 17 18  1  0
 18 19  1  0
 19 20  2  0
 21 22  1  0
 21 23  1  0
M  END
