
     RDKit          3D

 22 22  0  0  0  0  0  0  0  0999 V2000
   -4.1260    1.6010    0.5450 C   0  0  0  0  0  0  0  0  0  0  0  0
   -4.3950    0.1880   -0.0000 C   0  0  2  0  0  0  0  0  0  0  0  0
   -5.6180   -0.2900    0.6530 C   0  0  0  0  0  0  0  0  0  0  0  0
   -5.6460   -0.3240    1.9460 O   0  0  0  0  0  0  0  0  0  0  0  0
   -6.7840   -0.7090   -0.0290 O   0  0  0  0  0  0  0  0  0  0  0  0
   -3.3050   -0.7590    0.3240 C   0  0  0  0  0  0  0  0  0  0  0  0
   -2.1020   -0.5130   -0.4610 C   0  0  2  0  0  0  0  0  0  0  0  0
   -0.9440   -0.0540    0.4270 N   0  0  0  0  0  0  0  0  0  0  0  0
    0.2860   -0.6300    0.1540 C   0  0  0  0  0  0  0  0  0  0  0  0
    0.4820   -1.5190   -0.6650 O   0  0  0  0  0  0  0  0  0  0  0  0
    1.4030   -0.0580    0.8950 O   0  0  0  0  0  0  0  0  0  0  0  0
    2.6360   -0.6180    0.3050 C   0  0  0  0  0  0  0  0  0  0  0  0
    3.5360    0.6020    0.2820 C   0  0  0  0  0  0  0  0  0  0  0  0
    4.6870    0.3690   -0.3320 O   0  0  0  0  0  0  0  0  0  0  0  0
    5.1700   -1.0110   -0.2640 C   0  0  0  0  0  0  0  0  0  0  0  0
    6.7140   -0.6560   -0.5160 C   0  0  0  0  0  0  0  0  0  0  0  0
    6.7820    0.2270    0.6100 O   0  0  0  0  0  0  0  0  0  0  0  0
    7.1980    1.3990    0.1400 O   0  0  0  0  0  0  0  0  0  0  0  0
   -2.1330    0.6910   -1.4480 C   0  0  0  0  0  0  0  0  0  0  0  0
   -3.3830    0.7940   -2.1000 O   0  0  0  0  0  0  0  0  0  0  0  0
   -4.5150    0.2380   -1.4520 C   0  0  0  0  0  0  0  0  0  0  0  0
   -5.5180   -0.1640   -2.0620 O   0  0  0  0  0  0  0  0  0  0  0  0
  2  1  1  1
  2  3  1  0
  2  6  1  0
  2 21  1  0
  3  4  2  0
  3  5  1  0
  6  7  1  0
  7  8  1  1
  7 19  1  0
  8  9  1  0
  9 10  2  0
  9 11  1  0
 11 12  1  0
 12 13  1  0
 13 14  1  0
 14 15  1  0
 15 16  1  0
 16 17  1  0
 17 18  1  0
 19 20  1  0
 20 21  1  0
 21 22  2  0
M  END
