
     RDKit          3D

 20 20  0  0  0  0  0  0  0  0999 V2000
   -4.7200   -0.0650   -0.1230 C   0  0  0  0  0  0  0  0  0  0  0  0
   -3.4280    0.5830    0.1180 N   0  0  1  0  0  0  0  0  0  0  0  0
   -3.4600    1.8390   -0.7300 C   0  0  0  0  0  0  0  0  0  0  0  0
   -3.3040    1.0990    1.4510 C   0  0  0  0  0  0  0  0  0  0  0  0
   -2.3960   -0.1660   -0.4370 C   0  0  0  0  0  0  0  0  0  0  0  0
   -1.7600   -1.2960    0.3210 C   0  0  0  0  0  0  0  0  0  0  0  0
   -0.8280   -1.6650   -0.6690 O   0  0  0  0  0  0  0  0  0  0  0  0
    0.6770   -1.7530   -0.0010 P   0  0  0  0  0  0  0  0  0  0  0  0
    1.0060   -0.9340    1.3530 O   0  0  0  0  0  0  0  0  0  0  0  0
    0.5680   -3.1080    0.4500 O   0  0  0  0  0  0  0  0  0  0  0  0
    1.9710   -2.0940   -1.0970 O   0  0  0  0  0  0  0  0  0  0  0  0
    2.8990   -1.0310   -0.8780 C   0  0  0  0  0  0  0  0  0  0  0  0
    3.6100   -1.1010    0.3050 C   0  0  0  0  0  0  0  0  0  0  0  0
    4.5210   -0.1460    0.6400 C   0  0  0  0  0  0  0  0  0  0  0  0
    4.7320    0.8870   -0.2580 C   0  0  0  0  0  0  0  0  0  0  0  0
    5.6440    1.9060    0.1020 N   0  0  0  0  0  0  0  0  0  0  0  0
    6.3650    1.8070    1.1350 O   0  0  0  0  0  0  0  0  0  0  0  0
    5.7550    3.0020   -0.7240 O   0  0  0  0  0  0  0  0  0  0  0  0
    4.0560    0.9980   -1.4620 C   0  0  0  0  0  0  0  0  0  0  0  0
    3.0830   -0.0290   -1.7650 C   0  0  0  0  0  0  0  0  0  0  0  0
  2  1  1  1
  2  3  1  0
  2  4  1  0
  2  5  1  0
  5  6  1  0
  6  7  1  0
  7  8  1  0
  8  9  1  0
  8 10  1  0
  8 11  1  0
 11 12  1  0
 12 13  2  0
 12 20  1  0
 13 14  1  0
 14 15  2  0
 15 16  1  0
 15 19  1  0
 16 17  2  0
 16 18  1  0
 19 20  2  0
M  CHG  3   2   1  16   1  18  -1
M  END
