
     RDKit          3D

 22 23  0  0  0  0  0  0  0  0999 V2000
    0.2980    1.5480    1.1200 O   0  0  0  0  0  0  0  0  0  0  0  0
    0.4650    0.2840    1.0260 C   0  0  0  0  0  0  0  0  0  0  0  0
    1.7910   -0.2850    1.2880 C   0  0  0  0  0  0  0  0  0  0  0  0
    2.5190   -0.7740    0.0780 C   0  0  0  0  0  0  0  0  0  0  0  0
    3.7490   -1.2770    0.4290 O   0  0  0  0  0  0  0  0  0  0  0  0
    4.6250   -0.4070    1.0100 C   0  0  0  0  0  0  0  0  0  0  0  0
    4.9580    0.7660    0.0800 C   0  0  0  0  0  0  0  0  0  0  0  0
    5.5280    0.2110   -1.0790 O   0  0  0  0  0  0  0  0  0  0  0  0
    5.8220    1.2140   -1.8790 O   0  0  0  0  0  0  0  0  0  0  0  0
    7.1170    1.1080   -2.1330 O   0  0  0  0  0  0  0  0  0  0  0  0
    7.8100    0.8230   -1.0270 O   0  0  0  0  0  0  0  0  0  0  0  0
   -0.6490   -0.4350    0.6770 O   0  0  0  0  0  0  0  0  0  0  0  0
   -1.9300    0.0360    0.4230 C   0  0  2  0  0  0  0  0  0  0  0  0
   -2.8660   -0.7080    1.3670 C   0  0  0  0  0  0  0  0  0  0  0  0
   -4.1860   -0.0080    1.3390 C   0  0  0  0  0  0  0  0  0  0  0  0
   -4.6530    0.0530   -0.0200 N   0  0  0  0  0  0  0  0  0  0  0  0
   -5.9940    0.0060   -0.5210 C   0  0  0  0  0  0  0  0  0  0  0  0
   -7.0670   -0.0370    0.1330 O   0  0  0  0  0  0  0  0  0  0  0  0
   -5.8230    0.0200   -2.0200 C   0  0  0  0  0  0  0  0  0  0  0  0
   -4.5350   -0.5290   -2.1430 O   0  0  0  0  0  0  0  0  0  0  0  0
   -3.8210    0.1760   -1.1780 C   0  0  2  0  0  0  0  0  0  0  0  0
   -2.4210   -0.3230   -0.9720 C   0  0  0  0  0  0  0  0  0  0  0  0
  1  2  2  0
  2  3  1  0
  2 12  1  0
  3  4  1  0
  4  5  1  0
  5  6  1  0
  6  7  1  0
  7  8  1  0
  8  9  1  0
  9 10  1  0
 10 11  1  0
 13 12  1  6
 13 14  1  0
 13 22  1  0
 14 15  1  0
 15 16  1  0
 16 17  1  0
 16 21  1  0
 17 18  2  0
 17 19  1  0
 19 20  1  0
 20 21  1  0
 21 22  1  1
M  END
