
     RDKit          3D

 22 23  0  0  0  0  0  0  0  0999 V2000
    4.7900   -0.7750   -1.6860 C   0  0  0  0  0  0  0  0  0  0  0  0
    4.2270    0.2500   -0.7530 C   0  0  2  0  0  0  0  0  0  0  0  0
    5.1070    0.4590    0.4680 C   0  0  0  0  0  0  0  0  0  0  0  0
    5.1480   -0.7070    1.1970 O   0  0  0  0  0  0  0  0  0  0  0  0
    5.9150   -0.5340    2.2650 O   0  0  0  0  0  0  0  0  0  0  0  0
    2.9320   -0.0960   -0.2690 O   0  0  0  0  0  0  0  0  0  0  0  0
    1.8410    0.7380   -0.4680 C   0  0  0  0  0  0  0  0  0  0  0  0
    2.0380    1.8100   -1.0890 O   0  0  0  0  0  0  0  0  0  0  0  0
    0.5420    0.4380   -0.0080 N   0  0  0  0  0  0  0  0  0  0  0  0
   -0.7470    1.0930   -0.0640 C   0  0  0  0  0  0  0  0  0  0  0  0
   -1.4350   -0.2220    0.1100 C   0  0  1  0  0  0  0  0  0  0  0  0
   -2.5970   -0.2180    1.0850 C   0  0  0  0  0  0  0  0  0  0  0  0
   -3.8650   -0.2690    0.2650 C   0  0  2  0  0  0  0  0  0  0  0  0
   -5.0120   -0.0100    1.0090 O   0  0  0  0  0  0  0  0  0  0  0  0
   -5.8700    1.0130    0.6350 C   0  0  0  0  0  0  0  0  0  0  0  0
   -5.5580    1.6730   -0.3890 O   0  0  0  0  0  0  0  0  0  0  0  0
   -7.0390    1.3120    1.3540 O   0  0  0  0  0  0  0  0  0  0  0  0
   -3.9720   -1.6700   -0.3030 C   0  0  0  0  0  0  0  0  0  0  0  0
   -2.7970   -1.8730   -1.0860 O   0  0  0  0  0  0  0  0  0  0  0  0
   -1.7900   -0.9150   -1.1540 C   0  0  0  0  0  0  0  0  0  0  0  0
   -1.2200   -0.6640   -2.2480 O   0  0  0  0  0  0  0  0  0  0  0  0
   -0.1230   -0.6440    0.7260 C   0  0  0  0  0  0  0  0  0  0  0  0
  2  1  1  6
  2  3  1  0
  2  6  1  0
  3  4  1  0
  4  5  1  0
  6  7  1  0
  7  8  2  0
  7  9  1  0
  9 10  1  0
  9 22  1  0
 11 10  1  6
 11 12  1  0
 11 20  1  0
 11 22  1  0
 12 13  1  0
 13 14  1  1
 13 18  1  0
 14 15  1  0
 15 16  2  0
 15 17  1  0
 18 19  1  0
 19 20  1  0
 20 21  2  0
M  END
