
     RDKit          3D

 22 22  0  0  0  0  0  0  0  0999 V2000
    5.4160    0.9580    0.8810 C   0  0  0  0  0  0  0  0  0  0  0  0
    4.4910    0.3120    0.1970 C   0  0  0  0  0  0  0  0  0  0  0  0
    4.8410   -0.6310   -0.8690 C   0  0  0  0  0  0  0  0  0  0  0  0
    6.0580   -0.8200   -1.1270 O   0  0  0  0  0  0  0  0  0  0  0  0
    3.0890    0.5520    0.5190 C   0  0  0  0  0  0  0  0  0  0  0  0
    2.7580    1.3550    1.4270 O   0  0  0  0  0  0  0  0  0  0  0  0
    2.0520   -0.0860   -0.1520 O   0  0  0  0  0  0  0  0  0  0  0  0
    0.6840    0.1340    0.1470 C   0  0  1  0  0  0  0  0  0  0  0  0
   -0.0530    0.7670   -0.9950 C   0  0  0  0  0  0  0  0  0  0  0  0
   -0.2350    2.1690   -0.7920 O   0  0  0  0  0  0  0  0  0  0  0  0
   -1.4730    2.7840   -0.9030 C   0  0  0  0  0  0  0  0  0  0  0  0
   -1.4530    3.9750   -1.3710 O   0  0  0  0  0  0  0  0  0  0  0  0
   -2.6950    2.1610   -0.5300 N   0  0  0  0  0  0  0  0  0  0  0  0
   -2.8610    1.2890    0.5980 C   0  0  0  0  0  0  0  0  0  0  0  0
   -3.5920    0.0090    0.2670 C   0  0  0  0  0  0  0  0  0  0  0  0
   -3.2990   -0.9960    1.2190 O   0  0  0  0  0  0  0  0  0  0  0  0
   -2.1410   -1.7130    1.2980 C   0  0  0  0  0  0  0  0  0  0  0  0
   -1.4180   -1.7920    2.3520 O   0  0  0  0  0  0  0  0  0  0  0  0
   -1.6290   -2.4750    0.1280 C   0  0  1  0  0  0  0  0  0  0  0  0
   -2.5530   -2.5080   -0.9110 O   0  0  0  0  0  0  0  0  0  0  0  0
   -0.3010   -1.9180   -0.2940 C   0  0  0  0  0  0  0  0  0  0  0  0
    0.1250   -1.0120    0.6300 O   0  0  0  0  0  0  0  0  0  0  0  0
  1  2  2  0
  2  3  1  0
  2  5  1  0
  3  4  2  0
  5  6  2  0
  5  7  1  0
  8  7  1  6
  8  9  1  0
  8 22  1  0
  9 10  1  0
 10 11  1  0
 11 12  2  0
 11 13  1  0
 13 14  1  0
 14 15  1  0
 15 16  1  0
 16 17  1  0
 17 18  2  0
 17 19  1  0
 19 20  1  6
 19 21  1  0
 21 22  1  0
M  END
