
     RDKit          3D

 40 41  0  0  0  0  0  0  0  0999 V2000
    8.3770    4.0170   -2.4280 C   0  0  0  0  0  0  0  0  0  0  0  0
    7.2680    3.3330   -2.6380 C   0  0  0  0  0  0  0  0  0  0  0  0
    6.4600    2.8880   -1.4600 C   0  0  0  0  0  0  0  0  0  0  0  0
    6.4160    1.4230   -1.5480 N   0  0  0  0  0  0  0  0  0  0  0  0
    7.6650    0.7510   -1.5150 C   0  0  0  0  0  0  0  0  0  0  0  0
    8.7380    1.3700   -1.4170 O   0  0  0  0  0  0  0  0  0  0  0  0
    7.6750   -0.7320   -1.6020 C   0  0  0  0  0  0  0  0  0  0  0  0
    6.0400   -1.3660   -1.6320 S   0  0  0  0  0  0  0  0  0  0  0  0
    5.0590   -1.1560   -0.1910 C   0  0  0  0  0  0  0  0  0  0  0  0
    3.6510   -1.6070   -0.3960 C   0  0  0  0  0  0  0  0  0  0  0  0
    3.3240   -2.1210   -1.5210 O   0  0  0  0  0  0  0  0  0  0  0  0
    2.6460   -1.5090    0.5570 N   0  0  0  0  0  0  0  0  0  0  0  0
    1.2790   -1.9500    0.3530 C   0  0  2  0  0  0  0  0  0  0  0  0
    0.4680   -0.7030    0.1980 C   0  0  0  0  0  0  0  0  0  0  0  0
    1.0350    0.3910    0.3390 O   0  0  0  0  0  0  0  0  0  0  0  0
   -0.9110   -0.7610   -0.1100 N   0  0  0  0  0  0  0  0  0  0  0  0
   -1.7980    0.3020   -0.3010 C   0  0  0  0  0  0  0  0  0  0  0  0
   -1.3570    1.5810   -0.5020 C   0  0  0  0  0  0  0  0  0  0  0  0
   -2.2590    2.6500   -0.6880 C   0  0  0  0  0  0  0  0  0  0  0  0
   -3.5930    2.3270   -0.6550 C   0  0  0  0  0  0  0  0  0  0  0  0
   -4.0600    1.0570   -0.4560 C   0  0  0  0  0  0  0  0  0  0  0  0
   -3.1500    0.0490   -0.2790 C   0  0  0  0  0  0  0  0  0  0  0  0
   -5.5290    1.1060   -0.4900 C   0  0  0  0  0  0  0  0  0  0  0  0
   -6.5690   -0.3080   -0.2710 S   0  0  0  0  0  0  0  0  0  0  0  0
   -8.3370    0.1490   -0.4220 C   0  0  2  0  0  0  0  0  0  0  0  0
   -8.6360    0.5830   -1.8540 C   0  0  0  0  0  0  0  0  0  0  0  0
   -8.6170    1.2610    0.5400 C   0  0  0  0  0  0  0  0  0  0  0  0
  -10.0490    1.7240    0.5070 C   0  0  0  0  0  0  0  0  0  0  0  0
  -11.0410    0.6480    0.8560 C   0  0  0  0  0  0  0  0  0  0  0  0
   -5.8760    2.3180   -0.6960 N   0  0  0  0  0  0  0  0  0  0  0  0
   -4.7770    3.1910   -0.8180 C   0  0  0  0  0  0  0  0  0  0  0  0
   -4.7530    4.4360   -1.0220 O   0  0  0  0  0  0  0  0  0  0  0  0
    0.6920   -2.8840    1.3230 C   0  0  2  0  0  0  0  0  0  0  0  0
    0.6630   -2.3610    2.7460 C   0  0  0  0  0  0  0  0  0  0  0  0
    1.1230   -4.3160    1.2480 C   0  0  0  0  0  0  0  0  0  0  0  0
    2.5150   -4.6250    1.5130 C   0  0  0  0  0  0  0  0  0  0  0  0
    3.4620   -3.9610    2.1010 C   0  0  0  0  0  0  0  0  0  0  0  0
    5.4850   -0.6550    0.9230 C   0  0  0  0  0  0  0  0  0  0  0  0
    6.8220   -0.1470    1.2990 C   0  0  0  0  0  0  0  0  0  0  0  0
    4.5810   -0.5340    2.0440 O   0  0  0  0  0  0  0  0  0  0  0  0
  1  2  2  0
  2  3  1  0
  3  4  1  0
  4  5  1  0
  5  6  2  0
  5  7  1  0
  7  8  1  0
  8  9  1  0
  9 10  1  0
  9 38  2  3
 10 11  2  0
 10 12  1  0
 13 12  1  1
 13 14  1  0
 13 33  1  0
 14 15  2  0
 14 16  1  0
 16 17  1  0
 17 18  2  0
 17 22  1  0
 18 19  1  0
 19 20  2  0
 20 21  1  0
 20 31  1  0
 21 22  2  0
 21 23  1  0
 23 24  1  0
 23 30  2  0
 24 25  1  0
 25 26  1  6
 25 27  1  0
 27 28  1  0
 28 29  1  0
 30 31  1  0
 31 32  2  0
 33 34  1  1
 33 35  1  0
 35 36  1  0
 36 37  2  0
 38 39  1  0
 38 40  1  0
M  END
