
     RDKit          3D

 40 42  0  0  0  0  0  0  0  0999 V2000
   -6.9350   -2.2120    1.3510 C   0  0  0  0  0  0  0  0  0  0  0  0
   -5.8300   -2.4230    2.2370 N   0  0  0  0  0  0  0  0  0  0  0  0
   -4.4570   -1.4180    1.7910 S   0  0  2  0  0  0  0  0  0  0  0  0
   -3.4140   -1.6820    2.8380 O   0  0  0  0  0  0  0  0  0  0  0  0
   -4.9520   -0.0130    1.9620 O   0  0  0  0  0  0  0  0  0  0  0  0
   -3.9550   -1.8570    0.1950 C   0  0  0  0  0  0  0  0  0  0  0  0
   -2.7860   -1.1810   -0.4080 C   0  0  2  0  0  0  0  0  0  0  0  0
   -1.4930   -1.3500    0.3300 C   0  0  0  0  0  0  0  0  0  0  0  0
   -1.0550   -2.6820    0.4660 N   0  0  0  0  0  0  0  0  0  0  0  0
    0.0160   -2.9400    1.3350 C   0  0  0  0  0  0  0  0  0  0  0  0
    1.3750   -2.4720    1.0570 C   0  0  0  0  0  0  0  0  0  0  0  0
    1.5930   -1.0590    1.0110 N   0  0  0  0  0  0  0  0  0  0  0  0
    2.8980   -0.5250    0.7130 C   0  0  0  0  0  0  0  0  0  0  0  0
    3.7830   -1.3550    0.5100 O   0  0  0  0  0  0  0  0  0  0  0  0
    3.1600    0.8480    0.6530 N   0  0  0  0  0  0  0  0  0  0  0  0
    4.4060    1.4680    0.3750 C   0  0  0  0  0  0  0  0  0  0  0  0
    5.5840    0.8140    0.1570 C   0  0  0  0  0  0  0  0  0  0  0  0
    6.7360    1.5500   -0.0950 C   0  0  0  0  0  0  0  0  0  0  0  0
    8.0040    0.7880   -0.3260 C   0  0  0  0  0  0  0  0  0  0  0  0
    6.7770    2.9170   -0.1420 C   0  0  0  0  0  0  0  0  0  0  0  0
    8.0330    3.6670   -0.4150 C   0  0  0  0  0  0  0  0  0  0  0  0
    5.5760    3.5700    0.0810 C   0  0  0  0  0  0  0  0  0  0  0  0
    4.4210    2.8630    0.3330 C   0  0  0  0  0  0  0  0  0  0  0  0
    3.1480    3.6250    0.5620 C   0  0  0  0  0  0  0  0  0  0  0  0
   -1.0280   -3.4570   -0.7550 C   0  0  0  0  0  0  0  0  0  0  0  0
   -0.6140   -4.8630   -0.3260 C   0  0  0  0  0  0  0  0  0  0  0  0
    0.5780   -5.4200   -0.5090 C   0  0  0  0  0  0  0  0  0  0  0  0
    0.8550   -6.6760   -0.0830 C   0  0  0  0  0  0  0  0  0  0  0  0
   -0.7480   -7.1740    0.6810 S   0  0  0  0  0  0  0  0  0  0  0  0
   -1.5690   -5.7070    0.3560 C   0  0  0  0  0  0  0  0  0  0  0  0
   -3.0290    0.2750   -0.5920 C   0  0  0  0  0  0  0  0  0  0  0  0
   -3.4580    0.7900   -1.8120 C   0  0  0  0  0  0  0  0  0  0  0  0
   -3.6890    2.1290   -2.0090 C   0  0  0  0  0  0  0  0  0  0  0  0
   -3.5010    3.0440   -0.9860 C   0  0  0  0  0  0  0  0  0  0  0  0
   -3.7470    4.4680   -1.1730 C   0  0  0  0  0  0  0  0  0  0  0  0
   -3.5430    5.2220   -0.1810 O   0  0  0  0  0  0  0  0  0  0  0  0
   -4.1810    5.0490   -2.3430 O   0  0  0  0  0  0  0  0  0  0  0  0
   -4.4160    6.4130   -2.5230 C   0  0  0  0  0  0  0  0  0  0  0  0
   -3.0750    2.5400    0.2250 C   0  0  0  0  0  0  0  0  0  0  0  0
   -2.8440    1.1860    0.4150 C   0  0  0  0  0  0  0  0  0  0  0  0
  1  2  1  0
  2  3  1  0
  3  4  2  0
  3  5  2  0
  3  6  1  6
  7  6  1  1
  7  8  1  0
  7 31  1  0
  8  9  1  0
  9 10  1  0
  9 25  1  0
 10 11  1  0
 11 12  1  0
 12 13  1  0
 13 14  2  0
 13 15  1  0
 15 16  1  0
 16 17  2  0
 16 23  1  0
 17 18  1  0
 18 19  1  0
 18 20  2  0
 20 21  1  0
 20 22  1  0
 22 23  2  0
 23 24  1  0
 25 26  1  0
 26 27  1  0
 26 30  2  0
 27 28  2  0
 28 29  1  0
 29 30  1  0
 31 32  2  0
 31 40  1  0
 32 33  1  0
 33 34  2  0
 34 35  1  0
 34 39  1  0
 35 36  2  0
 35 37  1  0
 37 38  1  0
 39 40  2  0
M  END
