
     RDKit          3D

 39 41  0  0  0  0  0  0  0  0999 V2000
    3.1550   -4.8780    0.6190 C   0  0  0  0  0  0  0  0  0  0  0  0
    3.3620   -3.6580   -0.0760 O   0  0  0  0  0  0  0  0  0  0  0  0
    2.7090   -2.4880    0.2740 C   0  0  0  0  0  0  0  0  0  0  0  0
    1.9160   -2.5150    1.2300 O   0  0  0  0  0  0  0  0  0  0  0  0
    2.9380   -1.2140   -0.4660 C   0  0  0  0  0  0  0  0  0  0  0  0
    2.0490   -0.0890   -0.0020 C   0  0  2  0  0  0  0  0  0  0  0  0
    0.6720   -0.5200   -0.2390 N   0  0  0  0  0  0  0  0  0  0  0  0
   -0.4120   -0.3770    0.6290 C   0  0  0  0  0  0  0  0  0  0  0  0
   -0.1560    0.1950    1.7470 O   0  0  0  0  0  0  0  0  0  0  0  0
   -1.8020   -0.7930    0.4370 C   0  0  1  0  0  0  0  0  0  0  0  0
   -2.7300    0.1620    1.1620 C   0  0  0  0  0  0  0  0  0  0  0  0
   -3.5130    1.0760    0.2800 C   0  0  2  0  0  0  0  0  0  0  0  0
   -3.0800    2.5240    0.3450 C   0  0  0  0  0  0  0  0  0  0  0  0
   -4.3710    3.2340    0.0020 C   0  0  0  0  0  0  0  0  0  0  0  0
   -5.4010    2.3480    0.1230 O   0  0  0  0  0  0  0  0  0  0  0  0
   -4.9600    1.2270    0.7850 C   0  0  0  0  0  0  0  0  0  0  0  0
   -3.6390    0.6590   -1.0320 O   0  0  0  0  0  0  0  0  0  0  0  0
   -3.6930   -0.7520   -1.1070 C   0  0  0  0  0  0  0  0  0  0  0  0
   -2.2210   -1.1670   -0.9290 C   0  0  1  0  0  0  0  0  0  0  0  0
   -1.5690   -0.4970   -1.9680 O   0  0  0  0  0  0  0  0  0  0  0  0
   -2.0830   -2.6680   -1.0950 C   0  0  0  0  0  0  0  0  0  0  0  0
   -1.5260   -3.1740    0.2410 C   0  0  0  0  0  0  0  0  0  0  0  0
   -2.0050   -2.1320    1.1820 C   0  0  2  0  0  0  0  0  0  0  0  0
   -3.4040   -2.3080    1.3980 O   0  0  0  0  0  0  0  0  0  0  0  0
   -1.3990   -2.1500    2.5370 C   0  0  0  0  0  0  0  0  0  0  0  0
   -1.9200   -1.1170    3.3260 O   0  0  0  0  0  0  0  0  0  0  0  0
    2.3890    1.1380   -0.8930 C   0  0  2  0  0  0  0  0  0  0  0  0
    2.2570    0.7480   -2.2000 O   0  0  0  0  0  0  0  0  0  0  0  0
    3.7470    1.6220   -0.5450 C   0  0  0  0  0  0  0  0  0  0  0  0
    4.2640    2.7600   -1.3240 C   0  0  0  0  0  0  0  0  0  0  0  0
    3.7740    3.2610   -2.3560 O   0  0  0  0  0  0  0  0  0  0  0  0
    5.4870    3.3940   -0.8640 N   0  0  0  0  0  0  0  0  0  0  0  0
    6.0410    4.4890   -1.5590 C   0  0  0  0  0  0  0  0  0  0  0  0
    5.4680    4.9150   -2.5850 O   0  0  0  0  0  0  0  0  0  0  0  0
    7.2040    5.1360   -1.1690 O   0  0  0  0  0  0  0  0  0  0  0  0
    1.3370    2.2090   -0.6040 C   0  0  2  0  0  0  0  0  0  0  0  0
    0.1170    1.7020   -0.9090 F   0  0  0  0  0  0  0  0  0  0  0  0
    1.5560    3.2710   -1.4310 F   0  0  0  0  0  0  0  0  0  0  0  0
    1.3880    2.5890    0.7260 F   0  0  0  0  0  0  0  0  0  0  0  0
  1  2  1  0
  2  3  1  0
  3  4  2  0
  3  5  1  0
  6  5  1  6
  6  7  1  0
  6 27  1  0
  7  8  1  0
  8  9  2  0
 10  8  1  6
 10 11  1  0
 10 19  1  0
 10 23  1  0
 12 11  1  1
 12 13  1  0
 12 16  1  0
 12 17  1  0
 13 14  1  0
 14 15  1  0
 15 16  1  0
 17 18  1  0
 18 19  1  0
 19 20  1  6
 19 21  1  0
 21 22  1  0
 22 23  1  0
 23 24  1  1
 23 25  1  0
 25 26  1  0
 27 28  1  6
 27 29  1  0
 27 36  1  0
 29 30  1  0
 30 31  2  0
 30 32  1  0
 32 33  1  0
 33 34  2  0
 33 35  1  0
 36 37  1  6
 36 38  1  0
 36 39  1  0
M  END
