
     RDKit          3D

 40 42  0  0  0  0  0  0  0  0999 V2000
   -6.6110    2.5370   -3.3910 C   0  0  0  0  0  0  0  0  0  0  0  0
   -5.6880    3.2000   -2.6000 O   0  0  0  0  0  0  0  0  0  0  0  0
   -5.9530    3.1770   -1.2570 C   0  0  0  0  0  0  0  0  0  0  0  0
   -5.8500    1.8570   -0.6500 C   0  0  0  0  0  0  0  0  0  0  0  0
   -6.3100    1.6850    0.5340 O   0  0  0  0  0  0  0  0  0  0  0  0
   -5.2660    0.7060   -1.2610 N   0  0  0  0  0  0  0  0  0  0  0  0
   -5.2210   -0.5620   -0.5750 C   0  0  0  0  0  0  0  0  0  0  0  0
   -4.4770   -0.5920    0.6780 C   0  0  1  0  0  0  0  0  0  0  0  0
   -4.6550   -1.9400    1.1870 O   0  0  0  0  0  0  0  0  0  0  0  0
   -2.9740   -0.4700    0.6580 C   0  0  1  0  0  0  0  0  0  0  0  0
   -2.3610   -1.5690   -0.1300 C   0  0  0  0  0  0  0  0  0  0  0  0
   -0.8740   -1.5500   -0.1630 N   0  0  0  0  0  0  0  0  0  0  0  0
   -0.2630   -0.8740   -1.1930 C   0  0  0  0  0  0  0  0  0  0  0  0
   -1.0820   -0.4340   -2.1200 O   0  0  0  0  0  0  0  0  0  0  0  0
    1.1510   -0.5850   -1.3850 C   0  0  0  0  0  0  0  0  0  0  0  0
    2.3050   -0.7080   -0.7120 C   0  0  0  0  0  0  0  0  0  0  0  0
    3.4770   -0.3620   -1.2770 C   0  0  0  0  0  0  0  0  0  0  0  0
    4.7980   -0.4800   -0.5850 C   0  0  0  0  0  0  0  0  0  0  0  0
    5.8180   -0.8210   -1.2350 O   0  0  0  0  0  0  0  0  0  0  0  0
    4.9510   -0.2210    0.7940 N   0  0  0  0  0  0  0  0  0  0  0  0
    6.2600   -0.3490    1.4300 C   0  0  0  0  0  0  0  0  0  0  0  0
    7.1170    0.8320    1.0830 C   0  0  0  0  0  0  0  0  0  0  0  0
    6.6300    1.9110    0.3540 C   0  0  0  0  0  0  0  0  0  0  0  0
    7.4190    2.9910    0.0360 C   0  0  0  0  0  0  0  0  0  0  0  0
    8.7310    3.0260    0.4430 C   0  0  0  0  0  0  0  0  0  0  0  0
    9.2490    1.9620    1.1740 C   0  0  0  0  0  0  0  0  0  0  0  0
    8.4340    0.8860    1.4800 C   0  0  0  0  0  0  0  0  0  0  0  0
    3.4280    0.1230   -2.5710 C   0  0  0  0  0  0  0  0  0  0  0  0
    4.5910    0.5790   -3.4280 C   0  0  0  0  0  0  0  0  0  0  0  0
    1.7550    0.0880   -2.9770 S   0  0  0  0  0  0  0  0  0  0  0  0
   -0.1970   -2.4070    0.8140 C   0  0  1  0  0  0  0  0  0  0  0  0
   -0.2630   -1.8690    2.2010 C   0  0  0  0  0  0  0  0  0  0  0  0
   -0.8670   -3.7330    0.8270 C   0  0  0  0  0  0  0  0  0  0  0  0
   -1.2160   -4.5330    1.9210 C   0  0  0  0  0  0  0  0  0  0  0  0
   -1.7980   -5.6560    1.6590 N   0  0  0  0  0  0  0  0  0  0  0  0
   -2.0690   -6.0730    0.4710 C   0  0  0  0  0  0  0  0  0  0  0  0
   -1.4150   -4.6810   -0.5110 S   0  0  0  0  0  0  0  0  0  0  0  0
   -2.3660    0.8530    0.6980 C   0  0  2  0  0  0  0  0  0  0  0  0
   -2.8000    1.5280    2.0130 C   0  0  0  0  0  0  0  0  0  0  0  0
   -2.4760    1.8310   -0.3890 C   0  0  0  0  0  0  0  0  0  0  0  0
  1  2  1  0
  2  3  1  0
  3  4  1  0
  4  5  2  0
  4  6  1  0
  6  7  1  0
  7  8  1  0
  8  9  1  6
  8 10  1  0
 10 11  1  6
 10 38  1  0
 11 12  1  0
 12 13  1  0
 12 31  1  0
 13 14  2  0
 13 15  1  0
 15 16  2  0
 15 30  1  0
 16 17  1  0
 17 18  1  0
 17 28  2  0
 18 19  2  0
 18 20  1  0
 20 21  1  0
 21 22  1  0
 22 23  2  0
 22 27  1  0
 23 24  1  0
 24 25  2  0
 25 26  1  0
 26 27  2  0
 28 29  1  0
 28 30  1  0
 31 32  1  1
 31 33  1  0
 33 34  2  0
 33 37  1  0
 34 35  1  0
 35 36  2  0
 36 37  1  0
 38 39  1  1
 38 40  1  0
M  END
