
     RDKit          3D

 40 40  0  0  0  0  0  0  0  0999 V2000
   -5.3080   -2.2630    1.3460 C   0  0  0  0  0  0  0  0  0  0  0  0
   -4.2200   -2.1750    0.3560 C   0  0  0  0  0  0  0  0  0  0  0  0
   -4.1990   -1.1780   -0.4990 C   0  0  0  0  0  0  0  0  0  0  0  0
   -5.2290   -0.1430   -0.5020 C   0  0  0  0  0  0  0  0  0  0  0  0
   -6.3730   -0.5350   -0.1480 O   0  0  0  0  0  0  0  0  0  0  0  0
   -4.8770    1.1170   -0.8750 O   0  0  0  0  0  0  0  0  0  0  0  0
   -3.9670    2.0110   -0.3450 C   0  0  1  0  0  0  0  0  0  0  0  0
   -4.5770    3.3830   -0.0390 C   0  0  0  0  0  0  0  0  0  0  0  0
   -5.0920    3.9900   -1.1580 O   0  0  0  0  0  0  0  0  0  0  0  0
   -3.2700    1.5770    0.8680 C   0  0  0  0  0  0  0  0  0  0  0  0
   -3.9620    1.4810    1.9360 O   0  0  0  0  0  0  0  0  0  0  0  0
   -1.9140    1.2790    0.8710 O   0  0  0  0  0  0  0  0  0  0  0  0
   -0.9270    2.0970    0.2690 C   0  0  0  0  0  0  0  0  0  0  0  0
    0.3460    1.2960    0.0370 C   0  0  1  0  0  0  0  0  0  0  0  0
    1.1820    1.4620    1.2860 C   0  0  0  0  0  0  0  0  0  0  0  0
    2.4960    0.7190    1.2150 C   0  0  1  0  0  0  0  0  0  0  0  0
    2.4020   -0.6520    1.0460 O   0  0  0  0  0  0  0  0  0  0  0  0
    2.8160   -1.5790    1.9790 C   0  0  0  0  0  0  0  0  0  0  0  0
    3.3100   -1.1450    3.0480 O   0  0  0  0  0  0  0  0  0  0  0  0
    2.7120   -3.0410    1.7920 C   0  0  0  0  0  0  0  0  0  0  0  0
    3.2220   -3.7480    2.9300 N   0  0  0  0  0  0  0  0  0  0  0  0
    3.3640    1.2700    0.2570 O   0  0  0  0  0  0  0  0  0  0  0  0
    4.5960    0.7220    0.0220 C   0  0  0  0  0  0  0  0  0  0  0  0
    5.6260    1.0610    0.7880 C   0  0  0  0  0  0  0  0  0  0  0  0
    5.5290    2.0080    1.8900 C   0  0  1  0  0  0  0  0  0  0  0  0
    4.5320    2.9270    1.6590 F   0  0  0  0  0  0  0  0  0  0  0  0
    5.3810    1.3970    3.1110 F   0  0  0  0  0  0  0  0  0  0  0  0
    4.8720   -0.2290   -1.0320 C   0  0  0  0  0  0  0  0  0  0  0  0
    6.1750   -0.7600   -1.1790 N   0  0  0  0  0  0  0  0  0  0  0  0
    3.9360   -0.6110   -1.8580 C   0  0  0  0  0  0  0  0  0  0  0  0
    2.6720   -0.1840   -1.8260 F   0  0  0  0  0  0  0  0  0  0  0  0
    4.2120   -1.5250   -2.8620 F   0  0  0  0  0  0  0  0  0  0  0  0
   -0.0540   -0.0130   -0.0560 O   0  0  0  0  0  0  0  0  0  0  0  0
   -0.6800   -0.3810   -1.2140 C   0  0  2  0  0  0  0  0  0  0  0  0
   -1.1380    0.6170   -2.0060 O   0  0  0  0  0  0  0  0  0  0  0  0
   -0.6030    0.6920   -3.2700 C   0  0  0  0  0  0  0  0  0  0  0  0
   -1.7390   -1.4050   -0.8380 C   0  0  2  0  0  0  0  0  0  0  0  0
   -1.2910   -2.7230   -1.0910 O   0  0  0  0  0  0  0  0  0  0  0  0
   -3.0560   -1.1350   -1.4970 C   0  0  1  0  0  0  0  0  0  0  0  0
   -3.2880   -2.2000   -2.3990 O   0  0  0  0  0  0  0  0  0  0  0  0
  1  2  1  0
  2  3  2  3
  3  4  1  0
  3 39  1  0
  4  5  2  0
  4  6  1  0
  6  7  1  0
  7  8  1  1
  7 10  1  0
  8  9  1  0
 10 11  2  0
 10 12  1  0
 12 13  1  0
 13 14  1  0
 14 15  1  1
 14 33  1  0
 16 15  1  6
 16 17  1  0
 16 22  1  0
 17 18  1  0
 18 19  2  0
 18 20  1  0
 20 21  1  0
 22 23  1  0
 23 24  2  3
 23 28  1  0
 24 25  1  0
 25 26  1  6
 25 27  1  0
 28 29  1  0
 28 30  2  3
 30 31  1  0
 30 32  1  0
 33 34  1  0
 34 35  1  1
 34 37  1  0
 35 36  1  0
 37 38  1  6
 37 39  1  0
 39 40  1  6
M  END
