
     RDKit          3D

 16 16  0  0  0  0  0  0  0  0999 V2000
   -2.4590   -2.0770    0.0100 C   0  0  0  0  0  0  0  0  0  0  0  0
   -1.3290   -1.1280    0.2350 N   0  0  0  0  0  0  0  0  0  0  0  0
   -1.7450    0.1960    0.6440 C   0  0  0  0  0  0  0  0  0  0  0  0
   -1.9340    1.2440   -0.8620 P   0  0  0  0  0  0  0  0  0  0  0  0
   -1.2060    0.5490   -2.2580 O   0  0  0  0  0  0  0  0  0  0  0  0
   -3.5160    1.8170   -1.1140 O   0  0  0  0  0  0  0  0  0  0  0  0
   -0.0500   -1.6190    0.0580 C   0  0  0  0  0  0  0  0  0  0  0  0
    0.0420   -2.8630   -0.2630 O   0  0  0  0  0  0  0  0  0  0  0  0
    1.2100   -0.9370    0.1790 C   0  0  0  0  0  0  0  0  0  0  0  0
    2.4940   -1.5070    0.0420 C   0  0  0  0  0  0  0  0  0  0  0  0
    3.3900   -0.5940    0.1960 O   0  0  0  0  0  0  0  0  0  0  0  0
    2.8700    0.5810    0.4320 C   0  0  0  0  0  0  0  0  0  0  0  0
    3.5740    1.8380    0.6570 C   0  0  0  0  0  0  0  0  0  0  0  0
    4.8130    1.8750    0.6370 O   0  0  0  0  0  0  0  0  0  0  0  0
    2.8760    3.0060    0.8950 O   0  0  0  0  0  0  0  0  0  0  0  0
    1.4820    0.3790    0.4240 C   0  0  0  0  0  0  0  0  0  0  0  0
  1  2  1  0
  2  3  1  0
  2  7  1  0
  3  4  1  0
  4  5  1  0
  4  6  1  0
  7  8  2  0
  7  9  1  0
  9 10  2  0
  9 16  1  0
 10 11  1  0
 11 12  1  0
 12 13  1  0
 12 16  2  0
 13 14  2  0
 13 15  1  0
M  END
