
     RDKit          3D

 15 15  0  0  0  0  0  0  0  0999 V2000
   -5.3740   -0.3290   -0.8290 C   0  0  0  0  0  0  0  0  0  0  0  0
   -4.4660    0.0840   -1.8540 O   0  0  0  0  0  0  0  0  0  0  0  0
   -3.1110    0.1680   -1.4800 C   0  0  0  0  0  0  0  0  0  0  0  0
   -2.6960    1.0590   -0.5960 C   0  0  0  0  0  0  0  0  0  0  0  0
   -1.3090    1.1830   -0.1800 C   0  0  0  0  0  0  0  0  0  0  0  0
   -0.4130    0.3830   -0.6930 C   0  0  0  0  0  0  0  0  0  0  0  0
    0.9690    0.4190   -0.3560 N   0  0  0  0  0  0  0  0  0  0  0  0
    1.4080   -0.4530    0.7140 C   0  0  0  0  0  0  0  0  0  0  0  0
    2.8800   -0.3330    0.9840 C   0  0  0  0  0  0  0  0  0  0  0  0
    3.1800    0.9710    1.3450 O   0  0  0  0  0  0  0  0  0  0  0  0
    4.8430    1.2190    1.6770 P   0  0  0  0  0  0  0  0  0  0  0  0
    5.2480    0.5690    3.2290 O   0  0  0  0  0  0  0  0  0  0  0  0
    5.8620    0.5830    0.4480 O   0  0  0  0  0  0  0  0  0  0  0  0
   -0.8190   -0.5750   -1.6340 O   0  0  0  0  0  0  0  0  0  0  0  0
   -2.1220   -0.7560   -2.0820 C   0  0  0  0  0  0  0  0  0  0  0  0
  1  2  1  0
  2  3  1  0
  3  4  2  0
  3 15  1  0
  4  5  1  0
  5  6  2  0
  6  7  1  0
  6 14  1  0
  7  8  1  0
  8  9  1  0
  9 10  1  0
 10 11  1  0
 11 12  1  0
 11 13  1  0
 14 15  1  0
M  END
