
     RDKit          3D

 16 16  0  0  0  0  0  0  0  0999 V2000
   -1.2660   -1.2920   -0.2710 C   0  0  0  0  0  0  0  0  0  0  0  0
   -1.4540   -0.0580    0.4570 N   0  0  0  0  0  0  0  0  0  0  0  0
   -2.6100    0.2080    1.2840 C   0  0  0  0  0  0  0  0  0  0  0  0
   -3.7320    0.8600    0.5340 C   0  0  0  0  0  0  0  0  0  0  0  0
   -4.2030    0.1080   -0.5160 O   0  0  0  0  0  0  0  0  0  0  0  0
   -0.4700    0.9670    0.3780 C   0  0  0  0  0  0  0  0  0  0  0  0
   -0.5900    2.0690    1.0010 O   0  0  0  0  0  0  0  0  0  0  0  0
    0.7400    0.7960   -0.4330 C   0  0  0  0  0  0  0  0  0  0  0  0
    0.8500    1.1510   -1.7600 C   0  0  0  0  0  0  0  0  0  0  0  0
    2.0780    0.8550   -2.1680 O   0  0  0  0  0  0  0  0  0  0  0  0
    2.7780    0.3290   -1.1920 C   0  0  0  0  0  0  0  0  0  0  0  0
    1.9540    0.2770   -0.0710 C   0  0  0  0  0  0  0  0  0  0  0  0
    2.2450   -0.1950    1.1910 O   0  0  0  0  0  0  0  0  0  0  0  0
    3.7570   -0.8580    1.6970 P   0  0  0  0  0  0  0  0  0  0  0  0
    4.0030   -2.4870    1.2330 O   0  0  0  0  0  0  0  0  0  0  0  0
    5.1040    0.1610    1.4060 O   0  0  0  0  0  0  0  0  0  0  0  0
  1  2  1  0
  2  3  1  0
  2  6  1  0
  3  4  1  0
  4  5  1  0
  6  7  2  0
  6  8  1  0
  8  9  2  0
  8 12  1  0
  9 10  1  0
 10 11  1  0
 11 12  2  0
 12 13  1  0
 13 14  1  0
 14 15  1  0
 14 16  1  0
M  END
