
     RDKit          3D

 16 16  0  0  0  0  0  0  0  0999 V2000
   -0.0600    2.1710   -0.3390 C   0  0  0  0  0  0  0  0  0  0  0  0
    0.0930    0.7100   -0.1040 C   0  0  0  0  0  0  0  0  0  0  0  0
   -0.8120   -0.2300   -0.0330 C   0  0  0  0  0  0  0  0  0  0  0  0
   -2.1790    0.0030   -0.1760 O   0  0  0  0  0  0  0  0  0  0  0  0
   -2.9470    0.2680    0.9790 C   0  0  0  0  0  0  0  0  0  0  0  0
   -4.7100    0.5250    0.3900 P   0  0  0  0  0  0  0  0  0  0  0  0
   -5.2180   -0.9970   -0.2970 O   0  0  0  0  0  0  0  0  0  0  0  0
   -4.7800    1.7710   -0.7790 O   0  0  0  0  0  0  0  0  0  0  0  0
   -0.1970   -1.5220    0.2120 C   0  0  0  0  0  0  0  0  0  0  0  0
   -0.8160   -2.6320    0.3330 O   0  0  0  0  0  0  0  0  0  0  0  0
    1.1550   -1.2760    0.2810 O   0  0  0  0  0  0  0  0  0  0  0  0
    1.4100    0.0700    0.0970 C   0  0  0  0  0  0  0  0  0  0  0  0
    2.5090    0.7130    0.0850 N   0  0  0  0  0  0  0  0  0  0  0  0
    3.8020    0.1970    0.2660 C   0  0  0  0  0  0  0  0  0  0  0  0
    3.8160   -1.3050    0.2000 C   0  0  0  0  0  0  0  0  0  0  0  0
    3.3550   -1.7870   -1.0170 O   0  0  0  0  0  0  0  0  0  0  0  0
  1  2  1  0
  2  3  2  0
  2 12  1  0
  3  4  1  0
  3  9  1  0
  4  5  1  0
  5  6  1  0
  6  7  1  0
  6  8  1  0
  9 10  2  0
  9 11  1  0
 11 12  1  0
 12 13  2  3
 13 14  1  0
 14 15  1  0
 15 16  1  0
M  END
