
     RDKit          3D

 15 15  0  0  0  0  0  0  0  0999 V2000
   -1.6520    1.3330   -0.6710 C   0  0  0  0  0  0  0  0  0  0  0  0
   -1.7230    0.2500    0.2730 N   0  0  0  0  0  0  0  0  0  0  0  0
   -2.9920    0.0220    0.9530 C   0  0  0  0  0  0  0  0  0  0  0  0
   -3.0070    1.0170    2.5080 P   0  0  0  0  0  0  0  0  0  0  0  0
   -4.2660    1.8420    2.9520 O   0  0  0  0  0  0  0  0  0  0  0  0
   -0.6370   -0.5720    0.5520 C   0  0  0  0  0  0  0  0  0  0  0  0
   -0.7340   -1.5250    1.3960 O   0  0  0  0  0  0  0  0  0  0  0  0
    0.6800   -0.4100   -0.0900 C   0  0  2  0  0  0  0  0  0  0  0  0
    0.7200    0.6450   -0.9980 O   0  0  0  0  0  0  0  0  0  0  0  0
    1.8470    0.9800   -1.7290 C   0  0  0  0  0  0  0  0  0  0  0  0
    2.8750    0.2850   -1.5520 O   0  0  0  0  0  0  0  0  0  0  0  0
    1.8430    2.0570   -2.6340 O   0  0  0  0  0  0  0  0  0  0  0  0
    1.1940   -1.7370   -0.6060 C   0  0  0  0  0  0  0  0  0  0  0  0
    2.1190   -1.7980    0.5870 C   0  0  0  0  0  0  0  0  0  0  0  0
    1.8200   -0.3860    0.9430 C   0  0  0  0  0  0  0  0  0  0  0  0
  1  2  1  0
  2  3  1  0
  2  6  1  0
  3  4  1  0
  4  5  2  0
  6  7  2  0
  6  8  1  0
  8  9  1  6
  8 13  1  0
  8 15  1  0
  9 10  1  0
 10 11  2  0
 10 12  1  0
 13 14  1  0
 14 15  1  0
M  END
