
     RDKit          3D

 14 14  0  0  0  0  0  0  0  0999 V2000
   -2.2480   -1.4360   -0.8520 C   0  0  0  0  0  0  0  0  0  0  0  0
   -1.2720   -1.4350    0.0080 C   0  0  0  0  0  0  0  0  0  0  0  0
   -1.2410   -2.4700    0.9680 O   0  0  0  0  0  0  0  0  0  0  0  0
   -1.2790   -3.7320    0.4990 O   0  0  0  0  0  0  0  0  0  0  0  0
   -0.2060   -0.4580    0.0720 N   0  0  0  0  0  0  0  0  0  0  0  0
    0.9710   -1.0260    0.2840 O   0  0  0  0  0  0  0  0  0  0  0  0
    2.2600    0.0060    0.3920 P   0  0  0  0  0  0  0  0  0  0  0  0
    4.0540   -0.4260    0.1630 C   0  0  0  0  0  0  0  0  0  0  0  0
    1.7400    1.6610    0.1910 C   0  0  0  0  0  0  0  0  0  0  0  0
    2.5560    2.6130    0.2360 O   0  0  0  0  0  0  0  0  0  0  0  0
    0.4700    1.7690    0.0010 O   0  0  0  0  0  0  0  0  0  0  0  0
   -0.4160    0.8280   -0.0550 N   0  0  0  0  0  0  0  0  0  0  0  0
   -2.1440    1.3720   -0.2850 P   0  0  0  0  0  0  0  0  0  0  0  0
   -2.4940    2.8140    0.6960 N   0  0  0  0  0  0  0  0  0  0  0  0
  1  2  2  0
  2  3  1  0
  2  5  1  0
  3  4  1  0
  5  6  1  0
  5 12  1  0
  6  7  1  0
  7  8  1  0
  7  9  1  0
  9 10  2  0
  9 11  1  0
 11 12  1  0
 12 13  1  0
 13 14  1  0
M  END
