
     RDKit          3D

 14 14  0  0  0  0  0  0  0  0999 V2000
   -4.5700    0.7240    0.3730 C   0  0  0  0  0  0  0  0  0  0  0  0
   -3.5240   -0.1990    0.3030 O   0  0  0  0  0  0  0  0  0  0  0  0
   -2.4910    0.4280   -0.3960 C   0  0  0  0  0  0  0  0  0  0  0  0
   -1.3340   -0.4580   -0.5290 N   0  0  0  0  0  0  0  0  0  0  0  0
   -0.4020    0.2330   -1.2100 O   0  0  0  0  0  0  0  0  0  0  0  0
    0.3160    0.8930   -0.3150 O   0  0  0  0  0  0  0  0  0  0  0  0
    1.1850   -0.0680    0.2050 C   0  0  1  0  0  0  0  0  0  0  0  0
    1.9090   -0.5550   -0.9020 O   0  0  0  0  0  0  0  0  0  0  0  0
    2.1290    0.5090    1.1370 N   0  0  0  0  0  0  0  0  0  0  0  0
    2.8320    1.4490    0.4230 O   0  0  0  0  0  0  0  0  0  0  0  0
    4.4690    1.5550    0.9400 P   0  0  0  0  0  0  0  0  0  0  0  0
    0.3850   -1.1120    0.7690 N   0  0  0  0  0  0  0  0  0  0  0  0
    0.8540   -2.4250    0.4000 C   0  0  0  0  0  0  0  0  0  0  0  0
   -0.9270   -0.9400    0.6370 O   0  0  0  0  0  0  0  0  0  0  0  0
  1  2  1  0
  2  3  1  0
  3  4  1  0
  4  5  1  0
  4 14  1  0
  5  6  1  0
  6  7  1  0
  7  8  1  6
  7  9  1  0
  7 12  1  0
  9 10  1  0
 10 11  1  0
 12 13  1  0
 12 14  1  0
M  END
