
     RDKit          3D

 14 14  0  0  0  0  0  0  0  0999 V2000
    5.9050   -0.5350    0.1190 O   0  0  0  0  0  0  0  0  0  0  0  0
    4.7830   -0.2700   -0.3580 N   0  0  0  0  0  0  0  0  0  0  0  0
    3.8140    0.4350    0.2910 O   0  0  0  0  0  0  0  0  0  0  0  0
    2.9600   -0.2450    1.0670 O   0  0  0  0  0  0  0  0  0  0  0  0
    2.3650   -1.1400    0.2790 O   0  0  0  0  0  0  0  0  0  0  0  0
    1.0750   -0.9960    0.4330 O   0  0  0  0  0  0  0  0  0  0  0  0
    0.5360   -0.0290   -0.3820 C   0  0  0  0  0  0  0  0  0  0  0  0
   -0.9340    0.0310   -0.1060 C   0  0  0  0  0  0  0  0  0  0  0  0
   -1.4940   -0.7430    0.7710 N   0  0  0  0  0  0  0  0  0  0  0  0
   -2.9000   -0.5890    0.9420 C   0  0  0  0  0  0  0  0  0  0  0  0
   -3.5680   -1.2730    1.7550 O   0  0  0  0  0  0  0  0  0  0  0  0
   -3.6230    0.4040    0.1430 C   0  0  0  0  0  0  0  0  0  0  0  0
   -2.9420    1.2050   -0.6130 C   0  0  0  0  0  0  0  0  0  0  0  0
   -1.6920    1.0110   -0.8840 C   0  0  0  0  0  0  0  0  0  0  0  0
  1  2  2  0
  2  3  1  0
  3  4  1  0
  4  5  1  0
  5  6  1  0
  6  7  1  0
  7  8  1  0
  8  9  2  0
  8 14  1  0
  9 10  1  0
 10 11  2  0
 10 12  1  0
 12 13  2  0
 13 14  2  0
M  END
