
     RDKit          3D

 22 23  0  0  0  0  0  0  0  0999 V2000
   -5.1540   -0.0500    2.9820 O   0  0  0  0  0  0  0  0  0  0  0  0
   -4.2050   -0.1280    2.1350 C   0  0  0  0  0  0  0  0  0  0  0  0
   -4.4430    0.1500    0.8070 C   0  0  0  0  0  0  0  0  0  0  0  0
   -3.4030    0.0610   -0.1020 C   0  0  0  0  0  0  0  0  0  0  0  0
   -3.6020    0.3330   -1.4460 O   0  0  0  0  0  0  0  0  0  0  0  0
   -2.1850   -0.2870    0.2870 N   0  0  0  0  0  0  0  0  0  0  0  0
   -1.0460   -0.4070   -0.5780 C   0  0  2  0  0  0  0  0  0  0  0  0
    0.1460   -0.5620    0.1320 O   0  0  0  0  0  0  0  0  0  0  0  0
    1.1190   -0.2070   -0.8130 C   0  0  2  0  0  0  0  0  0  0  0  0
    2.4850   -0.0950   -0.2170 C   0  0  0  0  0  0  0  0  0  0  0  0
    2.8170   -1.3360    0.3250 O   0  0  0  0  0  0  0  0  0  0  0  0
    4.3530   -1.3140    1.0290 P   0  0  2  0  0  0  0  0  0  0  0  0
    4.7290   -2.7170    1.4370 O   0  0  0  0  0  0  0  0  0  0  0  0
    4.3210   -0.2680    2.3490 O   0  0  0  0  0  0  0  0  0  0  0  0
    5.4470   -0.7540   -0.1360 O   0  0  0  0  0  0  0  0  0  0  0  0
    0.5630    1.1310   -1.2620 C   0  0  1  0  0  0  0  0  0  0  0  0
    1.2050    1.6110   -2.3970 O   0  0  0  0  0  0  0  0  0  0  0  0
   -0.8560    0.6870   -1.5570 C   0  0  1  0  0  0  0  0  0  0  0  0
   -0.8540    0.2280   -2.8880 O   0  0  0  0  0  0  0  0  0  0  0  0
   -1.9900   -0.5530    1.5980 C   0  0  0  0  0  0  0  0  0  0  0  0
   -0.8410   -0.8950    2.0420 O   0  0  0  0  0  0  0  0  0  0  0  0
   -2.9660   -0.4810    2.5200 N   0  0  0  0  0  0  0  0  0  0  0  0
  1  2  2  0
  2  3  1  0
  2 22  1  0
  3  4  2  0
  4  5  1  0
  4  6  1  0
  7  6  1  1
  6 20  1  0
  7  8  1  0
  7 18  1  0
  8  9  1  0
  9 10  1  1
  9 16  1  0
 10 11  1  0
 11 12  1  0
 12 13  2  0
 12 14  1  1
 12 15  1  0
 16 17  1  6
 16 18  1  0
 18 19  1  6
 20 21  2  0
 20 22  1  0
M  END
