
     RDKit          3D

 14 14  0  0  0  0  0  0  0  0999 V2000
   -2.7490    2.4920   -0.0430 C   0  0  0  0  0  0  0  0  0  0  0  0
   -2.5810    1.7060    0.9650 N   0  0  0  0  0  0  0  0  0  0  0  0
   -2.3650    0.3300    0.8030 C   0  0  0  0  0  0  0  0  0  0  0  0
   -3.1890   -0.6430    0.4830 C   0  0  0  0  0  0  0  0  0  0  0  0
   -2.6340   -1.9220    0.4060 N   0  0  0  0  0  0  0  0  0  0  0  0
   -1.5730   -2.1540    1.2000 O   0  0  0  0  0  0  0  0  0  0  0  0
   -0.7610   -0.5920    1.0210 P   0  0  0  0  0  0  0  0  0  0  0  0
    0.0710   -0.4960   -0.4740 O   0  0  0  0  0  0  0  0  0  0  0  0
    1.2560   -1.2320   -0.4570 C   0  0  0  0  0  0  0  0  0  0  0  0
    2.1290   -0.7820    0.5220 O   0  0  0  0  0  0  0  0  0  0  0  0
    2.5960    0.8510    0.3370 P   0  0  0  0  0  0  0  0  0  0  0  0
    2.8140    1.3440   -1.2850 O   0  0  0  0  0  0  0  0  0  0  0  0
    3.9490    1.1830    1.3490 O   0  0  0  0  0  0  0  0  0  0  0  0
    5.0090    0.4950    1.0240 O   0  0  0  0  0  0  0  0  0  0  0  0
  1  2  2  0
  2  3  1  0
  3  4  2  0
  3  7  1  0
  4  5  1  0
  5  6  1  0
  6  7  1  0
  7  8  1  0
  8  9  1  0
  9 10  1  0
 10 11  1  0
 11 12  1  0
 11 13  1  0
 13 14  1  0
M  END
