
     RDKit          3D

 13 12  0  0  0  0  0  0  0  0999 V2000
   -0.5860   -1.2910    1.5330 C   0  0  0  0  0  0  0  0  0  0  0  0
   -0.8370   -1.0500    0.2520 C   0  0  0  0  0  0  0  0  0  0  0  0
   -1.3020   -2.1630   -0.5810 C   0  0  0  0  0  0  0  0  0  0  0  0
   -0.6260    0.3360   -0.2450 C   0  0  1  0  0  0  0  0  0  0  0  0
    0.3330    0.3160   -1.2640 O   0  0  0  0  0  0  0  0  0  0  0  0
    1.5010   -0.1750   -0.7870 N   0  0  0  0  0  0  0  0  0  0  0  0
    2.3750   -0.1750   -1.8140 O   0  0  0  0  0  0  0  0  0  0  0  0
    3.6200    0.0420   -1.3990 O   0  0  0  0  0  0  0  0  0  0  0  0
    4.3940   -0.7040   -2.1410 O   0  0  0  0  0  0  0  0  0  0  0  0
   -2.1500    1.1000   -0.9220 P   0  0  0  0  0  0  0  0  0  0  0  0
   -2.5530    1.1270   -2.4040 O   0  0  0  0  0  0  0  0  0  0  0  0
    0.0360    1.4410    1.0930 P   0  0  0  0  0  0  0  0  0  0  0  0
   -1.3380    2.4530    1.8640 C   0  0  0  0  0  0  0  0  0  0  0  0
  1  2  2  0
  2  3  1  0
  2  4  1  0
  4  5  1  6
  4 10  1  0
  4 12  1  0
  5  6  1  0
  6  7  1  0
  7  8  1  0
  8  9  1  0
 10 11  2  0
 12 13  1  0
M  END
