
     RDKit          3D

 14 13  0  0  0  0  0  0  0  0999 V2000
   -2.5470    1.3060    0.6520 C   0  0  0  0  0  0  0  0  0  0  0  0
   -2.3840    0.0070    0.6160 C   0  0  0  0  0  0  0  0  0  0  0  0
   -2.4030   -0.7210    1.8240 N   0  0  0  0  0  0  0  0  0  0  0  0
   -2.1390   -0.8540   -0.9460 P   0  0  0  0  0  0  0  0  0  0  0  0
   -3.2760   -0.3450   -2.2560 C   0  0  0  0  0  0  0  0  0  0  0  0
   -3.4030    0.8250   -2.5400 O   0  0  0  0  0  0  0  0  0  0  0  0
   -0.5390   -0.8460   -1.5250 O   0  0  0  0  0  0  0  0  0  0  0  0
    0.6400   -0.3010   -0.4640 P   0  0  0  0  0  0  0  0  0  0  0  0
    0.9530    1.3400   -0.4220 F   0  0  0  0  0  0  0  0  0  0  0  0
    1.9290   -1.3380   -0.1130 O   0  0  0  0  0  0  0  0  0  0  0  0
    3.0830   -0.7300   -0.4350 O   0  0  0  0  0  0  0  0  0  0  0  0
    3.9710   -0.2610    0.5220 C   0  0  0  0  0  0  0  0  0  0  0  0
    5.2010    0.3880    0.1810 N   0  0  0  0  0  0  0  0  0  0  0  0
    3.6350   -0.4380    1.7290 O   0  0  0  0  0  0  0  0  0  0  0  0
  1  2  2  0
  2  3  1  0
  2  4  1  0
  4  5  1  0
  4  7  1  0
  5  6  2  0
  7  8  1  0
  8  9  1  0
  8 10  1  0
 10 11  1  0
 11 12  1  0
 12 13  1  0
 12 14  2  0
M  END
