
     RDKit          3D

 23 24  0  0  0  0  0  0  0  0999 V2000
    4.9000   -1.3650   -2.2810 C   0  0  0  0  0  0  0  0  0  0  0  0
    4.0890   -0.6190   -1.3120 N   0  0  0  0  0  0  0  0  0  0  0  0
    2.6840   -0.5710   -1.3750 C   0  0  0  0  0  0  0  0  0  0  0  0
    2.0670   -1.1700   -2.2730 O   0  0  0  0  0  0  0  0  0  0  0  0
    1.9170    0.1990   -0.3690 C   0  0  2  0  0  0  0  0  0  0  0  0
    2.3910    1.6430   -0.4860 C   0  0  0  0  0  0  0  0  0  0  0  0
    2.2730   -0.3920    0.9460 C   0  0  0  0  0  0  0  0  0  0  0  0
    1.3910   -0.9050    1.7460 C   0  0  0  0  0  0  0  0  0  0  0  0
    1.8560   -1.4340    2.9650 O   0  0  0  0  0  0  0  0  0  0  0  0
   -0.0570   -0.9400    1.4050 C   0  0  0  0  0  0  0  0  0  0  0  0
   -0.4000    0.2920    0.6510 C   0  0  2  0  0  0  0  0  0  0  0  0
   -0.0090    1.5340    1.4130 C   0  0  0  0  0  0  0  0  0  0  0  0
   -0.6870    1.5310    2.6260 O   0  0  0  0  0  0  0  0  0  0  0  0
   -1.7870    0.4760    0.2180 C   0  0  2  0  0  0  0  0  0  0  0  0
   -1.8360    1.7600   -0.3980 O   0  0  0  0  0  0  0  0  0  0  0  0
   -2.8460    0.4760    1.2300 C   0  0  0  0  0  0  0  0  0  0  0  0
   -2.8010    0.0910    2.4120 O   0  0  0  0  0  0  0  0  0  0  0  0
   -4.0650    0.9810    0.7810 O   0  0  0  0  0  0  0  0  0  0  0  0
   -4.5080    0.7860   -0.5520 C   0  0  0  0  0  0  0  0  0  0  0  0
   -3.4980    0.2810   -1.4990 C   0  0  0  0  0  0  0  0  0  0  0  0
   -2.2950   -0.4270   -0.8770 C   0  0  2  0  0  0  0  0  0  0  0  0
   -2.8060   -1.7400   -0.3700 C   0  0  0  0  0  0  0  0  0  0  0  0
    0.4430    0.1780   -0.6390 C   0  0  0  0  0  0  0  0  0  0  0  0
  1  2  1  0
  2  3  1  0
  3  4  2  0
  3  5  1  0
  5  6  1  1
  5  7  1  0
  5 23  1  0
  7  8  2  0
  8  9  1  0
  8 10  1  0
 10 11  1  0
 11 12  1  1
 11 14  1  0
 11 23  1  0
 12 13  1  0
 14 15  1  6
 14 16  1  0
 14 21  1  0
 16 17  2  0
 16 18  1  0
 18 19  1  0
 19 20  1  0
 20 21  1  0
 21 22  1  1
M  END
