
     RDKit          3D

 26 29  0  0  0  0  0  0  0  0999 V2000
   -7.2880    1.2280   -0.4290 C   0  0  0  0  0  0  0  0  0  0  0  0
   -6.5200    0.0860    0.0270 N   0  0  0  0  0  0  0  0  0  0  0  0
   -7.2170   -1.1640    0.2110 C   0  0  0  0  0  0  0  0  0  0  0  0
   -5.1320    0.2620    0.2650 C   0  0  0  0  0  0  0  0  0  0  0  0
   -4.1870   -0.4660   -0.4250 C   0  0  0  0  0  0  0  0  0  0  0  0
   -2.8230   -0.3040   -0.2030 C   0  0  0  0  0  0  0  0  0  0  0  0
   -1.7500   -0.8520   -0.7070 O   0  0  0  0  0  0  0  0  0  0  0  0
   -0.6560   -0.3710   -0.1750 C   0  0  0  0  0  0  0  0  0  0  0  0
    0.7390   -0.7700   -0.5150 C   0  0  0  0  0  0  0  0  0  0  0  0
    0.9480   -1.6330   -1.3730 O   0  0  0  0  0  0  0  0  0  0  0  0
    1.8180   -0.1610    0.1450 N   0  0  0  0  0  0  0  0  0  0  0  0
    3.2010   -0.4220   -0.0510 C   0  0  0  0  0  0  0  0  0  0  0  0
    3.6990   -1.4680   -0.7860 C   0  0  0  0  0  0  0  0  0  0  0  0
    5.0740   -1.6580   -0.9520 C   0  0  0  0  0  0  0  0  0  0  0  0
    5.9530   -0.7780   -0.3660 C   0  0  0  0  0  0  0  0  0  0  0  0
    7.3060   -0.9750   -0.5360 C   0  0  0  0  0  0  0  0  0  0  0  0
    8.1820   -0.1000    0.0450 C   0  0  0  0  0  0  0  0  0  0  0  0
    7.7400    0.9530    0.7840 C   0  0  0  0  0  0  0  0  0  0  0  0
    6.4030    1.1690    0.9670 C   0  0  0  0  0  0  0  0  0  0  0  0
    5.4880    0.2940    0.3870 C   0  0  0  0  0  0  0  0  0  0  0  0
    4.1430    0.4430    0.5230 C   0  0  0  0  0  0  0  0  0  0  0  0
   -1.0590    0.5660    0.7490 C   0  0  0  0  0  0  0  0  0  0  0  0
   -2.4380    0.6280    0.7510 C   0  0  0  0  0  0  0  0  0  0  0  0
   -3.3800    1.3600    1.4450 C   0  0  0  0  0  0  0  0  0  0  0  0
   -4.7370    1.1820    1.2060 C   0  0  0  0  0  0  0  0  0  0  0  0
   -5.9680    2.0820    2.0570 Cl  0  0  0  0  0  0  0  0  0  0  0  0
  1  2  1  0
  2  3  1  0
  2  4  1  0
  4  5  2  0
  4 25  1  0
  5  6  1  0
  6  7  1  0
  6 23  2  0
  7  8  1  0
  8  9  1  0
  8 22  2  0
  9 10  2  0
  9 11  1  0
 11 12  1  0
 12 13  2  0
 12 21  1  0
 13 14  1  0
 14 15  2  0
 15 16  1  0
 15 20  1  0
 16 17  2  0
 17 18  1  0
 18 19  2  0
 19 20  1  0
 20 21  2  0
 22 23  1  0
 23 24  1  0
 24 25  2  0
 25 26  1  0
M  END
