
     RDKit          3D

 26 28  0  0  0  0  0  0  0  0999 V2000
    1.8020   -2.7560    0.1610 C   0  0  0  0  0  0  0  0  0  0  0  0
    1.8420   -1.5010    0.9470 C   0  0  0  0  0  0  0  0  0  0  0  0
    0.7620   -0.7680    1.0230 C   0  0  0  0  0  0  0  0  0  0  0  0
   -0.5250   -1.0850    0.3820 C   0  0  0  0  0  0  0  0  0  0  0  0
   -0.6340   -2.1250   -0.2950 O   0  0  0  0  0  0  0  0  0  0  0  0
   -1.6550   -0.2350    0.5140 N   0  0  0  0  0  0  0  0  0  0  0  0
   -2.9290   -0.4340   -0.0500 C   0  0  0  0  0  0  0  0  0  0  0  0
   -3.2860   -1.4920   -0.8240 C   0  0  0  0  0  0  0  0  0  0  0  0
   -4.5560   -1.6620   -1.3690 C   0  0  0  0  0  0  0  0  0  0  0  0
   -5.5270   -0.7230   -1.1280 C   0  0  0  0  0  0  0  0  0  0  0  0
   -5.1960    0.3610   -0.3470 C   0  0  0  0  0  0  0  0  0  0  0  0
   -6.2110    1.2690   -0.1400 C   0  0  0  0  0  0  0  0  0  0  0  0
   -5.9780    2.3870    0.6280 C   0  0  0  0  0  0  0  0  0  0  0  0
   -4.7280    2.5500    1.1610 C   0  0  0  0  0  0  0  0  0  0  0  0
   -3.6880    1.6330    0.9580 C   0  0  0  0  0  0  0  0  0  0  0  0
   -3.9240    0.5220    0.1930 C   0  0  0  0  0  0  0  0  0  0  0  0
    2.9970   -1.1320    1.5890 N   0  0  0  0  0  0  0  0  0  0  0  0
    4.0380   -0.5110    1.3900 C   0  0  0  0  0  0  0  0  0  0  0  0
    4.5090    0.1840    0.1840 C   0  0  0  0  0  0  0  0  0  0  0  0
    3.7550    0.1930   -0.9080 C   0  0  0  0  0  0  0  0  0  0  0  0
    4.2220    0.8790   -2.0980 C   0  0  0  0  0  0  0  0  0  0  0  0
    5.3730    1.5100   -2.1670 C   0  0  0  0  0  0  0  0  0  0  0  0
    6.1890    1.5280   -1.0600 O   0  0  0  0  0  0  0  0  0  0  0  0
    5.7880    0.8780    0.1240 C   0  0  0  0  0  0  0  0  0  0  0  0
    6.5780    0.9010    1.1810 C   0  0  0  0  0  0  0  0  0  0  0  0
    8.1160    1.7720    1.0130 Cl  0  0  0  0  0  0  0  0  0  0  0  0
  1  2  1  0
  2  3  2  3
  2 17  1  0
  3  4  1  0
  4  5  2  0
  4  6  1  0
  6  7  1  0
  7  8  2  0
  7 16  1  0
  8  9  1  0
  9 10  2  0
 10 11  1  0
 11 12  2  0
 11 16  1  0
 12 13  1  0
 13 14  2  0
 14 15  1  0
 15 16  2  0
 17 18  2  3
 18 19  1  0
 19 20  2  0
 19 24  1  0
 20 21  1  0
 21 22  2  0
 22 23  1  0
 23 24  1  0
 24 25  2  3
 25 26  1  0
M  END
