
     RDKit          3D

 10 10  0  0  0  0  0  0  0  0999 V2000
   -1.4980   -0.2130   -1.4910 O   0  0  0  0  0  0  0  0  0  0  0  0
   -1.3960    0.2830   -0.2200 C   0  0  2  0  0  0  0  0  0  0  0  0
   -0.7520    1.6270   -0.1150 C   0  0  0  0  0  0  0  0  0  0  0  0
    0.5710    1.6810   -0.3360 O   0  0  0  0  0  0  0  0  0  0  0  0
    1.3190    0.5700   -0.2280 C   0  0  1  0  0  0  0  0  0  0  0  0
    2.5750    0.9480    0.3090 O   0  0  0  0  0  0  0  0  0  0  0  0
    0.8090   -0.5600    0.5580 C   0  0  2  0  0  0  0  0  0  0  0  0
    1.2230   -1.7780   -0.0310 O   0  0  0  0  0  0  0  0  0  0  0  0
   -0.6660   -0.6380    0.7350 C   0  0  2  0  0  0  0  0  0  0  0  0
   -1.1130   -1.9450    0.6690 O   0  0  0  0  0  0  0  0  0  0  0  0
  2  1  1  6
  2  3  1  0
  2  9  1  0
  3  4  1  0
  4  5  1  0
  5  6  1  1
  5  7  1  0
  7  8  1  6
  7  9  1  0
  9 10  1  6
M  END
