
     RDKit          3D

 26 29  0  0  0  0  0  0  0  0999 V2000
    3.0990    0.4100    3.3020 C   0  0  0  0  0  0  0  0  0  0  0  0
    2.5650    0.2640    1.9740 C   0  0  0  0  0  0  0  0  0  0  0  0
    1.2030    0.3190    1.7800 C   0  0  0  0  0  0  0  0  0  0  0  0
    0.5950    0.1860    0.5220 C   0  0  0  0  0  0  0  0  0  0  0  0
   -0.8020    0.2770    0.4370 N   0  0  0  0  0  0  0  0  0  0  0  0
   -1.5880   -0.1120   -0.6370 C   0  0  0  0  0  0  0  0  0  0  0  0
   -1.0560   -0.5900   -1.6660 O   0  0  0  0  0  0  0  0  0  0  0  0
   -3.0360    0.0080   -0.6470 C   0  0  0  0  0  0  0  0  0  0  0  0
   -3.6170    0.2350   -1.8910 C   0  0  0  0  0  0  0  0  0  0  0  0
   -2.7890    0.3940   -3.1100 C   0  0  0  0  0  0  0  0  0  0  0  0
   -4.9870    0.3160   -1.9650 C   0  0  0  0  0  0  0  0  0  0  0  0
   -5.8040    0.1830   -0.8620 C   0  0  0  0  0  0  0  0  0  0  0  0
   -5.2060   -0.0400    0.3530 C   0  0  0  0  0  0  0  0  0  0  0  0
   -3.8160   -0.1320    0.4770 C   0  0  0  0  0  0  0  0  0  0  0  0
   -3.1100   -0.4830    2.0400 Cl  0  0  0  0  0  0  0  0  0  0  0  0
   -6.2820   -0.1450    1.3640 C   0  0  0  0  0  0  0  0  0  0  0  0
   -7.4090    0.6210    0.6590 C   0  0  0  0  0  0  0  0  0  0  0  0
   -7.2020    0.2280   -0.6860 O   0  0  0  0  0  0  0  0  0  0  0  0
    1.3920   -0.0070   -0.5660 C   0  0  0  0  0  0  0  0  0  0  0  0
    2.7630   -0.0610   -0.3620 C   0  0  0  0  0  0  0  0  0  0  0  0
    3.3450    0.0710    0.8780 C   0  0  0  0  0  0  0  0  0  0  0  0
    4.7810    0.0070    0.9760 C   0  0  0  0  0  0  0  0  0  0  0  0
    5.4060   -0.9410    0.0970 N   0  0  0  0  0  0  0  0  0  0  0  0
    6.7040   -0.4720   -0.3720 C   0  0  0  0  0  0  0  0  0  0  0  0
    4.6120   -1.4030   -1.0040 C   0  0  0  0  0  0  0  0  0  0  0  0
    3.6910   -0.2770   -1.4960 C   0  0  0  0  0  0  0  0  0  0  0  0
  1  2  1  0
  2  3  2  0
  2 21  1  0
  3  4  1  0
  4  5  1  0
  4 19  2  0
  5  6  1  0
  6  7  2  0
  6  8  1  0
  8  9  2  0
  8 14  1  0
  9 10  1  0
  9 11  1  0
 11 12  2  0
 12 13  1  0
 12 18  1  0
 13 14  2  0
 13 16  1  0
 14 15  1  0
 16 17  1  0
 17 18  1  0
 19 20  1  0
 20 21  2  0
 20 26  1  0
 21 22  1  0
 22 23  1  0
 23 24  1  0
 23 25  1  0
 25 26  1  0
M  END
