
     RDKit          3D

 26 29  0  0  0  0  0  0  0  0999 V2000
    5.8550    2.3020   -0.7680 C   0  0  0  0  0  0  0  0  0  0  0  0
    5.4600    1.2840    0.2330 C   0  0  0  0  0  0  0  0  0  0  0  0
    4.5330    0.4140   -0.0770 C   0  0  0  0  0  0  0  0  0  0  0  0
    3.8580    0.3800   -1.3540 C   0  0  0  0  0  0  0  0  0  0  0  0
    2.6070   -0.0550   -1.4300 C   0  0  0  0  0  0  0  0  0  0  0  0
    1.7410   -0.1900   -2.5130 O   0  0  0  0  0  0  0  0  0  0  0  0
    0.5670   -0.6930   -1.9940 C   0  0  0  0  0  0  0  0  0  0  0  0
   -0.5030   -0.9730   -2.6330 O   0  0  0  0  0  0  0  0  0  0  0  0
    0.7030   -0.8790   -0.5420 C   0  0  0  0  0  0  0  0  0  0  0  0
   -0.3690   -1.4300    0.3140 C   0  0  0  0  0  0  0  0  0  0  0  0
   -0.0580   -2.4490    1.1700 C   0  0  0  0  0  0  0  0  0  0  0  0
   -1.0820   -2.9330    1.9810 C   0  0  0  0  0  0  0  0  0  0  0  0
   -2.3250   -2.3690    1.8780 C   0  0  0  0  0  0  0  0  0  0  0  0
   -3.6460   -2.9560    2.8920 Cl  0  0  0  0  0  0  0  0  0  0  0  0
   -2.6150   -1.3250    0.9910 C   0  0  0  0  0  0  0  0  0  0  0  0
   -3.9260   -0.8060    0.9330 N   0  0  0  0  0  0  0  0  0  0  0  0
   -4.3800    0.2490    0.1140 C   0  0  0  0  0  0  0  0  0  0  0  0
   -3.5720    1.1010   -0.6000 C   0  0  0  0  0  0  0  0  0  0  0  0
   -4.0910    2.1230   -1.4100 C   0  0  0  0  0  0  0  0  0  0  0  0
   -5.4450    2.3180   -1.5240 C   0  0  0  0  0  0  0  0  0  0  0  0
   -6.2620    1.4710   -0.8150 C   0  0  0  0  0  0  0  0  0  0  0  0
   -5.7610    0.4710   -0.0220 C   0  0  0  0  0  0  0  0  0  0  0  0
   -1.6030   -0.9000    0.2390 N   0  0  0  0  0  0  0  0  0  0  0  0
    1.9140   -0.5000   -0.1970 C   0  0  0  0  0  0  0  0  0  0  0  0
    2.6230   -0.4150    1.1080 C   0  0  0  0  0  0  0  0  0  0  0  0
    4.1110   -0.6320    0.9190 C   0  0  0  0  0  0  0  0  0  0  0  0
  1  2  1  0
  2  3  2  3
  3  4  1  0
  3 26  1  0
  4  5  2  0
  5  6  1  0
  5 24  1  0
  6  7  1  0
  7  8  2  0
  7  9  1  0
  9 10  1  0
  9 24  2  0
 10 11  2  0
 10 23  1  0
 11 12  1  0
 12 13  2  0
 13 14  1  0
 13 15  1  0
 15 16  1  0
 15 23  2  0
 16 17  1  0
 17 18  2  0
 17 22  1  0
 18 19  1  0
 19 20  2  0
 20 21  1  0
 21 22  2  0
 24 25  1  0
 25 26  1  0
M  END
