
     RDKit          3D

 26 29  0  0  0  0  0  0  0  0999 V2000
    6.4320   -0.2400   -0.6350 C   0  0  0  0  0  0  0  0  0  0  0  0
    5.0650   -0.5170   -0.7110 O   0  0  0  0  0  0  0  0  0  0  0  0
    4.6590   -1.2260    0.4000 C   0  0  0  0  0  0  0  0  0  0  0  0
    3.1960   -1.5210    0.3140 C   0  0  0  0  0  0  0  0  0  0  0  0
    2.3740   -0.2980    0.2420 N   0  0  0  0  0  0  0  0  0  0  0  0
    0.9940   -0.4970    0.1380 C   0  0  0  0  0  0  0  0  0  0  0  0
    0.4630   -1.7570    0.1910 N   0  0  0  0  0  0  0  0  0  0  0  0
   -0.8530   -1.9930    0.1460 C   0  0  0  0  0  0  0  0  0  0  0  0
   -1.3680   -3.2760    0.3000 C   0  0  0  0  0  0  0  0  0  0  0  0
   -2.7230   -3.4990    0.3500 C   0  0  0  0  0  0  0  0  0  0  0  0
   -3.2730   -5.1490    0.5350 Cl  0  0  0  0  0  0  0  0  0  0  0  0
   -3.6090   -2.4470    0.2510 C   0  0  0  0  0  0  0  0  0  0  0  0
   -3.1510   -1.1380    0.0910 C   0  0  0  0  0  0  0  0  0  0  0  0
   -1.8060   -0.9600    0.0330 C   0  0  0  0  0  0  0  0  0  0  0  0
   -1.2680    0.2750   -0.0350 C   0  0  0  0  0  0  0  0  0  0  0  0
    0.1270    0.5390    0.0260 C   0  0  0  0  0  0  0  0  0  0  0  0
    0.6940    1.7950    0.1010 C   0  0  0  0  0  0  0  0  0  0  0  0
    1.8250    1.8570   -0.3700 O   0  0  0  0  0  0  0  0  0  0  0  0
    0.0550    2.9110    0.6630 C   0  0  0  0  0  0  0  0  0  0  0  0
   -1.3240    3.1910    0.7660 C   0  0  0  0  0  0  0  0  0  0  0  0
   -2.2990    2.5130    0.0070 C   0  0  0  0  0  0  0  0  0  0  0  0
   -3.2890    3.3150   -0.4570 C   0  0  0  0  0  0  0  0  0  0  0  0
   -4.2030    2.8140   -1.3580 C   0  0  0  0  0  0  0  0  0  0  0  0
   -4.1060    1.4880   -1.7880 C   0  0  0  0  0  0  0  0  0  0  0  0
   -3.0940    0.6330   -1.3240 C   0  0  0  0  0  0  0  0  0  0  0  0
   -2.2310    1.2010   -0.4290 C   0  0  0  0  0  0  0  0  0  0  0  0
  1  2  1  0
  2  3  1  0
  3  4  1  0
  4  5  1  0
  5  6  1  0
  6  7  2  0
  6 16  1  0
  7  8  1  0
  8  9  2  0
  8 14  1  0
  9 10  1  0
 10 11  1  0
 10 12  2  0
 12 13  1  0
 13 14  2  0
 14 15  1  0
 15 16  2  0
 15 26  1  0
 16 17  1  0
 17 18  2  0
 17 19  1  0
 19 20  2  0
 20 21  1  0
 21 22  2  0
 21 26  1  0
 22 23  1  0
 23 24  2  0
 24 25  1  0
 25 26  2  0
M  END
