
     RDKit          3D

 23 24  0  0  0  0  0  0  0  0999 V2000
    3.7560   -2.8060   -0.4370 C   0  0  0  0  0  0  0  0  0  0  0  0
    2.9720   -1.5670   -0.2030 C   0  0  0  0  0  0  0  0  0  0  0  0
    1.6090   -1.5110   -0.3020 C   0  0  0  0  0  0  0  0  0  0  0  0
    0.8620   -0.3430   -0.0820 C   0  0  0  0  0  0  0  0  0  0  0  0
   -0.5540   -0.4380   -0.2320 N   0  0  0  0  0  0  0  0  0  0  0  0
   -1.5080    0.5190    0.1380 C   0  0  0  0  0  0  0  0  0  0  0  0
   -1.1470    1.5890    0.6640 O   0  0  0  0  0  0  0  0  0  0  0  0
   -2.9720    0.3080   -0.0760 C   0  0  2  0  0  0  0  0  0  0  0  0
   -3.2140   -0.9290   -0.6710 O   0  0  0  0  0  0  0  0  0  0  0  0
   -3.5050    1.3760   -0.9880 C   0  0  0  0  0  0  0  0  0  0  0  0
   -4.8760    0.9350   -1.4560 C   0  0  0  0  0  0  0  0  0  0  0  0
   -5.7470    0.7640   -0.2530 C   0  0  1  0  0  0  0  0  0  0  0  0
   -6.3790   -0.4900   -0.2310 O   0  0  0  0  0  0  0  0  0  0  0  0
   -5.0770    1.0730    1.0470 C   0  0  0  0  0  0  0  0  0  0  0  0
   -3.7500    0.3740    1.2140 C   0  0  1  0  0  0  0  0  0  0  0  0
   -3.9770   -0.8850    1.7610 O   0  0  0  0  0  0  0  0  0  0  0  0
    1.5530    0.7830    0.2460 C   0  0  0  0  0  0  0  0  0  0  0  0
    2.9130    0.7680    0.3550 C   0  0  0  0  0  0  0  0  0  0  0  0
    3.6090   -0.3870    0.1340 C   0  0  0  0  0  0  0  0  0  0  0  0
    5.0070   -0.4230    0.2400 O   0  0  0  0  0  0  0  0  0  0  0  0
    5.6890    0.7550    0.5800 C   0  0  0  0  0  0  0  0  0  0  0  0
    7.1680    0.4300    0.6240 C   0  0  0  0  0  0  0  0  0  0  0  0
    7.5250   -0.0200   -0.6450 O   0  0  0  0  0  0  0  0  0  0  0  0
  1  2  1  0
  2  3  2  0
  2 19  1  0
  3  4  1  0
  4  5  1  0
  4 17  2  0
  5  6  1  0
  6  7  2  0
  6  8  1  0
  8  9  1  6
  8 10  1  0
  8 15  1  0
 10 11  1  0
 11 12  1  0
 12 13  1  1
 12 14  1  0
 14 15  1  0
 15 16  1  6
 17 18  1  0
 18 19  2  0
 19 20  1  0
 20 21  1  0
 21 22  1  0
 22 23  1  0
M  END
