
     RDKit          3D

 26 29  0  0  0  0  0  0  0  0999 V2000
    5.1750    0.6240    1.7250 C   0  0  0  0  0  0  0  0  0  0  0  0
    4.1780   -0.3120    1.5750 O   0  0  0  0  0  0  0  0  0  0  0  0
    4.0610   -0.7350    0.2530 C   0  0  0  0  0  0  0  0  0  0  0  0
    3.7330    0.3950   -0.6880 C   0  0  0  0  0  0  0  0  0  0  0  0
    2.4620    1.0540   -0.3460 N   0  0  0  0  0  0  0  0  0  0  0  0
    1.2570    0.3320   -0.3800 C   0  0  0  0  0  0  0  0  0  0  0  0
    1.2600   -0.9460   -0.8630 N   0  0  0  0  0  0  0  0  0  0  0  0
    0.1250   -1.6580   -0.9870 C   0  0  0  0  0  0  0  0  0  0  0  0
    0.1140   -2.9120   -1.5700 C   0  0  0  0  0  0  0  0  0  0  0  0
   -1.0540   -3.6020   -1.7940 C   0  0  0  0  0  0  0  0  0  0  0  0
   -1.0030   -5.2030   -2.5320 Cl  0  0  0  0  0  0  0  0  0  0  0  0
   -2.2560   -3.0320   -1.4300 C   0  0  0  0  0  0  0  0  0  0  0  0
   -2.3140   -1.7800   -0.8380 C   0  0  0  0  0  0  0  0  0  0  0  0
   -1.1360   -1.1380   -0.6230 C   0  0  0  0  0  0  0  0  0  0  0  0
   -1.1110    0.1190   -0.1320 C   0  0  0  0  0  0  0  0  0  0  0  0
    0.0750    0.8910   -0.0060 C   0  0  0  0  0  0  0  0  0  0  0  0
    0.1360    2.2150    0.3630 C   0  0  0  0  0  0  0  0  0  0  0  0
    1.1740    2.5420    0.9180 O   0  0  0  0  0  0  0  0  0  0  0  0
   -0.9120    3.1260    0.1220 C   0  0  0  0  0  0  0  0  0  0  0  0
   -2.2890    2.8930    0.0100 C   0  0  0  0  0  0  0  0  0  0  0  0
   -2.8850    1.7150    0.4310 C   0  0  0  0  0  0  0  0  0  0  0  0
   -4.0940    1.8870    1.0500 C   0  0  0  0  0  0  0  0  0  0  0  0
   -4.7090    0.8230    1.6700 C   0  0  0  0  0  0  0  0  0  0  0  0
   -4.1100   -0.4450    1.6800 C   0  0  0  0  0  0  0  0  0  0  0  0
   -2.8720   -0.6650    1.0560 C   0  0  0  0  0  0  0  0  0  0  0  0
   -2.3300    0.4340    0.4580 C   0  0  0  0  0  0  0  0  0  0  0  0
  1  2  1  0
  2  3  1  0
  3  4  1  0
  4  5  1  0
  5  6  1  0
  6  7  2  0
  6 16  1  0
  7  8  1  0
  8  9  2  0
  8 14  1  0
  9 10  1  0
 10 11  1  0
 10 12  2  0
 12 13  1  0
 13 14  2  0
 14 15  1  0
 15 16  2  0
 15 26  1  0
 16 17  1  0
 17 18  2  0
 17 19  1  0
 19 20  2  0
 20 21  1  0
 21 22  2  0
 21 26  1  0
 22 23  1  0
 23 24  2  0
 24 25  1  0
 25 26  2  0
M  END
