
     RDKit          3D

 26 29  0  0  0  0  0  0  0  0999 V2000
   -2.8740    2.9470    0.0600 C   0  0  0  0  0  0  0  0  0  0  0  0
   -2.4680    1.5280    0.0550 C   0  0  0  0  0  0  0  0  0  0  0  0
   -1.0840    1.2440    0.0580 C   0  0  0  0  0  0  0  0  0  0  0  0
   -0.6490   -0.0480    0.0530 C   0  0  0  0  0  0  0  0  0  0  0  0
    0.7040   -0.4700    0.0390 N   0  0  0  0  0  0  0  0  0  0  0  0
    1.8060    0.3630   -0.2150 C   0  0  0  0  0  0  0  0  0  0  0  0
    1.6320    1.6200   -0.4450 O   0  0  0  0  0  0  0  0  0  0  0  0
    3.1990   -0.0340   -0.2480 C   0  0  0  0  0  0  0  0  0  0  0  0
    3.6230   -1.2550   -0.6440 C   0  0  0  0  0  0  0  0  0  0  0  0
    2.7170   -2.2720   -1.2350 C   0  0  0  0  0  0  0  0  0  0  0  0
    4.9960   -1.5790   -0.5620 C   0  0  0  0  0  0  0  0  0  0  0  0
    5.8860   -0.6350   -0.0790 C   0  0  0  0  0  0  0  0  0  0  0  0
    5.4780    0.6080    0.3230 C   0  0  0  0  0  0  0  0  0  0  0  0
    4.1350    0.8960    0.2340 C   0  0  0  0  0  0  0  0  0  0  0  0
    3.5740    2.4680    0.7370 Cl  0  0  0  0  0  0  0  0  0  0  0  0
    6.6610    1.3970    0.7900 C   0  0  0  0  0  0  0  0  0  0  0  0
    7.8000    0.6090    0.2280 C   0  0  0  0  0  0  0  0  0  0  0  0
    7.2790   -0.7200    0.0940 O   0  0  0  0  0  0  0  0  0  0  0  0
   -1.6290   -1.0640    0.0460 C   0  0  0  0  0  0  0  0  0  0  0  0
   -2.9640   -0.8090    0.0440 C   0  0  0  0  0  0  0  0  0  0  0  0
   -3.3640    0.4980    0.0480 C   0  0  0  0  0  0  0  0  0  0  0  0
   -4.8240    0.7700    0.0460 C   0  0  0  0  0  0  0  0  0  0  0  0
   -5.5490   -0.1690    0.8740 N   0  0  0  0  0  0  0  0  0  0  0  0
   -6.9620    0.0980    0.6750 C   0  0  0  0  0  0  0  0  0  0  0  0
   -5.2980   -1.5330    0.5750 C   0  0  0  0  0  0  0  0  0  0  0  0
   -3.9590   -1.8750    0.0350 C   0  0  0  0  0  0  0  0  0  0  0  0
  1  2  1  0
  2  3  2  0
  2 21  1  0
  3  4  1  0
  4  5  1  0
  4 19  2  0
  5  6  1  0
  6  7  2  0
  6  8  1  0
  8  9  2  0
  8 14  1  0
  9 10  1  0
  9 11  1  0
 11 12  2  0
 12 13  1  0
 12 18  1  0
 13 14  2  0
 13 16  1  0
 14 15  1  0
 16 17  1  0
 17 18  1  0
 19 20  1  0
 20 21  2  0
 20 26  1  0
 21 22  1  0
 22 23  1  0
 23 24  1  0
 23 25  1  0
 25 26  1  0
M  END
