
     RDKit          3D

 23 24  0  0  0  0  0  0  0  0999 V2000
    3.1450    2.6350    0.1970 C   0  0  0  0  0  0  0  0  0  0  0  0
    2.5210    1.2760    0.1030 C   0  0  0  0  0  0  0  0  0  0  0  0
    1.1650    1.1710    0.1580 C   0  0  0  0  0  0  0  0  0  0  0  0
    0.5250   -0.0820    0.0740 C   0  0  0  0  0  0  0  0  0  0  0  0
   -0.8850   -0.1150    0.1490 N   0  0  0  0  0  0  0  0  0  0  0  0
   -1.7300   -1.2100   -0.1040 C   0  0  0  0  0  0  0  0  0  0  0  0
   -1.1750   -2.3060   -0.4470 O   0  0  0  0  0  0  0  0  0  0  0  0
   -3.2370   -1.1590    0.0060 C   0  0  2  0  0  0  0  0  0  0  0  0
   -3.6770   -2.5040   -0.3540 O   0  0  0  0  0  0  0  0  0  0  0  0
   -3.8350   -0.3010   -1.0280 C   0  0  0  0  0  0  0  0  0  0  0  0
   -3.9210    1.1570   -0.7750 C   0  0  0  0  0  0  0  0  0  0  0  0
   -4.4540    1.4090    0.5890 C   0  0  1  0  0  0  0  0  0  0  0  0
   -5.8530    1.4390    0.5410 O   0  0  0  0  0  0  0  0  0  0  0  0
   -3.9390    0.5400    1.6730 C   0  0  0  0  0  0  0  0  0  0  0  0
   -3.7100   -0.8880    1.3730 C   0  0  1  0  0  0  0  0  0  0  0  0
   -4.8700   -1.6670    1.5770 O   0  0  0  0  0  0  0  0  0  0  0  0
    1.3520   -1.1630   -0.0640 C   0  0  0  0  0  0  0  0  0  0  0  0
    2.7260   -1.0460   -0.1190 C   0  0  0  0  0  0  0  0  0  0  0  0
    3.3420    0.1810   -0.0370 C   0  0  0  0  0  0  0  0  0  0  0  0
    4.7160    0.3300   -0.0890 O   0  0  0  0  0  0  0  0  0  0  0  0
    5.5040   -0.8420   -0.2330 C   0  0  0  0  0  0  0  0  0  0  0  0
    6.9610   -0.4350   -0.2660 C   0  0  0  0  0  0  0  0  0  0  0  0
    7.2340    0.2100    0.9420 O   0  0  0  0  0  0  0  0  0  0  0  0
  1  2  1  0
  2  3  2  0
  2 19  1  0
  3  4  1  0
  4  5  1  0
  4 17  2  0
  5  6  1  0
  6  7  2  0
  6  8  1  0
  8  9  1  6
  8 10  1  0
  8 15  1  0
 10 11  1  0
 11 12  1  0
 12 13  1  6
 12 14  1  0
 14 15  1  0
 15 16  1  6
 17 18  1  0
 18 19  2  0
 19 20  1  0
 20 21  1  0
 21 22  1  0
 22 23  1  0
M  END
