
     RDKit          3D

 26 29  0  0  0  0  0  0  0  0999 V2000
    6.7120    0.7160    0.5710 C   0  0  0  0  0  0  0  0  0  0  0  0
    5.6870   -0.2750    0.9800 C   0  0  0  0  0  0  0  0  0  0  0  0
    4.3980   -0.0310    1.0350 C   0  0  0  0  0  0  0  0  0  0  0  0
    3.8250    1.2660    0.6930 C   0  0  0  0  0  0  0  0  0  0  0  0
    2.6070    1.3180    0.1920 C   0  0  0  0  0  0  0  0  0  0  0  0
    1.7780    2.3390   -0.2300 O   0  0  0  0  0  0  0  0  0  0  0  0
    0.5860    1.7830   -0.6700 C   0  0  0  0  0  0  0  0  0  0  0  0
   -0.4220    2.3960   -1.1310 O   0  0  0  0  0  0  0  0  0  0  0  0
    0.6790    0.3320   -0.5140 C   0  0  0  0  0  0  0  0  0  0  0  0
   -0.3490   -0.6620   -0.8580 C   0  0  0  0  0  0  0  0  0  0  0  0
   -0.0500   -1.8680   -1.4540 C   0  0  0  0  0  0  0  0  0  0  0  0
   -1.0520   -2.7700   -1.7520 C   0  0  0  0  0  0  0  0  0  0  0  0
   -2.3720   -2.5110   -1.4730 C   0  0  0  0  0  0  0  0  0  0  0  0
   -3.6390   -3.6640   -1.8550 Cl  0  0  0  0  0  0  0  0  0  0  0  0
   -2.6560   -1.2730   -0.8640 C   0  0  0  0  0  0  0  0  0  0  0  0
   -4.0020   -1.0040   -0.5930 N   0  0  0  0  0  0  0  0  0  0  0  0
   -4.4810    0.1770    0.0290 C   0  0  0  0  0  0  0  0  0  0  0  0
   -3.6820    1.0770    0.6830 C   0  0  0  0  0  0  0  0  0  0  0  0
   -4.1830    2.2440    1.2750 C   0  0  0  0  0  0  0  0  0  0  0  0
   -5.5260    2.5150    1.2070 C   0  0  0  0  0  0  0  0  0  0  0  0
   -6.3420    1.6180    0.5520 C   0  0  0  0  0  0  0  0  0  0  0  0
   -5.8580    0.4740   -0.0280 C   0  0  0  0  0  0  0  0  0  0  0  0
   -1.6470   -0.4430   -0.6000 N   0  0  0  0  0  0  0  0  0  0  0  0
    1.8820    0.0700   -0.0020 C   0  0  0  0  0  0  0  0  0  0  0  0
    2.4550   -1.2600    0.3330 C   0  0  0  0  0  0  0  0  0  0  0  0
    3.4430   -1.0900    1.4590 C   0  0  0  0  0  0  0  0  0  0  0  0
  1  2  1  0
  2  3  2  3
  3  4  1  0
  3 26  1  0
  4  5  2  0
  5  6  1  0
  5 24  1  0
  6  7  1  0
  7  8  2  0
  7  9  1  0
  9 10  1  0
  9 24  2  0
 10 11  2  0
 10 23  1  0
 11 12  1  0
 12 13  2  0
 13 14  1  0
 13 15  1  0
 15 16  1  0
 15 23  2  0
 16 17  1  0
 17 18  2  0
 17 22  1  0
 18 19  1  0
 19 20  2  0
 20 21  1  0
 21 22  2  0
 24 25  1  0
 25 26  1  0
M  END
