
     RDKit          3D

 26 29  0  0  0  0  0  0  0  0999 V2000
   -7.3680   -0.5480    1.0170 C   0  0  0  0  0  0  0  0  0  0  0  0
   -6.5090   -0.5090   -0.1550 N   0  0  0  0  0  0  0  0  0  0  0  0
   -6.9930   -0.8140   -1.4760 C   0  0  0  0  0  0  0  0  0  0  0  0
   -5.1250   -0.1600   -0.0330 C   0  0  0  0  0  0  0  0  0  0  0  0
   -4.1170   -1.0250   -0.4080 C   0  0  0  0  0  0  0  0  0  0  0  0
   -2.7850   -0.6640   -0.2810 C   0  0  0  0  0  0  0  0  0  0  0  0
   -1.6540   -1.2830   -0.5560 O   0  0  0  0  0  0  0  0  0  0  0  0
   -0.6210   -0.5420   -0.2650 C   0  0  0  0  0  0  0  0  0  0  0  0
    0.7990   -0.8430   -0.4140 C   0  0  0  0  0  0  0  0  0  0  0  0
    1.0960   -1.9590   -0.8810 O   0  0  0  0  0  0  0  0  0  0  0  0
    1.8240    0.0560   -0.0570 N   0  0  0  0  0  0  0  0  0  0  0  0
    3.2150   -0.1380   -0.1600 C   0  0  0  0  0  0  0  0  0  0  0  0
    3.8190   -1.2630   -0.6370 C   0  0  0  0  0  0  0  0  0  0  0  0
    5.2010   -1.4080   -0.7190 C   0  0  0  0  0  0  0  0  0  0  0  0
    5.9760   -0.3540   -0.2950 C   0  0  0  0  0  0  0  0  0  0  0  0
    7.3540   -0.5060   -0.3810 C   0  0  0  0  0  0  0  0  0  0  0  0
    8.1290    0.5500    0.0440 C   0  0  0  0  0  0  0  0  0  0  0  0
    7.5880    1.7200    0.5370 C   0  0  0  0  0  0  0  0  0  0  0  0
    6.2190    1.8450    0.6120 C   0  0  0  0  0  0  0  0  0  0  0  0
    5.4160    0.8090    0.1950 C   0  0  0  0  0  0  0  0  0  0  0  0
    4.0360    0.8900    0.2520 C   0  0  0  0  0  0  0  0  0  0  0  0
   -1.1110    0.6410    0.2340 C   0  0  0  0  0  0  0  0  0  0  0  0
   -2.5000    0.5870    0.2340 C   0  0  0  0  0  0  0  0  0  0  0  0
   -3.5160    1.4400    0.6050 C   0  0  0  0  0  0  0  0  0  0  0  0
   -4.8520    1.1010    0.4860 C   0  0  0  0  0  0  0  0  0  0  0  0
   -6.1380    2.1930    0.9600 Cl  0  0  0  0  0  0  0  0  0  0  0  0
  1  2  1  0
  2  3  1  0
  2  4  1  0
  4  5  2  0
  4 25  1  0
  5  6  1  0
  6  7  1  0
  6 23  2  0
  7  8  1  0
  8  9  1  0
  8 22  2  0
  9 10  2  0
  9 11  1  0
 11 12  1  0
 12 13  2  0
 12 21  1  0
 13 14  1  0
 14 15  2  0
 15 16  1  0
 15 20  1  0
 16 17  2  0
 17 18  1  0
 18 19  2  0
 19 20  1  0
 20 21  2  0
 22 23  1  0
 23 24  1  0
 24 25  2  0
 25 26  1  0
M  END
