
     RDKit          3D

 23 23  0  0  0  0  0  0  0  0999 V2000
    7.1310    1.2350    0.7460 C   0  0  0  0  0  0  0  0  0  0  0  0
    5.7950    0.7180    1.0860 C   0  0  0  0  0  0  0  0  0  0  0  0
    4.7830    0.7580    0.1920 C   0  0  0  0  0  0  0  0  0  0  0  0
    3.4760    0.2450    0.5410 C   0  0  0  0  0  0  0  0  0  0  0  0
    3.3720   -0.2810    1.8620 O   0  0  0  0  0  0  0  0  0  0  0  0
    2.4020    0.2050   -0.1870 C   0  0  0  0  0  0  0  0  0  0  0  0
    2.3660    0.7020   -1.5410 C   0  0  0  0  0  0  0  0  0  0  0  0
    1.1690    0.6470   -2.3340 N   0  0  0  0  0  0  0  0  0  0  0  0
    3.3680    1.2010   -2.0830 O   0  0  0  0  0  0  0  0  0  0  0  0
    1.1870   -0.3820    0.4170 C   0  0  0  0  0  0  0  0  0  0  0  0
    1.2070   -0.8220    1.5810 O   0  0  0  0  0  0  0  0  0  0  0  0
   -0.0290   -0.4940   -0.2150 O   0  0  0  0  0  0  0  0  0  0  0  0
   -1.1200   -1.0550    0.4030 C   0  0  1  0  0  0  0  0  0  0  0  0
   -0.7650   -2.5070    0.7650 C   0  0  0  0  0  0  0  0  0  0  0  0
   -1.6500   -0.4330    1.6250 C   0  0  0  0  0  0  0  0  0  0  0  0
   -2.6760    0.5440    1.1160 C   0  0  2  0  0  0  0  0  0  0  0  0
   -3.6070    1.0170    2.2100 C   0  0  0  0  0  0  0  0  0  0  0  0
   -3.4010   -0.3320    0.0990 C   0  0  1  0  0  0  0  0  0  0  0  0
   -4.2820    0.4650   -0.7940 C   0  0  0  0  0  0  0  0  0  0  0  0
   -3.6710    1.4380   -1.5410 O   0  0  0  0  0  0  0  0  0  0  0  0
   -2.3030   -1.1030   -0.5320 C   0  0  1  0  0  0  0  0  0  0  0  0
   -1.9670   -0.6780   -1.9260 C   0  0  0  0  0  0  0  0  0  0  0  0
   -3.1050   -0.7780   -2.7270 O   0  0  0  0  0  0  0  0  0  0  0  0
  1  2  1  0
  2  3  2  3
  3  4  1  0
  4  5  1  0
  4  6  2  3
  6  7  1  0
  6 10  1  0
  7  8  1  0
  7  9  2  0
 10 11  2  0
 10 12  1  0
 12 13  1  0
 13 14  1  1
 13 15  1  0
 13 21  1  0
 15 16  1  0
 16 17  1  1
 16 18  1  0
 18 19  1  6
 18 21  1  0
 19 20  1  0
 21 22  1  6
 22 23  1  0
M  END
