
     RDKit          3D

 26 28  0  0  0  0  0  0  0  0999 V2000
    4.3290   -1.2400   -3.1670 C   0  0  0  0  0  0  0  0  0  0  0  0
    3.8910   -0.8860   -1.9830 C   0  0  0  0  0  0  0  0  0  0  0  0
    3.7890   -1.9110   -0.9460 C   0  0  0  0  0  0  0  0  0  0  0  0
    2.9100   -1.9990    0.0920 C   0  0  0  0  0  0  0  0  0  0  0  0
    3.0320   -3.1000    0.9780 C   0  0  0  0  0  0  0  0  0  0  0  0
    2.4460   -3.3860    2.0710 C   0  0  0  0  0  0  0  0  0  0  0  0
    1.2390   -2.5880    3.0250 Cl  0  0  0  0  0  0  0  0  0  0  0  0
    1.7440   -1.0720    0.1940 C   0  0  0  0  0  0  0  0  0  0  0  0
    0.6150   -1.6440    0.4000 C   0  0  0  0  0  0  0  0  0  0  0  0
   -0.7100   -1.1070    0.5670 C   0  0  0  0  0  0  0  0  0  0  0  0
   -1.1310    0.0660    0.0320 C   0  0  0  0  0  0  0  0  0  0  0  0
   -2.4670    0.4820    0.2600 C   0  0  0  0  0  0  0  0  0  0  0  0
   -2.8770    1.6730   -0.2930 C   0  0  0  0  0  0  0  0  0  0  0  0
   -4.1870    2.0960   -0.0820 C   0  0  0  0  0  0  0  0  0  0  0  0
   -4.5720    3.3000   -0.6520 O   0  0  0  0  0  0  0  0  0  0  0  0
   -5.8760    3.8070   -0.4960 C   0  0  0  0  0  0  0  0  0  0  0  0
   -5.0230    1.3050    0.6730 C   0  0  0  0  0  0  0  0  0  0  0  0
   -4.6170    0.1140    1.2280 C   0  0  0  0  0  0  0  0  0  0  0  0
   -3.3110   -0.2930    1.0080 C   0  0  0  0  0  0  0  0  0  0  0  0
   -2.8560   -1.4930    1.5460 C   0  0  0  0  0  0  0  0  0  0  0  0
   -3.6390   -2.1970    2.2320 O   0  0  0  0  0  0  0  0  0  0  0  0
   -1.5880   -1.8450    1.3040 N   0  0  0  0  0  0  0  0  0  0  0  0
    1.8230    0.3790   -0.0540 C   0  0  0  0  0  0  0  0  0  0  0  0
    3.2090    0.8170   -0.3410 N   0  0  0  0  0  0  0  0  0  0  0  0
    3.4520    2.1610    0.0640 C   0  0  0  0  0  0  0  0  0  0  0  0
    3.5290    0.5480   -1.7380 C   0  0  0  0  0  0  0  0  0  0  0  0
  1  2  2  0
  2  3  1  0
  2 26  1  0
  3  4  2  0
  4  5  1  0
  4  8  1  0
  5  6  2  3
  6  7  1  0
  8  9  2  3
  8 23  1  0
  9 10  1  0
 10 11  2  0
 10 22  1  0
 11 12  1  0
 12 13  2  0
 12 19  1  0
 13 14  1  0
 14 15  1  0
 14 17  2  0
 15 16  1  0
 17 18  1  0
 18 19  2  0
 19 20  1  0
 20 21  2  0
 20 22  1  0
 23 24  1  0
 24 25  1  0
 24 26  1  0
M  END
