
     RDKit          3D

 32 33  0  0  0  0  0  0  0  0999 V2000
   -4.4200   -0.1530   -3.4700 C   0  0  0  0  0  0  0  0  0  0  0  0
   -3.4650    0.8030   -2.7610 C   0  0  0  0  0  0  0  0  0  0  0  0
   -4.2440    1.4570   -1.6420 C   0  0  0  0  0  0  0  0  0  0  0  0
   -3.4440    2.4250   -0.8500 C   0  0  0  0  0  0  0  0  0  0  0  0
   -2.3260    1.9970   -0.2040 O   0  0  0  0  0  0  0  0  0  0  0  0
   -2.2460    1.0970    0.8130 C   0  0  0  0  0  0  0  0  0  0  0  0
   -3.2810    0.4420    1.4260 C   0  0  0  0  0  0  0  0  0  0  0  0
   -3.1410   -0.4710    2.4660 C   0  0  0  0  0  0  0  0  0  0  0  0
   -4.2790   -1.1370    3.0770 C   0  0  0  0  0  0  0  0  0  0  0  0
   -4.0760   -1.9480    4.0120 O   0  0  0  0  0  0  0  0  0  0  0  0
   -5.5870   -0.9200    2.6780 O   0  0  0  0  0  0  0  0  0  0  0  0
   -6.6920   -1.5820    3.2890 C   0  0  0  0  0  0  0  0  0  0  0  0
   -1.8650   -0.7270    2.9070 C   0  0  0  0  0  0  0  0  0  0  0  0
   -0.7870   -0.0740    2.3030 C   0  0  0  0  0  0  0  0  0  0  0  0
   -0.9360    0.8190    1.2830 C   0  0  0  0  0  0  0  0  0  0  0  0
    0.1620    1.5320    0.6150 C   0  0  0  0  0  0  0  0  0  0  0  0
    1.5320    1.2880    1.1210 C   0  0  2  0  0  0  0  0  0  0  0  0
    2.4500    1.0320   -0.0130 C   0  0  0  0  0  0  0  0  0  0  0  0
    3.3640    1.9160   -0.2010 O   0  0  0  0  0  0  0  0  0  0  0  0
    2.4340   -0.0470   -0.8950 N   0  0  0  0  0  0  0  0  0  0  0  0
    1.5490   -1.1870   -0.8770 C   0  0  0  0  0  0  0  0  0  0  0  0
    2.0990   -2.3640   -0.1070 C   0  0  0  0  0  0  0  0  0  0  0  0
    1.1680   -3.4090   -0.1510 O   0  0  0  0  0  0  0  0  0  0  0  0
    3.4320   -0.0550   -1.9950 C   0  0  0  0  0  0  0  0  0  0  0  0
    4.9780   -0.9010   -1.4690 P   0  0  0  0  0  0  0  0  0  0  0  0
    5.4750   -2.1220   -2.5930 O   0  0  0  0  0  0  0  0  0  0  0  0
    6.2420    0.2690   -1.2970 O   0  0  0  0  0  0  0  0  0  0  0  0
    6.6790    0.2980    0.0450 C   0  0  0  0  0  0  0  0  0  0  0  0
    7.7770    1.3010    0.2390 C   0  0  0  0  0  0  0  0  0  0  0  0
    1.6610    0.2890    2.1900 C   0  0  0  0  0  0  0  0  0  0  0  0
    2.8030   -0.0100    2.6020 O   0  0  0  0  0  0  0  0  0  0  0  0
    0.5380   -0.3520    2.7750 N   0  0  0  0  0  0  0  0  0  0  0  0
  1  2  1  0
  2  3  1  0
  3  4  1  0
  4  5  1  0
  5  6  1  0
  6  7  2  0
  6 15  1  0
  7  8  1  0
  8  9  1  0
  8 13  2  0
  9 10  2  0
  9 11  1  0
 11 12  1  0
 13 14  1  0
 14 15  2  0
 14 32  1  0
 15 16  1  0
 16 17  1  0
 17 18  1  6
 17 30  1  0
 18 19  2  0
 18 20  1  0
 20 21  1  0
 20 24  1  0
 21 22  1  0
 22 23  1  0
 24 25  1  0
 25 26  1  0
 25 27  1  0
 27 28  1  0
 28 29  1  0
 30 31  2  0
 30 32  1  0
M  END
