
     RDKit          3D

 32 33  0  0  0  0  0  0  0  0999 V2000
   -8.3510    2.7870    1.0800 C   0  0  0  0  0  0  0  0  0  0  0  0
   -7.4810    1.5430    1.0600 C   0  0  0  0  0  0  0  0  0  0  0  0
   -7.9680    0.6990    0.0640 O   0  0  0  0  0  0  0  0  0  0  0  0
   -6.9710   -0.7190    0.0450 P   0  0  0  0  0  0  0  0  0  0  0  0
   -7.5340   -1.8740   -1.1200 O   0  0  0  0  0  0  0  0  0  0  0  0
   -7.0030   -3.1150   -0.7690 C   0  0  0  0  0  0  0  0  0  0  0  0
   -7.4150   -3.4990    0.5090 O   0  0  0  0  0  0  0  0  0  0  0  0
   -5.2170   -0.3270   -0.1540 C   0  0  0  0  0  0  0  0  0  0  0  0
   -4.2810   -1.1830    0.4080 C   0  0  0  0  0  0  0  0  0  0  0  0
   -2.9170   -0.9590    0.3050 C   0  0  0  0  0  0  0  0  0  0  0  0
   -2.4660    0.1390   -0.3710 C   0  0  0  0  0  0  0  0  0  0  0  0
   -1.0190    0.4120   -0.5090 C   0  0  0  0  0  0  0  0  0  0  0  0
   -0.6450    1.5390   -0.9510 O   0  0  0  0  0  0  0  0  0  0  0  0
   -0.0530   -0.5480   -0.1630 N   0  0  0  0  0  0  0  0  0  0  0  0
    1.3560   -0.4260   -0.2480 C   0  0  0  0  0  0  0  0  0  0  0  0
    1.9300    0.5680   -0.9950 C   0  0  0  0  0  0  0  0  0  0  0  0
    3.3310    0.6680   -1.0360 C   0  0  0  0  0  0  0  0  0  0  0  0
    4.0930   -0.2250   -0.3340 C   0  0  0  0  0  0  0  0  0  0  0  0
    5.4790   -0.1000   -0.3950 O   0  0  0  0  0  0  0  0  0  0  0  0
    6.2490   -0.7300   -1.3420 C   0  0  0  0  0  0  0  0  0  0  0  0
    5.6490   -1.4610   -2.1980 O   0  0  0  0  0  0  0  0  0  0  0  0
    7.6670   -0.5970   -1.4000 C   0  0  0  0  0  0  0  0  0  0  0  0
    8.3550    0.1300   -0.5620 C   0  0  0  0  0  0  0  0  0  0  0  0
    7.7320    0.8870    0.5260 C   0  0  2  0  0  0  0  0  0  0  0  0
    6.9980    1.9580    0.0050 O   0  0  0  0  0  0  0  0  0  0  0  0
    8.8160    1.4140    1.4250 C   0  0  0  0  0  0  0  0  0  0  0  0
    9.6670    0.4820    2.0510 N   0  0  0  0  0  0  0  0  0  0  0  0
    8.9510    2.6360    1.6040 O   0  0  0  0  0  0  0  0  0  0  0  0
    3.5130   -1.2350    0.4230 C   0  0  0  0  0  0  0  0  0  0  0  0
    2.1640   -1.3300    0.4630 C   0  0  0  0  0  0  0  0  0  0  0  0
   -3.3860    1.0110   -0.9420 C   0  0  0  0  0  0  0  0  0  0  0  0
   -4.7310    0.7700   -0.8270 C   0  0  0  0  0  0  0  0  0  0  0  0
  1  2  1  0
  2  3  1  0
  3  4  1  0
  4  5  1  0
  4  8  1  0
  5  6  1  0
  6  7  1  0
  8  9  2  0
  8 32  1  0
  9 10  1  0
 10 11  2  0
 11 12  1  0
 11 31  1  0
 12 13  2  0
 12 14  1  0
 14 15  1  0
 15 16  2  0
 15 30  1  0
 16 17  1  0
 17 18  2  0
 18 19  1  0
 18 29  1  0
 19 20  1  0
 20 21  2  0
 20 22  1  0
 22 23  2  3
 23 24  1  0
 24 25  1  6
 24 26  1  0
 26 27  1  0
 26 28  2  0
 29 30  2  0
 31 32  2  0
M  END
