
     RDKit          3D

 32 33  0  0  0  0  0  0  0  0999 V2000
    7.7790    2.0880   -0.5910 C   0  0  0  0  0  0  0  0  0  0  0  0
    6.4420    1.4890   -0.1840 C   0  0  0  0  0  0  0  0  0  0  0  0
    6.0380    0.6350   -1.1930 O   0  0  0  0  0  0  0  0  0  0  0  0
    4.5210   -0.1350   -0.8830 P   0  0  0  0  0  0  0  0  0  0  0  0
    3.5310    0.7370    0.3910 C   0  0  0  0  0  0  0  0  0  0  0  0
    2.7190    1.8190   -0.2660 C   0  0  0  0  0  0  0  0  0  0  0  0
    1.7490    1.3940   -1.2830 C   0  0  0  0  0  0  0  0  0  0  0  0
    0.7090    0.5060   -1.0380 N   0  0  0  0  0  0  0  0  0  0  0  0
   -0.3360    0.9040   -0.2300 C   0  0  2  0  0  0  0  0  0  0  0  0
   -0.0490    1.0760    1.2220 C   0  0  0  0  0  0  0  0  0  0  0  0
   -0.9800    2.0590    1.7310 O   0  0  0  0  0  0  0  0  0  0  0  0
   -2.2020    2.1170    1.0450 C   0  0  0  0  0  0  0  0  0  0  0  0
   -2.8670    3.1700    0.9870 O   0  0  0  0  0  0  0  0  0  0  0  0
   -2.6870    0.9090    0.3880 C   0  0  0  0  0  0  0  0  0  0  0  0
   -3.9400    0.5190    0.3670 C   0  0  0  0  0  0  0  0  0  0  0  0
   -5.0330    1.2190    0.9920 C   0  0  0  0  0  0  0  0  0  0  0  0
   -4.9290    2.2880    1.6480 O   0  0  0  0  0  0  0  0  0  0  0  0
   -6.3920    0.7380    0.9180 N   0  0  0  0  0  0  0  0  0  0  0  0
   -7.4520    1.4570    1.5350 C   0  0  0  0  0  0  0  0  0  0  0  0
   -7.2510    2.5250    2.1700 O   0  0  0  0  0  0  0  0  0  0  0  0
   -8.7680    1.0100    1.4650 O   0  0  0  0  0  0  0  0  0  0  0  0
   -4.3000   -0.7320   -0.3200 C   0  0  0  0  0  0  0  0  0  0  0  0
   -5.1190   -0.7400   -1.4370 C   0  0  0  0  0  0  0  0  0  0  0  0
   -5.4840   -1.9070   -2.0680 C   0  0  0  0  0  0  0  0  0  0  0  0
   -5.0290   -3.1120   -1.5860 C   0  0  0  0  0  0  0  0  0  0  0  0
   -5.3790   -4.3220   -2.2030 O   0  0  0  0  0  0  0  0  0  0  0  0
   -4.2200   -3.1340   -0.4820 C   0  0  0  0  0  0  0  0  0  0  0  0
   -3.8570   -1.9340    0.1500 C   0  0  0  0  0  0  0  0  0  0  0  0
   -1.6220    0.0810   -0.3190 C   0  0  0  0  0  0  0  0  0  0  0  0
    4.6490   -1.8250   -0.6680 O   0  0  0  0  0  0  0  0  0  0  0  0
    5.6280   -2.1980    0.2510 C   0  0  0  0  0  0  0  0  0  0  0  0
    5.7040   -3.7020    0.4010 C   0  0  0  0  0  0  0  0  0  0  0  0
  1  2  1  0
  2  3  1  0
  3  4  1  0
  4  5  1  0
  4 30  1  0
  5  6  1  0
  6  7  1  0
  7  8  1  0
  9  8  1  6
  9 10  1  0
  9 29  1  0
 10 11  1  0
 11 12  1  0
 12 13  2  0
 12 14  1  0
 14 15  2  3
 14 29  1  0
 15 16  1  0
 15 22  1  0
 16 17  2  0
 16 18  1  0
 18 19  1  0
 19 20  2  0
 19 21  1  0
 22 23  2  0
 22 28  1  0
 23 24  1  0
 24 25  2  0
 25 26  1  0
 25 27  1  0
 27 28  2  0
 30 31  1  0
 31 32  1  0
M  END
