
     RDKit          3D

 31 32  0  0  0  0  0  0  0  0999 V2000
    1.2910    1.2970    1.9380 C   0  0  0  0  0  0  0  0  0  0  0  0
    2.2540    0.7920    0.9020 C   0  0  0  0  0  0  0  0  0  0  0  0
    1.7380   -0.4260    0.0780 C   0  0  2  0  0  0  0  0  0  0  0  0
    0.5930   -0.0720   -0.6410 N   0  0  0  0  0  0  0  0  0  0  0  0
   -0.6680   -0.0130   -0.2850 C   0  0  0  0  0  0  0  0  0  0  0  0
   -0.7870   -0.5060    1.0750 O   0  0  0  0  0  0  0  0  0  0  0  0
   -1.9960    0.3140   -0.6180 C   0  0  0  0  0  0  0  0  0  0  0  0
   -1.4420    1.7930   -1.2980 C   0  0  0  0  0  0  0  0  0  0  0  0
   -2.2030    2.6910   -1.8500 C   0  0  0  0  0  0  0  0  0  0  0  0
   -3.6170    2.5690   -1.9830 C   0  0  0  0  0  0  0  0  0  0  0  0
   -4.1220    1.3610   -1.4450 C   0  0  0  0  0  0  0  0  0  0  0  0
   -3.1160    0.5940   -0.9060 C   0  0  0  0  0  0  0  0  0  0  0  0
   -3.7960   -0.5850   -0.1500 O   0  0  0  0  0  0  0  0  0  0  0  0
   -4.9240   -0.8840    0.1440 C   0  0  0  0  0  0  0  0  0  0  0  0
   -6.1270   -1.3600   -0.6190 C   0  0  0  0  0  0  0  0  0  0  0  0
   -7.1330   -1.4290    0.3470 O   0  0  0  0  0  0  0  0  0  0  0  0
   -8.3470   -0.9680    0.5040 C   0  0  0  0  0  0  0  0  0  0  0  0
   -9.1690   -1.2110    1.6930 C   0  0  0  0  0  0  0  0  0  0  0  0
   -8.8110   -0.2410   -0.4840 O   0  0  0  0  0  0  0  0  0  0  0  0
    1.5200   -1.5460    1.1620 C   0  0  0  0  0  0  0  0  0  0  0  0
    2.6620   -1.3140    2.0800 O   0  0  0  0  0  0  0  0  0  0  0  0
    3.8310   -1.7390    1.4810 C   0  0  0  0  0  0  0  0  0  0  0  0
    3.7530   -1.9290   -0.0370 C   0  0  0  0  0  0  0  0  0  0  0  0
    2.7850   -1.0270   -0.7640 C   0  0  2  0  0  0  0  0  0  0  0  0
    3.1710   -0.1930   -1.7980 N   0  0  0  0  0  0  0  0  0  0  0  0
    4.5020   -0.0980   -2.3170 C   0  0  0  0  0  0  0  0  0  0  0  0
    5.4940    0.7320   -1.4410 C   0  0  0  0  0  0  0  0  0  0  0  0
    5.5900    0.2450   -0.2260 O   0  0  0  0  0  0  0  0  0  0  0  0
    6.7360    0.8120    0.8330 P   0  0  0  0  0  0  0  0  0  0  0  0
    6.0820    1.4160    2.3360 O   0  0  0  0  0  0  0  0  0  0  0  0
    7.7520   -0.5670    1.2460 O   0  0  0  0  0  0  0  0  0  0  0  0
  1  2  1  0
  3  2  1  1
  3  4  1  0
  3 20  1  0
  3 24  1  0
  4  5  1  0
  5  6  2  0
  5  7  1  0
  7  8  2  0
  7 12  1  0
  8  9  1  0
  9 10  2  0
 10 11  1  0
 11 12  2  0
 12 13  1  0
 13 14  1  0
 14 15  1  0
 15 16  1  0
 16 17  1  0
 17 18  1  0
 17 19  2  0
 20 21  1  0
 21 22  1  0
 22 23  1  0
 23 24  1  0
 24 25  1  1
 25 26  1  0
 26 27  1  0
 27 28  1  0
 28 29  1  0
 29 30  1  0
 29 31  1  0
M  END
