
     RDKit          3D

 32 33  0  0  0  0  0  0  0  0999 V2000
   -7.2320    3.3260   -1.6350 C   0  0  0  0  0  0  0  0  0  0  0  0
   -6.5920    2.0870   -1.5140 O   0  0  0  0  0  0  0  0  0  0  0  0
   -5.3130    2.2790   -1.0020 C   0  0  0  0  0  0  0  0  0  0  0  0
   -4.6400    0.9710   -0.8750 C   0  0  0  0  0  0  0  0  0  0  0  0
   -5.2630   -0.1970   -1.2270 C   0  0  0  0  0  0  0  0  0  0  0  0
   -4.6370   -1.4020   -1.1080 C   0  0  0  0  0  0  0  0  0  0  0  0
   -3.3320   -1.4950   -0.6210 C   0  0  0  0  0  0  0  0  0  0  0  0
   -2.6860   -2.7800   -0.5450 C   0  0  0  0  0  0  0  0  0  0  0  0
   -3.3950   -3.7950   -0.9020 O   0  0  0  0  0  0  0  0  0  0  0  0
   -1.4260   -3.0940   -0.1520 O   0  0  0  0  0  0  0  0  0  0  0  0
   -0.9030   -4.4090   -0.1220 C   0  0  0  0  0  0  0  0  0  0  0  0
   -2.6650   -0.3480   -0.2530 C   0  0  0  0  0  0  0  0  0  0  0  0
   -1.3690   -0.3470    0.3030 N   0  0  0  0  0  0  0  0  0  0  0  0
   -0.5040    0.7280    0.5370 C   0  0  0  0  0  0  0  0  0  0  0  0
   -0.8500    1.8780    0.2340 O   0  0  0  0  0  0  0  0  0  0  0  0
    0.8560    0.5640    1.1520 C   0  0  2  0  0  0  0  0  0  0  0  0
    0.6500   -0.0240    2.5100 C   0  0  0  0  0  0  0  0  0  0  0  0
   -0.1890    0.8210    3.4240 C   0  0  0  0  0  0  0  0  0  0  0  0
    0.2960    2.0680    3.6840 O   0  0  0  0  0  0  0  0  0  0  0  0
    1.6270    1.8410    1.1410 C   0  0  0  0  0  0  0  0  0  0  0  0
    2.9300    1.6660    1.8410 C   0  0  0  0  0  0  0  0  0  0  0  0
    3.7970    0.7610    0.9980 C   0  0  0  0  0  0  0  0  0  0  0  0
    3.0150   -0.0480    0.0760 N   0  0  0  0  0  0  0  0  0  0  0  0
    3.6600   -0.4800   -1.1710 C   0  0  0  0  0  0  0  0  0  0  0  0
    4.3550   -1.7970   -1.0010 C   0  0  0  0  0  0  0  0  0  0  0  0
    4.9830   -2.1540   -2.3320 C   0  0  0  0  0  0  0  0  0  0  0  0
    6.1920   -0.8480   -2.8180 P   0  0  0  0  0  0  0  0  0  0  0  0
    7.0950   -0.3160   -1.4470 O   0  0  0  0  0  0  0  0  0  0  0  0
    5.3880    0.4700   -3.6210 O   0  0  0  0  0  0  0  0  0  0  0  0
    1.6710   -0.4100    0.3730 C   0  0  0  0  0  0  0  0  0  0  0  0
    1.2600   -1.5180   -0.0360 O   0  0  0  0  0  0  0  0  0  0  0  0
   -3.3310    0.8610   -0.3870 C   0  0  0  0  0  0  0  0  0  0  0  0
  1  2  1  0
  2  3  1  0
  3  4  1  0
  4  5  2  0
  4 32  1  0
  5  6  1  0
  6  7  2  0
  7  8  1  0
  7 12  1  0
  8  9  2  0
  8 10  1  0
 10 11  1  0
 12 13  1  0
 12 32  2  0
 13 14  1  0
 14 15  2  0
 14 16  1  0
 16 17  1  1
 16 20  1  0
 16 30  1  0
 17 18  1  0
 18 19  1  0
 20 21  1  0
 21 22  1  0
 22 23  1  0
 23 24  1  0
 23 30  1  0
 24 25  1  0
 25 26  1  0
 26 27  1  0
 27 28  1  0
 27 29  1  0
 30 31  2  0
M  END
