
     RDKit          3D

 32 33  0  0  0  0  0  0  0  0999 V2000
    5.7060    4.5190   -0.7530 C   0  0  0  0  0  0  0  0  0  0  0  0
    4.3550    4.1320   -0.7200 O   0  0  0  0  0  0  0  0  0  0  0  0
    4.0630    2.7500   -0.6200 C   0  0  0  0  0  0  0  0  0  0  0  0
    3.0460    2.3500    0.0750 C   0  0  0  0  0  0  0  0  0  0  0  0
    2.6470    0.9830    0.2610 C   0  0  0  0  0  0  0  0  0  0  0  0
    1.2980    0.8050    0.6130 C   0  0  0  0  0  0  0  0  0  0  0  0
    0.8200   -0.4560    0.7970 C   0  0  0  0  0  0  0  0  0  0  0  0
   -0.4780   -0.6840    1.1380 O   0  0  0  0  0  0  0  0  0  0  0  0
   -1.5140    0.2140    1.3590 C   0  0  2  0  0  0  0  0  0  0  0  0
   -2.0510   -0.0300    2.7620 C   0  0  0  0  0  0  0  0  0  0  0  0
   -2.2060   -1.4000    2.9280 O   0  0  0  0  0  0  0  0  0  0  0  0
   -2.7940   -2.0100    1.8330 C   0  0  0  0  0  0  0  0  0  0  0  0
   -3.6230   -0.9830    1.0830 C   0  0  2  0  0  0  0  0  0  0  0  0
   -4.4240   -1.5840    0.1450 O   0  0  0  0  0  0  0  0  0  0  0  0
   -5.7710   -1.4050    0.3450 C   0  0  0  0  0  0  0  0  0  0  0  0
   -6.2130    0.0180    0.3210 C   0  0  0  0  0  0  0  0  0  0  0  0
   -7.6910    0.1480    0.5550 C   0  0  0  0  0  0  0  0  0  0  0  0
   -8.4450   -0.5920   -0.5220 C   0  0  0  0  0  0  0  0  0  0  0  0
   -7.9500    0.1810   -2.1500 P   0  0  0  0  0  0  0  0  0  0  0  0
   -8.8050    1.6830   -2.3230 O   0  0  0  0  0  0  0  0  0  0  0  0
   -8.2420   -0.8700   -3.4740 O   0  0  0  0  0  0  0  0  0  0  0  0
   -2.6490   -0.0670    0.3690 C   0  0  0  0  0  0  0  0  0  0  0  0
    1.6770   -1.5470    0.6340 C   0  0  0  0  0  0  0  0  0  0  0  0
    2.9940   -1.3560    0.2930 C   0  0  0  0  0  0  0  0  0  0  0  0
    3.5080   -0.0720    0.1020 C   0  0  0  0  0  0  0  0  0  0  0  0
    4.9130    0.0680   -0.0470 N   0  0  0  0  0  0  0  0  0  0  0  0
    5.7800   -0.8720   -0.6150 C   0  0  0  0  0  0  0  0  0  0  0  0
    5.3970   -1.9580   -1.0830 O   0  0  0  0  0  0  0  0  0  0  0  0
    7.2050   -0.6450   -0.7000 N   0  0  0  0  0  0  0  0  0  0  0  0
    8.0560   -1.6440   -1.2940 C   0  0  0  0  0  0  0  0  0  0  0  0
    9.4810   -1.1400   -1.2480 C   0  0  0  0  0  0  0  0  0  0  0  0
    9.8570   -0.9210    0.0640 O   0  0  0  0  0  0  0  0  0  0  0  0
  1  2  1  0
  2  3  1  0
  3  4  2  3
  4  5  1  0
  5  6  2  0
  5 25  1  0
  6  7  1  0
  7  8  1  0
  7 23  2  0
  9  8  1  6
  9 10  1  0
  9 22  1  0
 10 11  1  0
 11 12  1  0
 12 13  1  0
 13 14  1  6
 13 22  1  0
 14 15  1  0
 15 16  1  0
 16 17  1  0
 17 18  1  0
 18 19  1  0
 19 20  1  0
 19 21  1  0
 23 24  1  0
 24 25  2  0
 25 26  1  0
 26 27  1  0
 27 28  2  0
 27 29  1  0
 29 30  1  0
 30 31  1  0
 31 32  1  0
M  END
