
     RDKit          3D

 31 32  0  0  0  0  0  0  0  0999 V2000
   -4.0970   -4.1030    0.5430 C   0  0  0  0  0  0  0  0  0  0  0  0
   -5.0550   -2.9480    0.3040 C   0  0  0  0  0  0  0  0  0  0  0  0
   -4.3760   -1.7850    0.6090 O   0  0  0  0  0  0  0  0  0  0  0  0
   -5.4200   -0.4230    0.3530 P   0  0  0  0  0  0  0  0  0  0  0  0
   -7.0850   -0.8460    0.4720 O   0  0  0  0  0  0  0  0  0  0  0  0
   -5.0200    0.4790   -1.1910 C   0  0  0  0  0  0  0  0  0  0  0  0
   -3.8530    1.3750   -1.0490 N   0  0  0  0  0  0  0  0  0  0  0  0
   -4.1040    2.7230   -0.6580 C   0  0  0  0  0  0  0  0  0  0  0  0
   -4.0700    2.9730    0.8310 C   0  0  0  0  0  0  0  0  0  0  0  0
   -5.0000    2.2400    1.5440 O   0  0  0  0  0  0  0  0  0  0  0  0
   -2.5880    0.8260   -1.3280 C   0  0  0  0  0  0  0  0  0  0  0  0
   -2.5520   -0.4160   -1.6920 O   0  0  0  0  0  0  0  0  0  0  0  0
   -1.2740    1.4570   -1.2690 C   0  0  2  0  0  0  0  0  0  0  0  0
   -1.3840    2.7700   -0.8550 O   0  0  0  0  0  0  0  0  0  0  0  0
   -0.6750    1.4990   -2.6620 C   0  0  0  0  0  0  0  0  0  0  0  0
    0.6790    2.1240   -2.7120 C   0  0  0  0  0  0  0  0  0  0  0  0
    1.3460    1.9140   -1.4430 N   0  0  0  0  0  0  0  0  0  0  0  0
    0.9740    0.5930   -0.9870 C   0  0  1  0  0  0  0  0  0  0  0  0
    2.0240    0.0190   -0.1500 C   0  0  0  0  0  0  0  0  0  0  0  0
    1.7930   -0.6070    1.0620 C   0  0  0  0  0  0  0  0  0  0  0  0
    2.8110   -1.1380    1.8180 C   0  0  0  0  0  0  0  0  0  0  0  0
    4.1100   -1.0620    1.3830 C   0  0  0  0  0  0  0  0  0  0  0  0
    5.1720   -1.5940    2.1290 O   0  0  0  0  0  0  0  0  0  0  0  0
    6.5120   -1.4950    1.6410 C   0  0  0  0  0  0  0  0  0  0  0  0
    7.3840   -2.1600    2.6770 C   0  0  0  0  0  0  0  0  0  0  0  0
    8.7380   -2.1540    2.3570 O   0  0  0  0  0  0  0  0  0  0  0  0
    9.4220   -0.9640    2.1960 C   0  0  0  0  0  0  0  0  0  0  0  0
    8.8970    0.1720    2.3230 O   0  0  0  0  0  0  0  0  0  0  0  0
    4.3670   -0.4440    0.1770 C   0  0  0  0  0  0  0  0  0  0  0  0
    3.3290    0.0930   -0.5850 C   0  0  0  0  0  0  0  0  0  0  0  0
   -0.3600    0.7360   -0.2970 C   0  0  0  0  0  0  0  0  0  0  0  0
  1  2  1  0
  2  3  1  0
  3  4  1  0
  4  5  1  0
  4  6  1  0
  6  7  1  0
  7  8  1  0
  7 11  1  0
  8  9  1  0
  9 10  1  0
 11 12  2  0
 11 13  1  0
 13 14  1  1
 13 15  1  0
 13 31  1  0
 15 16  1  0
 16 17  1  0
 17 18  1  0
 18 19  1  1
 18 31  1  0
 19 20  2  0
 19 30  1  0
 20 21  1  0
 21 22  2  0
 22 23  1  0
 22 29  1  0
 23 24  1  0
 24 25  1  0
 25 26  1  0
 26 27  1  0
 27 28  2  0
 29 30  2  0
M  END
