
     RDKit          3D

 32 33  0  0  0  0  0  0  0  0999 V2000
    5.5340   -3.0690   -0.3290 C   0  0  0  0  0  0  0  0  0  0  0  0
    4.4180   -2.6460    0.2090 C   0  0  0  0  0  0  0  0  0  0  0  0
    3.1080   -2.8190   -0.5030 C   0  0  0  0  0  0  0  0  0  0  0  0
    2.4400   -1.5940   -0.3980 O   0  0  0  0  0  0  0  0  0  0  0  0
    2.3180   -0.9260    0.8030 C   0  0  0  0  0  0  0  0  0  0  0  0
    1.1790   -0.0300    1.0510 C   0  0  0  0  0  0  0  0  0  0  0  0
    1.0970    0.5590    2.1450 O   0  0  0  0  0  0  0  0  0  0  0  0
    0.1530    0.1540   -0.0050 C   0  0  2  0  0  0  0  0  0  0  0  0
    0.4200   -0.7870   -0.9950 O   0  0  0  0  0  0  0  0  0  0  0  0
   -0.4210   -1.8360   -1.1040 C   0  0  0  0  0  0  0  0  0  0  0  0
   -1.8530   -1.5800   -1.3940 C   0  0  0  0  0  0  0  0  0  0  0  0
   -2.6460   -2.8930   -1.4800 C   0  0  0  0  0  0  0  0  0  0  0  0
   -4.1050   -2.5970   -1.7770 C   0  0  0  0  0  0  0  0  0  0  0  0
   -4.8500   -1.5460   -0.4470 P   0  0  0  0  0  0  0  0  0  0  0  0
   -5.2220   -2.5770    0.9160 O   0  0  0  0  0  0  0  0  0  0  0  0
   -6.3530   -0.9000   -1.0390 O   0  0  0  0  0  0  0  0  0  0  0  0
    0.1230    1.5480   -0.5370 C   0  0  2  0  0  0  0  0  0  0  0  0
    0.3460    2.6310    0.4330 C   0  0  0  0  0  0  0  0  0  0  0  0
    1.4750    2.7200    1.0550 O   0  0  0  0  0  0  0  0  0  0  0  0
   -0.5680    3.6410    0.7900 N   0  0  0  0  0  0  0  0  0  0  0  0
   -0.2440    4.6760    1.7720 C   0  0  0  0  0  0  0  0  0  0  0  0
   -1.4070    5.6190    1.9550 C   0  0  0  0  0  0  0  0  0  0  0  0
   -0.9260    1.7560   -1.4840 N   0  0  0  0  0  0  0  0  0  0  0  0
   -2.3670    1.8250   -1.3560 C   0  0  0  0  0  0  0  0  0  0  0  0
   -2.6000    3.0590   -2.2560 C   0  0  0  0  0  0  0  0  0  0  0  0
   -1.9230    2.5600   -3.4270 O   0  0  0  0  0  0  0  0  0  0  0  0
   -0.7520    1.9690   -2.9090 C   0  0  0  0  0  0  0  0  0  0  0  0
    0.2790    1.6710   -3.5630 O   0  0  0  0  0  0  0  0  0  0  0  0
    3.2450   -1.1010    1.7360 C   0  0  0  0  0  0  0  0  0  0  0  0
    4.3950   -1.9960    1.5070 C   0  0  0  0  0  0  0  0  0  0  0  0
    5.3290   -2.2070    2.3820 C   0  0  0  0  0  0  0  0  0  0  0  0
    5.2350   -1.5020    3.6920 C   0  0  0  0  0  0  0  0  0  0  0  0
  1  2  2  0
  2  3  1  0
  2 30  1  0
  3  4  1  0
  4  5  1  0
  5  6  1  0
  5 29  2  0
  6  7  2  0
  6  8  1  0
  8  9  1  6
  8 17  1  0
  9 10  1  0
 10 11  1  0
 11 12  1  0
 12 13  1  0
 13 14  1  0
 14 15  1  0
 14 16  1  0
 17 18  1  0
 17 23  1  1
 18 19  2  0
 18 20  1  0
 20 21  1  0
 21 22  1  0
 23 24  1  0
 23 27  1  0
 24 25  1  0
 25 26  1  0
 26 27  1  0
 27 28  2  0
 29 30  1  0
 30 31  2  3
 31 32  1  0
M  END
