
     RDKit          3D

 17 16  0  0  0  0  0  0  0  0999 V2000
   -3.5410    1.0530    1.8570 O   0  0  0  0  0  0  0  0  0  0  0  0
   -3.0480   -0.0560    2.1690 C   0  0  0  0  0  0  0  0  0  0  0  0
   -2.7230   -0.9140    1.1360 O   0  0  0  0  0  0  0  0  0  0  0  0
   -2.9310   -0.5640   -0.1910 C   0  0  0  0  0  0  0  0  0  0  0  0
   -2.1850    0.6560   -0.6620 C   0  0  0  0  0  0  0  0  0  0  0  0
   -0.7990    0.4040   -0.5000 O   0  0  0  0  0  0  0  0  0  0  0  0
    0.1870    1.2900   -0.8230 C   0  0  0  0  0  0  0  0  0  0  0  0
   -0.1550    2.4090   -1.2980 O   0  0  0  0  0  0  0  0  0  0  0  0
    1.6270    0.9350   -0.6180 C   0  0  2  0  0  0  0  0  0  0  0  0
    1.6930   -0.3350   -0.0930 O   0  0  0  0  0  0  0  0  0  0  0  0
    2.2850   -1.2030   -0.9500 O   0  0  0  0  0  0  0  0  0  0  0  0
    2.5040   -2.5070   -0.5580 C   0  0  0  0  0  0  0  0  0  0  0  0
    2.1340   -2.8340    0.6010 O   0  0  0  0  0  0  0  0  0  0  0  0
    3.1060   -3.4660   -1.3740 O   0  0  0  0  0  0  0  0  0  0  0  0
    2.2760    1.8840    0.2930 C   0  0  0  0  0  0  0  0  0  0  0  0
    2.3490    3.1140    0.0410 O   0  0  0  0  0  0  0  0  0  0  0  0
    2.8330    1.4270    1.4760 O   0  0  0  0  0  0  0  0  0  0  0  0
  1  2  2  0
  2  3  1  0
  3  4  1  0
  4  5  1  0
  5  6  1  0
  6  7  1  0
  7  8  2  0
  7  9  1  0
  9 10  1  1
  9 15  1  0
 10 11  1  0
 11 12  1  0
 12 13  2  0
 12 14  1  0
 15 16  2  0
 15 17  1  0
M  END
