
     RDKit          3D

 17 18  0  0  0  0  0  0  0  0999 V2000
   -0.9460    0.7360    2.3870 O   0  0  0  0  0  0  0  0  0  0  0  0
   -0.8050    1.2990    1.2750 C   0  0  0  0  0  0  0  0  0  0  0  0
   -1.5630    2.3490    0.7370 O   0  0  0  0  0  0  0  0  0  0  0  0
   -0.6830    2.9510   -0.2160 C   0  0  0  0  0  0  0  0  0  0  0  0
    0.0200    1.8960   -0.7610 O   0  0  0  0  0  0  0  0  0  0  0  0
    0.2060    0.9840    0.2650 C   0  0  1  0  0  0  0  0  0  0  0  0
    1.6210    1.0310    0.7920 C   0  0  0  0  0  0  0  0  0  0  0  0
    2.1780   -0.2410    0.8450 O   0  0  0  0  0  0  0  0  0  0  0  0
    2.2140   -0.8720   -0.3900 C   0  0  2  0  0  0  0  0  0  0  0  0
    3.3640   -0.5330   -1.0870 O   0  0  0  0  0  0  0  0  0  0  0  0
    4.1030   -1.5800   -1.2760 O   0  0  0  0  0  0  0  0  0  0  0  0
    1.0640   -0.6550   -1.1430 O   0  0  0  0  0  0  0  0  0  0  0  0
    0.0110   -0.4440   -0.2660 C   0  0  2  0  0  0  0  0  0  0  0  0
   -1.2320   -0.5630   -0.8490 O   0  0  0  0  0  0  0  0  0  0  0  0
   -2.0380   -1.5130   -0.1960 C   0  0  0  0  0  0  0  0  0  0  0  0
   -3.2530   -1.5220   -0.8920 O   0  0  0  0  0  0  0  0  0  0  0  0
   -4.1050   -2.3770   -0.3780 O   0  0  0  0  0  0  0  0  0  0  0  0
  1  2  2  0
  2  3  1  0
  2  6  1  0
  3  4  1  0
  4  5  1  0
  5  6  1  0
  6  7  1  1
  6 13  1  0
  7  8  1  0
  8  9  1  0
  9 10  1  6
  9 12  1  0
 10 11  1  0
 12 13  1  0
 13 14  1  6
 14 15  1  0
 15 16  1  0
 16 17  1  0
M  END
