
     RDKit          3D

 17 16  0  0  0  0  0  0  0  0999 V2000
   -3.9270    2.1930    0.0900 O   0  0  0  0  0  0  0  0  0  0  0  0
   -4.0800    1.1640    0.7920 C   0  0  0  0  0  0  0  0  0  0  0  0
   -5.1730    1.0890    1.6200 O   0  0  0  0  0  0  0  0  0  0  0  0
   -3.1240    0.1680    0.6790 O   0  0  0  0  0  0  0  0  0  0  0  0
   -2.0510    0.3390   -0.1900 C   0  0  0  0  0  0  0  0  0  0  0  0
   -1.1710   -0.9110   -0.1020 C   0  0  2  0  0  0  0  0  0  0  0  0
   -0.0980   -0.7430   -0.9690 O   0  0  0  0  0  0  0  0  0  0  0  0
    1.0550   -0.6670   -0.2850 O   0  0  0  0  0  0  0  0  0  0  0  0
    1.7220    0.5290   -0.1690 C   0  0  0  0  0  0  0  0  0  0  0  0
    1.2330    1.5370   -0.7110 O   0  0  0  0  0  0  0  0  0  0  0  0
    3.0080    0.6580    0.5820 C   0  0  2  0  0  0  0  0  0  0  0  0
    3.4570    1.9670    0.5380 O   0  0  0  0  0  0  0  0  0  0  0  0
    4.0260   -0.2220   -0.1390 C   0  0  0  0  0  0  0  0  0  0  0  0
    5.2650   -0.1250    0.4890 O   0  0  0  0  0  0  0  0  0  0  0  0
   -1.9020   -2.1260   -0.4490 C   0  0  0  0  0  0  0  0  0  0  0  0
   -2.9260   -2.5420    0.1590 O   0  0  0  0  0  0  0  0  0  0  0  0
   -1.4710   -2.9020   -1.5140 O   0  0  0  0  0  0  0  0  0  0  0  0
  1  2  2  0
  2  3  1  0
  2  4  1  0
  4  5  1  0
  6  5  1  6
  6  7  1  0
  6 15  1  0
  7  8  1  0
  8  9  1  0
  9 10  2  0
  9 11  1  0
 11 12  1  6
 11 13  1  0
 13 14  1  0
 15 16  2  0
 15 17  1  0
M  END
