
     RDKit          3D

 17 16  0  0  0  0  0  0  0  0999 V2000
    4.2780    1.5830    0.2890 O   0  0  0  0  0  0  0  0  0  0  0  0
    4.0610    0.6260    1.0700 C   0  0  0  0  0  0  0  0  0  0  0  0
    4.7120    0.5920    2.2770 O   0  0  0  0  0  0  0  0  0  0  0  0
    3.1090   -0.4400    0.6670 C   0  0  0  0  0  0  0  0  0  0  0  0
    2.5930   -0.1650   -0.5950 O   0  0  0  0  0  0  0  0  0  0  0  0
    1.7530   -1.0560   -1.0120 O   0  0  0  0  0  0  0  0  0  0  0  0
    0.4370   -0.6620   -0.9690 C   0  0  2  0  0  0  0  0  0  0  0  0
   -0.3480   -1.5890   -0.0750 C   0  0  0  0  0  0  0  0  0  0  0  0
   -1.7130   -1.2440    0.0160 O   0  0  0  0  0  0  0  0  0  0  0  0
   -2.2020   -0.0450    0.4890 C   0  0  0  0  0  0  0  0  0  0  0  0
   -1.3960    0.8140    0.8690 O   0  0  0  0  0  0  0  0  0  0  0  0
   -3.6520    0.2290    0.5470 C   0  0  0  0  0  0  0  0  0  0  0  0
   -3.8590    1.5020    1.0600 O   0  0  0  0  0  0  0  0  0  0  0  0
   -5.1170    1.8190    1.1430 O   0  0  0  0  0  0  0  0  0  0  0  0
   -0.2030   -0.6600   -2.3090 C   0  0  0  0  0  0  0  0  0  0  0  0
   -1.3930   -0.3300   -2.4580 O   0  0  0  0  0  0  0  0  0  0  0  0
    0.5040   -1.0290   -3.4510 O   0  0  0  0  0  0  0  0  0  0  0  0
  1  2  2  0
  2  3  1  0
  2  4  1  0
  4  5  1  0
  5  6  1  0
  6  7  1  0
  7  8  1  1
  7 15  1  0
  8  9  1  0
  9 10  1  0
 10 11  2  0
 10 12  1  0
 12 13  1  0
 13 14  1  0
 15 16  2  0
 15 17  1  0
M  END
