
     RDKit          3D

 26 27  0  0  0  0  0  0  0  0999 V2000
   -5.4600    1.8380    0.4650 C   0  0  0  0  0  0  0  0  0  0  0  0
   -4.9500    1.6550   -0.9290 C   0  0  0  0  0  0  0  0  0  0  0  0
   -3.9460    0.5120   -0.9340 C   0  0  0  0  0  0  0  0  0  0  0  0
   -2.8420    0.9220    0.0100 C   0  0  0  0  0  0  0  0  0  0  0  0
   -1.8170    0.0480    0.1850 O   0  0  0  0  0  0  0  0  0  0  0  0
   -1.7250   -1.2200    0.7020 C   0  0  0  0  0  0  0  0  0  0  0  0
   -2.8480   -1.8170    1.1950 C   0  0  0  0  0  0  0  0  0  0  0  0
   -2.6550   -3.3850    1.8230 S   0  0  0  0  0  0  0  0  0  0  0  0
   -1.0390   -3.9400    1.7170 C   0  0  0  0  0  0  0  0  0  0  0  0
   -0.6770   -5.0720    2.1240 O   0  0  0  0  0  0  0  0  0  0  0  0
   -0.1520   -3.0470    1.1480 C   0  0  0  0  0  0  0  0  0  0  0  0
    1.1620   -3.5360    1.0860 C   0  0  0  0  0  0  0  0  0  0  0  0
    2.1900   -2.7910    0.5560 C   0  0  0  0  0  0  0  0  0  0  0  0
    1.8880   -1.5380    0.0840 C   0  0  0  0  0  0  0  0  0  0  0  0
    2.9670   -0.7360   -0.4810 C   0  0  0  0  0  0  0  0  0  0  0  0
    3.2730   -0.8000   -1.7080 O   0  0  0  0  0  0  0  0  0  0  0  0
    3.6780    0.1340    0.3890 N   0  0  0  0  0  0  0  0  0  0  0  0
    3.3750    0.2490    1.7950 C   0  0  0  0  0  0  0  0  0  0  0  0
    4.7470    0.9290   -0.1670 C   0  0  0  0  0  0  0  0  0  0  0  0
    3.9940    2.5350   -0.7350 P   0  0  0  0  0  0  0  0  0  0  0  0
    4.6110    2.9970   -2.2660 O   0  0  0  0  0  0  0  0  0  0  0  0
    4.1780    3.7560    0.4600 O   0  0  0  0  0  0  0  0  0  0  0  0
    0.6080   -1.0570    0.1430 C   0  0  0  0  0  0  0  0  0  0  0  0
    0.3960    0.2200   -0.3590 O   0  0  0  0  0  0  0  0  0  0  0  0
    0.0810    0.3570   -1.7270 C   0  0  0  0  0  0  0  0  0  0  0  0
   -0.4520   -1.8050    0.6820 C   0  0  0  0  0  0  0  0  0  0  0  0
  1  2  1  0
  2  3  1  0
  3  4  1  0
  4  5  1  0
  5  6  1  0
  6  7  2  0
  6 26  1  0
  7  8  1  0
  8  9  1  0
  9 10  2  0
  9 11  1  0
 11 12  2  0
 11 26  1  0
 12 13  1  0
 13 14  2  0
 14 15  1  0
 14 23  1  0
 15 16  2  0
 15 17  1  0
 17 18  1  0
 17 19  1  0
 19 20  1  0
 20 21  1  0
 20 22  1  0
 23 24  1  0
 23 26  2  0
 24 25  1  0
M  END
