
     RDKit          3D

 17 16  0  0  0  0  0  0  0  0999 V2000
   -3.3410    0.9580    0.7540 O   0  0  0  0  0  0  0  0  0  0  0  0
   -2.6920    1.8670    0.2060 C   0  0  0  0  0  0  0  0  0  0  0  0
   -3.1940    3.1390   -0.0250 O   0  0  0  0  0  0  0  0  0  0  0  0
   -1.4400    1.4370   -0.1270 O   0  0  0  0  0  0  0  0  0  0  0  0
   -0.8650    0.2180    0.0600 C   0  0  1  0  0  0  0  0  0  0  0  0
    0.5490    0.2840   -0.4990 C   0  0  0  0  0  0  0  0  0  0  0  0
    1.2170   -0.9170   -0.3550 O   0  0  0  0  0  0  0  0  0  0  0  0
    2.4850   -0.9460   -0.8260 C   0  0  0  0  0  0  0  0  0  0  0  0
    3.4420    0.0270   -0.2060 C   0  0  0  0  0  0  0  0  0  0  0  0
    3.5730   -0.1670    1.1480 O   0  0  0  0  0  0  0  0  0  0  0  0
   -0.7010    0.0280    1.5420 C   0  0  0  0  0  0  0  0  0  0  0  0
   -0.1830   -1.0380    2.0040 O   0  0  0  0  0  0  0  0  0  0  0  0
   -1.0930    0.9760    2.4640 O   0  0  0  0  0  0  0  0  0  0  0  0
   -1.4880   -0.9880   -0.4420 C   0  0  0  0  0  0  0  0  0  0  0  0
   -0.8620   -2.0620   -0.2090 O   0  0  0  0  0  0  0  0  0  0  0  0
   -2.6530   -1.1530   -1.1330 O   0  0  0  0  0  0  0  0  0  0  0  0
   -3.1110   -2.3440   -1.5380 O   0  0  0  0  0  0  0  0  0  0  0  0
  1  2  2  0
  2  3  1  0
  2  4  1  0
  4  5  1  0
  5  6  1  6
  5 11  1  0
  5 14  1  0
  6  7  1  0
  7  8  1  0
  8  9  1  0
  9 10  1  0
 11 12  2  0
 11 13  1  0
 14 15  2  0
 14 16  1  0
 16 17  1  0
M  END
