
     RDKit          3D

 17 16  0  0  0  0  0  0  0  0999 V2000
   -3.1160   -0.9360    1.9240 C   0  0  0  0  0  0  0  0  0  0  0  0
   -2.4070   -0.8650    0.7160 O   0  0  0  0  0  0  0  0  0  0  0  0
   -1.5470    0.1710    0.4070 C   0  0  0  0  0  0  0  0  0  0  0  0
   -1.3390    1.0890    1.2610 O   0  0  0  0  0  0  0  0  0  0  0  0
   -0.8730    0.2200   -0.9110 C   0  0  2  0  0  0  0  0  0  0  0  0
   -1.7010   -0.4980   -1.8580 O   0  0  0  0  0  0  0  0  0  0  0  0
    0.3820   -0.5840   -0.9170 C   0  0  0  0  0  0  0  0  0  0  0  0
    1.3440   -0.3170    0.0370 O   0  0  0  0  0  0  0  0  0  0  0  0
    2.2290   -1.3930    0.2550 C   0  0  0  0  0  0  0  0  0  0  0  0
    2.1230   -2.4480   -0.2720 O   0  0  0  0  0  0  0  0  0  0  0  0
    3.3730   -1.1350    1.2260 C   0  0  0  0  0  0  0  0  0  0  0  0
    3.1420    0.1660    1.6670 O   0  0  0  0  0  0  0  0  0  0  0  0
    4.0490    0.9950    1.3420 O   0  0  0  0  0  0  0  0  0  0  0  0
   -0.8570    1.5930   -1.4400 C   0  0  0  0  0  0  0  0  0  0  0  0
   -0.2000    2.5200   -0.8880 O   0  0  0  0  0  0  0  0  0  0  0  0
   -1.5930    1.9560   -2.5740 O   0  0  0  0  0  0  0  0  0  0  0  0
   -1.6420    3.1920   -3.0660 O   0  0  0  0  0  0  0  0  0  0  0  0
  1  2  1  0
  2  3  1  0
  3  4  2  0
  3  5  1  0
  5  6  1  6
  5  7  1  0
  5 14  1  0
  7  8  1  0
  8  9  1  0
  9 10  2  0
  9 11  1  0
 11 12  1  0
 12 13  1  0
 14 15  2  0
 14 16  1  0
 16 17  1  0
M  END
