
     RDKit          3D

 17 16  0  0  0  0  0  0  0  0999 V2000
   -1.7040   -1.2890   -1.1650 N   0  0  0  0  0  0  0  0  0  0  0  0
   -1.9870   -1.2150    0.5740 P   0  0  1  0  0  0  0  0  0  0  0  0
   -2.2360   -2.6220    1.0620 O   0  0  0  0  0  0  0  0  0  0  0  0
   -0.5640   -0.6180    1.3920 N   0  0  0  0  0  0  0  0  0  0  0  0
    0.3660   -0.0010    0.4610 C   0  0  0  0  0  0  0  0  0  0  0  0
    1.5410    0.4680    1.2880 C   0  0  0  0  0  0  0  0  0  0  0  0
    2.5950    1.1440    0.4480 C   0  0  0  0  0  0  0  0  0  0  0  0
    3.1050    0.1830   -0.5770 C   0  0  2  0  0  0  0  0  0  0  0  0
    3.6940   -1.0010    0.0090 N   0  0  0  0  0  0  0  0  0  0  0  0
    4.1650    0.8990   -1.3780 C   0  0  0  0  0  0  0  0  0  0  0  0
    5.3210    0.4140   -1.4270 O   0  0  0  0  0  0  0  0  0  0  0  0
    3.9130    2.0660   -2.0600 O   0  0  0  0  0  0  0  0  0  0  0  0
   -3.3450   -0.2080    0.9560 N   0  0  0  0  0  0  0  0  0  0  0  0
   -4.6130   -0.3490   -0.0580 S   0  0  1  0  0  0  0  0  0  0  0  0
   -5.7800   -1.2270    0.3660 O   0  0  0  0  0  0  0  0  0  0  0  0
   -5.3580    1.3600    0.3150 O   0  0  0  0  0  0  0  0  0  0  0  0
   -4.2640   -0.1590   -1.5700 O   0  0  0  0  0  0  0  0  0  0  0  0
  2  1  1  6
  2  3  2  0
  2  4  1  0
  2 13  1  0
  4  5  1  0
  5  6  1  0
  6  7  1  0
  7  8  1  0
  8  9  1  1
  8 10  1  0
 10 11  2  0
 10 12  1  0
 13 14  1  0
 14 15  1  6
 14 16  1  0
 14 17  1  0
M  CHG  1   9   1
M  END
