
     RDKit          3D

 10 10  0  0  0  0  0  0  0  0999 V2000
    3.7900    0.5690    0.3400 O   0  0  0  0  0  0  0  0  0  0  0  0
    3.3400   -0.5780   -0.1450 O   0  0  0  0  0  0  0  0  0  0  0  0
    2.3080   -0.9940    0.5600 O   0  0  0  0  0  0  0  0  0  0  0  0
    1.3270   -0.1340    0.5900 O   0  0  0  0  0  0  0  0  0  0  0  0
    0.1810   -0.7100    0.0420 C   0  0  2  0  0  0  0  0  0  0  0  0
   -0.2420    0.1190   -1.1240 C   0  0  0  0  0  0  0  0  0  0  0  0
   -1.0670    1.1600   -0.8600 O   0  0  0  0  0  0  0  0  0  0  0  0
   -1.8830    1.0440    0.2290 C   0  0  0  0  0  0  0  0  0  0  0  0
   -2.0030   -0.4370    0.5370 C   0  0  0  0  0  0  0  0  0  0  0  0
   -0.7520   -0.7920    1.0590 O   0  0  0  0  0  0  0  0  0  0  0  0
  1  2  1  0
  2  3  1  0
  3  4  1  0
  5  4  1  1
  5  6  1  0
  5 10  1  0
  6  7  1  0
  7  8  1  0
  8  9  1  0
  9 10  1  0
M  END
