
     RDKit          3D

 10 10  0  0  0  0  0  0  0  0999 V2000
    2.7540    0.4840    0.7690 O   0  0  0  0  0  0  0  0  0  0  0  0
    2.4070   -0.4430   -0.1170 O   0  0  0  0  0  0  0  0  0  0  0  0
    1.4140   -1.1870    0.3200 O   0  0  0  0  0  0  0  0  0  0  0  0
    0.2210   -0.6820   -0.1600 C   0  0  2  0  0  0  0  0  0  0  0  0
    0.1950   -0.6780   -1.5400 O   0  0  0  0  0  0  0  0  0  0  0  0
   -0.0320    0.7420    0.3050 C   0  0  0  0  0  0  0  0  0  0  0  0
   -1.4110    1.1120   -0.2430 C   0  0  0  0  0  0  0  0  0  0  0  0
   -2.0270    0.0220   -0.8370 O   0  0  0  0  0  0  0  0  0  0  0  0
   -2.1290   -1.0160   -0.0720 O   0  0  0  0  0  0  0  0  0  0  0  0
   -0.9410   -1.4900    0.4210 C   0  0  0  0  0  0  0  0  0  0  0  0
  1  2  1  0
  2  3  1  0
  3  4  1  0
  4  5  1  6
  4  6  1  0
  4 10  1  0
  6  7  1  0
  7  8  1  0
  8  9  1  0
  9 10  1  0
M  END
