
     RDKit          3D

 10  9  0  0  0  0  0  0  0  0999 V2000
    2.9710   -0.1740    0.1060 C   0  0  0  0  0  0  0  0  0  0  0  0
    2.0910   -0.7380   -0.8300 O   0  0  0  0  0  0  0  0  0  0  0  0
    0.8280   -0.6440   -0.3970 O   0  0  0  0  0  0  0  0  0  0  0  0
   -0.1010    0.0950   -1.1170 C   0  0  0  0  0  0  0  0  0  0  0  0
    0.3040    0.6510   -2.1620 O   0  0  0  0  0  0  0  0  0  0  0  0
   -1.5140    0.2140   -0.6550 C   0  0  2  0  0  0  0  0  0  0  0  0
   -2.1870    1.0020   -1.5670 O   0  0  0  0  0  0  0  0  0  0  0  0
   -1.4920    0.7320    0.6390 O   0  0  0  0  0  0  0  0  0  0  0  0
   -1.9480   -0.0030    1.7210 C   0  0  0  0  0  0  0  0  0  0  0  0
   -2.3780   -1.1560    1.4610 O   0  0  0  0  0  0  0  0  0  0  0  0
  1  2  1  0
  2  3  1  0
  3  4  1  0
  4  5  2  0
  4  6  1  0
  6  7  1  6
  6  8  1  0
  8  9  1  0
  9 10  2  0
M  END
