
     RDKit          3D

 10  9  0  0  0  0  0  0  0  0999 V2000
   -3.3960    0.6510    1.7420 O   0  0  0  0  0  0  0  0  0  0  0  0
   -3.1830    0.2830    0.4180 C   0  0  0  0  0  0  0  0  0  0  0  0
   -1.7260    0.3130    0.0420 C   0  0  0  0  0  0  0  0  0  0  0  0
   -0.9630   -0.5480    0.8160 O   0  0  0  0  0  0  0  0  0  0  0  0
    0.2940   -0.5530    0.5270 O   0  0  0  0  0  0  0  0  0  0  0  0
    0.5460   -0.3190   -0.8280 C   0  0  0  0  0  0  0  0  0  0  0  0
    1.9210   -0.3360   -1.0900 O   0  0  0  0  0  0  0  0  0  0  0  0
    2.5670    0.6600   -0.3380 C   0  0  0  0  0  0  0  0  0  0  0  0
    3.9270    0.5920   -0.6420 O   0  0  0  0  0  0  0  0  0  0  0  0
    4.3160   -0.6370   -0.2930 O   0  0  0  0  0  0  0  0  0  0  0  0
  1  2  1  0
  2  3  1  0
  3  4  1  0
  4  5  1  0
  5  6  1  0
  6  7  1  0
  7  8  1  0
  8  9  1  0
  9 10  1  0
M  END
