
     RDKit          3D

 10 10  0  0  0  0  0  0  0  0999 V2000
    1.6300    2.2080   -0.3110 O   0  0  0  0  0  0  0  0  0  0  0  0
    0.6350    1.4520   -0.1970 C   0  0  0  0  0  0  0  0  0  0  0  0
   -0.6100    2.0580   -0.0910 O   0  0  0  0  0  0  0  0  0  0  0  0
   -1.8100    1.4370   -0.0110 O   0  0  0  0  0  0  0  0  0  0  0  0
   -1.6750    0.1770    0.5670 C   0  0  0  0  0  0  0  0  0  0  0  0
   -1.2450   -0.8500   -0.4420 C   0  0  0  0  0  0  0  0  0  0  0  0
   -0.0410   -0.5930   -1.0370 O   0  0  0  0  0  0  0  0  0  0  0  0
    0.9050   -0.0280   -0.1890 C   0  0  1  0  0  0  0  0  0  0  0  0
    2.1960   -0.2940   -0.5870 O   0  0  0  0  0  0  0  0  0  0  0  0
    2.8160   -0.9520    0.3430 O   0  0  0  0  0  0  0  0  0  0  0  0
  1  2  2  0
  2  3  1  0
  2  8  1  0
  3  4  1  0
  4  5  1  0
  5  6  1  0
  6  7  1  0
  7  8  1  0
  8  9  1  6
  9 10  1  0
M  END
