
     RDKit          3D

 10 10  0  0  0  0  0  0  0  0999 V2000
   -1.3180   -1.8190   -1.1700 O   0  0  0  0  0  0  0  0  0  0  0  0
   -1.4760   -0.7500   -0.5590 C   0  0  0  0  0  0  0  0  0  0  0  0
   -2.5590    0.1270   -0.7610 O   0  0  0  0  0  0  0  0  0  0  0  0
   -2.2260    1.3700   -0.3090 O   0  0  0  0  0  0  0  0  0  0  0  0
   -0.9140    1.3460    0.2040 C   0  0  0  0  0  0  0  0  0  0  0  0
   -0.1360    2.3170    0.3830 O   0  0  0  0  0  0  0  0  0  0  0  0
   -0.6640   -0.0960    0.4860 C   0  0  2  0  0  0  0  0  0  0  0  0
    0.7900   -0.4510    0.4150 C   0  0  0  0  0  0  0  0  0  0  0  0
    1.3920   -0.1040   -0.7780 O   0  0  0  0  0  0  0  0  0  0  0  0
    2.6620   -0.4780   -0.6880 O   0  0  0  0  0  0  0  0  0  0  0  0
  1  2  2  0
  2  3  1  0
  2  7  1  0
  3  4  1  0
  4  5  1  0
  5  6  2  0
  5  7  1  0
  7  8  1  6
  8  9  1  0
  9 10  1  0
M  END
