
     RDKit          3D

 10 10  0  0  0  0  0  0  0  0999 V2000
    3.8830    0.6630   -0.3240 O   0  0  0  0  0  0  0  0  0  0  0  0
    2.6960    0.2410   -0.7020 O   0  0  0  0  0  0  0  0  0  0  0  0
    1.9720   -0.1670    0.3190 O   0  0  0  0  0  0  0  0  0  0  0  0
    0.6330   -0.1960   -0.0460 C   0  0  1  0  0  0  0  0  0  0  0  0
    0.0050   -1.5490    0.1780 C   0  0  0  0  0  0  0  0  0  0  0  0
   -1.2160   -1.4370    0.8650 O   0  0  0  0  0  0  0  0  0  0  0  0
   -2.0680   -0.9170    0.0100 O   0  0  0  0  0  0  0  0  0  0  0  0
   -2.3470    0.4100    0.2890 C   0  0  0  0  0  0  0  0  0  0  0  0
   -1.1060    1.2870    0.1420 C   0  0  0  0  0  0  0  0  0  0  0  0
   -0.0310    0.7010    0.8120 O   0  0  0  0  0  0  0  0  0  0  0  0
  1  2  1  0
  2  3  1  0
  4  3  1  1
  4  5  1  0
  4 10  1  0
  5  6  1  0
  6  7  1  0
  7  8  1  0
  8  9  1  0
  9 10  1  0
M  END
