
     RDKit          3D

 24 26  0  0  0  0  0  0  0  0999 V2000
    7.2340   -0.3580   -1.1410 C   0  0  0  0  0  0  0  0  0  0  0  0
    6.0680   -0.4320   -0.1220 C   0  0  0  0  0  0  0  0  0  0  0  0
    5.8600    0.9110    0.4720 C   0  0  0  0  0  0  0  0  0  0  0  0
    4.8240    1.0440    1.5170 C   0  0  0  0  0  0  0  0  0  0  0  0
    3.4550    0.6520    1.1470 C   0  0  0  0  0  0  0  0  0  0  0  0
    2.4460    1.5240    1.0700 C   0  0  0  0  0  0  0  0  0  0  0  0
    1.2160    0.8440    0.6910 C   0  0  0  0  0  0  0  0  0  0  0  0
    0.0310    1.4160    0.5160 C   0  0  0  0  0  0  0  0  0  0  0  0
   -1.1670    0.6830    0.1380 C   0  0  0  0  0  0  0  0  0  0  0  0
   -1.3020   -0.5290   -0.2950 O   0  0  0  0  0  0  0  0  0  0  0  0
   -2.5670   -0.8310   -0.5350 C   0  0  0  0  0  0  0  0  0  0  0  0
   -3.3010    0.2940   -0.2260 C   0  0  0  0  0  0  0  0  0  0  0  0
   -2.4380    1.2680    0.2040 C   0  0  0  0  0  0  0  0  0  0  0  0
   -2.7430    2.5700    0.6220 O   0  0  0  0  0  0  0  0  0  0  0  0
   -4.7570    0.1980   -0.4270 C   0  0  1  0  0  0  0  0  0  0  0  0
   -5.5520    1.3480    0.0670 C   0  0  0  0  0  0  0  0  0  0  0  0
   -4.9480    0.1450   -1.8250 O   0  0  0  0  0  0  0  0  0  0  0  0
   -5.2150   -1.0850    0.2260 C   0  0  0  0  0  0  0  0  0  0  0  0
   -4.5510   -2.3080   -0.2970 C   0  0  0  0  0  0  0  0  0  0  0  0
   -3.2590   -2.0750   -1.0370 C   0  0  1  0  0  0  0  0  0  0  0  0
   -3.5040   -1.9840   -2.3840 O   0  0  0  0  0  0  0  0  0  0  0  0
    1.5540   -0.4870    0.5540 O   0  0  0  0  0  0  0  0  0  0  0  0
    2.9150   -0.6520    0.8260 C   0  0  0  0  0  0  0  0  0  0  0  0
    3.4760   -1.7690    0.7790 O   0  0  0  0  0  0  0  0  0  0  0  0
  1  2  1  0
  2  3  1  0
  3  4  1  0
  4  5  1  0
  5  6  2  0
  5 23  1  0
  6  7  1  0
  7  8  2  3
  7 22  1  0
  8  9  1  0
  9 10  1  0
  9 13  2  0
 10 11  1  0
 11 12  2  0
 11 20  1  0
 12 13  1  0
 12 15  1  0
 13 14  1  0
 15 16  1  1
 15 17  1  0
 15 18  1  0
 18 19  1  0
 19 20  1  0
 20 21  1  6
 22 23  1  0
 23 24  2  0
M  END
