
     RDKit          3D

 24 26  0  0  0  0  0  0  0  0999 V2000
    5.4000   -1.7250    0.6500 C   0  0  0  0  0  0  0  0  0  0  0  0
    5.0830   -0.2790    0.9530 C   0  0  0  0  0  0  0  0  0  0  0  0
    3.7790    0.0230    0.4280 O   0  0  0  0  0  0  0  0  0  0  0  0
    2.6690   -0.7110    0.9070 C   0  0  0  0  0  0  0  0  0  0  0  0
    2.8750   -1.5700    1.7490 O   0  0  0  0  0  0  0  0  0  0  0  0
    1.3710   -0.3410    0.3200 C   0  0  0  0  0  0  0  0  0  0  0  0
    0.1590   -0.8790    0.6150 C   0  0  0  0  0  0  0  0  0  0  0  0
    0.0620   -1.9430    1.6180 C   0  0  0  0  0  0  0  0  0  0  0  0
   -0.9140   -0.1890   -0.1070 C   0  0  0  0  0  0  0  0  0  0  0  0
   -2.3780   -0.2730    0.0150 C   0  0  0  0  0  0  0  0  0  0  0  0
   -3.0610   -1.2550    0.5330 C   0  0  0  0  0  0  0  0  0  0  0  0
   -2.4240   -2.3820    1.0320 O   0  0  0  0  0  0  0  0  0  0  0  0
   -4.5760   -1.2910    0.6570 C   0  0  2  0  0  0  0  0  0  0  0  0
   -4.9800   -2.6100    0.5130 O   0  0  0  0  0  0  0  0  0  0  0  0
   -5.2090   -0.4440   -0.3960 C   0  0  0  0  0  0  0  0  0  0  0  0
   -4.6370    0.8610   -0.1750 O   0  0  0  0  0  0  0  0  0  0  0  0
   -3.2300    0.8810   -0.3650 C   0  0  0  0  0  0  0  0  0  0  0  0
   -2.7460    1.8930   -0.8440 O   0  0  0  0  0  0  0  0  0  0  0  0
   -0.3290    0.7590   -0.8220 C   0  0  0  0  0  0  0  0  0  0  0  0
   -0.4230    1.8920   -1.7780 C   0  0  0  0  0  0  0  0  0  0  0  0
    0.5890    2.7360   -1.4750 C   0  0  0  0  0  0  0  0  0  0  0  0
    0.8590    3.9920   -2.1700 C   0  0  0  0  0  0  0  0  0  0  0  0
    1.4200    2.1070   -0.3690 C   0  0  0  0  0  0  0  0  0  0  0  0
    1.1670    0.6320   -0.6820 C   0  0  1  0  0  0  0  0  0  0  0  0
  1  2  1  0
  2  3  1  0
  3  4  1  0
  4  5  2  0
  4  6  1  0
  6  7  2  0
  6 24  1  0
  7  8  1  0
  7  9  1  0
  9 10  1  0
  9 19  2  0
 10 11  2  0
 10 17  1  0
 11 12  1  0
 11 13  1  0
 13 14  1  6
 13 15  1  0
 15 16  1  0
 16 17  1  0
 17 18  2  0
 19 20  1  0
 19 24  1  0
 20 21  2  0
 21 22  1  0
 21 23  1  0
 24 23  1  1
M  END
