
     RDKit          3D

 24 26  0  0  0  0  0  0  0  0999 V2000
   -4.2790   -2.6860   -1.5230 C   0  0  0  0  0  0  0  0  0  0  0  0
   -3.8940   -1.4200   -0.8460 C   0  0  0  0  0  0  0  0  0  0  0  0
   -4.8200   -0.7600   -0.3830 O   0  0  0  0  0  0  0  0  0  0  0  0
   -2.5090   -1.0410   -0.7680 C   0  0  0  0  0  0  0  0  0  0  0  0
   -1.5210   -1.8630   -1.3250 C   0  0  0  0  0  0  0  0  0  0  0  0
   -1.9280   -3.0160   -1.9400 O   0  0  0  0  0  0  0  0  0  0  0  0
   -0.1780   -1.5900   -1.2960 C   0  0  0  0  0  0  0  0  0  0  0  0
    0.7780   -2.4230   -1.8570 O   0  0  0  0  0  0  0  0  0  0  0  0
    0.1830   -0.4110   -0.6620 C   0  0  0  0  0  0  0  0  0  0  0  0
    1.5580   -0.1290   -0.6300 O   0  0  0  0  0  0  0  0  0  0  0  0
    2.3170   -0.6310    0.4590 C   0  0  0  0  0  0  0  0  0  0  0  0
    3.7350   -0.2340    0.3290 C   0  0  0  0  0  0  0  0  0  0  0  0
    4.7550   -1.0520    0.2390 C   0  0  0  0  0  0  0  0  0  0  0  0
    5.9960   -0.2540    0.1230 C   0  0  0  0  0  0  0  0  0  0  0  0
    5.5470    1.1560    0.1570 C   0  0  0  0  0  0  0  0  0  0  0  0
    4.2340    1.1250    0.2770 C   0  0  0  0  0  0  0  0  0  0  0  0
   -0.7360    0.4000   -0.1180 C   0  0  0  0  0  0  0  0  0  0  0  0
   -2.1230    0.1040   -0.1560 C   0  0  0  0  0  0  0  0  0  0  0  0
   -2.9180    1.1350    0.5040 C   0  0  1  0  0  0  0  0  0  0  0  0
   -4.2500    1.1240    0.5360 O   0  0  0  0  0  0  0  0  0  0  0  0
   -2.3670    1.2030    1.8270 O   0  0  0  0  0  0  0  0  0  0  0  0
   -1.1730    1.9100    1.8040 C   0  0  2  0  0  0  0  0  0  0  0  0
   -1.5040    3.3760    1.9870 C   0  0  0  0  0  0  0  0  0  0  0  0
   -0.3750    1.6700    0.5590 C   0  0  0  0  0  0  0  0  0  0  0  0
  1  2  1  0
  2  3  2  0
  2  4  1  0
  4  5  2  0
  4 18  1  0
  5  6  1  0
  5  7  1  0
  7  8  1  0
  7  9  2  0
  9 10  1  0
  9 17  1  0
 10 11  1  0
 11 12  1  0
 12 13  2  0
 12 16  1  0
 13 14  1  0
 14 15  1  0
 15 16  2  0
 17 18  2  0
 17 24  1  0
 18 19  1  0
 19 20  1  1
 19 21  1  0
 21 22  1  0
 22 23  1  6
 22 24  1  0
M  END
