
     RDKit          3D

 24 26  0  0  0  0  0  0  0  0999 V2000
   -3.1460    4.0710   -0.0830 O   0  0  0  0  0  0  0  0  0  0  0  0
   -2.2780    2.9620    0.1820 C   0  0  0  0  0  0  0  0  0  0  0  0
   -2.7020    1.8010   -0.6320 C   0  0  0  0  0  0  0  0  0  0  0  0
   -1.9950    0.5150   -0.4900 C   0  0  1  0  0  0  0  0  0  0  0  0
   -0.5530    0.5270   -0.8040 C   0  0  0  0  0  0  0  0  0  0  0  0
   -0.0140   -0.0580   -1.8900 C   0  0  0  0  0  0  0  0  0  0  0  0
    1.4150    0.1210   -1.9230 C   0  0  0  0  0  0  0  0  0  0  0  0
    1.7860    0.8060   -0.8840 C   0  0  0  0  0  0  0  0  0  0  0  0
    3.1030    1.1800   -0.5680 O   0  0  0  0  0  0  0  0  0  0  0  0
    4.0110    0.1930   -0.1940 C   0  0  0  0  0  0  0  0  0  0  0  0
    3.6480   -1.1310   -0.1280 C   0  0  0  0  0  0  0  0  0  0  0  0
    4.5590   -2.0910    0.2430 C   0  0  0  0  0  0  0  0  0  0  0  0
    5.8370   -1.7150    0.5480 C   0  0  0  0  0  0  0  0  0  0  0  0
    6.2290   -0.3900    0.4900 C   0  0  0  0  0  0  0  0  0  0  0  0
    5.3020    0.5620    0.1150 C   0  0  0  0  0  0  0  0  0  0  0  0
    5.6620    1.8940    0.0470 O   0  0  0  0  0  0  0  0  0  0  0  0
    0.5760    1.1400   -0.0660 C   0  0  0  0  0  0  0  0  0  0  0  0
   -2.2260   -0.0830    0.9150 C   0  0  0  0  0  0  0  0  0  0  0  0
   -2.8640   -1.4120    0.5870 C   0  0  1  0  0  0  0  0  0  0  0  0
   -2.4510   -2.4180    1.4540 O   0  0  0  0  0  0  0  0  0  0  0  0
   -4.3560   -1.3440    0.4480 C   0  0  0  0  0  0  0  0  0  0  0  0
   -4.7670   -2.5970   -0.0520 O   0  0  0  0  0  0  0  0  0  0  0  0
   -2.3030   -1.6280   -0.8150 C   0  0  0  0  0  0  0  0  0  0  0  0
   -2.6320   -0.3950   -1.3690 O   0  0  0  0  0  0  0  0  0  0  0  0
  1  2  1  0
  2  3  1  0
  4  3  1  1
  4  5  1  0
  4 18  1  0
  4 24  1  0
  5  6  2  0
  5 17  1  0
  6  7  1  0
  7  8  2  0
  8  9  1  0
  8 17  1  0
  9 10  1  0
 10 11  2  0
 10 15  1  0
 11 12  1  0
 12 13  2  0
 13 14  1  0
 14 15  2  0
 15 16  1  0
 18 19  1  0
 19 20  1  1
 19 21  1  0
 19 23  1  0
 21 22  1  0
 23 24  1  0
M  END
