
     RDKit          3D

 24 26  0  0  0  0  0  0  0  0999 V2000
   -5.0800   -0.3120    2.0120 O   0  0  0  0  0  0  0  0  0  0  0  0
   -4.7110   -0.1610    0.6560 C   0  0  1  0  0  0  0  0  0  0  0  0
   -3.2230   -0.0970    0.5160 C   0  0  2  0  0  0  0  0  0  0  0  0
   -2.6950   -1.2920    1.0040 O   0  0  0  0  0  0  0  0  0  0  0  0
   -2.6000    1.0080    1.3300 C   0  0  0  0  0  0  0  0  0  0  0  0
   -1.4130    1.6260    0.6600 C   0  0  0  0  0  0  0  0  0  0  0  0
   -0.5160    0.6260   -0.0250 C   0  0  1  0  0  0  0  0  0  0  0  0
    0.3170   -0.0220    0.8770 O   0  0  0  0  0  0  0  0  0  0  0  0
    1.6640    0.2230    0.6560 C   0  0  0  0  0  0  0  0  0  0  0  0
    2.1750   -0.2350   -0.6680 C   0  0  0  0  0  0  0  0  0  0  0  0
    3.5140    0.0170   -0.8800 O   0  0  0  0  0  0  0  0  0  0  0  0
    4.3550   -0.5830    0.0190 C   0  0  0  0  0  0  0  0  0  0  0  0
    5.7840   -0.2510   -0.3300 C   0  0  0  0  0  0  0  0  0  0  0  0
    6.5640    0.3790    0.5070 C   0  0  0  0  0  0  0  0  0  0  0  0
    7.9700    0.7200    0.1970 C   0  0  0  0  0  0  0  0  0  0  0  0
    8.3540    0.2950   -1.0710 O   0  0  0  0  0  0  0  0  0  0  0  0
    7.5240   -0.3620   -1.9330 C   0  0  0  0  0  0  0  0  0  0  0  0
    6.2630   -0.6580   -1.6350 C   0  0  0  0  0  0  0  0  0  0  0  0
   -1.2670   -0.3540   -0.9010 C   0  0  0  0  0  0  0  0  0  0  0  0
   -2.7360    0.0740   -0.9000 C   0  0  0  0  0  0  0  0  0  0  0  0
   -5.3270   -1.3510   -0.0470 C   0  0  0  0  0  0  0  0  0  0  0  0
   -6.7820   -0.8670   -0.1200 C   0  0  0  0  0  0  0  0  0  0  0  0
   -6.7420    0.4940   -0.2320 O   0  0  0  0  0  0  0  0  0  0  0  0
   -5.4620    0.9510   -0.0080 C   0  0  0  0  0  0  0  0  0  0  0  0
  2  1  1  1
  2  3  1  0
  2 21  1  0
  2 24  1  0
  3  4  1  1
  3  5  1  0
  3 20  1  0
  5  6  1  0
  6  7  1  0
  7  8  1  1
  7 19  1  0
  8  9  1  0
  9 10  1  0
 10 11  1  0
 11 12  1  0
 12 13  1  0
 13 14  2  0
 13 18  1  0
 14 15  1  0
 15 16  1  0
 16 17  1  0
 17 18  2  0
 19 20  1  0
 21 22  1  0
 22 23  1  0
 23 24  1  0
M  END
