
     RDKit          3D

 19 21  0  0  0  0  0  0  0  0999 V2000
   -1.0890   -0.3990   -2.3610 O   0  0  0  0  0  0  0  0  0  0  0  0
   -1.3810    0.4890   -1.3300 C   0  0  1  0  0  0  0  0  0  0  0  0
   -2.8780    0.5360   -1.0320 C   0  0  0  0  0  0  0  0  0  0  0  0
   -3.3990   -0.7200   -0.6410 N   0  0  0  0  0  0  0  0  0  0  0  0
   -4.5240   -0.6640    0.2540 C   0  0  1  0  0  0  0  0  0  0  0  0
   -4.7180    0.3540    1.2680 C   0  0  0  0  0  0  0  0  0  0  0  0
   -5.6120    0.3520    0.0440 C   0  0  0  0  0  0  0  0  0  0  0  0
   -0.5770    0.1270   -0.1080 C   0  0  0  0  0  0  0  0  0  0  0  0
    0.7960    0.2210   -0.4940 O   0  0  0  0  0  0  0  0  0  0  0  0
    1.8270   -0.0470    0.3910 C   0  0  0  0  0  0  0  0  0  0  0  0
    1.6570   -0.4210    1.6930 C   0  0  0  0  0  0  0  0  0  0  0  0
    2.7470   -0.6670    2.4990 C   0  0  0  0  0  0  0  0  0  0  0  0
    4.0470   -0.5500    2.0380 C   0  0  0  0  0  0  0  0  0  0  0  0
    4.2200   -0.1710    0.7180 C   0  0  0  0  0  0  0  0  0  0  0  0
    5.5070   -0.0550    0.2610 C   0  0  0  0  0  0  0  0  0  0  0  0
    5.7400    0.3190   -1.0470 C   0  0  0  0  0  0  0  0  0  0  0  0
    4.6770    0.5690   -1.8650 C   0  0  0  0  0  0  0  0  0  0  0  0
    3.3810    0.4470   -1.3870 C   0  0  0  0  0  0  0  0  0  0  0  0
    3.1130    0.0760   -0.0910 C   0  0  0  0  0  0  0  0  0  0  0  0
  2  1  1  6
  2  3  1  0
  2  8  1  0
  3  4  1  0
  5  4  1  6
  5  6  1  0
  5  7  1  0
  6  7  1  0
  8  9  1  0
  9 10  1  0
 10 11  2  0
 10 19  1  0
 11 12  1  0
 12 13  2  0
 13 14  1  0
 14 15  2  0
 14 19  1  0
 15 16  1  0
 16 17  2  0
 17 18  1  0
 18 19  2  0
M  CHG  1   4   1
M  END
