
     RDKit          3D

 24 26  0  0  0  0  0  0  0  0999 V2000
   -4.8520    2.7420    0.4550 C   0  0  0  0  0  0  0  0  0  0  0  0
   -3.8780    1.8060   -0.2160 C   0  0  0  0  0  0  0  0  0  0  0  0
   -2.7130    1.4840    0.7020 C   0  0  0  0  0  0  0  0  0  0  0  0
   -1.7400    0.5390    0.0280 C   0  0  2  0  0  0  0  0  0  0  0  0
   -2.5150   -0.6970   -0.2980 C   0  0  0  0  0  0  0  0  0  0  0  0
   -1.7540   -1.9630   -0.1050 C   0  0  1  0  0  0  0  0  0  0  0  0
   -2.3520   -3.1340   -0.8370 C   0  0  0  0  0  0  0  0  0  0  0  0
   -1.6000   -4.2880   -0.6200 O   0  0  0  0  0  0  0  0  0  0  0  0
   -0.3400   -1.6590   -0.6340 C   0  0  1  0  0  0  0  0  0  0  0  0
   -0.4120   -1.0860   -1.8460 O   0  0  0  0  0  0  0  0  0  0  0  0
    0.2900   -0.8760    0.4890 C   0  0  1  0  0  0  0  0  0  0  0  0
    1.7430   -0.6020    0.2970 C   0  0  2  0  0  0  0  0  0  0  0  0
    2.2250    0.0950    1.4450 O   0  0  0  0  0  0  0  0  0  0  0  0
    2.0730    0.2920   -0.8220 C   0  0  0  0  0  0  0  0  0  0  0  0
    3.2950    0.7730   -0.9870 C   0  0  0  0  0  0  0  0  0  0  0  0
    4.5070    0.5380   -0.1590 C   0  0  0  0  0  0  0  0  0  0  0  0
    4.9700   -0.7050    0.2370 C   0  0  0  0  0  0  0  0  0  0  0  0
    6.1270   -0.5140    1.0060 C   0  0  0  0  0  0  0  0  0  0  0  0
    6.3000    0.8460    1.0300 C   0  0  0  0  0  0  0  0  0  0  0  0
    5.3390    1.4110    0.3430 O   0  0  0  0  0  0  0  0  0  0  0  0
    3.3260    1.5890   -2.1130 O   0  0  0  0  0  0  0  0  0  0  0  0
    1.9980    1.8600   -2.4830 C   0  0  0  0  0  0  0  0  0  0  0  0
    1.3270    0.8050   -1.8620 O   0  0  0  0  0  0  0  0  0  0  0  0
   -0.5210    0.3400    0.8600 C   0  0  0  0  0  0  0  0  0  0  0  0
  1  2  1  0
  2  3  1  0
  4  3  1  1
  4  5  1  0
  4 24  1  0
  5  6  1  0
  6  7  1  6
  6  9  1  0
  7  8  1  0
  9 10  1  6
  9 11  1  0
 11 12  1  0
 11 24  1  6
 12 13  1  1
 12 14  1  0
 14 15  2  0
 14 23  1  0
 15 16  1  0
 15 21  1  0
 16 17  2  0
 16 20  1  0
 17 18  1  0
 18 19  2  0
 19 20  1  0
 21 22  1  0
 22 23  1  0
M  END
