
     RDKit          3D

 22 23  0  0  0  0  0  0  0  0999 V2000
    0.5890   -1.9350   -0.5540 C   0  0  0  0  0  0  0  0  0  0  0  0
    0.1370   -0.8900    0.4200 C   0  0  1  0  0  0  0  0  0  0  0  0
    0.1890   -1.4630    1.7110 O   0  0  0  0  0  0  0  0  0  0  0  0
    1.1100    0.2390    0.4360 C   0  0  2  0  0  0  0  0  0  0  0  0
    1.1430    0.8500   -0.7770 O   0  0  0  0  0  0  0  0  0  0  0  0
    2.0980    1.8710   -0.8280 C   0  0  0  0  0  0  0  0  0  0  0  0
    3.4350    1.1760   -0.7080 C   0  0  1  0  0  0  0  0  0  0  0  0
    4.4900    2.1050   -0.7000 O   0  0  0  0  0  0  0  0  0  0  0  0
    3.4420    0.3340    0.5070 C   0  0  1  0  0  0  0  0  0  0  0  0
    4.4280   -0.6660    0.3270 O   0  0  0  0  0  0  0  0  0  0  0  0
    3.9380    1.1250    1.5710 O   0  0  0  0  0  0  0  0  0  0  0  0
    2.3080   -0.2510    0.8930 O   0  0  0  0  0  0  0  0  0  0  0  0
   -1.3040   -0.5420    0.1900 C   0  0  2  0  0  0  0  0  0  0  0  0
   -2.0400   -1.8840    0.4160 C   0  0  0  0  0  0  0  0  0  0  0  0
   -1.7920   -2.3300    1.7340 O   0  0  0  0  0  0  0  0  0  0  0  0
   -1.6450   -0.1450   -1.2030 C   0  0  0  0  0  0  0  0  0  0  0  0
   -2.9700    0.5540   -1.2950 C   0  0  1  0  0  0  0  0  0  0  0  0
   -4.0700   -0.2780   -1.1250 O   0  0  0  0  0  0  0  0  0  0  0  0
   -3.0270    1.5970   -0.1980 C   0  0  0  0  0  0  0  0  0  0  0  0
   -3.0940    0.8410    0.9980 O   0  0  0  0  0  0  0  0  0  0  0  0
   -1.8200    0.3840    1.2430 C   0  0  1  0  0  0  0  0  0  0  0  0
   -1.8330   -0.2550    2.4810 O   0  0  0  0  0  0  0  0  0  0  0  0
  2  1  1  6
  2  3  1  0
  2  4  1  0
  2 13  1  0
  4  5  1  6
  4 12  1  0
  5  6  1  0
  6  7  1  0
  7  8  1  1
  7  9  1  0
  9 10  1  6
  9 11  1  0
  9 12  1  0
 13 14  1  1
 13 16  1  0
 13 21  1  0
 14 15  1  0
 16 17  1  0
 17 18  1  1
 17 19  1  0
 19 20  1  0
 20 21  1  0
 21 22  1  1
M  END
