
     RDKit          3D

 22 22  0  0  0  0  0  0  0  0999 V2000
    1.6090    1.1700    0.1780 O   0  0  0  0  0  0  0  0  0  0  0  0
    1.6740   -0.0780    0.2320 C   0  0  0  0  0  0  0  0  0  0  0  0
    2.8420   -0.6470    0.6970 O   0  0  0  0  0  0  0  0  0  0  0  0
    3.9880    0.0360    1.1230 C   0  0  0  0  0  0  0  0  0  0  0  0
    4.5390    0.8630    0.0100 C   0  0  0  0  0  0  0  0  0  0  0  0
    5.6860    1.5580    0.4030 O   0  0  0  0  0  0  0  0  0  0  0  0
    6.7040    0.7310    0.8130 C   0  0  0  0  0  0  0  0  0  0  0  0
    7.1040   -0.1490   -0.2090 O   0  0  0  0  0  0  0  0  0  0  0  0
    0.5250   -0.8840   -0.1930 C   0  0  1  0  0  0  0  0  0  0  0  0
    0.7310   -2.2380   -0.0820 O   0  0  0  0  0  0  0  0  0  0  0  0
   -0.7540   -0.4420    0.5800 C   0  0  0  0  0  0  0  0  0  0  0  0
   -1.7350   -1.1650   -0.2480 C   0  0  1  0  0  0  0  0  0  0  0  0
   -1.3720   -2.5570   -0.1280 O   0  0  0  0  0  0  0  0  0  0  0  0
   -3.1600   -1.0770   -0.0650 C   0  0  0  0  0  0  0  0  0  0  0  0
   -3.9320    0.1630   -0.1550 C   0  0  1  0  0  0  0  0  0  0  0  0
   -5.3080   -0.2260    0.0420 O   0  0  0  0  0  0  0  0  0  0  0  0
   -3.7060    1.0540    1.0700 C   0  0  0  0  0  0  0  0  0  0  0  0
   -4.5600    2.3210    0.8880 C   0  0  0  0  0  0  0  0  0  0  0  0
   -4.1630    2.9750   -0.2690 O   0  0  0  0  0  0  0  0  0  0  0  0
   -1.2060   -0.8220   -1.6470 C   0  0  2  0  0  0  0  0  0  0  0  0
   -1.3380   -1.9390   -2.5000 O   0  0  0  0  0  0  0  0  0  0  0  0
    0.1360   -0.5840   -1.4920 O   0  0  0  0  0  0  0  0  0  0  0  0
  1  2  2  0
  2  3  1  0
  2  9  1  0
  3  4  1  0
  4  5  1  0
  5  6  1  0
  6  7  1  0
  7  8  1  0
  9 10  1  6
  9 11  1  0
  9 22  1  0
 11 12  1  0
 12 13  1  1
 12 14  1  0
 12 20  1  0
 14 15  1  0
 15 16  1  1
 15 17  1  0
 17 18  1  0
 18 19  1  0
 20 21  1  6
 20 22  1  0
M  END
