
     RDKit          3D

 22 22  0  0  0  0  0  0  0  0999 V2000
    4.8780   -0.9050    2.2400 C   0  0  0  0  0  0  0  0  0  0  0  0
    3.8830   -0.4070    1.3710 O   0  0  0  0  0  0  0  0  0  0  0  0
    2.5920   -0.8560    1.4870 C   0  0  0  0  0  0  0  0  0  0  0  0
    2.3880   -1.7250    2.4110 O   0  0  0  0  0  0  0  0  0  0  0  0
    1.4230   -0.4650    0.6850 C   0  0  0  0  0  0  0  0  0  0  0  0
    1.6400    0.5540   -0.3670 C   0  0  2  0  0  0  0  0  0  0  0  0
    2.6660    0.0690   -1.3620 C   0  0  0  0  0  0  0  0  0  0  0  0
    2.1650   -0.9910   -2.0800 O   0  0  0  0  0  0  0  0  0  0  0  0
    2.1700    1.8270    0.3340 C   0  0  0  0  0  0  0  0  0  0  0  0
    2.3750    2.7510   -0.7070 O   0  0  0  0  0  0  0  0  0  0  0  0
    0.4840    0.9840   -0.9850 O   0  0  0  0  0  0  0  0  0  0  0  0
   -0.3080    0.0780   -1.6050 C   0  0  2  0  0  0  0  0  0  0  0  0
   -0.3250    0.3030   -3.0140 O   0  0  0  0  0  0  0  0  0  0  0  0
   -1.7370    0.2870   -1.1760 C   0  0  2  0  0  0  0  0  0  0  0  0
   -2.1370    1.6070   -1.4950 O   0  0  0  0  0  0  0  0  0  0  0  0
   -2.0280    0.0310    0.2590 C   0  0  0  0  0  0  0  0  0  0  0  0
   -3.5080   -0.3790    0.1940 C   0  0  1  0  0  0  0  0  0  0  0  0
   -3.6310   -1.7460    0.4410 O   0  0  0  0  0  0  0  0  0  0  0  0
   -4.3320    0.4440    1.1450 C   0  0  0  0  0  0  0  0  0  0  0  0
   -3.8750    0.1620    2.4360 O   0  0  0  0  0  0  0  0  0  0  0  0
   -3.8470   -0.1410   -1.2510 C   0  0  0  0  0  0  0  0  0  0  0  0
   -2.6430   -0.5180   -1.8950 O   0  0  0  0  0  0  0  0  0  0  0  0
  1  2  1  0
  2  3  1  0
  3  4  2  0
  3  5  1  0
  6  5  1  1
  6  7  1  0
  6  9  1  0
  6 11  1  0
  7  8  1  0
  9 10  1  0
 11 12  1  0
 12 13  1  6
 12 14  1  0
 14 15  1  6
 14 16  1  0
 14 22  1  0
 16 17  1  0
 17 18  1  1
 17 19  1  0
 17 21  1  0
 19 20  1  0
 21 22  1  0
M  END
