
     RDKit          3D

 22 22  0  0  0  0  0  0  0  0999 V2000
    3.1480   -0.8420   -0.8410 O   0  0  0  0  0  0  0  0  0  0  0  0
    3.3350   -0.1810    0.2140 C   0  0  0  0  0  0  0  0  0  0  0  0
    2.2960    0.1050    1.0740 O   0  0  0  0  0  0  0  0  0  0  0  0
    0.9840   -0.3690    0.7420 C   0  0  1  0  0  0  0  0  0  0  0  0
    0.6200   -1.2050    1.7590 O   0  0  0  0  0  0  0  0  0  0  0  0
    0.1340    0.8280    0.4940 C   0  0  0  0  0  0  0  0  0  0  0  0
   -1.2810    0.5440    0.1260 C   0  0  2  0  0  0  0  0  0  0  0  0
   -2.0390   -0.1700    1.1590 C   0  0  0  0  0  0  0  0  0  0  0  0
   -2.1760    0.5790    2.4510 C   0  0  2  0  0  0  0  0  0  0  0  0
   -1.0230    0.8990    3.0960 O   0  0  0  0  0  0  0  0  0  0  0  0
   -3.0340   -0.1320    3.3380 O   0  0  0  0  0  0  0  0  0  0  0  0
   -1.3440   -0.1460   -1.2350 C   0  0  0  0  0  0  0  0  0  0  0  0
   -2.7870   -0.4510   -1.5320 C   0  0  2  0  0  0  0  0  0  0  0  0
   -2.8890   -0.8050   -3.0010 C   0  0  0  0  0  0  0  0  0  0  0  0
   -4.2000   -1.1120   -3.3670 O   0  0  0  0  0  0  0  0  0  0  0  0
   -3.5630    0.6480   -1.1940 O   0  0  0  0  0  0  0  0  0  0  0  0
   -2.8150    1.8120   -1.0720 C   0  0  0  0  0  0  0  0  0  0  0  0
   -1.8960    1.7950   -0.0610 O   0  0  0  0  0  0  0  0  0  0  0  0
    4.7350    0.2600    0.4580 C   0  0  1  0  0  0  0  0  0  0  0  0
    4.8910    0.9760    1.6190 O   0  0  0  0  0  0  0  0  0  0  0  0
    5.6830   -0.9430    0.4280 C   0  0  0  0  0  0  0  0  0  0  0  0
    5.5160   -1.6590   -0.7490 O   0  0  0  0  0  0  0  0  0  0  0  0
  1  2  2  0
  2  3  1  0
  2 19  1  0
  3  4  1  0
  4  5  1  1
  4  6  1  0
  7  6  1  1
  7  8  1  0
  7 12  1  0
  7 18  1  0
  8  9  1  0
  9 10  1  1
  9 11  1  0
 12 13  1  0
 13 14  1  6
 13 16  1  0
 14 15  1  0
 16 17  1  0
 17 18  1  0
 19 20  1  1
 19 21  1  0
 21 22  1  0
M  END
