
     RDKit          3D

 22 22  0  0  0  0  0  0  0  0999 V2000
    2.8570   -0.2390   -2.4010 O   0  0  0  0  0  0  0  0  0  0  0  0
    3.2880   -0.2730   -1.1990 C   0  0  0  0  0  0  0  0  0  0  0  0
    2.3170   -0.4980   -0.2230 O   0  0  0  0  0  0  0  0  0  0  0  0
    0.9320   -0.6740   -0.5960 C   0  0  0  0  0  0  0  0  0  0  0  0
    0.2120   -0.8890    0.7190 C   0  0  2  0  0  0  0  0  0  0  0  0
    0.8490   -2.0450    1.2590 O   0  0  0  0  0  0  0  0  0  0  0  0
   -1.2660   -1.1840    0.5540 C   0  0  1  0  0  0  0  0  0  0  0  0
   -1.3420   -2.2520   -0.3360 O   0  0  0  0  0  0  0  0  0  0  0  0
   -1.6870   -1.7950    1.8900 C   0  0  0  0  0  0  0  0  0  0  0  0
   -2.9570   -2.3510    1.8560 O   0  0  0  0  0  0  0  0  0  0  0  0
   -2.0950   -0.0350    0.1130 C   0  0  1  0  0  0  0  0  0  0  0  0
   -3.5630   -0.3760   -0.0580 C   0  0  0  0  0  0  0  0  0  0  0  0
   -4.2620    0.7690   -0.5170 O   0  0  0  0  0  0  0  0  0  0  0  0
   -2.0650    1.1220    1.0960 C   0  0  0  0  0  0  0  0  0  0  0  0
   -2.9270    2.0980    0.5970 O   0  0  0  0  0  0  0  0  0  0  0  0
   -2.2740    2.6520   -0.5020 C   0  0  0  0  0  0  0  0  0  0  0  0
   -1.9540    1.6270   -1.5390 C   0  0  0  0  0  0  0  0  0  0  0  0
   -1.6670    0.3790   -1.1190 O   0  0  0  0  0  0  0  0  0  0  0  0
    4.7190   -0.0860   -0.8710 C   0  0  1  0  0  0  0  0  0  0  0  0
    5.4020    0.1140   -2.0750 O   0  0  0  0  0  0  0  0  0  0  0  0
    4.9420    1.0960    0.0450 C   0  0  0  0  0  0  0  0  0  0  0  0
    4.4880    2.2900   -0.5130 O   0  0  0  0  0  0  0  0  0  0  0  0
  1  2  2  0
  2  3  1  0
  2 19  1  0
  3  4  1  0
  4  5  1  0
  5  6  1  6
  5  7  1  0
  7  8  1  6
  7  9  1  0
  7 11  1  0
  9 10  1  0
 11 12  1  6
 11 14  1  0
 11 18  1  0
 12 13  1  0
 14 15  1  0
 15 16  1  0
 16 17  1  0
 17 18  1  0
 19 20  1  6
 19 21  1  0
 21 22  1  0
M  END
