
     RDKit          3D

 22 22  0  0  0  0  0  0  0  0999 V2000
   -1.4890   -1.2700   -0.5900 O   0  0  0  0  0  0  0  0  0  0  0  0
   -1.3250   -0.3730    0.2770 C   0  0  0  0  0  0  0  0  0  0  0  0
   -2.0010    0.8140    0.1310 O   0  0  0  0  0  0  0  0  0  0  0  0
   -2.8800    1.1660   -0.8870 C   0  0  0  0  0  0  0  0  0  0  0  0
   -4.1270    0.3450   -0.9870 C   0  0  2  0  0  0  0  0  0  0  0  0
   -3.9310   -1.0000   -1.2260 O   0  0  0  0  0  0  0  0  0  0  0  0
   -5.0500    0.8480   -2.0840 C   0  0  0  0  0  0  0  0  0  0  0  0
   -5.3350    2.1910   -1.9710 O   0  0  0  0  0  0  0  0  0  0  0  0
   -0.4190   -0.6760    1.3820 C   0  0  2  0  0  0  0  0  0  0  0  0
   -0.4380    0.3450    2.3450 O   0  0  0  0  0  0  0  0  0  0  0  0
    0.5310    0.1360    3.3140 C   0  0  0  0  0  0  0  0  0  0  0  0
    1.2470   -1.1750    3.2410 C   0  0  1  0  0  0  0  0  0  0  0  0
    0.5110   -2.1950    3.8410 O   0  0  0  0  0  0  0  0  0  0  0  0
    1.6170   -1.5760    1.9670 O   0  0  0  0  0  0  0  0  0  0  0  0
    1.0630   -0.7360    0.9920 C   0  0  1  0  0  0  0  0  0  0  0  0
    1.2480   -1.2600   -0.3830 C   0  0  1  0  0  0  0  0  0  0  0  0
    0.7350   -0.3210   -1.2750 O   0  0  0  0  0  0  0  0  0  0  0  0
    2.6870   -1.4990   -0.6960 C   0  0  0  0  0  0  0  0  0  0  0  0
    3.4640   -0.4080   -0.5460 O   0  0  0  0  0  0  0  0  0  0  0  0
    3.2220    0.7060   -1.2800 C   0  0  0  0  0  0  0  0  0  0  0  0
    4.2860    1.7940   -0.9840 C   0  0  0  0  0  0  0  0  0  0  0  0
    5.5480    1.3470   -1.2910 O   0  0  0  0  0  0  0  0  0  0  0  0
  1  2  2  0
  2  3  1  0
  9  2  1  6
  3  4  1  0
  4  5  1  0
  5  6  1  6
  5  7  1  0
  7  8  1  0
  9 10  1  0
  9 15  1  0
 10 11  1  0
 11 12  1  0
 12 13  1  6
 12 14  1  0
 15 14  1  1
 15 16  1  0
 16 17  1  6
 16 18  1  0
 18 19  1  0
 19 20  1  0
 20 21  1  0
 21 22  1  0
M  END
