
     RDKit          3D

 12 12  0  0  0  0  0  0  0  0999 V2000
    2.9280   -0.3530   -1.4520 C   0  0  0  0  0  0  0  0  0  0  0  0
    1.7720   -0.5130   -0.6600 O   0  0  0  0  0  0  0  0  0  0  0  0
    1.3500    0.5100    0.1740 C   0  0  0  0  0  0  0  0  0  0  0  0
    2.0370    1.6620    0.2360 N   0  0  0  0  0  0  0  0  0  0  0  0
    1.6360    2.6750    1.0490 C   0  0  0  0  0  0  0  0  0  0  0  0
    0.5050    2.5100    1.8190 C   0  0  0  0  0  0  0  0  0  0  0  0
   -0.1580    1.3440    1.7320 N   0  0  0  0  0  0  0  0  0  0  0  0
    0.2160    0.3290    0.9370 C   0  0  0  0  0  0  0  0  0  0  0  0
   -0.5600   -0.9500    0.8780 C   0  0  0  0  0  0  0  0  0  0  0  0
   -1.3680   -0.9630   -0.4040 C   0  0  2  0  0  0  0  0  0  0  0  0
   -2.3320    0.1890   -0.4740 C   0  0  0  0  0  0  0  0  0  0  0  0
   -2.0650   -2.2980   -0.5650 C   0  0  0  0  0  0  0  0  0  0  0  0
  1  2  1  0
  2  3  1  0
  3  4  2  0
  3  8  1  0
  4  5  1  0
  5  6  2  0
  6  7  1  0
  7  8  2  0
  8  9  1  0
  9 10  1  0
 10 11  1  1
 10 12  1  0
M  END
