
     RDKit          3D

 22 22  0  0  0  0  0  0  0  0999 V2000
    5.8000    0.5980   -1.3740 C   0  0  0  0  0  0  0  0  0  0  0  0
    4.3930    0.5640   -1.5000 O   0  0  0  0  0  0  0  0  0  0  0  0
    3.5850   -0.3060   -0.8020 C   0  0  0  0  0  0  0  0  0  0  0  0
    4.1080   -1.1180   -0.0090 O   0  0  0  0  0  0  0  0  0  0  0  0
    2.1210   -0.2980   -0.9710 C   0  0  2  0  0  0  0  0  0  0  0  0
    1.7920    0.6860   -1.8980 O   0  0  0  0  0  0  0  0  0  0  0  0
    1.4070   -0.0530    0.3440 C   0  0  1  0  0  0  0  0  0  0  0  0
    1.8510    1.3000    0.8430 C   0  0  0  0  0  0  0  0  0  0  0  0
    1.3820    2.2400   -0.0960 O   0  0  0  0  0  0  0  0  0  0  0  0
    0.0570   -0.0570    0.2490 O   0  0  0  0  0  0  0  0  0  0  0  0
   -0.6250   -0.9630    0.9860 C   0  0  2  0  0  0  0  0  0  0  0  0
   -1.3090   -1.7720    0.0280 O   0  0  0  0  0  0  0  0  0  0  0  0
   -2.2030   -0.9220   -0.5810 C   0  0  2  0  0  0  0  0  0  0  0  0
   -3.5900   -1.5730   -0.7230 C   0  0  0  0  0  0  0  0  0  0  0  0
   -4.3860   -0.6130   -1.3470 O   0  0  0  0  0  0  0  0  0  0  0  0
   -1.8090   -0.5340   -1.9870 C   0  0  0  0  0  0  0  0  0  0  0  0
   -2.7940    0.3240   -2.4820 O   0  0  0  0  0  0  0  0  0  0  0  0
   -2.4160    0.2710    0.3170 C   0  0  0  0  0  0  0  0  0  0  0  0
   -1.8200   -0.2980    1.6110 C   0  0  1  0  0  0  0  0  0  0  0  0
   -2.6890   -1.2470    2.1760 O   0  0  0  0  0  0  0  0  0  0  0  0
   -1.4990    0.7720    2.5970 C   0  0  0  0  0  0  0  0  0  0  0  0
   -0.8720    0.2160    3.6870 O   0  0  0  0  0  0  0  0  0  0  0  0
  1  2  1  0
  2  3  1  0
  3  4  2  0
  3  5  1  0
  5  6  1  6
  5  7  1  0
  7  8  1  6
  7 10  1  0
  8  9  1  0
 11 10  1  6
 11 12  1  0
 11 19  1  0
 12 13  1  0
 13 14  1  6
 13 16  1  0
 13 18  1  0
 14 15  1  0
 16 17  1  0
 18 19  1  0
 19 20  1  1
 19 21  1  0
 21 22  1  0
M  END
