
     RDKit          3D

 22 23  0  0  0  0  0  0  0  0999 V2000
    6.2370    0.6360    1.9750 C   0  0  0  0  0  0  0  0  0  0  0  0
    5.4770    0.9380    0.7450 N   0  0  0  0  0  0  0  0  0  0  0  0
    4.6390    0.0680    0.2050 N   0  0  0  0  0  0  0  0  0  0  0  0
    3.5030   -0.3060    0.0080 C   0  0  0  0  0  0  0  0  0  0  0  0
    2.2470    0.2600    0.4430 C   0  0  0  0  0  0  0  0  0  0  0  0
    1.9800    1.3670    1.1910 C   0  0  0  0  0  0  0  0  0  0  0  0
    3.0150    2.3070    1.7760 C   0  0  0  0  0  0  0  0  0  0  0  0
    0.7090    1.5080    1.3350 O   0  0  0  0  0  0  0  0  0  0  0  0
    0.0130    0.5450    0.7170 C   0  0  0  0  0  0  0  0  0  0  0  0
   -1.3950    0.5110    0.7480 N   0  0  0  0  0  0  0  0  0  0  0  0
   -2.3140    0.0250   -0.1730 C   0  0  0  0  0  0  0  0  0  0  0  0
   -1.9350   -0.3770   -1.9090 S   0  0  0  0  0  0  0  0  0  0  0  0
   -3.6430   -0.9150   -2.2800 C   0  0  0  0  0  0  0  0  0  0  0  0
   -4.0750   -1.4010   -3.5970 C   0  0  0  0  0  0  0  0  0  0  0  0
   -4.2870   -0.7410   -1.1070 C   0  0  0  0  0  0  0  0  0  0  0  0
   -5.7800   -1.1050   -1.0550 C   0  0  0  0  0  0  0  0  0  0  0  0
   -3.6380   -0.2710   -0.0360 C   0  0  0  0  0  0  0  0  0  0  0  0
   -4.2630   -0.0520    1.2890 C   0  0  0  0  0  0  0  0  0  0  0  0
   -4.7660    0.1020    2.3410 N   0  0  0  0  0  0  0  0  0  0  0  0
    0.9600   -0.2630    0.1500 C   0  0  0  0  0  0  0  0  0  0  0  0
    0.7830   -1.5800   -0.4590 C   0  0  0  0  0  0  0  0  0  0  0  0
   -0.2430   -2.2610   -0.4760 O   0  0  0  0  0  0  0  0  0  0  0  0
  1  2  1  0
  2  3  1  0
  3  4  2  3
  4  5  1  0
  5  6  2  0
  5 20  1  0
  6  7  1  0
  6  8  1  0
  8  9  1  0
  9 10  1  0
  9 20  2  0
 10 11  1  0
 11 12  1  0
 11 17  2  0
 12 13  1  0
 13 14  1  0
 13 15  2  0
 15 16  1  0
 15 17  1  0
 17 18  1  0
 18 19  3  0
 20 21  1  0
 21 22  2  0
M  END
