
     RDKit          3D

 25 27  0  0  0  0  0  0  0  0999 V2000
    3.6230    0.6230    1.1340 O   0  0  0  0  0  0  0  0  0  0  0  0
    4.0390    1.4220    0.2690 C   0  0  0  0  0  0  0  0  0  0  0  0
    3.1260    2.5600   -0.1340 C   0  0  0  0  0  0  0  0  0  0  0  0
    1.7790    2.1140    0.2320 O   0  0  0  0  0  0  0  0  0  0  0  0
    1.4150    0.9160   -0.3920 C   0  0  0  0  0  0  0  0  0  0  0  0
    2.3260    0.4170   -1.1610 O   0  0  0  0  0  0  0  0  0  0  0  0
    0.1800    0.2030   -0.2780 C   0  0  0  0  0  0  0  0  0  0  0  0
   -0.0180   -1.1080   -0.7110 C   0  0  0  0  0  0  0  0  0  0  0  0
   -1.2960   -1.4130   -0.4650 N   0  0  0  0  0  0  0  0  0  0  0  0
   -1.9490   -0.4030    0.1000 C   0  0  0  0  0  0  0  0  0  0  0  0
   -3.4050   -0.3980    0.4940 C   0  0  2  0  0  0  0  0  0  0  0  0
   -4.0220   -1.7180    0.1050 C   0  0  0  0  0  0  0  0  0  0  0  0
   -5.4860   -1.7000    0.4010 C   0  0  0  0  0  0  0  0  0  0  0  0
   -6.2210   -0.5070   -0.1280 C   0  0  0  0  0  0  0  0  0  0  0  0
   -5.4160    0.7650   -0.1520 C   0  0  0  0  0  0  0  0  0  0  0  0
   -4.0280    0.5790   -0.4060 N   0  0  0  0  0  0  0  0  0  0  0  0
   -1.0360    0.6060    0.2220 C   0  0  0  0  0  0  0  0  0  0  0  0
   -1.4060    2.1880    0.9300 Cl  0  0  0  0  0  0  0  0  0  0  0  0
    5.3140    1.2730   -0.3190 N   0  0  0  0  0  0  0  0  0  0  0  0
    6.1730    0.2470    0.0150 N   0  0  0  0  0  0  0  0  0  0  0  0
    6.0340   -0.6530    0.9750 C   0  0  0  0  0  0  0  0  0  0  0  0
    7.0820   -1.5050    0.9220 N   0  0  0  0  0  0  0  0  0  0  0  0
    7.8480   -1.1200   -0.0720 N   0  0  0  0  0  0  0  0  0  0  0  0
    7.3240   -0.0490   -0.6530 C   0  0  0  0  0  0  0  0  0  0  0  0
    7.7860    0.6050   -1.6540 O   0  0  0  0  0  0  0  0  0  0  0  0
  1  2  2  0
  2  3  1  0
  2 19  1  0
  3  4  1  0
  4  5  1  0
  5  6  2  0
  5  7  1  0
  7  8  2  0
  7 17  1  0
  8  9  1  0
  9 10  1  0
 11 10  1  6
 10 17  2  0
 11 12  1  0
 11 16  1  0
 12 13  1  0
 13 14  1  0
 14 15  1  0
 15 16  1  0
 17 18  1  0
 19 20  1  0
 20 21  1  0
 20 24  1  0
 21 22  2  0
 22 23  1  0
 23 24  1  0
 24 25  2  0
M  CHG  1  16   1
M  END
