
     RDKit          3D

 18 20  0  0  0  0  0  0  0  0999 V2000
    3.1310   -2.0630    1.7770 N   0  0  0  0  0  0  0  0  0  0  0  0
    2.9700   -0.8670    1.0190 C   0  0  0  0  0  0  0  0  0  0  0  0
    1.8990   -0.6970    0.2180 N   0  0  0  0  0  0  0  0  0  0  0  0
    1.6810    0.4000   -0.5230 C   0  0  0  0  0  0  0  0  0  0  0  0
    0.5740    0.5450   -1.3350 O   0  0  0  0  0  0  0  0  0  0  0  0
   -0.4350   -0.4260   -1.4700 C   0  0  0  0  0  0  0  0  0  0  0  0
   -1.1500   -0.7470   -0.1720 C   0  0  2  0  0  0  0  0  0  0  0  0
   -2.1900   -1.7810   -0.4470 C   0  0  0  0  0  0  0  0  0  0  0  0
   -3.5140   -1.2730   -0.8950 C   0  0  0  0  0  0  0  0  0  0  0  0
   -3.9200    0.0450   -0.3550 C   0  0  0  0  0  0  0  0  0  0  0  0
   -3.0650    0.3120    0.8930 C   0  0  0  0  0  0  0  0  0  0  0  0
   -1.6740    0.5420    0.3720 C   0  0  0  0  0  0  0  0  0  0  0  0
    2.6120    1.4430   -0.4760 C   0  0  0  0  0  0  0  0  0  0  0  0
    2.7230    2.6440   -1.0580 N   0  0  0  0  0  0  0  0  0  0  0  0
    3.8470    3.2610   -0.6510 C   0  0  0  0  0  0  0  0  0  0  0  0
    4.4360    2.4060    0.2040 N   0  0  0  0  0  0  0  0  0  0  0  0
    3.7090    1.2770    0.3390 C   0  0  0  0  0  0  0  0  0  0  0  0
    3.8620    0.1390    1.0600 N   0  0  0  0  0  0  0  0  0  0  0  0
  1  2  1  0
  2  3  2  0
  2 18  1  0
  3  4  1  0
  4  5  1  0
  4 13  2  0
  5  6  1  0
  7  6  1  6
  7  8  1  0
  7 12  1  0
  8  9  1  0
  9 10  1  0
 10 11  1  0
 11 12  1  0
 13 14  1  0
 13 17  1  0
 14 15  2  0
 15 16  1  0
 16 17  1  0
 17 18  2  0
M  END
