
     RDKit          3D

 21 22  0  0  0  0  0  0  0  0999 V2000
    7.2060    0.2920   -0.8240 C   0  0  0  0  0  0  0  0  0  0  0  0
    6.5130   -0.3620    0.0700 C   0  0  0  0  0  0  0  0  0  0  0  0
    5.7020    0.4030    1.0850 C   0  0  0  0  0  0  0  0  0  0  0  0
    4.2970   -0.0140    0.8930 C   0  0  0  0  0  0  0  0  0  0  0  0
    3.4950    0.6780    0.0190 C   0  0  0  0  0  0  0  0  0  0  0  0
    2.1700    0.3020   -0.1760 C   0  0  0  0  0  0  0  0  0  0  0  0
    1.6640   -0.7700    0.5140 C   0  0  0  0  0  0  0  0  0  0  0  0
    0.3690   -1.2120    0.3930 O   0  0  0  0  0  0  0  0  0  0  0  0
   -0.5800   -0.5950   -0.4030 C   0  0  0  0  0  0  0  0  0  0  0  0
   -0.9220    0.7680    0.0960 C   0  0  0  0  0  0  0  0  0  0  0  0
   -2.1540    1.5650   -1.0080 S   0  0  0  0  0  0  0  0  0  0  0  0
   -3.6540    0.6080   -0.8450 C   0  0  0  0  0  0  0  0  0  0  0  0
   -4.6090    0.8750    0.0730 N   0  0  0  0  0  0  0  0  0  0  0  0
   -5.7280    0.1510    0.1880 C   0  0  0  0  0  0  0  0  0  0  0  0
   -6.7780    0.4450    1.1970 C   0  0  0  0  0  0  0  0  0  0  0  0
   -5.9140   -0.9140   -0.6690 C   0  0  0  0  0  0  0  0  0  0  0  0
   -4.9580   -1.2030   -1.6080 C   0  0  0  0  0  0  0  0  0  0  0  0
   -5.0710   -2.1670   -2.4230 O   0  0  0  0  0  0  0  0  0  0  0  0
   -3.8400   -0.4300   -1.6760 N   0  0  0  0  0  0  0  0  0  0  0  0
    2.5170   -1.4570    1.4020 C   0  0  0  0  0  0  0  0  0  0  0  0
    3.7630   -1.0430    1.5360 N   0  0  0  0  0  0  0  0  0  0  0  0
  1  2  2  0
  2  3  1  0
  3  4  1  0
  4  5  2  0
  4 21  1  0
  5  6  1  0
  6  7  2  0
  7  8  1  0
  7 20  1  0
  8  9  1  0
  9 10  1  0
 10 11  1  0
 11 12  1  0
 12 13  2  0
 12 19  1  0
 13 14  1  0
 14 15  1  0
 14 16  2  0
 16 17  1  0
 17 18  2  0
 17 19  1  0
 20 21  2  0
M  END
