
     RDKit          3D

 25 27  0  0  0  0  0  0  0  0999 V2000
    0.5630    2.5760   -0.2820 N   0  0  0  0  0  0  0  0  0  0  0  0
    1.3600    1.4000   -0.2560 C   0  0  0  0  0  0  0  0  0  0  0  0
    2.6650    1.3380   -0.2690 N   0  0  0  0  0  0  0  0  0  0  0  0
    3.1030    0.0020   -0.2340 C   0  0  0  0  0  0  0  0  0  0  0  0
    4.4870   -0.4340   -0.2370 C   0  0  0  0  0  0  0  0  0  0  0  0
    5.4830    0.4480   -0.2760 C   0  0  0  0  0  0  0  0  0  0  0  0
    5.1700    2.1600   -0.3240 Cl  0  0  0  0  0  0  0  0  0  0  0  0
    6.8550   -0.0360   -0.2770 C   0  0  0  0  0  0  0  0  0  0  0  0
    7.2390   -1.2910   -0.2440 N   0  0  0  0  0  0  0  0  0  0  0  0
    8.6040   -1.2970   -0.2600 O   0  0  0  0  0  0  0  0  0  0  0  0
    9.1100   -0.0070   -0.1000 C   0  0  0  0  0  0  0  0  0  0  0  0
    7.9670    0.7930   -0.3160 O   0  0  0  0  0  0  0  0  0  0  0  0
    2.0870   -0.7780   -0.1980 N   0  0  0  0  0  0  0  0  0  0  0  0
    0.8990    0.0240   -0.2090 C   0  0  0  0  0  0  0  0  0  0  0  0
   -0.3360   -0.4440   -0.1800 C   0  0  0  0  0  0  0  0  0  0  0  0
   -1.4860    0.3740   -0.1910 N   0  0  0  0  0  0  0  0  0  0  0  0
   -2.7910   -0.2430   -0.1570 C   0  0  0  0  0  0  0  0  0  0  0  0
   -2.8580   -1.5040   -0.1180 O   0  0  0  0  0  0  0  0  0  0  0  0
   -3.9550    0.5760   -0.1680 N   0  0  0  0  0  0  0  0  0  0  0  0
   -5.2630   -0.0280   -0.1340 C   0  0  0  0  0  0  0  0  0  0  0  0
   -6.1640    0.1360   -1.0780 C   0  0  0  0  0  0  0  0  0  0  0  0
   -7.3600   -0.6280   -0.6950 C   0  0  0  0  0  0  0  0  0  0  0  0
   -7.0210   -1.2500    0.5960 C   0  0  0  0  0  0  0  0  0  0  0  0
   -7.8540   -2.0750    1.3530 O   0  0  0  0  0  0  0  0  0  0  0  0
   -5.7960   -0.8900    0.9070 C   0  0  0  0  0  0  0  0  0  0  0  0
  1  2  1  0
  2  3  2  0
  2 14  1  0
  3  4  1  0
  4  5  1  0
  4 13  2  0
  5  6  2  3
  6  7  1  0
  6  8  1  0
  8  9  2  0
  8 12  1  0
  9 10  1  0
 10 11  1  0
 11 12  1  0
 13 14  1  0
 14 15  2  3
 15 16  1  0
 16 17  1  0
 17 18  2  0
 17 19  1  0
 19 20  1  0
 20 21  2  0
 20 25  1  0
 21 22  1  0
 22 23  1  0
 23 24  1  0
 23 25  2  0
M  CHG  1  13   1
M  END
