
     RDKit          3D

 25 27  0  0  0  0  0  0  0  0999 V2000
    7.6000    1.9190   -1.1420 N   0  0  0  0  0  0  0  0  0  0  0  0
    6.5090    1.7600   -0.4730 C   0  0  0  0  0  0  0  0  0  0  0  0
    5.6140    0.5930   -0.3580 C   0  0  0  0  0  0  0  0  0  0  0  0
    4.5470    1.0450    0.5500 C   0  0  0  0  0  0  0  0  0  0  0  0
    3.3790    0.2510    1.0040 C   0  0  0  0  0  0  0  0  0  0  0  0
    2.5280    0.7350    1.7810 O   0  0  0  0  0  0  0  0  0  0  0  0
    3.2300   -1.0510    0.5610 O   0  0  0  0  0  0  0  0  0  0  0  0
    2.1780   -1.8950    0.9140 C   0  0  0  0  0  0  0  0  0  0  0  0
    0.8750   -1.3300    0.4950 C   0  0  0  0  0  0  0  0  0  0  0  0
   -0.3750   -1.7420    0.7820 N   0  0  0  0  0  0  0  0  0  0  0  0
   -1.2790   -0.9480    0.1940 C   0  0  0  0  0  0  0  0  0  0  0  0
   -2.7370   -1.0060    0.2210 C   0  0  0  0  0  0  0  0  0  0  0  0
   -3.4220   -1.9770    0.9220 C   0  0  0  0  0  0  0  0  0  0  0  0
   -4.7790   -2.0360    0.9510 C   0  0  0  0  0  0  0  0  0  0  0  0
   -5.5070   -1.0990    0.2610 C   0  0  0  0  0  0  0  0  0  0  0  0
   -6.9110   -1.1510    0.2830 O   0  0  0  0  0  0  0  0  0  0  0  0
   -4.8730   -0.1050   -0.4570 C   0  0  0  0  0  0  0  0  0  0  0  0
   -5.6730    0.7990   -1.1250 O   0  0  0  0  0  0  0  0  0  0  0  0
   -5.2270    1.8650   -1.8970 C   0  0  0  0  0  0  0  0  0  0  0  0
   -4.2160    1.3680   -3.2720 Cl  0  0  0  0  0  0  0  0  0  0  0  0
   -3.5100   -0.0820   -0.4600 C   0  0  0  0  0  0  0  0  0  0  0  0
   -0.5690   -0.0270   -0.4700 N   0  0  0  0  0  0  0  0  0  0  0  0
    0.7330   -0.2550   -0.2900 N   0  0  0  0  0  0  0  0  0  0  0  0
    4.7660    2.2480    0.9060 N   0  0  0  0  0  0  0  0  0  0  0  0
    5.9230    2.7620    0.3410 N   0  0  0  0  0  0  0  0  0  0  0  0
  1  2  2  0
  2  3  1  0
  2 25  1  0
  3  4  1  0
  4  5  1  0
  4 24  2  0
  5  6  2  0
  5  7  1  0
  7  8  1  0
  8  9  1  0
  9 10  1  0
  9 23  2  0
 10 11  2  0
 11 12  1  0
 11 22  1  0
 12 13  2  0
 12 21  1  0
 13 14  1  0
 14 15  2  0
 15 16  1  0
 15 17  1  0
 17 18  1  0
 17 21  2  0
 18 19  1  0
 19 20  1  0
 22 23  1  0
 24 25  1  0
M  CHG  1  23   1
M  END
