
     RDKit          3D

 22 23  0  0  0  0  0  0  0  0999 V2000
   -1.7680    3.1840    1.5070 C   0  0  0  0  0  0  0  0  0  0  0  0
   -1.2020    2.0940    0.9520 C   0  0  0  0  0  0  0  0  0  0  0  0
   -1.7970    1.4930   -0.2740 C   0  0  0  0  0  0  0  0  0  0  0  0
   -2.1580    0.1130    0.0530 N   0  0  0  0  0  0  0  0  0  0  0  0
   -1.1360   -0.8210    0.2180 C   0  0  0  0  0  0  0  0  0  0  0  0
   -1.4540   -2.3710    0.6250 S   0  0  0  0  0  0  0  0  0  0  0  0
    0.2540   -0.5000    0.0530 N   0  0  0  0  0  0  0  0  0  0  0  0
    1.3100   -1.4760    0.2430 C   0  0  0  0  0  0  0  0  0  0  0  0
    2.6350   -0.8400    0.0080 C   0  0  0  0  0  0  0  0  0  0  0  0
    2.7050    0.3710   -0.3030 O   0  0  0  0  0  0  0  0  0  0  0  0
    3.8190   -1.5900    0.1330 N   0  0  0  0  0  0  0  0  0  0  0  0
    5.1190   -1.1050   -0.0610 C   0  0  0  0  0  0  0  0  0  0  0  0
    5.4850    0.1690   -0.4030 C   0  0  0  0  0  0  0  0  0  0  0  0
    6.8780    0.1550   -0.4750 C   0  0  0  0  0  0  0  0  0  0  0  0
    7.7050    1.3330   -0.8180 C   0  0  0  0  0  0  0  0  0  0  0  0
    7.2580   -1.0430   -0.1930 O   0  0  0  0  0  0  0  0  0  0  0  0
    6.2510   -1.8200    0.0580 N   0  0  0  0  0  0  0  0  0  0  0  0
   -3.5260   -0.1630    0.1780 C   0  0  1  0  0  0  0  0  0  0  0  0
   -4.3220    0.1220   -1.1050 C   0  0  0  0  0  0  0  0  0  0  0  0
   -5.7270   -0.1570   -0.5420 C   0  0  0  0  0  0  0  0  0  0  0  0
   -5.4930   -1.4110    0.2420 C   0  0  0  0  0  0  0  0  0  0  0  0
   -3.9730   -1.5700    0.4070 C   0  0  0  0  0  0  0  0  0  0  0  0
  1  2  2  0
  2  3  1  0
  3  4  1  0
  4  5  1  0
 18  4  1  6
  5  6  2  0
  5  7  1  0
  7  8  1  0
  8  9  1  0
  9 10  2  0
  9 11  1  0
 11 12  1  0
 12 13  1  0
 12 17  2  0
 13 14  2  0
 14 15  1  0
 14 16  1  0
 16 17  1  0
 18 19  1  0
 18 22  1  0
 19 20  1  0
 20 21  1  0
 21 22  1  0
M  END
