
     RDKit          3D

 22 23  0  0  0  0  0  0  0  0999 V2000
    8.0030    3.0740    0.6270 C   0  0  0  0  0  0  0  0  0  0  0  0
    6.4680    2.6560   -0.2420 S   0  0  0  0  0  0  0  0  0  0  0  0
    6.5910    1.0950   -1.0820 C   0  0  0  0  0  0  0  0  0  0  0  0
    5.4810    0.4520   -1.4020 C   0  0  0  0  0  0  0  0  0  0  0  0
    4.1530    0.9980   -1.0760 C   0  0  0  0  0  0  0  0  0  0  0  0
    3.3980    0.0810   -0.2130 N   0  0  0  0  0  0  0  0  0  0  0  0
    2.6010   -0.8740   -0.7450 C   0  0  0  0  0  0  0  0  0  0  0  0
    2.0350   -1.5600    0.3090 C   0  0  0  0  0  0  0  0  0  0  0  0
    1.0990   -2.6950    0.1400 C   0  0  0  0  0  0  0  0  0  0  0  0
   -0.1800   -2.3300   -0.3750 N   0  0  0  0  0  0  0  0  0  0  0  0
   -1.2110   -1.7050    0.3510 C   0  0  0  0  0  0  0  0  0  0  0  0
   -1.0500   -1.4200    1.5620 O   0  0  0  0  0  0  0  0  0  0  0  0
   -2.4780   -1.3800   -0.2850 C   0  0  0  0  0  0  0  0  0  0  0  0
   -2.6540   -1.6630   -1.5010 O   0  0  0  0  0  0  0  0  0  0  0  0
   -3.5660   -0.7440    0.3910 N   0  0  0  0  0  0  0  0  0  0  0  0
   -4.8130   -0.4410   -0.2970 C   0  0  2  0  0  0  0  0  0  0  0  0
   -5.1610    1.0040   -0.2890 C   0  0  0  0  0  0  0  0  0  0  0  0
   -6.4060    1.1650    0.5110 C   0  0  0  0  0  0  0  0  0  0  0  0
   -6.8300   -0.1860    0.9890 C   0  0  0  0  0  0  0  0  0  0  0  0
   -5.9720   -1.2000    0.2810 C   0  0  0  0  0  0  0  0  0  0  0  0
    2.5130   -0.9890    1.4660 C   0  0  0  0  0  0  0  0  0  0  0  0
    3.3480    0.0160    1.1050 N   0  0  0  0  0  0  0  0  0  0  0  0
  1  2  1  0
  2  3  1  0
  3  4  2  3
  4  5  1  0
  5  6  1  0
  6  7  1  0
  6 22  1  0
  7  8  2  0
  8  9  1  0
  8 21  1  0
  9 10  1  0
 10 11  1  0
 11 12  2  0
 11 13  1  0
 13 14  2  0
 13 15  1  0
 16 15  1  1
 16 17  1  0
 16 20  1  0
 17 18  1  0
 18 19  1  0
 19 20  1  0
 21 22  2  0
M  END
