
     RDKit          3D

 18 19  0  0  0  0  0  0  0  0999 V2000
    3.0950   -2.2990    0.2090 C   0  0  0  0  0  0  0  0  0  0  0  0
    3.3930   -1.5040   -0.8830 O   0  0  0  0  0  0  0  0  0  0  0  0
    3.3700   -0.1560   -0.5980 C   0  0  0  0  0  0  0  0  0  0  0  0
    1.9820    0.2850   -0.3470 C   0  0  0  0  0  0  0  0  0  0  0  0
    0.8860   -0.4420   -0.4970 N   0  0  0  0  0  0  0  0  0  0  0  0
   -0.3790    0.0250   -0.2910 C   0  0  0  0  0  0  0  0  0  0  0  0
   -1.3420   -0.8060   -0.4770 N   0  0  0  0  0  0  0  0  0  0  0  0
   -2.7000   -0.5130   -0.3160 C   0  0  0  0  0  0  0  0  0  0  0  0
   -3.3800    0.6810   -0.5020 C   0  0  0  0  0  0  0  0  0  0  0  0
   -4.7270    0.4560   -0.2100 C   0  0  0  0  0  0  0  0  0  0  0  0
   -4.8270   -0.8030    0.1270 O   0  0  0  0  0  0  0  0  0  0  0  0
   -3.6650   -1.4150    0.0810 C   0  0  0  0  0  0  0  0  0  0  0  0
   -3.4340   -2.8530    0.4050 C   0  0  0  0  0  0  0  0  0  0  0  0
   -0.5160    1.2850    0.0800 N   0  0  0  0  0  0  0  0  0  0  0  0
    0.5380    2.1130    0.2590 C   0  0  0  0  0  0  0  0  0  0  0  0
    0.3200    3.4640    0.6610 N   0  0  0  0  0  0  0  0  0  0  0  0
    1.8050    1.6240    0.0480 C   0  0  0  0  0  0  0  0  0  0  0  0
    2.9110    2.4880    0.2350 N   0  0  0  0  0  0  0  0  0  0  0  0
  1  2  1  0
  2  3  1  0
  3  4  1  0
  4  5  1  0
  4 17  2  0
  5  6  1  0
  6  7  2  3
  6 14  1  0
  7  8  1  0
  8  9  1  0
  8 12  2  0
  9 10  2  0
 10 11  1  0
 11 12  1  0
 12 13  1  0
 14 15  2  0
 15 16  1  0
 15 17  1  0
 17 18  1  0
M  END
