
     RDKit          3D

 18 19  0  0  0  0  0  0  0  0999 V2000
   -4.0560    1.4590    0.9350 C   0  0  0  0  0  0  0  0  0  0  0  0
   -3.8900    0.9380   -0.4510 C   0  0  0  0  0  0  0  0  0  0  0  0
   -3.4370   -0.5040   -0.4020 C   0  0  1  0  0  0  0  0  0  0  0  0
   -2.1310   -0.7530    0.2920 C   0  0  0  0  0  0  0  0  0  0  0  0
   -1.0550   -0.0320   -0.3610 N   0  0  0  0  0  0  0  0  0  0  0  0
    0.2820   -0.1060    0.1110 C   0  0  0  0  0  0  0  0  0  0  0  0
    0.5410   -0.8120    1.1130 O   0  0  0  0  0  0  0  0  0  0  0  0
    1.3480    0.6060   -0.5270 N   0  0  0  0  0  0  0  0  0  0  0  0
    2.6650    0.5500   -0.0860 N   0  0  0  0  0  0  0  0  0  0  0  0
    3.6840    0.2030   -1.0080 C   0  0  0  0  0  0  0  0  0  0  0  0
    3.4130   -0.0560   -2.2290 O   0  0  0  0  0  0  0  0  0  0  0  0
    5.0820    0.1240   -0.6120 C   0  0  0  0  0  0  0  0  0  0  0  0
    5.6590    0.3300    0.6360 C   0  0  0  0  0  0  0  0  0  0  0  0
    7.0200    0.1510    0.5400 C   0  0  0  0  0  0  0  0  0  0  0  0
    7.2560   -0.1590   -0.7450 N   0  0  0  0  0  0  0  0  0  0  0  0
    6.1120   -0.1750   -1.4220 N   0  0  0  0  0  0  0  0  0  0  0  0
   -4.5460   -1.5040   -0.2810 C   0  0  0  0  0  0  0  0  0  0  0  0
   -3.7850   -1.4130   -1.5420 C   0  0  0  0  0  0  0  0  0  0  0  0
  1  2  1  0
  3  2  1  6
  3  4  1  0
  3 17  1  0
  3 18  1  0
  4  5  1  0
  5  6  1  0
  6  7  2  0
  6  8  1  0
  8  9  1  0
  9 10  1  0
 10 11  2  0
 10 12  1  0
 12 13  2  0
 12 16  1  0
 13 14  1  0
 14 15  2  0
 15 16  1  0
 17 18  1  0
M  END
