
     RDKit          3D

 17 18  0  0  0  0  0  0  0  0999 V2000
    6.2370   -0.8760    1.6690 N   0  0  0  0  0  0  0  0  0  0  0  0
    4.8800   -1.0180    1.6040 N   0  0  0  0  0  0  0  0  0  0  0  0
    4.0840   -0.1940    0.7440 C   0  0  0  0  0  0  0  0  0  0  0  0
    4.6890    0.6420    0.0740 O   0  0  0  0  0  0  0  0  0  0  0  0
    2.6860   -0.3240    0.6620 N   0  0  0  0  0  0  0  0  0  0  0  0
    1.8470    0.4530   -0.1600 C   0  0  0  0  0  0  0  0  0  0  0  0
    2.2600    1.4420   -0.9970 C   0  0  0  0  0  0  0  0  0  0  0  0
    1.1890    1.9290   -1.5910 N   0  0  0  0  0  0  0  0  0  0  0  0
    0.0680    1.3010   -1.1820 C   0  0  0  0  0  0  0  0  0  0  0  0
    0.4340    0.3450   -0.2650 C   0  0  0  0  0  0  0  0  0  0  0  0
   -0.3310   -0.6120    0.4930 C   0  0  0  0  0  0  0  0  0  0  0  0
   -1.5640   -0.8700    0.5500 C   0  0  0  0  0  0  0  0  0  0  0  0
   -2.7890   -0.4060   -0.0450 C   0  0  0  0  0  0  0  0  0  0  0  0
   -3.0280    0.4940   -0.8940 N   0  0  0  0  0  0  0  0  0  0  0  0
   -4.4060    0.6520   -1.2340 C   0  0  0  0  0  0  0  0  0  0  0  0
   -5.0980    0.0370   -0.0370 C   0  0  0  0  0  0  0  0  0  0  0  0
   -4.1220   -1.0410    0.3380 C   0  0  0  0  0  0  0  0  0  0  0  0
  1  2  1  0
  2  3  1  0
  3  4  2  0
  3  5  1  0
  5  6  1  0
  6  7  2  0
  6 10  1  0
  7  8  1  0
  8  9  1  0
  9 10  2  0
 10 11  1  0
 11 12  2  3
 12 13  1  0
 13 14  2  0
 13 17  1  0
 14 15  1  0
 15 16  1  0
 16 17  1  0
M  END
