
     RDKit          3D

 17 18  0  0  0  0  0  0  0  0999 V2000
    4.2530    0.4170   -0.8890 C   0  0  0  0  0  0  0  0  0  0  0  0
    3.3620    0.5580    0.2990 C   0  0  2  0  0  0  0  0  0  0  0  0
    3.9280   -0.2740    1.4580 C   0  0  0  0  0  0  0  0  0  0  0  0
    1.9790    0.0200    0.0460 C   0  0  0  0  0  0  0  0  0  0  0  0
    0.7950    0.6950    0.2590 C   0  0  0  0  0  0  0  0  0  0  0  0
   -0.2780   -0.1410   -0.0970 C   0  0  0  0  0  0  0  0  0  0  0  0
   -1.6800    0.2240   -0.0080 C   0  0  0  0  0  0  0  0  0  0  0  0
   -2.0510    1.4720    0.4530 C   0  0  0  0  0  0  0  0  0  0  0  0
   -3.3650    1.8730    0.5580 C   0  0  0  0  0  0  0  0  0  0  0  0
   -3.6950    3.0130    0.9790 O   0  0  0  0  0  0  0  0  0  0  0  0
   -4.2950    0.9780    0.1850 N   0  0  0  0  0  0  0  0  0  0  0  0
   -3.9810   -0.2340   -0.2650 C   0  0  0  0  0  0  0  0  0  0  0  0
   -5.0030   -1.1110   -0.6340 O   0  0  0  0  0  0  0  0  0  0  0  0
   -2.6650   -0.6410   -0.3720 C   0  0  0  0  0  0  0  0  0  0  0  0
   -2.4380   -1.9480   -0.8610 N   0  0  0  0  0  0  0  0  0  0  0  0
    0.2970   -1.2710   -0.5050 N   0  0  0  0  0  0  0  0  0  0  0  0
    1.6330   -1.1790   -0.4220 N   0  0  0  0  0  0  0  0  0  0  0  0
  2  1  1  6
  2  3  1  0
  2  4  1  0
  4  5  1  0
  4 17  2  0
  5  6  2  0
  6  7  1  0
  6 16  1  0
  7  8  2  0
  7 14  1  0
  8  9  1  0
  9 10  2  0
  9 11  1  0
 11 12  1  0
 12 13  1  0
 12 14  2  0
 14 15  1  0
 16 17  1  0
M  END
