
     RDKit          3D

 18 19  0  0  0  0  0  0  0  0999 V2000
   -3.0960   -1.7450    0.7290 N   0  0  0  0  0  0  0  0  0  0  0  0
   -3.2000   -0.4050    0.3310 C   0  0  0  0  0  0  0  0  0  0  0  0
   -4.4440    0.1620    0.2410 C   0  0  0  0  0  0  0  0  0  0  0  0
   -4.6000    1.4890   -0.1490 C   0  0  0  0  0  0  0  0  0  0  0  0
   -3.4750    2.2220   -0.4440 C   0  0  0  0  0  0  0  0  0  0  0  0
   -2.2420    1.6110   -0.3400 C   0  0  0  0  0  0  0  0  0  0  0  0
   -2.0300    0.3170    0.0370 C   0  0  0  0  0  0  0  0  0  0  0  0
   -0.7840   -0.3440    0.1560 N   0  0  0  0  0  0  0  0  0  0  0  0
    0.4890    0.1920   -0.0890 C   0  0  0  0  0  0  0  0  0  0  0  0
    0.5890    1.3770   -0.4530 O   0  0  0  0  0  0  0  0  0  0  0  0
    1.6950   -0.5650    0.0610 N   0  0  0  0  0  0  0  0  0  0  0  0
    2.9850   -0.0400   -0.1820 C   0  0  0  0  0  0  0  0  0  0  0  0
    3.3460    1.2240   -0.5870 C   0  0  0  0  0  0  0  0  0  0  0  0
    4.7110    1.2640   -0.6880 N   0  0  0  0  0  0  0  0  0  0  0  0
    5.2080    0.0910   -0.3660 N   0  0  0  0  0  0  0  0  0  0  0  0
    4.1650   -0.7310   -0.0500 C   0  0  0  0  0  0  0  0  0  0  0  0
    4.3280   -2.1170    0.3590 C   0  0  0  0  0  0  0  0  0  0  0  0
    3.3930   -2.8950    0.6550 O   0  0  0  0  0  0  0  0  0  0  0  0
  1  2  1  0
  2  3  2  0
  2  7  1  0
  3  4  1  0
  4  5  2  0
  5  6  1  0
  6  7  2  0
  7  8  1  0
  8  9  1  0
  9 10  2  0
  9 11  1  0
 11 12  1  0
 12 13  1  0
 12 16  2  0
 13 14  2  0
 14 15  1  0
 15 16  1  0
 16 17  1  0
 17 18  2  0
M  END
