
     RDKit          3D

 18 19  0  0  0  0  0  0  0  0999 V2000
   -4.1730    0.2460   -1.4900 C   0  0  0  0  0  0  0  0  0  0  0  0
   -3.0480   -0.0470   -0.5880 C   0  0  0  0  0  0  0  0  0  0  0  0
   -1.8470    0.5850   -0.7990 C   0  0  0  0  0  0  0  0  0  0  0  0
   -0.7430    0.3400    0.0330 C   0  0  0  0  0  0  0  0  0  0  0  0
    0.5100    1.0200   -0.2130 C   0  0  0  0  0  0  0  0  0  0  0  0
    1.6240    0.9220    0.4410 C   0  0  0  0  0  0  0  0  0  0  0  0
    2.7860    1.6780    0.0570 N   0  0  0  0  0  0  0  0  0  0  0  0
    3.8790    1.0700   -0.2310 C   0  0  0  0  0  0  0  0  0  0  0  0
    5.0640    1.5780   -0.6080 N   0  0  0  0  0  0  0  0  0  0  0  0
    5.9460    0.6070   -0.8130 N   0  0  0  0  0  0  0  0  0  0  0  0
    5.3270   -0.5610   -0.5660 C   0  0  0  0  0  0  0  0  0  0  0  0
    5.7500   -1.7370   -0.6250 O   0  0  0  0  0  0  0  0  0  0  0  0
    4.0600   -0.2620   -0.2100 N   0  0  0  0  0  0  0  0  0  0  0  0
   -0.9730   -0.5640    1.0460 C   0  0  0  0  0  0  0  0  0  0  0  0
   -0.0360   -0.8510    1.8500 O   0  0  0  0  0  0  0  0  0  0  0  0
   -2.1870   -1.1750    1.2240 N   0  0  0  0  0  0  0  0  0  0  0  0
   -3.2250   -0.9300    0.4230 C   0  0  0  0  0  0  0  0  0  0  0  0
   -4.5010   -1.5850    0.6280 C   0  0  0  0  0  0  0  0  0  0  0  0
  1  2  1  0
  2  3  1  0
  2 17  2  0
  3  4  2  0
  4  5  1  0
  4 14  1  0
  5  6  2  3
  6  7  1  0
  7  8  2  3
  8  9  1  0
  8 13  1  0
  9 10  1  0
 10 11  1  0
 11 12  2  0
 11 13  1  0
 14 15  2  0
 14 16  1  0
 16 17  1  0
 17 18  1  0
M  END
