
     RDKit          3D

 15 14  0  0  0  0  0  0  0  0999 V2000
   -1.6690    2.1010    0.4820 C   0  0  0  0  0  0  0  0  0  0  0  0
   -1.6510    0.6240    0.0220 C   0  0  2  0  0  0  0  0  0  0  0  0
   -2.2920    0.5950   -1.3200 C   0  0  0  0  0  0  0  0  0  0  0  0
   -2.5500   -0.0760    1.0210 C   0  0  0  0  0  0  0  0  0  0  0  0
   -2.6040   -1.4330    0.9090 O   0  0  0  0  0  0  0  0  0  0  0  0
   -0.3160    0.2500    0.0670 O   0  0  0  0  0  0  0  0  0  0  0  0
    0.2230   -0.9780   -0.2660 C   0  0  0  0  0  0  0  0  0  0  0  0
   -0.5780   -1.8600   -0.6540 O   0  0  0  0  0  0  0  0  0  0  0  0
    1.7010   -1.1970   -0.1520 C   0  0  1  0  0  0  0  0  0  0  0  0
    2.0130   -1.0720    1.3270 C   0  0  0  0  0  0  0  0  0  0  0  0
    2.0260   -2.5170   -0.5980 N   0  0  0  0  0  0  0  0  0  0  0  0
    2.4560   -0.1960   -0.9950 C   0  0  0  0  0  0  0  0  0  0  0  0
    2.2180    1.2060   -0.5960 C   0  0  0  0  0  0  0  0  0  0  0  0
    2.4220    1.4970    0.6290 O   0  0  0  0  0  0  0  0  0  0  0  0
    1.7910    2.2160   -1.4410 O   0  0  0  0  0  0  0  0  0  0  0  0
  2  1  1  1
  2  3  1  0
  2  4  1  0
  2  6  1  0
  4  5  1  0
  6  7  1  0
  7  8  2  0
  7  9  1  0
  9 10  1  1
  9 11  1  0
  9 12  1  0
 12 13  1  0
 13 14  2  0
 13 15  1  0
M  END
