
     RDKit          3D

 15 15  0  0  0  0  0  0  0  0999 V2000
   -2.6790   -0.2280   -1.7130 O   0  0  0  0  0  0  0  0  0  0  0  0
   -2.5940    0.7550   -0.7440 C   0  0  0  0  0  0  0  0  0  0  0  0
   -2.0130    0.2240    0.5260 C   0  0  2  0  0  0  0  0  0  0  0  0
   -2.1070    1.2100    1.6640 C   0  0  0  0  0  0  0  0  0  0  0  0
   -1.7950    0.5600    2.8630 O   0  0  0  0  0  0  0  0  0  0  0  0
   -0.6990   -0.3170    0.4360 N   0  0  0  0  0  0  0  0  0  0  0  0
   -0.5630   -1.4770   -0.4050 C   0  0  0  0  0  0  0  0  0  0  0  0
    0.7250   -2.1910    0.0140 C   0  0  0  0  0  0  0  0  0  0  0  0
    1.4780   -1.3570    0.8310 O   0  0  0  0  0  0  0  0  0  0  0  0
    1.6420   -0.0760    0.3210 C   0  0  1  0  0  0  0  0  0  0  0  0
    2.5350    0.6730    1.3070 C   0  0  0  0  0  0  0  0  0  0  0  0
    2.7580    1.9810    0.8850 O   0  0  0  0  0  0  0  0  0  0  0  0
    2.3620   -0.0940   -0.9990 C   0  0  0  0  0  0  0  0  0  0  0  0
    3.6410   -0.6590   -0.8740 O   0  0  0  0  0  0  0  0  0  0  0  0
    0.3220    0.6590    0.1410 C   0  0  0  0  0  0  0  0  0  0  0  0
  1  2  1  0
  3  2  1  6
  3  4  1  0
  3  6  1  0
  4  5  1  0
  6  7  1  0
  6 15  1  0
  7  8  1  0
  8  9  1  0
  9 10  1  0
 10 11  1  1
 10 13  1  0
 10 15  1  0
 11 12  1  0
 13 14  1  0
M  END
