
     RDKit          3D

 15 14  0  0  0  0  0  0  0  0999 V2000
    0.0140   -1.5390    1.2220 C   0  0  0  0  0  0  0  0  0  0  0  0
    0.7880   -0.5710    0.7860 C   0  0  0  0  0  0  0  0  0  0  0  0
    0.3750    0.7460    0.8950 O   0  0  0  0  0  0  0  0  0  0  0  0
   -0.7140    1.1680    0.1060 C   0  0  1  0  0  0  0  0  0  0  0  0
   -1.8720    0.4570    0.3680 O   0  0  0  0  0  0  0  0  0  0  0  0
   -2.2660   -0.1550   -0.8140 C   0  0  0  0  0  0  0  0  0  0  0  0
   -3.5310   -0.9670   -0.6530 C   0  0  0  0  0  0  0  0  0  0  0  0
   -3.3970   -1.9850    0.2840 O   0  0  0  0  0  0  0  0  0  0  0  0
   -1.0090    2.6120    0.2900 C   0  0  0  0  0  0  0  0  0  0  0  0
   -0.2310    3.4020    1.1790 N   0  0  0  0  0  0  0  0  0  0  0  0
   -1.9470    3.1700   -0.3320 O   0  0  0  0  0  0  0  0  0  0  0  0
    2.0680   -0.9160    0.1950 C   0  0  0  0  0  0  0  0  0  0  0  0
    2.4510   -2.2410    0.1010 O   0  0  0  0  0  0  0  0  0  0  0  0
    2.8790    0.0120   -0.2570 C   0  0  0  0  0  0  0  0  0  0  0  0
    4.1910   -0.3310   -0.8630 C   0  0  0  0  0  0  0  0  0  0  0  0
  1  2  2  0
  2  3  1  0
  2 12  1  0
  4  3  1  1
  4  5  1  0
  4  9  1  0
  5  6  1  0
  6  7  1  0
  7  8  1  0
  9 10  1  0
  9 11  2  0
 12 13  1  0
 12 14  2  3
 14 15  1  0
M  END
