
     RDKit          3D

 15 14  0  0  0  0  0  0  0  0999 V2000
   -1.5120    2.3780   -0.8290 C   0  0  0  0  0  0  0  0  0  0  0  0
   -1.9810    1.2030   -0.5300 C   0  0  0  0  0  0  0  0  0  0  0  0
   -3.4150    1.2200   -0.3770 O   0  0  0  0  0  0  0  0  0  0  0  0
   -1.3670   -0.0620   -0.3300 C   0  0  0  0  0  0  0  0  0  0  0  0
   -2.1150   -1.1280   -0.0300 C   0  0  0  0  0  0  0  0  0  0  0  0
   -3.5320   -1.3030    0.1510 C   0  0  0  0  0  0  0  0  0  0  0  0
   -3.7870   -1.7740    1.4820 O   0  0  0  0  0  0  0  0  0  0  0  0
    0.0470   -0.3890   -0.4080 C   0  0  0  0  0  0  0  0  0  0  0  0
    0.3690   -1.6370   -0.1810 O   0  0  0  0  0  0  0  0  0  0  0  0
    1.1600    0.4090   -0.6890 N   0  0  0  0  0  0  0  0  0  0  0  0
    2.5280   -0.1090   -0.7200 C   0  0  0  0  0  0  0  0  0  0  0  0
    2.9870   -0.6910    0.5690 C   0  0  1  0  0  0  0  0  0  0  0  0
    4.3010   -1.1620    0.4640 O   0  0  0  0  0  0  0  0  0  0  0  0
    3.0460    0.4470    1.5970 C   0  0  0  0  0  0  0  0  0  0  0  0
    1.7680    0.9390    1.7300 O   0  0  0  0  0  0  0  0  0  0  0  0
  1  2  2  0
  2  3  1  0
  2  4  1  0
  4  5  2  3
  4  8  1  0
  5  6  1  0
  6  7  1  0
  8  9  2  0
  8 10  1  0
 10 11  1  0
 11 12  1  0
 12 13  1  6
 12 14  1  0
 14 15  1  0
M  END
