
     RDKit          3D

 15 14  0  0  0  0  0  0  0  0999 V2000
    5.3980    0.0540   -0.0220 C   0  0  0  0  0  0  0  0  0  0  0  0
    4.1850    0.5840   -0.5490 O   0  0  0  0  0  0  0  0  0  0  0  0
    2.9920   -0.0360   -0.2320 C   0  0  0  0  0  0  0  0  0  0  0  0
    1.8620    0.6210   -0.0060 C   0  0  0  0  0  0  0  0  0  0  0  0
    0.6500   -0.0900    0.3210 C   0  0  0  0  0  0  0  0  0  0  0  0
   -0.5300    0.3770    0.5700 C   0  0  0  0  0  0  0  0  0  0  0  0
   -1.5720   -0.5330    0.8690 O   0  0  0  0  0  0  0  0  0  0  0  0
   -1.9850   -1.3360   -0.2280 C   0  0  0  0  0  0  0  0  0  0  0  0
   -3.0700   -2.2620    0.1440 C   0  0  0  0  0  0  0  0  0  0  0  0
   -3.5420   -2.2350    1.4850 N   0  0  0  0  0  0  0  0  0  0  0  0
   -3.5240   -3.0270   -0.7350 O   0  0  0  0  0  0  0  0  0  0  0  0
   -0.9110    1.7780    0.5760 C   0  0  0  0  0  0  0  0  0  0  0  0
    0.0090    2.7890    0.3000 O   0  0  0  0  0  0  0  0  0  0  0  0
   -2.1570    2.1530    0.8470 C   0  0  0  0  0  0  0  0  0  0  0  0
   -3.1770    1.2810    1.1380 O   0  0  0  0  0  0  0  0  0  0  0  0
  1  2  1  0
  2  3  1  0
  3  4  2  3
  4  5  1  0
  5  6  2  3
  6  7  1  0
  6 12  1  0
  7  8  1  0
  8  9  1  0
  9 10  1  0
  9 11  2  0
 12 13  1  0
 12 14  2  3
 14 15  1  0
M  END
