
     RDKit          3D

 15 14  0  0  0  0  0  0  0  0999 V2000
    2.7970   -0.5880   -1.3070 C   0  0  0  0  0  0  0  0  0  0  0  0
    1.9590   -0.2500   -0.1610 C   0  0  0  0  0  0  0  0  0  0  0  0
    2.2850    0.5790    0.7620 C   0  0  0  0  0  0  0  0  0  0  0  0
    3.4860    1.3360    0.8890 C   0  0  0  0  0  0  0  0  0  0  0  0
    4.6110    1.3710    0.0450 N   0  0  0  0  0  0  0  0  0  0  0  0
    3.5750    2.1110    1.9230 O   0  0  0  0  0  0  0  0  0  0  0  0
    0.6430   -0.9150   -0.0660 C   0  0  0  0  0  0  0  0  0  0  0  0
    0.2320   -1.7740   -0.9650 C   0  0  0  0  0  0  0  0  0  0  0  0
    0.9540   -2.1590   -2.0870 O   0  0  0  0  0  0  0  0  0  0  0  0
   -0.2050   -0.6330    1.0100 O   0  0  0  0  0  0  0  0  0  0  0  0
   -1.4500    0.0430    0.8230 C   0  0  0  0  0  0  0  0  0  0  0  0
   -2.2880   -0.6490   -0.0110 O   0  0  0  0  0  0  0  0  0  0  0  0
   -3.4840    0.0020   -0.2020 C   0  0  0  0  0  0  0  0  0  0  0  0
   -4.2180    0.1850    1.0850 C   0  0  0  0  0  0  0  0  0  0  0  0
   -5.4500    0.8510    0.8570 O   0  0  0  0  0  0  0  0  0  0  0  0
  1  2  1  0
  2  3  2  3
  2  7  1  0
  3  4  1  0
  4  5  1  0
  4  6  2  0
  7  8  2  3
  7 10  1  0
  8  9  1  0
 10 11  1  0
 11 12  1  0
 12 13  1  0
 13 14  1  0
 14 15  1  0
M  END
