
     RDKit          3D

 15 14  0  0  0  0  0  0  0  0999 V2000
    1.8040    1.0200   -1.7250 C   0  0  0  0  0  0  0  0  0  0  0  0
    1.8220    0.5340   -0.4740 C   0  0  0  0  0  0  0  0  0  0  0  0
    0.7010   -0.0590    0.0720 O   0  0  0  0  0  0  0  0  0  0  0  0
   -0.5530    0.1060   -0.5200 C   0  0  1  0  0  0  0  0  0  0  0  0
   -1.5530   -0.5670    0.1830 O   0  0  0  0  0  0  0  0  0  0  0  0
   -2.1730   -1.5110   -0.6300 C   0  0  0  0  0  0  0  0  0  0  0  0
   -3.2460   -2.1930    0.2180 C   0  0  0  0  0  0  0  0  0  0  0  0
   -4.1610   -1.2450    0.6580 O   0  0  0  0  0  0  0  0  0  0  0  0
   -0.8970    1.5630   -0.6450 C   0  0  0  0  0  0  0  0  0  0  0  0
   -2.1340    1.9050   -1.2290 N   0  0  0  0  0  0  0  0  0  0  0  0
   -0.1330    2.4770   -0.2550 O   0  0  0  0  0  0  0  0  0  0  0  0
    3.0770    0.6680    0.2570 C   0  0  0  0  0  0  0  0  0  0  0  0
    4.1740    1.2870   -0.3760 O   0  0  0  0  0  0  0  0  0  0  0  0
    3.2580    0.2430    1.4910 C   0  0  0  0  0  0  0  0  0  0  0  0
    2.1170   -0.4110    2.1800 C   0  0  0  0  0  0  0  0  0  0  0  0
  1  2  2  0
  2  3  1  0
  2 12  1  0
  4  3  1  1
  4  5  1  0
  4  9  1  0
  5  6  1  0
  6  7  1  0
  7  8  1  0
  9 10  1  0
  9 11  2  0
 12 13  1  0
 12 14  2  3
 14 15  1  0
M  END
