
     RDKit          3D

 15 14  0  0  0  0  0  0  0  0999 V2000
   -3.0920   -1.0030   -0.6010 C   0  0  0  0  0  0  0  0  0  0  0  0
   -2.0720   -0.1300   -0.0170 C   0  0  0  0  0  0  0  0  0  0  0  0
   -2.2140    0.9350    0.7280 C   0  0  0  0  0  0  0  0  0  0  0  0
   -3.4600    1.4810    1.1360 C   0  0  0  0  0  0  0  0  0  0  0  0
   -4.7200    0.9900    0.8250 N   0  0  0  0  0  0  0  0  0  0  0  0
   -3.4390    2.5390    1.8700 O   0  0  0  0  0  0  0  0  0  0  0  0
   -0.6610   -0.5270   -0.3230 C   0  0  0  0  0  0  0  0  0  0  0  0
   -0.3320   -1.5510   -1.0400 C   0  0  0  0  0  0  0  0  0  0  0  0
   -1.1640   -2.4640   -1.6550 O   0  0  0  0  0  0  0  0  0  0  0  0
    0.3110    0.2950    0.2270 O   0  0  0  0  0  0  0  0  0  0  0  0
    1.6600    0.0760   -0.1830 C   0  0  0  0  0  0  0  0  0  0  0  0
    2.5110    0.9580    0.4320 O   0  0  0  0  0  0  0  0  0  0  0  0
    3.8040    0.7570    0.0360 C   0  0  0  0  0  0  0  0  0  0  0  0
    4.3030   -0.6250    0.3620 C   0  0  0  0  0  0  0  0  0  0  0  0
    4.2600   -0.8900    1.7290 O   0  0  0  0  0  0  0  0  0  0  0  0
  1  2  1  0
  2  3  2  3
  2  7  1  0
  3  4  1  0
  4  5  1  0
  4  6  2  0
  7  8  2  3
  7 10  1  0
  8  9  1  0
 10 11  1  0
 11 12  1  0
 12 13  1  0
 13 14  1  0
 14 15  1  0
M  END
