
     RDKit          3D

 15 14  0  0  0  0  0  0  0  0999 V2000
   -3.1590    1.3050   -0.7770 C   0  0  0  0  0  0  0  0  0  0  0  0
   -4.0980    0.2540   -0.3450 C   0  0  0  0  0  0  0  0  0  0  0  0
   -3.8440   -0.9230    0.1350 C   0  0  0  0  0  0  0  0  0  0  0  0
   -4.9930   -1.6980    0.4550 O   0  0  0  0  0  0  0  0  0  0  0  0
   -2.5960   -1.5600    0.3900 C   0  0  0  0  0  0  0  0  0  0  0  0
   -2.5810   -2.7650    0.8820 O   0  0  0  0  0  0  0  0  0  0  0  0
   -1.2850   -1.0720    0.1850 N   0  0  0  0  0  0  0  0  0  0  0  0
   -0.0880   -1.8320    0.4910 C   0  0  0  0  0  0  0  0  0  0  0  0
    1.1730   -1.0800    0.1780 C   0  0  1  0  0  0  0  0  0  0  0  0
    1.1960   -0.7730   -1.1660 O   0  0  0  0  0  0  0  0  0  0  0  0
    1.4580    0.0620    1.0680 C   0  0  0  0  0  0  0  0  0  0  0  0
    2.7090    0.5770    0.8800 O   0  0  0  0  0  0  0  0  0  0  0  0
    3.0480    1.0790   -0.3320 C   0  0  0  0  0  0  0  0  0  0  0  0
    4.4760    1.6270   -0.2190 C   0  0  0  0  0  0  0  0  0  0  0  0
    4.4410    2.6160    0.7630 O   0  0  0  0  0  0  0  0  0  0  0  0
  1  2  1  0
  2  3  2  3
  3  4  1  0
  3  5  1  0
  5  6  2  0
  5  7  1  0
  7  8  1  0
  8  9  1  0
  9 10  1  6
  9 11  1  0
 11 12  1  0
 12 13  1  0
 13 14  1  0
 14 15  1  0
M  END
