
     RDKit          3D

 15 14  0  0  0  0  0  0  0  0999 V2000
    4.3480   -0.1620   -0.1100 C   0  0  0  0  0  0  0  0  0  0  0  0
    3.5160    1.1220   -0.0410 C   0  0  0  0  0  0  0  0  0  0  0  0
    2.2600    0.7830    0.4480 O   0  0  0  0  0  0  0  0  0  0  0  0
    1.6160   -0.1450   -0.3840 C   0  0  0  0  0  0  0  0  0  0  0  0
    0.3000   -0.3950    0.2790 C   0  0  0  0  0  0  0  0  0  0  0  0
    0.4270   -0.9150    1.5940 O   0  0  0  0  0  0  0  0  0  0  0  0
   -0.8760   -0.2010   -0.1870 C   0  0  0  0  0  0  0  0  0  0  0  0
   -2.1010   -0.4660    0.5150 C   0  0  0  0  0  0  0  0  0  0  0  0
   -3.2420   -0.2330   -0.0520 O   0  0  0  0  0  0  0  0  0  0  0  0
   -2.2410   -0.9790    1.8260 N   0  0  0  0  0  0  0  0  0  0  0  0
   -3.5810   -1.1980    2.4170 C   0  0  0  0  0  0  0  0  0  0  0  0
   -1.0290    0.3400   -1.5680 C   0  0  1  0  0  0  0  0  0  0  0  0
   -1.9800   -0.5200   -2.2080 O   0  0  0  0  0  0  0  0  0  0  0  0
   -1.6780    1.6980   -1.5980 C   0  0  0  0  0  0  0  0  0  0  0  0
   -0.9150    2.6860   -1.0200 O   0  0  0  0  0  0  0  0  0  0  0  0
  1  2  1  0
  2  3  1  0
  3  4  1  0
  4  5  1  0
  5  6  1  0
  5  7  2  3
  7  8  1  0
  7 12  1  0
  8  9  2  0
  8 10  1  0
 10 11  1  0
 12 13  1  6
 12 14  1  0
 14 15  1  0
M  END
