
     RDKit          3D

 15 14  0  0  0  0  0  0  0  0999 V2000
    5.1110   -0.1900   -1.5970 C   0  0  0  0  0  0  0  0  0  0  0  0
    4.4290   -0.1090   -0.2530 C   0  0  0  0  0  0  0  0  0  0  0  0
    3.0290    0.3660   -0.3990 C   0  0  0  0  0  0  0  0  0  0  0  0
    2.0170   -0.3630   -0.0110 C   0  0  0  0  0  0  0  0  0  0  0  0
    2.2360   -1.6030    0.5480 O   0  0  0  0  0  0  0  0  0  0  0  0
    0.6660    0.1230   -0.1650 C   0  0  0  0  0  0  0  0  0  0  0  0
    0.4700    1.2730   -0.6830 O   0  0  0  0  0  0  0  0  0  0  0  0
   -0.4520   -0.5870    0.2190 O   0  0  0  0  0  0  0  0  0  0  0  0
   -1.7390    0.0050    0.0140 C   0  0  2  0  0  0  0  0  0  0  0  0
   -2.4080    0.2350    1.3270 C   0  0  0  0  0  0  0  0  0  0  0  0
   -3.7750    0.8620    1.2080 C   0  0  0  0  0  0  0  0  0  0  0  0
   -4.3520    1.0680    2.4660 O   0  0  0  0  0  0  0  0  0  0  0  0
   -2.4680   -0.8060   -0.9560 C   0  0  0  0  0  0  0  0  0  0  0  0
   -3.7690   -0.5450   -1.4650 N   0  0  0  0  0  0  0  0  0  0  0  0
   -1.9100   -1.8470   -1.4030 O   0  0  0  0  0  0  0  0  0  0  0  0
  1  2  1  0
  2  3  1  0
  3  4  2  3
  4  5  1  0
  4  6  1  0
  6  7  2  0
  6  8  1  0
  8  9  1  0
  9 10  1  1
  9 13  1  0
 10 11  1  0
 11 12  1  0
 13 14  1  0
 13 15  2  0
M  END
