
     RDKit          3D

 15 14  0  0  0  0  0  0  0  0999 V2000
    4.4100    1.4150    0.6860 C   0  0  0  0  0  0  0  0  0  0  0  0
    3.1170    0.9930    1.1430 O   0  0  0  0  0  0  0  0  0  0  0  0
    2.8670   -0.3610    1.2780 C   0  0  0  0  0  0  0  0  0  0  0  0
    1.7530   -0.9270    0.8030 C   0  0  0  0  0  0  0  0  0  0  0  0
    0.7400   -0.1760    0.1220 C   0  0  0  0  0  0  0  0  0  0  0  0
   -0.3510   -0.6960   -0.3490 C   0  0  0  0  0  0  0  0  0  0  0  0
   -1.2310    0.2180   -0.9920 O   0  0  0  0  0  0  0  0  0  0  0  0
   -1.8270    1.1640   -0.1250 C   0  0  0  0  0  0  0  0  0  0  0  0
   -2.7260    2.0770   -0.8670 C   0  0  0  0  0  0  0  0  0  0  0  0
   -3.3900    3.0780   -0.1150 N   0  0  0  0  0  0  0  0  0  0  0  0
   -2.8560    1.9260   -2.1020 O   0  0  0  0  0  0  0  0  0  0  0  0
   -0.8030   -2.0600   -0.3180 C   0  0  0  0  0  0  0  0  0  0  0  0
   -0.0930   -3.0860    0.2580 O   0  0  0  0  0  0  0  0  0  0  0  0
   -1.9730   -2.3850   -0.8700 C   0  0  0  0  0  0  0  0  0  0  0  0
   -2.4030   -3.6990   -0.8370 O   0  0  0  0  0  0  0  0  0  0  0  0
  1  2  1  0
  2  3  1  0
  3  4  2  3
  4  5  1  0
  5  6  2  3
  6  7  1  0
  6 12  1  0
  7  8  1  0
  8  9  1  0
  9 10  1  0
  9 11  2  0
 12 13  1  0
 12 14  2  3
 14 15  1  0
M  END
