
     RDKit          3D

 21 24  0  0  0  0  0  0  0  0999 V2000
    1.5150    1.6880   -2.5500 C   0  0  0  0  0  0  0  0  0  0  0  0
    1.9650    1.4490   -1.1270 C   0  0  0  0  0  0  0  0  0  0  0  0
    1.8350    0.0210   -0.6710 C   0  0  1  0  0  0  0  0  0  0  0  0
    0.5010   -0.5770   -0.6500 C   0  0  0  0  0  0  0  0  0  0  0  0
   -0.5850   -0.0700    0.2110 C   0  0  2  0  0  0  0  0  0  0  0  0
   -0.2710   -0.1320    1.6910 C   0  0  0  0  0  0  0  0  0  0  0  0
    0.0880   -1.5070    2.0930 C   0  0  0  0  0  0  0  0  0  0  0  0
   -1.0800   -2.4470    1.9070 C   0  0  0  0  0  0  0  0  0  0  0  0
   -1.6730   -2.3480    0.5300 C   0  0  0  0  0  0  0  0  0  0  0  0
   -1.7700   -0.9930   -0.0160 C   0  0  2  0  0  0  0  0  0  0  0  0
   -1.8810   -1.0920   -1.4260 O   0  0  0  0  0  0  0  0  0  0  0  0
   -2.9930   -0.2210    0.4210 C   0  0  0  0  0  0  0  0  0  0  0  0
   -2.7010    1.1080   -0.2360 C   0  0  1  0  0  0  0  0  0  0  0  0
   -3.2360    2.2930    0.4840 C   0  0  0  0  0  0  0  0  0  0  0  0
   -2.0910    2.8650    1.2750 C   0  0  0  0  0  0  0  0  0  0  0  0
   -0.9640    2.2820    0.9090 C   0  0  0  0  0  0  0  0  0  0  0  0
   -1.1800    1.2620   -0.1530 C   0  0  1  0  0  0  0  0  0  0  0  0
    2.7150   -0.8130   -1.6320 C   0  0  0  0  0  0  0  0  0  0  0  0
    3.7420   -1.4160   -0.6960 C   0  0  0  0  0  0  0  0  0  0  0  0
    3.8260   -0.2950    0.3390 C   0  0  0  0  0  0  0  0  0  0  0  0
    2.5040   -0.0260    0.5600 O   0  0  0  0  0  0  0  0  0  0  0  0
  1  2  1  0
  3  2  1  6
  3  4  1  0
  3 18  1  0
  3 21  1  0
  5  4  1  6
  5  6  1  0
  5 10  1  0
  5 17  1  0
  6  7  1  0
  7  8  1  0
  8  9  1  0
  9 10  1  0
 10 11  1  6
 10 12  1  0
 13 12  1  1
 13 14  1  0
 13 17  1  0
 14 15  1  0
 15 16  2  0
 17 16  1  1
 18 19  1  0
 19 20  1  0
 20 21  1  0
M  END
