
     RDKit          3D

 21 24  0  0  0  0  0  0  0  0999 V2000
    3.7960   -2.2150   -0.6630 C   0  0  0  0  0  0  0  0  0  0  0  0
    2.7630   -1.3270   -0.0120 C   0  0  1  0  0  0  0  0  0  0  0  0
    2.0960   -1.9300    1.1890 C   0  0  0  0  0  0  0  0  0  0  0  0
    2.9950    0.1460    0.0620 C   0  0  0  0  0  0  0  0  0  0  0  0
    2.0100   -0.3950   -0.9180 C   0  0  2  0  0  0  0  0  0  0  0  0
    0.5410   -0.2440   -0.6170 C   0  0  0  0  0  0  0  0  0  0  0  0
   -0.1230    0.8310   -0.4670 C   0  0  0  0  0  0  0  0  0  0  0  0
    0.4550    2.1810   -0.6000 C   0  0  0  0  0  0  0  0  0  0  0  0
   -0.3250    3.2260   -0.2910 C   0  0  0  0  0  0  0  0  0  0  0  0
    0.1230    4.6290   -0.3760 C   0  0  0  0  0  0  0  0  0  0  0  0
    1.3170    4.7840   -1.0770 O   0  0  0  0  0  0  0  0  0  0  0  0
    2.1140    3.7220   -1.4050 C   0  0  0  0  0  0  0  0  0  0  0  0
    1.7250    2.4570   -1.1860 C   0  0  0  0  0  0  0  0  0  0  0  0
   -1.5990    0.8610   -0.1200 C   0  0  0  0  0  0  0  0  0  0  0  0
   -2.2050   -0.4460    0.0050 C   0  0  1  0  0  0  0  0  0  0  0  0
   -2.2310   -0.9520    1.4350 C   0  0  0  0  0  0  0  0  0  0  0  0
   -3.6070   -0.5900   -0.5450 C   0  0  0  0  0  0  0  0  0  0  0  0
   -3.7230   -2.1170   -0.6400 C   0  0  0  0  0  0  0  0  0  0  0  0
   -2.2990   -2.6510   -0.7120 C   0  0  0  0  0  0  0  0  0  0  0  0
   -1.4990   -1.4270   -0.9120 C   0  0  2  0  0  0  0  0  0  0  0  0
   -0.1570   -1.5040   -0.4960 O   0  0  0  0  0  0  0  0  0  0  0  0
  2  1  1  6
  2  3  1  0
  2  4  1  0
  2  5  1  0
  4  5  1  0
  5  6  1  1
  6  7  2  0
  6 21  1  0
  7  8  1  0
  7 14  1  0
  8  9  2  0
  8 13  1  0
  9 10  1  0
 10 11  1  0
 11 12  1  0
 12 13  2  0
 14 15  1  0
 15 16  1  1
 15 17  1  0
 15 20  1  0
 17 18  1  0
 18 19  1  0
 20 19  1  1
 20 21  1  0
M  END
