
     RDKit          3D

 21 23  0  0  0  0  0  0  0  0999 V2000
    4.5010   -2.1950    1.4700 C   0  0  0  0  0  0  0  0  0  0  0  0
    3.2810   -1.9870    0.9530 C   0  0  0  0  0  0  0  0  0  0  0  0
    2.4740   -3.1140    0.8940 O   0  0  0  0  0  0  0  0  0  0  0  0
    2.8720   -0.6820    0.5040 C   0  0  0  0  0  0  0  0  0  0  0  0
    1.7070   -0.4070   -0.0100 C   0  0  0  0  0  0  0  0  0  0  0  0
    0.6730   -1.4240   -0.1890 C   0  0  0  0  0  0  0  0  0  0  0  0
   -0.6020   -1.0860    0.0940 C   0  0  0  0  0  0  0  0  0  0  0  0
   -1.6820   -2.0330   -0.0550 C   0  0  0  0  0  0  0  0  0  0  0  0
   -2.8840   -1.5820   -0.3640 C   0  0  0  0  0  0  0  0  0  0  0  0
   -3.9920   -2.5610   -0.5160 C   0  0  0  0  0  0  0  0  0  0  0  0
   -3.0560   -0.1300   -0.5440 C   0  0  0  0  0  0  0  0  0  0  0  0
   -2.3230    0.5690    0.5800 C   0  0  2  0  0  0  0  0  0  0  0  0
   -2.6720    2.0270    0.5040 C   0  0  0  0  0  0  0  0  0  0  0  0
   -1.5210    2.8150    1.0540 C   0  0  0  0  0  0  0  0  0  0  0  0
   -0.3520    2.6810    0.1120 C   0  0  0  0  0  0  0  0  0  0  0  0
   -0.1200    1.2500   -0.3230 C   0  0  1  0  0  0  0  0  0  0  0  0
    1.3290    0.9700   -0.4490 C   0  0  2  0  0  0  0  0  0  0  0  0
    1.8070    1.1780   -1.8690 C   0  0  0  0  0  0  0  0  0  0  0  0
    3.2980    1.0260   -1.9700 C   0  0  0  0  0  0  0  0  0  0  0  0
   -0.8530    0.2940    0.5610 C   0  0  2  0  0  0  0  0  0  0  0  0
   -0.3240    0.3510    1.8710 O   0  0  0  0  0  0  0  0  0  0  0  0
  1  2  2  0
  2  3  1  0
  2  4  1  0
  4  5  2  3
  5  6  1  0
  5 17  1  0
  6  7  2  0
  7  8  1  0
  7 20  1  0
  8  9  2  0
  9 10  1  0
  9 11  1  0
 12 11  1  6
 12 13  1  0
 12 20  1  0
 13 14  1  0
 14 15  1  0
 16 15  1  1
 16 17  1  0
 16 20  1  0
 17 18  1  6
 18 19  1  0
 20 21  1  1
M  END
