
     RDKit          3D

 20 20  0  0  0  0  0  0  0  0999 V2000
   -0.8260   -0.0100    1.9950 O   0  0  0  0  0  0  0  0  0  0  0  0
   -0.7380   -0.2920    0.7750 C   0  0  0  0  0  0  0  0  0  0  0  0
    0.5110   -0.1600    0.1500 N   0  0  0  0  0  0  0  0  0  0  0  0
    1.7110    0.2860    0.8400 C   0  0  0  0  0  0  0  0  0  0  0  0
    2.9020    0.3370   -0.0560 C   0  0  2  0  0  0  0  0  0  0  0  0
    3.1930   -0.9060   -0.5960 O   0  0  0  0  0  0  0  0  0  0  0  0
    4.0690    0.8940    0.6910 C   0  0  1  0  0  0  0  0  0  0  0  0
    4.4520    0.0750    1.7360 O   0  0  0  0  0  0  0  0  0  0  0  0
    5.2410    1.2150   -0.2110 C   0  0  0  0  0  0  0  0  0  0  0  0
    5.8070    0.0840   -0.7740 O   0  0  0  0  0  0  0  0  0  0  0  0
   -1.9700   -0.7460    0.0820 C   0  0  2  0  0  0  0  0  0  0  0  0
   -1.6860   -2.2130   -0.3030 C   0  0  0  0  0  0  0  0  0  0  0  0
   -1.4520   -2.9380    0.8640 O   0  0  0  0  0  0  0  0  0  0  0  0
   -2.2560    0.0260   -1.1630 C   0  0  0  0  0  0  0  0  0  0  0  0
   -3.7480    0.1880   -1.3960 C   0  0  1  0  0  0  0  0  0  0  0  0
   -4.4320   -0.9440   -0.9700 O   0  0  0  0  0  0  0  0  0  0  0  0
   -4.2510    1.2990   -0.7360 O   0  0  0  0  0  0  0  0  0  0  0  0
   -3.6050    1.5470    0.4660 C   0  0  0  0  0  0  0  0  0  0  0  0
   -3.5620    0.3730    1.3790 C   0  0  0  0  0  0  0  0  0  0  0  0
   -3.0690   -0.7890    0.8820 O   0  0  0  0  0  0  0  0  0  0  0  0
  1  2  2  0
  2  3  1  0
  2 11  1  0
  3  4  1  0
  4  5  1  0
  5  6  1  1
  5  7  1  0
  7  8  1  1
  7  9  1  0
  9 10  1  0
 11 12  1  6
 11 14  1  0
 11 20  1  0
 12 13  1  0
 14 15  1  0
 15 16  1  1
 15 17  1  0
 17 18  1  0
 18 19  1  0
 19 20  1  0
M  END
