
     RDKit          3D

 21 23  0  0  0  0  0  0  0  0999 V2000
    5.2210    0.2190    0.6190 C   0  0  0  0  0  0  0  0  0  0  0  0
    4.0890    1.1340    0.2870 C   0  0  0  0  0  0  0  0  0  0  0  0
    2.8650    0.3380   -0.0080 C   0  0  0  0  0  0  0  0  0  0  0  0
    2.2770    0.4280   -1.1890 C   0  0  0  0  0  0  0  0  0  0  0  0
    1.0620   -0.4040   -1.3950 C   0  0  0  0  0  0  0  0  0  0  0  0
    0.1160   -0.1850   -0.2250 C   0  0  1  0  0  0  0  0  0  0  0  0
    0.7840   -0.6050    1.0840 C   0  0  0  0  0  0  0  0  0  0  0  0
    2.2660   -0.5530    0.9740 C   0  0  0  0  0  0  0  0  0  0  0  0
    3.0450   -1.2400    1.6870 O   0  0  0  0  0  0  0  0  0  0  0  0
    0.0050    1.3500   -0.1220 C   0  0  0  0  0  0  0  0  0  0  0  0
   -1.1710    1.7340    0.6990 C   0  0  0  0  0  0  0  0  0  0  0  0
   -1.4160    2.5010    1.7290 C   0  0  0  0  0  0  0  0  0  0  0  0
   -2.8540    2.4480    2.0780 C   0  0  0  0  0  0  0  0  0  0  0  0
   -3.4040    1.5200    1.0740 C   0  0  0  0  0  0  0  0  0  0  0  0
   -2.4290    1.1250    0.2980 C   0  0  0  0  0  0  0  0  0  0  0  0
   -2.2810    0.2040   -0.8910 C   0  0  2  0  0  0  0  0  0  0  0  0
   -3.5920   -0.4770   -1.0810 C   0  0  0  0  0  0  0  0  0  0  0  0
   -1.2220   -0.8130   -0.4190 C   0  0  2  0  0  0  0  0  0  0  0  0
   -1.6680   -1.1850    0.8610 O   0  0  0  0  0  0  0  0  0  0  0  0
   -1.3060   -1.9430   -1.3760 C   0  0  0  0  0  0  0  0  0  0  0  0
   -0.4960   -3.1520   -1.0910 C   0  0  0  0  0  0  0  0  0  0  0  0
  1  2  1  0
  2  3  1  0
  3  4  2  0
  3  8  1  0
  4  5  1  0
  6  5  1  6
  6  7  1  0
  6 10  1  0
  6 18  1  0
  7  8  1  0
  8  9  2  0
 10 11  1  0
 11 12  2  0
 11 15  1  0
 12 13  1  0
 13 14  1  0
 14 15  2  0
 15 16  1  0
 16 17  1  1
 16 18  1  0
 18 19  1  1
 18 20  1  0
 20 21  1  0
M  END
