
     RDKit          3D

 21 24  0  0  0  0  0  0  0  0999 V2000
   -4.3080   -0.6810   -1.9870 O   0  0  0  0  0  0  0  0  0  0  0  0
   -3.3460    0.1460   -1.3720 C   0  0  2  0  0  0  0  0  0  0  0  0
   -2.0120   -0.5340   -1.1440 C   0  0  0  0  0  0  0  0  0  0  0  0
   -2.2670   -0.5630    0.3440 C   0  0  1  0  0  0  0  0  0  0  0  0
   -1.3110    0.2870    1.1200 C   0  0  0  0  0  0  0  0  0  0  0  0
    0.1020   -0.2050    0.8850 C   0  0  0  0  0  0  0  0  0  0  0  0
    1.0120    0.5870    0.3560 C   0  0  0  0  0  0  0  0  0  0  0  0
    2.4090    0.1490    0.1060 C   0  0  1  0  0  0  0  0  0  0  0  0
    2.9050    1.0500   -1.0260 C   0  0  0  0  0  0  0  0  0  0  0  0
    4.3180    0.7790   -1.4210 C   0  0  0  0  0  0  0  0  0  0  0  0
    5.2140    0.9280   -0.2100 C   0  0  0  0  0  0  0  0  0  0  0  0
    4.7330   -0.0360    0.8240 C   0  0  0  0  0  0  0  0  0  0  0  0
    3.3120    0.2060    1.2840 C   0  0  0  0  0  0  0  0  0  0  0  0
    2.2840   -1.2310   -0.5020 C   0  0  0  0  0  0  0  0  0  0  0  0
    1.3930   -2.1660    0.2360 C   0  0  0  0  0  0  0  0  0  0  0  0
    0.4920   -1.5830    1.2570 C   0  0  0  0  0  0  0  0  0  0  0  0
   -3.5590    0.1430    0.1060 C   0  0  1  0  0  0  0  0  0  0  0  0
   -3.7040    1.5180    0.6690 C   0  0  0  0  0  0  0  0  0  0  0  0
   -5.2120    1.5780    0.9480 C   0  0  0  0  0  0  0  0  0  0  0  0
   -5.4140    0.3010    1.4890 O   0  0  0  0  0  0  0  0  0  0  0  0
   -4.8010   -0.5630    0.5870 C   0  0  0  0  0  0  0  0  0  0  0  0
  2  1  1  6
  2  3  1  0
  2 17  1  0
  3  4  1  0
  4  5  1  1
  4 17  1  0
  5  6  1  0
  6  7  2  0
  6 16  1  0
  7  8  1  0
  8  9  1  6
  8 13  1  0
  8 14  1  0
  9 10  1  0
 10 11  1  0
 11 12  1  0
 12 13  1  0
 14 15  1  0
 15 16  1  0
 17 18  1  1
 17 21  1  0
 18 19  1  0
 19 20  1  0
 20 21  1  0
M  END
