
     RDKit          3D

 28 30  0  0  0  0  0  0  0  0999 V2000
   -6.7160    0.0060    2.8680 C   0  0  0  0  0  0  0  0  0  0  0  0
   -6.5780    0.6660    1.5480 C   0  0  0  0  0  0  0  0  0  0  0  0
   -5.2060    0.9710    1.0650 C   0  0  0  0  0  0  0  0  0  0  0  0
   -4.2830   -0.1560    0.8070 C   0  0  2  0  0  0  0  0  0  0  0  0
   -4.0070   -0.9760    2.0020 C   0  0  0  0  0  0  0  0  0  0  0  0
   -2.9700   -2.0890    1.7720 C   0  0  0  0  0  0  0  0  0  0  0  0
   -1.7220   -1.4160    1.2500 C   0  0  2  0  0  0  0  0  0  0  0  0
   -1.3740   -0.4370    2.1610 O   0  0  0  0  0  0  0  0  0  0  0  0
   -2.1200   -0.8530   -0.1040 C   0  0  2  0  0  0  0  0  0  0  0  0
   -0.9550   -0.5950   -1.0040 C   0  0  2  0  0  0  0  0  0  0  0  0
    0.0320    0.4030   -0.4260 C   0  0  0  0  0  0  0  0  0  0  0  0
    1.2690    0.2130   -1.2820 C   0  0  2  0  0  0  0  0  0  0  0  0
    2.4060    1.1010   -0.8920 C   0  0  0  0  0  0  0  0  0  0  0  0
    2.8780    0.8980    0.5310 C   0  0  1  0  0  0  0  0  0  0  0  0
    3.3590   -0.4860    0.8070 C   0  0  0  0  0  0  0  0  0  0  0  0
    4.6750   -0.8000    0.1290 C   0  0  0  0  0  0  0  0  0  0  0  0
    5.6660    0.2560    0.5340 C   0  0  2  0  0  0  0  0  0  0  0  0
    6.8900   -0.3930    1.1890 C   0  0  0  0  0  0  0  0  0  0  0  0
    7.7510    0.6500    1.5300 O   0  0  0  0  0  0  0  0  0  0  0  0
    5.1160    1.2350    1.5190 C   0  0  0  0  0  0  0  0  0  0  0  0
    3.9100    1.9080    0.9280 C   0  0  1  0  0  0  0  0  0  0  0  0
    4.3050    2.7170   -0.1350 O   0  0  0  0  0  0  0  0  0  0  0  0
    0.9550    0.2710   -2.7490 C   0  0  0  0  0  0  0  0  0  0  0  0
   -0.4390    0.0790   -3.1600 C   0  0  2  0  0  0  0  0  0  0  0  0
   -0.5570   -1.1300   -4.1040 C   0  0  0  0  0  0  0  0  0  0  0  0
   -0.9060    1.2710   -4.0140 C   0  0  0  0  0  0  0  0  0  0  0  0
   -1.3810   -0.0950   -2.1930 O   0  0  0  0  0  0  0  0  0  0  0  0
   -3.0550    0.3020    0.0350 C   0  0  0  0  0  0  0  0  0  0  0  0
  1  2  1  0
  2  3  1  0
  4  3  1  1
  4  5  1  0
  4 28  1  0
  5  6  1  0
  6  7  1  0
  7  8  1  1
  7  9  1  0
  9 10  1  0
  9 28  1  1
 10 11  1  1
 10 27  1  0
 11 12  1  0
 12 13  1  1
 12 23  1  0
 14 13  1  6
 14 15  1  0
 14 21  1  0
 15 16  1  0
 16 17  1  0
 17 18  1  1
 17 20  1  0
 18 19  1  0
 20 21  1  0
 21 22  1  6
 23 24  1  0
 24 25  1  6
 24 26  1  0
 24 27  1  0
M  END
