
     RDKit          3D

 28 31  0  0  0  0  0  0  0  0999 V2000
   -5.0580   -3.2030    0.5960 C   0  0  0  0  0  0  0  0  0  0  0  0
   -3.8650   -2.3850    0.0610 C   0  0  0  0  0  0  0  0  0  0  0  0
   -2.9490   -2.1680    1.2260 C   0  0  0  0  0  0  0  0  0  0  0  0
   -1.6870   -1.3900    0.9070 C   0  0  2  0  0  0  0  0  0  0  0  0
   -0.9600   -1.2780    2.0500 O   0  0  0  0  0  0  0  0  0  0  0  0
   -1.9590   -0.1650    0.1360 C   0  0  1  0  0  0  0  0  0  0  0  0
   -2.9120    0.7060    0.9250 C   0  0  0  0  0  0  0  0  0  0  0  0
   -3.7150    1.6540    0.0660 C   0  0  0  0  0  0  0  0  0  0  0  0
   -2.9090    2.8990   -0.2110 C   0  0  0  0  0  0  0  0  0  0  0  0
   -3.4350    4.0240   -0.6060 C   0  0  0  0  0  0  0  0  0  0  0  0
   -2.3350    4.9990   -0.7680 C   0  0  0  0  0  0  0  0  0  0  0  0
   -1.1380    4.2070   -0.3930 C   0  0  0  0  0  0  0  0  0  0  0  0
   -1.4590    2.9770   -0.0650 C   0  0  0  0  0  0  0  0  0  0  0  0
   -0.5310    1.8980    0.3620 C   0  0  0  0  0  0  0  0  0  0  0  0
   -0.8330    0.6160   -0.4180 C   0  0  2  0  0  0  0  0  0  0  0  0
   -1.4000    1.1810   -1.6400 O   0  0  0  0  0  0  0  0  0  0  0  0
    0.3720   -0.0470   -0.9100 C   0  0  0  0  0  0  0  0  0  0  0  0
    1.2890   -0.8670   -0.1240 C   0  0  2  0  0  0  0  0  0  0  0  0
    1.9510   -0.1820    1.0530 C   0  0  0  0  0  0  0  0  0  0  0  0
    3.0600    0.5910    0.6970 O   0  0  0  0  0  0  0  0  0  0  0  0
    4.1600   -0.2280    0.4260 C   0  0  2  0  0  0  0  0  0  0  0  0
    5.0450   -0.4550    1.5990 C   0  0  0  0  0  0  0  0  0  0  0  0
    6.4260   -0.2010    1.0020 C   0  0  0  0  0  0  0  0  0  0  0  0
    6.2680   -0.1620   -0.3660 O   0  0  0  0  0  0  0  0  0  0  0  0
    5.0320    0.4620   -0.5850 C   0  0  0  0  0  0  0  0  0  0  0  0
    3.6510   -1.5200   -0.2140 C   0  0  0  0  0  0  0  0  0  0  0  0
    2.5050   -1.1140   -1.1000 C   0  0  1  0  0  0  0  0  0  0  0  0
    2.1860   -2.2040   -2.0510 C   0  0  0  0  0  0  0  0  0  0  0  0
  1  2  1  0
  2  3  1  0
  3  4  1  0
  4  5  1  1
  4  6  1  0
  6  7  1  1
  6 15  1  0
  7  8  1  0
  8  9  1  0
  9 10  2  0
  9 13  1  0
 10 11  1  0
 11 12  1  0
 12 13  2  0
 13 14  1  0
 14 15  1  0
 15 16  1  6
 15 17  1  0
 18 17  1  6
 18 19  1  0
 18 27  1  0
 19 20  1  0
 20 21  1  0
 21 22  1  1
 21 25  1  0
 21 26  1  0
 22 23  1  0
 23 24  1  0
 24 25  1  0
 26 27  1  0
 27 28  1  6
M  END
