
     RDKit          3D

 28 31  0  0  0  0  0  0  0  0999 V2000
   -2.1650    1.7260   -1.9750 C   0  0  0  0  0  0  0  0  0  0  0  0
   -2.1940    1.5800   -0.4120 C   0  0  1  0  0  0  0  0  0  0  0  0
   -2.5130    3.0230    0.0390 C   0  0  0  0  0  0  0  0  0  0  0  0
   -3.3020    0.6950   -0.1560 C   0  0  2  0  0  0  0  0  0  0  0  0
   -4.4450    1.3940   -0.7580 O   0  0  0  0  0  0  0  0  0  0  0  0
   -3.8220    0.1440    1.0600 C   0  0  0  0  0  0  0  0  0  0  0  0
   -3.0500   -0.7520    1.9690 C   0  0  1  0  0  0  0  0  0  0  0  0
   -2.5700   -2.0130    1.2770 C   0  0  0  0  0  0  0  0  0  0  0  0
   -2.0260   -0.1860    2.8400 C   0  0  0  0  0  0  0  0  0  0  0  0
   -2.4580   -0.6180    4.2560 C   0  0  0  0  0  0  0  0  0  0  0  0
   -3.8570   -0.4280    4.1000 O   0  0  0  0  0  0  0  0  0  0  0  0
   -4.0720   -1.3040    3.0430 C   0  0  0  0  0  0  0  0  0  0  0  0
   -0.8050    1.3470    0.0210 C   0  0  2  0  0  0  0  0  0  0  0  0
    0.0300    2.5800   -0.4490 C   0  0  0  0  0  0  0  0  0  0  0  0
    1.4550    2.3960   -0.0050 C   0  0  0  0  0  0  0  0  0  0  0  0
    1.9000    1.1030    0.0300 O   0  0  0  0  0  0  0  0  0  0  0  0
    1.2670    0.2460   -0.8880 C   0  0  1  0  0  0  0  0  0  0  0  0
    1.2620    0.9840   -2.0680 O   0  0  0  0  0  0  0  0  0  0  0  0
    2.0080   -1.0170   -1.1020 C   0  0  2  0  0  0  0  0  0  0  0  0
    1.2180   -1.8880   -2.0680 C   0  0  0  0  0  0  0  0  0  0  0  0
    2.1310   -1.8970    0.1300 C   0  0  0  0  0  0  0  0  0  0  0  0
    3.5230   -2.5200   -0.0020 C   0  0  0  0  0  0  0  0  0  0  0  0
    4.2310   -1.2820   -0.3900 C   0  0  1  0  0  0  0  0  0  0  0  0
    5.5250   -1.3590   -1.0600 C   0  0  0  0  0  0  0  0  0  0  0  0
    5.4820   -0.1010   -1.9480 C   0  0  0  0  0  0  0  0  0  0  0  0
    4.0070    0.3660   -1.8990 C   0  0  0  0  0  0  0  0  0  0  0  0
    3.3650   -0.9200   -1.6230 C   0  0  2  0  0  0  0  0  0  0  0  0
   -0.1410    0.0890   -0.4300 C   0  0  0  0  0  0  0  0  0  0  0  0
  2  1  1  6
  2  3  1  0
  2  4  1  0
  2 13  1  0
  4  5  1  1
  4  6  1  0
  6  7  1  0
  7  8  1  6
  7  9  1  0
  7 12  1  0
  9 10  1  0
 10 11  1  0
 11 12  1  0
 13 14  1  6
 13 28  1  0
 14 15  1  0
 15 16  1  0
 16 17  1  0
 17 18  1  6
 17 19  1  0
 17 28  1  0
 19 20  1  6
 19 21  1  0
 19 27  1  0
 21 22  1  0
 23 22  1  6
 23 24  1  0
 23 27  1  0
 24 25  1  0
 25 26  1  0
 27 26  1  1
M  END
