
     RDKit          3D

 27 29  0  0  0  0  0  0  0  0999 V2000
    4.2880    3.0080   -0.5820 C   0  0  0  0  0  0  0  0  0  0  0  0
    3.2190    2.8520    0.4510 C   0  0  0  0  0  0  0  0  0  0  0  0
    2.2040    1.8150    0.3480 C   0  0  0  0  0  0  0  0  0  0  0  0
    2.4670    0.3540    0.4050 C   0  0  1  0  0  0  0  0  0  0  0  0
    3.3970    0.0700   -0.7510 C   0  0  0  0  0  0  0  0  0  0  0  0
    3.1170   -0.0030    1.7160 C   0  0  0  0  0  0  0  0  0  0  0  0
    4.4260    0.5930    2.0640 C   0  0  0  0  0  0  0  0  0  0  0  0
    1.1380   -0.4060    0.2340 C   0  0  1  0  0  0  0  0  0  0  0  0
    0.3400   -0.0110    1.3160 O   0  0  0  0  0  0  0  0  0  0  0  0
    0.4060    0.2310   -0.9250 C   0  0  0  0  0  0  0  0  0  0  0  0
   -0.8030   -0.4070   -1.4650 C   0  0  2  0  0  0  0  0  0  0  0  0
   -2.0970    0.0640   -0.8190 C   0  0  1  0  0  0  0  0  0  0  0  0
   -2.2000    1.5830   -0.8300 C   0  0  0  0  0  0  0  0  0  0  0  0
   -3.6720    1.9210   -0.6200 C   0  0  2  0  0  0  0  0  0  0  0  0
   -3.7930    3.1360    0.3120 C   0  0  0  0  0  0  0  0  0  0  0  0
   -4.4160    0.8070    0.0960 C   0  0  0  0  0  0  0  0  0  0  0  0
   -4.5210   -0.3880   -0.8200 C   0  0  1  0  0  0  0  0  0  0  0  0
   -4.5430   -1.6970   -0.0710 C   0  0  0  0  0  0  0  0  0  0  0  0
   -5.6420   -0.2840   -1.6300 O   0  0  0  0  0  0  0  0  0  0  0  0
   -3.2760   -0.3750   -1.6800 C   0  0  0  0  0  0  0  0  0  0  0  0
   -0.7830   -1.9120   -1.3640 C   0  0  0  0  0  0  0  0  0  0  0  0
   -0.3550   -2.2630    0.0010 C   0  0  1  0  0  0  0  0  0  0  0  0
   -0.2210   -3.6470    0.0790 O   0  0  0  0  0  0  0  0  0  0  0  0
    0.8630   -3.9540   -0.7000 C   0  0  0  0  0  0  0  0  0  0  0  0
    1.7760   -2.7130   -0.7090 C   0  0  0  0  0  0  0  0  0  0  0  0
    1.1210   -1.8540    0.3090 C   0  0  1  0  0  0  0  0  0  0  0  0
    1.3290   -2.5060    1.6540 C   0  0  0  0  0  0  0  0  0  0  0  0
  1  2  1  0
  2  3  1  0
  3  4  1  0
  4  5  1  6
  4  6  1  0
  4  8  1  0
  6  7  1  0
  8  9  1  1
  8 10  1  0
  8 26  1  0
 11 10  1  1
 11 12  1  0
 11 21  1  0
 12 13  1  6
 12 20  1  0
 13 14  1  0
 14 15  1  1
 14 16  1  0
 16 17  1  0
 17 18  1  1
 17 19  1  0
 17 20  1  0
 22 21  1  6
 22 23  1  0
 22 26  1  0
 23 24  1  0
 24 25  1  0
 25 26  1  0
 26 27  1  1
M  END
