
     RDKit          3D

 28 30  0  0  0  0  0  0  0  0999 V2000
   -4.7940   -2.8090   -1.3920 C   0  0  0  0  0  0  0  0  0  0  0  0
   -4.1350   -1.8120   -0.4330 C   0  0  0  0  0  0  0  0  0  0  0  0
   -2.6250   -2.0860   -0.5680 C   0  0  0  0  0  0  0  0  0  0  0  0
   -1.9340   -1.1770    0.3170 C   0  0  2  0  0  0  0  0  0  0  0  0
   -2.4340   -1.4650    1.7410 C   0  0  0  0  0  0  0  0  0  0  0  0
   -2.0580    0.2870   -0.0550 C   0  0  2  0  0  0  0  0  0  0  0  0
   -0.9970    0.2400   -1.1910 C   0  0  0  0  0  0  0  0  0  0  0  0
    0.1410   -0.0270   -0.2990 C   0  0  1  0  0  0  0  0  0  0  0  0
    1.5020   -0.1550   -0.8530 C   0  0  1  0  0  0  0  0  0  0  0  0
    1.7210   -1.2240   -1.8710 C   0  0  0  0  0  0  0  0  0  0  0  0
    1.8810    1.0440   -1.5150 O   0  0  0  0  0  0  0  0  0  0  0  0
    2.5730   -0.2370    0.2190 C   0  0  0  0  0  0  0  0  0  0  0  0
    3.9770   -0.3720   -0.2470 C   0  0  2  0  0  0  0  0  0  0  0  0
    4.4770    0.7410   -1.1300 C   0  0  0  0  0  0  0  0  0  0  0  0
    4.4540   -1.7300   -0.6030 C   0  0  0  0  0  0  0  0  0  0  0  0
    4.7670   -0.1090    1.0880 C   0  0  0  0  0  0  0  0  0  0  0  0
   -0.0440    1.2450    0.5750 C   0  0  1  0  0  0  0  0  0  0  0  0
    0.3040    2.4550   -0.1490 C   0  0  0  0  0  0  0  0  0  0  0  0
   -0.3900    3.7480    0.0480 C   0  0  0  0  0  0  0  0  0  0  0  0
   -1.0000    4.0410    1.3600 C   0  0  0  0  0  0  0  0  0  0  0  0
   -2.3920    3.3880    1.2200 C   0  0  0  0  0  0  0  0  0  0  0  0
   -2.1790    2.0440    1.7590 C   0  0  2  0  0  0  0  0  0  0  0  0
   -1.6290    2.2300    3.0590 O   0  0  0  0  0  0  0  0  0  0  0  0
   -1.4000    1.0320    1.0800 C   0  0  1  0  0  0  0  0  0  0  0  0
   -0.4160   -1.2480    0.3900 C   0  0  2  0  0  0  0  0  0  0  0  0
   -0.0240   -2.5490   -0.0530 C   0  0  0  0  0  0  0  0  0  0  0  0
    0.7810   -3.2650    0.6410 O   0  0  0  0  0  0  0  0  0  0  0  0
   -0.4170   -3.2230   -1.2260 O   0  0  0  0  0  0  0  0  0  0  0  0
  1  2  1  0
  2  3  1  0
  3  4  1  0
  4  5  1  1
  4  6  1  0
  4 25  1  0
  6  7  1  6
  6 24  1  0
  8  7  1  6
  8  9  1  0
  8 17  1  0
  8 25  1  0
  9 10  1  6
  9 11  1  0
  9 12  1  0
 12 13  1  0
 13 14  1  6
 13 15  1  0
 13 16  1  0
 17 18  1  6
 17 24  1  0
 18 19  1  0
 19 20  1  0
 20 21  1  0
 21 22  1  0
 22 23  1  1
 24 22  1  6
 25 26  1  6
 26 27  2  0
 26 28  1  0
M  END
