
     RDKit          3D

 21 24  0  0  0  0  0  0  0  0999 V2000
    0.0650    1.2000    1.8990 O   0  0  0  0  0  0  0  0  0  0  0  0
    0.1800    0.5190    0.8230 C   0  0  0  0  0  0  0  0  0  0  0  0
    1.4000    0.1680    0.4500 N   0  0  0  0  0  0  0  0  0  0  0  0
    1.6510   -0.5440   -0.6540 C   0  0  0  0  0  0  0  0  0  0  0  0
    2.8530   -0.8630   -0.9770 N   0  0  0  0  0  0  0  0  0  0  0  0
    3.9550   -0.4710   -0.1750 C   0  0  0  0  0  0  0  0  0  0  0  0
    4.7370    0.5550   -0.4420 C   0  0  0  0  0  0  0  0  0  0  0  0
    5.7920    0.6970    0.5850 C   0  0  0  0  0  0  0  0  0  0  0  0
    5.5030   -0.4270    1.5160 C   0  0  0  0  0  0  0  0  0  0  0  0
    4.4530   -1.0760    1.0600 C   0  0  0  0  0  0  0  0  0  0  0  0
    0.5880   -0.9170   -1.4190 N   0  0  0  0  0  0  0  0  0  0  0  0
   -0.6470   -0.5640   -1.0460 C   0  0  0  0  0  0  0  0  0  0  0  0
   -2.2700   -0.8590   -1.7740 S   0  0  0  0  0  0  0  0  0  0  0  0
   -3.2650    0.0430   -0.4810 C   0  0  0  0  0  0  0  0  0  0  0  0
   -4.6580    0.1590   -0.5120 C   0  0  0  0  0  0  0  0  0  0  0  0
   -5.4460    0.7850    0.3690 N   0  0  0  0  0  0  0  0  0  0  0  0
   -6.7340    0.6570   -0.0380 C   0  0  0  0  0  0  0  0  0  0  0  0
   -6.7390   -0.0730   -1.2110 C   0  0  0  0  0  0  0  0  0  0  0  0
   -5.4570   -0.3600   -1.4710 N   0  0  0  0  0  0  0  0  0  0  0  0
   -2.2560    0.4380    0.3120 C   0  0  0  0  0  0  0  0  0  0  0  0
   -0.9740    0.1660    0.0750 C   0  0  0  0  0  0  0  0  0  0  0  0
  1  2  2  0
  2  3  1  0
  2 21  1  0
  3  4  1  0
  4  5  2  3
  4 11  1  0
  5  6  1  0
  6  7  2  0
  6 10  1  0
  7  8  1  0
  8  9  1  0
  9 10  2  0
 11 12  1  0
 12 13  1  0
 12 21  2  0
 13 14  1  0
 14 15  1  0
 14 20  2  0
 15 16  2  0
 15 19  1  0
 16 17  1  0
 17 18  2  0
 18 19  1  0
 20 21  1  0
M  END
