
     RDKit          3D

 27 29  0  0  0  0  0  0  0  0999 V2000
    1.2110   -0.9440   -1.8160 O   0  0  0  0  0  0  0  0  0  0  0  0
    0.5090   -0.6950   -0.7940 C   0  0  0  0  0  0  0  0  0  0  0  0
   -0.8890   -1.0780   -0.7610 C   0  0  0  0  0  0  0  0  0  0  0  0
   -1.8770   -0.0690   -1.3700 C   0  0  0  0  0  0  0  0  0  0  0  0
   -3.2030   -0.7860   -1.3220 C   0  0  0  0  0  0  0  0  0  0  0  0
   -3.6670   -1.4740   -2.2060 O   0  0  0  0  0  0  0  0  0  0  0  0
   -3.9250   -0.6220   -0.2100 O   0  0  0  0  0  0  0  0  0  0  0  0
   -4.9950   -0.8070    0.5310 C   0  0  0  0  0  0  0  0  0  0  0  0
   -6.2930   -0.3520   -0.0680 C   0  0  0  0  0  0  0  0  0  0  0  0
   -7.0160   -1.0030   -1.0150 C   0  0  0  0  0  0  0  0  0  0  0  0
   -8.2890   -0.5220   -1.3270 C   0  0  0  0  0  0  0  0  0  0  0  0
   -8.8220    0.6080   -0.7080 C   0  0  0  0  0  0  0  0  0  0  0  0
   -8.0810    1.2400    0.2230 C   0  0  0  0  0  0  0  0  0  0  0  0
   -6.8470    0.7920    0.5580 C   0  0  0  0  0  0  0  0  0  0  0  0
   -5.8890    1.6480    1.7780 Cl  0  0  0  0  0  0  0  0  0  0  0  0
    1.1130   -0.0290    0.3210 N   0  0  0  0  0  0  0  0  0  0  0  0
    2.4780    0.3760    0.4570 C   0  0  0  0  0  0  0  0  0  0  0  0
    3.4820   -0.1260   -0.3310 C   0  0  0  0  0  0  0  0  0  0  0  0
    4.8140    0.1850    0.0380 C   0  0  0  0  0  0  0  0  0  0  0  0
    5.1390    0.9460    1.0980 C   0  0  0  0  0  0  0  0  0  0  0  0
    4.1290    1.4370    1.8380 N   0  0  0  0  0  0  0  0  0  0  0  0
    2.8580    1.1660    1.5530 C   0  0  0  0  0  0  0  0  0  0  0  0
    1.9130    1.5860    2.2430 O   0  0  0  0  0  0  0  0  0  0  0  0
    6.5120    1.2030    1.5640 C   0  0  0  0  0  0  0  0  0  0  0  0
    7.6180    0.5010    0.8580 C   0  0  0  0  0  0  0  0  0  0  0  0
    7.1700   -0.6450   -0.0490 C   0  0  0  0  0  0  0  0  0  0  0  0
    5.9050   -0.3830   -0.7900 C   0  0  0  0  0  0  0  0  0  0  0  0
  1  2  2  0
  2  3  1  0
  2 16  1  0
  3  4  1  0
  4  5  1  0
  5  6  2  0
  5  7  1  0
  7  8  1  0
  8  9  1  0
  9 10  2  0
  9 14  1  0
 10 11  1  0
 11 12  2  0
 12 13  1  0
 13 14  2  0
 14 15  1  0
 16 17  1  0
 17 18  2  0
 17 22  1  0
 18 19  1  0
 19 20  2  0
 19 27  1  0
 20 21  1  0
 20 24  1  0
 21 22  1  0
 22 23  2  0
 24 25  1  0
 25 26  1  0
 26 27  1  0
M  END
