
     RDKit          3D

 27 29  0  0  0  0  0  0  0  0999 V2000
    7.5090    1.6640    0.7570 C   0  0  0  0  0  0  0  0  0  0  0  0
    6.9400    0.8400   -0.1040 C   0  0  0  0  0  0  0  0  0  0  0  0
    7.2710   -0.6070   -0.1820 C   0  0  0  0  0  0  0  0  0  0  0  0
    6.0660   -1.3590    0.0840 N   0  0  0  0  0  0  0  0  0  0  0  0
    4.9100   -1.2410   -0.7190 C   0  0  0  0  0  0  0  0  0  0  0  0
    4.9440   -0.4510   -1.6960 O   0  0  0  0  0  0  0  0  0  0  0  0
    3.7160   -1.9690   -0.4730 N   0  0  0  0  0  0  0  0  0  0  0  0
    2.6250   -1.7970   -1.2990 O   0  0  0  0  0  0  0  0  0  0  0  0
    1.4620   -1.2500   -0.7860 C   0  0  0  0  0  0  0  0  0  0  0  0
    1.5150   -0.3630    0.1900 C   0  0  0  0  0  0  0  0  0  0  0  0
    0.2800    0.1980    0.7130 C   0  0  0  0  0  0  0  0  0  0  0  0
   -0.8980   -0.1770    0.2130 C   0  0  0  0  0  0  0  0  0  0  0  0
   -2.1430    0.3930    0.7460 C   0  0  0  0  0  0  0  0  0  0  0  0
   -2.0200    1.2400    1.6610 O   0  0  0  0  0  0  0  0  0  0  0  0
   -3.4550    0.0260    0.2680 C   0  0  0  0  0  0  0  0  0  0  0  0
   -3.6890   -1.2750   -0.1870 C   0  0  0  0  0  0  0  0  0  0  0  0
   -4.9460   -1.6790   -0.5880 C   0  0  0  0  0  0  0  0  0  0  0  0
   -6.0140   -0.8290   -0.5590 C   0  0  0  0  0  0  0  0  0  0  0  0
   -5.8120    0.4440   -0.1200 C   0  0  0  0  0  0  0  0  0  0  0  0
   -6.9240    1.2810   -0.1170 C   0  0  0  0  0  0  0  0  0  0  0  0
   -6.8020    2.5860    0.3000 C   0  0  0  0  0  0  0  0  0  0  0  0
   -5.5650    3.0090    0.7000 C   0  0  0  0  0  0  0  0  0  0  0  0
   -5.3560    4.6520    1.2350 Cl  0  0  0  0  0  0  0  0  0  0  0  0
   -4.4480    2.1660    0.6960 C   0  0  0  0  0  0  0  0  0  0  0  0
   -4.5610    0.8730    0.2860 C   0  0  0  0  0  0  0  0  0  0  0  0
   -0.9540   -1.0930   -0.7990 O   0  0  0  0  0  0  0  0  0  0  0  0
    0.1690   -1.6850   -1.3610 C   0  0  0  0  0  0  0  0  0  0  0  0
  1  2  2  0
  2  3  1  0
  3  4  1  0
  4  5  1  0
  5  6  2  0
  5  7  1  0
  7  8  1  0
  8  9  1  0
  9 10  2  0
  9 27  1  0
 10 11  1  0
 11 12  2  0
 12 13  1  0
 12 26  1  0
 13 14  2  0
 13 15  1  0
 15 16  2  0
 15 25  1  0
 16 17  1  0
 17 18  2  0
 18 19  1  0
 19 20  2  0
 19 25  1  0
 20 21  1  0
 21 22  2  0
 22 23  1  0
 22 24  1  0
 24 25  2  0
 26 27  1  0
M  END
