
     RDKit          3D

 27 29  0  0  0  0  0  0  0  0999 V2000
    6.8610    0.4620   -1.6790 C   0  0  0  0  0  0  0  0  0  0  0  0
    5.8850    1.4370   -1.3450 O   0  0  0  0  0  0  0  0  0  0  0  0
    5.8120    1.4290    0.0790 C   0  0  0  0  0  0  0  0  0  0  0  0
    5.1290    0.2270    0.6090 C   0  0  0  0  0  0  0  0  0  0  0  0
    3.7630    0.0370    0.4000 C   0  0  0  0  0  0  0  0  0  0  0  0
    3.0320   -0.9510    0.9980 C   0  0  0  0  0  0  0  0  0  0  0  0
    1.6260   -1.1370    0.8720 O   0  0  0  0  0  0  0  0  0  0  0  0
    0.9400   -0.0520    0.1960 C   0  0  0  0  0  0  0  0  0  0  0  0
   -0.5340   -0.2660    0.1190 C   0  0  0  0  0  0  0  0  0  0  0  0
   -0.9060   -1.4580    0.2430 O   0  0  0  0  0  0  0  0  0  0  0  0
   -1.3890    0.8300   -0.0820 N   0  0  0  0  0  0  0  0  0  0  0  0
   -2.7650    0.7390   -0.1780 C   0  0  0  0  0  0  0  0  0  0  0  0
   -3.3930   -0.5140   -0.2440 C   0  0  0  0  0  0  0  0  0  0  0  0
   -4.7970   -0.5390   -0.2160 C   0  0  0  0  0  0  0  0  0  0  0  0
   -5.3420   -1.7180   -0.3890 C   0  0  0  0  0  0  0  0  0  0  0  0
   -6.7510   -2.1030   -0.4150 C   0  0  0  0  0  0  0  0  0  0  0  0
   -4.2230   -3.0570   -0.8340 Cl  0  0  0  0  0  0  0  0  0  0  0  0
   -5.5350    0.6100   -0.1150 C   0  0  0  0  0  0  0  0  0  0  0  0
   -4.8530    1.8550   -0.0500 C   0  0  0  0  0  0  0  0  0  0  0  0
   -3.5290    1.8610   -0.0850 N   0  0  0  0  0  0  0  0  0  0  0  0
   -5.9140    2.8700    0.0430 C   0  0  0  0  0  0  0  0  0  0  0  0
   -7.0790    2.3120    0.0450 C   0  0  0  0  0  0  0  0  0  0  0  0
   -6.8330    0.8680   -0.0510 C   0  0  0  0  0  0  0  0  0  0  0  0
    3.7380   -1.7980    1.8480 C   0  0  0  0  0  0  0  0  0  0  0  0
    5.1140   -1.6370    2.0840 C   0  0  0  0  0  0  0  0  0  0  0  0
    5.7940   -0.6260    1.4650 C   0  0  0  0  0  0  0  0  0  0  0  0
    7.1750   -0.4600    1.7180 O   0  0  0  0  0  0  0  0  0  0  0  0
  1  2  1  0
  2  3  1  0
  3  4  1  0
  4  5  2  0
  4 26  1  0
  5  6  1  0
  6  7  1  0
  6 24  2  0
  7  8  1  0
  8  9  1  0
  9 10  2  0
  9 11  1  0
 11 12  1  0
 12 13  2  0
 12 20  1  0
 13 14  1  0
 14 15  2  3
 14 18  1  0
 15 16  1  0
 15 17  1  0
 18 19  1  0
 18 23  2  0
 19 20  2  0
 19 21  1  0
 21 22  2  0
 22 23  1  0
 24 25  1  0
 25 26  2  0
 26 27  1  0
M  END
