
     RDKit          3D

 27 29  0  0  0  0  0  0  0  0999 V2000
   -5.2130   -1.8070   -0.9730 C   0  0  0  0  0  0  0  0  0  0  0  0
   -5.2980   -0.6290   -0.0770 C   0  0  0  0  0  0  0  0  0  0  0  0
   -4.3830   -0.2230    0.8490 C   0  0  0  0  0  0  0  0  0  0  0  0
   -3.1020   -0.8480    1.1780 C   0  0  0  0  0  0  0  0  0  0  0  0
   -2.3660   -0.3430    2.0670 O   0  0  0  0  0  0  0  0  0  0  0  0
   -2.6370   -1.9860    0.5630 O   0  0  0  0  0  0  0  0  0  0  0  0
   -1.4320   -2.6360    0.8210 C   0  0  0  0  0  0  0  0  0  0  0  0
   -0.2570   -1.7700    0.5710 C   0  0  0  0  0  0  0  0  0  0  0  0
   -0.3360   -0.5220   -0.0110 C   0  0  0  0  0  0  0  0  0  0  0  0
    0.9750   -0.0700   -0.0540 C   0  0  0  0  0  0  0  0  0  0  0  0
    1.7790   -1.0440    0.4930 C   0  0  0  0  0  0  0  0  0  0  0  0
    3.2460   -1.0060    0.6590 C   0  0  0  0  0  0  0  0  0  0  0  0
    3.8350   -1.9850    1.1810 O   0  0  0  0  0  0  0  0  0  0  0  0
    4.0210    0.0910    0.2530 N   0  0  0  0  0  0  0  0  0  0  0  0
    5.4630    0.1590    0.4020 C   0  0  2  0  0  0  0  0  0  0  0  0
    5.9210    1.2720    1.2790 C   0  0  0  0  0  0  0  0  0  0  0  0
    6.1650    0.1990   -0.9310 C   0  0  2  0  0  0  0  0  0  0  0  0
    7.6540    0.2690   -0.6640 C   0  0  0  0  0  0  0  0  0  0  0  0
    5.7380    1.4060   -1.7370 C   0  0  0  0  0  0  0  0  0  0  0  0
    1.0030   -2.0160    0.8410 O   0  0  0  0  0  0  0  0  0  0  0  0
   -4.8810    0.8870    1.4200 N   0  0  0  0  0  0  0  0  0  0  0  0
   -6.0910    1.1940    0.8780 C   0  0  0  0  0  0  0  0  0  0  0  0
   -6.3730    0.2420   -0.0740 C   0  0  0  0  0  0  0  0  0  0  0  0
   -7.5440    0.4900   -0.6380 C   0  0  0  0  0  0  0  0  0  0  0  0
   -8.1020    1.7070   -0.0180 C   0  0  0  0  0  0  0  0  0  0  0  0
   -7.0640    2.0870    0.9660 C   0  0  0  0  0  0  0  0  0  0  0  0
   -7.1190    3.4800    2.0550 Cl  0  0  0  0  0  0  0  0  0  0  0  0
  1  2  1  0
  2  3  2  0
  2 23  1  0
  3  4  1  0
  3 21  1  0
  4  5  2  0
  4  6  1  0
  6  7  1  0
  7  8  1  0
  8  9  2  0
  8 20  1  0
  9 10  1  0
 10 11  2  0
 11 12  1  0
 11 20  1  0
 12 13  2  0
 12 14  1  0
 14 15  1  0
 15 16  1  1
 15 17  1  0
 17 18  1  1
 17 19  1  0
 21 22  1  0
 22 23  1  0
 22 26  2  0
 23 24  2  0
 24 25  1  0
 25 26  1  0
 26 27  1  0
M  END
