
     RDKit          3D

 27 28  0  0  0  0  0  0  0  0999 V2000
   -5.0120    3.0060   -3.2640 C   0  0  0  0  0  0  0  0  0  0  0  0
   -3.9300    2.2880   -3.0810 C   0  0  0  0  0  0  0  0  0  0  0  0
   -3.3480    2.1390   -1.7660 C   0  0  0  0  0  0  0  0  0  0  0  0
   -2.2920    1.4710   -1.4090 C   0  0  0  0  0  0  0  0  0  0  0  0
   -1.4530    0.7000   -2.3440 C   0  0  0  0  0  0  0  0  0  0  0  0
   -1.3160    0.3460   -3.6020 C   0  0  0  0  0  0  0  0  0  0  0  0
   -0.1180   -0.5220   -3.8100 C   0  0  0  0  0  0  0  0  0  0  0  0
    0.5020   -0.6900   -2.4540 C   0  0  0  0  0  0  0  0  0  0  0  0
   -0.3850    0.1140   -1.5770 C   0  0  0  0  0  0  0  0  0  0  0  0
   -0.4720    0.4380   -0.2820 C   0  0  0  0  0  0  0  0  0  0  0  0
    0.4450    0.0110    0.7440 C   0  0  0  0  0  0  0  0  0  0  0  0
    0.3170    0.3380    1.9580 O   0  0  0  0  0  0  0  0  0  0  0  0
    1.5950   -0.8190    0.5260 N   0  0  0  0  0  0  0  0  0  0  0  0
    2.4750   -1.2070    1.6230 C   0  0  0  0  0  0  0  0  0  0  0  0
    3.5750   -2.0550    1.1580 C   0  0  0  0  0  0  0  0  0  0  0  0
    3.7580   -2.4170   -0.0270 O   0  0  0  0  0  0  0  0  0  0  0  0
    4.4910   -2.5000    2.0950 O   0  0  0  0  0  0  0  0  0  0  0  0
    5.5890   -3.3260    1.7420 C   0  0  0  0  0  0  0  0  0  0  0  0
    5.1490   -4.6040    1.1480 C   0  0  0  0  0  0  0  0  0  0  0  0
    6.1030   -5.5590    0.7330 N   0  0  0  0  0  0  0  0  0  0  0  0
    3.9250   -4.8240    1.0200 O   0  0  0  0  0  0  0  0  0  0  0  0
   -1.6710    1.3110   -0.0750 C   0  0  0  0  0  0  0  0  0  0  0  0
   -2.0390    1.8080    1.0680 C   0  0  0  0  0  0  0  0  0  0  0  0
   -3.0220    2.6260    1.6690 C   0  0  0  0  0  0  0  0  0  0  0  0
   -4.3910    3.4700    1.0750 Cl  0  0  0  0  0  0  0  0  0  0  0  0
   -2.8400    2.7830    3.0430 C   0  0  0  0  0  0  0  0  0  0  0  0
   -3.7990    3.6100    3.7710 C   0  0  0  0  0  0  0  0  0  0  0  0
  1  2  2  0
  2  3  1  0
  3  4  2  3
  4  5  1  0
  4 22  1  0
  5  6  2  0
  5  9  1  0
  6  7  1  0
  7  8  1  0
  8  9  1  0
  9 10  2  0
 10 11  1  0
 10 22  1  0
 11 12  2  0
 11 13  1  0
 13 14  1  0
 14 15  1  0
 15 16  2  0
 15 17  1  0
 17 18  1  0
 18 19  1  0
 19 20  1  0
 19 21  2  0
 22 23  2  3
 23 24  1  0
 24 25  1  0
 24 26  2  3
 26 27  1  0
M  END
