
     RDKit          3D

 12 12  0  0  0  0  0  0  0  0999 V2000
   -2.4510    0.6640   -0.2220 O   0  0  0  0  0  0  0  0  0  0  0  0
   -1.1160    0.3130   -0.1010 C   0  0  0  0  0  0  0  0  0  0  0  0
   -0.2040    1.3440   -0.0190 C   0  0  0  0  0  0  0  0  0  0  0  0
   -0.7750    3.1750   -0.0710 Br  0  0  0  0  0  0  0  0  0  0  0  0
    1.1300    1.0070    0.1020 C   0  0  0  0  0  0  0  0  0  0  0  0
    2.3910    2.4200    0.2150 Br  0  0  0  0  0  0  0  0  0  0  0  0
    1.5660   -0.3030    0.1420 C   0  0  0  0  0  0  0  0  0  0  0  0
    3.4140   -0.7210    0.3090 Br  0  0  0  0  0  0  0  0  0  0  0  0
    0.6570   -1.3360    0.0600 C   0  0  0  0  0  0  0  0  0  0  0  0
    1.2190   -3.1480    0.1110 Br  0  0  0  0  0  0  0  0  0  0  0  0
   -0.6800   -0.9890   -0.0610 C   0  0  0  0  0  0  0  0  0  0  0  0
   -1.9440   -2.4120   -0.1750 Br  0  0  0  0  0  0  0  0  0  0  0  0
  1  2  1  0
  2  3  2  0
  2 11  1  0
  3  4  1  0
  3  5  1  0
  5  6  1  0
  5  7  2  0
  7  8  1  0
  7  9  1  0
  9 10  1  0
  9 11  2  0
 11 12  1  0
M  END
