
     RDKit          3D

 27 29  0  0  0  0  0  0  0  0999 V2000
   -4.1390   -3.1660   -2.0100 C   0  0  0  0  0  0  0  0  0  0  0  0
   -3.1280   -2.2750   -1.4640 C   0  0  0  0  0  0  0  0  0  0  0  0
   -3.1560   -1.1620   -0.8400 C   0  0  0  0  0  0  0  0  0  0  0  0
   -1.8770   -0.6180   -0.4760 C   0  0  0  0  0  0  0  0  0  0  0  0
   -1.7300    0.5540    0.1880 C   0  0  0  0  0  0  0  0  0  0  0  0
   -0.4760    1.1020    0.5530 N   0  0  0  0  0  0  0  0  0  0  0  0
    0.8050    0.6000    0.3300 C   0  0  0  0  0  0  0  0  0  0  0  0
    0.9410   -0.4850   -0.2730 O   0  0  0  0  0  0  0  0  0  0  0  0
    2.0480    1.2990    0.7790 C   0  0  0  0  0  0  0  0  0  0  0  0
    3.1990    0.5620    0.4180 O   0  0  0  0  0  0  0  0  0  0  0  0
    4.4300    1.1100    0.7810 C   0  0  0  0  0  0  0  0  0  0  0  0
    4.4620    2.2090    1.4000 O   0  0  0  0  0  0  0  0  0  0  0  0
    5.6710    0.4230    0.4520 C   0  0  0  0  0  0  0  0  0  0  0  0
    5.6220   -0.7300   -0.1980 C   0  0  0  0  0  0  0  0  0  0  0  0
    6.8700   -1.4680   -0.5550 C   0  0  0  0  0  0  0  0  0  0  0  0
    8.0000   -0.4410   -0.6740 C   0  0  0  0  0  0  0  0  0  0  0  0
    8.0610    0.2910    0.6360 C   0  0  0  0  0  0  0  0  0  0  0  0
    6.8730    1.0000    0.8310 O   0  0  0  0  0  0  0  0  0  0  0  0
   -2.8620    1.2450    0.5250 N   0  0  0  0  0  0  0  0  0  0  0  0
   -4.0700    0.7580    0.1970 C   0  0  0  0  0  0  0  0  0  0  0  0
   -4.2600   -0.4310   -0.4800 C   0  0  0  0  0  0  0  0  0  0  0  0
   -5.4800   -0.8390   -0.7640 C   0  0  0  0  0  0  0  0  0  0  0  0
   -6.7360   -0.1040   -0.4080 C   0  0  0  0  0  0  0  0  0  0  0  0
   -6.4820    1.1520    0.3090 C   0  0  0  0  0  0  0  0  0  0  0  0
   -5.2620    1.5410    0.5830 C   0  0  0  0  0  0  0  0  0  0  0  0
   -5.0260    2.8270    1.3150 C   0  0  0  0  0  0  0  0  0  0  0  0
   -4.0520    3.9560    0.3520 Cl  0  0  0  0  0  0  0  0  0  0  0  0
  1  2  1  0
  2  3  2  3
  3  4  1  0
  3 21  1  0
  4  5  2  0
  5  6  1  0
  5 19  1  0
  6  7  1  0
  7  8  2  0
  7  9  1  0
  9 10  1  0
 10 11  1  0
 11 12  2  0
 11 13  1  0
 13 14  2  0
 13 18  1  0
 14 15  1  0
 15 16  1  0
 16 17  1  0
 17 18  1  0
 19 20  2  0
 20 21  1  0
 20 25  1  0
 21 22  2  0
 22 23  1  0
 23 24  1  0
 24 25  2  0
 25 26  1  0
 26 27  1  0
M  END
