
     RDKit          3D

 26 28  0  0  0  0  0  0  0  0999 V2000
    3.3520    3.8140    0.7100 C   0  0  0  0  0  0  0  0  0  0  0  0
    2.9680    3.2180   -0.4210 C   0  0  0  0  0  0  0  0  0  0  0  0
    1.8160    2.3070   -0.4820 C   0  0  0  0  0  0  0  0  0  0  0  0
    2.2300    1.0530   -0.9110 O   0  0  0  0  0  0  0  0  0  0  0  0
    1.3050   -0.0160   -1.0560 C   0  0  0  0  0  0  0  0  0  0  0  0
    0.0800    0.2340   -0.7850 C   0  0  0  0  0  0  0  0  0  0  0  0
   -1.0060   -0.7050   -0.8670 C   0  0  0  0  0  0  0  0  0  0  0  0
   -0.8600   -1.9110   -1.2240 O   0  0  0  0  0  0  0  0  0  0  0  0
   -2.3920   -0.3350   -0.5380 C   0  0  0  0  0  0  0  0  0  0  0  0
   -2.6680    0.9440   -0.1390 C   0  0  0  0  0  0  0  0  0  0  0  0
   -4.0090    1.2380    0.1620 C   0  0  0  0  0  0  0  0  0  0  0  0
   -4.3490    2.5570    0.5820 N   0  0  0  0  0  0  0  0  0  0  0  0
   -4.9960    0.2870    0.0600 C   0  0  0  0  0  0  0  0  0  0  0  0
   -6.3730    0.3180    0.2940 C   0  0  0  0  0  0  0  0  0  0  0  0
   -6.8380   -0.8800    0.0390 O   0  0  0  0  0  0  0  0  0  0  0  0
   -5.8860   -1.6860   -0.3390 C   0  0  0  0  0  0  0  0  0  0  0  0
   -4.7000   -0.9940   -0.3420 C   0  0  0  0  0  0  0  0  0  0  0  0
   -3.3810   -1.3040   -0.6440 C   0  0  0  0  0  0  0  0  0  0  0  0
    1.8820   -1.2740   -1.5010 C   0  0  0  0  0  0  0  0  0  0  0  0
    2.8970   -1.7830   -0.5690 N   0  0  0  0  0  0  0  0  0  0  0  0
    2.5900   -2.6010    0.4540 C   0  0  0  0  0  0  0  0  0  0  0  0
    3.5500   -3.0780    1.3290 C   0  0  0  0  0  0  0  0  0  0  0  0
    4.8770   -2.7130    1.1660 C   0  0  0  0  0  0  0  0  0  0  0  0
    5.1870   -1.8720    0.1140 C   0  0  0  0  0  0  0  0  0  0  0  0
    4.1840   -1.4360   -0.7180 C   0  0  0  0  0  0  0  0  0  0  0  0
    4.4890   -0.6720   -1.6680 O   0  0  0  0  0  0  0  0  0  0  0  0
  1  2  2  0
  2  3  1  0
  3  4  1  0
  4  5  1  0
  5  6  2  3
  5 19  1  0
  6  7  1  0
  7  8  2  0
  7  9  1  0
  9 10  1  0
  9 18  2  0
 10 11  2  0
 11 12  1  0
 11 13  1  0
 13 14  2  0
 13 17  1  0
 14 15  1  0
 15 16  1  0
 16 17  2  0
 17 18  1  0
 19 20  1  0
 20 21  1  0
 20 25  1  0
 21 22  2  0
 22 23  1  0
 23 24  2  0
 24 25  1  0
 25 26  2  0
M  END
