
     RDKit          3D

 27 29  0  0  0  0  0  0  0  0999 V2000
    8.0850    0.2620    0.1180 C   0  0  0  0  0  0  0  0  0  0  0  0
    6.6740    0.1470    0.2260 O   0  0  0  0  0  0  0  0  0  0  0  0
    6.0520   -0.4180    1.3210 C   0  0  0  0  0  0  0  0  0  0  0  0
    6.7430   -0.8530    2.2670 O   0  0  0  0  0  0  0  0  0  0  0  0
    4.6050   -0.4990    1.3580 C   0  0  0  0  0  0  0  0  0  0  0  0
    3.8840   -0.0380    0.3560 C   0  0  0  0  0  0  0  0  0  0  0  0
    2.4290   -0.0740    0.2990 C   0  0  0  0  0  0  0  0  0  0  0  0
    1.6410   -0.6020    1.3040 C   0  0  0  0  0  0  0  0  0  0  0  0
    0.2610   -0.6270    1.2310 C   0  0  0  0  0  0  0  0  0  0  0  0
   -0.5070   -1.2150    2.3510 C   0  0  0  0  0  0  0  0  0  0  0  0
   -0.3780   -0.1010    0.1020 C   0  0  0  0  0  0  0  0  0  0  0  0
   -1.8350   -0.1190    0.1080 C   0  0  0  0  0  0  0  0  0  0  0  0
   -2.4260   -0.1320    1.2350 O   0  0  0  0  0  0  0  0  0  0  0  0
   -2.6610   -0.1280   -1.0170 N   0  0  0  0  0  0  0  0  0  0  0  0
   -4.0510   -0.1300   -1.1840 C   0  0  0  0  0  0  0  0  0  0  0  0
   -5.0710   -0.1240   -0.3510 C   0  0  0  0  0  0  0  0  0  0  0  0
   -5.4910   -0.1150    1.0400 C   0  0  0  0  0  0  0  0  0  0  0  0
   -4.8330   -0.1070    2.0710 O   0  0  0  0  0  0  0  0  0  0  0  0
   -6.9380   -0.1150    1.0460 N   0  0  0  0  0  0  0  0  0  0  0  0
   -7.3710   -0.1240   -0.2840 C   0  0  0  0  0  0  0  0  0  0  0  0
   -6.3510   -0.1300   -1.0910 C   0  0  0  0  0  0  0  0  0  0  0  0
   -5.9740   -0.1390   -2.4800 C   0  0  0  0  0  0  0  0  0  0  0  0
   -4.6830   -0.1390   -2.5330 C   0  0  0  0  0  0  0  0  0  0  0  0
    0.3780    0.4190   -0.8850 C   0  0  0  0  0  0  0  0  0  0  0  0
   -0.2920    1.1730   -2.3290 Cl  0  0  0  0  0  0  0  0  0  0  0  0
    1.7900    0.4430   -0.8080 C   0  0  0  0  0  0  0  0  0  0  0  0
    2.6000    1.0220   -1.9160 C   0  0  0  0  0  0  0  0  0  0  0  0
  1  2  1  0
  2  3  1  0
  3  4  2  0
  3  5  1  0
  5  6  2  3
  6  7  1  0
  7  8  2  0
  7 26  1  0
  8  9  1  0
  9 10  1  0
  9 11  2  0
 11 12  1  0
 11 24  1  0
 12 13  2  0
 12 14  1  0
 14 15  1  0
 15 16  2  0
 15 23  1  0
 16 17  1  0
 16 21  1  0
 17 18  2  0
 17 19  1  0
 19 20  1  0
 20 21  2  0
 21 22  1  0
 22 23  2  0
 24 25  1  0
 24 26  2  0
 26 27  1  0
M  END
