
     RDKit          3D

 27 29  0  0  0  0  0  0  0  0999 V2000
   -4.4360    1.6560    0.6030 O   0  0  0  0  0  0  0  0  0  0  0  0
   -4.3700    0.5390    0.0970 C   0  0  0  0  0  0  0  0  0  0  0  0
   -3.1470   -0.1070   -0.1190 N   0  0  0  0  0  0  0  0  0  0  0  0
   -1.8790    0.3990    0.1870 C   0  0  0  0  0  0  0  0  0  0  0  0
   -1.6230    1.7000    0.5420 C   0  0  0  0  0  0  0  0  0  0  0  0
   -0.3340    2.1240    0.8470 C   0  0  0  0  0  0  0  0  0  0  0  0
    0.6960    1.2160    0.7890 C   0  0  0  0  0  0  0  0  0  0  0  0
    0.5010   -0.1030    0.4390 C   0  0  0  0  0  0  0  0  0  0  0  0
    1.6020   -1.0630    0.3860 C   0  0  0  0  0  0  0  0  0  0  0  0
    1.3280   -2.2550    0.0460 O   0  0  0  0  0  0  0  0  0  0  0  0
    2.9970   -0.7580    0.6960 C   0  0  0  0  0  0  0  0  0  0  0  0
    3.8480   -0.5950   -0.5540 C   0  0  0  0  0  0  0  0  0  0  0  0
    5.2180   -0.2960   -0.1820 N   0  0  0  0  0  0  0  0  0  0  0  0
    6.0750   -1.3110    0.0160 C   0  0  0  0  0  0  0  0  0  0  0  0
    7.3930   -1.1140    0.3750 C   0  0  0  0  0  0  0  0  0  0  0  0
    7.8250    0.1850    0.5310 C   0  0  0  0  0  0  0  0  0  0  0  0
    6.9590    1.2480    0.3320 C   0  0  0  0  0  0  0  0  0  0  0  0
    7.5570    2.8780    0.5420 Cl  0  0  0  0  0  0  0  0  0  0  0  0
    5.6530    0.9660   -0.0260 C   0  0  0  0  0  0  0  0  0  0  0  0
    4.8810    1.9460   -0.2030 O   0  0  0  0  0  0  0  0  0  0  0  0
   -0.7830   -0.4830    0.1450 C   0  0  0  0  0  0  0  0  0  0  0  0
   -5.6560   -0.0900   -0.2710 C   0  0  0  0  0  0  0  0  0  0  0  0
   -5.8130   -1.2730   -0.8220 C   0  0  0  0  0  0  0  0  0  0  0  0
   -7.2440   -1.5300   -1.0310 C   0  0  0  0  0  0  0  0  0  0  0  0
   -7.9100   -0.3210   -0.5200 C   0  0  0  0  0  0  0  0  0  0  0  0
   -6.9690    0.4910   -0.0890 C   0  0  0  0  0  0  0  0  0  0  0  0
   -7.2300    1.7540    0.4720 O   0  0  0  0  0  0  0  0  0  0  0  0
  1  2  2  0
  2  3  1  0
  2 22  1  0
  3  4  1  0
  4  5  2  0
  4 21  1  0
  5  6  1  0
  6  7  2  0
  7  8  1  0
  8  9  1  0
  8 21  2  0
  9 10  2  0
  9 11  1  0
 11 12  1  0
 12 13  1  0
 13 14  1  0
 13 19  1  0
 14 15  2  0
 15 16  1  0
 16 17  2  0
 17 18  1  0
 17 19  1  0
 19 20  2  0
 22 23  2  0
 22 26  1  0
 23 24  1  0
 24 25  1  0
 25 26  2  0
 26 27  1  0
M  END
