
     RDKit          3D

 21 23  0  0  0  0  0  0  0  0999 V2000
   -3.1930   -2.2600    0.5820 C   0  0  0  0  0  0  0  0  0  0  0  0
   -3.3340   -1.0340    0.1060 C   0  0  0  0  0  0  0  0  0  0  0  0
   -2.5320   -0.5140   -1.0140 C   0  0  2  0  0  0  0  0  0  0  0  0
   -1.0860   -1.0130   -1.0340 C   0  0  0  0  0  0  0  0  0  0  0  0
   -0.5030   -0.5780    0.2010 N   0  0  0  0  0  0  0  0  0  0  0  0
    0.9020   -0.5630    0.3330 C   0  0  0  0  0  0  0  0  0  0  0  0
    1.6850   -1.3270   -0.3160 N   0  0  0  0  0  0  0  0  0  0  0  0
    3.1110   -1.1880   -0.0710 C   0  0  0  0  0  0  0  0  0  0  0  0
    3.5570    0.2450    0.0510 C   0  0  2  0  0  0  0  0  0  0  0  0
    4.1930    0.6640   -1.2600 C   0  0  0  0  0  0  0  0  0  0  0  0
    5.5740    1.1610   -0.8890 C   0  0  0  0  0  0  0  0  0  0  0  0
    5.8950    0.2390    0.2940 C   0  0  0  0  0  0  0  0  0  0  0  0
    4.6370    0.3830    1.1100 C   0  0  0  0  0  0  0  0  0  0  0  0
    2.5000    1.1570    0.4360 N   0  0  0  0  0  0  0  0  0  0  0  0
    1.5500    0.4220    1.2810 C   0  0  0  0  0  0  0  0  0  0  0  0
   -2.3760    1.0050   -0.7980 C   0  0  0  0  0  0  0  0  0  0  0  0
   -3.7100    1.6280   -1.0390 C   0  0  0  0  0  0  0  0  0  0  0  0
   -4.8150    0.8790   -0.3620 C   0  0  0  0  0  0  0  0  0  0  0  0
   -4.3480   -0.0900    0.6920 C   0  0  1  0  0  0  0  0  0  0  0  0
   -5.5900   -0.8680    1.1210 C   0  0  0  0  0  0  0  0  0  0  0  0
   -3.7130    0.7070    2.1400 Cl  0  0  0  0  0  0  0  0  0  0  0  0
  1  2  2  0
  2  3  1  0
  2 19  1  0
  3  4  1  1
  3 16  1  0
  4  5  1  0
  5  6  1  0
  6  7  2  0
  6 15  1  0
  7  8  1  0
  9  8  1  6
  9 10  1  0
  9 13  1  0
  9 14  1  0
 10 11  1  0
 11 12  1  0
 12 13  1  0
 14 15  1  0
 16 17  1  0
 17 18  1  0
 18 19  1  0
 19 20  1  1
 19 21  1  0
M  END
