
     RDKit          3D

 21 23  0  0  0  0  0  0  0  0999 V2000
    3.3090    1.2440   -1.4140 C   0  0  0  0  0  0  0  0  0  0  0  0
    2.0140    0.7020   -0.7920 C   0  0  2  0  0  0  0  0  0  0  0  0
    1.5730    1.7210    0.1400 N   0  0  0  0  0  0  0  0  0  0  0  0
    0.4600    2.4980   -0.3080 C   0  0  0  0  0  0  0  0  0  0  0  0
   -0.5910    2.5610    0.8100 C   0  0  0  0  0  0  0  0  0  0  0  0
   -1.9740    2.6060    0.2940 C   0  0  0  0  0  0  0  0  0  0  0  0
   -2.6290    1.3150   -0.0200 C   0  0  0  0  0  0  0  0  0  0  0  0
   -2.4840    0.2300    0.9760 C   0  0  0  0  0  0  0  0  0  0  0  0
   -2.7610   -1.0480    0.3170 N   0  0  0  0  0  0  0  0  0  0  0  0
   -3.8300   -1.8830    0.4230 C   0  0  0  0  0  0  0  0  0  0  0  0
   -3.6540   -2.9810   -0.3910 C   0  0  0  0  0  0  0  0  0  0  0  0
   -2.4630   -2.7900   -0.9840 N   0  0  0  0  0  0  0  0  0  0  0  0
   -1.9120   -1.6140   -0.5580 C   0  0  0  0  0  0  0  0  0  0  0  0
   -0.6110   -1.0050   -0.9490 C   0  0  0  0  0  0  0  0  0  0  0  0
    0.4350   -2.0430   -0.9630 C   0  0  0  0  0  0  0  0  0  0  0  0
    1.5840   -1.7530   -0.0600 C   0  0  0  0  0  0  0  0  0  0  0  0
    2.1170   -2.6000    0.8060 C   0  0  0  0  0  0  0  0  0  0  0  0
    3.2430   -1.9720    1.5350 C   0  0  2  0  0  0  0  0  0  0  0  0
    2.8190   -1.9180    3.2610 Cl  0  0  0  0  0  0  0  0  0  0  0  0
    3.2470   -0.6220    0.9230 C   0  0  0  0  0  0  0  0  0  0  0  0
    2.2910   -0.5200    0.0160 C   0  0  0  0  0  0  0  0  0  0  0  0
  2  1  1  1
  2  3  1  0
  2 21  1  0
  3  4  1  0
  4  5  1  0
  5  6  1  0
  6  7  1  0
  7  8  1  0
  8  9  1  0
  9 10  1  0
  9 13  1  0
 10 11  2  0
 11 12  1  0
 12 13  2  0
 13 14  1  0
 14 15  1  0
 15 16  1  0
 16 17  2  0
 16 21  1  0
 17 18  1  0
 18 19  1  1
 18 20  1  0
 20 21  2  0
M  END
