
     RDKit          3D

 21 23  0  0  0  0  0  0  0  0999 V2000
   -3.2810   -2.8700    1.2430 C   0  0  0  0  0  0  0  0  0  0  0  0
   -2.3460   -1.8220    0.7840 C   0  0  0  0  0  0  0  0  0  0  0  0
   -2.6980   -0.5560    0.7790 C   0  0  0  0  0  0  0  0  0  0  0  0
   -4.0140   -0.2840    1.2390 N   0  0  0  0  0  0  0  0  0  0  0  0
   -4.8960    0.5830    0.8860 C   0  0  0  0  0  0  0  0  0  0  0  0
   -5.0970    1.6860   -0.0680 C   0  0  0  0  0  0  0  0  0  0  0  0
   -4.0300    1.8530   -1.0760 C   0  0  0  0  0  0  0  0  0  0  0  0
   -3.2930    0.6790   -1.4050 N   0  0  0  0  0  0  0  0  0  0  0  0
   -1.8830    0.7580   -1.1320 C   0  0  0  0  0  0  0  0  0  0  0  0
   -1.6320    0.3650    0.2860 C   0  0  2  0  0  0  0  0  0  0  0  0
   -0.3640   -0.2940    0.4940 N   0  0  0  0  0  0  0  0  0  0  0  0
    0.7480    0.5220    0.0430 C   0  0  0  0  0  0  0  0  0  0  0  0
    2.0710   -0.1600    0.2580 C   0  0  1  0  0  0  0  0  0  0  0  0
    2.3870   -1.4630   -0.3760 C   0  0  0  0  0  0  0  0  0  0  0  0
    3.0210   -0.1950   -0.8850 C   0  0  2  0  0  0  0  0  0  0  0  0
    4.4770   -0.0040   -0.6120 C   0  0  0  0  0  0  0  0  0  0  0  0
    5.2360    0.9550   -1.1000 C   0  0  0  0  0  0  0  0  0  0  0  0
    4.6710    2.2160   -2.1880 Cl  0  0  0  0  0  0  0  0  0  0  0  0
    6.6210    0.8070   -0.5980 C   0  0  0  0  0  0  0  0  0  0  0  0
    6.5580   -0.3850    0.2600 C   0  0  0  0  0  0  0  0  0  0  0  0
    5.3240   -0.8300    0.2360 C   0  0  0  0  0  0  0  0  0  0  0  0
  1  2  1  0
  2  3  2  3
  3  4  1  0
  3 10  1  0
  4  5  2  0
  5  6  1  0
  6  7  1  0
  7  8  1  0
  8  9  1  0
  9 10  1  0
 10 11  1  6
 11 12  1  0
 13 12  1  6
 13 14  1  0
 13 15  1  0
 14 15  1  0
 15 16  1  1
 16 17  2  0
 16 21  1  0
 17 18  1  0
 17 19  1  0
 19 20  1  0
 20 21  2  0
M  END
