
     RDKit          3D

 21 25  0  0  0  0  0  0  0  0999 V2000
   -5.6670    1.5610    0.6520 Cl  0  0  0  0  0  0  0  0  0  0  0  0
   -4.0030    1.5750    0.1140 C   0  0  0  0  0  0  0  0  0  0  0  0
   -3.2980    2.6560   -0.3670 C   0  0  0  0  0  0  0  0  0  0  0  0
   -2.0220    2.2400   -0.6810 C   0  0  0  0  0  0  0  0  0  0  0  0
   -1.9860    0.8960   -0.3720 C   0  0  0  0  0  0  0  0  0  0  0  0
   -3.1870    0.4920    0.1070 N   0  0  0  0  0  0  0  0  0  0  0  0
   -3.6110   -0.8040    0.5540 C   0  0  0  0  0  0  0  0  0  0  0  0
   -2.6050   -1.8830    0.4830 C   0  0  0  0  0  0  0  0  0  0  0  0
   -1.3260   -1.6050    1.2830 C   0  0  0  0  0  0  0  0  0  0  0  0
   -0.4350   -0.9150    0.2930 C   0  0  0  0  0  0  0  0  0  0  0  0
   -0.7030    0.1870   -0.4540 C   0  0  0  0  0  0  0  0  0  0  0  0
    0.2910    0.7020   -1.3980 C   0  0  1  0  0  0  0  0  0  0  0  0
    0.2060    2.1150   -1.6460 C   0  0  0  0  0  0  0  0  0  0  0  0
   -0.8580    2.8180   -1.3260 C   0  0  0  0  0  0  0  0  0  0  0  0
    1.6300    0.0950   -1.3130 C   0  0  0  0  0  0  0  0  0  0  0  0
    1.9100   -0.9670   -0.5850 C   0  0  0  0  0  0  0  0  0  0  0  0
    3.2360   -1.5290   -0.5430 N   0  0  0  0  0  0  0  0  0  0  0  0
    4.1820   -1.2130    0.4770 C   0  0  1  0  0  0  0  0  0  0  0  0
    4.5290    0.2990    0.5240 C   0  0  0  0  0  0  0  0  0  0  0  0
    3.8410   -0.4040    1.6630 C   0  0  0  0  0  0  0  0  0  0  0  0
    0.8620   -1.4830    0.2250 N   0  0  0  0  0  0  0  0  0  0  0  0
  1  2  1  0
  2  3  2  0
  2  6  1  0
  3  4  1  0
  4  5  2  0
  4 14  1  0
  5  6  1  0
  5 11  1  0
  6  7  1  0
  7  8  1  0
  8  9  1  0
  9 10  1  0
 10 11  2  0
 10 21  1  0
 11 12  1  0
 12 13  1  1
 12 15  1  0
 13 14  2  0
 15 16  2  0
 16 17  1  0
 16 21  1  0
 18 17  1  6
 18 19  1  0
 18 20  1  0
 19 20  1  0
M  END
