
     RDKit          3D

 21 24  0  0  0  0  0  0  0  0999 V2000
   -0.6470    3.0380    0.1570 C   0  0  0  0  0  0  0  0  0  0  0  0
   -0.1910    1.7180    0.7030 C   0  0  2  0  0  0  0  0  0  0  0  0
    1.1600    1.4440    0.1640 C   0  0  0  0  0  0  0  0  0  0  0  0
    2.0750    2.4190   -0.0230 N   0  0  0  0  0  0  0  0  0  0  0  0
    3.3080    2.2030   -0.5040 C   0  0  0  0  0  0  0  0  0  0  0  0
    4.4620    3.5130   -0.7280 Cl  0  0  0  0  0  0  0  0  0  0  0  0
    3.6840    0.9140   -0.8330 C   0  0  0  0  0  0  0  0  0  0  0  0
    2.7940   -0.1230   -0.6650 C   0  0  0  0  0  0  0  0  0  0  0  0
    1.5270    0.1680   -0.1610 C   0  0  0  0  0  0  0  0  0  0  0  0
    0.6170   -1.0280   -0.0090 C   0  0  1  0  0  0  0  0  0  0  0  0
    1.4210   -2.0110    0.8140 C   0  0  0  0  0  0  0  0  0  0  0  0
    2.6340   -2.4570    0.0770 C   0  0  0  0  0  0  0  0  0  0  0  0
    3.1240   -1.5410   -0.9970 C   0  0  0  0  0  0  0  0  0  0  0  0
   -0.5550   -0.6680    0.7570 N   0  0  0  0  0  0  0  0  0  0  0  0
   -1.1040    0.6060    0.3340 C   0  0  1  0  0  0  0  0  0  0  0  0
   -2.4500    0.7190    0.9190 C   0  0  0  0  0  0  0  0  0  0  0  0
   -3.4380    0.0050    0.4290 C   0  0  0  0  0  0  0  0  0  0  0  0
   -3.4130   -0.9530   -0.6820 C   0  0  0  0  0  0  0  0  0  0  0  0
   -4.6150   -1.4470   -0.8460 C   0  0  0  0  0  0  0  0  0  0  0  0
   -5.4600   -0.8300    0.1490 C   0  0  0  0  0  0  0  0  0  0  0  0
   -4.8110   -0.0090    0.8760 N   0  0  0  0  0  0  0  0  0  0  0  0
  2  1  1  6
  2  3  1  0
  2 15  1  0
  3  4  2  0
  3  9  1  0
  4  5  1  0
  5  6  1  0
  5  7  2  0
  7  8  1  0
  8  9  2  0
  8 13  1  0
  9 10  1  0
 10 11  1  1
 10 14  1  0
 11 12  1  0
 12 13  1  0
 14 15  1  0
 15 16  1  1
 16 17  2  3
 17 18  1  0
 17 21  1  0
 18 19  2  0
 19 20  1  0
 20 21  2  0
M  END
