
     RDKit          3D

 21 23  0  0  0  0  0  0  0  0999 V2000
    4.9380    0.9570    0.5050 C   0  0  0  0  0  0  0  0  0  0  0  0
    4.0560    0.8720   -0.7010 C   0  0  0  0  0  0  0  0  0  0  0  0
    2.9190   -0.0150   -0.4960 N   0  0  0  0  0  0  0  0  0  0  0  0
    2.9110   -1.3030   -0.7570 N   0  0  0  0  0  0  0  0  0  0  0  0
    1.7000   -1.8200   -0.4520 C   0  0  0  0  0  0  0  0  0  0  0  0
    0.9070   -0.8050    0.0240 C   0  0  0  0  0  0  0  0  0  0  0  0
   -0.5240   -0.8920    0.4850 C   0  0  2  0  0  0  0  0  0  0  0  0
   -0.5460   -0.4300    1.9230 C   0  0  0  0  0  0  0  0  0  0  0  0
   -0.8570   -2.3760    0.5570 C   0  0  0  0  0  0  0  0  0  0  0  0
   -1.4520   -2.9430   -0.6750 C   0  0  0  0  0  0  0  0  0  0  0  0
   -2.6180   -2.1300   -1.2020 C   0  0  0  0  0  0  0  0  0  0  0  0
   -2.8100   -0.9020   -0.3380 C   0  0  0  0  0  0  0  0  0  0  0  0
   -1.4700   -0.1280   -0.3450 C   0  0  1  0  0  0  0  0  0  0  0  0
   -1.8390    1.2400    0.0870 C   0  0  0  0  0  0  0  0  0  0  0  0
   -1.5920    2.3390   -0.6380 C   0  0  0  0  0  0  0  0  0  0  0  0
   -0.7890    2.3580   -2.2240 Cl  0  0  0  0  0  0  0  0  0  0  0  0
   -2.1030    3.5120    0.0800 C   0  0  0  0  0  0  0  0  0  0  0  0
   -2.6880    2.9710    1.3120 C   0  0  0  0  0  0  0  0  0  0  0  0
   -2.5260    1.6620    1.2990 C   0  0  0  0  0  0  0  0  0  0  0  0
    1.7090    0.3150   -0.0180 C   0  0  0  0  0  0  0  0  0  0  0  0
    1.3880    1.5090    0.3430 N   0  0  0  0  0  0  0  0  0  0  0  0
  1  2  1  0
  2  3  1  0
  3  4  1  0
  3 20  1  0
  4  5  1  0
  5  6  2  0
  6  7  1  0
  6 20  1  0
  7  8  1  1
  7  9  1  0
  7 13  1  0
  9 10  1  0
 10 11  1  0
 11 12  1  0
 12 13  1  0
 13 14  1  1
 14 15  2  0
 14 19  1  0
 15 16  1  0
 15 17  1  0
 17 18  1  0
 18 19  2  0
 20 21  2  0
M  END
