
     RDKit          3D

 21 24  0  0  0  0  0  0  0  0999 V2000
    5.3230   -0.0500    2.0700 Cl  0  0  0  0  0  0  0  0  0  0  0  0
    4.4970   -0.1740    0.4900 C   0  0  1  0  0  0  0  0  0  0  0  0
    3.9330   -1.5030    0.2530 C   0  0  0  0  0  0  0  0  0  0  0  0
    2.5150   -1.5670   -0.1190 C   0  0  0  0  0  0  0  0  0  0  0  0
    2.0670   -2.8280   -0.3930 N   0  0  0  0  0  0  0  0  0  0  0  0
    0.8110   -3.0690   -0.7420 C   0  0  0  0  0  0  0  0  0  0  0  0
   -0.0240   -2.0460   -0.8210 N   0  0  0  0  0  0  0  0  0  0  0  0
    0.3200   -0.7350   -0.5640 C   0  0  0  0  0  0  0  0  0  0  0  0
   -0.7030    0.2210   -0.5580 N   0  0  0  0  0  0  0  0  0  0  0  0
   -2.0270   -0.1950   -1.0780 C   0  0  1  0  0  0  0  0  0  0  0  0
   -2.5690   -1.3080   -0.2750 C   0  0  0  0  0  0  0  0  0  0  0  0
   -3.9840   -1.2190    0.1710 C   0  0  0  0  0  0  0  0  0  0  0  0
   -4.6100    0.1130    0.2270 C   0  0  0  0  0  0  0  0  0  0  0  0
   -3.6120    1.2480    0.0630 C   0  0  0  0  0  0  0  0  0  0  0  0
   -2.9320    0.9760   -1.2800 C   0  0  0  0  0  0  0  0  0  0  0  0
    1.6300   -0.5320   -0.2120 C   0  0  0  0  0  0  0  0  0  0  0  0
    2.1300    0.8250    0.0380 C   0  0  0  0  0  0  0  0  0  0  0  0
    1.5680    1.9890   -0.0380 C   0  0  0  0  0  0  0  0  0  0  0  0
    2.6100    3.0020    0.3440 C   0  0  0  0  0  0  0  0  0  0  0  0
    3.8290    2.2230    0.5220 C   0  0  0  0  0  0  0  0  0  0  0  0
    3.5370    0.9480    0.3790 C   0  0  0  0  0  0  0  0  0  0  0  0
  2  1  1  1
  2  3  1  0
  2 21  1  0
  3  4  1  0
  4  5  2  0
  4 16  1  0
  5  6  1  0
  6  7  2  0
  7  8  1  0
  8  9  1  0
  8 16  2  0
 10  9  1  1
 10 11  1  0
 10 15  1  0
 11 12  1  0
 12 13  1  0
 13 14  1  0
 14 15  1  0
 16 17  1  0
 17 18  2  0
 17 21  1  0
 18 19  1  0
 19 20  1  0
 20 21  2  0
M  END
