
     RDKit          3D

 21 22  0  0  0  0  0  0  0  0999 V2000
    3.3500    3.4840    0.3410 C   0  0  0  0  0  0  0  0  0  0  0  0
    3.8080    2.0800    0.4900 C   0  0  0  0  0  0  0  0  0  0  0  0
    2.9680    1.0810    0.2450 C   0  0  0  0  0  0  0  0  0  0  0  0
    1.6160    1.4860   -0.1650 C   0  0  0  0  0  0  0  0  0  0  0  0
    0.5770    0.4110   -0.0410 C   0  0  1  0  0  0  0  0  0  0  0  0
   -0.7180    0.9840   -0.1710 N   0  0  0  0  0  0  0  0  0  0  0  0
   -1.9380    0.2420   -0.1010 C   0  0  0  0  0  0  0  0  0  0  0  0
   -3.0440    0.6220   -0.7120 C   0  0  0  0  0  0  0  0  0  0  0  0
   -3.0100    1.8760   -1.5040 C   0  0  0  0  0  0  0  0  0  0  0  0
   -4.3290   -0.1160   -0.6670 C   0  0  0  0  0  0  0  0  0  0  0  0
   -4.2070   -1.4380    0.0490 C   0  0  0  0  0  0  0  0  0  0  0  0
   -3.2580   -1.3520    1.1220 N   0  0  0  0  0  0  0  0  0  0  0  0
   -3.7270   -0.5960    2.2420 C   0  0  0  0  0  0  0  0  0  0  0  0
   -1.9230   -1.0110    0.7070 C   0  0  0  0  0  0  0  0  0  0  0  0
    0.8730   -0.6470   -1.0790 C   0  0  0  0  0  0  0  0  0  0  0  0
    1.6540   -1.7500   -0.4440 C   0  0  1  0  0  0  0  0  0  0  0  0
    1.5000   -3.0410   -1.2370 C   0  0  0  0  0  0  0  0  0  0  0  0
    3.1280   -1.4700   -0.3520 C   0  0  0  0  0  0  0  0  0  0  0  0
    3.4720   -0.2740    0.4080 C   0  0  0  0  0  0  0  0  0  0  0  0
    4.3620   -0.4250    1.3810 C   0  0  0  0  0  0  0  0  0  0  0  0
    5.0560   -2.0140    1.6890 Cl  0  0  0  0  0  0  0  0  0  0  0  0
  1  2  1  0
  2  3  2  3
  3  4  1  0
  3 19  1  0
  4  5  1  0
  5  6  1  6
  5 15  1  0
  6  7  1  0
  7  8  2  0
  7 14  1  0
  8  9  1  0
  8 10  1  0
 10 11  1  0
 11 12  1  0
 12 13  1  0
 12 14  1  0
 15 16  1  0
 16 17  1  6
 16 18  1  0
 18 19  1  0
 19 20  2  3
 20 21  1  0
M  END
