
     RDKit          3D

 15 15  0  0  0  0  0  0  0  0999 V2000
    4.1120   -1.7350    0.1890 C   0  0  0  0  0  0  0  0  0  0  0  0
    3.1160   -1.2700   -0.6640 O   0  0  0  0  0  0  0  0  0  0  0  0
    2.7160    0.0610   -0.2900 C   0  0  1  0  0  0  0  0  0  0  0  0
    3.0640    0.7890   -1.4320 O   0  0  0  0  0  0  0  0  0  0  0  0
    1.2710   -0.0530   -0.0140 C   0  0  0  0  0  0  0  0  0  0  0  0
    0.5580    1.1590    0.4380 C   0  0  1  0  0  0  0  0  0  0  0  0
    0.5390    2.3500   -0.4710 C   0  0  0  0  0  0  0  0  0  0  0  0
    1.7340    2.7920   -0.9460 O   0  0  0  0  0  0  0  0  0  0  0  0
   -0.7920    0.8500    0.8950 N   0  0  0  0  0  0  0  0  0  0  0  0
   -1.3470   -0.3590    0.4240 C   0  0  1  0  0  0  0  0  0  0  0  0
   -2.4460   -0.7810    1.4160 C   0  0  0  0  0  0  0  0  0  0  0  0
   -3.1480   -1.8490    0.6090 C   0  0  0  0  0  0  0  0  0  0  0  0
   -3.2780   -1.2020   -0.7490 C   0  0  0  0  0  0  0  0  0  0  0  0
   -2.1340   -0.2330   -0.8780 C   0  0  1  0  0  0  0  0  0  0  0  0
   -2.6870    1.0450   -1.0060 O   0  0  0  0  0  0  0  0  0  0  0  0
  1  2  1  0
  2  3  1  0
  3  4  1  6
  3  5  1  0
  6  5  1  6
  6  7  1  0
  6  9  1  0
  7  8  1  0
 10  9  1  1
 10 11  1  0
 10 14  1  0
 11 12  1  0
 12 13  1  0
 13 14  1  0
 14 15  1  1
M  CHG  1   9   1
M  END
