
     RDKit          3D

 15 15  0  0  0  0  0  0  0  0999 V2000
   -2.5140   -2.4550    0.1750 C   0  0  0  0  0  0  0  0  0  0  0  0
   -1.7500   -1.3100    0.8510 C   0  0  0  0  0  0  0  0  0  0  0  0
   -1.1120   -0.5270   -0.1810 N   0  0  0  0  0  0  0  0  0  0  0  0
    0.0560    0.1740    0.2620 C   0  0  2  0  0  0  0  0  0  0  0  0
   -0.1730    1.6760    0.3500 C   0  0  2  0  0  0  0  0  0  0  0  0
   -1.0360    2.0520    1.5210 C   0  0  0  0  0  0  0  0  0  0  0  0
   -1.1790    3.4360    1.5050 O   0  0  0  0  0  0  0  0  0  0  0  0
   -0.7120    2.1250   -0.9680 C   0  0  0  0  0  0  0  0  0  0  0  0
   -0.3620    1.2890   -2.0200 O   0  0  0  0  0  0  0  0  0  0  0  0
    0.9360    0.8190   -1.9440 C   0  0  0  0  0  0  0  0  0  0  0  0
    1.2300    0.0500   -0.6890 C   0  0  1  0  0  0  0  0  0  0  0  0
    2.3020    0.7230   -0.0550 O   0  0  0  0  0  0  0  0  0  0  0  0
    1.6770   -1.3510   -0.9190 C   0  0  0  0  0  0  0  0  0  0  0  0
    2.0930   -1.9360    0.4190 C   0  0  0  0  0  0  0  0  0  0  0  0
    3.1340   -1.1830    0.9590 O   0  0  0  0  0  0  0  0  0  0  0  0
  1  2  1  0
  2  3  1  0
  4  3  1  6
  4  5  1  0
  4 11  1  0
  5  6  1  1
  5  8  1  0
  6  7  1  0
  8  9  1  0
  9 10  1  0
 10 11  1  0
 11 12  1  1
 11 13  1  0
 13 14  1  0
 14 15  1  0
M  CHG  1   3   1
M  END
