
     RDKit          3D

 15 15  0  0  0  0  0  0  0  0999 V2000
   -0.4320   -2.5790   -0.2790 C   0  0  0  0  0  0  0  0  0  0  0  0
    0.2980   -1.3120   -0.6410 C   0  0  2  0  0  0  0  0  0  0  0  0
    1.6080   -1.3010    0.1080 C   0  0  0  0  0  0  0  0  0  0  0  0
    2.3750   -0.2470   -0.3620 O   0  0  0  0  0  0  0  0  0  0  0  0
    3.5920   -0.1710    0.2770 C   0  0  1  0  0  0  0  0  0  0  0  0
    4.6340   -0.3110   -0.6410 O   0  0  0  0  0  0  0  0  0  0  0  0
    3.7170    1.2170    0.8950 C   0  0  0  0  0  0  0  0  0  0  0  0
    4.9330    1.3540    1.5570 O   0  0  0  0  0  0  0  0  0  0  0  0
   -0.4700   -0.1270   -0.4940 N   0  0  0  0  0  0  0  0  0  0  0  0
   -1.5510   -0.2070    0.4390 C   0  0  2  0  0  0  0  0  0  0  0  0
   -2.8360   -0.6410   -0.2320 C   0  0  0  0  0  0  0  0  0  0  0  0
   -3.8450    0.4600    0.0100 C   0  0  0  0  0  0  0  0  0  0  0  0
   -2.9430    1.6930    0.0320 C   0  0  1  0  0  0  0  0  0  0  0  0
   -3.6180    2.7860    0.5710 O   0  0  0  0  0  0  0  0  0  0  0  0
   -1.8240    1.2150    0.9330 C   0  0  0  0  0  0  0  0  0  0  0  0
  2  1  1  1
  2  3  1  0
  2  9  1  0
  3  4  1  0
  4  5  1  0
  5  6  1  6
  5  7  1  0
  7  8  1  0
 10  9  1  6
 10 11  1  0
 10 15  1  0
 11 12  1  0
 12 13  1  0
 13 14  1  1
 13 15  1  0
M  CHG  1   9   1
M  END
