
     RDKit          3D

 15 15  0  0  0  0  0  0  0  0999 V2000
    1.5700    1.2650   -0.7790 C   0  0  0  0  0  0  0  0  0  0  0  0
    1.3790    0.2070    0.2900 C   0  0  2  0  0  0  0  0  0  0  0  0
    2.6290   -0.6520    0.2770 C   0  0  0  0  0  0  0  0  0  0  0  0
    3.8730    0.1410    0.5710 C   0  0  0  0  0  0  0  0  0  0  0  0
    4.9450   -0.7610    0.5300 O   0  0  0  0  0  0  0  0  0  0  0  0
    0.2750   -0.6490   -0.0290 N   0  0  0  0  0  0  0  0  0  0  0  0
   -1.0030   -0.0300   -0.0600 C   0  0  2  0  0  0  0  0  0  0  0  0
   -1.0730    1.3210    0.5040 C   0  0  0  0  0  0  0  0  0  0  0  0
   -2.3090    1.8360    0.5990 C   0  0  0  0  0  0  0  0  0  0  0  0
   -2.5660    3.0830    1.1010 O   0  0  0  0  0  0  0  0  0  0  0  0
   -3.3950    0.9170    0.1040 C   0  0  0  0  0  0  0  0  0  0  0  0
   -3.2390   -0.2630    0.8490 O   0  0  0  0  0  0  0  0  0  0  0  0
   -2.0460   -0.8940    0.6090 C   0  0  1  0  0  0  0  0  0  0  0  0
   -2.3200   -2.0840   -0.3020 C   0  0  0  0  0  0  0  0  0  0  0  0
   -1.1720   -2.7890   -0.6030 O   0  0  0  0  0  0  0  0  0  0  0  0
  2  1  1  6
  2  3  1  0
  2  6  1  0
  3  4  1  0
  4  5  1  0
  7  6  1  1
  7  8  1  0
  7 13  1  0
  8  9  2  0
  9 10  1  0
  9 11  1  0
 11 12  1  0
 12 13  1  0
 13 14  1  6
 14 15  1  0
M  CHG  1   6   1
M  END
