
     RDKit          3D

 15 15  0  0  0  0  0  0  0  0999 V2000
   -1.6350    0.5230   -2.7570 C   0  0  0  0  0  0  0  0  0  0  0  0
   -1.5200   -0.6640   -1.8400 C   0  0  2  0  0  0  0  0  0  0  0  0
   -2.3410   -0.5120   -0.5840 C   0  0  0  0  0  0  0  0  0  0  0  0
   -1.7270    0.4270    0.4090 C   0  0  1  0  0  0  0  0  0  0  0  0
   -2.1580   -0.0010    1.7960 C   0  0  1  0  0  0  0  0  0  0  0  0
   -3.6090    0.0390    1.9230 N   0  0  0  0  0  0  0  0  0  0  0  0
   -1.7090   -1.2830    2.1030 O   0  0  0  0  0  0  0  0  0  0  0  0
   -0.2470    0.5140    0.3620 C   0  0  0  0  0  0  0  0  0  0  0  0
    0.3700    0.1450   -0.9440 C   0  0  1  0  0  0  0  0  0  0  0  0
    1.8470   -0.1450   -0.7870 C   0  0  0  0  0  0  0  0  0  0  0  0
    2.5290    0.9340   -0.2320 O   0  0  0  0  0  0  0  0  0  0  0  0
    3.8710    0.7050   -0.0770 C   0  0  0  0  0  0  0  0  0  0  0  0
    4.2100   -0.4540    0.8120 C   0  0  0  0  0  0  0  0  0  0  0  0
    5.6210   -0.5320    0.8490 O   0  0  0  0  0  0  0  0  0  0  0  0
   -0.2280   -0.9740   -1.4980 O   0  0  0  0  0  0  0  0  0  0  0  0
  2  1  1  1
  2  3  1  0
  2 15  1  0
  4  3  1  6
  4  5  1  0
  4  8  1  0
  5  6  1  6
  5  7  1  0
  8  9  1  0
  9 10  1  1
  9 15  1  0
 10 11  1  0
 11 12  1  0
 12 13  1  0
 13 14  1  0
M  CHG  1   6   1
M  END
