
     RDKit          3D

 15 15  0  0  0  0  0  0  0  0999 V2000
    2.4310   -1.2560    0.4520 C   0  0  0  0  0  0  0  0  0  0  0  0
    1.8250   -0.1070   -0.1540 N   0  0  2  0  0  0  0  0  0  0  0  0
    2.8350    0.9280   -0.2850 C   0  0  0  0  0  0  0  0  0  0  0  0
    4.2260    0.3690   -0.3770 C   0  0  0  0  0  0  0  0  0  0  0  0
    5.0890    1.4810   -0.5000 O   0  0  0  0  0  0  0  0  0  0  0  0
    0.7480    0.4540    0.5990 C   0  0  0  0  0  0  0  0  0  0  0  0
   -0.5600   -0.2330    0.4570 C   0  0  1  0  0  0  0  0  0  0  0  0
   -0.5060   -1.5600    0.8570 O   0  0  0  0  0  0  0  0  0  0  0  0
   -1.5320    0.4650    1.4200 C   0  0  0  0  0  0  0  0  0  0  0  0
   -2.8870   -0.2010    1.3800 C   0  0  0  0  0  0  0  0  0  0  0  0
   -2.9460   -1.1210    0.3620 O   0  0  0  0  0  0  0  0  0  0  0  0
   -2.5840   -0.6200   -0.8780 C   0  0  1  0  0  0  0  0  0  0  0  0
   -3.5920    0.4080   -1.3160 C   0  0  0  0  0  0  0  0  0  0  0  0
   -4.8320   -0.2340   -1.3870 O   0  0  0  0  0  0  0  0  0  0  0  0
   -1.1690   -0.0990   -0.9180 C   0  0  0  0  0  0  0  0  0  0  0  0
  2  1  1  1
  2  3  1  0
  2  6  1  0
  3  4  1  0
  4  5  1  0
  6  7  1  0
  7  8  1  1
  7  9  1  0
  7 15  1  0
  9 10  1  0
 10 11  1  0
 11 12  1  0
 12 13  1  1
 12 15  1  0
 13 14  1  0
M  CHG  1   2   1
M  END
