
     RDKit          3D

 15 15  0  0  0  0  0  0  0  0999 V2000
   -3.5330    0.5700    0.9380 C   0  0  0  0  0  0  0  0  0  0  0  0
   -2.8030    0.5100   -0.3670 C   0  0  2  0  0  0  0  0  0  0  0  0
   -2.8710   -0.9400   -0.8500 C   0  0  0  0  0  0  0  0  0  0  0  0
   -2.3220   -1.7770    0.1040 O   0  0  0  0  0  0  0  0  0  0  0  0
   -1.1270   -1.3470    0.6200 C   0  0  0  0  0  0  0  0  0  0  0  0
   -0.4860   -0.2820   -0.2360 C   0  0  2  0  0  0  0  0  0  0  0  0
    0.8270   -0.0540    0.0490 O   0  0  0  0  0  0  0  0  0  0  0  0
    1.7320   -0.3620   -0.9290 C   0  0  1  0  0  0  0  0  0  0  0  0
    2.5540    0.8010   -1.4140 C   0  0  0  0  0  0  0  0  0  0  0  0
    3.2910    1.4300   -0.4460 O   0  0  0  0  0  0  0  0  0  0  0  0
    2.6440   -1.4420   -0.4270 C   0  0  0  0  0  0  0  0  0  0  0  0
    3.4130   -1.0670    0.8060 C   0  0  0  0  0  0  0  0  0  0  0  0
    2.5520   -0.7380    1.8700 O   0  0  0  0  0  0  0  0  0  0  0  0
   -1.3540    0.9330   -0.2600 C   0  0  2  0  0  0  0  0  0  0  0  0
   -1.1160    1.8410    0.8290 N   0  0  0  0  0  0  0  0  0  0  0  0
  2  1  1  1
  2  3  1  0
  2 14  1  0
  3  4  1  0
  4  5  1  0
  5  6  1  0
  6  7  1  1
  6 14  1  0
  7  8  1  0
  8  9  1  1
  8 11  1  0
  9 10  1  0
 11 12  1  0
 12 13  1  0
 14 15  1  1
M  CHG  1  15   1
M  END
