
     RDKit          3D

 34 37  0  0  0  0  0  0  0  0999 V2000
   -0.1920    1.7300    0.8040 C   0  0  0  0  0  0  0  0  0  0  0  0
   -0.4620    0.2990    0.4880 C   0  0  0  0  0  0  0  0  0  0  0  0
   -1.7370   -0.2390    0.7580 C   0  0  0  0  0  0  0  0  0  0  0  0
   -2.6720    0.6960    1.4280 C   0  0  0  0  0  0  0  0  0  0  0  0
   -3.7310    1.0690    0.5730 N   0  0  0  0  0  0  0  0  0  0  0  0
   -4.0240    2.4910    0.6860 C   0  0  0  0  0  0  0  0  0  0  0  0
   -4.5860    3.0400   -0.5680 C   0  0  0  0  0  0  0  0  0  0  0  0
   -6.0310    2.8310   -0.5180 N   0  0  0  0  0  0  0  0  0  0  0  0
   -6.2700    1.4840   -0.0080 C   0  0  0  0  0  0  0  0  0  0  0  0
   -5.5860    0.4220   -0.8330 C   0  0  2  0  0  0  0  0  0  0  0  0
   -6.0950   -0.9190   -0.3450 C   0  0  0  0  0  0  0  0  0  0  0  0
   -4.0700    0.4800   -0.6190 C   0  0  0  0  0  0  0  0  0  0  0  0
   -2.0010   -1.5250    0.3870 C   0  0  0  0  0  0  0  0  0  0  0  0
   -1.0190   -2.2560   -0.2520 C   0  0  0  0  0  0  0  0  0  0  0  0
   -1.2140   -3.5930   -0.7830 C   0  0  0  0  0  0  0  0  0  0  0  0
   -1.8180   -3.7170   -1.8770 O   0  0  0  0  0  0  0  0  0  0  0  0
   -0.7750   -4.7710   -0.1510 N   0  0  0  0  0  0  0  0  0  0  0  0
   -0.1750   -4.8340    1.1680 C   0  0  0  0  0  0  0  0  0  0  0  0
   -0.8140   -6.0690   -0.8640 C   0  0  0  0  0  0  0  0  0  0  0  0
    0.2310   -1.6950   -0.5180 C   0  0  0  0  0  0  0  0  0  0  0  0
    0.5370   -0.4130   -0.1530 C   0  0  0  0  0  0  0  0  0  0  0  0
    1.7030    0.2210   -0.3450 O   0  0  0  0  0  0  0  0  0  0  0  0
    2.8790    0.0410   -0.9730 C   0  0  0  0  0  0  0  0  0  0  0  0
    3.9130    1.0180   -0.5760 C   0  0  0  0  0  0  0  0  0  0  0  0
    4.3480    1.8060   -1.5450 C   0  0  0  0  0  0  0  0  0  0  0  0
    5.3230    2.9130   -1.7690 C   0  0  0  0  0  0  0  0  0  0  0  0
    6.9480    2.1720   -2.1160 S   0  0  0  0  0  0  0  0  0  0  0  0
    7.5500    1.4560   -0.5540 C   0  0  0  0  0  0  0  0  0  0  0  0
    8.8810    1.3060   -0.5610 C   0  0  0  0  0  0  0  0  0  0  0  0
    9.2480    0.7320    0.7460 C   0  0  0  0  0  0  0  0  0  0  0  0
    7.9630    0.5640    1.4470 C   0  0  0  0  0  0  0  0  0  0  0  0
    6.9630    1.0030    0.6710 C   0  0  0  0  0  0  0  0  0  0  0  0
    5.6360    0.9030    1.2420 N   0  0  0  0  0  0  0  0  0  0  0  0
    4.4050    0.9020    0.8130 C   0  0  0  0  0  0  0  0  0  0  0  0
  1  2  1  0
  2  3  2  0
  2 21  1  0
  3  4  1  0
  3 13  1  0
  4  5  1  0
  5  6  1  0
  5 12  1  0
  6  7  1  0
  7  8  1  0
  8  9  1  0
  9 10  1  0
 10 11  1  1
 10 12  1  0
 13 14  2  0
 14 15  1  0
 14 20  1  0
 15 16  2  0
 15 17  1  0
 17 18  1  0
 17 19  1  0
 20 21  2  0
 21 22  1  0
 22 23  1  0
 23 24  1  0
 24 25  2  0
 24 34  1  0
 25 26  1  0
 26 27  1  0
 27 28  1  0
 28 29  2  0
 28 32  1  0
 29 30  1  0
 30 31  1  0
 31 32  2  0
 32 33  1  0
 33 34  2  0
M  CHG  1   8   1
M  END
