
     RDKit          3D

 35 38  0  0  0  0  0  0  0  0999 V2000
    6.0290   -1.4870    1.4110 N   0  0  0  0  0  0  0  0  0  0  0  0
    5.8440   -2.8680    1.1560 C   0  0  0  0  0  0  0  0  0  0  0  0
    6.7780   -3.6790    1.4620 N   0  0  0  0  0  0  0  0  0  0  0  0
    4.5840   -3.2990    0.5530 C   0  0  0  0  0  0  0  0  0  0  0  0
    4.3160   -4.6190    0.2730 C   0  0  0  0  0  0  0  0  0  0  0  0
    3.0970   -4.9960   -0.3050 C   0  0  0  0  0  0  0  0  0  0  0  0
    2.1720   -4.0180   -0.5870 C   0  0  0  0  0  0  0  0  0  0  0  0
    2.3920   -2.6810   -0.3260 C   0  0  0  0  0  0  0  0  0  0  0  0
    1.3940   -1.6590   -0.6320 C   0  0  0  0  0  0  0  0  0  0  0  0
    0.2630   -1.9570   -1.1120 O   0  0  0  0  0  0  0  0  0  0  0  0
    1.6010   -0.2740   -0.4220 N   0  0  0  0  0  0  0  0  0  0  0  0
    0.5900    0.7180   -0.7350 C   0  0  1  0  0  0  0  0  0  0  0  0
    0.1680    1.5310    0.3900 C   0  0  0  0  0  0  0  0  0  0  0  0
    0.7630    1.5520    1.5040 O   0  0  0  0  0  0  0  0  0  0  0  0
   -0.9680    2.3550    0.2690 N   0  0  0  0  0  0  0  0  0  0  0  0
   -1.4350    3.2560    1.3160 C   0  0  0  0  0  0  0  0  0  0  0  0
   -2.9080    3.4990    1.2330 C   0  0  0  0  0  0  0  0  0  0  0  0
   -3.6970    2.3500    0.6840 C   0  0  2  0  0  0  0  0  0  0  0  0
   -3.8870    1.3140    1.7550 C   0  0  0  0  0  0  0  0  0  0  0  0
   -3.3150    1.5640    2.8760 O   0  0  0  0  0  0  0  0  0  0  0  0
   -4.6390    0.1030    1.6050 C   0  0  0  0  0  0  0  0  0  0  0  0
   -5.3140   -0.2340    0.4780 C   0  0  0  0  0  0  0  0  0  0  0  0
   -6.0110   -1.4260    0.4040 C   0  0  0  0  0  0  0  0  0  0  0  0
   -6.0610   -2.3220    1.4470 C   0  0  0  0  0  0  0  0  0  0  0  0
   -5.3720   -1.9750    2.5960 C   0  0  0  0  0  0  0  0  0  0  0  0
   -4.6810   -0.7940    2.6700 C   0  0  0  0  0  0  0  0  0  0  0  0
   -3.1000    1.6860   -0.4950 C   0  0  0  0  0  0  0  0  0  0  0  0
   -1.7870    2.3320   -0.9120 C   0  0  0  0  0  0  0  0  0  0  0  0
    1.1200    1.5830   -1.8280 C   0  0  0  0  0  0  0  0  0  0  0  0
    1.5370    1.0010   -2.9980 C   0  0  0  0  0  0  0  0  0  0  0  0
    2.0660    1.8080   -4.0160 C   0  0  0  0  0  0  0  0  0  0  0  0
    2.1540    3.1900   -3.8080 C   0  0  0  0  0  0  0  0  0  0  0  0
    1.7330    3.7690   -2.6310 C   0  0  0  0  0  0  0  0  0  0  0  0
    1.2080    2.9360   -1.6300 C   0  0  0  0  0  0  0  0  0  0  0  0
    3.5950   -2.3500    0.2400 C   0  0  0  0  0  0  0  0  0  0  0  0
  1  2  1  0
  2  3  2  0
  2  4  1  0
  4  5  2  0
  4 35  1  0
  5  6  1  0
  6  7  2  0
  7  8  1  0
  8  9  1  0
  8 35  2  0
  9 10  2  0
  9 11  1  0
 12 11  1  1
 12 13  1  0
 12 29  1  0
 13 14  2  0
 13 15  1  0
 15 16  1  0
 15 28  1  0
 16 17  1  0
 17 18  1  0
 18 19  1  1
 18 27  1  0
 19 20  2  0
 19 21  1  0
 21 22  2  0
 21 26  1  0
 22 23  1  0
 23 24  2  0
 24 25  1  0
 25 26  2  0
 27 28  1  0
 29 30  2  0
 29 34  1  0
 30 31  1  0
 31 32  2  0
 32 33  1  0
 33 34  2  0
M  CHG  1   3   1
M  END
