
     RDKit          3D

 35 36  0  0  0  0  0  0  0  0999 V2000
   -3.7540    4.4910    1.4000 C   0  0  0  0  0  0  0  0  0  0  0  0
   -2.9730    3.3270    0.9060 C   0  0  0  0  0  0  0  0  0  0  0  0
   -1.7920    3.5460    0.2640 C   0  0  0  0  0  0  0  0  0  0  0  0
   -1.0680    2.4940   -0.2150 C   0  0  0  0  0  0  0  0  0  0  0  0
   -1.5280    1.2140   -0.0510 C   0  0  0  0  0  0  0  0  0  0  0  0
   -0.8480    0.1720   -0.7120 N   0  0  0  0  0  0  0  0  0  0  0  0
    0.5210    0.2340   -1.0610 C   0  0  0  0  0  0  0  0  0  0  0  0
    1.2620    1.2030   -0.8000 O   0  0  0  0  0  0  0  0  0  0  0  0
    1.1740   -0.8450   -1.7610 N   0  0  0  0  0  0  0  0  0  0  0  0
    2.5600   -0.7700   -2.1090 C   0  0  0  0  0  0  0  0  0  0  0  0
    3.4670   -0.9970   -0.9690 C   0  0  0  0  0  0  0  0  0  0  0  0
    3.0070   -1.2680    0.2980 C   0  0  0  0  0  0  0  0  0  0  0  0
    3.9100   -1.4710    1.3230 C   0  0  0  0  0  0  0  0  0  0  0  0
    5.2790   -1.4110    1.1190 C   0  0  0  0  0  0  0  0  0  0  0  0
    5.7340   -1.1420   -0.1380 C   0  0  0  0  0  0  0  0  0  0  0  0
    7.1740   -1.0550   -0.4750 C   0  0  0  0  0  0  0  0  0  0  0  0
    7.7040    0.3550   -0.3090 C   0  0  0  0  0  0  0  0  0  0  0  0
    9.1750    0.3860   -0.6660 C   0  0  0  0  0  0  0  0  0  0  0  0
    9.4230   -0.0270   -2.0290 N   0  0  0  0  0  0  0  0  0  0  0  0
    4.8230   -0.9390   -1.1630 C   0  0  0  0  0  0  0  0  0  0  0  0
   -2.7530    0.9070    0.6140 C   0  0  0  0  0  0  0  0  0  0  0  0
   -2.9980   -0.4590    0.8980 C   0  0  0  0  0  0  0  0  0  0  0  0
   -1.8100   -1.1830    0.8590 O   0  0  0  0  0  0  0  0  0  0  0  0
   -3.9510   -1.3820    1.1950 N   0  0  0  0  0  0  0  0  0  0  0  0
   -3.4420   -2.7890    1.5000 C   0  0  0  0  0  0  0  0  0  0  0  0
   -5.3600   -1.3920    1.1660 C   0  0  0  0  0  0  0  0  0  0  0  0
   -5.8820   -1.8560   -0.1770 C   0  0  0  0  0  0  0  0  0  0  0  0
   -6.8070   -2.7100   -0.3200 N   0  0  0  0  0  0  0  0  0  0  0  0
   -7.3240   -3.1650   -1.8850 S   0  0  1  0  0  0  0  0  0  0  0  0
   -7.7400   -1.9750   -2.6950 O   0  0  0  0  0  0  0  0  0  0  0  0
   -6.1990   -3.9260   -2.5290 O   0  0  0  0  0  0  0  0  0  0  0  0
   -3.4330    2.0120    1.0710 C   0  0  0  0  0  0  0  0  0  0  0  0
   -4.6570    1.8110    1.8640 C   0  0  0  0  0  0  0  0  0  0  0  0
   -5.9160    2.2890    1.2350 C   0  0  0  0  0  0  0  0  0  0  0  0
   -6.1580    1.5780   -0.3870 S   0  0  0  0  0  0  0  0  0  0  0  0
  1  2  1  0
  2  3  2  0
  2 32  1  0
  3  4  1  0
  4  5  2  0
  5  6  1  0
  5 21  1  0
  6  7  1  0
  7  8  2  0
  7  9  1  0
  9 10  1  0
 10 11  1  0
 11 12  2  0
 11 20  1  0
 12 13  1  0
 13 14  2  0
 14 15  1  0
 15 16  1  0
 15 20  2  0
 16 17  1  0
 17 18  1  0
 18 19  1  0
 21 22  1  0
 21 32  2  0
 22 23  2  0
 22 24  1  0
 24 25  1  0
 24 26  1  0
 26 27  1  0
 27 28  2  3
 29 28  1  1
 29 30  2  0
 29 31  2  0
 32 33  1  0
 33 34  1  0
 34 35  1  0
M  CHG  1  19   1
M  END
