
     RDKit          3D

 34 38  0  0  0  0  0  0  0  0999 V2000
    8.7620    2.8090   -1.9240 C   0  0  0  0  0  0  0  0  0  0  0  0
    8.5660    1.4280   -2.1560 O   0  0  0  0  0  0  0  0  0  0  0  0
    7.7490    0.7340   -1.2800 C   0  0  0  0  0  0  0  0  0  0  0  0
    7.1430    1.3600   -0.2170 C   0  0  0  0  0  0  0  0  0  0  0  0
    6.3270    0.6410    0.6480 C   0  0  0  0  0  0  0  0  0  0  0  0
    6.1700   -0.6690    0.3880 C   0  0  0  0  0  0  0  0  0  0  0  0
    5.1020   -1.5630    1.5660 S   0  0  0  0  0  0  0  0  0  0  0  0
    6.4500   -1.9140    2.3860 C   0  0  0  0  0  0  0  0  0  0  0  0
    4.4520   -0.8740    2.7020 O   0  0  0  0  0  0  0  0  0  0  0  0
    4.0380   -1.2900    0.6460 N   0  0  0  0  0  0  0  0  0  0  0  0
    3.0400   -0.9970    0.0880 C   0  0  0  0  0  0  0  0  0  0  0  0
    2.8410   -1.1120   -1.4170 C   0  0  0  0  0  0  0  0  0  0  0  0
    1.3920   -1.5450   -1.5040 C   0  0  0  0  0  0  0  0  0  0  0  0
    0.7940   -0.7990   -0.3650 C   0  0  0  0  0  0  0  0  0  0  0  0
   -0.5500   -0.4300   -0.1790 C   0  0  0  0  0  0  0  0  0  0  0  0
   -0.9400    0.2620    0.9280 C   0  0  0  0  0  0  0  0  0  0  0  0
   -2.2630    0.6330    1.1590 N   0  0  0  0  0  0  0  0  0  0  0  0
   -3.3890    0.1820    0.4420 C   0  0  0  0  0  0  0  0  0  0  0  0
   -4.6570    0.6860    0.8040 C   0  0  0  0  0  0  0  0  0  0  0  0
   -5.8020    0.2830    0.1570 C   0  0  0  0  0  0  0  0  0  0  0  0
   -5.7420   -0.6330   -0.8720 C   0  0  0  0  0  0  0  0  0  0  0  0
   -4.5100   -1.1070   -1.2050 C   0  0  0  0  0  0  0  0  0  0  0  0
   -3.4020   -0.6940   -0.5530 N   0  0  0  0  0  0  0  0  0  0  0  0
   -7.0150   -1.0220   -1.5290 C   0  0  0  0  0  0  0  0  0  0  0  0
   -7.7110    0.2180   -1.8270 N   0  0  0  0  0  0  0  0  0  0  0  0
   -8.0530    0.9800   -0.6570 C   0  0  0  0  0  0  0  0  0  0  0  0
   -7.1500    0.7910    0.5140 C   0  0  2  0  0  0  0  0  0  0  0  0
   -6.9380    2.1510    1.1890 C   0  0  0  0  0  0  0  0  0  0  0  0
   -7.8300   -0.0870    1.5270 C   0  0  0  0  0  0  0  0  0  0  0  0
    0.0330    0.5950    1.8730 C   0  0  0  0  0  0  0  0  0  0  0  0
    1.3380    0.2210    1.6630 C   0  0  0  0  0  0  0  0  0  0  0  0
    1.7420   -0.4770    0.5510 C   0  0  0  0  0  0  0  0  0  0  0  0
    6.7250   -1.3610   -0.6290 C   0  0  0  0  0  0  0  0  0  0  0  0
    7.5480   -0.6330   -1.5000 C   0  0  0  0  0  0  0  0  0  0  0  0
  1  2  1  0
  2  3  1  0
  3  4  2  0
  3 34  1  0
  4  5  1  0
  5  6  2  0
  6  7  1  0
  6 33  1  0
  7  8  1  0
  7  9  2  0
  7 10  1  0
 10 11  2  3
 11 12  1  0
 11 32  1  0
 12 13  1  0
 13 14  1  0
 14 15  2  0
 14 32  1  0
 15 16  1  0
 16 17  1  0
 16 30  2  0
 17 18  1  0
 18 19  2  0
 18 23  1  0
 19 20  1  0
 20 21  2  0
 20 27  1  0
 21 22  1  0
 21 24  1  0
 22 23  2  0
 24 25  1  0
 25 26  1  0
 26 27  1  0
 27 28  1  1
 27 29  1  0
 30 31  1  0
 31 32  2  0
 33 34  2  0
M  CHG  1  25   1
M  END
