
     RDKit          3D

 35 37  0  0  0  0  0  0  0  0999 V2000
   -8.0840    2.8470    2.4850 C   0  0  0  0  0  0  0  0  0  0  0  0
   -7.1270    1.7970    2.0720 N   0  0  0  0  0  0  0  0  0  0  0  0
   -5.9490    1.9440    2.8790 C   0  0  0  0  0  0  0  0  0  0  0  0
   -4.6460    1.9430    2.1850 C   0  0  0  0  0  0  0  0  0  0  0  0
   -4.2290    0.7640    1.4100 C   0  0  2  0  0  0  0  0  0  0  0  0
   -2.8940    0.9470    0.8150 N   0  0  0  0  0  0  0  0  0  0  0  0
   -1.8540    0.0270    1.0440 C   0  0  0  0  0  0  0  0  0  0  0  0
   -2.0790   -0.9730    1.7660 O   0  0  0  0  0  0  0  0  0  0  0  0
   -0.5150    0.2720    0.4210 C   0  0  0  0  0  0  0  0  0  0  0  0
    0.3530   -0.8910    0.7570 C   0  0  0  0  0  0  0  0  0  0  0  0
    1.7320   -0.7580    0.2050 C   0  0  0  0  0  0  0  0  0  0  0  0
    1.9920    0.3170   -0.3590 O   0  0  0  0  0  0  0  0  0  0  0  0
    2.6970   -1.7670    0.3020 N   0  0  0  0  0  0  0  0  0  0  0  0
    4.0400   -1.7150   -0.1900 C   0  0  0  0  0  0  0  0  0  0  0  0
    4.6160   -0.6180   -0.7630 C   0  0  0  0  0  0  0  0  0  0  0  0
    5.9390   -0.5800   -1.2210 C   0  0  0  0  0  0  0  0  0  0  0  0
    6.5940    0.8810   -1.9310 S   0  0  2  0  0  0  0  0  0  0  0  0
    5.4880    1.7240   -2.5510 O   0  0  0  0  0  0  0  0  0  0  0  0
    7.6740    0.5980   -2.9210 O   0  0  0  0  0  0  0  0  0  0  0  0
    7.2780    1.8570   -0.6490 N   0  0  0  0  0  0  0  0  0  0  0  0
    8.3610    1.1740    0.0190 C   0  0  2  0  0  0  0  0  0  0  0  0
    8.3400    1.2130    1.5780 C   0  0  0  0  0  0  0  0  0  0  0  0
    9.3440    1.9760    0.8130 C   0  0  0  0  0  0  0  0  0  0  0  0
    6.6660   -1.7250   -1.0710 C   0  0  0  0  0  0  0  0  0  0  0  0
    6.1210   -2.8590   -0.4960 C   0  0  0  0  0  0  0  0  0  0  0  0
    6.9920   -4.0780   -0.3700 C   0  0  0  0  0  0  0  0  0  0  0  0
    4.8320   -2.8640   -0.0600 C   0  0  0  0  0  0  0  0  0  0  0  0
    4.2610   -4.0200    0.5310 N   0  0  0  0  0  0  0  0  0  0  0  0
   -5.1500    0.3570    0.3190 C   0  0  0  0  0  0  0  0  0  0  0  0
   -5.3130    0.8300   -0.9350 C   0  0  0  0  0  0  0  0  0  0  0  0
   -6.2240    0.2590   -1.7160 C   0  0  0  0  0  0  0  0  0  0  0  0
   -6.4600    0.7550   -3.1500 C   0  0  0  0  0  0  0  0  0  0  0  0
   -6.9720   -0.7760   -1.2640 C   0  0  0  0  0  0  0  0  0  0  0  0
   -8.0390   -1.6220   -1.8340 C   0  0  0  0  0  0  0  0  0  0  0  0
   -6.3370   -0.9810    0.4470 S   0  0  0  0  0  0  0  0  0  0  0  0
  1  2  1  0
  2  3  1  0
  3  4  1  0
  5  4  1  6
  5  6  1  0
  5 29  1  0
  6  7  1  0
  7  8  2  0
  7  9  1  0
  9 10  1  0
 10 11  1  0
 11 12  2  0
 11 13  1  0
 13 14  1  0
 14 15  2  0
 14 27  1  0
 15 16  1  0
 16 17  1  0
 16 24  2  0
 17 18  2  0
 17 19  2  0
 17 20  1  1
 21 20  1  6
 21 22  1  0
 21 23  1  0
 22 23  1  0
 24 25  1  0
 25 26  1  0
 25 27  2  0
 27 28  1  0
 29 30  2  0
 29 35  1  0
 30 31  1  0
 31 32  1  0
 31 33  2  0
 33 34  1  0
 33 35  1  0
M  CHG  1   2   1
M  END
