
     RDKit          3D

 35 36  0  0  0  0  0  0  0  0999 V2000
    9.1040    1.5640   -0.4650 C   0  0  0  0  0  0  0  0  0  0  0  0
    8.0820    2.2790   -1.3130 C   0  0  0  0  0  0  0  0  0  0  0  0
    6.7490    2.3370   -0.6380 C   0  0  0  0  0  0  0  0  0  0  0  0
    6.2450    0.9520   -0.3730 C   0  0  0  0  0  0  0  0  0  0  0  0
    4.8950    0.9690    0.3120 C   0  0  1  0  0  0  0  0  0  0  0  0
    3.8800    1.6380   -0.4770 N   0  0  0  0  0  0  0  0  0  0  0  0
    4.4160   -0.3900    0.6270 C   0  0  0  0  0  0  0  0  0  0  0  0
    4.5370   -0.9270    1.9130 C   0  0  0  0  0  0  0  0  0  0  0  0
    4.0720   -2.2020    2.1530 C   0  0  0  0  0  0  0  0  0  0  0  0
    3.4880   -2.9650    1.1510 C   0  0  0  0  0  0  0  0  0  0  0  0
    3.3680   -2.4460   -0.1030 C   0  0  0  0  0  0  0  0  0  0  0  0
    2.6240   -3.3750   -1.4380 S   0  0  0  0  0  0  0  0  0  0  0  0
    0.8210   -3.0510   -1.4820 C   0  0  0  0  0  0  0  0  0  0  0  0
    0.2620   -3.6440   -0.2020 C   0  0  0  0  0  0  0  0  0  0  0  0
   -1.1780   -3.4590   -0.0980 N   0  0  0  0  0  0  0  0  0  0  0  0
   -1.7610   -2.1650   -0.0880 C   0  0  0  0  0  0  0  0  0  0  0  0
   -1.0500   -1.1550   -0.1690 O   0  0  0  0  0  0  0  0  0  0  0  0
   -3.2420   -2.0750    0.0220 C   0  0  0  0  0  0  0  0  0  0  0  0
   -3.9170   -3.1170    0.1010 O   0  0  0  0  0  0  0  0  0  0  0  0
   -3.8850   -0.8210    0.0380 N   0  0  0  0  0  0  0  0  0  0  0  0
   -5.2650   -0.5460    0.1360 C   0  0  0  0  0  0  0  0  0  0  0  0
   -6.2190   -1.5340    0.2450 C   0  0  0  0  0  0  0  0  0  0  0  0
   -7.5870   -1.2970    0.3470 C   0  0  0  0  0  0  0  0  0  0  0  0
   -8.5230   -2.3840    0.4580 C   0  0  0  0  0  0  0  0  0  0  0  0
   -9.3050   -3.2650    0.5600 N   0  0  0  0  0  0  0  0  0  0  0  0
   -8.0000    0.0130    0.3360 C   0  0  0  0  0  0  0  0  0  0  0  0
   -9.4590    0.2780    0.4430 C   0  0  0  0  0  0  0  0  0  0  0  0
   -7.0720    1.0210    0.2280 C   0  0  0  0  0  0  0  0  0  0  0  0
   -5.7090    0.7710    0.1270 C   0  0  0  0  0  0  0  0  0  0  0  0
   -4.8440    1.9080    0.0170 N   0  0  0  0  0  0  0  0  0  0  0  0
   -5.3760    3.2570    0.0210 C   0  0  0  0  0  0  0  0  0  0  0  0
   -4.0250    4.3910   -0.1410 S   0  0  1  0  0  0  0  0  0  0  0  0
   -4.4190    5.7830    0.2930 O   0  0  0  0  0  0  0  0  0  0  0  0
   -2.8030    3.9120    0.6140 O   0  0  0  0  0  0  0  0  0  0  0  0
    3.8290   -1.1720   -0.3560 C   0  0  0  0  0  0  0  0  0  0  0  0
  1  2  1  0
  2  3  1  0
  3  4  1  0
  4  5  1  0
  5  6  1  6
  5  7  1  0
  7  8  2  0
  7 35  1  0
  8  9  1  0
  9 10  2  0
 10 11  1  0
 11 12  1  0
 11 35  2  0
 12 13  1  0
 13 14  1  0
 14 15  1  0
 15 16  1  0
 16 17  2  0
 16 18  1  0
 18 19  2  0
 18 20  1  0
 20 21  1  0
 21 22  2  0
 21 29  1  0
 22 23  1  0
 23 24  1  0
 23 26  2  0
 24 25  3  0
 26 27  1  0
 26 28  1  0
 28 29  2  0
 29 30  1  0
 30 31  1  0
 32 31  1  1
 32 33  2  0
 32 34  2  0
M  CHG  1   6   1
M  END
