
     RDKit          3D

 35 36  0  0  0  0  0  0  0  0999 V2000
   -5.5920    4.6410   -1.5730 C   0  0  0  0  0  0  0  0  0  0  0  0
   -4.6310    4.4700   -0.4350 C   0  0  0  0  0  0  0  0  0  0  0  0
   -4.0570    3.2030   -0.3850 O   0  0  0  0  0  0  0  0  0  0  0  0
   -4.7070    2.0040   -0.2410 C   0  0  0  0  0  0  0  0  0  0  0  0
   -6.0620    1.9150   -0.1230 C   0  0  0  0  0  0  0  0  0  0  0  0
   -6.7240    0.7150    0.0220 C   0  0  0  0  0  0  0  0  0  0  0  0
   -5.9710   -0.4400    0.0470 C   0  0  0  0  0  0  0  0  0  0  0  0
   -6.5620   -1.7520    0.1950 C   0  0  0  0  0  0  0  0  0  0  0  0
   -7.7580   -2.0580   -0.4770 N   0  0  0  0  0  0  0  0  0  0  0  0
   -5.8400   -2.8640    1.1340 S   0  0  0  0  0  0  0  0  0  0  0  0
   -4.5790   -0.3710   -0.0720 C   0  0  0  0  0  0  0  0  0  0  0  0
   -3.9450    0.8310   -0.2150 C   0  0  0  0  0  0  0  0  0  0  0  0
   -2.4670    0.9530   -0.3450 C   0  0  0  0  0  0  0  0  0  0  0  0
   -1.7470   -0.2860   -0.3110 N   0  0  1  0  0  0  0  0  0  0  0  0
   -0.5080   -0.0760   -1.0500 C   0  0  0  0  0  0  0  0  0  0  0  0
   -1.5540   -0.8080    0.9880 C   0  0  0  0  0  0  0  0  0  0  0  0
   -0.1320   -0.9690    1.3790 C   0  0  1  0  0  0  0  0  0  0  0  0
   -0.1230   -1.5370    2.8520 C   0  0  0  0  0  0  0  0  0  0  0  0
    0.5730   -1.9310    0.5730 N   0  0  0  0  0  0  0  0  0  0  0  0
    1.9690   -1.7050    0.2780 C   0  0  0  0  0  0  0  0  0  0  0  0
    2.5410   -0.6870    0.7230 O   0  0  0  0  0  0  0  0  0  0  0  0
    2.6530   -2.6480   -0.5090 N   0  0  0  0  0  0  0  0  0  0  0  0
    4.0630   -2.5520   -0.8860 C   0  0  0  0  0  0  0  0  0  0  0  0
    4.9290   -1.5740   -0.5490 C   0  0  0  0  0  0  0  0  0  0  0  0
    6.1930   -1.5920   -0.9500 C   0  0  0  0  0  0  0  0  0  0  0  0
    7.3320   -0.7110   -0.7580 C   0  0  0  0  0  0  0  0  0  0  0  0
    7.2520    0.3770   -0.0650 C   0  0  0  0  0  0  0  0  0  0  0  0
    6.0910    0.7950    0.5480 O   0  0  0  0  0  0  0  0  0  0  0  0
    6.0850    1.7940    1.5430 C   0  0  0  0  0  0  0  0  0  0  0  0
    6.6250    3.0340    0.9830 C   0  0  0  0  0  0  0  0  0  0  0  0
    7.0480    3.0840   -0.3710 N   0  0  0  0  0  0  0  0  0  0  0  0
    6.7380    4.1060    1.6670 O   0  0  0  0  0  0  0  0  0  0  0  0
    6.2960   -3.0710   -1.8950 S   0  0  0  0  0  0  0  0  0  0  0  0
    4.5940   -3.5710   -1.6780 C   0  0  0  0  0  0  0  0  0  0  0  0
    3.9430   -4.7980   -2.2330 C   0  0  0  0  0  0  0  0  0  0  0  0
  1  2  1  0
  2  3  1  0
  3  4  1  0
  4  5  2  0
  4 12  1  0
  5  6  1  0
  6  7  2  0
  7  8  1  0
  7 11  1  0
  8  9  1  0
  8 10  2  0
 11 12  2  0
 12 13  1  0
 13 14  1  0
 14 15  1  1
 14 16  1  0
 16 17  1  0
 17 18  1  1
 17 19  1  0
 19 20  1  0
 20 21  2  0
 20 22  1  0
 22 23  1  0
 23 24  1  0
 23 34  2  0
 24 25  2  0
 25 26  1  0
 25 33  1  0
 26 27  2  3
 27 28  1  0
 28 29  1  0
 29 30  1  0
 30 31  1  0
 30 32  2  0
 33 34  1  0
 34 35  1  0
M  CHG  1  14   1
M  END
