
     RDKit          3D

 33 37  0  0  0  0  0  0  0  0999 V2000
   -7.6030    0.4880   -1.5190 C   0  0  0  0  0  0  0  0  0  0  0  0
   -7.0050    0.6260   -0.1530 C   0  0  2  0  0  0  0  0  0  0  0  0
   -8.0100    0.4870    0.9520 C   0  0  0  0  0  0  0  0  0  0  0  0
   -6.4360    2.0650   -0.0610 C   0  0  0  0  0  0  0  0  0  0  0  0
   -5.8500   -0.2700    0.0500 C   0  0  0  0  0  0  0  0  0  0  0  0
   -5.2050   -0.9790   -0.9160 C   0  0  0  0  0  0  0  0  0  0  0  0
   -4.1060   -1.7830   -0.6190 C   0  0  0  0  0  0  0  0  0  0  0  0
   -3.6210   -1.9070    0.6500 C   0  0  0  0  0  0  0  0  0  0  0  0
   -2.4150   -2.7120    0.9610 C   0  0  0  0  0  0  0  0  0  0  0  0
   -1.1610   -1.8410    1.0050 C   0  0  0  0  0  0  0  0  0  0  0  0
   -0.9710   -1.1740   -0.3630 C   0  0  0  0  0  0  0  0  0  0  0  0
    0.2210   -0.3460   -0.3550 N   0  0  0  0  0  0  0  0  0  0  0  0
    0.2170    0.9610   -0.0850 C   0  0  0  0  0  0  0  0  0  0  0  0
   -0.9030    1.5020    0.1260 O   0  0  0  0  0  0  0  0  0  0  0  0
    1.3210    1.7500   -0.0230 N   0  0  0  0  0  0  0  0  0  0  0  0
    2.5040    1.2110   -0.2390 C   0  0  0  0  0  0  0  0  0  0  0  0
    3.7130    1.9020   -0.1610 C   0  0  0  0  0  0  0  0  0  0  0  0
    4.9410    1.3100   -0.3480 C   0  0  0  0  0  0  0  0  0  0  0  0
    5.0000   -0.0300   -0.6390 C   0  0  0  0  0  0  0  0  0  0  0  0
    3.8170   -0.7350   -0.7190 C   0  0  0  0  0  0  0  0  0  0  0  0
    2.5970   -0.1280   -0.5240 C   0  0  0  0  0  0  0  0  0  0  0  0
    1.4390   -0.8990   -0.5780 C   0  0  0  0  0  0  0  0  0  0  0  0
    1.5080   -2.1310   -0.8300 O   0  0  0  0  0  0  0  0  0  0  0  0
    6.2700   -0.7550   -0.9150 C   0  0  0  0  0  0  0  0  0  0  0  0
    7.4730   -0.0240   -0.4730 C   0  0  0  0  0  0  0  0  0  0  0  0
    8.6920   -0.7540   -0.4140 C   0  0  0  0  0  0  0  0  0  0  0  0
    9.8390   -0.0920   -0.0530 C   0  0  0  0  0  0  0  0  0  0  0  0
    9.7780    1.2470    0.2330 C   0  0  0  0  0  0  0  0  0  0  0  0
    8.5910    1.9250    0.1670 N   0  0  0  0  0  0  0  0  0  0  0  0
    7.4450    1.3110   -0.1790 C   0  0  0  0  0  0  0  0  0  0  0  0
    6.1890    2.0030   -0.1160 N   0  0  0  0  0  0  0  0  0  0  0  0
   -4.2650   -1.1960    1.6540 C   0  0  0  0  0  0  0  0  0  0  0  0
   -5.3390   -0.4060    1.3560 C   0  0  0  0  0  0  0  0  0  0  0  0
  2  1  1  6
  2  3  1  0
  2  4  1  0
  2  5  1  0
  5  6  2  0
  5 33  1  0
  6  7  1  0
  7  8  2  0
  8  9  1  0
  8 32  1  0
  9 10  1  0
 10 11  1  0
 11 12  1  0
 12 13  1  0
 12 22  1  0
 13 14  2  0
 13 15  1  0
 15 16  1  0
 16 17  2  0
 16 21  1  0
 17 18  1  0
 18 19  2  0
 18 31  1  0
 19 20  1  0
 19 24  1  0
 20 21  2  0
 21 22  1  0
 22 23  2  0
 24 25  1  0
 25 26  2  0
 25 30  1  0
 26 27  1  0
 27 28  2  0
 28 29  1  0
 29 30  2  0
 30 31  1  0
 32 33  2  0
M  CHG  1  29   1
M  END
