
     RDKit          3D

 34 38  0  0  0  0  0  0  0  0999 V2000
   10.8940    0.7960    1.7600 C   0  0  0  0  0  0  0  0  0  0  0  0
   10.7490   -0.2170    0.6910 C   0  0  0  0  0  0  0  0  0  0  0  0
   11.8470   -0.9160    0.2590 C   0  0  0  0  0  0  0  0  0  0  0  0
   11.7230   -1.8690   -0.7430 C   0  0  0  0  0  0  0  0  0  0  0  0
   10.4660   -2.0650   -1.2620 C   0  0  0  0  0  0  0  0  0  0  0  0
    9.3690   -1.3560   -0.8190 C   0  0  0  0  0  0  0  0  0  0  0  0
    8.0660   -1.3970   -1.1930 N   0  0  0  0  0  0  0  0  0  0  0  0
    7.4130   -0.5130   -0.4590 C   0  0  0  0  0  0  0  0  0  0  0  0
    5.9740   -0.1760   -0.4820 C   0  0  0  0  0  0  0  0  0  0  0  0
    5.2500    0.7270    0.2500 C   0  0  0  0  0  0  0  0  0  0  0  0
    3.9340    0.8040   -0.0070 C   0  0  0  0  0  0  0  0  0  0  0  0
    3.3870    0.0280   -0.9350 C   0  0  0  0  0  0  0  0  0  0  0  0
    1.9980   -0.0990   -1.4180 C   0  0  0  0  0  0  0  0  0  0  0  0
    1.7610   -0.9310   -2.3250 O   0  0  0  0  0  0  0  0  0  0  0  0
    0.9500    0.6710   -0.9020 N   0  0  0  0  0  0  0  0  0  0  0  0
   -0.4320    0.5630   -1.3660 C   0  0  2  0  0  0  0  0  0  0  0  0
   -0.7420    1.9170   -1.9660 C   0  0  0  0  0  0  0  0  0  0  0  0
   -1.3240    0.1910   -0.2440 C   0  0  0  0  0  0  0  0  0  0  0  0
   -0.8020    0.0980    0.8870 O   0  0  0  0  0  0  0  0  0  0  0  0
   -2.7710   -0.0830   -0.3340 C   0  0  1  0  0  0  0  0  0  0  0  0
   -3.2730   -0.4850    1.0360 C   0  0  0  0  0  0  0  0  0  0  0  0
   -4.7750   -0.6290    1.0700 C   0  0  0  0  0  0  0  0  0  0  0  0
   -5.3830   -0.1600   -0.1660 N   0  0  1  0  0  0  0  0  0  0  0  0
   -6.8080   -0.1250   -0.0680 C   0  0  1  0  0  0  0  0  0  0  0  0
   -7.4670   -1.4080   -0.5160 C   0  0  0  0  0  0  0  0  0  0  0  0
   -8.9390   -1.0970   -0.7460 C   0  0  0  0  0  0  0  0  0  0  0  0
   -9.5960   -0.5680    0.5060 C   0  0  0  0  0  0  0  0  0  0  0  0
   -8.8320    0.5880    1.1090 C   0  0  0  0  0  0  0  0  0  0  0  0
   -7.3450    0.2480    1.2720 C   0  0  0  0  0  0  0  0  0  0  0  0
   -4.9150    1.2000   -0.3590 C   0  0  0  0  0  0  0  0  0  0  0  0
   -3.4890    1.1020   -0.8790 C   0  0  0  0  0  0  0  0  0  0  0  0
    4.7570   -0.9040   -1.5320 S   0  0  0  0  0  0  0  0  0  0  0  0
    8.2940    0.0870    0.3760 C   0  0  0  0  0  0  0  0  0  0  0  0
    9.5360   -0.4340    0.1630 N   0  0  0  0  0  0  0  0  0  0  0  0
  1  2  1  0
  2  3  2  0
  2 34  1  0
  3  4  1  0
  4  5  2  0
  5  6  1  0
  6  7  2  0
  6 34  1  0
  7  8  1  0
  8  9  1  0
  8 33  2  0
  9 10  2  0
  9 32  1  0
 10 11  1  0
 11 12  2  0
 12 13  1  0
 12 32  1  0
 13 14  2  0
 13 15  1  0
 15 16  1  0
 16 17  1  1
 16 18  1  0
 18 19  2  0
 20 18  1  1
 20 21  1  0
 20 31  1  0
 21 22  1  0
 23 22  1  1
 23 24  1  0
 23 30  1  0
 24 25  1  1
 24 29  1  0
 25 26  1  0
 26 27  1  0
 27 28  1  0
 28 29  1  0
 30 31  1  0
 33 34  1  0
M  CHG  1  23   1
M  END
