
     RDKit          3D

 19 18  0  0  0  0  0  0  0  0999 V2000
   -5.4850   -0.3280    0.6290 O   0  0  0  0  0  0  0  0  0  0  0  0
   -5.4330    0.7020   -0.0920 C   0  0  0  0  0  0  0  0  0  0  0  0
   -6.5320    1.5460   -0.0770 O   0  0  0  0  0  0  0  0  0  0  0  0
   -4.2710    0.9680   -0.8870 N   0  0  0  0  0  0  0  0  0  0  0  0
   -3.1500    0.0960   -0.8940 C   0  0  0  0  0  0  0  0  0  0  0  0
   -3.1980   -0.9350   -0.1750 O   0  0  0  0  0  0  0  0  0  0  0  0
   -1.9430    0.4000   -1.7380 C   0  0  0  0  0  0  0  0  0  0  0  0
   -0.9640   -0.5840   -1.5950 O   0  0  0  0  0  0  0  0  0  0  0  0
   -0.4000   -0.8440   -0.3280 C   0  0  0  0  0  0  0  0  0  0  0  0
   -0.7840   -0.1860    0.6650 O   0  0  0  0  0  0  0  0  0  0  0  0
    0.6290   -1.8860   -0.2040 C   0  0  0  0  0  0  0  0  0  0  0  0
    1.1390   -1.9650    1.0640 O   0  0  0  0  0  0  0  0  0  0  0  0
    1.8100   -0.8500    1.4700 C   0  0  0  0  0  0  0  0  0  0  0  0
    3.2370   -0.5560    0.2990 P   0  0  0  0  0  0  0  0  0  0  0  0
    3.6970   -2.0240   -0.5040 O   0  0  0  0  0  0  0  0  0  0  0  0
    4.6250    0.0200    1.1660 O   0  0  0  0  0  0  0  0  0  0  0  0
    5.1600    1.5550    0.6200 P   0  0  0  0  0  0  0  0  0  0  0  0
    5.9470    1.5100   -0.9050 O   0  0  0  0  0  0  0  0  0  0  0  0
    3.9630    2.7810    0.7240 O   0  0  0  0  0  0  0  0  0  0  0  0
  1  2  2  0
  2  3  1  0
  2  4  1  0
  4  5  1  0
  5  6  2  0
  5  7  1  0
  7  8  1  0
  8  9  1  0
  9 10  2  0
  9 11  1  0
 11 12  1  0
 12 13  1  0
 13 14  1  0
 14 15  1  0
 14 16  1  0
 16 17  1  0
 17 18  1  0
 17 19  1  0
M  END
