
     RDKit          3D

 19 18  0  0  0  0  0  0  0  0999 V2000
   -4.8730   -1.9510   -0.3610 O   0  0  0  0  0  0  0  0  0  0  0  0
   -4.1800   -2.8320   -0.9710 C   0  0  0  0  0  0  0  0  0  0  0  0
   -4.8340   -3.8360   -1.6520 O   0  0  0  0  0  0  0  0  0  0  0  0
   -2.8160   -2.7030   -0.8960 O   0  0  0  0  0  0  0  0  0  0  0  0
   -2.2000   -1.6400   -0.1730 C   0  0  0  0  0  0  0  0  0  0  0  0
   -0.8030   -1.7420   -0.2570 O   0  0  0  0  0  0  0  0  0  0  0  0
   -0.0190   -0.4910    0.5920 P   0  0  0  0  0  0  0  0  0  0  0  0
   -0.3800    1.1230    0.1400 N   0  0  0  0  0  0  0  0  0  0  0  0
   -1.2880    1.8680    0.9460 C   0  0  0  0  0  0  0  0  0  0  0  0
   -1.5090    3.2720    0.4240 C   0  0  0  0  0  0  0  0  0  0  0  0
   -2.0290    3.2760   -0.8610 O   0  0  0  0  0  0  0  0  0  0  0  0
    1.5910   -0.8420    1.0850 O   0  0  0  0  0  0  0  0  0  0  0  0
    2.6780   -0.1500    0.5580 C   0  0  0  0  0  0  0  0  0  0  0  0
    2.4720    0.7570   -0.3030 O   0  0  0  0  0  0  0  0  0  0  0  0
    4.4030   -0.4830    1.0450 P   0  0  0  0  0  0  0  0  0  0  0  0
    5.2600    1.0130    1.3680 O   0  0  0  0  0  0  0  0  0  0  0  0
    5.2060   -1.4180   -0.2930 C   0  0  0  0  0  0  0  0  0  0  0  0
    6.0680   -2.2870   -0.0020 O   0  0  0  0  0  0  0  0  0  0  0  0
    4.9190   -1.2250   -1.6380 O   0  0  0  0  0  0  0  0  0  0  0  0
  1  2  2  0
  2  3  1  0
  2  4  1  0
  4  5  1  0
  5  6  1  0
  6  7  1  0
  7  8  1  0
  7 12  1  0
  8  9  1  0
  9 10  1  0
 10 11  1  0
 12 13  1  0
 13 14  2  0
 13 15  1  0
 15 16  1  0
 15 17  1  0
 17 18  2  0
 17 19  1  0
M  END
