
     RDKit          3D

  9  8  0  0  0  0  0  0  0  0999 V2000
   -0.6070   -0.8270    1.1960 O   0  0  0  0  0  0  0  0  0  0  0  0
   -0.9260   -0.2180    0.1520 C   0  0  0  0  0  0  0  0  0  0  0  0
    0.0430    0.6020   -0.6130 C   0  0  0  0  0  0  0  0  0  0  0  0
    1.6740    0.6000    0.1330 P   0  0  1  0  0  0  0  0  0  0  0  0
    2.2040    2.0240    0.2680 O   0  0  0  0  0  0  0  0  0  0  0  0
    1.6860   -0.0720    1.6770 O   0  0  0  0  0  0  0  0  0  0  0  0
    2.7320   -0.2300   -0.9070 O   0  0  0  0  0  0  0  0  0  0  0  0
   -2.2710   -0.3370   -0.2850 N   0  0  0  0  0  0  0  0  0  0  0  0
   -3.1940   -1.0840    0.3950 O   0  0  0  0  0  0  0  0  0  0  0  0
  1  2  2  0
  2  3  1  0
  2  8  1  0
  3  4  1  0
  4  5  2  0
  4  6  1  1
  4  7  1  0
  8  9  1  0
M  END
