
     RDKit          3D

 19 18  0  0  0  0  0  0  0  0999 V2000
   -2.1460   -2.4750    0.6500 O   0  0  0  0  0  0  0  0  0  0  0  0
   -1.6950   -2.5050   -0.5200 C   0  0  0  0  0  0  0  0  0  0  0  0
   -1.4010   -3.7210   -1.1180 O   0  0  0  0  0  0  0  0  0  0  0  0
   -1.5240   -1.2680   -1.1390 O   0  0  0  0  0  0  0  0  0  0  0  0
   -1.8240   -0.0880   -0.5170 N   0  0  0  0  0  0  0  0  0  0  0  0
   -0.8870    0.9320   -0.8490 C   0  0  0  0  0  0  0  0  0  0  0  0
    0.5420    0.4950   -0.7570 C   0  0  0  0  0  0  0  0  0  0  0  0
    0.9700    0.0270    0.6020 C   0  0  0  0  0  0  0  0  0  0  0  0
    2.7690   -0.4680    0.4290 P   0  0  0  0  0  0  0  0  0  0  0  0
    2.9360   -2.1680    0.5820 O   0  0  0  0  0  0  0  0  0  0  0  0
    3.8060    0.4290    1.4350 O   0  0  0  0  0  0  0  0  0  0  0  0
    5.3360    0.7280    0.6750 P   0  0  0  0  0  0  0  0  0  0  0  0
    5.9460   -0.6960   -0.1150 O   0  0  0  0  0  0  0  0  0  0  0  0
    5.2280    1.9870   -0.5160 O   0  0  0  0  0  0  0  0  0  0  0  0
   -3.1960    0.2540   -0.6130 C   0  0  0  0  0  0  0  0  0  0  0  0
   -3.6720    1.2310    0.3910 C   0  0  0  0  0  0  0  0  0  0  0  0
   -2.8890    1.7230    1.2320 O   0  0  0  0  0  0  0  0  0  0  0  0
   -4.9960    1.6120    0.4120 O   0  0  0  0  0  0  0  0  0  0  0  0
   -5.3830    2.4950    1.3370 O   0  0  0  0  0  0  0  0  0  0  0  0
  1  2  2  0
  2  3  1  0
  2  4  1  0
  4  5  1  0
  5  6  1  0
  5 15  1  0
  6  7  1  0
  7  8  1  0
  8  9  1  0
  9 10  1  0
  9 11  1  0
 11 12  1  0
 12 13  1  0
 12 14  1  0
 15 16  1  0
 16 17  2  0
 16 18  1  0
 18 19  1  0
M  END
