
     RDKit          3D

 21 21  0  0  0  0  0  0  0  0999 V2000
    0.2590   -0.2540   -2.9070 O   0  0  0  0  0  0  0  0  0  0  0  0
    0.0810    0.1640   -1.7380 C   0  0  0  0  0  0  0  0  0  0  0  0
   -1.2680    0.1960   -1.1270 C   0  0  0  0  0  0  0  0  0  0  0  0
   -1.4540   -0.6700   -0.0020 N   0  0  0  0  0  0  0  0  0  0  0  0
   -2.5890   -0.4530    0.8150 C   0  0  0  0  0  0  0  0  0  0  0  0
   -2.6670   -1.2690    1.8440 O   0  0  0  0  0  0  0  0  0  0  0  0
   -3.6620    0.5180    0.6930 C   0  0  0  0  0  0  0  0  0  0  0  0
   -3.7010    1.4180   -0.3860 N   0  0  0  0  0  0  0  0  0  0  0  0
   -4.7890    2.2330   -0.1910 O   0  0  0  0  0  0  0  0  0  0  0  0
   -0.5180   -1.7430    0.2910 C   0  0  0  0  0  0  0  0  0  0  0  0
   -1.0410   -2.6650    1.0230 O   0  0  0  0  0  0  0  0  0  0  0  0
    0.7550   -1.8230   -0.1230 O   0  0  0  0  0  0  0  0  0  0  0  0
    1.3680   -2.4570   -1.1240 O   0  0  0  0  0  0  0  0  0  0  0  0
    2.7010   -2.2240   -1.4190 C   0  0  0  0  0  0  0  0  0  0  0  0
    3.2500   -3.0880   -2.1760 O   0  0  0  0  0  0  0  0  0  0  0  0
    3.4510   -1.1310   -0.9490 N   0  0  0  0  0  0  0  0  0  0  0  0
    3.3830   -0.6080    0.4120 C   0  0  0  0  0  0  0  0  0  0  0  0
    3.1940    0.8740    0.4330 C   0  0  0  0  0  0  0  0  0  0  0  0
    2.0170    1.2910    1.0460 O   0  0  0  0  0  0  0  0  0  0  0  0
    0.9810    1.4020    0.1270 C   0  0  0  0  0  0  0  0  0  0  0  0
    1.1680    0.6060   -1.0070 O   0  0  0  0  0  0  0  0  0  0  0  0
  1  2  2  0
  2  3  1  0
  2 21  1  0
  3  4  1  0
  4  5  1  0
  4 10  1  0
  5  6  2  0
  5  7  1  0
  7  8  1  0
  8  9  1  0
 10 11  2  0
 10 12  1  0
 12 13  1  0
 13 14  1  0
 14 15  2  0
 14 16  1  0
 16 17  1  0
 17 18  1  0
 18 19  1  0
 19 20  1  0
 20 21  1  0
M  END
