
     RDKit          3D

 19 18  0  0  0  0  0  0  0  0999 V2000
   -5.1210    2.7720   -1.0030 O   0  0  0  0  0  0  0  0  0  0  0  0
   -4.8970    2.1720   -2.1050 C   0  0  0  0  0  0  0  0  0  0  0  0
   -4.3250    0.8900   -2.0260 O   0  0  0  0  0  0  0  0  0  0  0  0
   -4.0280    0.3240   -0.7980 C   0  0  0  0  0  0  0  0  0  0  0  0
   -4.2780    0.9740    0.2400 O   0  0  0  0  0  0  0  0  0  0  0  0
   -3.4580   -0.9520   -0.6700 O   0  0  0  0  0  0  0  0  0  0  0  0
   -3.1480   -1.5490    0.5280 C   0  0  0  0  0  0  0  0  0  0  0  0
   -2.0900   -1.0090    1.4030 C   0  0  0  0  0  0  0  0  0  0  0  0
   -0.7590   -0.9710    0.9260 N   0  0  0  0  0  0  0  0  0  0  0  0
   -0.3040   -0.2600   -0.1730 C   0  0  0  0  0  0  0  0  0  0  0  0
   -1.0140    0.4640   -0.9090 O   0  0  0  0  0  0  0  0  0  0  0  0
    1.1700   -0.3540   -0.5290 C   0  0  0  0  0  0  0  0  0  0  0  0
    1.8360   -1.1830    0.3620 O   0  0  0  0  0  0  0  0  0  0  0  0
    3.5160   -1.2930   -0.0410 P   0  0  0  0  0  0  0  0  0  0  0  0
    3.9590   -0.2400   -1.3130 O   0  0  0  0  0  0  0  0  0  0  0  0
    4.4380   -1.0380    1.3990 O   0  0  0  0  0  0  0  0  0  0  0  0
    5.2160    0.4900    1.4240 P   0  0  0  0  0  0  0  0  0  0  0  0
    6.9440    0.3210    1.3730 O   0  0  0  0  0  0  0  0  0  0  0  0
    4.6740    1.5620    0.1980 O   0  0  0  0  0  0  0  0  0  0  0  0
  1  2  2  0
  2  3  1  0
  3  4  1  0
  4  5  2  0
  4  6  1  0
  6  7  1  0
  7  8  1  0
  8  9  1  0
  9 10  1  0
 10 11  2  0
 10 12  1  0
 12 13  1  0
 13 14  1  0
 14 15  1  0
 14 16  1  0
 16 17  1  0
 17 18  1  0
 17 19  1  0
M  END
