
     RDKit          3D

 33 35  0  0  0  0  0  0  0  0999 V2000
    3.7050    3.4870   -4.5200 C   0  0  0  0  0  0  0  0  0  0  0  0
    2.8320    3.0240   -3.5150 O   0  0  0  0  0  0  0  0  0  0  0  0
    3.2000    2.0450   -2.6010 C   0  0  0  0  0  0  0  0  0  0  0  0
    4.4110    1.4430   -2.5920 C   0  0  0  0  0  0  0  0  0  0  0  0
    4.7600    0.4520   -1.6520 C   0  0  0  0  0  0  0  0  0  0  0  0
    3.8610    0.0600   -0.6960 C   0  0  0  0  0  0  0  0  0  0  0  0
    4.1030   -0.9430    0.2800 N   0  0  0  0  0  0  0  0  0  0  0  0
    5.2590   -1.7030    0.4460 C   0  0  0  0  0  0  0  0  0  0  0  0
    6.2370   -1.5260   -0.3080 O   0  0  0  0  0  0  0  0  0  0  0  0
    5.4050   -2.7140    1.4650 N   0  0  0  0  0  0  0  0  0  0  0  0
    6.6290   -3.4520    1.5650 C   0  0  2  0  0  0  0  0  0  0  0  0
    6.4410   -4.9270    1.8490 C   0  0  0  0  0  0  0  0  0  0  0  0
    7.1280   -4.0530    2.8100 C   0  0  0  0  0  0  0  0  0  0  0  0
    2.6120    0.6900   -0.7140 C   0  0  0  0  0  0  0  0  0  0  0  0
    2.2380    1.6610   -1.6190 C   0  0  0  0  0  0  0  0  0  0  0  0
    1.0740    2.2840   -1.6880 O   0  0  0  0  0  0  0  0  0  0  0  0
   -0.1100    2.3050   -1.0730 C   0  0  0  0  0  0  0  0  0  0  0  0
   -0.8870    3.4240   -0.9570 C   0  0  0  0  0  0  0  0  0  0  0  0
   -2.1150    3.1470   -0.2440 C   0  0  0  0  0  0  0  0  0  0  0  0
   -3.1500    4.2180    0.0440 C   0  0  0  0  0  0  0  0  0  0  0  0
   -2.1410    1.8840    0.0970 C   0  0  0  0  0  0  0  0  0  0  0  0
   -3.1080    1.0560    0.8130 C   0  0  0  0  0  0  0  0  0  0  0  0
   -4.4900    1.5340    1.0000 C   0  0  1  0  0  0  0  0  0  0  0  0
   -5.1670    1.7140   -0.3370 C   0  0  0  0  0  0  0  0  0  0  0  0
   -5.3050    0.5040    1.7550 C   0  0  0  0  0  0  0  0  0  0  0  0
   -6.0170    0.8310    2.7400 O   0  0  0  0  0  0  0  0  0  0  0  0
   -5.2930   -0.8740    1.3770 N   0  0  0  0  0  0  0  0  0  0  0  0
   -6.0760   -1.8590    2.1070 C   0  0  0  0  0  0  0  0  0  0  0  0
   -5.7820   -3.4960    1.4280 S   0  0  0  0  0  0  0  0  0  0  0  0
   -6.3640   -3.6930   -0.2570 C   0  0  0  0  0  0  0  0  0  0  0  0
   -6.0830   -4.9940   -0.6830 O   0  0  0  0  0  0  0  0  0  0  0  0
   -0.8760    1.2720   -0.4080 C   0  0  0  0  0  0  0  0  0  0  0  0
   -0.5720    0.0430   -0.2530 O   0  0  0  0  0  0  0  0  0  0  0  0
  1  2  1  0
  2  3  1  0
  3  4  2  0
  3 15  1  0
  4  5  1  0
  5  6  2  0
  6  7  1  0
  6 14  1  0
  7  8  1  0
  8  9  2  0
  8 10  1  0
 11 10  1  1
 11 12  1  0
 11 13  1  0
 12 13  1  0
 14 15  2  0
 15 16  1  0
 16 17  1  0
 17 18  2  0
 17 32  1  0
 18 19  1  0
 19 20  1  0
 19 21  2  0
 21 22  1  0
 21 32  1  0
 22 23  1  0
 23 24  1  6
 23 25  1  0
 25 26  2  0
 25 27  1  0
 27 28  1  0
 28 29  1  0
 29 30  1  0
 30 31  1  0
 32 33  2  0
M  END
