
     RDKit          3D

 33 34  0  0  0  0  0  0  0  0999 V2000
   -6.2780    3.6980   -0.4620 C   0  0  0  0  0  0  0  0  0  0  0  0
   -7.0980    3.4200    0.5230 C   0  0  0  0  0  0  0  0  0  0  0  0
   -6.6670    2.6830    1.7260 C   0  0  0  0  0  0  0  0  0  0  0  0
   -5.3040    2.2380    1.7080 N   0  0  0  0  0  0  0  0  0  0  0  0
   -4.8010    1.3130    0.7820 C   0  0  0  0  0  0  0  0  0  0  0  0
   -5.5490    0.8160   -0.0860 O   0  0  0  0  0  0  0  0  0  0  0  0
   -3.3600    0.8740    0.7840 C   0  0  1  0  0  0  0  0  0  0  0  0
   -2.7640    1.7720    1.7420 O   0  0  0  0  0  0  0  0  0  0  0  0
   -3.1840   -0.4640    1.3550 C   0  0  0  0  0  0  0  0  0  0  0  0
   -3.8670   -1.6210    0.7240 C   0  0  0  0  0  0  0  0  0  0  0  0
   -5.2510   -1.5680    0.7160 O   0  0  0  0  0  0  0  0  0  0  0  0
   -5.7930   -2.6960    0.1070 C   0  0  0  0  0  0  0  0  0  0  0  0
   -5.3900   -3.9680    0.8250 C   0  0  0  0  0  0  0  0  0  0  0  0
   -2.7980    1.2570   -0.5200 C   0  0  0  0  0  0  0  0  0  0  0  0
   -1.4000    1.2500   -0.7600 N   0  0  0  0  0  0  0  0  0  0  0  0
   -0.5780    0.1090   -0.8040 C   0  0  0  0  0  0  0  0  0  0  0  0
   -1.0380   -1.0510   -0.6480 O   0  0  0  0  0  0  0  0  0  0  0  0
    0.8730    0.2850   -1.0430 C   0  0  0  0  0  0  0  0  0  0  0  0
    1.5280    1.4650   -1.2210 C   0  0  0  0  0  0  0  0  0  0  0  0
    2.8650    1.1000   -1.4080 C   0  0  0  0  0  0  0  0  0  0  0  0
    2.9610   -0.2560   -1.3360 C   0  0  0  0  0  0  0  0  0  0  0  0
    4.0510   -1.1860   -1.4470 C   0  0  0  0  0  0  0  0  0  0  0  0
    3.7630   -2.4430   -1.3460 O   0  0  0  0  0  0  0  0  0  0  0  0
    5.3850   -0.8560   -1.6530 N   0  0  0  0  0  0  0  0  0  0  0  0
    5.8880    0.4650   -1.7690 C   0  0  0  0  0  0  0  0  0  0  0  0
    6.3460   -1.9620   -1.8010 C   0  0  0  0  0  0  0  0  0  0  0  0
    6.8830   -2.4040   -0.5090 C   0  0  0  0  0  0  0  0  0  0  0  0
    7.5880   -1.3330    0.1930 C   0  0  0  0  0  0  0  0  0  0  0  0
    8.8710   -0.9100    0.1490 C   0  0  0  0  0  0  0  0  0  0  0  0
    9.2750    0.0940    0.9290 C   0  0  0  0  0  0  0  0  0  0  0  0
    8.3360    0.6780    1.7760 C   0  0  0  0  0  0  0  0  0  0  0  0
    6.8720   -0.2810    1.3930 S   0  0  0  0  0  0  0  0  0  0  0  0
    1.7100   -0.7150   -1.1110 O   0  0  0  0  0  0  0  0  0  0  0  0
  1  2  2  0
  2  3  1  0
  3  4  1  0
  4  5  1  0
  5  6  2  0
  5  7  1  0
  7  8  1  1
  7  9  1  0
  7 14  1  0
  9 10  1  0
 10 11  1  0
 11 12  1  0
 12 13  1  0
 14 15  1  0
 15 16  1  0
 16 17  2  0
 16 18  1  0
 18 19  2  0
 18 33  1  0
 19 20  1  0
 20 21  2  0
 21 22  1  0
 21 33  1  0
 22 23  2  0
 22 24  1  0
 24 25  1  0
 24 26  1  0
 26 27  1  0
 27 28  1  0
 28 29  2  0
 28 32  1  0
 29 30  1  0
 30 31  2  0
 31 32  1  0
M  END
