
     RDKit          3D

 33 35  0  0  0  0  0  0  0  0999 V2000
  -11.2990   -0.9450   -1.1280 N   0  0  0  0  0  0  0  0  0  0  0  0
  -11.1080    0.1830   -2.0120 C   0  0  0  0  0  0  0  0  0  0  0  0
  -10.3730    1.5700   -1.1290 S   0  0  0  0  0  0  0  0  0  0  0  0
   -8.6930    1.2160   -0.6220 C   0  0  0  0  0  0  0  0  0  0  0  0
   -8.0870    0.0030   -0.9340 C   0  0  0  0  0  0  0  0  0  0  0  0
   -6.7970   -0.2710   -0.5410 C   0  0  0  0  0  0  0  0  0  0  0  0
   -6.0440    0.6300    0.1730 C   0  0  0  0  0  0  0  0  0  0  0  0
   -4.6770    0.3270    0.6150 C   0  0  0  0  0  0  0  0  0  0  0  0
   -3.8490    1.1510    1.3460 C   0  0  0  0  0  0  0  0  0  0  0  0
   -2.6520    0.4820    1.5560 C   0  0  0  0  0  0  0  0  0  0  0  0
   -2.8010   -0.7380    0.9340 C   0  0  0  0  0  0  0  0  0  0  0  0
   -1.7600   -1.8300    0.8890 C   0  0  0  0  0  0  0  0  0  0  0  0
   -0.6100   -1.4800    1.6460 N   0  0  0  0  0  0  0  0  0  0  0  0
    0.2810   -0.4340    1.3410 C   0  0  0  0  0  0  0  0  0  0  0  0
    0.0760    0.2540    0.3090 O   0  0  0  0  0  0  0  0  0  0  0  0
    1.4610   -0.1460    2.2460 C   0  0  1  0  0  0  0  0  0  0  0  0
    2.2670   -1.3930    2.4820 C   0  0  0  0  0  0  0  0  0  0  0  0
    3.6530   -0.8990    2.3030 C   0  0  0  0  0  0  0  0  0  0  0  0
    4.6760   -1.3990    2.8300 O   0  0  0  0  0  0  0  0  0  0  0  0
    3.6460    0.2320    1.4390 N   0  0  0  0  0  0  0  0  0  0  0  0
    4.7130    0.7260    0.5900 C   0  0  0  0  0  0  0  0  0  0  0  0
    4.6170    0.0610   -0.7870 C   0  0  0  0  0  0  0  0  0  0  0  0
    5.7290    0.6000   -1.6190 C   0  0  0  0  0  0  0  0  0  0  0  0
    5.5730    1.4710   -2.5070 O   0  0  0  0  0  0  0  0  0  0  0  0
    6.9920    0.0710   -1.3500 O   0  0  0  0  0  0  0  0  0  0  0  0
    8.1300    0.4750   -2.0480 C   0  0  0  0  0  0  0  0  0  0  0  0
    9.3180   -0.2760   -1.4450 C   0  0  0  0  0  0  0  0  0  0  0  0
   10.5380    0.1750   -2.2210 C   0  0  0  0  0  0  0  0  0  0  0  0
   11.7030   -0.4550   -1.7420 O   0  0  0  0  0  0  0  0  0  0  0  0
    2.3450    0.8370    1.5550 C   0  0  0  0  0  0  0  0  0  0  0  0
   -3.9930   -0.7690    0.4070 O   0  0  0  0  0  0  0  0  0  0  0  0
   -6.6480    1.8320    0.4810 C   0  0  0  0  0  0  0  0  0  0  0  0
   -7.9450    2.1230    0.0930 C   0  0  0  0  0  0  0  0  0  0  0  0
  1  2  1  0
  2  3  1  0
  3  4  1  0
  4  5  2  0
  4 33  1  0
  5  6  1  0
  6  7  2  0
  7  8  1  0
  7 32  1  0
  8  9  2  0
  8 31  1  0
  9 10  1  0
 10 11  2  0
 11 12  1  0
 11 31  1  0
 12 13  1  0
 13 14  1  0
 14 15  2  0
 16 14  1  6
 16 17  1  0
 16 30  1  0
 17 18  1  0
 18 19  2  0
 18 20  1  0
 20 21  1  0
 20 30  1  0
 21 22  1  0
 22 23  1  0
 23 24  2  0
 23 25  1  0
 25 26  1  0
 26 27  1  0
 27 28  1  0
 28 29  1  0
 32 33  2  0
M  END
