
     RDKit          3D

 33 35  0  0  0  0  0  0  0  0999 V2000
    7.8970    0.1240    0.9160 C   0  0  0  0  0  0  0  0  0  0  0  0
    6.5160    0.2130    0.6260 O   0  0  0  0  0  0  0  0  0  0  0  0
    6.3250    0.8700   -0.5600 C   0  0  0  0  0  0  0  0  0  0  0  0
    4.8740    0.9730   -0.8810 C   0  0  0  0  0  0  0  0  0  0  0  0
    4.1540   -0.3260   -1.0330 C   0  0  0  0  0  0  0  0  0  0  0  0
    4.1230   -1.1480    0.1520 N   0  0  0  0  0  0  0  0  0  0  0  0
    5.1470   -2.1090    0.4470 C   0  0  0  0  0  0  0  0  0  0  0  0
    5.8930   -2.6720   -0.3660 O   0  0  0  0  0  0  0  0  0  0  0  0
    5.1650   -2.3190    1.9220 C   0  0  0  0  0  0  0  0  0  0  0  0
    4.1160   -1.3140    2.4400 C   0  0  0  0  0  0  0  0  0  0  0  0
    3.1890   -1.2380    1.2300 C   0  0  1  0  0  0  0  0  0  0  0  0
    2.2210   -0.1670    1.3390 C   0  0  0  0  0  0  0  0  0  0  0  0
    1.8700    0.3260    2.4650 O   0  0  0  0  0  0  0  0  0  0  0  0
    1.5770    0.4210    0.2480 O   0  0  0  0  0  0  0  0  0  0  0  0
    0.6490    1.4630    0.4240 C   0  0  2  0  0  0  0  0  0  0  0  0
   -0.7470    0.9460    0.1300 C   0  0  0  0  0  0  0  0  0  0  0  0
   -0.8320    0.4160   -1.2630 C   0  0  0  0  0  0  0  0  0  0  0  0
   -2.1860   -0.0180   -1.5770 N   0  0  0  0  0  0  0  0  0  0  0  0
   -3.1800    0.9660   -1.6250 C   0  0  0  0  0  0  0  0  0  0  0  0
   -2.8930    2.1570   -1.4350 O   0  0  0  0  0  0  0  0  0  0  0  0
   -4.6230    0.6840   -1.9080 C   0  0  0  0  0  0  0  0  0  0  0  0
   -5.1870    1.2870   -3.0440 C   0  0  0  0  0  0  0  0  0  0  0  0
   -6.8310    0.6430   -3.0700 S   0  0  0  0  0  0  0  0  0  0  0  0
   -6.6900   -0.3620   -1.6140 C   0  0  0  0  0  0  0  0  0  0  0  0
   -5.4260   -0.1470   -1.2100 C   0  0  0  0  0  0  0  0  0  0  0  0
   -5.2890   -0.9610    0.0760 C   0  0  0  0  0  0  0  0  0  0  0  0
   -6.7220   -0.8930    0.6120 C   0  0  1  0  0  0  0  0  0  0  0  0
   -6.9480   -1.8660    1.7180 C   0  0  0  0  0  0  0  0  0  0  0  0
   -7.0270    0.5280    0.9410 C   0  0  0  0  0  0  0  0  0  0  0  0
   -7.4260   -1.3060   -0.7030 C   0  0  0  0  0  0  0  0  0  0  0  0
    1.0000    2.6160   -0.3800 C   0  0  0  0  0  0  0  0  0  0  0  0
    2.1130    2.6730   -1.2730 N   0  0  0  0  0  0  0  0  0  0  0  0
    0.2580    3.6590   -0.2790 O   0  0  0  0  0  0  0  0  0  0  0  0
  1  2  1  0
  2  3  1  0
  3  4  1  0
  4  5  1  0
  5  6  1  0
  6  7  1  0
  6 11  1  0
  7  8  2  0
  7  9  1  0
  9 10  1  0
 10 11  1  0
 11 12  1  1
 12 13  2  0
 12 14  1  0
 14 15  1  0
 15 16  1  6
 15 31  1  0
 16 17  1  0
 17 18  1  0
 18 19  1  0
 19 20  2  0
 19 21  1  0
 21 22  2  0
 21 25  1  0
 22 23  1  0
 23 24  1  0
 24 25  2  0
 24 30  1  0
 25 26  1  0
 26 27  1  0
 27 28  1  1
 27 29  1  0
 27 30  1  0
 31 32  1  0
 31 33  2  0
M  END
