
     RDKit          3D

 33 35  0  0  0  0  0  0  0  0999 V2000
    5.9330   -0.2900    2.1370 C   0  0  0  0  0  0  0  0  0  0  0  0
    6.2110    0.4300    1.1050 C   0  0  0  0  0  0  0  0  0  0  0  0
    7.6150    0.6290    0.8080 N   0  0  0  0  0  0  0  0  0  0  0  0
    8.4030   -0.2650   -0.4660 S   0  0  0  0  0  0  0  0  0  0  0  0
    7.5680   -0.3180   -1.7290 O   0  0  0  0  0  0  0  0  0  0  0  0
    5.2890    1.0390    0.2440 N   0  0  0  0  0  0  0  0  0  0  0  0
    3.8750    0.9890    0.3280 C   0  0  0  0  0  0  0  0  0  0  0  0
    3.3520    0.3500    1.2460 O   0  0  0  0  0  0  0  0  0  0  0  0
    3.1000    1.7230   -0.7140 C   0  0  0  0  0  0  0  0  0  0  0  0
    1.7310    1.6130   -0.5960 O   0  0  0  0  0  0  0  0  0  0  0  0
    0.9220    0.5280   -0.6430 C   0  0  0  0  0  0  0  0  0  0  0  0
    1.3990   -0.7430   -0.8420 C   0  0  0  0  0  0  0  0  0  0  0  0
    0.5810   -1.8640   -0.8930 C   0  0  0  0  0  0  0  0  0  0  0  0
   -0.7680   -1.7240   -0.7410 C   0  0  0  0  0  0  0  0  0  0  0  0
   -1.6260   -2.8690   -0.7820 N   0  0  0  0  0  0  0  0  0  0  0  0
   -1.1410   -4.2060   -0.8440 C   0  0  2  0  0  0  0  0  0  0  0  0
   -2.2830   -5.2170   -0.9910 C   0  0  0  0  0  0  0  0  0  0  0  0
   -1.8930   -6.5370   -0.3600 C   0  0  0  0  0  0  0  0  0  0  0  0
   -0.5290   -6.7940   -0.4650 O   0  0  0  0  0  0  0  0  0  0  0  0
    0.2790   -5.8880    0.1780 C   0  0  0  0  0  0  0  0  0  0  0  0
   -0.4680   -4.6240    0.4750 C   0  0  0  0  0  0  0  0  0  0  0  0
   -1.2830   -0.4550   -0.5380 C   0  0  0  0  0  0  0  0  0  0  0  0
   -0.4430    0.6460   -0.4920 C   0  0  0  0  0  0  0  0  0  0  0  0
   -0.9990    2.0130   -0.2730 C   0  0  0  0  0  0  0  0  0  0  0  0
   -2.4050    1.9790   -0.1360 O   0  0  0  0  0  0  0  0  0  0  0  0
   -3.0600    3.1810    0.0720 C   0  0  0  0  0  0  0  0  0  0  0  0
   -4.4270    3.1560    0.2060 C   0  0  0  0  0  0  0  0  0  0  0  0
   -5.1530    4.2940    0.4150 C   0  0  0  0  0  0  0  0  0  0  0  0
   -4.5220    5.5190    0.4970 C   0  0  0  0  0  0  0  0  0  0  0  0
   -5.2340    6.6840    0.7060 O   0  0  0  0  0  0  0  0  0  0  0  0
   -6.6280    6.6180    0.8390 C   0  0  0  0  0  0  0  0  0  0  0  0
   -3.1510    5.5680    0.3650 C   0  0  0  0  0  0  0  0  0  0  0  0
   -2.4270    4.4000    0.1530 C   0  0  0  0  0  0  0  0  0  0  0  0
  1  2  2  0
  2  3  1  0
  2  6  1  0
  3  4  1  0
  4  5  2  0
  6  7  1  0
  7  8  2  0
  7  9  1  0
  9 10  1  0
 10 11  1  0
 11 12  2  0
 11 23  1  0
 12 13  1  0
 13 14  2  0
 14 15  1  0
 14 22  1  0
 16 15  1  1
 16 17  1  0
 16 21  1  0
 17 18  1  0
 18 19  1  0
 19 20  1  0
 20 21  1  0
 22 23  2  0
 23 24  1  0
 24 25  1  0
 25 26  1  0
 26 27  2  0
 26 33  1  0
 27 28  1  0
 28 29  2  0
 29 30  1  0
 29 32  1  0
 30 31  1  0
 32 33  2  0
M  END
