
     RDKit          3D

 33 35  0  0  0  0  0  0  0  0999 V2000
    8.3630   -0.6600   -0.0840 C   0  0  0  0  0  0  0  0  0  0  0  0
    7.0210   -1.0290    0.0020 O   0  0  0  0  0  0  0  0  0  0  0  0
    6.2810   -0.8360    1.1540 C   0  0  0  0  0  0  0  0  0  0  0  0
    6.8950   -0.2630    2.2410 C   0  0  0  0  0  0  0  0  0  0  0  0
    6.1930   -0.0550    3.4040 C   0  0  0  0  0  0  0  0  0  0  0  0
    4.8730   -0.4390    3.4300 C   0  0  0  0  0  0  0  0  0  0  0  0
    4.2440   -1.0240    2.3220 C   0  0  0  0  0  0  0  0  0  0  0  0
    4.9390   -1.2340    1.1570 C   0  0  0  0  0  0  0  0  0  0  0  0
    4.4710   -1.7810    0.0050 O   0  0  0  0  0  0  0  0  0  0  0  0
    3.1640   -2.1920   -0.2160 C   0  0  0  0  0  0  0  0  0  0  0  0
    2.2300   -1.0320   -0.1900 C   0  0  0  0  0  0  0  0  0  0  0  0
    0.8700   -1.4460   -0.4080 O   0  0  0  0  0  0  0  0  0  0  0  0
   -0.1560   -0.5250   -0.4250 C   0  0  0  0  0  0  0  0  0  0  0  0
   -1.4510   -0.9440   -0.6290 C   0  0  0  0  0  0  0  0  0  0  0  0
   -2.4360    0.0150   -0.6370 C   0  0  0  0  0  0  0  0  0  0  0  0
   -3.7830   -0.4140   -0.8330 N   0  0  0  0  0  0  0  0  0  0  0  0
   -4.1130   -1.7990   -0.9760 C   0  0  2  0  0  0  0  0  0  0  0  0
   -5.5930   -1.8950   -1.3130 C   0  0  0  0  0  0  0  0  0  0  0  0
   -5.9010   -1.1780   -2.6000 C   0  0  0  0  0  0  0  0  0  0  0  0
   -5.1490   -1.7790   -3.6210 O   0  0  0  0  0  0  0  0  0  0  0  0
   -3.8510   -2.5520    0.3080 C   0  0  0  0  0  0  0  0  0  0  0  0
   -3.4510   -1.9110    1.2590 O   0  0  0  0  0  0  0  0  0  0  0  0
   -4.0930   -4.2880    0.4890 S   0  0  0  0  0  0  0  0  0  0  0  0
   -4.6690   -5.1150   -0.9940 C   0  0  0  0  0  0  0  0  0  0  0  0
   -2.1500    1.3380   -0.4510 N   0  0  0  0  0  0  0  0  0  0  0  0
   -0.9150    1.7630   -0.2540 C   0  0  0  0  0  0  0  0  0  0  0  0
   -0.5510    3.1600   -0.0560 C   0  0  0  0  0  0  0  0  0  0  0  0
    0.6440    3.4860    0.1380 O   0  0  0  0  0  0  0  0  0  0  0  0
   -1.5000    4.2130   -0.0690 N   0  0  0  0  0  0  0  0  0  0  0  0
   -1.1530    5.5980    0.1250 C   0  0  2  0  0  0  0  0  0  0  0  0
   -2.0260    6.5040    0.9540 C   0  0  0  0  0  0  0  0  0  0  0  0
   -1.8470    6.6970   -0.5540 C   0  0  0  0  0  0  0  0  0  0  0  0
    0.0930    0.7930   -0.2440 C   0  0  0  0  0  0  0  0  0  0  0  0
  1  2  1  0
  2  3  1  0
  3  4  2  0
  3  8  1  0
  4  5  1  0
  5  6  2  0
  6  7  1  0
  7  8  2  0
  8  9  1  0
  9 10  1  0
 10 11  1  0
 11 12  1  0
 12 13  1  0
 13 14  2  0
 13 33  1  0
 14 15  1  0
 15 16  1  0
 15 25  2  0
 16 17  1  0
 17 18  1  1
 17 21  1  0
 18 19  1  0
 19 20  1  0
 21 22  2  0
 21 23  1  0
 23 24  1  0
 25 26  1  0
 26 27  1  0
 26 33  2  0
 27 28  2  0
 27 29  1  0
 30 29  1  6
 30 31  1  0
 30 32  1  0
 31 32  1  0
M  END
