
     RDKit          3D

 33 35  0  0  0  0  0  0  0  0999 V2000
   -8.1250   -0.6530    1.5170 C   0  0  0  0  0  0  0  0  0  0  0  0
   -6.9070   -1.1430    0.7100 C   0  0  0  0  0  0  0  0  0  0  0  0
   -5.6940   -0.6640    1.4300 C   0  0  2  0  0  0  0  0  0  0  0  0
   -5.6110    0.7370    1.5510 O   0  0  0  0  0  0  0  0  0  0  0  0
   -4.2650    1.0470    1.6950 C   0  0  0  0  0  0  0  0  0  0  0  0
   -3.7160    2.1680    1.9280 O   0  0  0  0  0  0  0  0  0  0  0  0
   -3.4990   -0.1740    1.5350 N   0  0  0  0  0  0  0  0  0  0  0  0
   -2.2090   -0.4310    2.0790 C   0  0  0  0  0  0  0  0  0  0  0  0
   -1.0600   -0.0850    1.1890 C   0  0  2  0  0  0  0  0  0  0  0  0
   -1.0340    1.2110    0.7550 O   0  0  0  0  0  0  0  0  0  0  0  0
   -0.9760   -1.0730    0.0600 C   0  0  0  0  0  0  0  0  0  0  0  0
    0.1620   -2.0510    0.2490 C   0  0  0  0  0  0  0  0  0  0  0  0
    1.4500   -1.3150    0.2050 N   0  0  0  0  0  0  0  0  0  0  0  0
    2.5020   -1.7850   -0.5940 C   0  0  0  0  0  0  0  0  0  0  0  0
    2.2150   -2.9350   -1.1830 O   0  0  0  0  0  0  0  0  0  0  0  0
    3.8120   -1.2880   -0.9060 C   0  0  0  0  0  0  0  0  0  0  0  0
    4.2370   -0.0150   -0.3960 N   0  0  0  0  0  0  0  0  0  0  0  0
    5.6160    0.3040   -0.5740 C   0  0  0  0  0  0  0  0  0  0  0  0
    6.7990   -0.8240   -1.3010 S   0  0  0  0  0  0  0  0  0  0  0  0
    8.2110    0.3110   -1.1680 C   0  0  0  0  0  0  0  0  0  0  0  0
    9.5830   -0.0160   -1.6030 C   0  0  0  0  0  0  0  0  0  0  0  0
    7.6530    1.4120   -0.5970 C   0  0  0  0  0  0  0  0  0  0  0  0
    8.5780    2.6060   -0.3290 C   0  0  0  0  0  0  0  0  0  0  0  0
    6.3430    1.4330   -0.2880 C   0  0  0  0  0  0  0  0  0  0  0  0
    5.6440    2.6110    0.3220 C   0  0  0  0  0  0  0  0  0  0  0  0
    4.4450    2.5770    0.5640 O   0  0  0  0  0  0  0  0  0  0  0  0
    1.4590   -0.1640    1.0820 C   0  0  0  0  0  0  0  0  0  0  0  0
    0.2540   -0.2350    2.0150 C   0  0  0  0  0  0  0  0  0  0  0  0
   -4.3720   -0.9960    0.7420 C   0  0  2  0  0  0  0  0  0  0  0  0
   -4.4890   -0.6180   -0.6950 C   0  0  0  0  0  0  0  0  0  0  0  0
   -4.7720    0.8080   -0.9940 C   0  0  0  0  0  0  0  0  0  0  0  0
   -4.8480    0.9710   -2.5260 C   0  0  0  0  0  0  0  0  0  0  0  0
   -5.8480    0.1920   -3.0760 O   0  0  0  0  0  0  0  0  0  0  0  0
  1  2  1  0
  3  2  1  6
  3  4  1  0
  3 29  1  0
  4  5  1  0
  5  6  2  0
  5  7  1  0
  7  8  1  0
  7 29  1  0
  8  9  1  0
  9 10  1  6
  9 11  1  0
  9 28  1  0
 11 12  1  0
 12 13  1  0
 13 14  1  0
 13 27  1  0
 14 15  2  0
 14 16  1  0
 16 17  1  0
 17 18  1  0
 18 19  1  0
 18 24  2  0
 19 20  1  0
 20 21  1  0
 20 22  2  0
 22 23  1  0
 22 24  1  0
 24 25  1  0
 25 26  2  0
 27 28  1  0
 29 30  1  6
 30 31  1  0
 31 32  1  0
 32 33  1  0
M  END
