
     RDKit          3D

 33 34  0  0  0  0  0  0  0  0999 V2000
   -4.1340    0.2800    1.9550 C   0  0  0  0  0  0  0  0  0  0  0  0
   -4.4630    1.2790    1.1180 O   0  0  0  0  0  0  0  0  0  0  0  0
   -3.5750    1.8480    0.2910 C   0  0  0  0  0  0  0  0  0  0  0  0
   -2.9500    1.1580   -0.8250 C   0  0  1  0  0  0  0  0  0  0  0  0
   -1.9230    2.1330   -1.5140 C   0  0  0  0  0  0  0  0  0  0  0  0
   -2.5920    3.3360   -2.0070 C   0  0  0  0  0  0  0  0  0  0  0  0
   -3.0080    3.5010   -3.3620 N   0  0  0  0  0  0  0  0  0  0  0  0
   -2.8520    4.3310   -1.2490 O   0  0  0  0  0  0  0  0  0  0  0  0
   -2.1470   -0.0300   -0.6300 N   0  0  0  0  0  0  0  0  0  0  0  0
   -2.2780   -1.1490   -1.5280 C   0  0  0  0  0  0  0  0  0  0  0  0
   -3.3570   -2.0750   -1.1830 C   0  0  0  0  0  0  0  0  0  0  0  0
   -4.3770   -2.2410   -2.0620 C   0  0  0  0  0  0  0  0  0  0  0  0
   -5.5240   -3.1280   -1.8610 C   0  0  0  0  0  0  0  0  0  0  0  0
   -5.4380   -3.8950   -0.6820 O   0  0  0  0  0  0  0  0  0  0  0  0
   -4.4330   -3.7650    0.2380 C   0  0  0  0  0  0  0  0  0  0  0  0
   -3.4470   -2.8990   -0.0050 C   0  0  0  0  0  0  0  0  0  0  0  0
   -1.2000   -0.0460    0.4240 C   0  0  0  0  0  0  0  0  0  0  0  0
   -1.1150    0.9760    1.2010 O   0  0  0  0  0  0  0  0  0  0  0  0
   -0.2570   -1.1350    0.7390 C   0  0  0  0  0  0  0  0  0  0  0  0
    0.5580   -0.7140    1.8760 N   0  0  0  0  0  0  0  0  0  0  0  0
    1.3960    0.4240    1.7760 C   0  0  0  0  0  0  0  0  0  0  0  0
    1.4410    1.0600    0.7030 O   0  0  0  0  0  0  0  0  0  0  0  0
    2.1890    0.8370    2.9260 C   0  0  1  0  0  0  0  0  0  0  0  0
    2.9740   -0.3850    3.4420 C   0  0  0  0  0  0  0  0  0  0  0  0
    3.4650    2.0720    2.5360 S   0  0  0  0  0  0  0  0  0  0  0  0
    4.7000    1.2860    1.5380 C   0  0  0  0  0  0  0  0  0  0  0  0
    5.7850    0.6320    2.1210 C   0  0  0  0  0  0  0  0  0  0  0  0
    6.7490    0.0250    1.3490 C   0  0  0  0  0  0  0  0  0  0  0  0
    6.6440    0.0610   -0.0170 C   0  0  0  0  0  0  0  0  0  0  0  0
    7.6420   -0.5670   -0.7560 O   0  0  0  0  0  0  0  0  0  0  0  0
    7.5930   -0.5670   -2.1490 C   0  0  0  0  0  0  0  0  0  0  0  0
    5.5730    0.7060   -0.6420 C   0  0  0  0  0  0  0  0  0  0  0  0
    4.6090    1.3140    0.1750 C   0  0  0  0  0  0  0  0  0  0  0  0
  1  2  1  0
  2  3  1  0
  4  3  1  1
  4  5  1  0
  4  9  1  0
  5  6  1  0
  6  7  1  0
  6  8  2  0
  9 10  1  0
  9 17  1  0
 10 11  1  0
 11 12  2  0
 11 16  1  0
 12 13  1  0
 13 14  1  0
 14 15  1  0
 15 16  2  0
 17 18  2  0
 17 19  1  0
 19 20  1  0
 20 21  1  0
 21 22  2  0
 21 23  1  0
 23 24  1  6
 23 25  1  0
 25 26  1  0
 26 27  2  0
 26 33  1  0
 27 28  1  0
 28 29  2  0
 29 30  1  0
 29 32  1  0
 30 31  1  0
 32 33  2  0
M  END
