
     RDKit          3D

 46 49  0  0  0  0  0  0  0  0999 V2000
    6.8650    3.7370    0.4380 C   0  0  0  0  0  0  0  0  0  0  0  0
    5.5250    3.9690   -0.1290 N   0  0  0  0  0  0  0  0  0  0  0  0
    4.5690    2.9340   -0.0800 C   0  0  0  0  0  0  0  0  0  0  0  0
    4.9280    1.8260    0.4590 O   0  0  0  0  0  0  0  0  0  0  0  0
    3.2080    3.1040   -0.6260 C   0  0  1  0  0  0  0  0  0  0  0  0
    2.5620    1.7790   -0.5170 N   0  0  0  0  0  0  0  0  0  0  0  0
    2.1780    1.0400   -1.6540 C   0  0  0  0  0  0  0  0  0  0  0  0
    2.3610    1.4570   -2.8090 O   0  0  0  0  0  0  0  0  0  0  0  0
    1.5190   -0.3220   -1.4790 C   0  0  2  0  0  0  0  0  0  0  0  0
    1.3810   -0.9120   -2.7260 O   0  0  0  0  0  0  0  0  0  0  0  0
    2.2050   -1.9450   -3.0200 C   0  0  0  0  0  0  0  0  0  0  0  0
    2.1640   -3.1490   -2.1860 C   0  0  0  0  0  0  0  0  0  0  0  0
    1.2630   -4.1680   -2.4020 C   0  0  0  0  0  0  0  0  0  0  0  0
    1.2630   -5.2880   -1.6190 C   0  0  0  0  0  0  0  0  0  0  0  0
    2.1540   -5.4340   -0.5990 C   0  0  0  0  0  0  0  0  0  0  0  0
    3.0580   -4.4440   -0.3590 C   0  0  0  0  0  0  0  0  0  0  0  0
    3.0570   -3.3100   -1.1540 C   0  0  0  0  0  0  0  0  0  0  0  0
    0.1510   -0.1390   -0.8790 C   0  0  2  0  0  0  0  0  0  0  0  0
    0.2920    0.4770    0.3700 O   0  0  0  0  0  0  0  0  0  0  0  0
   -0.5220   -1.4470   -0.7110 C   0  0  1  0  0  0  0  0  0  0  0  0
    0.2300   -2.1770    0.2130 O   0  0  0  0  0  0  0  0  0  0  0  0
   -1.9810   -1.4060   -0.4510 C   0  0  1  0  0  0  0  0  0  0  0  0
   -2.4550   -2.7470   -0.3820 O   0  0  0  0  0  0  0  0  0  0  0  0
   -3.3020   -3.0690   -1.4110 C   0  0  0  0  0  0  0  0  0  0  0  0
   -3.7300   -4.4760   -1.1910 C   0  0  0  0  0  0  0  0  0  0  0  0
   -4.8380   -4.6950   -0.3860 C   0  0  0  0  0  0  0  0  0  0  0  0
   -5.2830   -5.9730   -0.1410 C   0  0  0  0  0  0  0  0  0  0  0  0
   -4.6180   -7.0360   -0.7030 C   0  0  0  0  0  0  0  0  0  0  0  0
   -3.5170   -6.8390   -1.5050 C   0  0  0  0  0  0  0  0  0  0  0  0
   -3.0790   -5.5320   -1.7430 C   0  0  0  0  0  0  0  0  0  0  0  0
   -2.4680   -0.6540    0.7040 C   0  0  0  0  0  0  0  0  0  0  0  0
   -2.9370   -1.2760    1.7280 O   0  0  0  0  0  0  0  0  0  0  0  0
   -2.4950    0.7590    0.8300 N   0  0  0  0  0  0  0  0  0  0  0  0
   -3.0210    1.3810    2.0420 C   0  0  1  0  0  0  0  0  0  0  0  0
   -2.2210    2.5490    2.4110 C   0  0  0  0  0  0  0  0  0  0  0  0
   -1.1580    2.6730    3.2810 C   0  0  0  0  0  0  0  0  0  0  0  0
   -0.5270    3.8960    3.5120 C   0  0  0  0  0  0  0  0  0  0  0  0
   -1.0210    4.9820    2.8240 C   0  0  0  0  0  0  0  0  0  0  0  0
   -2.0860    4.8600    1.9500 C   0  0  0  0  0  0  0  0  0  0  0  0
   -2.7080    3.6520    1.7240 C   0  0  0  0  0  0  0  0  0  0  0  0
   -3.8530    3.2240    0.8630 C   0  0  0  0  0  0  0  0  0  0  0  0
   -4.3700    2.0460    1.6860 C   0  0  1  0  0  0  0  0  0  0  0  0
   -5.1690    1.2080    0.9410 O   0  0  0  0  0  0  0  0  0  0  0  0
    2.3950    4.0300    0.2240 C   0  0  1  0  0  0  0  0  0  0  0  0
    2.2850    3.4920    1.6510 C   0  0  0  0  0  0  0  0  0  0  0  0
    2.9590    5.4140    0.2910 C   0  0  0  0  0  0  0  0  0  0  0  0
  1  2  1  0
  2  3  1  0
  3  4  2  0
  3  5  1  0
  5  6  1  1
  5 44  1  0
  6  7  1  0
  7  8  2  0
  7  9  1  0
  9 10  1  6
  9 18  1  0
 10 11  1  0
 11 12  1  0
 12 13  2  0
 12 17  1  0
 13 14  1  0
 14 15  2  0
 15 16  1  0
 16 17  2  0
 18 19  1  1
 18 20  1  0
 20 21  1  1
 20 22  1  0
 22 23  1  1
 22 31  1  0
 23 24  1  0
 24 25  1  0
 25 26  2  0
 25 30  1  0
 26 27  1  0
 27 28  2  0
 28 29  1  0
 29 30  2  0
 31 32  2  0
 31 33  1  0
 34 33  1  6
 34 35  1  0
 34 42  1  0
 35 36  2  0
 35 40  1  0
 36 37  1  0
 37 38  2  0
 38 39  1  0
 39 40  2  0
 40 41  1  0
 41 42  1  0
 42 43  1  6
 44 45  1  1
 44 46  1  0
M  END
