
     RDKit          3D

 46 49  0  0  0  0  0  0  0  0999 V2000
    5.8140    2.5270    3.3640 C   0  0  0  0  0  0  0  0  0  0  0  0
    6.6480    1.6770    2.3970 C   0  0  0  0  0  0  0  0  0  0  0  0
    6.0350    0.3540    2.3330 C   0  0  0  0  0  0  0  0  0  0  0  0
    6.6170   -0.6670    3.0550 C   0  0  0  0  0  0  0  0  0  0  0  0
    6.0810   -1.9260    3.0450 C   0  0  0  0  0  0  0  0  0  0  0  0
    4.9450   -2.1560    2.2970 C   0  0  0  0  0  0  0  0  0  0  0  0
    4.3780   -3.4190    2.2670 O   0  0  0  0  0  0  0  0  0  0  0  0
    3.2150   -3.6070    1.4880 C   0  0  0  0  0  0  0  0  0  0  0  0
    4.3690   -1.1070    1.5700 C   0  0  0  0  0  0  0  0  0  0  0  0
    4.8930    0.1520    1.5720 C   0  0  0  0  0  0  0  0  0  0  0  0
    4.3670    1.2600    0.8140 C   0  0  0  0  0  0  0  0  0  0  0  0
    3.1470    1.0110    0.0820 N   0  0  0  0  0  0  0  0  0  0  0  0
    1.9180    0.9310    0.8190 C   0  0  0  0  0  0  0  0  0  0  0  0
    0.7040    0.6650   -0.0520 C   0  0  2  0  0  0  0  0  0  0  0  0
    0.6150    1.7150   -0.9340 O   0  0  0  0  0  0  0  0  0  0  0  0
   -0.4490    0.5130    0.9050 C   0  0  0  0  0  0  0  0  0  0  0  0
   -1.7310    0.3400    0.3130 N   0  0  0  0  0  0  0  0  0  0  0  0
   -2.5860    1.4250    0.0980 C   0  0  0  0  0  0  0  0  0  0  0  0
   -3.6910    1.2410   -0.4610 O   0  0  0  0  0  0  0  0  0  0  0  0
   -2.2370    2.7900    0.5130 C   0  0  0  0  0  0  0  0  0  0  0  0
   -3.3370    3.7600    0.1790 C   0  0  0  0  0  0  0  0  0  0  0  0
   -3.2750    4.3700   -1.0560 C   0  0  0  0  0  0  0  0  0  0  0  0
   -4.2650    5.2800   -1.4210 C   0  0  0  0  0  0  0  0  0  0  0  0
   -5.2880    5.5670   -0.5660 C   0  0  0  0  0  0  0  0  0  0  0  0
   -6.2920    6.5030   -0.9590 N   0  0  0  0  0  0  0  0  0  0  0  0
   -5.3340    4.9450    0.6720 C   0  0  0  0  0  0  0  0  0  0  0  0
   -4.3680    4.0410    1.0590 C   0  0  0  0  0  0  0  0  0  0  0  0
   -2.1200   -1.0050   -0.0670 C   0  0  2  0  0  0  0  0  0  0  0  0
   -2.3660   -1.0750   -1.5710 C   0  0  0  0  0  0  0  0  0  0  0  0
   -2.4930   -2.5330   -1.9660 C   0  0  0  0  0  0  0  0  0  0  0  0
   -2.5880   -3.4540   -0.7980 C   0  0  0  0  0  0  0  0  0  0  0  0
   -3.4690   -2.9910    0.3190 C   0  0  2  0  0  0  0  0  0  0  0  0
   -3.1340   -3.6730    1.5500 N   0  0  0  0  0  0  0  0  0  0  0  0
   -3.3240   -5.0880    1.5130 C   0  0  0  0  0  0  0  0  0  0  0  0
   -4.8800   -3.2730   -0.0470 C   0  0  0  0  0  0  0  0  0  0  0  0
   -5.5740   -4.0250    0.6990 O   0  0  0  0  0  0  0  0  0  0  0  0
   -5.4950   -2.7620   -1.1630 O   0  0  0  0  0  0  0  0  0  0  0  0
   -6.8490   -3.0620   -1.4700 C   0  0  0  0  0  0  0  0  0  0  0  0
   -3.3620   -1.5000    0.5970 C   0  0  0  0  0  0  0  0  0  0  0  0
    3.1970    0.8530   -1.3320 C   0  0  0  0  0  0  0  0  0  0  0  0
    3.0890    1.9600   -2.1550 C   0  0  0  0  0  0  0  0  0  0  0  0
    3.1270    1.8780   -3.5220 C   0  0  0  0  0  0  0  0  0  0  0  0
    3.2760    0.6650   -4.1300 C   0  0  0  0  0  0  0  0  0  0  0  0
    3.3880   -0.4750   -3.3440 C   0  0  0  0  0  0  0  0  0  0  0  0
    3.5490   -1.7700   -4.0390 C   0  0  0  0  0  0  0  0  0  0  0  0
    3.3460   -0.3580   -1.9710 C   0  0  0  0  0  0  0  0  0  0  0  0
  1  2  1  0
  2  3  1  0
  3  4  2  0
  3 10  1  0
  4  5  1  0
  5  6  2  0
  6  7  1  0
  6  9  1  0
  7  8  1  0
  9 10  2  0
 10 11  1  0
 11 12  1  0
 12 13  1  0
 12 40  1  0
 13 14  1  0
 14 15  1  6
 14 16  1  0
 16 17  1  0
 17 18  1  0
 28 17  1  1
 18 19  2  0
 18 20  1  0
 20 21  1  0
 21 22  2  0
 21 27  1  0
 22 23  1  0
 23 24  2  0
 24 25  1  0
 24 26  1  0
 26 27  2  0
 28 29  1  0
 28 39  1  0
 29 30  1  0
 30 31  1  0
 31 32  1  0
 32 33  1  1
 32 35  1  0
 32 39  1  0
 33 34  1  0
 35 36  2  0
 35 37  1  0
 37 38  1  0
 40 41  2  0
 40 46  1  0
 41 42  1  0
 42 43  2  0
 43 44  1  0
 44 45  1  0
 44 46  2  0
M  END
