
     RDKit          3D

 46 48  0  0  0  0  0  0  0  0999 V2000
   -9.7120    3.1730    1.7290 C   0  0  0  0  0  0  0  0  0  0  0  0
   -9.0060    2.9070    0.4300 C   0  0  0  0  0  0  0  0  0  0  0  0
   -8.0380    1.9910    0.3660 C   0  0  0  0  0  0  0  0  0  0  0  0
   -7.6200    1.2300    1.5050 C   0  0  0  0  0  0  0  0  0  0  0  0
   -6.6680    0.2830    1.5220 C   0  0  0  0  0  0  0  0  0  0  0  0
   -6.4100   -0.3480    2.8100 C   0  0  0  0  0  0  0  0  0  0  0  0
   -5.3030   -1.0440    2.9960 C   0  0  0  0  0  0  0  0  0  0  0  0
   -4.3890   -1.1720    1.8840 C   0  0  0  0  0  0  0  0  0  0  0  0
   -4.5900   -0.6710    0.6780 C   0  0  0  0  0  0  0  0  0  0  0  0
   -3.5580   -0.8960   -0.2610 N   0  0  0  0  0  0  0  0  0  0  0  0
   -2.8010    0.0650   -0.9520 C   0  0  0  0  0  0  0  0  0  0  0  0
   -3.0570    1.2710   -0.7410 O   0  0  0  0  0  0  0  0  0  0  0  0
   -1.7030   -0.3510   -1.9140 C   0  0  0  0  0  0  0  0  0  0  0  0
   -0.4320    0.1050   -1.3030 C   0  0  0  0  0  0  0  0  0  0  0  0
    0.0230   -0.5680   -0.1810 C   0  0  0  0  0  0  0  0  0  0  0  0
    1.2050   -0.1300    0.3840 C   0  0  0  0  0  0  0  0  0  0  0  0
    1.8780    0.9210   -0.1640 C   0  0  0  0  0  0  0  0  0  0  0  0
    3.1060    1.4250    0.4900 N   0  0  0  0  0  0  0  0  0  0  0  0
    2.8680    1.9310    1.8250 C   0  0  0  0  0  0  0  0  0  0  0  0
    4.3110    1.2760   -0.1660 C   0  0  0  0  0  0  0  0  0  0  0  0
    4.2550    0.3130   -1.1160 O   0  0  0  0  0  0  0  0  0  0  0  0
    5.5700    1.9280   -0.0390 C   0  0  1  0  0  0  0  0  0  0  0  0
    5.6190    3.0490   -1.1920 C   0  0  0  0  0  0  0  0  0  0  0  0
    5.9780    2.6540    1.1630 C   0  0  0  0  0  0  0  0  0  0  0  0
    5.2220    3.8770    1.5610 C   0  0  0  0  0  0  0  0  0  0  0  0
    6.6430    1.0730   -0.5170 O   0  0  0  0  0  0  0  0  0  0  0  0
    6.8600   -0.1400    0.1050 C   0  0  0  0  0  0  0  0  0  0  0  0
    6.0870   -0.4540    1.0620 O   0  0  0  0  0  0  0  0  0  0  0  0
    7.9050   -1.0630   -0.2570 C   0  0  0  0  0  0  0  0  0  0  0  0
    8.1720   -2.2220    0.3030 C   0  0  0  0  0  0  0  0  0  0  0  0
    7.4510   -2.8540    1.4520 C   0  0  0  0  0  0  0  0  0  0  0  0
    9.3030   -2.7970   -0.3730 N   0  0  0  0  0  0  0  0  0  0  0  0
    9.9750   -1.7650   -1.1330 C   0  0  2  0  0  0  0  0  0  0  0  0
   11.1510   -1.1840   -0.4150 C   0  0  0  0  0  0  0  0  0  0  0  0
   10.8330   -0.5380    0.9000 C   0  0  0  0  0  0  0  0  0  0  0  0
    9.9510    0.5280    0.7610 O   0  0  0  0  0  0  0  0  0  0  0  0
    8.8560   -0.7980   -1.3810 C   0  0  0  0  0  0  0  0  0  0  0  0
    1.4100    1.5570   -1.2640 C   0  0  0  0  0  0  0  0  0  0  0  0
    0.2500    1.1580   -1.8470 C   0  0  0  0  0  0  0  0  0  0  0  0
   -5.9200   -0.1090    0.3350 C   0  0  1  0  0  0  0  0  0  0  0  0
   -6.6290   -1.3240   -0.1820 N   0  0  0  0  0  0  0  0  0  0  0  0
   -7.9680   -1.1030   -0.5510 C   0  0  0  0  0  0  0  0  0  0  0  0
   -8.6690   -2.3580   -1.0560 C   0  0  2  0  0  0  0  0  0  0  0  0
   -7.9620   -2.8790   -2.2600 C   0  0  0  0  0  0  0  0  0  0  0  0
  -10.0650   -1.9160   -1.4470 C   0  0  0  0  0  0  0  0  0  0  0  0
   -8.7950   -3.3680    0.0400 C   0  0  0  0  0  0  0  0  0  0  0  0
  1  2  1  0
  2  3  2  3
  3  4  1  0
  4  5  2  3
  5  6  1  0
  5 40  1  0
  6  7  2  0
  7  8  1  0
  8  9  2  0
  9 10  1  0
  9 40  1  0
 10 11  1  0
 11 12  2  0
 11 13  1  0
 13 14  1  0
 14 15  2  0
 14 39  1  0
 15 16  1  0
 16 17  2  0
 17 18  1  0
 17 38  1  0
 18 19  1  0
 18 20  1  0
 20 21  2  0
 20 22  1  0
 22 23  1  6
 22 24  1  0
 22 26  1  0
 24 25  1  0
 26 27  1  0
 27 28  2  0
 27 29  1  0
 29 30  2  0
 29 37  1  0
 30 31  1  0
 30 32  1  0
 32 33  1  0
 33 34  1  1
 33 37  1  0
 34 35  1  0
 35 36  1  0
 38 39  2  0
 40 41  1  1
 41 42  1  0
 42 43  1  0
 43 44  1  6
 43 45  1  0
 43 46  1  0
M  END
