
     RDKit          3D

 45 47  0  0  0  0  0  0  0  0999 V2000
   -2.8090   -0.8820    0.6490 N   0  0  0  0  0  0  0  0  0  0  0  0
   -2.9990   -1.1520   -0.7270 C   0  0  0  0  0  0  0  0  0  0  0  0
   -1.8510   -1.1420   -1.5450 C   0  0  0  0  0  0  0  0  0  0  0  0
   -0.6170   -0.8750   -0.9290 N   0  0  0  0  0  0  0  0  0  0  0  0
    0.6390   -0.8020   -1.5730 C   0  0  0  0  0  0  0  0  0  0  0  0
    0.7140   -0.9860   -2.8110 O   0  0  0  0  0  0  0  0  0  0  0  0
    1.9060   -0.5200   -0.8990 C   0  0  0  0  0  0  0  0  0  0  0  0
    3.0380   -0.3270   -1.6520 C   0  0  0  0  0  0  0  0  0  0  0  0
    4.2770   -0.0550   -1.0560 C   0  0  0  0  0  0  0  0  0  0  0  0
    4.4120    0.0300    0.2980 C   0  0  0  0  0  0  0  0  0  0  0  0
    5.6340    0.3100    0.9410 N   0  0  0  0  0  0  0  0  0  0  0  0
    6.8260    0.7200    0.3040 C   0  0  0  0  0  0  0  0  0  0  0  0
    6.8940    0.8770   -0.9240 O   0  0  0  0  0  0  0  0  0  0  0  0
    8.0770    0.9860    1.0890 C   0  0  0  0  0  0  0  0  0  0  0  0
    9.2650    1.2450    0.2110 C   0  0  0  0  0  0  0  0  0  0  0  0
    9.5720    0.0320   -0.6070 C   0  0  0  0  0  0  0  0  0  0  0  0
    9.9280   -1.0610    0.2340 O   0  0  0  0  0  0  0  0  0  0  0  0
   11.0410   -1.0090    1.0520 C   0  0  0  0  0  0  0  0  0  0  0  0
   10.9440   -0.8900    2.3580 C   0  0  0  0  0  0  0  0  0  0  0  0
   12.1630   -0.8390    3.1900 C   0  0  0  0  0  0  0  0  0  0  0  0
   12.1120   -0.7260    4.4300 O   0  0  0  0  0  0  0  0  0  0  0  0
   13.4330   -0.9230    2.5110 C   0  0  0  0  0  0  0  0  0  0  0  0
   14.4940   -0.8820    3.1850 O   0  0  0  0  0  0  0  0  0  0  0  0
   13.4880   -1.0550    1.0550 C   0  0  0  0  0  0  0  0  0  0  0  0
   12.3480   -1.0920    0.4010 C   0  0  0  0  0  0  0  0  0  0  0  0
   12.4430   -1.2660   -1.3520 Cl  0  0  0  0  0  0  0  0  0  0  0  0
    3.2490   -0.1710    1.0400 C   0  0  0  0  0  0  0  0  0  0  0  0
    2.0260   -0.4390    0.4670 C   0  0  0  0  0  0  0  0  0  0  0  0
   -2.0550   -1.3950   -2.8800 C   0  0  0  0  0  0  0  0  0  0  0  0
   -3.3170   -1.6520   -3.4260 C   0  0  0  0  0  0  0  0  0  0  0  0
   -4.3810   -1.6440   -2.5630 C   0  0  0  0  0  0  0  0  0  0  0  0
   -4.2530   -1.3940   -1.1910 C   0  0  0  0  0  0  0  0  0  0  0  0
   -5.4580   -1.4470   -0.3720 C   0  0  1  0  0  0  0  0  0  0  0  0
   -5.3290   -1.4710    1.0380 N   0  0  0  0  0  0  0  0  0  0  0  0
   -6.5830   -0.6020   -0.8700 C   0  0  0  0  0  0  0  0  0  0  0  0
   -6.7940   -0.3520   -2.0760 O   0  0  0  0  0  0  0  0  0  0  0  0
   -7.5140   -0.0100    0.0520 N   0  0  0  0  0  0  0  0  0  0  0  0
   -8.5850    0.8050   -0.4530 C   0  0  0  0  0  0  0  0  0  0  0  0
   -8.6980    1.0110   -1.7080 O   0  0  0  0  0  0  0  0  0  0  0  0
   -9.5450    1.3950    0.5150 C   0  0  0  0  0  0  0  0  0  0  0  0
  -10.5140    2.2660   -0.2830 C   0  0  1  0  0  0  0  0  0  0  0  0
  -11.1820    1.4850   -1.2290 O   0  0  0  0  0  0  0  0  0  0  0  0
  -11.5020    2.8900    0.6590 C   0  0  0  0  0  0  0  0  0  0  0  0
  -12.3160    1.8850    1.4140 C   0  0  0  0  0  0  0  0  0  0  0  0
  -13.1990    2.6010    2.2510 O   0  0  0  0  0  0  0  0  0  0  0  0
  1  2  1  0
  2  3  2  0
  2 32  1  0
  3  4  1  0
  3 29  1  0
  4  5  1  0
  5  6  2  0
  5  7  1  0
  7  8  2  0
  7 28  1  0
  8  9  1  0
  9 10  2  0
 10 11  1  0
 10 27  1  0
 11 12  1  0
 12 13  2  0
 12 14  1  0
 14 15  1  0
 15 16  1  0
 16 17  1  0
 17 18  1  0
 18 19  2  0
 18 25  1  0
 19 20  1  0
 20 21  2  0
 20 22  1  0
 22 23  2  0
 22 24  1  0
 24 25  2  0
 25 26  1  0
 27 28  2  0
 29 30  2  0
 30 31  1  0
 31 32  2  0
 32 33  1  0
 33 34  1  1
 33 35  1  0
 35 36  2  0
 35 37  1  0
 37 38  1  0
 38 39  2  0
 38 40  1  0
 40 41  1  0
 41 42  1  6
 41 43  1  0
 43 44  1  0
 44 45  1  0
M  CHG  1  34   1
M  END
