
     RDKit          3D

 45 46  0  0  0  0  0  0  0  0999 V2000
  -14.3810   -1.0960    0.0620 C   0  0  0  0  0  0  0  0  0  0  0  0
  -14.0390    0.1840   -0.0370 C   0  0  0  0  0  0  0  0  0  0  0  0
  -13.3250    0.9170    1.0200 C   0  0  0  0  0  0  0  0  0  0  0  0
  -11.9050    1.1350    0.6750 C   0  0  0  0  0  0  0  0  0  0  0  0
  -11.4710    2.3150    0.1230 C   0  0  0  0  0  0  0  0  0  0  0  0
  -10.1310    2.5310   -0.2150 C   0  0  0  0  0  0  0  0  0  0  0  0
   -9.8280    3.7790   -0.7700 O   0  0  0  0  0  0  0  0  0  0  0  0
   -9.1760    1.5500   -0.0030 C   0  0  0  0  0  0  0  0  0  0  0  0
   -7.8370    1.7780   -0.3990 N   0  0  0  0  0  0  0  0  0  0  0  0
   -6.7310    0.9890    0.0380 C   0  0  0  0  0  0  0  0  0  0  0  0
   -6.8840    0.0380    0.8430 O   0  0  0  0  0  0  0  0  0  0  0  0
   -5.4000    1.2110   -0.3960 N   0  0  0  0  0  0  0  0  0  0  0  0
   -4.3110    0.4560    0.0190 N   0  0  0  0  0  0  0  0  0  0  0  0
   -4.2360   -0.9440    0.1410 C   0  0  0  0  0  0  0  0  0  0  0  0
   -5.3100   -1.5870   -0.1690 O   0  0  0  0  0  0  0  0  0  0  0  0
   -3.1010   -1.7510    0.5790 C   0  0  0  0  0  0  0  0  0  0  0  0
   -1.8660   -1.1770    0.6130 O   0  0  0  0  0  0  0  0  0  0  0  0
   -1.4600   -0.8780   -0.6670 C   0  0  0  0  0  0  0  0  0  0  0  0
   -0.1120   -0.3050   -0.8340 C   0  0  0  0  0  0  0  0  0  0  0  0
    0.2020    0.9930   -0.1780 C   0  0  0  0  0  0  0  0  0  0  0  0
    1.6930    1.2570   -0.6010 C   0  0  0  0  0  0  0  0  0  0  0  0
    2.4370    0.3170   -0.1350 O   0  0  0  0  0  0  0  0  0  0  0  0
    3.2900   -0.5660    0.2630 C   0  0  0  0  0  0  0  0  0  0  0  0
    2.8900   -1.6030    1.1340 C   0  0  0  0  0  0  0  0  0  0  0  0
    3.7900   -2.5450    1.5580 C   0  0  0  0  0  0  0  0  0  0  0  0
    5.0960   -2.4930    1.1390 C   0  0  0  0  0  0  0  0  0  0  0  0
    5.5340   -1.4960    0.2840 C   0  0  0  0  0  0  0  0  0  0  0  0
    6.9150   -1.5110   -0.1510 C   0  0  0  0  0  0  0  0  0  0  0  0
    7.7990   -2.0900    0.5070 O   0  0  0  0  0  0  0  0  0  0  0  0
    7.2240   -0.8450   -1.3570 N   0  0  0  0  0  0  0  0  0  0  0  0
    8.5140   -0.8260   -1.8550 N   0  0  0  0  0  0  0  0  0  0  0  0
    9.5770   -0.1270   -1.2330 C   0  0  0  0  0  0  0  0  0  0  0  0
    9.3950    0.5160   -0.1790 O   0  0  0  0  0  0  0  0  0  0  0  0
   10.9420   -0.1670   -1.8620 C   0  0  0  0  0  0  0  0  0  0  0  0
   11.8890    0.5640   -1.1220 O   0  0  0  0  0  0  0  0  0  0  0  0
   13.2010    0.6980   -1.4920 C   0  0  0  0  0  0  0  0  0  0  0  0
   13.5790    0.1260   -2.5700 O   0  0  0  0  0  0  0  0  0  0  0  0
   14.1490    1.4780   -0.6740 C   0  0  0  0  0  0  0  0  0  0  0  0
   13.5750    1.9140    0.6420 C   0  0  0  0  0  0  0  0  0  0  0  0
   13.1820    0.7740    1.5190 C   0  0  0  0  0  0  0  0  0  0  0  0
   12.6690    1.3410    2.7090 O   0  0  0  0  0  0  0  0  0  0  0  0
    4.6390   -0.5520   -0.1410 C   0  0  0  0  0  0  0  0  0  0  0  0
   -9.6210    0.3700    0.5510 C   0  0  0  0  0  0  0  0  0  0  0  0
  -10.9560    0.1540    0.8870 C   0  0  0  0  0  0  0  0  0  0  0  0
  -11.3340   -1.1530    1.4770 C   0  0  0  0  0  0  0  0  0  0  0  0
  1  2  2  0
  2  3  1  0
  3  4  1  0
  4  5  2  0
  4 44  1  0
  5  6  1  0
  6  7  1  0
  6  8  2  0
  8  9  1  0
  8 43  1  0
  9 10  1  0
 10 11  2  0
 10 12  1  0
 12 13  1  0
 13 14  1  0
 14 15  2  0
 14 16  1  0
 16 17  1  0
 17 18  1  0
 18 19  1  0
 19 20  1  0
 20 21  1  0
 21 22  1  0
 22 23  1  0
 23 24  2  0
 23 42  1  0
 24 25  1  0
 25 26  2  0
 26 27  1  0
 27 28  1  0
 27 42  2  0
 28 29  2  0
 28 30  1  0
 30 31  1  0
 31 32  1  0
 32 33  2  0
 32 34  1  0
 34 35  1  0
 35 36  1  0
 36 37  2  0
 36 38  1  0
 38 39  1  0
 39 40  1  0
 40 41  1  0
 43 44  2  0
 44 45  1  0
M  END
