
     RDKit          3D

 46 49  0  0  0  0  0  0  0  0999 V2000
   -7.1330   -3.1470    3.6350 C   0  0  0  0  0  0  0  0  0  0  0  0
   -5.6400   -3.0760    3.4840 C   0  0  0  0  0  0  0  0  0  0  0  0
   -5.1990   -1.8760    2.7580 N   0  0  0  0  0  0  0  0  0  0  0  0
   -5.4200   -0.5980    3.2650 C   0  0  0  0  0  0  0  0  0  0  0  0
   -5.9910   -0.4420    4.3750 O   0  0  0  0  0  0  0  0  0  0  0  0
   -5.0010    0.6260    2.5430 C   0  0  0  0  0  0  0  0  0  0  0  0
   -4.4630    0.2150    1.2830 N   0  0  0  0  0  0  0  0  0  0  0  0
   -3.0950   -0.1220    1.1790 C   0  0  0  0  0  0  0  0  0  0  0  0
   -2.3570    0.0130    2.1950 O   0  0  0  0  0  0  0  0  0  0  0  0
   -2.4540   -0.6260   -0.0470 C   0  0  0  0  0  0  0  0  0  0  0  0
   -0.9990   -0.7880    0.0310 C   0  0  0  0  0  0  0  0  0  0  0  0
   -0.1850   -0.0160   -0.8160 C   0  0  0  0  0  0  0  0  0  0  0  0
    1.1790   -0.0690   -0.8230 C   0  0  0  0  0  0  0  0  0  0  0  0
    1.8220   -0.9370    0.0590 C   0  0  0  0  0  0  0  0  0  0  0  0
    3.2670   -1.0120    0.0680 N   0  0  0  0  0  0  0  0  0  0  0  0
    4.0340   -0.1960    0.9600 C   0  0  0  0  0  0  0  0  0  0  0  0
    4.3880    1.1800    0.4790 C   0  0  1  0  0  0  0  0  0  0  0  0
    3.2470    1.9200    0.2940 O   0  0  0  0  0  0  0  0  0  0  0  0
    5.4850    1.8390    1.2040 C   0  0  0  0  0  0  0  0  0  0  0  0
    6.3880    1.1820    2.0240 C   0  0  0  0  0  0  0  0  0  0  0  0
    7.4540    1.8130    2.6750 C   0  0  0  0  0  0  0  0  0  0  0  0
    7.6380    3.1670    2.5090 C   0  0  0  0  0  0  0  0  0  0  0  0
    6.7560    3.8470    1.7010 C   0  0  0  0  0  0  0  0  0  0  0  0
    6.9600    5.3280    1.5280 C   0  0  0  0  0  0  0  0  0  0  0  0
    5.7030    3.2170    1.0590 C   0  0  0  0  0  0  0  0  0  0  0  0
    4.7640    3.9910    0.1950 C   0  0  0  0  0  0  0  0  0  0  0  0
    3.8800   -1.9230   -0.8170 C   0  0  0  0  0  0  0  0  0  0  0  0
    3.0170   -2.6200   -1.5130 O   0  0  0  0  0  0  0  0  0  0  0  0
    5.3000   -2.1910   -1.0490 C   0  0  1  0  0  0  0  0  0  0  0  0
    5.7920   -1.8210   -2.4820 C   0  0  0  0  0  0  0  0  0  0  0  0
    5.0710   -2.5860   -3.5440 C   0  0  1  0  0  0  0  0  0  0  0  0
    5.6820   -2.1550   -4.8940 C   0  0  0  0  0  0  0  0  0  0  0  0
    5.2500   -4.0840   -3.4560 C   0  0  0  0  0  0  0  0  0  0  0  0
    6.3840   -2.2420   -0.0860 C   0  0  0  0  0  0  0  0  0  0  0  0
    5.7500   -3.5480   -0.6270 C   0  0  0  0  0  0  0  0  0  0  0  0
    1.0360   -1.7010    0.8940 C   0  0  0  0  0  0  0  0  0  0  0  0
   -0.3480   -1.6490    0.9010 C   0  0  0  0  0  0  0  0  0  0  0  0
   -5.2370    0.1590    0.0610 C   0  0  1  0  0  0  0  0  0  0  0  0
   -6.5310   -0.5980    0.1680 C   0  0  0  0  0  0  0  0  0  0  0  0
   -7.2340   -0.1480   -0.9530 O   0  0  0  0  0  0  0  0  0  0  0  0
   -6.9940    1.2150   -1.0730 C   0  0  2  0  0  0  0  0  0  0  0  0
   -8.2310    1.9330   -0.5210 C   0  0  0  0  0  0  0  0  0  0  0  0
   -9.4150    1.5340   -1.3170 C   0  0  0  0  0  0  0  0  0  0  0  0
   -6.9020    1.5340   -2.4710 N   0  0  0  0  0  0  0  0  0  0  0  0
   -6.6890    2.9320   -2.7600 C   0  0  0  0  0  0  0  0  0  0  0  0
   -5.7850    1.5630   -0.2670 C   0  0  0  0  0  0  0  0  0  0  0  0
  1  2  1  0
  2  3  1  0
  3  4  1  0
  4  5  2  0
  4  6  1  0
  6  7  1  0
  7  8  1  0
 38  7  1  1
  8  9  2  0
  8 10  1  0
 10 11  1  0
 11 12  2  0
 11 37  1  0
 12 13  1  0
 13 14  2  0
 14 15  1  0
 14 36  1  0
 15 16  1  0
 15 27  1  0
 16 17  1  0
 17 18  1  1
 17 19  1  0
 19 20  2  0
 19 25  1  0
 20 21  1  0
 21 22  2  0
 22 23  1  0
 23 24  1  0
 23 25  2  0
 25 26  1  0
 27 28  2  0
 27 29  1  0
 29 30  1  6
 29 34  1  0
 29 35  1  0
 30 31  1  0
 31 32  1  6
 31 33  1  0
 34 35  1  0
 36 37  2  0
 38 39  1  0
 38 46  1  0
 39 40  1  0
 40 41  1  0
 41 42  1  1
 41 44  1  0
 41 46  1  0
 42 43  1  0
 44 45  1  0
M  END
