
     RDKit          3D

 46 49  0  0  0  0  0  0  0  0999 V2000
   10.0020    1.2450    1.8990 C   0  0  0  0  0  0  0  0  0  0  0  0
   10.1700    1.1470    0.4110 C   0  0  0  0  0  0  0  0  0  0  0  0
    9.1130    1.7590   -0.4290 C   0  0  0  0  0  0  0  0  0  0  0  0
    7.7460    1.2500   -0.4470 C   0  0  0  0  0  0  0  0  0  0  0  0
    6.8720    1.1200    0.5810 N   0  0  0  0  0  0  0  0  0  0  0  0
    6.9560    0.1750    1.6150 C   0  0  0  0  0  0  0  0  0  0  0  0
    6.6350    0.7880    2.9510 C   0  0  0  0  0  0  0  0  0  0  0  0
    6.6650    2.1450    3.0340 O   0  0  0  0  0  0  0  0  0  0  0  0
    6.1110    2.8770    2.0230 C   0  0  0  0  0  0  0  0  0  0  0  0
    5.8140    2.0860    0.7920 C   0  0  1  0  0  0  0  0  0  0  0  0
    5.4460    2.8250   -0.4270 C   0  0  0  0  0  0  0  0  0  0  0  0
    4.9430    1.9970   -1.4030 O   0  0  0  0  0  0  0  0  0  0  0  0
    3.8320    1.2410   -1.5020 C   0  0  0  0  0  0  0  0  0  0  0  0
    2.8140    1.1230   -0.6040 C   0  0  0  0  0  0  0  0  0  0  0  0
    1.7210    0.2770   -0.8600 C   0  0  0  0  0  0  0  0  0  0  0  0
    1.6210   -0.4640   -2.0120 C   0  0  0  0  0  0  0  0  0  0  0  0
    0.5020   -1.3570   -2.3040 C   0  0  0  0  0  0  0  0  0  0  0  0
   -0.5320   -1.4510   -1.3360 N   0  0  0  0  0  0  0  0  0  0  0  0
   -0.1870   -1.9450   -0.0500 C   0  0  0  0  0  0  0  0  0  0  0  0
   -0.8830   -3.2880    0.2610 C   0  0  0  0  0  0  0  0  0  0  0  0
   -2.3500   -2.9490    0.1750 C   0  0  0  0  0  0  0  0  0  0  0  0
   -3.2690   -3.1790    1.2610 C   0  0  0  0  0  0  0  0  0  0  0  0
   -2.7750   -3.7770    2.4580 N   0  0  0  0  0  0  0  0  0  0  0  0
   -4.4860   -2.8890    1.2310 O   0  0  0  0  0  0  0  0  0  0  0  0
   -2.7250   -2.4120   -0.9570 C   0  0  0  0  0  0  0  0  0  0  0  0
   -4.0700   -2.0310   -1.2150 N   0  0  0  0  0  0  0  0  0  0  0  0
   -4.5500   -0.7610   -0.8430 C   0  0  0  0  0  0  0  0  0  0  0  0
   -5.7720   -0.3270   -1.0860 C   0  0  0  0  0  0  0  0  0  0  0  0
   -6.2010    1.0470   -0.6520 C   0  0  2  0  0  0  0  0  0  0  0  0
   -5.1120    1.8360   -0.3710 O   0  0  0  0  0  0  0  0  0  0  0  0
   -7.2640    1.0430    0.3890 C   0  0  0  0  0  0  0  0  0  0  0  0
   -6.8470    0.3340    1.6570 C   0  0  2  0  0  0  0  0  0  0  0  0
   -7.9810    0.3740    2.6610 C   0  0  0  0  0  0  0  0  0  0  0  0
   -5.6560    0.9620    2.3240 C   0  0  0  0  0  0  0  0  0  0  0  0
   -5.8900    2.4020    2.7280 C   0  0  0  0  0  0  0  0  0  0  0  0
   -4.6670    2.9900    3.3980 C   0  0  0  0  0  0  0  0  0  0  0  0
   -6.7020   -1.2070   -1.7660 C   0  0  0  0  0  0  0  0  0  0  0  0
   -8.0990   -0.7940   -2.0950 C   0  0  0  0  0  0  0  0  0  0  0  0
   -6.2930   -2.4140   -2.1170 C   0  0  0  0  0  0  0  0  0  0  0  0
   -7.1860   -3.2740   -2.7760 O   0  0  0  0  0  0  0  0  0  0  0  0
   -4.9440   -2.9540   -1.8720 C   0  0  0  0  0  0  0  0  0  0  0  0
   -1.6240   -2.2160   -1.9680 C   0  0  0  0  0  0  0  0  0  0  0  0
    2.6360   -0.3510   -2.9210 C   0  0  0  0  0  0  0  0  0  0  0  0
    2.5630   -1.1430   -4.1940 C   0  0  0  0  0  0  0  0  0  0  0  0
    1.6090   -0.4750   -5.1480 C   0  0  0  0  0  0  0  0  0  0  0  0
    3.7060    0.4770   -2.6700 C   0  0  0  0  0  0  0  0  0  0  0  0
  1  2  1  0
  2  3  1  0
  3  4  1  0
  4  5  1  0
  5  6  1  0
  5 10  1  0
  6  7  1  0
  7  8  1  0
  8  9  1  0
  9 10  1  0
 10 11  1  6
 11 12  1  0
 12 13  1  0
 13 14  2  0
 13 46  1  0
 14 15  1  0
 15 16  2  0
 16 17  1  0
 16 43  1  0
 17 18  1  0
 18 19  1  0
 18 42  1  0
 19 20  1  0
 20 21  1  0
 21 22  1  0
 21 25  2  0
 22 23  1  0
 22 24  2  0
 25 26  1  0
 25 42  1  0
 26 27  1  0
 26 41  1  0
 27 28  2  0
 28 29  1  0
 28 37  1  0
 29 30  1  1
 29 31  1  0
 31 32  1  0
 32 33  1  1
 32 34  1  0
 34 35  1  0
 35 36  1  0
 37 38  1  0
 37 39  2  0
 39 40  1  0
 39 41  1  0
 43 44  1  0
 43 46  2  0
 44 45  1  0
M  END
