
     RDKit          3D

 27 27  0  0  0  0  0  0  0  0999 V2000
    7.6710    2.9210   -0.2020 C   0  0  0  0  0  0  0  0  0  0  0  0
    6.8270    1.8630   -0.8380 C   0  0  0  0  0  0  0  0  0  0  0  0
    5.9710    1.1940    0.2730 C   0  0  2  0  0  0  0  0  0  0  0  0
    6.8480    0.6530    1.1860 O   0  0  0  0  0  0  0  0  0  0  0  0
    5.0850    0.2430   -0.4380 C   0  0  0  0  0  0  0  0  0  0  0  0
    4.1110   -0.5490    0.3810 C   0  0  1  0  0  0  0  0  0  0  0  0
    3.4150   -1.3370   -0.5630 O   0  0  0  0  0  0  0  0  0  0  0  0
    2.0630   -1.1340   -0.5700 C   0  0  0  0  0  0  0  0  0  0  0  0
    1.4370   -1.4870    0.7510 C   0  0  0  0  0  0  0  0  0  0  0  0
    0.0140   -1.2790    0.7620 N   0  0  0  0  0  0  0  0  0  0  0  0
   -0.8430   -1.9660   -0.1260 C   0  0  0  0  0  0  0  0  0  0  0  0
   -0.4310   -2.7890   -0.9680 O   0  0  0  0  0  0  0  0  0  0  0  0
   -2.3210   -1.6910   -0.0530 C   0  0  1  0  0  0  0  0  0  0  0  0
   -2.9860   -2.5450   -1.0960 C   0  0  0  0  0  0  0  0  0  0  0  0
   -2.7270   -2.0510    1.3550 C   0  0  0  0  0  0  0  0  0  0  0  0
   -2.5330   -0.2380   -0.2420 C   0  0  0  0  0  0  0  0  0  0  0  0
   -1.5020    0.4640   -0.5440 O   0  0  0  0  0  0  0  0  0  0  0  0
   -3.7600    0.4450   -0.1220 N   0  0  0  0  0  0  0  0  0  0  0  0
   -4.9450   -0.2790    0.2240 C   0  0  0  0  0  0  0  0  0  0  0  0
   -6.2340    0.3780   -0.1560 C   0  0  0  0  0  0  0  0  0  0  0  0
   -6.1810    1.8450   -0.3680 C   0  0  2  0  0  0  0  0  0  0  0  0
   -7.3950    2.3450   -1.0860 C   0  0  0  0  0  0  0  0  0  0  0  0
   -4.9650    2.1700   -1.2320 C   0  0  0  0  0  0  0  0  0  0  0  0
   -3.7600    1.8850   -0.3600 C   0  0  0  0  0  0  0  0  0  0  0  0
    4.8220   -1.4320    1.3350 C   0  0  0  0  0  0  0  0  0  0  0  0
    4.7940   -2.8520    1.0980 N   0  0  0  0  0  0  0  0  0  0  0  0
    5.4570   -1.0750    2.3420 O   0  0  0  0  0  0  0  0  0  0  0  0
  1  2  1  0
  2  3  1  0
  3  4  1  1
  3  5  1  0
  6  5  1  6
  6  7  1  0
  6 25  1  0
  7  8  1  0
  8  9  1  0
  9 10  1  0
 10 11  1  0
 11 12  2  0
 11 13  1  0
 13 14  1  6
 13 15  1  0
 13 16  1  0
 16 17  2  0
 16 18  1  0
 18 19  1  0
 18 24  1  0
 19 20  1  0
 20 21  1  0
 21 22  1  6
 21 23  1  0
 23 24  1  0
 25 26  1  0
 25 27  2  0
M  END
