
     RDKit          3D

 27 27  0  0  0  0  0  0  0  0999 V2000
    7.1340    2.7900   -1.8270 C   0  0  0  0  0  0  0  0  0  0  0  0
    6.1730    2.7000   -0.7370 C   0  0  0  0  0  0  0  0  0  0  0  0
    5.5080    1.6440   -0.3410 C   0  0  0  0  0  0  0  0  0  0  0  0
    4.6040    1.8580    0.7870 N   0  0  0  0  0  0  0  0  0  0  0  0
    3.2010    1.8710    0.5410 C   0  0  0  0  0  0  0  0  0  0  0  0
    2.7450    1.7210   -0.6110 O   0  0  0  0  0  0  0  0  0  0  0  0
    2.2400    2.0690    1.6740 C   0  0  0  0  0  0  0  0  0  0  0  0
    0.8340    2.2110    1.2240 C   0  0  0  0  0  0  0  0  0  0  0  0
    0.3300    1.0960    0.4930 N   0  0  0  0  0  0  0  0  0  0  0  0
    0.2480   -0.2070    1.0100 C   0  0  0  0  0  0  0  0  0  0  0  0
    0.6470   -0.4300    2.1710 O   0  0  0  0  0  0  0  0  0  0  0  0
   -0.3070   -1.3250    0.1880 C   0  0  0  0  0  0  0  0  0  0  0  0
   -1.0330   -0.8970   -0.8820 O   0  0  0  0  0  0  0  0  0  0  0  0
   -2.1940   -0.2310   -0.6720 C   0  0  0  0  0  0  0  0  0  0  0  0
   -3.2820   -1.0850   -0.0180 C   0  0  2  0  0  0  0  0  0  0  0  0
   -2.8450   -1.5140    1.1950 O   0  0  0  0  0  0  0  0  0  0  0  0
   -3.6360   -2.1400   -1.0090 C   0  0  0  0  0  0  0  0  0  0  0  0
   -4.7840   -2.9590   -0.4940 C   0  0  0  0  0  0  0  0  0  0  0  0
   -6.0020   -2.0400   -0.4760 C   0  0  0  0  0  0  0  0  0  0  0  0
   -5.7420   -0.9150    0.4650 C   0  0  1  0  0  0  0  0  0  0  0  0
   -5.8620   -1.4540    1.8730 C   0  0  0  0  0  0  0  0  0  0  0  0
   -4.4810   -0.1790    0.1910 C   0  0  0  0  0  0  0  0  0  0  0  0
    5.6270    0.3210   -0.8590 C   0  0  0  0  0  0  0  0  0  0  0  0
    6.5630   -0.0240   -1.9100 C   0  0  0  0  0  0  0  0  0  0  0  0
    7.3440   -0.3020   -2.7550 N   0  0  0  0  0  0  0  0  0  0  0  0
    4.9200   -0.7380   -0.3900 C   0  0  0  0  0  0  0  0  0  0  0  0
    4.0180   -0.6750    0.6310 O   0  0  0  0  0  0  0  0  0  0  0  0
  1  2  1  0
  2  3  2  3
  3  4  1  0
  3 23  1  0
  4  5  1  0
  5  6  2  0
  5  7  1  0
  7  8  1  0
  8  9  1  0
  9 10  1  0
 10 11  2  0
 10 12  1  0
 12 13  1  0
 13 14  1  0
 14 15  1  0
 15 16  1  1
 15 17  1  0
 15 22  1  0
 17 18  1  0
 18 19  1  0
 19 20  1  0
 20 21  1  1
 20 22  1  0
 23 24  1  0
 23 26  2  3
 24 25  3  0
 26 27  1  0
M  END
