
     RDKit          3D

 27 27  0  0  0  0  0  0  0  0999 V2000
    5.2310    3.7230   -1.7710 C   0  0  0  0  0  0  0  0  0  0  0  0
    4.4700    2.5000   -2.1920 C   0  0  0  0  0  0  0  0  0  0  0  0
    4.1000    1.7260   -1.0870 O   0  0  0  0  0  0  0  0  0  0  0  0
    5.2390    1.3510   -0.3700 C   0  0  0  0  0  0  0  0  0  0  0  0
    4.9430    0.5350    0.8500 C   0  0  0  0  0  0  0  0  0  0  0  0
    4.0700    1.2030    1.8660 C   0  0  0  0  0  0  0  0  0  0  0  0
    2.7200    1.6350    1.3960 C   0  0  0  0  0  0  0  0  0  0  0  0
    1.9110    0.4000    0.9040 C   0  0  0  0  0  0  0  0  0  0  0  0
    2.4700   -0.6470    1.1190 O   0  0  0  0  0  0  0  0  0  0  0  0
    0.7080    0.6720    0.3180 N   0  0  0  0  0  0  0  0  0  0  0  0
    0.1370    2.0320    0.2700 C   0  0  0  0  0  0  0  0  0  0  0  0
   -1.1900    1.8990    1.0280 C   0  0  0  0  0  0  0  0  0  0  0  0
   -2.0790    0.8430    0.4800 C   0  0  0  0  0  0  0  0  0  0  0  0
   -1.4620   -0.5160    0.2390 C   0  0  1  0  0  0  0  0  0  0  0  0
   -1.3490   -1.3250    1.5010 C   0  0  0  0  0  0  0  0  0  0  0  0
   -0.5710   -0.6580    2.4560 O   0  0  0  0  0  0  0  0  0  0  0  0
   -2.2870   -1.1670   -0.8450 C   0  0  0  0  0  0  0  0  0  0  0  0
   -3.7310   -1.4380   -0.5710 C   0  0  1  0  0  0  0  0  0  0  0  0
   -4.3160   -2.0590   -1.8640 C   0  0  0  0  0  0  0  0  0  0  0  0
   -5.7770   -2.3290   -1.6410 C   0  0  0  0  0  0  0  0  0  0  0  0
   -6.0770   -3.2170   -0.6470 O   0  0  0  0  0  0  0  0  0  0  0  0
   -3.9320   -2.5040    0.4270 C   0  0  0  0  0  0  0  0  0  0  0  0
   -4.7030   -2.3840    1.3880 O   0  0  0  0  0  0  0  0  0  0  0  0
   -3.1950   -3.7480    0.2970 N   0  0  0  0  0  0  0  0  0  0  0  0
   -3.2870   -4.7950    1.1780 C   0  0  0  0  0  0  0  0  0  0  0  0
   -3.3790   -5.7150    1.9300 N   0  0  0  0  0  0  0  0  0  0  0  0
   -0.0740   -0.3850   -0.3200 C   0  0  0  0  0  0  0  0  0  0  0  0
  1  2  1  0
  2  3  1  0
  3  4  1  0
  4  5  1  0
  5  6  1  0
  6  7  1  0
  7  8  1  0
  8  9  2  0
  8 10  1  0
 10 11  1  0
 10 27  1  0
 11 12  1  0
 12 13  1  0
 13 14  1  0
 14 15  1  1
 14 17  1  0
 14 27  1  0
 15 16  1  0
 18 17  1  6
 18 19  1  0
 18 22  1  0
 19 20  1  0
 20 21  1  0
 22 23  2  0
 22 24  1  0
 24 25  1  0
 25 26  3  0
M  END
