
     RDKit          3D

 27 27  0  0  0  0  0  0  0  0999 V2000
   10.2610    1.2330   -0.4360 C   0  0  0  0  0  0  0  0  0  0  0  0
    8.9520    0.7220   -0.2350 O   0  0  0  0  0  0  0  0  0  0  0  0
    8.0030    1.4100    0.4870 C   0  0  0  0  0  0  0  0  0  0  0  0
    8.2740    2.5390    1.0030 O   0  0  0  0  0  0  0  0  0  0  0  0
    6.7100    0.8340    0.6480 N   0  0  0  0  0  0  0  0  0  0  0  0
    5.7040    1.5460    1.4080 C   0  0  0  0  0  0  0  0  0  0  0  0
    4.4000    0.7730    1.4630 C   0  0  0  0  0  0  0  0  0  0  0  0
    3.8990    0.5660    0.1210 N   0  0  0  0  0  0  0  0  0  0  0  0
    2.6820   -0.1360   -0.0930 C   0  0  0  0  0  0  0  0  0  0  0  0
    2.0690   -0.5700    0.9260 O   0  0  0  0  0  0  0  0  0  0  0  0
    2.1710   -0.3350   -1.4760 C   0  0  0  0  0  0  0  0  0  0  0  0
    0.9420   -1.0050   -1.4750 O   0  0  0  0  0  0  0  0  0  0  0  0
   -0.2320   -0.4430   -0.9230 C   0  0  0  0  0  0  0  0  0  0  0  0
   -0.0690    0.7120   -0.4490 O   0  0  0  0  0  0  0  0  0  0  0  0
   -1.5080   -1.1940   -0.9360 C   0  0  1  0  0  0  0  0  0  0  0  0
   -2.6860   -0.4180   -0.8380 N   0  0  0  0  0  0  0  0  0  0  0  0
   -2.9240    0.3480    0.3260 C   0  0  2  0  0  0  0  0  0  0  0  0
   -3.0730   -0.4330    1.6020 C   0  0  0  0  0  0  0  0  0  0  0  0
   -4.2520   -0.0580    2.4380 C   0  0  1  0  0  0  0  0  0  0  0  0
   -4.0250    1.2230    3.2480 C   0  0  0  0  0  0  0  0  0  0  0  0
   -5.5580   -0.0060    1.6850 C   0  0  0  0  0  0  0  0  0  0  0  0
   -5.3650    0.3360    0.2300 C   0  0  1  0  0  0  0  0  0  0  0  0
   -6.6360    0.9730   -0.3010 C   0  0  0  0  0  0  0  0  0  0  0  0
   -4.1590    1.2120    0.0330 C   0  0  0  0  0  0  0  0  0  0  0  0
   -1.5710   -1.9670   -2.2620 C   0  0  1  0  0  0  0  0  0  0  0  0
   -0.4270   -2.9270   -2.3930 C   0  0  0  0  0  0  0  0  0  0  0  0
   -2.8720   -2.7910   -2.2360 C   0  0  0  0  0  0  0  0  0  0  0  0
  1  2  1  0
  2  3  1  0
  3  4  2  0
  3  5  1  0
  5  6  1  0
  6  7  1  0
  7  8  1  0
  8  9  1  0
  9 10  2  0
  9 11  1  0
 11 12  1  0
 12 13  1  0
 13 14  2  0
 13 15  1  0
 15 16  1  6
 15 25  1  0
 17 16  1  6
 17 18  1  0
 17 24  1  0
 18 19  1  0
 19 20  1  6
 19 21  1  0
 21 22  1  0
 22 23  1  1
 22 24  1  0
 25 26  1  1
 25 27  1  0
M  END
