
     RDKit          3D

 27 27  0  0  0  0  0  0  0  0999 V2000
    6.6600    2.1970    2.0510 C   0  0  0  0  0  0  0  0  0  0  0  0
    6.4840    1.3270    0.8390 C   0  0  0  0  0  0  0  0  0  0  0  0
    5.8010    0.0230    1.2970 C   0  0  0  0  0  0  0  0  0  0  0  0
    5.5870   -0.8580    0.2240 N   0  0  0  0  0  0  0  0  0  0  0  0
    4.6760   -0.6130   -0.7840 C   0  0  0  0  0  0  0  0  0  0  0  0
    3.2080   -0.8400   -0.4460 C   0  0  1  0  0  0  0  0  0  0  0  0
    3.1120   -2.3940   -0.0890 C   0  0  0  0  0  0  0  0  0  0  0  0
    2.6860   -0.1880    0.7490 C   0  0  0  0  0  0  0  0  0  0  0  0
    2.4910   -0.7510   -1.7480 C   0  0  0  0  0  0  0  0  0  0  0  0
    1.0650   -0.8880   -1.6450 N   0  0  0  0  0  0  0  0  0  0  0  0
    0.2220    0.0970   -1.1280 C   0  0  0  0  0  0  0  0  0  0  0  0
    0.7670    1.2100   -0.7650 O   0  0  0  0  0  0  0  0  0  0  0  0
   -1.2290   -0.0830   -0.9810 C   0  0  0  0  0  0  0  0  0  0  0  0
   -1.8140   -1.3380   -1.3790 C   0  0  0  0  0  0  0  0  0  0  0  0
   -1.1160   -2.3030   -1.8540 O   0  0  0  0  0  0  0  0  0  0  0  0
   -3.1570   -1.6990   -1.3210 O   0  0  0  0  0  0  0  0  0  0  0  0
   -3.6740   -2.9450   -1.7280 C   0  0  0  0  0  0  0  0  0  0  0  0
   -1.9690    0.9300   -0.4770 C   0  0  0  0  0  0  0  0  0  0  0  0
   -1.2480    2.1680   -0.1090 C   0  0  0  0  0  0  0  0  0  0  0  0
   -3.3610    0.7500   -0.3320 N   0  0  0  0  0  0  0  0  0  0  0  0
   -4.2800    1.7120    0.1860 C   0  0  0  0  0  0  0  0  0  0  0  0
   -3.8860    2.8260    0.5670 O   0  0  0  0  0  0  0  0  0  0  0  0
   -5.7340    1.3790    0.2750 C   0  0  2  0  0  0  0  0  0  0  0  0
   -6.2160    1.2500    1.7000 C   0  0  0  0  0  0  0  0  0  0  0  0
   -7.4810    0.4200    1.5030 C   0  0  0  0  0  0  0  0  0  0  0  0
   -7.3120   -0.0700    0.0850 C   0  0  0  0  0  0  0  0  0  0  0  0
   -5.9390    0.0910   -0.1940 O   0  0  0  0  0  0  0  0  0  0  0  0
  1  2  1  0
  2  3  1  0
  3  4  1  0
  4  5  1  0
  5  6  1  0
  6  7  1  1
  6  8  1  0
  6  9  1  0
  9 10  1  0
 10 11  1  0
 11 12  2  0
 11 13  1  0
 13 14  1  0
 13 18  2  3
 14 15  2  0
 14 16  1  0
 16 17  1  0
 18 19  1  0
 18 20  1  0
 20 21  1  0
 21 22  2  0
 23 21  1  1
 23 24  1  0
 23 27  1  0
 24 25  1  0
 25 26  1  0
 26 27  1  0
M  END
