
     RDKit          3D

 16 16  0  0  0  0  0  0  0  0999 V2000
    3.5360    1.2500    1.0870 O   0  0  0  0  0  0  0  0  0  0  0  0
    3.5050    0.0490    0.7660 C   0  0  0  0  0  0  0  0  0  0  0  0
    4.6650   -0.7170    0.7930 O   0  0  0  0  0  0  0  0  0  0  0  0
    2.2380   -0.6110    0.3440 C   0  0  0  0  0  0  0  0  0  0  0  0
    2.2210   -1.7970    0.0300 O   0  0  0  0  0  0  0  0  0  0  0  0
    1.0790    0.1820    0.3250 N   0  0  0  0  0  0  0  0  0  0  0  0
   -0.2260   -0.2470   -0.0350 C   0  0  0  0  0  0  0  0  0  0  0  0
   -0.5080   -1.6190   -0.1070 C   0  0  0  0  0  0  0  0  0  0  0  0
   -1.7760   -2.0940   -0.3910 C   0  0  0  0  0  0  0  0  0  0  0  0
   -2.7840   -1.1910   -0.6060 C   0  0  0  0  0  0  0  0  0  0  0  0
   -4.7200   -1.8950   -1.0370 I   0  0  0  0  0  0  0  0  0  0  0  0
   -2.5060    0.1480   -0.5350 C   0  0  0  0  0  0  0  0  0  0  0  0
   -1.2300    0.6690   -0.2500 C   0  0  0  0  0  0  0  0  0  0  0  0
   -1.0630    2.1060   -0.2480 C   0  0  0  0  0  0  0  0  0  0  0  0
    0.0180    2.6690   -0.0600 O   0  0  0  0  0  0  0  0  0  0  0  0
   -2.1670    2.9470   -0.4690 O   0  0  0  0  0  0  0  0  0  0  0  0
  1  2  2  0
  2  3  1  0
  2  4  1  0
  4  5  2  0
  4  6  1  0
  6  7  1  0
  7  8  2  0
  7 13  1  0
  8  9  1  0
  9 10  2  0
 10 11  1  0
 10 12  1  0
 12 13  2  0
 13 14  1  0
 14 15  2  0
 14 16  1  0
M  END
