
     RDKit          3D

 28 28  0  0  0  0  0  0  0  0999 V2000
   -5.6420    2.3230   -3.0630 C   0  0  0  0  0  0  0  0  0  0  0  0
   -5.5970    2.9710   -1.7210 C   0  0  0  0  0  0  0  0  0  0  0  0
   -4.5970    2.3330   -0.7810 C   0  0  0  0  0  0  0  0  0  0  0  0
   -4.8860    0.8930   -0.5240 C   0  0  0  0  0  0  0  0  0  0  0  0
   -3.8900    0.3610    0.3790 N   0  0  0  0  0  0  0  0  0  0  0  0
   -3.9020   -0.9850    0.8080 C   0  0  0  0  0  0  0  0  0  0  0  0
   -4.7750   -1.7750    0.4250 O   0  0  0  0  0  0  0  0  0  0  0  0
   -2.7960   -1.4060    1.7560 C   0  0  0  0  0  0  0  0  0  0  0  0
   -2.9780   -2.8500    2.0790 C   0  0  1  0  0  0  0  0  0  0  0  0
   -2.8940   -3.6890    0.8020 C   0  0  0  0  0  0  0  0  0  0  0  0
   -2.2540   -3.4420    3.1850 C   0  0  0  0  0  0  0  0  0  0  0  0
   -0.8400   -3.6610    3.3690 C   0  0  0  0  0  0  0  0  0  0  0  0
    0.1570   -2.6870    3.2540 N   0  0  0  0  0  0  0  0  0  0  0  0
    0.6160   -2.1210    2.0340 C   0  0  0  0  0  0  0  0  0  0  0  0
    0.1290   -2.5260    0.9250 O   0  0  0  0  0  0  0  0  0  0  0  0
    1.6310   -1.0890    2.0280 C   0  0  0  0  0  0  0  0  0  0  0  0
    2.0320   -0.5870    0.8790 C   0  0  0  0  0  0  0  0  0  0  0  0
    3.0550    0.4550    0.8640 C   0  0  0  0  0  0  0  0  0  0  0  0
    3.5510    0.8710    1.9400 O   0  0  0  0  0  0  0  0  0  0  0  0
    3.5170    1.0250   -0.3550 N   0  0  0  0  0  0  0  0  0  0  0  0
    4.5200    2.0500   -0.4180 C   0  0  0  0  0  0  0  0  0  0  0  0
    4.7580    2.4110   -1.8600 C   0  0  1  0  0  0  0  0  0  0  0  0
    5.7330    3.4080   -1.9360 O   0  0  0  0  0  0  0  0  0  0  0  0
    6.9160    3.0580   -1.3220 C   0  0  0  0  0  0  0  0  0  0  0  0
    7.3450    1.7820   -1.6740 O   0  0  0  0  0  0  0  0  0  0  0  0
    6.7670    1.5040   -2.9240 C   0  0  0  0  0  0  0  0  0  0  0  0
    5.2860    1.2270   -2.6520 C   0  0  1  0  0  0  0  0  0  0  0  0
    5.2300    0.0440   -1.9190 O   0  0  0  0  0  0  0  0  0  0  0  0
  1  2  1  0
  2  3  1  0
  3  4  1  0
  4  5  1  0
  5  6  1  0
  6  7  2  0
  6  8  1  0
  8  9  1  0
  9 10  1  6
  9 11  1  0
 11 12  1  0
 12 13  1  0
 13 14  1  0
 14 15  2  0
 14 16  1  0
 16 17  2  3
 17 18  1  0
 18 19  2  0
 18 20  1  0
 20 21  1  0
 22 21  1  1
 22 23  1  0
 22 27  1  0
 23 24  1  0
 24 25  1  0
 25 26  1  0
 26 27  1  0
 27 28  1  1
M  END
