
     RDKit          3D

 28 28  0  0  0  0  0  0  0  0999 V2000
   -4.7720    1.4280    2.7200 C   0  0  0  0  0  0  0  0  0  0  0  0
   -5.0150    1.9170    1.3290 C   0  0  0  0  0  0  0  0  0  0  0  0
   -4.7520    0.9390    0.3420 O   0  0  0  0  0  0  0  0  0  0  0  0
   -3.4940    0.3830    0.2130 C   0  0  0  0  0  0  0  0  0  0  0  0
   -2.6200    0.7880    1.0050 O   0  0  0  0  0  0  0  0  0  0  0  0
   -3.2360   -0.6610   -0.8450 C   0  0  1  0  0  0  0  0  0  0  0  0
   -4.0250   -1.8970   -0.5060 C   0  0  0  0  0  0  0  0  0  0  0  0
   -3.4540   -0.0610   -2.1700 C   0  0  0  0  0  0  0  0  0  0  0  0
   -4.7880    0.4960   -2.4460 C   0  0  0  0  0  0  0  0  0  0  0  0
   -5.9390   -0.4520   -2.4330 C   0  0  0  0  0  0  0  0  0  0  0  0
   -5.7170   -1.4330   -3.4300 O   0  0  0  0  0  0  0  0  0  0  0  0
   -1.8250   -1.0190   -0.6410 N   0  0  0  0  0  0  0  0  0  0  0  0
   -0.7470   -0.1400   -0.7010 C   0  0  0  0  0  0  0  0  0  0  0  0
   -0.9250    1.0710   -0.9440 O   0  0  0  0  0  0  0  0  0  0  0  0
    0.6720   -0.5570   -0.4870 C   0  0  1  0  0  0  0  0  0  0  0  0
    1.2510    0.3660    0.5700 C   0  0  0  0  0  0  0  0  0  0  0  0
    2.1830   -0.3660    1.3950 N   0  0  0  0  0  0  0  0  0  0  0  0
    3.5430   -0.1560    1.5770 C   0  0  0  0  0  0  0  0  0  0  0  0
    4.1310   -0.9710    2.4010 O   0  0  0  0  0  0  0  0  0  0  0  0
    4.4330    0.8460    0.9850 C   0  0  2  0  0  0  0  0  0  0  0  0
    3.8130    1.6900    0.0360 N   0  0  0  0  0  0  0  0  0  0  0  0
    5.6120    0.0930    0.3900 C   0  0  1  0  0  0  0  0  0  0  0  0
    5.0680   -0.8560   -0.6540 C   0  0  0  0  0  0  0  0  0  0  0  0
    6.5720    1.0320   -0.3030 C   0  0  0  0  0  0  0  0  0  0  0  0
    7.1360    2.0650    0.6290 C   0  0  0  0  0  0  0  0  0  0  0  0
    1.5040   -1.4870    2.0970 C   0  0  0  0  0  0  0  0  0  0  0  0
    0.8280   -2.2950    1.0580 C   0  0  0  0  0  0  0  0  0  0  0  0
    0.8510   -1.8770   -0.2220 O   0  0  0  0  0  0  0  0  0  0  0  0
  1  2  1  0
  2  3  1  0
  3  4  1  0
  4  5  2  0
  4  6  1  0
  6  7  1  1
  6  8  1  0
  6 12  1  0
  8  9  1  0
  9 10  1  0
 10 11  1  0
 12 13  1  0
 13 14  2  0
 15 13  1  1
 15 16  1  0
 15 28  1  0
 16 17  1  0
 17 18  1  0
 17 26  1  0
 18 19  2  0
 18 20  1  0
 20 21  1  6
 20 22  1  0
 22 23  1  6
 22 24  1  0
 24 25  1  0
 26 27  1  0
 27 28  1  0
M  END
