
     RDKit          3D

 28 29  0  0  0  0  0  0  0  0999 V2000
    3.1930   -1.6420   -3.0820 C   0  0  0  0  0  0  0  0  0  0  0  0
    3.3680   -0.3340   -2.6730 O   0  0  0  0  0  0  0  0  0  0  0  0
    2.2520    0.1940   -2.0820 C   0  0  0  0  0  0  0  0  0  0  0  0
    1.7730   -0.5070   -0.8530 C   0  0  1  0  0  0  0  0  0  0  0  0
    2.7790   -0.4880    0.2680 C   0  0  0  0  0  0  0  0  0  0  0  0
    3.1310    0.8980    0.6990 C   0  0  0  0  0  0  0  0  0  0  0  0
    4.0790    0.8200    1.7480 O   0  0  0  0  0  0  0  0  0  0  0  0
    5.3230    0.2290    1.6360 C   0  0  0  0  0  0  0  0  0  0  0  0
    5.5510   -1.0510    1.7660 C   0  0  0  0  0  0  0  0  0  0  0  0
    6.8780   -1.6520    1.6420 C   0  0  0  0  0  0  0  0  0  0  0  0
    7.9590   -0.9250    1.3850 C   0  0  0  0  0  0  0  0  0  0  0  0
    7.8190    0.5220    1.2210 C   0  0  0  0  0  0  0  0  0  0  0  0
    8.8460    1.1910    0.9800 O   0  0  0  0  0  0  0  0  0  0  0  0
    6.4900    1.0880    1.3490 C   0  0  0  0  0  0  0  0  0  0  0  0
    6.3380    2.3510    1.2100 N   0  0  0  0  0  0  0  0  0  0  0  0
    0.5870    0.2170   -0.3840 N   0  0  0  0  0  0  0  0  0  0  0  0
   -0.6870   -0.3870   -0.2780 C   0  0  0  0  0  0  0  0  0  0  0  0
   -0.8370   -1.5890   -0.5910 O   0  0  0  0  0  0  0  0  0  0  0  0
   -1.8440    0.4090    0.2040 C   0  0  0  0  0  0  0  0  0  0  0  0
   -3.0730   -0.4370    0.2300 C   0  0  0  0  0  0  0  0  0  0  0  0
   -3.0560   -1.6560   -0.1220 O   0  0  0  0  0  0  0  0  0  0  0  0
   -4.2630    0.1890    0.6680 N   0  0  0  0  0  0  0  0  0  0  0  0
   -5.5170   -0.5410    0.7320 C   0  0  0  0  0  0  0  0  0  0  0  0
   -6.6330    0.3580    1.2310 C   0  0  1  0  0  0  0  0  0  0  0  0
   -6.7880    1.4720    0.2180 C   0  0  0  0  0  0  0  0  0  0  0  0
   -7.8160    0.8290   -0.7240 C   0  0  0  0  0  0  0  0  0  0  0  0
   -8.6690    0.1110    0.3270 C   0  0  0  0  0  0  0  0  0  0  0  0
   -7.8050   -0.3380    1.2860 O   0  0  0  0  0  0  0  0  0  0  0  0
  1  2  1  0
  2  3  1  0
  4  3  1  6
  4  5  1  0
  4 16  1  0
  5  6  1  0
  6  7  1  0
  7  8  1  0
  8  9  2  0
  8 14  1  0
  9 10  1  0
 10 11  2  0
 11 12  1  0
 12 13  2  0
 12 14  1  0
 14 15  2  0
 16 17  1  0
 17 18  2  0
 17 19  1  0
 19 20  1  0
 20 21  2  0
 20 22  1  0
 22 23  1  0
 24 23  1  6
 24 25  1  0
 24 28  1  0
 25 26  1  0
 26 27  1  0
 27 28  1  0
M  END
