
     RDKit          3D

 28 28  0  0  0  0  0  0  0  0999 V2000
   -4.4010    3.2180    2.3050 C   0  0  0  0  0  0  0  0  0  0  0  0
   -4.2400    3.3550    0.8340 C   0  0  0  0  0  0  0  0  0  0  0  0
   -3.3050    2.6810    0.1860 C   0  0  0  0  0  0  0  0  0  0  0  0
   -2.4170    1.7800    0.9680 C   0  0  0  0  0  0  0  0  0  0  0  0
   -2.4610    0.3750    0.5560 C   0  0  0  0  0  0  0  0  0  0  0  0
   -1.4710   -0.3750    0.1250 C   0  0  0  0  0  0  0  0  0  0  0  0
   -0.0630    0.0340   -0.0540 C   0  0  0  0  0  0  0  0  0  0  0  0
    0.3430    1.1830    0.2010 O   0  0  0  0  0  0  0  0  0  0  0  0
    0.9210   -0.8950   -0.5420 N   0  0  0  0  0  0  0  0  0  0  0  0
    2.2710   -0.5130   -0.7150 C   0  0  0  0  0  0  0  0  0  0  0  0
    2.5310    0.6980   -0.4070 O   0  0  0  0  0  0  0  0  0  0  0  0
    3.2870   -1.3740   -1.1900 N   0  0  0  0  0  0  0  0  0  0  0  0
    3.1150   -2.7090   -1.5640 C   0  0  0  0  0  0  0  0  0  0  0  0
    2.0270   -3.2890   -1.5170 O   0  0  0  0  0  0  0  0  0  0  0  0
    4.6650   -0.8610   -1.3200 C   0  0  2  0  0  0  0  0  0  0  0  0
    5.1500   -0.6430    0.0910 C   0  0  0  0  0  0  0  0  0  0  0  0
    6.5780   -0.1140    0.1270 C   0  0  0  0  0  0  0  0  0  0  0  0
    6.9710    0.0470    1.6070 C   0  0  0  0  0  0  0  0  0  0  0  0
    4.7540    0.2680   -2.2130 C   0  0  0  0  0  0  0  0  0  0  0  0
    3.6100    0.8560   -2.8270 N   0  0  0  0  0  0  0  0  0  0  0  0
    5.8520    0.7950   -2.4990 O   0  0  0  0  0  0  0  0  0  0  0  0
   -1.9690   -1.7140   -0.0930 C   0  0  0  0  0  0  0  0  0  0  0  0
   -1.3010   -2.7300   -0.5180 O   0  0  0  0  0  0  0  0  0  0  0  0
   -3.3120   -1.7460    0.2310 O   0  0  0  0  0  0  0  0  0  0  0  0
   -3.7250   -0.4440    0.5310 C   0  0  2  0  0  0  0  0  0  0  0  0
   -4.6270   -0.0310   -0.6340 C   0  0  0  0  0  0  0  0  0  0  0  0
   -5.8610   -0.8960   -0.5800 C   0  0  0  0  0  0  0  0  0  0  0  0
   -5.5750   -2.3650   -0.7060 C   0  0  0  0  0  0  0  0  0  0  0  0
  1  2  1  0
  2  3  2  3
  3  4  1  0
  4  5  1  0
  5  6  2  0
  5 25  1  0
  6  7  1  0
  6 22  1  0
  7  8  2  0
  7  9  1  0
  9 10  1  0
 10 11  2  0
 10 12  1  0
 12 13  1  0
 12 15  1  0
 13 14  2  0
 15 16  1  1
 15 19  1  0
 16 17  1  0
 17 18  1  0
 19 20  1  0
 19 21  2  0
 22 23  2  0
 22 24  1  0
 24 25  1  0
 25 26  1  6
 26 27  1  0
 27 28  1  0
M  END
