
     RDKit          3D

 28 28  0  0  0  0  0  0  0  0999 V2000
   -1.9080    6.2370    0.4550 C   0  0  0  0  0  0  0  0  0  0  0  0
   -1.4580    5.0430   -0.2250 N   0  0  0  0  0  0  0  0  0  0  0  0
   -1.8740    3.7450    0.1930 C   0  0  0  0  0  0  0  0  0  0  0  0
   -2.6440    3.6600    1.1720 O   0  0  0  0  0  0  0  0  0  0  0  0
   -1.3880    2.5200   -0.5370 C   0  0  0  0  0  0  0  0  0  0  0  0
   -2.0300    1.3560    0.1220 C   0  0  2  0  0  0  0  0  0  0  0  0
   -3.5480    1.4850    0.0250 C   0  0  0  0  0  0  0  0  0  0  0  0
   -1.6990    1.3980    1.4740 O   0  0  0  0  0  0  0  0  0  0  0  0
   -1.6230    0.0480   -0.4140 N   0  0  0  0  0  0  0  0  0  0  0  0
   -0.5860   -0.1070   -1.3640 C   0  0  0  0  0  0  0  0  0  0  0  0
    0.7980   -0.3670   -0.8420 C   0  0  2  0  0  0  0  0  0  0  0  0
    1.0620   -1.7670   -0.3950 C   0  0  0  0  0  0  0  0  0  0  0  0
    2.4320   -2.0440   -0.3140 O   0  0  0  0  0  0  0  0  0  0  0  0
    3.1910   -0.8520   -0.1870 C   0  0  0  0  0  0  0  0  0  0  0  0
    2.4080    0.0580    0.6950 C   0  0  1  0  0  0  0  0  0  0  0  0
    3.1490    1.0560    1.4790 C   0  0  0  0  0  0  0  0  0  0  0  0
    3.9670    2.0770    0.8190 C   0  0  0  0  0  0  0  0  0  0  0  0
    5.1400    1.7120    0.0170 C   0  0  0  0  0  0  0  0  0  0  0  0
    6.2280    0.9880    0.7720 C   0  0  0  0  0  0  0  0  0  0  0  0
    7.2500    0.7150   -0.1370 O   0  0  0  0  0  0  0  0  0  0  0  0
    1.2950    0.5810    0.0170 O   0  0  0  0  0  0  0  0  0  0  0  0
   -2.3490   -1.0510    0.1040 C   0  0  0  0  0  0  0  0  0  0  0  0
   -3.1950   -0.8540    1.0170 O   0  0  0  0  0  0  0  0  0  0  0  0
   -2.2100   -2.3900   -0.3250 N   0  0  0  0  0  0  0  0  0  0  0  0
   -3.0190   -3.4040    0.3070 C   0  0  0  0  0  0  0  0  0  0  0  0
   -2.7560   -4.7790   -0.2600 C   0  0  2  0  0  0  0  0  0  0  0  0
   -3.0620   -4.7990   -1.7230 C   0  0  0  0  0  0  0  0  0  0  0  0
   -3.6970   -5.7340    0.4880 C   0  0  0  0  0  0  0  0  0  0  0  0
  1  2  1  0
  2  3  1  0
  3  4  2  0
  3  5  1  0
  5  6  1  0
  6  7  1  1
  6  8  1  0
  6  9  1  0
  9 10  1  0
  9 22  1  0
 11 10  1  1
 11 12  1  0
 11 21  1  0
 12 13  1  0
 13 14  1  0
 14 15  1  0
 15 16  1  6
 15 21  1  0
 16 17  1  0
 17 18  1  0
 18 19  1  0
 19 20  1  0
 22 23  2  0
 22 24  1  0
 24 25  1  0
 25 26  1  0
 26 27  1  6
 26 28  1  0
M  END
