
     RDKit          3D

 28 28  0  0  0  0  0  0  0  0999 V2000
   -0.1490    0.0040    2.5630 C   0  0  0  0  0  0  0  0  0  0  0  0
   -0.6910   -0.1750    1.1680 C   0  0  1  0  0  0  0  0  0  0  0  0
   -0.2540   -1.4510    0.5280 C   0  0  0  0  0  0  0  0  0  0  0  0
    1.2560   -1.4920    0.4330 C   0  0  0  0  0  0  0  0  0  0  0  0
    1.6600   -0.3920   -0.3530 O   0  0  0  0  0  0  0  0  0  0  0  0
    3.0120   -0.1150   -0.6500 C   0  0  0  0  0  0  0  0  0  0  0  0
    3.3760    1.2860   -0.6970 C   0  0  0  0  0  0  0  0  0  0  0  0
    2.5000    2.2330   -0.4770 C   0  0  0  0  0  0  0  0  0  0  0  0
    2.9000    3.6510   -0.5320 C   0  0  0  0  0  0  0  0  0  0  0  0
    2.6450    4.2150    0.7230 O   0  0  0  0  0  0  0  0  0  0  0  0
    3.8510   -1.0810   -0.8630 C   0  0  0  0  0  0  0  0  0  0  0  0
    5.2560   -1.0260   -1.1770 C   0  0  0  0  0  0  0  0  0  0  0  0
    5.9400    0.0340   -1.3060 O   0  0  0  0  0  0  0  0  0  0  0  0
    6.0230   -2.2380   -1.3790 N   0  0  0  0  0  0  0  0  0  0  0  0
    7.4370   -2.1860   -1.6950 C   0  0  0  0  0  0  0  0  0  0  0  0
    8.2590   -1.5080   -0.6400 C   0  0  0  0  0  0  0  0  0  0  0  0
    8.1260   -2.1920    0.5650 O   0  0  0  0  0  0  0  0  0  0  0  0
   -2.1620   -0.1760    1.1800 N   0  0  0  0  0  0  0  0  0  0  0  0
   -2.8890    0.8120    0.4600 C   0  0  0  0  0  0  0  0  0  0  0  0
   -2.2690    1.6770   -0.1800 O   0  0  0  0  0  0  0  0  0  0  0  0
   -4.2990    0.7940    0.4840 N   0  0  0  0  0  0  0  0  0  0  0  0
   -5.0280   -0.2070    1.2230 C   0  0  0  0  0  0  0  0  0  0  0  0
   -6.4720   -0.1310    0.7530 C   0  0  2  0  0  0  0  0  0  0  0  0
   -7.2100   -1.3100    1.2910 C   0  0  0  0  0  0  0  0  0  0  0  0
   -6.4320   -0.1470   -0.6400 O   0  0  0  0  0  0  0  0  0  0  0  0
   -6.0360    1.0780   -1.1310 C   0  0  2  0  0  0  0  0  0  0  0  0
   -5.3900    0.9090   -2.4900 C   0  0  0  0  0  0  0  0  0  0  0  0
   -5.0370    1.7940   -0.2430 C   0  0  0  0  0  0  0  0  0  0  0  0
  2  1  1  1
  2  3  1  0
  2 18  1  0
  3  4  1  0
  4  5  1  0
  5  6  1  0
  6  7  1  0
  6 11  2  3
  7  8  2  3
  8  9  1  0
  9 10  1  0
 11 12  1  0
 12 13  2  0
 12 14  1  0
 14 15  1  0
 15 16  1  0
 16 17  1  0
 18 19  1  0
 19 20  2  0
 19 21  1  0
 21 22  1  0
 21 28  1  0
 22 23  1  0
 23 24  1  1
 23 25  1  0
 25 26  1  0
 26 27  1  6
 26 28  1  0
M  END
