
     RDKit          3D

 20 20  0  0  0  0  0  0  0  0999 V2000
   -2.4650   -2.4570    0.2280 C   0  0  0  0  0  0  0  0  0  0  0  0
   -1.2280   -1.5700   -0.0180 C   0  0  1  0  0  0  0  0  0  0  0  0
   -0.6000   -1.4820    1.2180 O   0  0  0  0  0  0  0  0  0  0  0  0
   -0.4200   -2.3350   -0.9450 N   0  0  0  0  0  0  0  0  0  0  0  0
    0.8570   -2.8970   -0.6240 C   0  0  0  0  0  0  0  0  0  0  0  0
    1.0980   -4.1210   -0.9470 O   0  0  0  0  0  0  0  0  0  0  0  0
    1.7950   -2.1110    0.0230 O   0  0  0  0  0  0  0  0  0  0  0  0
    2.4260   -0.9680   -0.5220 C   0  0  0  0  0  0  0  0  0  0  0  0
    2.4910    0.1750    0.4390 C   0  0  0  0  0  0  0  0  0  0  0  0
    2.4450    1.5200   -0.2310 C   0  0  2  0  0  0  0  0  0  0  0  0
    3.7360    2.0840   -0.0940 O   0  0  0  0  0  0  0  0  0  0  0  0
    1.5560    2.4290    0.3270 O   0  0  0  0  0  0  0  0  0  0  0  0
    0.5310    2.1770    1.2210 C   0  0  0  0  0  0  0  0  0  0  0  0
    0.4970    2.8030    2.3430 O   0  0  0  0  0  0  0  0  0  0  0  0
   -0.4730    1.2340    0.8970 N   0  0  0  0  0  0  0  0  0  0  0  0
   -0.8430    0.8900   -0.4500 C   0  0  2  0  0  0  0  0  0  0  0  0
   -1.5360    2.1400   -1.0170 C   0  0  0  0  0  0  0  0  0  0  0  0
   -0.6540    3.2060   -0.9910 O   0  0  0  0  0  0  0  0  0  0  0  0
   -1.7430   -0.2920   -0.5600 C   0  0  2  0  0  0  0  0  0  0  0  0
   -2.9750    0.0720    0.0350 O   0  0  0  0  0  0  0  0  0  0  0  0
  2  1  1  1
  2  3  1  0
  2  4  1  0
  2 19  1  0
  4  5  1  0
  5  6  2  0
  5  7  1  0
  7  8  1  0
  8  9  1  0
  9 10  1  0
 10 11  1  1
 10 12  1  0
 12 13  1  0
 13 14  2  0
 13 15  1  0
 15 16  1  0
 16 17  1  1
 16 19  1  0
 17 18  1  0
 19 20  1  1
M  END
