
     RDKit          3D

 19 19  0  0  0  0  0  0  0  0999 V2000
   -2.5440    3.1890   -0.6640 C   0  0  0  0  0  0  0  0  0  0  0  0
   -1.2790    3.0450   -0.3150 O   0  0  0  0  0  0  0  0  0  0  0  0
   -0.6900    1.9770    0.2360 C   0  0  0  0  0  0  0  0  0  0  0  0
   -0.6980    0.6750   -0.5240 C   0  0  1  0  0  0  0  0  0  0  0  0
   -2.0810    0.1960   -0.6350 C   0  0  0  0  0  0  0  0  0  0  0  0
   -0.1690    0.9630   -1.7870 O   0  0  0  0  0  0  0  0  0  0  0  0
    0.2820   -0.2660    0.1040 C   0  0  1  0  0  0  0  0  0  0  0  0
    1.6800    0.3370    0.0730 C   0  0  0  0  0  0  0  0  0  0  0  0
    2.6030   -0.5740    0.6460 O   0  0  0  0  0  0  0  0  0  0  0  0
    3.8050   -0.0860    0.6330 O   0  0  0  0  0  0  0  0  0  0  0  0
    3.8060    1.2770    0.7010 N   0  0  0  0  0  0  0  0  0  0  0  0
    3.9920    1.8410   -0.5060 O   0  0  0  0  0  0  0  0  0  0  0  0
   -0.0330   -0.7770    1.4840 C   0  0  1  0  0  0  0  0  0  0  0  0
   -1.2240   -0.3480    2.0510 O   0  0  0  0  0  0  0  0  0  0  0  0
   -0.0250   -2.1950    1.0080 C   0  0  1  0  0  0  0  0  0  0  0  0
   -1.2570   -2.9430    1.1250 N   0  0  0  0  0  0  0  0  0  0  0  0
    0.3390   -1.6940   -0.3620 C   0  0  1  0  0  0  0  0  0  0  0  0
   -0.4460   -2.1510   -1.5220 C   0  0  0  0  0  0  0  0  0  0  0  0
    1.6970   -2.1100   -0.5840 O   0  0  0  0  0  0  0  0  0  0  0  0
  1  2  1  0
  2  3  1  0
  3  4  1  0
  4  5  1  6
  4  6  1  0
  4  7  1  0
  7  8  1  1
  7 13  1  0
  7 17  1  0
  8  9  1  0
  9 10  1  0
 10 11  1  0
 11 12  1  0
 13 14  1  6
 13 15  1  0
 15 16  1  6
 15 17  1  0
 17 18  1  6
 17 19  1  0
M  END
