
     RDKit          3D

 23 23  0  0  0  0  0  0  0  0999 V2000
   -7.8370    1.5450    0.2160 N   0  0  0  0  0  0  0  0  0  0  0  0
   -6.8380    0.5610    0.3150 C   0  0  0  0  0  0  0  0  0  0  0  0
   -7.0490   -0.5450   -0.1590 O   0  0  0  0  0  0  0  0  0  0  0  0
   -5.5190    0.7860    0.9710 C   0  0  0  0  0  0  0  0  0  0  0  0
   -4.6580   -0.4550    0.9170 C   0  0  0  0  0  0  0  0  0  0  0  0
   -3.3970   -0.1440    1.5770 N   0  0  0  0  0  0  0  0  0  0  0  0
   -2.6550    0.7980    0.8000 C   0  0  0  0  0  0  0  0  0  0  0  0
   -1.2400    0.3290    0.4830 C   0  0  1  0  0  0  0  0  0  0  0  0
   -1.2580   -0.9270   -0.3590 C   0  0  0  0  0  0  0  0  0  0  0  0
   -1.2020   -0.2910   -1.7560 C   0  0  0  0  0  0  0  0  0  0  0  0
   -0.2460    0.8500   -1.4760 C   0  0  2  0  0  0  0  0  0  0  0  0
    1.1440    0.3310   -1.4370 C   0  0  0  0  0  0  0  0  0  0  0  0
    1.7390   -0.1570   -2.4240 O   0  0  0  0  0  0  0  0  0  0  0  0
    1.8470    0.3880   -0.2070 N   0  0  0  0  0  0  0  0  0  0  0  0
    3.1710   -0.1000   -0.1460 N   0  0  0  0  0  0  0  0  0  0  0  0
    4.1920    0.3700   -1.0020 C   0  0  0  0  0  0  0  0  0  0  0  0
    3.8880    1.2550   -1.8410 O   0  0  0  0  0  0  0  0  0  0  0  0
    5.5970   -0.1250   -0.9630 C   0  0  0  0  0  0  0  0  0  0  0  0
    5.7870   -1.0860   -0.0070 O   0  0  0  0  0  0  0  0  0  0  0  0
    7.0370   -1.6220    0.0960 C   0  0  0  0  0  0  0  0  0  0  0  0
    8.0360   -0.5450    0.4200 C   0  0  0  0  0  0  0  0  0  0  0  0
    7.6300    0.0200    1.6430 O   0  0  0  0  0  0  0  0  0  0  0  0
   -0.6540    1.3190   -0.2590 O   0  0  0  0  0  0  0  0  0  0  0  0
  1  2  1  0
  2  3  2  0
  2  4  1  0
  4  5  1  0
  5  6  1  0
  6  7  1  0
  8  7  1  6
  8  9  1  0
  8 23  1  0
  9 10  1  0
 10 11  1  0
 11 12  1  1
 11 23  1  0
 12 13  2  0
 12 14  1  0
 14 15  1  0
 15 16  1  0
 16 17  2  0
 16 18  1  0
 18 19  1  0
 19 20  1  0
 20 21  1  0
 21 22  1  0
M  CHG  2   1   1   6   1
M  END
