
     RDKit          3D

 20 20  0  0  0  0  0  0  0  0999 V2000
    5.3120   -0.6200   -2.3010 C   0  0  0  0  0  0  0  0  0  0  0  0
    4.9090    0.2170   -1.2400 O   0  0  0  0  0  0  0  0  0  0  0  0
    3.9350   -0.2620   -0.3370 C   0  0  0  0  0  0  0  0  0  0  0  0
    3.4920   -1.4060   -0.5410 O   0  0  0  0  0  0  0  0  0  0  0  0
    3.5250    0.5580    0.7220 N   0  0  0  0  0  0  0  0  0  0  0  0
    2.5430    0.1820    1.6900 C   0  0  0  0  0  0  0  0  0  0  0  0
    1.1770   -0.0890    1.2060 C   0  0  1  0  0  0  0  0  0  0  0  0
    1.1390   -1.1210    0.3100 O   0  0  0  0  0  0  0  0  0  0  0  0
    0.2150   -0.4450    2.3350 C   0  0  0  0  0  0  0  0  0  0  0  0
   -0.9570    0.3970    2.1730 N   0  0  0  0  0  0  0  0  0  0  0  0
   -0.9540    0.6770    0.7570 C   0  0  1  0  0  0  0  0  0  0  0  0
   -1.8680    1.5550    0.3260 O   0  0  0  0  0  0  0  0  0  0  0  0
   -2.6980    1.1580   -0.6980 C   0  0  0  0  0  0  0  0  0  0  0  0
   -3.5300   -0.0610   -0.3420 C   0  0  1  0  0  0  0  0  0  0  0  0
   -4.3480    0.1990    0.7760 O   0  0  0  0  0  0  0  0  0  0  0  0
   -4.4040   -0.3350   -1.3940 O   0  0  0  0  0  0  0  0  0  0  0  0
   -4.2380   -1.6480   -1.7940 C   0  0  0  0  0  0  0  0  0  0  0  0
   -5.1260   -1.8990   -2.8510 O   0  0  0  0  0  0  0  0  0  0  0  0
    0.4990    1.1170    0.5760 C   0  0  1  0  0  0  0  0  0  0  0  0
    0.7770    2.2880    1.2260 O   0  0  0  0  0  0  0  0  0  0  0  0
  1  2  1  0
  2  3  1  0
  3  4  2  0
  3  5  1  0
  5  6  1  0
  6  7  1  0
  7  8  1  6
  7  9  1  0
  7 19  1  0
  9 10  1  0
 10 11  1  0
 11 12  1  1
 11 19  1  0
 12 13  1  0
 13 14  1  0
 14 15  1  1
 14 16  1  0
 16 17  1  0
 17 18  1  0
 19 20  1  1
M  END
