
     RDKit          3D

 23 23  0  0  0  0  0  0  0  0999 V2000
    4.6190    3.1450   -1.1690 C   0  0  0  0  0  0  0  0  0  0  0  0
    4.6630    1.9040   -2.0170 C   0  0  0  0  0  0  0  0  0  0  0  0
    3.7700    0.9130   -1.6270 O   0  0  0  0  0  0  0  0  0  0  0  0
    3.8270    0.3430   -0.3580 C   0  0  0  0  0  0  0  0  0  0  0  0
    4.7350    0.7860    0.3960 O   0  0  0  0  0  0  0  0  0  0  0  0
    2.9000   -0.6980    0.0730 C   0  0  0  0  0  0  0  0  0  0  0  0
    1.9690   -1.1410   -0.7240 C   0  0  0  0  0  0  0  0  0  0  0  0
    0.9900   -2.1950   -0.3620 C   0  0  0  0  0  0  0  0  0  0  0  0
   -0.3880   -1.5730   -0.4830 C   0  0  1  0  0  0  0  0  0  0  0  0
   -1.3270   -2.5670   -0.1420 N   0  0  0  0  0  0  0  0  0  0  0  0
   -1.3720   -3.0080    1.2170 C   0  0  0  0  0  0  0  0  0  0  0  0
   -2.3540   -4.0300    1.2680 O   0  0  0  0  0  0  0  0  0  0  0  0
   -2.4750   -4.5290    2.5600 C   0  0  0  0  0  0  0  0  0  0  0  0
   -0.4260   -0.2380    0.1270 C   0  0  2  0  0  0  0  0  0  0  0  0
   -0.1180   -0.1710    1.5270 N   0  0  0  0  0  0  0  0  0  0  0  0
   -1.5950    0.6410   -0.2620 C   0  0  1  0  0  0  0  0  0  0  0  0
   -2.8800    0.1210    0.0590 N   0  0  0  0  0  0  0  0  0  0  0  0
   -1.4290    2.0440    0.3030 C   0  0  0  0  0  0  0  0  0  0  0  0
   -2.5360    2.9670   -0.0400 C   0  0  2  0  0  0  0  0  0  0  0  0
   -2.7080    3.1550   -1.4700 N   0  0  0  0  0  0  0  0  0  0  0  0
   -1.9830    4.2250   -1.7950 O   0  0  0  0  0  0  0  0  0  0  0  0
   -1.3080    4.5470   -0.7250 O   0  0  0  0  0  0  0  0  0  0  0  0
   -2.0770    4.2670    0.3040 O   0  0  0  0  0  0  0  0  0  0  0  0
  1  2  1  0
  2  3  1  0
  3  4  1  0
  4  5  2  0
  4  6  1  0
  6  7  2  3
  7  8  1  0
  9  8  1  1
  9 10  1  0
  9 14  1  0
 10 11  1  0
 11 12  1  0
 12 13  1  0
 14 15  1  1
 14 16  1  0
 16 17  1  1
 16 18  1  0
 19 18  1  6
 19 20  1  0
 19 23  1  0
 20 21  1  0
 21 22  1  0
 22 23  1  0
M  CHG  3  10   1  15   1  17   1
M  END
