
     RDKit          3D

 20 20  0  0  0  0  0  0  0  0999 V2000
    4.5490   -1.0680   -0.8190 N   0  0  0  0  0  0  0  0  0  0  0  0
    3.6470   -0.4780    0.1040 C   0  0  0  0  0  0  0  0  0  0  0  0
    4.1510    0.2310    1.0160 O   0  0  0  0  0  0  0  0  0  0  0  0
    2.1750   -0.6810    0.0050 C   0  0  2  0  0  0  0  0  0  0  0  0
    1.9480   -1.5160   -1.1120 O   0  0  0  0  0  0  0  0  0  0  0  0
    1.5700    0.6490   -0.2620 C   0  0  0  0  0  0  0  0  0  0  0  0
    0.4840    0.9520    0.5400 O   0  0  0  0  0  0  0  0  0  0  0  0
   -0.3540    1.7970   -0.1740 C   0  0  2  0  0  0  0  0  0  0  0  0
   -0.2970    3.1960    0.4000 C   0  0  0  0  0  0  0  0  0  0  0  0
   -1.1690    3.9860   -0.3750 O   0  0  0  0  0  0  0  0  0  0  0  0
   -1.7820    1.2980    0.0340 C   0  0  0  0  0  0  0  0  0  0  0  0
   -2.0620    0.4340   -1.0230 O   0  0  0  0  0  0  0  0  0  0  0  0
   -3.1320   -0.3740   -0.6300 C   0  0  0  0  0  0  0  0  0  0  0  0
   -2.6400   -1.8280   -0.6120 C   0  0  1  0  0  0  0  0  0  0  0  0
   -3.0950   -2.4230   -1.7690 O   0  0  0  0  0  0  0  0  0  0  0  0
   -1.1030   -1.8310   -0.5380 C   0  0  0  0  0  0  0  0  0  0  0  0
   -0.6640   -2.1000    0.7370 O   0  0  0  0  0  0  0  0  0  0  0  0
    0.3080   -1.5440    1.5210 C   0  0  0  0  0  0  0  0  0  0  0  0
   -0.0590   -1.1790    2.6910 O   0  0  0  0  0  0  0  0  0  0  0  0
    1.6650   -1.3190    1.2100 N   0  0  0  0  0  0  0  0  0  0  0  0
  1  2  1  0
  2  3  2  0
  2  4  1  0
  4  5  1  6
  4  6  1  0
  4 20  1  0
  6  7  1  0
  7  8  1  0
  8  9  1  1
  8 11  1  0
  9 10  1  0
 11 12  1  0
 12 13  1  0
 13 14  1  0
 14 15  1  6
 14 16  1  0
 16 17  1  0
 17 18  1  0
 18 19  2  0
 18 20  1  0
M  END
