
     RDKit          3D

 22 23  0  0  0  0  0  0  0  0999 V2000
    0.7020   -0.4260    2.2720 N   0  0  0  0  0  0  0  0  0  0  0  0
    0.5000   -0.5680    1.0040 C   0  0  0  0  0  0  0  0  0  0  0  0
    1.6260   -0.2120    0.2920 N   0  0  0  0  0  0  0  0  0  0  0  0
    1.9690   -0.6820   -0.9310 C   0  0  0  0  0  0  0  0  0  0  0  0
    1.1450   -1.5690   -1.3640 O   0  0  0  0  0  0  0  0  0  0  0  0
    3.1260   -0.2410   -1.6530 C   0  0  0  0  0  0  0  0  0  0  0  0
    4.0390    0.6150   -1.3820 C   0  0  0  0  0  0  0  0  0  0  0  0
    4.1130    1.3800   -0.2060 N   0  0  0  0  0  0  0  0  0  0  0  0
    5.1830    0.8240    1.1450 P   0  0  0  0  0  0  0  0  0  0  0  0
    5.3160   -0.8960    1.1450 O   0  0  0  0  0  0  0  0  0  0  0  0
    6.7440    1.5210    0.9930 O   0  0  0  0  0  0  0  0  0  0  0  0
   -0.8640   -0.6430    0.6740 N   0  0  0  0  0  0  0  0  0  0  0  0
   -1.6780    0.5530    0.8890 C   0  0  0  0  0  0  0  0  0  0  0  0
   -1.3100    1.7120    1.1000 O   0  0  0  0  0  0  0  0  0  0  0  0
   -3.0710    0.0860    0.7990 C   0  0  1  0  0  0  0  0  0  0  0  0
   -3.9690    0.9730   -0.0220 C   0  0  2  0  0  0  0  0  0  0  0  0
   -4.4970    2.0320    0.6830 O   0  0  0  0  0  0  0  0  0  0  0  0
   -5.0510   -0.0440   -0.4050 C   0  0  0  0  0  0  0  0  0  0  0  0
   -4.1980   -1.2330   -0.7910 C   0  0  0  0  0  0  0  0  0  0  0  0
   -2.9600   -1.0780   -0.0680 N   0  0  0  0  0  0  0  0  0  0  0  0
   -1.6750   -1.6200    0.1020 C   0  0  0  0  0  0  0  0  0  0  0  0
   -1.3080   -2.8050   -0.2100 O   0  0  0  0  0  0  0  0  0  0  0  0
  1  2  2  0
  2  3  1  0
  2 12  1  0
  3  4  1  0
  4  5  2  0
  4  6  1  0
  6  7  2  3
  7  8  1  0
  8  9  1  0
  9 10  1  0
  9 11  1  0
 12 13  1  0
 12 21  1  0
 13 14  2  0
 15 13  1  6
 15 16  1  0
 15 20  1  0
 16 17  1  1
 16 18  1  0
 18 19  1  0
 19 20  1  0
 20 21  1  0
 21 22  2  0
M  END
