
     RDKit          3D

 23 25  0  0  0  0  0  0  0  0999 V2000
    4.9610   -1.0590   -0.0980 N   0  0  0  0  0  0  0  0  0  0  0  0
    3.8380   -0.5390   -0.4570 C   0  0  0  0  0  0  0  0  0  0  0  0
    2.8270   -1.4370   -0.1160 N   0  0  0  0  0  0  0  0  0  0  0  0
    1.5620   -1.0790    0.2690 C   0  0  0  0  0  0  0  0  0  0  0  0
    1.4140    0.2010    0.3560 O   0  0  0  0  0  0  0  0  0  0  0  0
    0.5490   -1.9410    0.5500 O   0  0  0  0  0  0  0  0  0  0  0  0
   -0.6450   -1.3190    0.9510 C   0  0  0  0  0  0  0  0  0  0  0  0
   -0.9300   -1.0620    2.2890 C   0  0  0  0  0  0  0  0  0  0  0  0
   -2.1040   -0.4460    2.6650 C   0  0  0  0  0  0  0  0  0  0  0  0
   -2.9930   -0.0890    1.6820 C   0  0  0  0  0  0  0  0  0  0  0  0
   -2.6910   -0.3540    0.3660 C   0  0  0  0  0  0  0  0  0  0  0  0
   -1.5270   -0.9680   -0.0470 C   0  0  0  0  0  0  0  0  0  0  0  0
   -3.8010    0.1310   -0.3790 N   0  0  0  0  0  0  0  0  0  0  0  0
   -4.2980    0.5820   -1.6320 C   0  0  0  0  0  0  0  0  0  0  0  0
   -3.7300    0.4990   -2.7380 O   0  0  0  0  0  0  0  0  0  0  0  0
   -5.6220    1.1630   -1.3270 C   0  0  0  0  0  0  0  0  0  0  0  0
   -5.7490    1.0780    0.0540 O   0  0  0  0  0  0  0  0  0  0  0  0
   -4.8640    0.1890    0.5110 N   0  0  0  0  0  0  0  0  0  0  0  0
   -4.2510    0.5380    1.6860 O   0  0  0  0  0  0  0  0  0  0  0  0
    3.9340    0.5290   -1.4140 N   0  0  0  0  0  0  0  0  0  0  0  0
    5.1080    1.8190   -1.1700 P   0  0  0  0  0  0  0  0  0  0  0  0
    5.1100    2.3110    0.4930 O   0  0  0  0  0  0  0  0  0  0  0  0
    6.6960    1.2450   -1.5570 O   0  0  0  0  0  0  0  0  0  0  0  0
  1  2  2  0
  2  3  1  0
  2 20  1  0
  3  4  1  0
  4  5  2  0
  4  6  1  0
  6  7  1  0
  7  8  2  0
  7 12  1  0
  8  9  1  0
  9 10  2  0
 10 11  1  0
 10 19  1  0
 11 12  2  0
 11 13  1  0
 13 14  1  0
 13 18  1  0
 14 15  2  0
 14 16  1  0
 16 17  1  0
 17 18  1  0
 18 19  1  0
 20 21  1  0
 21 22  1  0
 21 23  1  0
M  END
