
     RDKit          3D

 16 16  0  0  0  0  0  0  0  0999 V2000
    6.4200    0.4320   -0.5010 O   0  0  0  0  0  0  0  0  0  0  0  0
    5.2190   -0.0970   -0.6110 O   0  0  0  0  0  0  0  0  0  0  0  0
    4.7070   -0.4870    0.6090 C   0  0  0  0  0  0  0  0  0  0  0  0
    3.3300   -1.0790    0.3640 C   0  0  0  0  0  0  0  0  0  0  0  0
    2.4890   -0.1570   -0.2140 O   0  0  0  0  0  0  0  0  0  0  0  0
    1.3150   -0.6750   -0.4180 O   0  0  0  0  0  0  0  0  0  0  0  0
    0.3160    0.1730    0.0440 C   0  0  0  0  0  0  0  0  0  0  0  0
   -1.0460   -0.4190   -0.1890 C   0  0  0  0  0  0  0  0  0  0  0  0
   -2.0970    0.5360    0.3280 C   0  0  1  0  0  0  0  0  0  0  0  0
   -1.9140    0.8890    2.2050 Br  0  0  0  0  0  0  0  0  0  0  0  0
   -1.9750    1.7250   -0.3840 O   0  0  0  0  0  0  0  0  0  0  0  0
   -3.1100    2.3430   -0.3120 O   0  0  0  0  0  0  0  0  0  0  0  0
   -4.1210    1.4140   -0.4730 C   0  0  0  0  0  0  0  0  0  0  0  0
   -3.4930    0.0870   -0.0470 C   0  0  2  0  0  0  0  0  0  0  0  0
   -4.1210   -0.4330    1.0790 O   0  0  0  0  0  0  0  0  0  0  0  0
   -4.5490   -1.6700    0.8680 O   0  0  0  0  0  0  0  0  0  0  0  0
  1  2  1  0
  2  3  1  0
  3  4  1  0
  4  5  1  0
  5  6  1  0
  6  7  1  0
  7  8  1  0
  8  9  1  0
  9 10  1  1
  9 11  1  0
  9 14  1  0
 11 12  1  0
 12 13  1  0
 13 14  1  0
 14 15  1  1
 15 16  1  0
M  END
