
     RDKit          3D

 23 25  0  0  0  0  0  0  0  0999 V2000
   -6.9870    0.1040   -0.3990 O   0  0  0  0  0  0  0  0  0  0  0  0
   -5.7720   -0.0800   -0.1720 C   0  0  0  0  0  0  0  0  0  0  0  0
   -4.8870    0.0770   -1.2750 N   0  0  0  0  0  0  0  0  0  0  0  0
   -3.5860   -0.5370   -1.4320 C   0  0  0  0  0  0  0  0  0  0  0  0
   -2.6320   -0.2210   -0.3570 C   0  0  0  0  0  0  0  0  0  0  0  0
   -1.3480    0.0780   -0.5750 O   0  0  0  0  0  0  0  0  0  0  0  0
   -0.7500    0.3100    0.5580 C   0  0  0  0  0  0  0  0  0  0  0  0
    0.4260    0.6440    1.1560 C   0  0  0  0  0  0  0  0  0  0  0  0
    1.6730    0.9070    0.5590 O   0  0  0  0  0  0  0  0  0  0  0  0
    2.6030   -0.0870    0.3310 C   0  0  0  0  0  0  0  0  0  0  0  0
    2.3590   -1.2710    0.6560 O   0  0  0  0  0  0  0  0  0  0  0  0
    3.8460    0.2850   -0.2850 N   0  0  0  0  0  0  0  0  0  0  0  0
    4.8150   -0.7670   -0.5190 C   0  0  0  0  0  0  0  0  0  0  0  0
    6.3060   -0.0120   -1.3130 P   0  0  0  0  0  0  0  0  0  0  0  0
    6.0780    1.6550   -1.6970 O   0  0  0  0  0  0  0  0  0  0  0  0
    7.7030   -0.1260   -0.2820 O   0  0  0  0  0  0  0  0  0  0  0  0
    0.2740    0.7070    2.4940 N   0  0  0  0  0  0  0  0  0  0  0  0
   -0.9980    0.4130    2.7430 N   0  0  0  0  0  0  0  0  0  0  0  0
   -1.6500    0.1670    1.5990 C   0  0  0  0  0  0  0  0  0  0  0  0
   -2.8500   -0.1720    1.0120 C   0  0  0  0  0  0  0  0  0  0  0  0
   -4.1020   -0.4250    1.7390 C   0  0  0  0  0  0  0  0  0  0  0  0
   -3.9300   -0.6480    2.9410 O   0  0  0  0  0  0  0  0  0  0  0  0
   -5.4210   -0.4270    1.1740 N   0  0  0  0  0  0  0  0  0  0  0  0
  1  2  2  0
  2  3  1  0
  2 23  1  0
  3  4  1  0
  4  5  1  0
  5  6  1  0
  5 20  2  0
  6  7  1  0
  7  8  2  0
  7 19  1  0
  8  9  1  0
  8 17  1  0
  9 10  1  0
 10 11  2  0
 10 12  1  0
 12 13  1  0
 13 14  1  0
 14 15  1  0
 14 16  1  0
 17 18  1  0
 18 19  2  0
 19 20  1  0
 20 21  1  0
 21 22  2  0
 21 23  1  0
M  END
