
     RDKit          3D

 23 24  0  0  0  0  0  0  0  0999 V2000
   -3.5950   -2.0540   -0.5890 N   0  0  0  0  0  0  0  0  0  0  0  0
   -3.4250   -1.0060    0.1860 C   0  0  0  0  0  0  0  0  0  0  0  0
   -4.5890   -0.5260    0.8120 N   0  0  0  0  0  0  0  0  0  0  0  0
   -4.5120    1.1640    1.4760 P   0  0  0  0  0  0  0  0  0  0  0  0
   -4.8530    2.2390    0.1500 O   0  0  0  0  0  0  0  0  0  0  0  0
   -2.8090    1.3270    1.8590 O   0  0  0  0  0  0  0  0  0  0  0  0
   -1.8020    0.6840    1.1410 C   0  0  0  0  0  0  0  0  0  0  0  0
   -0.6520    1.1850    1.2800 N   0  0  0  0  0  0  0  0  0  0  0  0
    0.5720    1.0370    0.8990 O   0  0  0  0  0  0  0  0  0  0  0  0
    1.4810    1.7720    0.1690 C   0  0  1  0  0  0  0  0  0  0  0  0
    1.5130    3.1770    0.6560 C   0  0  0  0  0  0  0  0  0  0  0  0
    0.7700    3.5270    1.6050 O   0  0  0  0  0  0  0  0  0  0  0  0
    2.3360    4.1480    0.1090 O   0  0  0  0  0  0  0  0  0  0  0  0
    2.8980    1.2350    0.3080 C   0  0  0  0  0  0  0  0  0  0  0  0
    3.2760    0.2460   -0.7390 C   0  0  0  0  0  0  0  0  0  0  0  0
    2.3030   -0.1040   -1.6300 O   0  0  0  0  0  0  0  0  0  0  0  0
    1.9960   -1.4490   -1.6740 C   0  0  0  0  0  0  0  0  0  0  0  0
    1.8290   -2.0940   -0.3450 C   0  0  0  0  0  0  0  0  0  0  0  0
    0.6380   -2.8560   -0.1470 N   0  0  0  0  0  0  0  0  0  0  0  0
   -0.6330   -2.3540    0.2420 C   0  0  0  0  0  0  0  0  0  0  0  0
   -1.3490   -2.9810    1.0980 O   0  0  0  0  0  0  0  0  0  0  0  0
   -1.0730   -1.0860   -0.3890 C   0  0  0  0  0  0  0  0  0  0  0  0
   -2.1340   -0.4290    0.3510 N   0  0  0  0  0  0  0  0  0  0  0  0
  1  2  2  0
  2  3  1  0
  2 23  1  0
  3  4  1  0
  4  5  1  0
  4  6  1  0
  6  7  1  0
  7  8  2  0
  7 23  1  0
  8  9  1  0
  9 10  1  0
 10 11  1  1
 10 14  1  0
 11 12  2  0
 11 13  1  0
 14 15  1  0
 15 16  1  0
 16 17  1  0
 17 18  1  0
 18 19  1  0
 19 20  1  0
 20 21  2  0
 20 22  1  0
 22 23  1  0
M  END
