
     RDKit          3D

 23 24  0  0  0  0  0  0  0  0999 V2000
   -0.9650    2.7050    0.0030 C   0  0  0  0  0  0  0  0  0  0  0  0
   -0.2250    1.5890   -0.3610 N   0  0  0  0  0  0  0  0  0  0  0  0
    1.1290    1.4810   -0.1790 C   0  0  0  0  0  0  0  0  0  0  0  0
    2.1100    2.4460    0.1720 C   0  0  0  0  0  0  0  0  0  0  0  0
    1.9410    3.6640    0.2270 O   0  0  0  0  0  0  0  0  0  0  0  0
    3.4870    1.9610    0.5100 C   0  0  0  0  0  0  0  0  0  0  0  0
    4.3770    2.8960    0.2980 O   0  0  0  0  0  0  0  0  0  0  0  0
    3.7890    0.7300    0.9740 O   0  0  0  0  0  0  0  0  0  0  0  0
    4.2660   -0.4870    0.5710 C   0  0  0  0  0  0  0  0  0  0  0  0
    3.2030   -1.5560    0.5860 C   0  0  0  0  0  0  0  0  0  0  0  0
    2.8520   -2.6700    1.2200 N   0  0  0  0  0  0  0  0  0  0  0  0
    1.6350   -3.0860    0.7690 N   0  0  0  0  0  0  0  0  0  0  0  0
    1.2220   -2.2170   -0.1610 C   0  0  0  0  0  0  0  0  0  0  0  0
    2.1970   -1.3240   -0.2390 N   0  0  0  0  0  0  0  0  0  0  0  0
    0.0100   -2.0390   -0.9390 N   0  0  0  0  0  0  0  0  0  0  0  0
   -0.5980   -0.7460   -1.1400 C   0  0  0  0  0  0  0  0  0  0  0  0
   -0.9520   -0.5040   -2.3510 O   0  0  0  0  0  0  0  0  0  0  0  0
   -0.8590    0.3010   -0.1580 C   0  0  2  0  0  0  0  0  0  0  0  0
   -2.3760    0.4630   -0.0600 C   0  0  0  0  0  0  0  0  0  0  0  0
   -2.9840   -0.7800    0.1350 O   0  0  0  0  0  0  0  0  0  0  0  0
   -4.6880   -0.6670    0.2530 P   0  0  0  0  0  0  0  0  0  0  0  0
   -5.2390   -1.5410    1.6630 O   0  0  0  0  0  0  0  0  0  0  0  0
   -5.4770   -1.3280   -1.1190 O   0  0  0  0  0  0  0  0  0  0  0  0
  1  2  1  0
  2  3  1  0
  2 18  1  0
  3  4  1  0
  4  5  2  0
  4  6  1  0
  6  7  2  0
  6  8  1  0
  8  9  1  0
  9 10  1  0
 10 11  2  0
 10 14  1  0
 11 12  1  0
 12 13  1  0
 13 14  2  0
 13 15  1  0
 15 16  1  0
 16 17  2  0
 16 18  1  0
 18 19  1  6
 19 20  1  0
 20 21  1  0
 21 22  1  0
 21 23  1  0
M  END
