
     RDKit          3D

  9  8  0  0  0  0  0  0  0  0999 V2000
    2.6310    1.4370    0.2180 O   0  0  0  0  0  0  0  0  0  0  0  0
    2.4230    0.2130    0.0320 C   0  0  0  0  0  0  0  0  0  0  0  0
    3.4800   -0.6650   -0.1420 O   0  0  0  0  0  0  0  0  0  0  0  0
    1.0210   -0.2690    0.0020 C   0  0  0  0  0  0  0  0  0  0  0  0
    0.1330    0.7550    0.1960 O   0  0  0  0  0  0  0  0  0  0  0  0
   -1.4020    0.1270    0.1560 P   0  0  0  0  0  0  0  0  0  0  0  0
   -1.6810   -1.3100   -0.5320 O   0  0  0  0  0  0  0  0  0  0  0  0
   -1.7380    0.9600   -1.0750 O   0  0  0  0  0  0  0  0  0  0  0  0
   -2.6060    0.9110    1.0220 O   0  0  0  0  0  0  0  0  0  0  0  0
  1  2  2  0
  2  3  1  0
  2  4  1  0
  4  5  1  0
  5  6  1  0
  6  7  1  0
  6  8  1  0
  6  9  1  0
M  END
