
     RDKit          3D

 28 29  0  0  0  0  0  0  0  0999 V2000
   -4.7590    2.8780    0.5800 N   0  0  0  0  0  0  0  0  0  0  0  0
   -3.7650    2.2660   -0.2310 C   0  0  0  0  0  0  0  0  0  0  0  0
   -3.1010    1.1650    0.0170 N   0  0  0  0  0  0  0  0  0  0  0  0
   -2.2000    0.8940   -1.0410 C   0  0  0  0  0  0  0  0  0  0  0  0
   -1.3700   -0.0620   -1.2120 N   0  0  0  0  0  0  0  0  0  0  0  0
   -1.2760   -1.0940   -0.1750 C   0  0  1  0  0  0  0  0  0  0  0  0
   -2.5300   -1.6400   -0.0490 O   0  0  0  0  0  0  0  0  0  0  0  0
   -2.7140   -2.8680    1.0890 P   0  0  0  0  0  0  0  0  0  0  0  0
   -1.2710   -3.3030    1.9260 O   0  0  0  0  0  0  0  0  0  0  0  0
   -3.5940   -4.2420    0.5260 O   0  0  0  0  0  0  0  0  0  0  0  0
   -0.2170   -2.0980   -0.5500 C   0  0  0  0  0  0  0  0  0  0  0  0
    0.6610   -1.6210   -1.5180 O   0  0  0  0  0  0  0  0  0  0  0  0
    1.5840   -0.7340   -1.0380 C   0  0  0  0  0  0  0  0  0  0  0  0
    2.9410   -0.8580   -1.7360 C   0  0  0  0  0  0  0  0  0  0  0  0
    3.7400    0.2140   -1.3180 O   0  0  0  0  0  0  0  0  0  0  0  0
    3.6570    0.4470    0.3910 P   0  0  0  0  0  0  0  0  0  0  0  0
    5.1840   -0.1010    1.0520 O   0  0  0  0  0  0  0  0  0  0  0  0
    6.0960   -0.2180    0.1290 O   0  0  0  0  0  0  0  0  0  0  0  0
    3.4580    2.0760    0.8520 O   0  0  0  0  0  0  0  0  0  0  0  0
    2.1670    2.4930    0.9950 C   0  0  0  0  0  0  0  0  0  0  0  0
    1.4600    1.9570    2.1640 C   0  0  0  0  0  0  0  0  0  0  0  0
    1.6810    2.4960    3.2890 O   0  0  0  0  0  0  0  0  0  0  0  0
    0.5790    0.8890    2.0140 O   0  0  0  0  0  0  0  0  0  0  0  0
   -0.2410    0.7670    0.9670 O   0  0  0  0  0  0  0  0  0  0  0  0
   -0.9740   -0.4000    1.1380 C   0  0  0  0  0  0  0  0  0  0  0  0
   -2.3890    1.9840   -1.9990 C   0  0  0  0  0  0  0  0  0  0  0  0
   -1.7720    2.1110   -3.0820 O   0  0  0  0  0  0  0  0  0  0  0  0
   -3.3640    2.7970   -1.4480 O   0  0  0  0  0  0  0  0  0  0  0  0
  1  2  1  0
  2  3  2  0
  2 28  1  0
  3  4  1  0
  4  5  2  3
  4 26  1  0
  5  6  1  0
  6  7  1  1
  6 11  1  0
  6 25  1  0
  7  8  1  0
  8  9  1  0
  8 10  1  0
 11 12  1  0
 12 13  1  0
 13 14  1  0
 14 15  1  0
 15 16  1  0
 16 17  1  0
 16 19  1  0
 17 18  1  0
 19 20  1  0
 20 21  1  0
 21 22  2  0
 21 23  1  0
 23 24  1  0
 24 25  1  0
 26 27  2  0
 26 28  1  0
M  END
