
     RDKit          3D

 28 29  0  0  0  0  0  0  0  0999 V2000
    4.1000   -0.0250   -2.0870 O   0  0  0  0  0  0  0  0  0  0  0  0
    4.7620   -0.2190   -1.0530 C   0  0  0  0  0  0  0  0  0  0  0  0
    6.1320   -0.1250   -1.0740 O   0  0  0  0  0  0  0  0  0  0  0  0
    4.1130   -0.5270    0.1110 O   0  0  0  0  0  0  0  0  0  0  0  0
    2.3960   -0.6760    0.2730 P   0  0  0  0  0  0  0  0  0  0  0  0
    2.0070   -0.7780    1.9620 O   0  0  0  0  0  0  0  0  0  0  0  0
    3.0760   -0.5710    2.7000 O   0  0  0  0  0  0  0  0  0  0  0  0
    4.0400   -1.3100    2.1430 O   0  0  0  0  0  0  0  0  0  0  0  0
    1.4560    0.6650   -0.5810 C   0  0  2  0  0  0  0  0  0  0  0  0
    1.4320    1.8990    0.2760 C   0  0  0  0  0  0  0  0  0  0  0  0
    0.7680    3.0310   -0.2710 N   0  0  0  0  0  0  0  0  0  0  0  0
   -0.6190    3.2310   -0.4760 C   0  0  0  0  0  0  0  0  0  0  0  0
   -0.8830    3.7740   -1.6300 O   0  0  0  0  0  0  0  0  0  0  0  0
   -1.6720    2.9700    0.2810 O   0  0  0  0  0  0  0  0  0  0  0  0
   -2.1830    2.6930    1.4480 N   0  0  0  0  0  0  0  0  0  0  0  0
   -3.1590    1.6280    1.5660 C   0  0  0  0  0  0  0  0  0  0  0  0
   -4.1940    1.7510    2.3120 O   0  0  0  0  0  0  0  0  0  0  0  0
   -3.0550    0.3840    0.8800 N   0  0  0  0  0  0  0  0  0  0  0  0
   -3.9470   -0.7380    1.0850 C   0  0  0  0  0  0  0  0  0  0  0  0
   -3.3850   -1.9920    0.5250 C   0  0  0  0  0  0  0  0  0  0  0  0
   -1.9980   -2.0400    0.4470 O   0  0  0  0  0  0  0  0  0  0  0  0
   -1.6260   -1.1060   -0.5110 C   0  0  1  0  0  0  0  0  0  0  0  0
   -1.9840    0.2660   -0.0640 C   0  0  0  0  0  0  0  0  0  0  0  0
   -0.1000   -1.0840   -0.7350 C   0  0  1  0  0  0  0  0  0  0  0  0
    0.4250   -2.3310   -1.9700 P   0  0  0  0  0  0  0  0  0  0  0  0
   -0.6250   -2.3170   -3.3500 O   0  0  0  0  0  0  0  0  0  0  0  0
    0.2940   -3.9150   -1.2340 O   0  0  0  0  0  0  0  0  0  0  0  0
    0.2670    0.2020   -1.0320 O   0  0  0  0  0  0  0  0  0  0  0  0
  1  2  2  0
  2  3  1  0
  2  4  1  0
  4  5  1  0
  5  6  1  0
  9  5  1  1
  6  7  1  0
  7  8  1  0
  9 10  1  0
  9 28  1  0
 10 11  1  0
 11 12  1  0
 12 13  2  0
 12 14  1  0
 14 15  1  0
 15 16  1  0
 16 17  2  0
 16 18  1  0
 18 19  1  0
 18 23  1  0
 19 20  1  0
 20 21  1  0
 22 21  1  1
 22 23  1  0
 22 24  1  0
 24 25  1  6
 24 28  1  0
 25 26  1  0
 25 27  1  0
M  END
