
     RDKit          3D

 28 29  0  0  0  0  0  0  0  0999 V2000
   -1.7230    5.1560   -1.5830 O   0  0  0  0  0  0  0  0  0  0  0  0
   -1.5970    5.1270   -0.3420 C   0  0  0  0  0  0  0  0  0  0  0  0
   -1.5040    6.3300    0.3830 O   0  0  0  0  0  0  0  0  0  0  0  0
   -1.5460    3.9180    0.3610 O   0  0  0  0  0  0  0  0  0  0  0  0
   -1.6300    2.7420   -0.2760 O   0  0  0  0  0  0  0  0  0  0  0  0
   -0.0500    2.1430   -0.6790 P   0  0  0  0  0  0  0  0  0  0  0  0
    0.9510    3.5530   -0.9770 O   0  0  0  0  0  0  0  0  0  0  0  0
    0.6940    1.1910    0.7430 C   0  0  2  0  0  0  0  0  0  0  0  0
    2.0000    1.5970    1.0180 O   0  0  0  0  0  0  0  0  0  0  0  0
    3.1530    0.9470    0.6120 C   0  0  0  0  0  0  0  0  0  0  0  0
    4.2640    1.4300    0.9380 O   0  0  0  0  0  0  0  0  0  0  0  0
    3.0480   -0.2400   -0.1570 N   0  0  0  0  0  0  0  0  0  0  0  0
    4.2390   -0.9610   -0.6100 C   0  0  0  0  0  0  0  0  0  0  0  0
    4.7770   -2.2260    0.6160 P   0  0  0  0  0  0  0  0  0  0  0  0
    6.4880   -2.4650    0.4250 O   0  0  0  0  0  0  0  0  0  0  0  0
    4.0090   -3.7560    0.3530 O   0  0  0  0  0  0  0  0  0  0  0  0
    1.7410   -0.7010   -0.4710 C   0  0  0  0  0  0  0  0  0  0  0  0
    1.5670   -1.4050   -1.5000 O   0  0  0  0  0  0  0  0  0  0  0  0
    0.6460   -0.3130    0.4540 C   0  0  2  0  0  0  0  0  0  0  0  0
   -0.6270   -0.6590   -0.0270 O   0  0  0  0  0  0  0  0  0  0  0  0
   -1.4980   -1.5070    0.6310 C   0  0  0  0  0  0  0  0  0  0  0  0
   -1.1140   -1.9880    1.7230 O   0  0  0  0  0  0  0  0  0  0  0  0
   -2.7770   -1.8490    0.1370 N   0  0  0  0  0  0  0  0  0  0  0  0
   -3.4270   -1.4180   -1.0900 C   0  0  0  0  0  0  0  0  0  0  0  0
   -4.8860   -1.3490   -0.6530 C   0  0  0  0  0  0  0  0  0  0  0  0
   -4.9600   -2.5410    0.1950 N   0  0  0  0  0  0  0  0  0  0  0  0
   -3.6910   -2.7150    0.7910 C   0  0  0  0  0  0  0  0  0  0  0  0
   -3.4170   -3.5120    1.7470 O   0  0  0  0  0  0  0  0  0  0  0  0
  1  2  2  0
  2  3  1  0
  2  4  1  0
  4  5  1  0
  5  6  1  0
  6  7  1  0
  8  6  1  6
  8  9  1  0
  8 19  1  0
  9 10  1  0
 10 11  2  0
 10 12  1  0
 12 13  1  0
 12 17  1  0
 13 14  1  0
 14 15  1  0
 14 16  1  0
 17 18  2  0
 17 19  1  0
 19 20  1  6
 20 21  1  0
 21 22  2  0
 21 23  1  0
 23 24  1  0
 23 27  1  0
 24 25  1  0
 25 26  1  0
 26 27  1  0
 27 28  2  0
M  END
