
     RDKit          3D

 28 28  0  0  0  0  0  0  0  0999 V2000
   -4.3950   -0.9610   -2.3660 O   0  0  0  0  0  0  0  0  0  0  0  0
   -3.5040   -1.0290   -1.4120 C   0  0  0  0  0  0  0  0  0  0  0  0
   -3.9210   -1.8070   -0.3110 N   0  0  0  0  0  0  0  0  0  0  0  0
   -3.3420   -3.0410    0.1810 C   0  0  0  0  0  0  0  0  0  0  0  0
   -2.8460   -2.8050    1.5570 C   0  0  0  0  0  0  0  0  0  0  0  0
   -3.7170   -2.8120    2.4850 O   0  0  0  0  0  0  0  0  0  0  0  0
   -1.5150   -2.5940    1.7770 O   0  0  0  0  0  0  0  0  0  0  0  0
   -0.5970   -2.5180    0.7230 C   0  0  0  0  0  0  0  0  0  0  0  0
    0.4680   -1.5110    0.9640 C   0  0  0  0  0  0  0  0  0  0  0  0
    0.7760   -1.2470    2.1490 O   0  0  0  0  0  0  0  0  0  0  0  0
    1.1700   -0.8200   -0.1020 N   0  0  0  0  0  0  0  0  0  0  0  0
    2.6280   -0.7570   -0.0360 C   0  0  0  0  0  0  0  0  0  0  0  0
    3.1880    0.4020    0.7020 C   0  0  2  0  0  0  0  0  0  0  0  0
    2.8160    1.5920    0.1060 O   0  0  0  0  0  0  0  0  0  0  0  0
    4.7240    0.3890    0.6350 C   0  0  0  0  0  0  0  0  0  0  0  0
    5.0990    0.4490   -0.7200 O   0  0  0  0  0  0  0  0  0  0  0  0
    6.4050    0.4400   -0.8280 O   0  0  0  0  0  0  0  0  0  0  0  0
    0.4940   -0.2970   -1.1320 O   0  0  0  0  0  0  0  0  0  0  0  0
   -0.2030    0.8530   -0.9260 C   0  0  1  0  0  0  0  0  0  0  0  0
    0.0580    1.8020   -1.9240 O   0  0  0  0  0  0  0  0  0  0  0  0
    0.3810    3.3690   -1.4690 P   0  0  0  0  0  0  0  0  0  0  0  0
    0.5340    3.6880    0.1930 O   0  0  0  0  0  0  0  0  0  0  0  0
   -0.2970    4.6160   -2.3940 O   0  0  0  0  0  0  0  0  0  0  0  0
   -1.7090    0.6830   -0.7680 C   0  0  2  0  0  0  0  0  0  0  0  0
   -2.2330    0.7090    0.9940 P   0  0  0  0  0  0  0  0  0  0  0  0
   -1.1180    1.6900    1.8910 O   0  0  0  0  0  0  0  0  0  0  0  0
   -3.8410    1.2450    1.2300 O   0  0  0  0  0  0  0  0  0  0  0  0
   -2.2750   -0.3480   -1.5740 N   0  0  0  0  0  0  0  0  0  0  0  0
  1  2  2  0
  2  3  1  0
  2 28  1  0
  3  4  1  0
  4  5  1  0
  5  6  2  0
  5  7  1  0
  7  8  1  0
  8  9  1  0
  9 10  2  0
  9 11  1  0
 11 12  1  0
 11 18  1  0
 12 13  1  0
 13 14  1  6
 13 15  1  0
 15 16  1  0
 16 17  1  0
 18 19  1  0
 19 20  1  6
 19 24  1  0
 20 21  1  0
 21 22  1  0
 21 23  1  0
 24 25  1  1
 24 28  1  0
 25 26  1  0
 25 27  1  0
M  END
