
     RDKit          3D

 28 29  0  0  0  0  0  0  0  0999 V2000
   -3.2600    1.0710    0.3740 N   0  0  0  0  0  0  0  0  0  0  0  0
   -2.6810   -0.0240    0.0300 C   0  0  0  0  0  0  0  0  0  0  0  0
   -1.3030   -0.0850    0.2030 O   0  0  0  0  0  0  0  0  0  0  0  0
   -0.5660    0.9650    0.7180 C   0  0  0  0  0  0  0  0  0  0  0  0
   -1.1970    2.0020    1.0330 O   0  0  0  0  0  0  0  0  0  0  0  0
    0.8320    0.9220    0.9010 N   0  0  0  0  0  0  0  0  0  0  0  0
    1.6340    1.9990    1.4330 C   0  0  1  0  0  0  0  0  0  0  0  0
    0.9620    3.3260    1.4870 C   0  0  0  0  0  0  0  0  0  0  0  0
    0.5700    3.7570    0.2280 O   0  0  0  0  0  0  0  0  0  0  0  0
    2.2240    1.5780    2.7770 C   0  0  0  0  0  0  0  0  0  0  0  0
    2.1860    0.1490    2.8920 O   0  0  0  0  0  0  0  0  0  0  0  0
    2.3140   -0.6870    1.7930 C   0  0  0  0  0  0  0  0  0  0  0  0
    3.0030   -1.7540    1.8410 O   0  0  0  0  0  0  0  0  0  0  0  0
    1.6100   -0.2820    0.5520 C   0  0  2  0  0  0  0  0  0  0  0  0
    2.9180    0.2870   -0.6510 P   0  0  0  0  0  0  0  0  0  0  0  0
    2.4470    0.0310   -2.2800 O   0  0  0  0  0  0  0  0  0  0  0  0
    2.5180    1.1250   -2.9970 O   0  0  0  0  0  0  0  0  0  0  0  0
    4.3790   -0.5820   -0.3030 O   0  0  0  0  0  0  0  0  0  0  0  0
    4.2460   -2.1970   -0.9050 P   0  0  0  0  0  0  0  0  0  0  0  0
    4.8260   -2.2600   -2.5430 O   0  0  0  0  0  0  0  0  0  0  0  0
    5.1620   -3.2990    0.0760 O   0  0  0  0  0  0  0  0  0  0  0  0
   -3.4360   -1.1030   -0.5000 N   0  0  0  0  0  0  0  0  0  0  0  0
   -4.2900   -0.8270   -1.6390 C   0  0  0  0  0  0  0  0  0  0  0  0
   -5.4970   -1.7210   -1.6980 C   0  0  0  0  0  0  0  0  0  0  0  0
   -5.0460   -3.0680   -1.5700 O   0  0  0  0  0  0  0  0  0  0  0  0
   -4.1970   -3.3740   -0.5170 C   0  0  0  0  0  0  0  0  0  0  0  0
   -4.1990   -4.5570   -0.0890 O   0  0  0  0  0  0  0  0  0  0  0  0
   -3.3840   -2.3740    0.0210 O   0  0  0  0  0  0  0  0  0  0  0  0
  1  2  2  0
  2  3  1  0
  2 22  1  0
  3  4  1  0
  4  5  2  0
  4  6  1  0
  6  7  1  0
  6 14  1  0
  7  8  1  1
  7 10  1  0
  8  9  1  0
 10 11  1  0
 11 12  1  0
 12 13  2  0
 12 14  1  0
 14 15  1  6
 15 16  1  0
 15 18  1  0
 16 17  1  0
 18 19  1  0
 19 20  1  0
 19 21  1  0
 22 23  1  0
 22 28  1  0
 23 24  1  0
 24 25  1  0
 25 26  1  0
 26 27  2  0
 26 28  1  0
M  END
