
     RDKit          3D

 28 28  0  0  0  0  0  0  0  0999 V2000
    1.0920   -0.0920   -3.7810 C   0  0  0  0  0  0  0  0  0  0  0  0
    0.7920   -0.6450   -2.5030 O   0  0  0  0  0  0  0  0  0  0  0  0
   -0.0680   -0.0160   -1.6230 C   0  0  0  0  0  0  0  0  0  0  0  0
   -0.5810    1.0660   -1.9910 O   0  0  0  0  0  0  0  0  0  0  0  0
   -0.4050   -0.5510   -0.2900 C   0  0  2  0  0  0  0  0  0  0  0  0
   -1.3750    0.4010    0.3720 C   0  0  0  0  0  0  0  0  0  0  0  0
   -2.5720    0.5610   -0.3590 O   0  0  0  0  0  0  0  0  0  0  0  0
   -3.4460   -0.4660   -0.6540 C   0  0  0  0  0  0  0  0  0  0  0  0
   -3.1650   -1.6220   -0.2490 O   0  0  0  0  0  0  0  0  0  0  0  0
   -4.6910   -0.2330   -1.4270 C   0  0  0  0  0  0  0  0  0  0  0  0
   -5.8860   -0.3700   -0.5580 C   0  0  0  0  0  0  0  0  0  0  0  0
   -5.7020   -0.6410    0.6540 O   0  0  0  0  0  0  0  0  0  0  0  0
   -7.1760   -0.2170   -1.0080 O   0  0  0  0  0  0  0  0  0  0  0  0
   -8.2820   -0.3510   -0.1670 C   0  0  0  0  0  0  0  0  0  0  0  0
   -8.0490   -0.6230    1.0430 O   0  0  0  0  0  0  0  0  0  0  0  0
   -9.5740   -0.1890   -0.6570 O   0  0  0  0  0  0  0  0  0  0  0  0
    0.8070   -0.6130    0.5920 C   0  0  0  0  0  0  0  0  0  0  0  0
    1.9680   -0.2350    0.1770 N   0  0  0  0  0  0  0  0  0  0  0  0
    3.1420   -0.3010    1.0440 C   0  0  2  0  0  0  0  0  0  0  0  0
    4.0820    0.7350    0.7770 N   0  0  0  0  0  0  0  0  0  0  0  0
    3.7420   -1.5320    1.0150 O   0  0  0  0  0  0  0  0  0  0  0  0
    4.8460   -1.6010    1.8310 C   0  0  0  0  0  0  0  0  0  0  0  0
    6.1870   -0.4050    1.3990 P   0  0  0  0  0  0  0  0  0  0  0  0
    7.7120   -1.1960    1.1420 O   0  0  0  0  0  0  0  0  0  0  0  0
    6.3180    0.8610    2.5590 O   0  0  0  0  0  0  0  0  0  0  0  0
    2.6130   -0.1060    2.4010 N   0  0  0  0  0  0  0  0  0  0  0  0
    1.8230   -1.1910    2.6290 O   0  0  0  0  0  0  0  0  0  0  0  0
    0.7130   -1.0850    1.8920 O   0  0  0  0  0  0  0  0  0  0  0  0
  1  2  1  0
  2  3  1  0
  3  4  2  0
  3  5  1  0
  5  6  1  1
  5 17  1  0
  6  7  1  0
  7  8  1  0
  8  9  2  0
  8 10  1  0
 10 11  1  0
 11 12  2  0
 11 13  1  0
 13 14  1  0
 14 15  2  0
 14 16  1  0
 17 18  2  0
 17 28  1  0
 18 19  1  0
 19 20  1  6
 19 21  1  0
 19 26  1  0
 21 22  1  0
 22 23  1  0
 23 24  1  0
 23 25  1  0
 26 27  1  0
 27 28  1  0
M  END
