
     RDKit          3D

 22 23  0  0  0  0  0  0  0  0999 V2000
   -5.1840    2.9630    0.3300 O   0  0  0  0  0  0  0  0  0  0  0  0
   -4.4170    1.9670    0.3310 C   0  0  0  0  0  0  0  0  0  0  0  0
   -4.2940    1.0660    1.5130 C   0  0  0  0  0  0  0  0  0  0  0  0
   -2.8710    0.6490    1.6150 C   0  0  0  0  0  0  0  0  0  0  0  0
   -2.3830    0.5460    2.7750 O   0  0  0  0  0  0  0  0  0  0  0  0
   -2.0840    0.3750    0.4510 N   0  0  0  0  0  0  0  0  0  0  0  0
   -0.9170   -0.4470    0.6280 C   0  0  2  0  0  0  0  0  0  0  0  0
    0.1980    0.2710    0.1880 O   0  0  0  0  0  0  0  0  0  0  0  0
    1.1860   -0.6810    0.1800 C   0  0  2  0  0  0  0  0  0  0  0  0
    2.4320   -0.2800   -0.5400 C   0  0  0  0  0  0  0  0  0  0  0  0
    3.0030    0.8530    0.0320 O   0  0  0  0  0  0  0  0  0  0  0  0
    4.4040    1.2980   -0.7830 P   0  0  2  0  0  0  0  0  0  0  0  0
    4.0890    1.8960   -2.1470 O   0  0  0  0  0  0  0  0  0  0  0  0
    5.4250   -0.0200   -1.0510 O   0  0  0  0  0  0  0  0  0  0  0  0
    5.2170    2.4450    0.1490 O   0  0  0  0  0  0  0  0  0  0  0  0
    0.5300   -1.7980   -0.6410 C   0  0  1  0  0  0  0  0  0  0  0  0
    1.1060   -2.9820   -0.2550 O   0  0  0  0  0  0  0  0  0  0  0  0
   -0.9130   -1.6640   -0.2550 C   0  0  1  0  0  0  0  0  0  0  0  0
   -1.2420   -2.7850    0.5190 O   0  0  0  0  0  0  0  0  0  0  0  0
   -2.4890    0.9170   -0.7850 C   0  0  0  0  0  0  0  0  0  0  0  0
   -1.7770    0.6580   -1.7890 O   0  0  0  0  0  0  0  0  0  0  0  0
   -3.6540    1.7100   -0.8370 N   0  0  0  0  0  0  0  0  0  0  0  0
  1  2  2  0
  2  3  1  0
  2 22  1  0
  3  4  1  0
  4  5  2  0
  4  6  1  0
  7  6  1  6
  6 20  1  0
  7  8  1  0
  7 18  1  0
  8  9  1  0
  9 10  1  6
  9 16  1  0
 10 11  1  0
 11 12  1  0
 12 13  2  0
 12 14  1  6
 12 15  1  0
 16 17  1  1
 16 18  1  0
 18 19  1  1
 20 21  2  0
 20 22  1  0
M  END
