
     RDKit          3D

 28 28  0  0  0  0  0  0  0  0999 V2000
    3.5040   -0.7920    2.0630 C   0  0  0  0  0  0  0  0  0  0  0  0
    3.2480   -0.5870    0.5760 C   0  0  1  0  0  0  0  0  0  0  0  0
    2.8130    0.7060    0.4190 O   0  0  0  0  0  0  0  0  0  0  0  0
    4.4570   -0.6960   -0.1650 O   0  0  0  0  0  0  0  0  0  0  0  0
    5.5300    0.1530    0.0680 C   0  0  0  0  0  0  0  0  0  0  0  0
    5.3480    1.0220    0.9780 O   0  0  0  0  0  0  0  0  0  0  0  0
    6.7260    0.0760   -0.6320 O   0  0  0  0  0  0  0  0  0  0  0  0
    7.7300    0.9370   -0.3520 O   0  0  0  0  0  0  0  0  0  0  0  0
    2.2620   -1.5700    0.1660 C   0  0  0  0  0  0  0  0  0  0  0  0
    2.7180   -2.7760    0.0110 O   0  0  0  0  0  0  0  0  0  0  0  0
    0.8940   -1.3730   -0.0810 N   0  0  0  0  0  0  0  0  0  0  0  0
    0.0670   -2.4370   -0.5960 C   0  0  0  0  0  0  0  0  0  0  0  0
    0.6310   -3.5530   -0.7820 O   0  0  0  0  0  0  0  0  0  0  0  0
   -1.2900   -2.2100   -0.8650 N   0  0  0  0  0  0  0  0  0  0  0  0
   -1.8660   -0.9140   -0.9570 C   0  0  1  0  0  0  0  0  0  0  0  0
   -3.1990   -0.6330    0.3020 P   0  0  0  0  0  0  0  0  0  0  0  0
   -4.7680   -0.7760   -0.4250 O   0  0  0  0  0  0  0  0  0  0  0  0
   -3.0850   -1.9990    1.9870 P   0  0  0  0  0  0  0  0  0  0  0  0
   -1.4900   -2.3070    2.5210 O   0  0  0  0  0  0  0  0  0  0  0  0
   -3.8900   -3.4720    1.5740 O   0  0  0  0  0  0  0  0  0  0  0  0
   -0.8990    0.2220   -0.8500 C   0  0  1  0  0  0  0  0  0  0  0  0
   -1.4710    1.4640   -0.4470 N   0  0  0  0  0  0  0  0  0  0  0  0
   -2.4190    1.9610   -1.3960 C   0  0  0  0  0  0  0  0  0  0  0  0
   -3.0280    3.2830   -0.9350 C   0  0  0  0  0  0  0  0  0  0  0  0
   -3.9280    3.6500   -1.9460 O   0  0  0  0  0  0  0  0  0  0  0  0
   -4.5150    4.7710   -1.6630 O   0  0  0  0  0  0  0  0  0  0  0  0
    0.2070   -0.1410    0.1090 C   0  0  0  0  0  0  0  0  0  0  0  0
    0.4790    0.6330    1.0240 O   0  0  0  0  0  0  0  0  0  0  0  0
  2  1  1  1
  2  3  1  0
  2  4  1  0
  2  9  1  0
  4  5  1  0
  5  6  2  0
  5  7  1  0
  7  8  1  0
  9 10  2  0
  9 11  1  0
 11 12  1  0
 11 27  1  0
 12 13  2  0
 12 14  1  0
 14 15  1  0
 15 16  1  1
 15 21  1  0
 16 17  1  0
 16 18  1  0
 18 19  1  0
 18 20  1  0
 21 22  1  1
 21 27  1  0
 22 23  1  0
 23 24  1  0
 24 25  1  0
 25 26  1  0
 27 28  2  0
M  END
