
     RDKit          3D

 13 13  0  0  0  0  0  0  0  0999 V2000
    4.0130   -0.0490   -0.3240 N   0  0  0  0  0  0  0  0  0  0  0  0
    2.9710   -0.6710   -0.7080 C   0  0  0  0  0  0  0  0  0  0  0  0
    1.8260   -0.8200    0.1720 C   0  0  1  0  0  0  0  0  0  0  0  0
    1.6900    0.2460    1.0870 O   0  0  0  0  0  0  0  0  0  0  0  0
    0.5210   -0.0080    1.7760 C   0  0  0  0  0  0  0  0  0  0  0  0
   -0.6250    0.8820    1.3780 C   0  0  0  0  0  0  0  0  0  0  0  0
   -0.9340    0.9070   -0.0710 C   0  0  2  0  0  0  0  0  0  0  0  0
   -0.9620    2.2730   -0.4580 O   0  0  0  0  0  0  0  0  0  0  0  0
   -2.2590    0.3510   -0.4700 C   0  0  0  0  0  0  0  0  0  0  0  0
   -2.5130   -1.0740   -0.1320 C   0  0  0  0  0  0  0  0  0  0  0  0
   -2.4610   -1.3720    1.2280 O   0  0  0  0  0  0  0  0  0  0  0  0
    0.1340    0.2820   -0.9450 C   0  0  0  0  0  0  0  0  0  0  0  0
    0.6010   -0.9250   -0.4640 O   0  0  0  0  0  0  0  0  0  0  0  0
  1  2  2  0
  3  2  1  6
  3  4  1  0
  3 13  1  0
  4  5  1  0
  5  6  1  0
  6  7  1  0
  7  8  1  6
  7  9  1  0
  7 12  1  0
  9 10  1  0
 10 11  1  0
 12 13  1  0
M  CHG  1   1   1
M  END
