
     RDKit          3D

 25 28  0  0  0  0  0  0  0  0999 V2000
    4.6490   -1.4920    1.5660 N   0  0  0  0  0  0  0  0  0  0  0  0
    5.6700   -0.5200    1.3690 C   0  0  0  0  0  0  0  0  0  0  0  0
    6.7480   -0.4970    2.2930 N   0  0  0  0  0  0  0  0  0  0  0  0
    5.6340    0.3150    0.3950 N   0  0  0  0  0  0  0  0  0  0  0  0
    4.5220    0.2470   -0.5090 C   0  0  0  0  0  0  0  0  0  0  0  0
    3.3850    0.9620   -0.2970 C   0  0  0  0  0  0  0  0  0  0  0  0
    2.3290    0.8630   -1.2030 C   0  0  0  0  0  0  0  0  0  0  0  0
    2.4770    0.0410   -2.2880 C   0  0  0  0  0  0  0  0  0  0  0  0
    1.3840   -0.0920   -3.2680 C   0  0  0  0  0  0  0  0  0  0  0  0
    0.2640    0.7000   -2.8290 N   0  0  0  0  0  0  0  0  0  0  0  0
   -0.5530    0.2140   -1.7670 C   0  0  0  0  0  0  0  0  0  0  0  0
   -0.2610   -0.8830   -1.2610 O   0  0  0  0  0  0  0  0  0  0  0  0
   -1.6710    1.0060   -1.3310 N   0  0  0  0  0  0  0  0  0  0  0  0
   -2.5020    0.5400   -0.2680 C   0  0  2  0  0  0  0  0  0  0  0  0
   -1.7300    0.3490    1.0090 C   0  0  0  0  0  0  0  0  0  0  0  0
   -2.6250   -0.1870    2.0860 C   0  0  1  0  0  0  0  0  0  0  0  0
   -3.7000    0.8110    2.3740 C   0  0  0  0  0  0  0  0  0  0  0  0
   -4.4930    1.0510    1.0930 C   0  0  2  0  0  0  0  0  0  0  0  0
   -5.1370   -0.2550    0.7170 C   0  0  0  0  0  0  0  0  0  0  0  0
   -4.0630   -1.2760    0.4180 C   0  0  2  0  0  0  0  0  0  0  0  0
   -3.1830   -1.5080    1.6040 C   0  0  0  0  0  0  0  0  0  0  0  0
   -3.2080   -0.7240   -0.7070 C   0  0  0  0  0  0  0  0  0  0  0  0
   -3.5850    1.5690    0.0090 C   0  0  0  0  0  0  0  0  0  0  0  0
    3.6320   -0.6730   -2.4860 C   0  0  0  0  0  0  0  0  0  0  0  0
    4.6660   -0.5800   -1.6030 C   0  0  0  0  0  0  0  0  0  0  0  0
  1  2  1  0
  2  3  1  0
  2  4  2  3
  4  5  1  0
  5  6  2  0
  5 25  1  0
  6  7  1  0
  7  8  2  0
  8  9  1  0
  8 24  1  0
  9 10  1  0
 10 11  1  0
 11 12  2  0
 11 13  1  0
 14 13  1  6
 14 15  1  0
 14 22  1  0
 14 23  1  0
 16 15  1  6
 16 17  1  0
 16 21  1  0
 17 18  1  0
 18 19  1  6
 18 23  1  0
 20 19  1  1
 20 21  1  0
 20 22  1  0
 24 25  2  0
M  CHG  1   4   1
M  END
