
     RDKit          3D

 13 13  0  0  0  0  0  0  0  0999 V2000
   -2.5260    1.7780    1.2920 N   0  0  0  0  0  0  0  0  0  0  0  0
   -2.2340    0.5350    0.5910 C   0  0  1  0  0  0  0  0  0  0  0  0
   -2.4670    0.7450   -0.7450 O   0  0  0  0  0  0  0  0  0  0  0  0
   -2.0440   -0.2730   -1.5660 C   0  0  0  0  0  0  0  0  0  0  0  0
   -0.5620   -0.5380   -1.4690 C   0  0  0  0  0  0  0  0  0  0  0  0
   -0.0210    0.4020   -0.3970 C   0  0  2  0  0  0  0  0  0  0  0  0
   -0.3490    1.6970   -0.7930 O   0  0  0  0  0  0  0  0  0  0  0  0
    1.4600    0.2540   -0.2710 C   0  0  0  0  0  0  0  0  0  0  0  0
    1.9160   -1.1180    0.1050 C   0  0  0  0  0  0  0  0  0  0  0  0
    3.4490   -1.0680    0.1840 C   0  0  0  0  0  0  0  0  0  0  0  0
    3.7540   -0.1210    1.1620 O   0  0  0  0  0  0  0  0  0  0  0  0
   -0.7820    0.1090    0.8550 C   0  0  2  0  0  0  0  0  0  0  0  0
   -0.7510   -1.2710    1.0710 O   0  0  0  0  0  0  0  0  0  0  0  0
  2  1  1  1
  2  3  1  0
  2 12  1  0
  3  4  1  0
  4  5  1  0
  5  6  1  0
  6  7  1  6
  6  8  1  0
  6 12  1  0
  8  9  1  0
  9 10  1  0
 10 11  1  0
 12 13  1  6
M  CHG  1   1   1
M  END
