
     RDKit          3D

 13 13  0  0  0  0  0  0  0  0999 V2000
    3.2510   -0.7010   -0.0160 C   0  0  0  0  0  0  0  0  0  0  0  0
    2.0580   -0.2630    0.5560 O   0  0  0  0  0  0  0  0  0  0  0  0
    1.0880   -0.0680   -0.4490 C   0  0  0  0  0  0  0  0  0  0  0  0
   -0.1950    0.4070    0.2010 C   0  0  1  0  0  0  0  0  0  0  0  0
    0.0970    1.7020    0.9150 C   0  0  0  0  0  0  0  0  0  0  0  0
    0.5700    2.7520    0.0780 N   0  0  0  0  0  0  0  0  0  0  0  0
   -1.1890    0.6960   -0.8880 C   0  0  0  0  0  0  0  0  0  0  0  0
   -2.5000    0.4680   -0.4530 O   0  0  0  0  0  0  0  0  0  0  0  0
   -2.6230   -0.9190   -0.3410 C   0  0  0  0  0  0  0  0  0  0  0  0
   -1.7880   -1.4650    0.7650 C   0  0  1  0  0  0  0  0  0  0  0  0
   -1.3720   -2.7570    0.3610 O   0  0  0  0  0  0  0  0  0  0  0  0
   -0.6340   -0.6350    1.1700 C   0  0  1  0  0  0  0  0  0  0  0  0
    0.4330   -1.5100    1.4860 O   0  0  0  0  0  0  0  0  0  0  0  0
  1  2  1  0
  2  3  1  0
  4  3  1  6
  4  5  1  0
  4  7  1  0
  4 12  1  0
  5  6  1  0
  7  8  1  0
  8  9  1  0
  9 10  1  0
 10 11  1  6
 10 12  1  0
 12 13  1  6
M  CHG  1   6   1
M  END
