
     RDKit          3D

 32 33  0  0  0  0  0  0  0  0999 V2000
    3.4170   -0.4810    1.0790 C   0  0  0  0  0  0  0  0  0  0  0  0
    2.7440    0.8550    1.0110 C   0  0  1  0  0  0  0  0  0  0  0  0
    3.5270    1.7260    1.8120 O   0  0  0  0  0  0  0  0  0  0  0  0
    2.8080    1.4400   -0.3780 C   0  0  0  0  0  0  0  0  0  0  0  0
    4.1950    1.6520   -0.8630 C   0  0  0  0  0  0  0  0  0  0  0  0
    4.9240    2.5860   -0.4060 O   0  0  0  0  0  0  0  0  0  0  0  0
    4.7440    0.8390   -1.8330 O   0  0  0  0  0  0  0  0  0  0  0  0
    6.0430    0.9760   -2.3470 C   0  0  0  0  0  0  0  0  0  0  0  0
    7.0630    0.8160   -1.2760 C   0  0  0  0  0  0  0  0  0  0  0  0
    6.9640   -0.5460   -0.6430 C   0  0  0  0  0  0  0  0  0  0  0  0
    7.9330   -0.6790    0.3630 O   0  0  0  0  0  0  0  0  0  0  0  0
    1.3620    0.8930    1.5720 C   0  0  2  0  0  0  0  0  0  0  0  0
    1.3580    0.4780    2.8810 O   0  0  0  0  0  0  0  0  0  0  0  0
    0.3630    0.1460    0.7180 C   0  0  1  0  0  0  0  0  0  0  0  0
    0.6060   -1.2350    0.6870 O   0  0  0  0  0  0  0  0  0  0  0  0
   -0.2760   -2.1820    1.1700 C   0  0  0  0  0  0  0  0  0  0  0  0
    0.1940   -3.2400    1.6530 O   0  0  0  0  0  0  0  0  0  0  0  0
   -1.7670   -1.9580    1.1230 C   0  0  2  0  0  0  0  0  0  0  0  0
   -2.2880   -2.9870    0.3400 O   0  0  0  0  0  0  0  0  0  0  0  0
   -1.9410   -0.6090    0.4640 C   0  0  1  0  0  0  0  0  0  0  0  0
   -3.2590   -0.2020    0.4240 O   0  0  0  0  0  0  0  0  0  0  0  0
   -3.7660   -0.0190   -0.8560 C   0  0  2  0  0  0  0  0  0  0  0  0
   -4.3030    1.2280   -1.0540 O   0  0  0  0  0  0  0  0  0  0  0  0
   -5.5780    1.0320   -1.5840 C   0  0  0  0  0  0  0  0  0  0  0  0
   -5.9780   -0.2670   -0.9150 C   0  0  1  0  0  0  0  0  0  0  0  0
   -6.3080   -0.0330    0.5430 C   0  0  0  0  0  0  0  0  0  0  0  0
   -7.4960    0.6640    0.6790 O   0  0  0  0  0  0  0  0  0  0  0  0
   -7.1170   -0.9390   -1.6150 C   0  0  0  0  0  0  0  0  0  0  0  0
   -7.3840   -2.1880   -1.1060 O   0  0  0  0  0  0  0  0  0  0  0  0
   -4.7790   -0.9700   -1.0000 O   0  0  0  0  0  0  0  0  0  0  0  0
   -1.0550    0.3620    1.2000 C   0  0  1  0  0  0  0  0  0  0  0  0
   -1.1550    0.2390    2.5870 O   0  0  0  0  0  0  0  0  0  0  0  0
  2  1  1  6
  2  3  1  0
  2  4  1  0
  2 12  1  0
  4  5  1  0
  5  6  2  0
  5  7  1  0
  7  8  1  0
  8  9  1  0
  9 10  1  0
 10 11  1  0
 12 13  1  1
 12 14  1  0
 14 15  1  1
 14 31  1  0
 15 16  1  0
 16 17  2  0
 16 18  1  0
 18 19  1  6
 18 20  1  0
 20 21  1  1
 20 31  1  0
 22 21  1  1
 22 23  1  0
 22 30  1  0
 23 24  1  0
 24 25  1  0
 25 26  1  1
 25 28  1  0
 25 30  1  0
 26 27  1  0
 28 29  1  0
 31 32  1  1
M  END
