
     RDKit          3D

 32 33  0  0  0  0  0  0  0  0999 V2000
   -5.0340    2.3840    0.2100 O   0  0  0  0  0  0  0  0  0  0  0  0
   -4.1600    2.5020    1.3010 C   0  0  0  0  0  0  0  0  0  0  0  0
   -3.1900    1.3490    1.3870 C   0  0  0  0  0  0  0  0  0  0  0  0
   -2.3240    1.1860    0.1410 C   0  0  1  0  0  0  0  0  0  0  0  0
   -1.5360    2.3920    0.0040 C   0  0  0  0  0  0  0  0  0  0  0  0
   -0.6970    2.6360    1.1120 O   0  0  0  0  0  0  0  0  0  0  0  0
   -1.8330   -0.1820    0.0900 C   0  0  1  0  0  0  0  0  0  0  0  0
   -1.1490   -0.4030    1.3090 O   0  0  0  0  0  0  0  0  0  0  0  0
   -3.0880   -1.0430    0.1050 C   0  0  0  0  0  0  0  0  0  0  0  0
   -3.3470   -1.5350   -1.3370 C   0  0  0  0  0  0  0  0  0  0  0  0
   -2.9640   -0.6640   -2.3060 O   0  0  0  0  0  0  0  0  0  0  0  0
   -1.6560   -0.2520   -2.3270 C   0  0  0  0  0  0  0  0  0  0  0  0
   -1.0320   -0.7190   -1.0370 C   0  0  1  0  0  0  0  0  0  0  0  0
    0.4210   -0.8830   -0.9980 C   0  0  2  0  0  0  0  0  0  0  0  0
    1.2690    0.3570   -0.8190 C   0  0  2  0  0  0  0  0  0  0  0  0
    0.9420    1.1480   -1.9490 O   0  0  0  0  0  0  0  0  0  0  0  0
    2.7300    0.0390   -0.9820 C   0  0  0  0  0  0  0  0  0  0  0  0
    3.5470    1.1440   -1.0410 O   0  0  0  0  0  0  0  0  0  0  0  0
    3.6400    1.9640    0.0240 C   0  0  1  0  0  0  0  0  0  0  0  0
    2.5140    2.5890    0.4780 O   0  0  0  0  0  0  0  0  0  0  0  0
    4.4180    1.3110    1.1890 C   0  0  0  0  0  0  0  0  0  0  0  0
    4.4740    2.2130    2.2480 O   0  0  0  0  0  0  0  0  0  0  0  0
    4.5160    3.0130   -0.3790 O   0  0  0  0  0  0  0  0  0  0  0  0
    4.6830    3.8720    0.5770 O   0  0  0  0  0  0  0  0  0  0  0  0
    0.8120   -1.3130   -2.2840 O   0  0  0  0  0  0  0  0  0  0  0  0
    0.5540   -2.6120   -2.5700 C   0  0  0  0  0  0  0  0  0  0  0  0
    1.3800   -3.4360   -1.8580 O   0  0  0  0  0  0  0  0  0  0  0  0
    1.6800   -3.0570   -0.5780 C   0  0  2  0  0  0  0  0  0  0  0  0
    1.4660   -4.3290    0.2700 C   0  0  0  0  0  0  0  0  0  0  0  0
    1.7370   -4.1310    1.5980 O   0  0  0  0  0  0  0  0  0  0  0  0
    0.8030   -1.9910   -0.0090 C   0  0  2  0  0  0  0  0  0  0  0  0
   -0.3850   -2.6710    0.3590 O   0  0  0  0  0  0  0  0  0  0  0  0
  1  2  1  0
  2  3  1  0
  4  3  1  1
  4  5  1  0
  4  7  1  0
  5  6  1  0
  7  8  1  1
  7  9  1  0
  7 13  1  0
  9 10  1  0
 10 11  1  0
 11 12  1  0
 13 12  1  6
 13 14  1  0
 14 15  1  0
 14 25  1  6
 14 31  1  0
 15 16  1  6
 15 17  1  0
 17 18  1  0
 18 19  1  0
 19 20  1  1
 19 21  1  0
 19 23  1  0
 21 22  1  0
 23 24  1  0
 25 26  1  0
 26 27  1  0
 27 28  1  0
 28 29  1  1
 28 31  1  0
 29 30  1  0
 31 32  1  6
M  END
