
     RDKit          3D

 32 33  0  0  0  0  0  0  0  0999 V2000
   -6.4820    1.3000    2.8610 C   0  0  0  0  0  0  0  0  0  0  0  0
   -6.0770    0.3650    1.9070 O   0  0  0  0  0  0  0  0  0  0  0  0
   -4.8700    0.7340    1.3430 C   0  0  0  0  0  0  0  0  0  0  0  0
   -4.5050   -0.3440    0.3140 C   0  0  2  0  0  0  0  0  0  0  0  0
   -3.2940   -0.0730   -0.3230 O   0  0  0  0  0  0  0  0  0  0  0  0
   -2.1750   -0.8850   -0.2840 C   0  0  0  0  0  0  0  0  0  0  0  0
   -2.2410   -1.9520    0.3730 O   0  0  0  0  0  0  0  0  0  0  0  0
   -0.9320   -0.5250   -0.9870 C   0  0  1  0  0  0  0  0  0  0  0  0
   -0.4890    0.8880   -0.6480 C   0  0  0  0  0  0  0  0  0  0  0  0
    1.0500    0.8490   -0.7430 C   0  0  2  0  0  0  0  0  0  0  0  0
    1.5120    2.2710   -0.6530 C   0  0  0  0  0  0  0  0  0  0  0  0
    1.3040    0.2490   -1.9710 O   0  0  0  0  0  0  0  0  0  0  0  0
    1.4880    0.0240    0.4370 C   0  0  2  0  0  0  0  0  0  0  0  0
    0.8990    0.6940    1.5510 O   0  0  0  0  0  0  0  0  0  0  0  0
    2.9260   -0.0010    0.7160 C   0  0  0  0  0  0  0  0  0  0  0  0
    3.8760   -0.5020   -0.2910 C   0  0  1  0  0  0  0  0  0  0  0  0
    3.8830    0.1910   -1.5080 O   0  0  0  0  0  0  0  0  0  0  0  0
    4.8450    1.0660   -1.9320 C   0  0  0  0  0  0  0  0  0  0  0  0
    4.6020    1.9270   -2.8450 O   0  0  0  0  0  0  0  0  0  0  0  0
    6.0870    0.9740   -1.3260 O   0  0  0  0  0  0  0  0  0  0  0  0
    6.1320    0.5700    0.0240 C   0  0  0  0  0  0  0  0  0  0  0  0
    5.2460   -0.5930    0.3380 C   0  0  1  0  0  0  0  0  0  0  0  0
    5.1420   -0.6670    1.7280 O   0  0  0  0  0  0  0  0  0  0  0  0
    5.9670   -1.8610   -0.1160 C   0  0  0  0  0  0  0  0  0  0  0  0
    7.2300   -1.9490    0.4530 O   0  0  0  0  0  0  0  0  0  0  0  0
    0.7840   -1.2950    0.3530 C   0  0  2  0  0  0  0  0  0  0  0  0
    1.6740   -2.3310    0.4940 O   0  0  0  0  0  0  0  0  0  0  0  0
    0.0740   -1.4510   -0.8360 O   0  0  0  0  0  0  0  0  0  0  0  0
   -5.6730   -0.3810   -0.6680 C   0  0  2  0  0  0  0  0  0  0  0  0
   -6.8350   -0.6560    0.0520 O   0  0  0  0  0  0  0  0  0  0  0  0
   -5.4450   -1.4290   -1.7360 C   0  0  0  0  0  0  0  0  0  0  0  0
   -6.5560   -1.3910   -2.5800 O   0  0  0  0  0  0  0  0  0  0  0  0
  1  2  1  0
  2  3  1  0
  4  3  1  1
  4  5  1  0
  4 29  1  0
  5  6  1  0
  6  7  2  0
  8  6  1  1
  8  9  1  0
  8 28  1  0
  9 10  1  0
 10 11  1  6
 10 12  1  0
 10 13  1  0
 13 14  1  1
 13 15  1  0
 13 26  1  0
 16 15  1  1
 16 17  1  0
 16 22  1  0
 17 18  1  0
 18 19  2  0
 18 20  1  0
 20 21  1  0
 21 22  1  0
 22 23  1  1
 22 24  1  0
 24 25  1  0
 26 27  1  6
 26 28  1  0
 29 30  1  1
 29 31  1  0
 31 32  1  0
M  END
