
     RDKit          3D

 32 33  0  0  0  0  0  0  0  0999 V2000
    7.3720   -2.1630   -0.1290 C   0  0  0  0  0  0  0  0  0  0  0  0
    7.0930   -0.7290   -0.5350 C   0  0  2  0  0  0  0  0  0  0  0  0
    7.8890    0.1580    0.3880 C   0  0  0  0  0  0  0  0  0  0  0  0
    5.6480   -0.3880   -0.3620 C   0  0  0  0  0  0  0  0  0  0  0  0
    5.0040   -0.5010    0.8390 C   0  0  0  0  0  0  0  0  0  0  0  0
    3.6710   -0.1760    0.9580 C   0  0  0  0  0  0  0  0  0  0  0  0
    2.9190    0.2830   -0.1420 C   0  0  0  0  0  0  0  0  0  0  0  0
    1.5590    0.5780    0.0890 N   0  0  0  0  0  0  0  0  0  0  0  0
    0.7190    1.2060   -0.8250 C   0  0  0  0  0  0  0  0  0  0  0  0
    1.1210    1.5640   -1.9470 O   0  0  0  0  0  0  0  0  0  0  0  0
   -0.7260    1.5060   -0.5510 C   0  0  2  0  0  0  0  0  0  0  0  0
   -0.8060    3.0410   -0.5680 C   0  0  0  0  0  0  0  0  0  0  0  0
   -0.2470    3.3390    0.8100 C   0  0  0  0  0  0  0  0  0  0  0  0
   -0.7240    2.1960    1.6610 C   0  0  0  0  0  0  0  0  0  0  0  0
   -1.1610    1.1370    0.7400 N   0  0  0  0  0  0  0  0  0  0  0  0
   -1.8480   -0.0180    1.1440 C   0  0  0  0  0  0  0  0  0  0  0  0
   -2.0270   -0.1330    2.4160 O   0  0  0  0  0  0  0  0  0  0  0  0
   -2.3660   -1.0840    0.2500 C   0  0  2  0  0  0  0  0  0  0  0  0
   -3.5690   -0.6350   -0.5730 C   0  0  0  0  0  0  0  0  0  0  0  0
   -4.6950   -0.2160    0.3000 C   0  0  0  0  0  0  0  0  0  0  0  0
   -5.8760    0.2100   -0.5050 C   0  0  0  0  0  0  0  0  0  0  0  0
   -5.5440    1.3730   -1.3880 C   0  0  0  0  0  0  0  0  0  0  0  0
   -6.7400    1.7660   -2.1470 N   0  0  0  0  0  0  0  0  0  0  0  0
   -2.7980   -2.2140    1.0890 N   0  0  0  0  0  0  0  0  0  0  0  0
   -2.2490   -3.4990    0.8160 C   0  0  0  0  0  0  0  0  0  0  0  0
   -1.4130   -3.6030   -0.1410 O   0  0  0  0  0  0  0  0  0  0  0  0
   -2.6440   -4.6750    1.6270 C   0  0  1  0  0  0  0  0  0  0  0  0
   -4.0270   -4.7890    1.5280 F   0  0  0  0  0  0  0  0  0  0  0  0
   -2.0220   -5.7850    1.0760 F   0  0  0  0  0  0  0  0  0  0  0  0
   -2.2570   -4.4790    2.9190 F   0  0  0  0  0  0  0  0  0  0  0  0
    3.6140    0.3740   -1.3080 C   0  0  0  0  0  0  0  0  0  0  0  0
    4.9590    0.0550   -1.4660 C   0  0  0  0  0  0  0  0  0  0  0  0
  2  1  1  1
  2  3  1  0
  2  4  1  0
  4  5  2  0
  4 32  1  0
  5  6  1  0
  6  7  2  0
  7  8  1  0
  7 31  1  0
  8  9  1  0
  9 10  2  0
 11  9  1  1
 11 12  1  0
 11 15  1  0
 12 13  1  0
 13 14  1  0
 14 15  1  0
 15 16  1  0
 16 17  2  0
 16 18  1  0
 18 19  1  1
 18 24  1  0
 19 20  1  0
 20 21  1  0
 21 22  1  0
 22 23  1  0
 24 25  1  0
 25 26  2  0
 25 27  1  0
 27 28  1  1
 27 29  1  0
 27 30  1  0
 31 32  2  0
M  CHG  1  23   1
M  END
