
     RDKit          3D

 32 33  0  0  0  0  0  0  0  0999 V2000
   -3.3790   -1.1570    3.3340 O   0  0  0  0  0  0  0  0  0  0  0  0
   -4.5570   -0.5990    2.8980 C   0  0  0  0  0  0  0  0  0  0  0  0
   -5.6000   -0.5890    3.8680 O   0  0  0  0  0  0  0  0  0  0  0  0
   -4.7660   -0.1030    1.7080 C   0  0  0  0  0  0  0  0  0  0  0  0
   -6.0290    0.4110    1.4670 O   0  0  0  0  0  0  0  0  0  0  0  0
   -3.7590   -0.0540    0.6260 C   0  0  0  0  0  0  0  0  0  0  0  0
   -4.0810    0.4420   -0.5280 C   0  0  0  0  0  0  0  0  0  0  0  0
   -5.4000    0.9810   -0.8720 C   0  0  2  0  0  0  0  0  0  0  0  0
   -5.4530    1.2440   -2.2850 O   0  0  0  0  0  0  0  0  0  0  0  0
   -5.7120    2.1910   -0.2640 O   0  0  0  0  0  0  0  0  0  0  0  0
   -2.3880   -0.5410    0.8990 C   0  0  2  0  0  0  0  0  0  0  0  0
   -1.8150    0.1600    1.9800 O   0  0  0  0  0  0  0  0  0  0  0  0
   -1.4260   -0.5910   -0.2310 C   0  0  1  0  0  0  0  0  0  0  0  0
   -1.9240   -1.2020   -1.3520 O   0  0  0  0  0  0  0  0  0  0  0  0
   -0.6970    0.6840   -0.5300 C   0  0  0  0  0  0  0  0  0  0  0  0
    0.3510    0.4690   -1.3640 O   0  0  0  0  0  0  0  0  0  0  0  0
    1.4010   -0.3040   -0.9560 C   0  0  2  0  0  0  0  0  0  0  0  0
    2.5200    0.4860   -0.8880 O   0  0  0  0  0  0  0  0  0  0  0  0
    3.1000    0.6570    0.3250 C   0  0  1  0  0  0  0  0  0  0  0  0
    4.5580    0.4580    0.4230 C   0  0  0  0  0  0  0  0  0  0  0  0
    5.3060    1.6150    0.1040 O   0  0  0  0  0  0  0  0  0  0  0  0
    5.2060    2.5370    1.1450 C   0  0  0  0  0  0  0  0  0  0  0  0
    3.8230    2.4850    1.7730 C   0  0  1  0  0  0  0  0  0  0  0  0
    3.5080    3.6950    2.3910 O   0  0  0  0  0  0  0  0  0  0  0  0
    2.8430    2.1310    0.6970 C   0  0  1  0  0  0  0  0  0  0  0  0
    3.1640    2.8640   -0.4460 O   0  0  0  0  0  0  0  0  0  0  0  0
    1.5240   -1.5140   -1.8090 C   0  0  1  0  0  0  0  0  0  0  0  0
    1.7320   -1.2970   -3.1410 O   0  0  0  0  0  0  0  0  0  0  0  0
    1.8140   -2.6230   -3.6280 C   0  0  0  0  0  0  0  0  0  0  0  0
    2.6780   -3.3670   -2.6290 C   0  0  0  0  0  0  0  0  0  0  0  0
    2.7070   -2.3940   -1.4410 C   0  0  2  0  0  0  0  0  0  0  0  0
    2.5410   -3.0410   -0.2410 O   0  0  0  0  0  0  0  0  0  0  0  0
  1  2  1  0
  2  3  1  0
  2  4  2  3
  4  5  1  0
  4  6  1  0
  6  7  2  3
  6 11  1  0
  7  8  1  0
  8  9  1  6
  8 10  1  0
 11 12  1  1
 11 13  1  0
 13 14  1  6
 13 15  1  0
 15 16  1  0
 17 16  1  6
 17 18  1  0
 17 27  1  0
 19 18  1  6
 19 20  1  0
 19 25  1  0
 20 21  1  0
 21 22  1  0
 22 23  1  0
 23 24  1  6
 23 25  1  0
 25 26  1  6
 27 28  1  6
 27 31  1  0
 28 29  1  0
 29 30  1  0
 30 31  1  0
 31 32  1  1
M  END
