
     RDKit          3D

 32 32  0  0  0  0  0  0  0  0999 V2000
   -3.9120    3.3610    3.0430 C   0  0  0  0  0  0  0  0  0  0  0  0
   -3.0440    2.4330    2.4690 O   0  0  0  0  0  0  0  0  0  0  0  0
   -3.6740    1.8940    1.3800 C   0  0  0  0  0  0  0  0  0  0  0  0
   -2.8300    0.8540    0.6520 C   0  0  2  0  0  0  0  0  0  0  0  0
   -2.5980   -0.1430    1.6320 O   0  0  0  0  0  0  0  0  0  0  0  0
   -1.5060    1.3750    0.2350 C   0  0  1  0  0  0  0  0  0  0  0  0
   -1.6820    2.5660   -0.7170 C   0  0  0  0  0  0  0  0  0  0  0  0
   -0.8740    1.9210    1.3800 O   0  0  0  0  0  0  0  0  0  0  0  0
   -0.5670    0.4540   -0.4210 C   0  0  1  0  0  0  0  0  0  0  0  0
   -1.1610   -0.0790   -1.6720 C   0  0  0  0  0  0  0  0  0  0  0  0
   -0.6600    0.1390   -2.8150 O   0  0  0  0  0  0  0  0  0  0  0  0
   -2.2950   -0.8400   -1.6380 O   0  0  0  0  0  0  0  0  0  0  0  0
   -2.9070   -1.3770   -2.8140 C   0  0  0  0  0  0  0  0  0  0  0  0
   -4.1220   -2.1500   -2.3460 C   0  0  2  0  0  0  0  0  0  0  0  0
   -4.9610   -1.2520   -1.6880 O   0  0  0  0  0  0  0  0  0  0  0  0
   -3.6300   -3.1360   -1.2940 C   0  0  0  0  0  0  0  0  0  0  0  0
   -4.6910   -3.8180   -0.7040 O   0  0  0  0  0  0  0  0  0  0  0  0
    0.6760    1.2270   -0.8250 C   0  0  0  0  0  0  0  0  0  0  0  0
    1.6180    1.4520    0.2970 C   0  0  2  0  0  0  0  0  0  0  0  0
    2.8610    1.8000   -0.2900 O   0  0  0  0  0  0  0  0  0  0  0  0
    1.8830    0.2620    1.1530 C   0  0  2  0  0  0  0  0  0  0  0  0
    3.0250   -0.5000    0.6130 C   0  0  0  0  0  0  0  0  0  0  0  0
    3.0180   -1.7310    0.3930 O   0  0  0  0  0  0  0  0  0  0  0  0
    4.1900    0.1940    0.3280 O   0  0  0  0  0  0  0  0  0  0  0  0
    5.3540   -0.3740   -0.1840 C   0  0  0  0  0  0  0  0  0  0  0  0
    5.9190   -1.4380    0.7330 C   0  0  2  0  0  0  0  0  0  0  0  0
    6.2120   -0.8380    1.9690 O   0  0  0  0  0  0  0  0  0  0  0  0
    7.2530   -1.8630    0.1070 C   0  0  0  0  0  0  0  0  0  0  0  0
    6.9410   -2.4540   -1.1140 O   0  0  0  0  0  0  0  0  0  0  0  0
    0.7500   -0.4390    1.3970 O   0  0  0  0  0  0  0  0  0  0  0  0
   -0.0920   -0.7290    0.3710 C   0  0  2  0  0  0  0  0  0  0  0  0
    0.6130   -1.5270   -0.5640 O   0  0  0  0  0  0  0  0  0  0  0  0
  1  2  1  0
  2  3  1  0
  3  4  1  0
  4  5  1  1
  4  6  1  0
  6  7  1  6
  6  8  1  0
  6  9  1  0
  9 10  1  6
  9 18  1  0
  9 31  1  0
 10 11  2  0
 10 12  1  0
 12 13  1  0
 13 14  1  0
 14 15  1  1
 14 16  1  0
 16 17  1  0
 18 19  1  0
 19 20  1  6
 19 21  1  0
 21 22  1  6
 21 30  1  0
 22 23  2  0
 22 24  1  0
 24 25  1  0
 25 26  1  0
 26 27  1  1
 26 28  1  0
 28 29  1  0
 30 31  1  0
 31 32  1  6
M  END
