
     RDKit          3D

 32 32  0  0  0  0  0  0  0  0999 V2000
   -2.3500   -0.5310   -1.9960 C   0  0  0  0  0  0  0  0  0  0  0  0
   -3.2800    0.3200   -1.2280 C   0  0  1  0  0  0  0  0  0  0  0  0
   -4.2700    0.8940   -2.2660 C   0  0  0  0  0  0  0  0  0  0  0  0
   -4.9270   -0.1840   -2.8790 O   0  0  0  0  0  0  0  0  0  0  0  0
   -3.9970   -0.3810   -0.1280 C   0  0  0  0  0  0  0  0  0  0  0  0
   -5.3860   -0.2220   -0.2520 O   0  0  0  0  0  0  0  0  0  0  0  0
   -3.5250   -1.0710    0.8600 C   0  0  0  0  0  0  0  0  0  0  0  0
   -4.4990   -1.6520    1.8030 C   0  0  0  0  0  0  0  0  0  0  0  0
   -5.7220   -1.4590    1.6110 O   0  0  0  0  0  0  0  0  0  0  0  0
   -4.1370   -2.4110    2.9050 O   0  0  0  0  0  0  0  0  0  0  0  0
   -2.1540   -1.3900    1.2280 C   0  0  1  0  0  0  0  0  0  0  0  0
   -1.9630   -2.8880    1.0500 C   0  0  0  0  0  0  0  0  0  0  0  0
   -0.8440   -3.3460    1.7510 O   0  0  0  0  0  0  0  0  0  0  0  0
   -1.0840   -0.7560    0.7650 O   0  0  0  0  0  0  0  0  0  0  0  0
   -0.2220   -0.1250    1.5920 C   0  0  0  0  0  0  0  0  0  0  0  0
    1.1580   -0.1400    0.9910 C   0  0  1  0  0  0  0  0  0  0  0  0
    1.1720   -0.8500   -0.2320 O   0  0  0  0  0  0  0  0  0  0  0  0
    1.6760    1.2380    0.6860 C   0  0  1  0  0  0  0  0  0  0  0  0
    2.7860    1.2130   -0.1480 O   0  0  0  0  0  0  0  0  0  0  0  0
    3.8970    1.7630    0.4860 C   0  0  0  0  0  0  0  0  0  0  0  0
    5.0210    1.7590   -0.3020 O   0  0  0  0  0  0  0  0  0  0  0  0
    5.4070    0.4840   -0.6950 C   0  0  0  0  0  0  0  0  0  0  0  0
    5.7190   -0.4060    0.4830 C   0  0  2  0  0  0  0  0  0  0  0  0
    6.7570    0.1100    1.2610 O   0  0  0  0  0  0  0  0  0  0  0  0
    6.2190   -1.7320   -0.0690 C   0  0  0  0  0  0  0  0  0  0  0  0
    5.2950   -2.3670   -0.8630 O   0  0  0  0  0  0  0  0  0  0  0  0
    0.6240    2.1310    0.0730 C   0  0  1  0  0  0  0  0  0  0  0  0
    1.2590    3.0000   -0.8160 O   0  0  0  0  0  0  0  0  0  0  0  0
   -0.2590    1.3490   -0.6430 O   0  0  0  0  0  0  0  0  0  0  0  0
   -1.3580    1.9650   -1.1520 C   0  0  0  0  0  0  0  0  0  0  0  0
   -2.6770    1.5630   -0.6050 C   0  0  1  0  0  0  0  0  0  0  0  0
   -3.5370    2.6830   -0.7590 O   0  0  0  0  0  0  0  0  0  0  0  0
  2  1  1  6
  2  3  1  0
  2  5  1  0
  2 31  1  0
  3  4  1  0
  5  6  1  0
  5  7  2  0
  7  8  1  0
  7 11  1  0
  8  9  2  0
  8 10  1  0
 11 12  1  6
 11 14  1  0
 12 13  1  0
 14 15  1  0
 15 16  1  0
 16 17  1  6
 16 18  1  0
 18 19  1  6
 18 27  1  0
 19 20  1  0
 20 21  1  0
 21 22  1  0
 22 23  1  0
 23 24  1  1
 23 25  1  0
 25 26  1  0
 27 28  1  6
 27 29  1  0
 29 30  1  0
 30 31  1  0
 31 32  1  6
M  END
