
     RDKit          3D

 32 32  0  0  0  0  0  0  0  0999 V2000
   -7.3860    1.6180    0.7660 O   0  0  0  0  0  0  0  0  0  0  0  0
   -7.0320    0.9340   -0.2460 C   0  0  0  0  0  0  0  0  0  0  0  0
   -7.7610    0.9980   -1.4060 O   0  0  0  0  0  0  0  0  0  0  0  0
   -5.8930    0.1550   -0.0760 O   0  0  0  0  0  0  0  0  0  0  0  0
   -5.1750    0.1240    1.1410 C   0  0  1  0  0  0  0  0  0  0  0  0
   -5.2180   -1.2580    1.7310 C   0  0  0  0  0  0  0  0  0  0  0  0
   -4.6590   -2.2110    0.8850 O   0  0  0  0  0  0  0  0  0  0  0  0
   -3.7720    0.6520    0.9840 C   0  0  1  0  0  0  0  0  0  0  0  0
   -3.1130    0.7930    2.3390 C   0  0  0  0  0  0  0  0  0  0  0  0
   -4.0050    1.5350    3.1390 O   0  0  0  0  0  0  0  0  0  0  0  0
   -3.0040   -0.0650    0.0720 O   0  0  0  0  0  0  0  0  0  0  0  0
   -2.4970    0.4960   -1.1150 C   0  0  0  0  0  0  0  0  0  0  0  0
   -2.8160    1.7270   -1.2650 O   0  0  0  0  0  0  0  0  0  0  0  0
   -1.6900   -0.2670   -2.0700 C   0  0  0  0  0  0  0  0  0  0  0  0
   -0.2340   -0.2480   -1.6330 C   0  0  1  0  0  0  0  0  0  0  0  0
    0.5210   -0.9890   -2.5620 O   0  0  0  0  0  0  0  0  0  0  0  0
    1.0600   -2.1140   -1.9820 C   0  0  2  0  0  0  0  0  0  0  0  0
    2.4360   -2.1830   -2.0960 O   0  0  0  0  0  0  0  0  0  0  0  0
    0.4930   -3.3740   -2.6180 C   0  0  0  0  0  0  0  0  0  0  0  0
    1.0490   -4.4970   -2.0210 O   0  0  0  0  0  0  0  0  0  0  0  0
    0.3320    1.1360   -1.5570 C   0  0  1  0  0  0  0  0  0  0  0  0
   -0.3410    1.9350   -0.6450 O   0  0  0  0  0  0  0  0  0  0  0  0
    1.8100    1.1530   -1.2300 C   0  0  0  0  0  0  0  0  0  0  0  0
    2.0820    0.6930    0.0300 O   0  0  0  0  0  0  0  0  0  0  0  0
    3.4250    0.7260    0.3040 C   0  0  2  0  0  0  0  0  0  0  0  0
    4.0180   -0.5850    0.7310 C   0  0  0  0  0  0  0  0  0  0  0  0
    5.5210   -0.4980    0.4530 C   0  0  2  0  0  0  0  0  0  0  0  0
    6.2130   -1.2620    1.3700 O   0  0  0  0  0  0  0  0  0  0  0  0
    5.9810    0.9320    0.5160 C   0  0  0  0  0  0  0  0  0  0  0  0
    5.2530    1.7530    1.5380 C   0  0  0  0  0  0  0  0  0  0  0  0
    3.7660    1.7230    1.3990 C   0  0  1  0  0  0  0  0  0  0  0  0
    3.2130    2.9610    1.1650 O   0  0  0  0  0  0  0  0  0  0  0  0
  1  2  2  0
  2  3  1  0
  2  4  1  0
  4  5  1  0
  5  6  1  6
  5  8  1  0
  6  7  1  0
  8  9  1  1
  8 11  1  0
  9 10  1  0
 11 12  1  0
 12 13  2  0
 12 14  1  0
 15 14  1  6
 15 16  1  0
 15 21  1  0
 16 17  1  0
 17 18  1  6
 17 19  1  0
 19 20  1  0
 21 22  1  1
 21 23  1  0
 23 24  1  0
 25 24  1  1
 25 26  1  0
 25 31  1  0
 26 27  1  0
 27 28  1  1
 27 29  1  0
 29 30  1  0
 30 31  1  0
 31 32  1  6
M  END
