
     RDKit          3D

 33 36  0  0  0  0  0  0  0  0999 V2000
    8.9280    2.0780   -0.2370 C   0  0  0  0  0  0  0  0  0  0  0  0
    8.4220    0.7880    0.3380 C   0  0  0  0  0  0  0  0  0  0  0  0
    7.1720    0.3720    0.1420 O   0  0  0  0  0  0  0  0  0  0  0  0
    5.9270    0.8080    0.4060 C   0  0  0  0  0  0  0  0  0  0  0  0
    5.6650    1.9940    1.0080 C   0  0  0  0  0  0  0  0  0  0  0  0
    4.3840    2.4230    1.2780 C   0  0  0  0  0  0  0  0  0  0  0  0
    4.1890    3.9780    2.0680 Cl  0  0  0  0  0  0  0  0  0  0  0  0
    3.3520    1.6300    0.9330 C   0  0  0  0  0  0  0  0  0  0  0  0
    3.5030    0.3550    0.2950 C   0  0  0  0  0  0  0  0  0  0  0  0
    2.2380   -0.5680    0.0370 S   0  0  0  0  0  0  0  0  0  0  0  0
    0.9730   -1.4900   -0.2240 C   0  0  0  0  0  0  0  0  0  0  0  0
   -0.3710   -1.0380    0.0130 C   0  0  0  0  0  0  0  0  0  0  0  0
   -1.4450   -1.8400   -0.0900 C   0  0  0  0  0  0  0  0  0  0  0  0
   -1.2680   -3.1620   -0.4410 C   0  0  0  0  0  0  0  0  0  0  0  0
   -0.0210   -3.6830   -0.6940 C   0  0  0  0  0  0  0  0  0  0  0  0
    1.0610   -2.8690   -0.5860 C   0  0  0  0  0  0  0  0  0  0  0  0
    2.3200   -3.4690   -0.8820 N   0  0  0  0  0  0  0  0  0  0  0  0
   -2.4820   -3.9820   -0.4950 C   0  0  0  0  0  0  0  0  0  0  0  0
   -3.3230   -3.6830    0.7240 C   0  0  0  0  0  0  0  0  0  0  0  0
   -3.7170   -2.2450    0.8180 C   0  0  0  0  0  0  0  0  0  0  0  0
   -2.8020   -1.3720    0.0920 N   0  0  0  0  0  0  0  0  0  0  0  0
   -3.1250   -0.0880   -0.4140 C   0  0  0  0  0  0  0  0  0  0  0  0
   -2.3370    0.8540   -0.6160 O   0  0  0  0  0  0  0  0  0  0  0  0
   -4.4800    0.1930   -0.7560 N   0  0  0  0  0  0  0  0  0  0  0  0
   -5.0400    1.4070   -1.2710 C   0  0  0  0  0  0  0  0  0  0  0  0
   -5.7300    2.2830   -0.3540 C   0  0  0  0  0  0  0  0  0  0  0  0
   -5.9600    3.5910   -0.7120 C   0  0  0  0  0  0  0  0  0  0  0  0
   -6.7110    4.4530    0.0450 C   0  0  0  0  0  0  0  0  0  0  0  0
   -7.2610    3.9660    1.2350 C   0  0  0  0  0  0  0  0  0  0  0  0
   -7.0410    2.6830    1.6010 N   0  0  0  0  0  0  0  0  0  0  0  0
   -6.2880    1.8530    0.8230 C   0  0  0  0  0  0  0  0  0  0  0  0
    4.8450    0.0070    0.0550 C   0  0  0  0  0  0  0  0  0  0  0  0
    5.1510   -1.1770   -0.5560 O   0  0  0  0  0  0  0  0  0  0  0  0
  1  2  1  0
  2  3  1  0
  3  4  1  0
  4  5  2  0
  4 32  1  0
  5  6  1  0
  6  7  1  0
  6  8  2  0
  8  9  1  0
  9 10  1  0
  9 32  2  0
 10 11  1  0
 11 12  2  0
 11 16  1  0
 12 13  1  0
 13 14  2  0
 13 21  1  0
 14 15  1  0
 14 18  1  0
 15 16  2  0
 16 17  1  0
 18 19  1  0
 19 20  1  0
 20 21  1  0
 21 22  1  0
 22 23  2  0
 22 24  1  0
 24 25  1  0
 25 26  1  0
 26 27  2  0
 26 31  1  0
 27 28  1  0
 28 29  2  0
 29 30  1  0
 30 31  2  0
 32 33  1  0
M  END
