
     RDKit          3D

 33 36  0  0  0  0  0  0  0  0999 V2000
   -1.7650   -0.8690    1.8290 C   0  0  0  0  0  0  0  0  0  0  0  0
   -0.5440   -0.7010    1.0080 C   0  0  0  0  0  0  0  0  0  0  0  0
    0.6680   -0.5140    1.4500 N   0  0  0  0  0  0  0  0  0  0  0  0
    1.5600   -0.3980    0.4190 C   0  0  0  0  0  0  0  0  0  0  0  0
    2.9850   -0.1760    0.5950 C   0  0  0  0  0  0  0  0  0  0  0  0
    3.4310    0.2150    1.7390 O   0  0  0  0  0  0  0  0  0  0  0  0
    3.9880   -0.3470   -0.3740 N   0  0  0  0  0  0  0  0  0  0  0  0
    5.3750   -0.0860   -0.0570 C   0  0  0  0  0  0  0  0  0  0  0  0
    6.0200    0.2680    0.9220 N   0  0  0  0  0  0  0  0  0  0  0  0
    7.3040    0.4560    0.9700 C   0  0  0  0  0  0  0  0  0  0  0  0
    8.0900    0.8610    2.0650 C   0  0  0  0  0  0  0  0  0  0  0  0
    9.4390    1.0120    1.9420 C   0  0  0  0  0  0  0  0  0  0  0  0
   10.1200    0.7920    0.7860 C   0  0  0  0  0  0  0  0  0  0  0  0
   11.8300    0.9960    0.6690 Cl  0  0  0  0  0  0  0  0  0  0  0  0
    9.3820    0.3880   -0.3340 C   0  0  0  0  0  0  0  0  0  0  0  0
    8.0070    0.2400   -0.1840 C   0  0  0  0  0  0  0  0  0  0  0  0
    6.6820   -0.2460   -1.3060 S   0  0  0  0  0  0  0  0  0  0  0  0
    0.7960   -0.5260   -0.7150 C   0  0  0  0  0  0  0  0  0  0  0  0
    1.3090   -0.3790   -2.1120 C   0  0  0  0  0  0  0  0  0  0  0  0
   -0.5240   -0.7200   -0.4020 C   0  0  0  0  0  0  0  0  0  0  0  0
   -1.7300   -0.8970   -1.1950 C   0  0  2  0  0  0  0  0  0  0  0  0
   -1.5840   -1.3800   -2.6010 C   0  0  0  0  0  0  0  0  0  0  0  0
   -2.5730    0.3630   -1.1660 C   0  0  0  0  0  0  0  0  0  0  0  0
   -2.2010    1.3950   -0.5820 O   0  0  0  0  0  0  0  0  0  0  0  0
   -3.8150    0.3220   -1.8330 N   0  0  0  0  0  0  0  0  0  0  0  0
   -4.7150    1.4480   -1.8900 C   0  0  0  0  0  0  0  0  0  0  0  0
   -5.1350    1.9360   -0.5380 C   0  0  0  0  0  0  0  0  0  0  0  0
   -5.8520    0.9470    0.2880 C   0  0  0  0  0  0  0  0  0  0  0  0
   -6.1840   -0.2880   -0.0120 C   0  0  0  0  0  0  0  0  0  0  0  0
   -6.9090   -0.9220    1.1460 C   0  0  0  0  0  0  0  0  0  0  0  0
   -6.9210    0.1630    2.1380 C   0  0  0  0  0  0  0  0  0  0  0  0
   -6.3250    1.2270    1.6610 C   0  0  0  0  0  0  0  0  0  0  0  0
   -6.1720    2.4190    2.3510 O   0  0  0  0  0  0  0  0  0  0  0  0
  1  2  1  0
  2  3  1  0
  2 20  2  0
  3  4  1  0
  4  5  1  0
  4 18  2  0
  5  6  2  0
  5  7  1  0
  7  8  1  0
  8  9  2  0
  8 17  1  0
  9 10  1  0
 10 11  2  0
 10 16  1  0
 11 12  1  0
 12 13  2  0
 13 14  1  0
 13 15  1  0
 15 16  2  0
 16 17  1  0
 18 19  1  0
 18 20  1  0
 20 21  1  0
 21 22  1  6
 21 23  1  0
 23 24  2  0
 23 25  1  0
 25 26  1  0
 26 27  1  0
 27 28  1  0
 28 29  2  0
 28 32  1  0
 29 30  1  0
 30 31  1  0
 31 32  2  0
 32 33  1  0
M  END
