
     RDKit          3D

 33 36  0  0  0  0  0  0  0  0999 V2000
   -2.1160   -3.0740    1.3940 C   0  0  0  0  0  0  0  0  0  0  0  0
   -1.6640   -1.3810    1.8540 S   0  0  0  0  0  0  0  0  0  0  0  0
   -1.3500   -0.4750    0.3240 C   0  0  0  0  0  0  0  0  0  0  0  0
   -0.0970   -0.4370   -0.2340 C   0  0  0  0  0  0  0  0  0  0  0  0
    0.2550    0.2190   -1.3850 C   0  0  0  0  0  0  0  0  0  0  0  0
    1.5400    0.2470   -1.9720 N   0  0  0  0  0  0  0  0  0  0  0  0
    2.6210   -0.5470   -1.6170 C   0  0  0  0  0  0  0  0  0  0  0  0
    2.5300   -1.3890   -0.7160 O   0  0  0  0  0  0  0  0  0  0  0  0
    3.9070   -0.4640   -2.2490 N   0  0  0  0  0  0  0  0  0  0  0  0
    5.0210   -1.2990   -1.8660 C   0  0  0  0  0  0  0  0  0  0  0  0
    5.6880   -0.8720   -0.6080 C   0  0  0  0  0  0  0  0  0  0  0  0
    5.4190   -1.4950    0.5830 C   0  0  0  0  0  0  0  0  0  0  0  0
    6.0410   -1.0920    1.7340 C   0  0  0  0  0  0  0  0  0  0  0  0
    6.9560   -0.0430    1.7110 C   0  0  0  0  0  0  0  0  0  0  0  0
    7.2090    0.5650    0.5070 C   0  0  0  0  0  0  0  0  0  0  0  0
    6.5870    0.1670   -0.6610 C   0  0  0  0  0  0  0  0  0  0  0  0
    8.2010    1.6420    0.7120 C   0  0  0  0  0  0  0  0  0  0  0  0
    8.6480    2.3920   -0.1940 O   0  0  0  0  0  0  0  0  0  0  0  0
    8.4830    1.6050    2.0600 O   0  0  0  0  0  0  0  0  0  0  0  0
    7.7730    0.6120    2.7450 C   0  0  0  0  0  0  0  0  0  0  0  0
   -0.7920    0.9020   -2.0160 C   0  0  0  0  0  0  0  0  0  0  0  0
   -2.0860    0.8890   -1.4800 C   0  0  0  0  0  0  0  0  0  0  0  0
   -2.3810    0.2170   -0.3270 C   0  0  0  0  0  0  0  0  0  0  0  0
   -3.6580    0.1810    0.2360 N   0  0  0  0  0  0  0  0  0  0  0  0
   -4.8030    0.7940   -0.2870 C   0  0  0  0  0  0  0  0  0  0  0  0
   -4.8730    1.5020   -1.4030 N   0  0  0  0  0  0  0  0  0  0  0  0
   -5.9770    2.0740   -1.8930 C   0  0  0  0  0  0  0  0  0  0  0  0
   -5.9170    2.9780   -3.3780 Cl  0  0  0  0  0  0  0  0  0  0  0  0
   -7.1470    1.9260   -1.1930 C   0  0  0  0  0  0  0  0  0  0  0  0
   -7.1760    1.1940    0.0010 C   0  0  0  0  0  0  0  0  0  0  0  0
   -8.4670    1.0690    0.7090 C   0  0  0  0  0  0  0  0  0  0  0  0
   -5.9960    0.6300    0.4490 C   0  0  0  0  0  0  0  0  0  0  0  0
   -5.9960   -0.1390    1.7010 C   0  0  0  0  0  0  0  0  0  0  0  0
  1  2  1  0
  2  3  1  0
  3  4  2  0
  3 23  1  0
  4  5  1  0
  5  6  1  0
  5 21  2  0
  6  7  1  0
  7  8  2  0
  7  9  1  0
  9 10  1  0
 10 11  1  0
 11 12  2  0
 11 16  1  0
 12 13  1  0
 13 14  2  0
 14 15  1  0
 14 20  1  0
 15 16  2  0
 15 17  1  0
 17 18  2  0
 17 19  1  0
 19 20  1  0
 21 22  1  0
 22 23  2  0
 23 24  1  0
 24 25  1  0
 25 26  2  0
 25 32  1  0
 26 27  1  0
 27 28  1  0
 27 29  2  0
 29 30  1  0
 30 31  1  0
 30 32  2  0
 32 33  1  0
M  END
