
     RDKit          3D

 32 34  0  0  0  0  0  0  0  0999 V2000
   -7.3110   -1.4900    0.4380 C   0  0  0  0  0  0  0  0  0  0  0  0
   -5.8970   -1.2810    0.9170 C   0  0  0  0  0  0  0  0  0  0  0  0
   -5.0730   -0.4430    0.0170 C   0  0  0  0  0  0  0  0  0  0  0  0
   -5.4890    0.9500   -0.2290 C   0  0  0  0  0  0  0  0  0  0  0  0
   -5.5340    1.8810    0.9240 C   0  0  1  0  0  0  0  0  0  0  0  0
   -6.4240    1.5630    2.0250 C   0  0  0  0  0  0  0  0  0  0  0  0
   -7.8220    1.3060    1.9880 N   0  0  0  0  0  0  0  0  0  0  0  0
   -5.7470    1.5560    3.1450 N   0  0  0  0  0  0  0  0  0  0  0  0
   -4.4000    1.8570    2.9170 C   0  0  0  0  0  0  0  0  0  0  0  0
   -3.4320    1.9470    3.7350 O   0  0  0  0  0  0  0  0  0  0  0  0
   -4.2110    2.0740    1.5230 N   0  0  0  0  0  0  0  0  0  0  0  0
   -3.0510    2.4040    0.8310 N   0  0  0  0  0  0  0  0  0  0  0  0
   -1.8610    1.6420    0.8440 C   0  0  0  0  0  0  0  0  0  0  0  0
   -0.6990    1.8780    0.2010 N   0  0  0  0  0  0  0  0  0  0  0  0
    0.1980    0.9260    0.4630 C   0  0  0  0  0  0  0  0  0  0  0  0
    1.5170    0.6800    0.0740 C   0  0  0  0  0  0  0  0  0  0  0  0
    2.2310   -0.4120    0.5040 C   0  0  0  0  0  0  0  0  0  0  0  0
    3.5670   -0.7090    0.1530 N   0  0  0  0  0  0  0  0  0  0  0  0
    4.4670    0.1070   -0.5420 C   0  0  0  0  0  0  0  0  0  0  0  0
    4.1280    1.2310   -0.9220 O   0  0  0  0  0  0  0  0  0  0  0  0
    5.8500   -0.3290   -0.8540 C   0  0  0  0  0  0  0  0  0  0  0  0
    6.1670   -1.4560   -0.4770 O   0  0  0  0  0  0  0  0  0  0  0  0
    6.7550    0.4740   -1.5330 N   0  0  0  0  0  0  0  0  0  0  0  0
    8.0920    0.2480   -1.9460 C   0  0  0  0  0  0  0  0  0  0  0  0
    8.2810   -0.7640   -3.0050 C   0  0  1  0  0  0  0  0  0  0  0  0
    9.6880   -0.8190   -3.3020 O   0  0  0  0  0  0  0  0  0  0  0  0
    7.8420   -2.1590   -2.8140 C   0  0  0  0  0  0  0  0  0  0  0  0
    8.5000   -2.7870   -1.7700 O   0  0  0  0  0  0  0  0  0  0  0  0
    1.5550   -1.2760    1.3650 C   0  0  0  0  0  0  0  0  0  0  0  0
    0.2570   -1.0710    1.7740 C   0  0  0  0  0  0  0  0  0  0  0  0
   -0.4230    0.0410    1.3160 C   0  0  0  0  0  0  0  0  0  0  0  0
   -1.6690    0.4990    1.5300 N   0  0  0  0  0  0  0  0  0  0  0  0
  1  2  1  0
  2  3  1  0
  3  4  1  0
  5  4  1  6
  5  6  1  0
  5 11  1  0
  6  7  1  0
  6  8  2  0
  8  9  1  0
  9 10  2  0
  9 11  1  0
 11 12  1  0
 12 13  1  0
 13 14  2  0
 13 32  1  0
 14 15  1  0
 15 16  2  0
 15 31  1  0
 16 17  1  0
 17 18  1  0
 17 29  2  0
 18 19  1  0
 19 20  2  0
 19 21  1  0
 21 22  2  0
 21 23  1  0
 23 24  1  0
 24 25  1  0
 25 26  1  1
 25 27  1  0
 27 28  1  0
 29 30  1  0
 30 31  2  0
 31 32  1  0
M  END
