
     RDKit          3D

 32 34  0  0  0  0  0  0  0  0999 V2000
   -5.2840   -0.4290    0.0540 C   0  0  0  0  0  0  0  0  0  0  0  0
   -3.8780   -0.0290    0.3920 N   0  0  0  0  0  0  0  0  0  0  0  0
   -2.9650   -1.0640    0.1260 C   0  0  0  0  0  0  0  0  0  0  0  0
   -2.3300   -1.7300    1.1950 N   0  0  0  0  0  0  0  0  0  0  0  0
   -2.7140   -1.4360   -1.1110 C   0  0  0  0  0  0  0  0  0  0  0  0
   -1.7830   -2.5070   -1.5360 C   0  0  0  0  0  0  0  0  0  0  0  0
   -1.7610   -2.6060   -2.8070 N   0  0  0  0  0  0  0  0  0  0  0  0
   -2.6060   -1.6900   -3.4090 N   0  0  0  0  0  0  0  0  0  0  0  0
   -3.2320   -0.9270   -2.3860 C   0  0  0  0  0  0  0  0  0  0  0  0
   -4.0720    0.0110   -2.5200 O   0  0  0  0  0  0  0  0  0  0  0  0
   -3.6880    1.2390    0.9370 C   0  0  0  0  0  0  0  0  0  0  0  0
   -4.8580    1.8720    1.4220 C   0  0  0  0  0  0  0  0  0  0  0  0
   -4.7750    3.1050    2.0130 C   0  0  0  0  0  0  0  0  0  0  0  0
   -5.9470    3.7680    2.5140 N   0  0  0  0  0  0  0  0  0  0  0  0
   -3.5410    3.7060    2.1210 C   0  0  0  0  0  0  0  0  0  0  0  0
   -2.4570    3.0930    1.6580 N   0  0  0  0  0  0  0  0  0  0  0  0
   -2.4890    1.8520    1.0550 C   0  0  0  0  0  0  0  0  0  0  0  0
   -1.2900    1.3010    0.5680 N   0  0  0  0  0  0  0  0  0  0  0  0
   -0.0370    2.0310    0.7560 C   0  0  0  0  0  0  0  0  0  0  0  0
   -0.1150    3.1240    1.3640 O   0  0  0  0  0  0  0  0  0  0  0  0
    1.2540    1.5480    0.2770 C   0  0  1  0  0  0  0  0  0  0  0  0
    2.2210    1.2730    1.4250 C   0  0  0  0  0  0  0  0  0  0  0  0
    3.2100    0.3360    0.7100 C   0  0  0  0  0  0  0  0  0  0  0  0
    2.5230   -0.2140   -0.4620 C   0  0  0  0  0  0  0  0  0  0  0  0
    2.9210   -1.0140   -1.4310 C   0  0  0  0  0  0  0  0  0  0  0  0
    4.2090   -1.5800   -1.5870 C   0  0  0  0  0  0  0  0  0  0  0  0
    4.3700   -2.3410   -2.6330 O   0  0  0  0  0  0  0  0  0  0  0  0
    5.3570   -1.4540   -0.7880 N   0  0  0  0  0  0  0  0  0  0  0  0
    6.5980   -2.1580   -1.1760 C   0  0  0  0  0  0  0  0  0  0  0  0
    7.6840   -1.8650   -0.1630 C   0  0  0  0  0  0  0  0  0  0  0  0
    7.3380   -2.2800    1.1140 O   0  0  0  0  0  0  0  0  0  0  0  0
    1.1890    0.3110   -0.3860 O   0  0  0  0  0  0  0  0  0  0  0  0
  1  2  1  0
  2  3  1  0
  2 11  1  0
  3  4  1  0
  3  5  2  3
  5  6  1  0
  5  9  1  0
  6  7  2  0
  7  8  1  0
  8  9  1  0
  9 10  2  0
 11 12  2  0
 11 17  1  0
 12 13  1  0
 13 14  1  0
 13 15  2  0
 15 16  1  0
 16 17  2  0
 17 18  1  0
 18 19  1  0
 19 20  2  0
 21 19  1  1
 21 22  1  0
 21 32  1  0
 22 23  1  0
 23 24  1  0
 24 25  2  3
 24 32  1  0
 25 26  1  0
 26 27  2  0
 26 28  1  0
 28 29  1  0
 29 30  1  0
 30 31  1  0
M  END
