
     RDKit          3D

 33 36  0  0  0  0  0  0  0  0999 V2000
    4.3660    4.7200   -2.4800 C   0  0  0  0  0  0  0  0  0  0  0  0
    5.4060    4.2080   -1.5040 C   0  0  0  0  0  0  0  0  0  0  0  0
    5.4290    2.7390   -1.5270 N   0  0  0  0  0  0  0  0  0  0  0  0
    4.2630    2.0240   -1.1930 C   0  0  0  0  0  0  0  0  0  0  0  0
    3.2360    2.7040   -0.8850 O   0  0  0  0  0  0  0  0  0  0  0  0
    4.1780    0.5740   -1.1840 C   0  0  0  0  0  0  0  0  0  0  0  0
    5.2770   -0.2140   -1.4460 C   0  0  0  0  0  0  0  0  0  0  0  0
    5.1700   -1.5770   -1.4320 C   0  0  0  0  0  0  0  0  0  0  0  0
    3.9590   -2.2130   -1.1550 C   0  0  0  0  0  0  0  0  0  0  0  0
    3.5830   -3.4930   -1.0780 N   0  0  0  0  0  0  0  0  0  0  0  0
    2.2660   -3.5780   -0.7730 C   0  0  0  0  0  0  0  0  0  0  0  0
    1.3910   -5.0850   -0.5820 Cl  0  0  0  0  0  0  0  0  0  0  0  0
    1.8040   -2.2990   -0.6560 C   0  0  0  0  0  0  0  0  0  0  0  0
    0.4690   -1.8410   -0.3430 C   0  0  0  0  0  0  0  0  0  0  0  0
   -0.5350   -2.6300   -0.1150 C   0  0  0  0  0  0  0  0  0  0  0  0
   -1.9080   -2.0460    0.2080 C   0  0  0  0  0  0  0  0  0  0  0  0
   -2.3570   -2.4710    1.5070 C   0  0  0  0  0  0  0  0  0  0  0  0
   -1.5340   -3.2450    2.1490 O   0  0  0  0  0  0  0  0  0  0  0  0
   -3.5660   -2.1680    2.1380 N   0  0  0  0  0  0  0  0  0  0  0  0
   -3.7920   -3.0200    3.3750 C   0  0  0  0  0  0  0  0  0  0  0  0
   -4.6420   -1.3780    1.7650 C   0  0  0  0  0  0  0  0  0  0  0  0
   -5.7930   -1.8100    2.2230 O   0  0  0  0  0  0  0  0  0  0  0  0
   -4.6770   -0.1480    0.9420 C   0  0  0  0  0  0  0  0  0  0  0  0
   -5.8910    0.1470    0.3100 C   0  0  0  0  0  0  0  0  0  0  0  0
   -7.0720   -0.6320    0.2170 N   0  0  0  0  0  0  0  0  0  0  0  0
   -5.6530    1.7510   -0.3930 S   0  0  0  0  0  0  0  0  0  0  0  0
   -3.9680    1.9570    0.1820 C   0  0  0  0  0  0  0  0  0  0  0  0
   -3.7370    0.8290    0.8410 C   0  0  0  0  0  0  0  0  0  0  0  0
   -2.3820    1.0850    1.5190 C   0  0  0  0  0  0  0  0  0  0  0  0
   -1.6840    1.9500    0.5080 C   0  0  0  0  0  0  0  0  0  0  0  0
   -2.8170    2.9090    0.1390 C   0  0  0  0  0  0  0  0  0  0  0  0
    2.8920   -1.4190   -0.9010 C   0  0  0  0  0  0  0  0  0  0  0  0
    2.9670   -0.0470   -0.9080 C   0  0  0  0  0  0  0  0  0  0  0  0
  1  2  1  0
  2  3  1  0
  3  4  1  0
  4  5  2  0
  4  6  1  0
  6  7  2  0
  6 33  1  0
  7  8  1  0
  8  9  2  0
  9 10  1  0
  9 32  1  0
 10 11  1  0
 11 12  1  0
 11 13  2  0
 13 14  1  0
 13 32  1  0
 14 15  2  3
 15 16  1  0
 16 17  1  0
 17 18  2  0
 17 19  1  0
 19 20  1  0
 19 21  1  0
 21 22  2  0
 21 23  1  0
 23 24  2  0
 23 28  1  0
 24 25  1  0
 24 26  1  0
 26 27  1  0
 27 28  2  0
 27 31  1  0
 28 29  1  0
 29 30  1  0
 30 31  1  0
 32 33  2  0
M  END
