
     RDKit          3D

 32 33  0  0  0  0  0  0  0  0999 V2000
   -7.0720   -2.3470    1.4330 C   0  0  0  0  0  0  0  0  0  0  0  0
   -7.0380   -1.8870    0.0500 N   0  0  0  0  0  0  0  0  0  0  0  0
   -7.4080   -0.5650   -0.2100 C   0  0  0  0  0  0  0  0  0  0  0  0
   -8.7900   -0.2460   -0.3310 N   0  0  0  0  0  0  0  0  0  0  0  0
   -6.4540    0.4160   -0.3470 C   0  0  0  0  0  0  0  0  0  0  0  0
   -6.9120    1.7430   -0.6120 C   0  0  0  0  0  0  0  0  0  0  0  0
   -6.1500    2.9640   -0.8020 C   0  0  0  0  0  0  0  0  0  0  0  0
   -8.2060    1.8720   -0.6940 O   0  0  0  0  0  0  0  0  0  0  0  0
   -5.0980   -0.0680   -0.1980 C   0  0  0  0  0  0  0  0  0  0  0  0
   -4.9340   -1.3340    0.0380 O   0  0  0  0  0  0  0  0  0  0  0  0
   -3.9460    0.7320   -0.2890 N   0  0  0  0  0  0  0  0  0  0  0  0
   -2.6040    0.2820   -0.1480 C   0  0  0  0  0  0  0  0  0  0  0  0
   -2.2050   -1.0130    0.0790 C   0  0  0  0  0  0  0  0  0  0  0  0
   -0.8780   -1.3820    0.2030 C   0  0  0  0  0  0  0  0  0  0  0  0
    0.1230   -0.4010    0.0940 C   0  0  0  0  0  0  0  0  0  0  0  0
    1.4650   -0.8200    0.2360 N   0  0  0  0  0  0  0  0  0  0  0  0
    2.5590    0.0320   -0.0150 C   0  0  0  0  0  0  0  0  0  0  0  0
    2.4920    1.2220   -0.3860 O   0  0  0  0  0  0  0  0  0  0  0  0
    3.9180   -0.4560    0.1550 N   0  0  0  0  0  0  0  0  0  0  0  0
    5.0360    0.4190   -0.1000 C   0  0  0  0  0  0  0  0  0  0  0  0
    6.3070   -0.3600    0.1530 C   0  0  0  0  0  0  0  0  0  0  0  0
    7.4450    0.4370   -0.0770 O   0  0  0  0  0  0  0  0  0  0  0  0
    8.7040   -0.0970    0.0990 C   0  0  0  0  0  0  0  0  0  0  0  0
    8.8660   -1.4020    0.4980 C   0  0  0  0  0  0  0  0  0  0  0  0
   10.1220   -1.9010    0.6630 C   0  0  0  0  0  0  0  0  0  0  0  0
   11.2210   -1.1540    0.4480 N   0  0  0  0  0  0  0  0  0  0  0  0
   11.0590    0.1040    0.0640 N   0  0  0  0  0  0  0  0  0  0  0  0
    9.8440    0.6520   -0.1160 C   0  0  0  0  0  0  0  0  0  0  0  0
    9.6850    1.8390   -0.4790 O   0  0  0  0  0  0  0  0  0  0  0  0
   -0.2930    0.8770   -0.1310 C   0  0  0  0  0  0  0  0  0  0  0  0
   -1.6190    1.2790   -0.2600 C   0  0  0  0  0  0  0  0  0  0  0  0
   -1.9500    2.6370   -0.4950 N   0  0  0  0  0  0  0  0  0  0  0  0
  1  2  1  0
  2  3  1  0
  3  4  1  0
  3  5  2  3
  5  6  1  0
  5  9  1  0
  6  7  1  0
  6  8  2  0
  9 10  2  0
  9 11  1  0
 11 12  1  0
 12 13  2  0
 12 31  1  0
 13 14  1  0
 14 15  2  0
 15 16  1  0
 15 30  1  0
 16 17  1  0
 17 18  2  0
 17 19  1  0
 19 20  1  0
 20 21  1  0
 21 22  1  0
 22 23  1  0
 23 24  2  0
 23 28  1  0
 24 25  1  0
 25 26  2  0
 26 27  1  0
 27 28  1  0
 28 29  2  0
 30 31  2  0
 31 32  1  0
M  END
