
     RDKit          3D

 36 37  0  0  0  0  0  0  0  0999 V2000
    7.6220   -2.2540   -0.3340 C   0  0  0  0  0  0  0  0  0  0  0  0
    6.3980   -3.0240   -0.8480 C   0  0  1  0  0  0  0  0  0  0  0  0
    6.3360   -4.4270   -0.3980 C   0  0  0  0  0  0  0  0  0  0  0  0
    5.2100   -2.1810   -0.6130 C   0  0  0  0  0  0  0  0  0  0  0  0
    5.0050   -1.1580   -1.5050 C   0  0  0  0  0  0  0  0  0  0  0  0
    3.8720   -0.3500   -1.4090 C   0  0  0  0  0  0  0  0  0  0  0  0
    2.9370   -0.5640   -0.4300 C   0  0  0  0  0  0  0  0  0  0  0  0
    1.7510    0.1860   -0.4490 N   0  0  0  0  0  0  0  0  0  0  0  0
    1.4060    1.3570    0.2700 C   0  0  0  0  0  0  0  0  0  0  0  0
    2.2370    1.8380    1.0470 O   0  0  0  0  0  0  0  0  0  0  0  0
    0.0170    1.8410   -0.0230 C   0  0  2  0  0  0  0  0  0  0  0  0
   -0.3280    3.1570    0.6000 C   0  0  0  0  0  0  0  0  0  0  0  0
    0.4720    4.3080    0.2400 C   0  0  0  0  0  0  0  0  0  0  0  0
    0.4230    4.9390   -0.9920 C   0  0  0  0  0  0  0  0  0  0  0  0
    1.1280    6.0900   -1.2690 C   0  0  0  0  0  0  0  0  0  0  0  0
    1.9240    6.6750   -0.3140 C   0  0  0  0  0  0  0  0  0  0  0  0
    1.9990    6.0720    0.9190 C   0  0  0  0  0  0  0  0  0  0  0  0
    1.2950    4.9100    1.2000 C   0  0  0  0  0  0  0  0  0  0  0  0
   -0.8220    0.8200    0.5800 N   0  0  0  0  0  0  0  0  0  0  0  0
   -2.2290    0.6610    0.4390 C   0  0  0  0  0  0  0  0  0  0  0  0
   -2.8640    1.5060   -0.2070 O   0  0  0  0  0  0  0  0  0  0  0  0
   -2.8290   -0.5240    1.1180 C   0  0  2  0  0  0  0  0  0  0  0  0
   -4.1150   -0.9630    0.4480 C   0  0  0  0  0  0  0  0  0  0  0  0
   -4.0810   -1.3120   -1.0070 C   0  0  0  0  0  0  0  0  0  0  0  0
   -5.4650   -1.8610   -1.3780 C   0  0  0  0  0  0  0  0  0  0  0  0
   -5.5860   -2.2510   -2.7790 C   0  0  0  0  0  0  0  0  0  0  0  0
   -6.9530   -2.8220   -2.9340 N   0  0  0  0  0  0  0  0  0  0  0  0
   -3.0940   -0.2580    2.4930 N   0  0  0  0  0  0  0  0  0  0  0  0
   -4.3400   -0.4820    3.1880 C   0  0  0  0  0  0  0  0  0  0  0  0
   -5.3210   -0.8410    2.6850 O   0  0  0  0  0  0  0  0  0  0  0  0
   -4.1710   -0.1680    4.6980 C   0  0  2  0  0  0  0  0  0  0  0  0
   -3.5650   -1.3530    5.1870 F   0  0  0  0  0  0  0  0  0  0  0  0
   -5.3270    0.0290    5.3180 F   0  0  0  0  0  0  0  0  0  0  0  0
   -3.2110    0.8010    4.8650 F   0  0  0  0  0  0  0  0  0  0  0  0
    3.1450   -1.5790    0.4520 C   0  0  0  0  0  0  0  0  0  0  0  0
    4.2770   -2.3910    0.3710 C   0  0  0  0  0  0  0  0  0  0  0  0
  2  1  1  1
  2  3  1  0
  2  4  1  0
  4  5  2  0
  4 36  1  0
  5  6  1  0
  6  7  2  0
  7  8  1  0
  7 35  1  0
  8  9  1  0
  9 10  2  0
  9 11  1  0
 11 12  1  1
 11 19  1  0
 12 13  1  0
 13 14  2  0
 13 18  1  0
 14 15  1  0
 15 16  2  0
 16 17  1  0
 17 18  2  0
 19 20  1  0
 20 21  2  0
 20 22  1  0
 22 23  1  6
 22 28  1  0
 23 24  1  0
 24 25  1  0
 25 26  1  0
 26 27  1  0
 28 29  1  0
 29 30  2  0
 29 31  1  0
 31 32  1  1
 31 33  1  0
 31 34  1  0
 35 36  2  0
M  CHG  1  27   1
M  END
