
     RDKit          3D

 37 39  0  0  0  0  0  0  0  0999 V2000
    6.6480    2.4090    1.7910 C   0  0  0  0  0  0  0  0  0  0  0  0
    5.9060    1.6520    2.8120 C   0  0  0  0  0  0  0  0  0  0  0  0
    5.2410    0.5000    2.4770 C   0  0  0  0  0  0  0  0  0  0  0  0
    5.3240    0.1090    1.1110 C   0  0  0  0  0  0  0  0  0  0  0  0
    4.8570   -0.8550    0.4240 C   0  0  0  0  0  0  0  0  0  0  0  0
    4.0060   -1.9600    0.8800 C   0  0  0  0  0  0  0  0  0  0  0  0
    2.7380   -1.9970    0.1500 N   0  0  0  0  0  0  0  0  0  0  0  0
    1.8150   -0.9170    0.1380 C   0  0  0  0  0  0  0  0  0  0  0  0
    2.0660    0.1210    0.7620 O   0  0  0  0  0  0  0  0  0  0  0  0
    0.5570   -1.0660   -0.6340 C   0  0  0  0  0  0  0  0  0  0  0  0
    0.1850   -2.1330   -1.3560 N   0  0  0  0  0  0  0  0  0  0  0  0
   -1.0330   -1.9160   -1.9240 C   0  0  0  0  0  0  0  0  0  0  0  0
   -1.7770   -2.8730   -2.7960 C   0  0  1  0  0  0  0  0  0  0  0  0
   -0.9070   -3.8630   -3.5930 C   0  0  0  0  0  0  0  0  0  0  0  0
   -1.6970   -4.3300   -2.3990 C   0  0  0  0  0  0  0  0  0  0  0  0
   -1.3980   -0.6880   -1.5320 N   0  0  0  0  0  0  0  0  0  0  0  0
   -2.5790    0.0060   -1.8580 C   0  0  0  0  0  0  0  0  0  0  0  0
   -3.4540   -0.5110   -2.6230 O   0  0  0  0  0  0  0  0  0  0  0  0
   -2.9060    1.3850   -1.3480 C   0  0  1  0  0  0  0  0  0  0  0  0
   -4.0600    1.8980   -2.0450 N   0  0  0  0  0  0  0  0  0  0  0  0
   -5.0450    2.0220   -1.2410 C   0  0  0  0  0  0  0  0  0  0  0  0
   -6.3920    2.5290   -1.6490 C   0  0  0  0  0  0  0  0  0  0  0  0
   -4.6680    1.6090    0.1000 C   0  0  0  0  0  0  0  0  0  0  0  0
   -5.5710    1.6150    1.2870 C   0  0  0  0  0  0  0  0  0  0  0  0
   -6.0530    2.9890    1.6480 C   0  0  0  0  0  0  0  0  0  0  0  0
   -6.8810    2.9110    2.7520 F   0  0  0  0  0  0  0  0  0  0  0  0
   -3.3990    1.2310    0.0400 C   0  0  0  0  0  0  0  0  0  0  0  0
   -2.6280    0.7470    1.2010 C   0  0  0  0  0  0  0  0  0  0  0  0
   -0.4360   -0.1740   -0.7520 N   0  0  0  0  0  0  0  0  0  0  0  0
    5.2210   -0.8800   -1.0770 C   0  0  2  0  0  0  0  0  0  0  0  0
    4.0330   -0.8210   -1.8060 F   0  0  0  0  0  0  0  0  0  0  0  0
    5.9630   -1.9860   -1.3620 F   0  0  0  0  0  0  0  0  0  0  0  0
    5.8940    0.2830   -1.3280 F   0  0  0  0  0  0  0  0  0  0  0  0
    4.5660   -0.1740    3.5830 C   0  0  2  0  0  0  0  0  0  0  0  0
    5.0760   -1.4060    3.9130 F   0  0  0  0  0  0  0  0  0  0  0  0
    3.2070   -0.2270    3.5260 F   0  0  0  0  0  0  0  0  0  0  0  0
    4.8180    0.5890    4.7720 F   0  0  0  0  0  0  0  0  0  0  0  0
  1  2  1  0
  2  3  2  3
  3  4  1  0
  3 34  1  0
  4  5  2  3
  5  6  1  0
  5 30  1  0
  6  7  1  0
  7  8  1  0
  8  9  2  0
  8 10  1  0
 10 11  1  0
 10 29  2  0
 11 12  2  0
 13 12  1  1
 12 16  1  0
 13 14  1  0
 13 15  1  0
 14 15  1  0
 16 17  1  0
 16 29  1  0
 17 18  2  0
 19 17  1  6
 19 20  1  0
 19 27  1  0
 20 21  2  0
 21 22  1  0
 21 23  1  0
 23 24  1  0
 23 27  2  0
 24 25  1  0
 25 26  1  0
 27 28  1  0
 30 31  1  6
 30 32  1  0
 30 33  1  0
 34 35  1  1
 34 36  1  0
 34 37  1  0
M  END
