
     RDKit          3D

 37 39  0  0  0  0  0  0  0  0999 V2000
    2.7690   -2.7510    1.6080 C   0  0  0  0  0  0  0  0  0  0  0  0
    3.7210   -2.2320    0.8750 C   0  0  0  0  0  0  0  0  0  0  0  0
    5.0980   -2.4450    1.3180 N   0  0  0  0  0  0  0  0  0  0  0  0
    6.1760   -2.3260    0.3340 C   0  0  0  0  0  0  0  0  0  0  0  0
    5.9510   -0.9840   -0.3020 C   0  0  1  0  0  0  0  0  0  0  0  0
    6.2110   -0.0270    0.6870 F   0  0  0  0  0  0  0  0  0  0  0  0
    6.8170   -0.7670   -1.3530 F   0  0  0  0  0  0  0  0  0  0  0  0
    4.5740   -0.7890   -0.7650 C   0  0  0  0  0  0  0  0  0  0  0  0
    3.4390   -1.3550   -0.2500 C   0  0  0  0  0  0  0  0  0  0  0  0
    2.1670   -0.9880   -0.8030 C   0  0  0  0  0  0  0  0  0  0  0  0
    2.3780    0.1050   -1.6260 O   0  0  0  0  0  0  0  0  0  0  0  0
    0.8500   -1.3190   -0.8240 N   0  0  0  0  0  0  0  0  0  0  0  0
    0.1260   -2.4520   -0.3770 C   0  0  0  0  0  0  0  0  0  0  0  0
   -0.8100   -1.9780    0.7220 C   0  0  0  0  0  0  0  0  0  0  0  0
   -1.8140   -1.1400    0.0750 N   0  0  0  0  0  0  0  0  0  0  0  0
   -3.0710   -0.8520    0.7450 C   0  0  0  0  0  0  0  0  0  0  0  0
   -3.0330    0.1410    1.6000 C   0  0  0  0  0  0  0  0  0  0  0  0
   -4.0870    0.6950    2.4340 C   0  0  2  0  0  0  0  0  0  0  0  0
   -3.6140    1.9040    2.9990 F   0  0  0  0  0  0  0  0  0  0  0  0
   -4.3650   -0.1040    3.5470 F   0  0  0  0  0  0  0  0  0  0  0  0
   -4.2810   -1.6540    0.4900 C   0  0  0  0  0  0  0  0  0  0  0  0
   -5.3640   -1.5550    1.0000 N   0  0  0  0  0  0  0  0  0  0  0  0
   -6.5190   -1.3460    1.6390 C   0  0  0  0  0  0  0  0  0  0  0  0
   -4.1900   -2.7320   -0.6070 C   0  0  2  0  0  0  0  0  0  0  0  0
   -3.0670   -3.4670   -0.4120 F   0  0  0  0  0  0  0  0  0  0  0  0
   -4.2170   -2.1930   -1.8470 F   0  0  0  0  0  0  0  0  0  0  0  0
   -5.2590   -3.6320   -0.4200 F   0  0  0  0  0  0  0  0  0  0  0  0
   -1.4800   -0.5970   -1.2200 C   0  0  0  0  0  0  0  0  0  0  0  0
   -0.0500   -0.2460   -1.4200 C   0  0  1  0  0  0  0  0  0  0  0  0
    0.2680    0.9770   -0.6520 C   0  0  0  0  0  0  0  0  0  0  0  0
    0.9770    0.9380    0.4110 O   0  0  0  0  0  0  0  0  0  0  0  0
   -0.2050    2.2460   -1.0730 N   0  0  0  0  0  0  0  0  0  0  0  0
   -0.9950    2.4600   -2.2640 C   0  0  0  0  0  0  0  0  0  0  0  0
    0.1180    3.4210   -0.2580 C   0  0  0  0  0  0  0  0  0  0  0  0
    1.4210    3.9810   -0.7680 C   0  0  2  0  0  0  0  0  0  0  0  0
    1.9070    5.2000   -0.0400 C   0  0  0  0  0  0  0  0  0  0  0  0
    1.3790    5.3340   -1.4100 C   0  0  0  0  0  0  0  0  0  0  0  0
  1  2  2  0
  2  3  1  0
  2  9  1  0
  3  4  1  0
  4  5  1  0
  5  6  1  1
  5  7  1  0
  5  8  1  0
  8  9  2  0
  9 10  1  0
 10 11  2  0
 10 12  1  0
 12 13  1  0
 12 29  1  0
 13 14  1  0
 14 15  1  0
 15 16  1  0
 15 28  1  0
 16 17  2  3
 16 21  1  0
 17 18  1  0
 18 19  1  1
 18 20  1  0
 21 22  2  3
 21 24  1  0
 22 23  1  0
 24 25  1  1
 24 26  1  0
 24 27  1  0
 28 29  1  0
 29 30  1  1
 30 31  2  0
 30 32  1  0
 32 33  1  0
 32 34  1  0
 35 34  1  1
 35 36  1  0
 35 37  1  0
 36 37  1  0
M  END
