
     RDKit          3D

 37 40  0  0  0  0  0  0  0  0999 V2000
   -0.2240    1.1510   -2.5360 C   0  0  0  0  0  0  0  0  0  0  0  0
    0.1310    1.4270   -1.0820 C   0  0  0  0  0  0  0  0  0  0  0  0
    0.1700    0.1110   -0.3730 C   0  0  0  0  0  0  0  0  0  0  0  0
   -0.8910   -0.6700    0.0310 C   0  0  0  0  0  0  0  0  0  0  0  0
   -2.2870   -0.3500   -0.2130 C   0  0  0  0  0  0  0  0  0  0  0  0
   -2.5710    0.6750   -0.8650 O   0  0  0  0  0  0  0  0  0  0  0  0
   -3.3310   -1.1820    0.2790 O   0  0  0  0  0  0  0  0  0  0  0  0
   -4.6030   -0.6910   -0.0750 C   0  0  0  0  0  0  0  0  0  0  0  0
   -5.1820   -1.1350   -1.1550 C   0  0  0  0  0  0  0  0  0  0  0  0
   -6.5070   -0.6790   -1.5980 C   0  0  2  0  0  0  0  0  0  0  0  0
   -7.2420   -1.8330   -1.9190 F   0  0  0  0  0  0  0  0  0  0  0  0
   -6.4690    0.0530   -2.7720 F   0  0  0  0  0  0  0  0  0  0  0  0
   -7.3150    0.0420   -0.5600 C   0  0  0  0  0  0  0  0  0  0  0  0
   -6.4920    0.7770    0.3860 N   0  0  0  0  0  0  0  0  0  0  0  0
   -6.9950    2.0290    0.8970 C   0  0  0  0  0  0  0  0  0  0  0  0
   -5.2200    0.3080    0.7930 C   0  0  0  0  0  0  0  0  0  0  0  0
   -4.6710    0.7630    1.8880 C   0  0  0  0  0  0  0  0  0  0  0  0
   -5.2510    1.6930    2.6900 F   0  0  0  0  0  0  0  0  0  0  0  0
   -3.4600    0.2840    2.2540 F   0  0  0  0  0  0  0  0  0  0  0  0
   -0.3610   -1.7450    0.6340 N   0  0  0  0  0  0  0  0  0  0  0  0
    1.0020   -1.6490    0.6120 C   0  0  0  0  0  0  0  0  0  0  0  0
    1.8510   -2.6870    1.1910 C   0  0  2  0  0  0  0  0  0  0  0  0
    1.2220   -3.5220    2.3120 C   0  0  0  0  0  0  0  0  0  0  0  0
    2.3680   -2.6480    2.5790 C   0  0  0  0  0  0  0  0  0  0  0  0
    1.3270   -0.5200    0.0000 N   0  0  0  0  0  0  0  0  0  0  0  0
    2.5930   -0.0210   -0.2400 N   0  0  0  0  0  0  0  0  0  0  0  0
    3.8450   -0.6360    0.1420 C   0  0  0  0  0  0  0  0  0  0  0  0
    5.0180    0.1660   -0.2840 C   0  0  0  0  0  0  0  0  0  0  0  0
    5.1930    0.4410   -1.6210 C   0  0  0  0  0  0  0  0  0  0  0  0
    6.2870    1.1740   -2.0790 C   0  0  0  0  0  0  0  0  0  0  0  0
    7.1850    1.6150   -1.1620 N   0  0  0  0  0  0  0  0  0  0  0  0
    7.0590    1.3770    0.1390 C   0  0  0  0  0  0  0  0  0  0  0  0
    8.0660    1.8710    1.0970 C   0  0  2  0  0  0  0  0  0  0  0  0
    7.6600    1.6890    2.4000 F   0  0  0  0  0  0  0  0  0  0  0  0
    8.4340    3.1870    0.8340 F   0  0  0  0  0  0  0  0  0  0  0  0
    9.2350    1.1100    0.9170 F   0  0  0  0  0  0  0  0  0  0  0  0
    5.9860    0.6570    0.5930 C   0  0  0  0  0  0  0  0  0  0  0  0
  1  2  1  0
  2  3  1  0
  3  4  2  0
  3 25  1  0
  4  5  1  0
  4 20  1  0
  5  6  2  0
  5  7  1  0
  7  8  1  0
  8  9  2  0
  8 16  1  0
  9 10  1  0
 10 11  1  6
 10 12  1  0
 10 13  1  0
 13 14  1  0
 14 15  1  0
 14 16  1  0
 16 17  2  3
 17 18  1  0
 17 19  1  0
 20 21  2  0
 22 21  1  1
 21 25  1  0
 22 23  1  0
 22 24  1  0
 23 24  1  0
 25 26  1  0
 26 27  1  0
 27 28  1  0
 28 29  2  0
 28 37  1  0
 29 30  1  0
 30 31  2  0
 31 32  1  0
 32 33  1  0
 32 37  2  0
 33 34  1  1
 33 35  1  0
 33 36  1  0
M  END
