
     RDKit          3D

 37 39  0  0  0  0  0  0  0  0999 V2000
   -3.0050   -4.2900    1.0530 C   0  0  0  0  0  0  0  0  0  0  0  0
   -2.7180   -2.8790    1.5170 C   0  0  0  0  0  0  0  0  0  0  0  0
   -1.7040   -2.2240    0.6520 C   0  0  0  0  0  0  0  0  0  0  0  0
   -1.1360   -2.8270   -0.4030 N   0  0  0  0  0  0  0  0  0  0  0  0
   -0.2530   -1.9540   -0.9770 C   0  0  0  0  0  0  0  0  0  0  0  0
    0.5520   -2.2790   -2.1510 C   0  0  0  0  0  0  0  0  0  0  0  0
    0.4390   -3.4280   -2.6800 O   0  0  0  0  0  0  0  0  0  0  0  0
    1.4370   -1.3300   -2.6820 N   0  0  0  0  0  0  0  0  0  0  0  0
    2.2370   -1.6990   -3.8560 C   0  0  0  0  0  0  0  0  0  0  0  0
    1.6380    0.0120   -2.1830 C   0  0  0  0  0  0  0  0  0  0  0  0
    2.7050    0.0150   -1.1550 C   0  0  0  0  0  0  0  0  0  0  0  0
    3.3710   -1.1260   -0.7580 C   0  0  0  0  0  0  0  0  0  0  0  0
    4.2440   -0.7880    0.1870 N   0  0  0  0  0  0  0  0  0  0  0  0
    4.1930    0.5560    0.4460 C   0  0  0  0  0  0  0  0  0  0  0  0
    5.0260    1.2000    1.4210 C   0  0  0  0  0  0  0  0  0  0  0  0
    5.0280    2.4970    1.6290 C   0  0  0  0  0  0  0  0  0  0  0  0
    5.8790    2.9940    2.6020 F   0  0  0  0  0  0  0  0  0  0  0  0
    3.2250    1.0440   -0.4020 C   0  0  0  0  0  0  0  0  0  0  0  0
    2.8150    2.4200   -0.5190 C   0  0  0  0  0  0  0  0  0  0  0  0
    3.0060    3.1340   -1.6060 C   0  0  0  0  0  0  0  0  0  0  0  0
    3.6040    2.6540   -2.7120 F   0  0  0  0  0  0  0  0  0  0  0  0
    2.6040    4.4410   -1.6940 F   0  0  0  0  0  0  0  0  0  0  0  0
   -0.3240   -0.8530   -0.2420 N   0  0  0  0  0  0  0  0  0  0  0  0
   -1.1950   -0.9960    0.7460 N   0  0  0  0  0  0  0  0  0  0  0  0
   -1.4790    0.0360    1.7080 C   0  0  0  0  0  0  0  0  0  0  0  0
   -2.5670    0.9120    1.3140 C   0  0  0  0  0  0  0  0  0  0  0  0
   -2.4550    1.8580    0.3190 C   0  0  0  0  0  0  0  0  0  0  0  0
   -1.2570    2.1720   -0.5330 C   0  0  0  0  0  0  0  0  0  0  0  0
   -3.5660    2.4860    0.1890 O   0  0  0  0  0  0  0  0  0  0  0  0
   -4.4730    2.0190    1.0630 C   0  0  0  0  0  0  0  0  0  0  0  0
   -5.6670    2.5340    1.0840 C   0  0  0  0  0  0  0  0  0  0  0  0
   -5.9880    3.5370    0.2260 F   0  0  0  0  0  0  0  0  0  0  0  0
   -6.6310    2.1380    1.9120 F   0  0  0  0  0  0  0  0  0  0  0  0
   -3.8650    1.0110    1.7990 C   0  0  0  0  0  0  0  0  0  0  0  0
   -4.4130    0.3280    2.7650 C   0  0  0  0  0  0  0  0  0  0  0  0
   -5.6760    0.4580    3.1990 F   0  0  0  0  0  0  0  0  0  0  0  0
   -3.6850   -0.6180    3.4550 F   0  0  0  0  0  0  0  0  0  0  0  0
  1  2  1  0
  2  3  1  0
  3  4  2  0
  3 24  1  0
  4  5  1  0
  5  6  1  0
  5 23  2  0
  6  7  2  0
  6  8  1  0
  8  9  1  0
  8 10  1  0
 10 11  1  0
 11 12  2  0
 11 18  1  0
 12 13  1  0
 13 14  1  0
 14 15  1  0
 14 18  2  0
 15 16  2  3
 16 17  1  0
 18 19  1  0
 19 20  2  3
 20 21  1  0
 20 22  1  0
 23 24  1  0
 24 25  1  0
 25 26  1  0
 26 27  2  0
 26 34  1  0
 27 28  1  0
 27 29  1  0
 29 30  1  0
 30 31  2  3
 30 34  1  0
 31 32  1  0
 31 33  1  0
 34 35  2  3
 35 36  1  0
 35 37  1  0
M  END
