
     RDKit          3D

 37 40  0  0  0  0  0  0  0  0999 V2000
   -1.9660   -0.2930    1.8930 O   0  0  0  0  0  0  0  0  0  0  0  0
   -1.7940    0.7620    1.2340 C   0  0  0  0  0  0  0  0  0  0  0  0
   -2.8980    1.6110    0.9710 N   0  0  0  0  0  0  0  0  0  0  0  0
   -4.2520    1.3610    1.4070 C   0  0  0  0  0  0  0  0  0  0  0  0
   -4.7740    0.0870    0.8430 C   0  0  1  0  0  0  0  0  0  0  0  0
   -6.1680   -0.2520    1.2180 C   0  0  0  0  0  0  0  0  0  0  0  0
   -6.9880    0.6050    2.1290 C   0  0  2  0  0  0  0  0  0  0  0  0
   -7.1820    1.8770    1.6910 F   0  0  0  0  0  0  0  0  0  0  0  0
   -6.3410    0.6210    3.3560 F   0  0  0  0  0  0  0  0  0  0  0  0
   -8.2330    0.0200    2.2630 F   0  0  0  0  0  0  0  0  0  0  0  0
   -6.6600   -1.3810    0.7230 C   0  0  0  0  0  0  0  0  0  0  0  0
   -7.9360   -1.7250    1.0460 F   0  0  0  0  0  0  0  0  0  0  0  0
   -5.8530   -2.2380   -0.1360 C   0  0  0  0  0  0  0  0  0  0  0  0
   -4.5240   -1.7200   -0.5500 C   0  0  0  0  0  0  0  0  0  0  0  0
   -4.5240   -0.2120   -0.5060 N   0  0  0  0  0  0  0  0  0  0  0  0
   -5.3970    0.1570   -1.5420 C   0  0  0  0  0  0  0  0  0  0  0  0
   -5.5340    1.5790   -1.9340 C   0  0  1  0  0  0  0  0  0  0  0  0
   -5.9860    2.3960   -0.9420 F   0  0  0  0  0  0  0  0  0  0  0  0
   -4.3740    2.0750   -2.5250 F   0  0  0  0  0  0  0  0  0  0  0  0
   -6.5130    1.6460   -2.9470 F   0  0  0  0  0  0  0  0  0  0  0  0
   -0.4560    1.1160    0.7380 C   0  0  0  0  0  0  0  0  0  0  0  0
   -0.1530    2.2510    0.0190 C   0  0  0  0  0  0  0  0  0  0  0  0
    1.1950    2.2200   -0.2580 C   0  0  0  0  0  0  0  0  0  0  0  0
    1.6790    1.0610    0.3030 C   0  0  0  0  0  0  0  0  0  0  0  0
    3.0750    0.6390    0.2390 C   0  0  0  0  0  0  0  0  0  0  0  0
    3.5000   -0.5020    0.8080 C   0  0  0  0  0  0  0  0  0  0  0  0
    4.8750   -0.8070    0.6790 N   0  0  0  0  0  0  0  0  0  0  0  0
    5.4820   -2.0530    1.1250 C   0  0  0  0  0  0  0  0  0  0  0  0
    6.6170   -2.1940    0.1090 C   0  0  0  0  0  0  0  0  0  0  0  0
    6.9100   -0.7730   -0.2180 C   0  0  0  0  0  0  0  0  0  0  0  0
    8.1520   -0.3240   -0.8290 C   0  0  0  0  0  0  0  0  0  0  0  0
    9.2140   -1.1090   -1.1930 C   0  0  0  0  0  0  0  0  0  0  0  0
   10.2050   -0.3030   -1.7410 C   0  0  0  0  0  0  0  0  0  0  0  0
    9.7330    0.9630   -1.7050 N   0  0  0  0  0  0  0  0  0  0  0  0
    8.4930    0.9630   -1.1560 C   0  0  0  0  0  0  0  0  0  0  0  0
    5.8950   -0.0310    0.1230 N   0  0  0  0  0  0  0  0  0  0  0  0
    0.6680    0.4630    0.8680 O   0  0  0  0  0  0  0  0  0  0  0  0
  1  2  2  0
  2  3  1  0
  2 21  1  0
  3  4  1  0
  5  4  1  6
  5  6  1  0
  5 15  1  0
  6  7  1  0
  6 11  2  0
  7  8  1  6
  7  9  1  0
  7 10  1  0
 11 12  1  0
 11 13  1  0
 13 14  1  0
 14 15  1  0
 15 16  1  0
 16 17  1  0
 17 18  1  1
 17 19  1  0
 17 20  1  0
 21 22  2  0
 21 37  1  0
 22 23  1  0
 23 24  2  0
 24 25  1  0
 24 37  1  0
 25 26  2  3
 26 27  1  0
 27 28  1  0
 27 36  1  0
 28 29  1  0
 29 30  1  0
 30 31  1  0
 30 36  2  0
 31 32  1  0
 31 35  2  0
 32 33  2  0
 33 34  1  0
 34 35  1  0
M  END
