
     RDKit          3D

 37 40  0  0  0  0  0  0  0  0999 V2000
   -9.2080    2.0090   -1.3990 F   0  0  0  0  0  0  0  0  0  0  0  0
   -8.0240    1.7100   -0.8180 C   0  0  0  0  0  0  0  0  0  0  0  0
   -7.9910    1.5710    0.5200 F   0  0  0  0  0  0  0  0  0  0  0  0
   -6.9620    1.5670   -1.5820 C   0  0  0  0  0  0  0  0  0  0  0  0
   -5.6450    1.2480   -1.0860 N   0  0  0  0  0  0  0  0  0  0  0  0
   -5.3540    1.0760    0.3300 C   0  0  0  0  0  0  0  0  0  0  0  0
   -4.0260    0.6320    0.4480 O   0  0  0  0  0  0  0  0  0  0  0  0
   -3.4920   -0.5240   -0.0300 C   0  0  0  0  0  0  0  0  0  0  0  0
   -4.2080   -1.4750   -0.7070 C   0  0  0  0  0  0  0  0  0  0  0  0
   -3.6360   -2.6410   -1.1830 C   0  0  0  0  0  0  0  0  0  0  0  0
   -2.2840   -2.8870   -0.9810 C   0  0  0  0  0  0  0  0  0  0  0  0
   -1.5470   -1.9420   -0.3010 C   0  0  0  0  0  0  0  0  0  0  0  0
   -2.1200   -0.7860    0.1680 C   0  0  0  0  0  0  0  0  0  0  0  0
   -1.3510    0.1440    0.8460 O   0  0  0  0  0  0  0  0  0  0  0  0
   -0.0090   -0.0700    1.0570 C   0  0  0  0  0  0  0  0  0  0  0  0
    0.8980    0.3570    0.1020 C   0  0  0  0  0  0  0  0  0  0  0  0
    2.2490    0.1610    0.2830 C   0  0  0  0  0  0  0  0  0  0  0  0
    2.6570   -0.4730    1.4440 C   0  0  0  0  0  0  0  0  0  0  0  0
    4.0950   -0.6830    1.6670 C   0  0  0  0  0  0  0  0  0  0  0  0
    4.5670   -1.2730    2.7640 N   0  0  0  0  0  0  0  0  0  0  0  0
    5.8930   -1.4470    2.9500 C   0  0  0  0  0  0  0  0  0  0  0  0
    6.7310   -1.0090    1.9970 N   0  0  0  0  0  0  0  0  0  0  0  0
    6.3130   -0.4150    0.8870 C   0  0  0  0  0  0  0  0  0  0  0  0
    7.1650    0.0580   -0.1280 N   0  0  0  0  0  0  0  0  0  0  0  0
    8.5930   -0.0430   -0.0500 C   0  0  0  0  0  0  0  0  0  0  0  0
    9.1200    0.9160    0.9780 C   0  0  2  0  0  0  0  0  0  0  0  0
    8.7520    2.2090    0.5930 F   0  0  0  0  0  0  0  0  0  0  0  0
   10.5120    0.9020    0.9980 F   0  0  0  0  0  0  0  0  0  0  0  0
    8.6230    0.6810    2.2190 F   0  0  0  0  0  0  0  0  0  0  0  0
    4.9760   -0.2630    0.7460 N   0  0  0  0  0  0  0  0  0  0  0  0
    1.7600   -0.9080    2.4110 C   0  0  0  0  0  0  0  0  0  0  0  0
    0.4100   -0.7010    2.2090 C   0  0  0  0  0  0  0  0  0  0  0  0
   -4.7330    1.1640   -2.1720 C   0  0  0  0  0  0  0  0  0  0  0  0
   -5.4010    1.4070   -3.2800 C   0  0  0  0  0  0  0  0  0  0  0  0
   -6.8280    1.6790   -3.0410 C   0  0  2  0  0  0  0  0  0  0  0  0
   -7.1320    3.0010   -3.3940 F   0  0  0  0  0  0  0  0  0  0  0  0
   -7.6600    0.8010   -3.7080 F   0  0  0  0  0  0  0  0  0  0  0  0
  1  2  1  0
  2  3  1  0
  2  4  2  3
  4  5  1  0
  4 35  1  0
  5  6  1  0
  5 33  1  0
  6  7  1  0
  7  8  1  0
  8  9  2  0
  8 13  1  0
  9 10  1  0
 10 11  2  0
 11 12  1  0
 12 13  2  0
 13 14  1  0
 14 15  1  0
 15 16  2  0
 15 32  1  0
 16 17  1  0
 17 18  2  0
 18 19  1  0
 18 31  1  0
 19 20  2  0
 19 30  1  0
 20 21  1  0
 21 22  2  0
 22 23  1  0
 23 24  1  0
 23 30  2  0
 24 25  1  0
 25 26  1  0
 26 27  1  6
 26 28  1  0
 26 29  1  0
 31 32  2  0
 33 34  2  0
 34 35  1  0
 35 36  1  6
 35 37  1  0
M  END
