
     RDKit          3D

 37 40  0  0  0  0  0  0  0  0999 V2000
    4.5890   -0.8840    2.2010 N   0  0  0  0  0  0  0  0  0  0  0  0
    4.2890   -0.5360    1.1720 C   0  0  0  0  0  0  0  0  0  0  0  0
    3.8950   -0.0650   -0.1610 C   0  0  0  0  0  0  0  0  0  0  0  0
    2.6750   -0.1280   -0.6660 C   0  0  0  0  0  0  0  0  0  0  0  0
    1.5030   -0.6540   -0.0420 N   0  0  0  0  0  0  0  0  0  0  0  0
    0.4440    0.1820    0.4830 C   0  0  0  0  0  0  0  0  0  0  0  0
   -0.8990   -0.4200    0.2750 C   0  0  0  0  0  0  0  0  0  0  0  0
   -1.0800   -1.6030   -0.4250 C   0  0  0  0  0  0  0  0  0  0  0  0
   -2.2890   -2.1620   -0.6830 C   0  0  0  0  0  0  0  0  0  0  0  0
   -2.3920   -3.3410   -1.3820 O   0  0  0  0  0  0  0  0  0  0  0  0
   -3.5840   -4.0040   -1.7090 C   0  0  0  0  0  0  0  0  0  0  0  0
   -3.1760   -5.2650   -2.4760 C   0  0  2  0  0  0  0  0  0  0  0  0
   -2.3810   -5.9850   -1.5970 F   0  0  0  0  0  0  0  0  0  0  0  0
   -2.4100   -4.9320   -3.5790 F   0  0  0  0  0  0  0  0  0  0  0  0
   -4.2650   -5.9700   -2.9200 F   0  0  0  0  0  0  0  0  0  0  0  0
   -3.4420   -1.5560   -0.2430 C   0  0  0  0  0  0  0  0  0  0  0  0
   -3.3250   -0.3740    0.4620 C   0  0  0  0  0  0  0  0  0  0  0  0
   -4.4490    0.2150    0.8980 N   0  0  0  0  0  0  0  0  0  0  0  0
   -4.4130    1.3450    1.5880 C   0  0  0  0  0  0  0  0  0  0  0  0
   -3.2040    1.9000    1.8470 N   0  0  0  0  0  0  0  0  0  0  0  0
   -2.0430    1.3390    1.4250 C   0  0  0  0  0  0  0  0  0  0  0  0
   -0.9810    1.9020    1.6990 O   0  0  0  0  0  0  0  0  0  0  0  0
   -2.0700    0.1710    0.7100 C   0  0  0  0  0  0  0  0  0  0  0  0
   -3.4250    3.1160    2.6180 C   0  0  0  0  0  0  0  0  0  0  0  0
   -4.8450    3.5060    2.2760 C   0  0  0  0  0  0  0  0  0  0  0  0
   -5.5120    2.1550    2.1570 C   0  0  0  0  0  0  0  0  0  0  0  0
    2.7320    0.4460   -2.0270 C   0  0  0  0  0  0  0  0  0  0  0  0
    1.5600    0.5580   -2.9290 C   0  0  2  0  0  0  0  0  0  0  0  0
    0.6030    1.3860   -2.4190 F   0  0  0  0  0  0  0  0  0  0  0  0
    1.0010   -0.6980   -3.2040 F   0  0  0  0  0  0  0  0  0  0  0  0
    2.0070    1.0320   -4.1580 F   0  0  0  0  0  0  0  0  0  0  0  0
    3.9360    0.8140   -2.2750 N   0  0  0  0  0  0  0  0  0  0  0  0
    4.7920    0.5310   -1.1280 C   0  0  0  0  0  0  0  0  0  0  0  0
    6.0770    0.7880   -1.1190 C   0  0  0  0  0  0  0  0  0  0  0  0
    7.0400    0.5280   -0.0500 C   0  0  0  0  0  0  0  0  0  0  0  0
    7.6400    1.8950    0.3280 C   0  0  0  0  0  0  0  0  0  0  0  0
    8.2370    2.3820   -0.8340 F   0  0  0  0  0  0  0  0  0  0  0  0
  1  2  3  0
  2  3  1  0
  3  4  2  0
  3 33  1  0
  4  5  1  0
  4 27  1  0
  5  6  1  0
  6  7  1  0
  7  8  2  0
  7 23  1  0
  8  9  1  0
  9 10  1  0
  9 16  2  0
 10 11  1  0
 11 12  1  0
 12 13  1  1
 12 14  1  0
 12 15  1  0
 16 17  1  0
 17 18  1  0
 17 23  2  0
 18 19  2  0
 19 20  1  0
 19 26  1  0
 20 21  1  0
 20 24  1  0
 21 22  2  0
 21 23  1  0
 24 25  1  0
 25 26  1  0
 27 28  1  0
 27 32  2  0
 28 29  1  1
 28 30  1  0
 28 31  1  0
 32 33  1  0
 33 34  2  3
 34 35  1  0
 35 36  1  0
 36 37  1  0
M  END
