
     RDKit          3D

 36 39  0  0  0  0  0  0  0  0999 V2000
    6.5280    0.8180    4.0370 C   0  0  0  0  0  0  0  0  0  0  0  0
    5.7940    1.0910    2.8650 O   0  0  0  0  0  0  0  0  0  0  0  0
    5.7840    0.2110    1.7920 C   0  0  0  0  0  0  0  0  0  0  0  0
    6.5160   -0.9440    1.9000 C   0  0  0  0  0  0  0  0  0  0  0  0
    6.5240   -1.8310    0.8550 C   0  0  0  0  0  0  0  0  0  0  0  0
    5.8000   -1.5380   -0.2740 C   0  0  0  0  0  0  0  0  0  0  0  0
    5.0380   -0.3500   -0.4070 C   0  0  0  0  0  0  0  0  0  0  0  0
    4.3790   -0.1740   -1.6980 C   0  0  0  0  0  0  0  0  0  0  0  0
    2.9460   -0.3260   -1.6970 N   0  0  0  0  0  0  0  0  0  0  0  0
    2.3740   -1.5580   -1.6850 C   0  0  0  0  0  0  0  0  0  0  0  0
    3.1630   -2.5390   -1.6120 O   0  0  0  0  0  0  0  0  0  0  0  0
    1.0500   -1.7710   -1.7470 N   0  0  0  0  0  0  0  0  0  0  0  0
    0.2320   -0.7040   -1.8250 C   0  0  0  0  0  0  0  0  0  0  0  0
   -1.1520   -0.8870   -1.8900 C   0  0  0  0  0  0  0  0  0  0  0  0
   -2.0120    0.1940   -1.9700 C   0  0  0  0  0  0  0  0  0  0  0  0
   -3.4850    0.0480   -2.0410 C   0  0  0  0  0  0  0  0  0  0  0  0
   -4.0900    0.0090   -0.7240 N   0  0  0  0  0  0  0  0  0  0  0  0
   -3.6800   -1.0540    0.1650 C   0  0  0  0  0  0  0  0  0  0  0  0
   -4.6470   -1.2630    1.3010 C   0  0  2  0  0  0  0  0  0  0  0  0
   -4.6810   -2.6720    1.7960 C   0  0  0  0  0  0  0  0  0  0  0  0
   -6.0410   -0.8430    0.8380 C   0  0  0  0  0  0  0  0  0  0  0  0
   -6.0070    0.6640    0.7160 C   0  0  1  0  0  0  0  0  0  0  0  0
   -7.2600    1.1930    0.4900 F   0  0  0  0  0  0  0  0  0  0  0  0
   -5.4750    1.1580    1.9130 F   0  0  0  0  0  0  0  0  0  0  0  0
   -5.0470    0.9990   -0.3590 C   0  0  0  0  0  0  0  0  0  0  0  0
   -5.1090    2.1800   -0.9300 C   0  0  0  0  0  0  0  0  0  0  0  0
   -6.1020    3.0980   -0.4940 N   0  0  0  0  0  0  0  0  0  0  0  0
   -5.7690    4.0700    0.3830 F   0  0  0  0  0  0  0  0  0  0  0  0
   -1.4510    1.4490   -1.9840 C   0  0  0  0  0  0  0  0  0  0  0  0
   -0.0900    1.6640   -1.9210 C   0  0  0  0  0  0  0  0  0  0  0  0
    0.7500    0.5710   -1.8420 C   0  0  0  0  0  0  0  0  0  0  0  0
    2.1270    0.7300   -1.7770 C   0  0  0  0  0  0  0  0  0  0  0  0
    2.5980    1.9180   -1.8010 O   0  0  0  0  0  0  0  0  0  0  0  0
    5.0440    0.5110    0.6410 C   0  0  0  0  0  0  0  0  0  0  0  0
    4.3630    1.6990    0.6770 O   0  0  0  0  0  0  0  0  0  0  0  0
    3.0640    1.8180    1.2580 C   0  0  0  0  0  0  0  0  0  0  0  0
  1  2  1  0
  2  3  1  0
  3  4  2  0
  3 34  1  0
  4  5  1  0
  5  6  2  0
  6  7  1  0
  7  8  1  0
  7 34  2  0
  8  9  1  0
  9 10  1  0
  9 32  1  0
 10 11  2  0
 10 12  1  0
 12 13  1  0
 13 14  2  0
 13 31  1  0
 14 15  1  0
 15 16  1  0
 15 29  2  0
 16 17  1  0
 17 18  1  0
 17 25  1  0
 18 19  1  0
 19 20  1  6
 19 21  1  0
 21 22  1  0
 22 23  1  6
 22 24  1  0
 22 25  1  0
 25 26  2  3
 26 27  1  0
 27 28  1  0
 29 30  1  0
 30 31  2  0
 31 32  1  0
 32 33  2  0
 34 35  1  0
 35 36  1  0
M  END
