
     RDKit          3D

 32 35  0  0  0  0  0  0  0  0999 V2000
   -7.5440    3.0170   -0.2680 C   0  0  0  0  0  0  0  0  0  0  0  0
   -7.5160    1.6510    0.3810 C   0  0  0  0  0  0  0  0  0  0  0  0
   -6.4050    0.8620   -0.2200 C   0  0  0  0  0  0  0  0  0  0  0  0
   -5.1240    0.8710    0.2910 C   0  0  0  0  0  0  0  0  0  0  0  0
   -4.1340    0.1080   -0.3200 C   0  0  0  0  0  0  0  0  0  0  0  0
   -4.4310   -0.6490   -1.4250 C   0  0  0  0  0  0  0  0  0  0  0  0
   -3.3660   -1.4480   -2.0470 C   0  0  2  0  0  0  0  0  0  0  0  0
   -3.8800   -2.6780   -2.7780 C   0  0  0  0  0  0  0  0  0  0  0  0
   -4.3400   -3.5180   -1.6220 C   0  0  0  0  0  0  0  0  0  0  0  0
   -3.5910   -3.0060   -0.3850 C   0  0  0  0  0  0  0  0  0  0  0  0
   -2.6410   -2.1070   -0.9820 N   0  0  0  0  0  0  0  0  0  0  0  0
   -1.2970   -1.8980   -0.6260 C   0  0  0  0  0  0  0  0  0  0  0  0
   -0.5390   -1.0800   -1.2130 O   0  0  0  0  0  0  0  0  0  0  0  0
   -0.6950   -2.6760    0.5110 C   0  0  0  0  0  0  0  0  0  0  0  0
    0.6670   -2.3370    0.7300 N   0  0  0  0  0  0  0  0  0  0  0  0
    1.0880   -1.0070    1.0610 C   0  0  0  0  0  0  0  0  0  0  0  0
    0.2200   -0.1020    1.1610 O   0  0  0  0  0  0  0  0  0  0  0  0
    2.5400   -0.7720    1.2700 C   0  0  0  0  0  0  0  0  0  0  0  0
    2.7370    0.6770    1.6100 C   0  0  0  0  0  0  0  0  0  0  0  0
    4.1340    1.0490    1.8490 C   0  0  0  0  0  0  0  0  0  0  0  0
    4.6990    1.2700    3.0900 C   0  0  0  0  0  0  0  0  0  0  0  0
    5.9920    1.5890    2.9020 N   0  0  0  0  0  0  0  0  0  0  0  0
    6.2890    1.5820    1.5800 C   0  0  0  0  0  0  0  0  0  0  0  0
    7.4900    1.8500    0.9540 C   0  0  0  0  0  0  0  0  0  0  0  0
    8.7040    2.2060    1.7180 C   0  0  0  0  0  0  0  0  0  0  0  0
    7.5360    1.7750   -0.4260 C   0  0  0  0  0  0  0  0  0  0  0  0
    6.3770    1.4370   -1.1090 C   0  0  0  0  0  0  0  0  0  0  0  0
    6.4420    1.3600   -2.6010 C   0  0  0  0  0  0  0  0  0  0  0  0
    5.1860    1.1740   -0.4670 C   0  0  0  0  0  0  0  0  0  0  0  0
    5.1370    1.2480    0.9230 C   0  0  0  0  0  0  0  0  0  0  0  0
   -5.7120   -0.6440   -1.9180 C   0  0  0  0  0  0  0  0  0  0  0  0
   -6.7220    0.1050   -1.3340 C   0  0  0  0  0  0  0  0  0  0  0  0
  1  2  1  0
  2  3  1  0
  3  4  2  0
  3 32  1  0
  4  5  1  0
  5  6  2  0
  7  6  1  1
  6 31  1  0
  7  8  1  0
  7 11  1  0
  8  9  1  0
  9 10  1  0
 10 11  1  0
 11 12  1  0
 12 13  2  0
 12 14  1  0
 14 15  1  0
 15 16  1  0
 16 17  2  0
 16 18  1  0
 18 19  1  0
 19 20  1  0
 20 21  2  0
 20 30  1  0
 21 22  1  0
 22 23  1  0
 23 24  2  0
 23 30  1  0
 24 25  1  0
 24 26  1  0
 26 27  2  0
 27 28  1  0
 27 29  1  0
 29 30  2  0
 31 32  2  0
M  END
