
     RDKit          3D

 31 32  0  0  0  0  0  0  0  0999 V2000
   -3.5960   -1.6990    1.4300 C   0  0  0  0  0  0  0  0  0  0  0  0
   -2.7560   -0.6450    1.5080 O   0  0  0  0  0  0  0  0  0  0  0  0
   -1.7010   -0.5160    0.1950 S   0  0  0  0  0  0  0  0  0  0  0  0
   -2.2170   -0.9760   -1.2950 C   0  0  0  0  0  0  0  0  0  0  0  0
   -2.2240    0.8910    0.1280 N   0  0  0  0  0  0  0  0  0  0  0  0
   -3.4010    1.5950   -0.1130 C   0  0  0  0  0  0  0  0  0  0  0  0
   -3.7970    2.5960    0.6260 C   0  0  0  0  0  0  0  0  0  0  0  0
   -4.9890    3.0690    0.1230 O   0  0  0  0  0  0  0  0  0  0  0  0
   -5.5210    2.0490   -0.7290 C   0  0  0  0  0  0  0  0  0  0  0  0
   -4.3260    1.3980   -1.1110 O   0  0  0  0  0  0  0  0  0  0  0  0
   -1.0940   -1.8780    0.7080 C   0  0  0  0  0  0  0  0  0  0  0  0
    0.1260   -2.1210   -0.0570 N   0  0  0  0  0  0  0  0  0  0  0  0
    0.8960   -0.9570    0.3270 C   0  0  1  0  0  0  0  0  0  0  0  0
    1.5070   -1.2610    1.7250 C   0  0  0  0  0  0  0  0  0  0  0  0
    2.0400   -0.6390   -0.5290 C   0  0  0  0  0  0  0  0  0  0  0  0
    2.2480   -1.1970   -1.6850 C   0  0  0  0  0  0  0  0  0  0  0  0
    1.5600   -2.1670   -2.4460 C   0  0  0  0  0  0  0  0  0  0  0  0
    2.1690   -2.5470   -3.7490 N   0  0  0  0  0  0  0  0  0  0  0  0
    0.5200   -2.7950   -2.2610 O   0  0  0  0  0  0  0  0  0  0  0  0
    3.0400    0.3840   -0.1820 C   0  0  0  0  0  0  0  0  0  0  0  0
    4.0430    0.5670   -1.1740 O   0  0  0  0  0  0  0  0  0  0  0  0
    3.1580    1.1290    0.8500 C   0  0  0  0  0  0  0  0  0  0  0  0
    4.2860    2.0910    0.9370 C   0  0  0  0  0  0  0  0  0  0  0  0
    5.2190    2.1970   -0.0870 O   0  0  0  0  0  0  0  0  0  0  0  0
    4.4160    2.8650    2.0000 C   0  0  0  0  0  0  0  0  0  0  0  0
    3.5060    2.7940    3.0500 O   0  0  0  0  0  0  0  0  0  0  0  0
   -0.1400    0.1110    0.4340 C   0  0  2  0  0  0  0  0  0  0  0  0
    0.0060    0.7210    1.6650 F   0  0  0  0  0  0  0  0  0  0  0  0
    0.1860    1.0710   -0.5970 N   0  0  0  0  0  0  0  0  0  0  0  0
    0.1460    0.6070   -1.8370 F   0  0  0  0  0  0  0  0  0  0  0  0
   -0.4760    2.2330   -0.4410 F   0  0  0  0  0  0  0  0  0  0  0  0
  1  2  1  0
  2  3  1  0
  3  4  1  0
  3  5  2  3
  3 11  1  0
  3 27  1  0
  5  6  1  0
  6  7  2  0
  6 10  1  0
  7  8  1  0
  8  9  1  0
  9 10  1  0
 11 12  1  0
 12 13  1  0
 13 14  1  1
 13 15  1  0
 13 27  1  0
 15 16  2  3
 15 20  1  0
 16 17  1  0
 17 18  1  0
 17 19  2  0
 20 21  1  0
 20 22  2  3
 22 23  1  0
 23 24  1  0
 23 25  2  3
 25 26  1  0
 27 28  1  1
 27 29  1  0
 29 30  1  0
 29 31  1  0
M  END
