
     RDKit          3D

 33 34  0  0  0  0  0  0  0  0999 V2000
    5.5390    0.4810    0.0780 C   0  0  0  0  0  0  0  0  0  0  0  0
    4.9050   -0.6010   -0.1150 N   0  0  0  0  0  0  0  0  0  0  0  0
    3.6570   -0.8000    0.5890 C   0  0  0  0  0  0  0  0  0  0  0  0
    2.7300   -1.3140   -0.3720 N   0  0  0  0  0  0  0  0  0  0  0  0
    1.4600   -1.5600   -0.1610 C   0  0  0  0  0  0  0  0  0  0  0  0
    0.8130   -2.0540   -1.2830 O   0  0  0  0  0  0  0  0  0  0  0  0
    1.1490   -1.6590   -2.5700 C   0  0  0  0  0  0  0  0  0  0  0  0
    1.0270   -2.4920   -3.5790 C   0  0  0  0  0  0  0  0  0  0  0  0
    0.5290   -3.8630   -3.3520 C   0  0  0  0  0  0  0  0  0  0  0  0
    1.4670   -4.8020   -3.7430 F   0  0  0  0  0  0  0  0  0  0  0  0
    0.8710   -1.3170    1.1310 C   0  0  0  0  0  0  0  0  0  0  0  0
    1.6630   -0.8530    2.0780 O   0  0  0  0  0  0  0  0  0  0  0  0
   -0.5230   -1.5380    1.4860 C   0  0  0  0  0  0  0  0  0  0  0  0
   -1.5010   -1.7900    0.4140 C   0  0  1  0  0  0  0  0  0  0  0  0
   -1.2180   -2.8980   -0.3350 F   0  0  0  0  0  0  0  0  0  0  0  0
   -2.7160   -2.1990    1.0970 F   0  0  0  0  0  0  0  0  0  0  0  0
   -1.8550   -0.6250   -0.4490 C   0  0  1  0  0  0  0  0  0  0  0  0
   -2.8210   -1.1040   -1.4390 N   0  0  0  0  0  0  0  0  0  0  0  0
   -3.0930   -2.4620   -1.5560 S   0  0  0  0  0  0  0  0  0  0  0  0
   -2.4540    0.4120    0.2870 O   0  0  0  0  0  0  0  0  0  0  0  0
   -1.8440    1.6050   -0.0580 C   0  0  1  0  0  0  0  0  0  0  0  0
   -2.0470    1.7660   -1.4300 O   0  0  0  0  0  0  0  0  0  0  0  0
   -1.5020    2.8960   -1.9000 N   0  0  0  0  0  0  0  0  0  0  0  0
   -2.4930    2.6230    0.6740 O   0  0  0  0  0  0  0  0  0  0  0  0
   -2.1460    2.8250    1.9960 C   0  0  0  0  0  0  0  0  0  0  0  0
   -0.9210    2.4600    2.4970 C   0  0  0  0  0  0  0  0  0  0  0  0
   -0.8720    2.7910    3.8540 C   0  0  0  0  0  0  0  0  0  0  0  0
   -2.0350    3.3300    4.1180 O   0  0  0  0  0  0  0  0  0  0  0  0
   -2.8210    3.3810    3.0900 C   0  0  0  0  0  0  0  0  0  0  0  0
   -4.1240    3.8840    2.9950 O   0  0  0  0  0  0  0  0  0  0  0  0
   -0.0110    1.8670    1.6320 O   0  0  0  0  0  0  0  0  0  0  0  0
   -0.4050    1.6780    0.2900 C   0  0  0  0  0  0  0  0  0  0  0  0
    0.4530    1.5680   -0.6220 O   0  0  0  0  0  0  0  0  0  0  0  0
  1  2  2  0
  2  3  1  0
  3  4  1  0
  4  5  2  3
  5  6  1  0
  5 11  1  0
  6  7  1  0
  7  8  2  3
  8  9  1  0
  9 10  1  0
 11 12  2  0
 11 13  1  0
 13 14  1  0
 14 15  1  6
 14 16  1  0
 14 17  1  0
 17 18  1  0
 17 20  1  1
 18 19  2  0
 21 20  1  1
 21 22  1  0
 21 24  1  0
 21 32  1  0
 22 23  1  0
 24 25  1  0
 25 26  1  0
 25 29  2  0
 26 27  2  0
 26 31  1  0
 27 28  1  0
 28 29  1  0
 29 30  1  0
 31 32  1  0
 32 33  2  0
M  END
