
     RDKit          3D

 32 35  0  0  0  0  0  0  0  0999 V2000
    9.3400    0.8910    0.8850 C   0  0  0  0  0  0  0  0  0  0  0  0
    7.9540    0.3780    0.8440 C   0  0  0  0  0  0  0  0  0  0  0  0
    6.9200    1.1700    1.3180 C   0  0  0  0  0  0  0  0  0  0  0  0
    5.6210    0.7410    1.2760 C   0  0  0  0  0  0  0  0  0  0  0  0
    5.3030   -0.4890    0.7620 C   0  0  0  0  0  0  0  0  0  0  0  0
    3.9520   -1.0080    0.6060 C   0  0  0  0  0  0  0  0  0  0  0  0
    3.0820   -0.4300   -0.1840 C   0  0  0  0  0  0  0  0  0  0  0  0
    1.7040   -1.0130   -0.3010 C   0  0  0  0  0  0  0  0  0  0  0  0
    0.8070   -0.5100   -1.1180 C   0  0  0  0  0  0  0  0  0  0  0  0
   -0.4440   -1.0660   -1.2340 N   0  0  0  0  0  0  0  0  0  0  0  0
   -1.5750   -1.4640   -0.5650 C   0  0  0  0  0  0  0  0  0  0  0  0
   -2.6050   -0.6630    0.0640 C   0  0  2  0  0  0  0  0  0  0  0  0
   -3.6910   -1.6280    0.5110 C   0  0  0  0  0  0  0  0  0  0  0  0
   -3.6780   -2.3770    1.6330 C   0  0  0  0  0  0  0  0  0  0  0  0
   -4.7510   -3.2120    1.9840 C   0  0  0  0  0  0  0  0  0  0  0  0
   -5.8520   -3.2830    1.1830 C   0  0  0  0  0  0  0  0  0  0  0  0
   -5.8630   -2.5080    0.0370 C   0  0  0  0  0  0  0  0  0  0  0  0
   -4.8340   -1.7030   -0.3080 C   0  0  0  0  0  0  0  0  0  0  0  0
   -4.8320   -0.9380   -1.5730 C   0  0  0  0  0  0  0  0  0  0  0  0
   -3.1250    0.5590   -0.2050 N   0  0  0  0  0  0  0  0  0  0  0  0
   -3.2260    1.3750    1.0510 C   0  0  0  0  0  0  0  0  0  0  0  0
   -4.2220    2.4620    0.9550 C   0  0  0  0  0  0  0  0  0  0  0  0
   -3.8000    3.4110   -0.1380 C   0  0  0  0  0  0  0  0  0  0  0  0
   -3.4420    2.6360   -1.3610 C   0  0  0  0  0  0  0  0  0  0  0  0
   -2.4980    1.4750   -1.1100 C   0  0  0  0  0  0  0  0  0  0  0  0
    1.1660    0.6470   -1.9250 C   0  0  0  0  0  0  0  0  0  0  0  0
    0.3150    1.1650   -2.7330 O   0  0  0  0  0  0  0  0  0  0  0  0
    2.4360    1.2550   -1.8730 N   0  0  0  0  0  0  0  0  0  0  0  0
    3.4360    0.7180   -0.9870 C   0  0  0  0  0  0  0  0  0  0  0  0
    4.5790    1.2860   -0.9660 O   0  0  0  0  0  0  0  0  0  0  0  0
    6.3370   -1.2900    0.2880 C   0  0  0  0  0  0  0  0  0  0  0  0
    7.6200   -0.8520    0.3340 C   0  0  0  0  0  0  0  0  0  0  0  0
  1  2  1  0
  2  3  2  0
  2 32  1  0
  3  4  1  0
  4  5  2  0
  5  6  1  0
  5 31  1  0
  6  7  2  3
  7  8  1  0
  7 29  1  0
  8  9  2  0
  9 10  1  0
  9 26  1  0
 10 11  1  0
 12 11  1  6
 12 13  1  0
 12 20  1  0
 13 14  2  0
 13 18  1  0
 14 15  1  0
 15 16  2  0
 16 17  1  0
 17 18  2  0
 18 19  1  0
 20 21  1  0
 20 25  1  0
 21 22  1  0
 22 23  1  0
 23 24  1  0
 24 25  1  0
 26 27  2  0
 26 28  1  0
 28 29  1  0
 29 30  2  0
 31 32  2  0
M  END
