
     RDKit          3D

 33 34  0  0  0  0  0  0  0  0999 V2000
    1.2920    2.6560   -1.7930 C   0  0  0  0  0  0  0  0  0  0  0  0
    0.9230    2.3580   -0.5410 O   0  0  0  0  0  0  0  0  0  0  0  0
    0.9710    1.0960   -0.0980 N   0  0  0  0  0  0  0  0  0  0  0  0
    0.1180    0.2610   -0.5670 N   0  0  0  0  0  0  0  0  0  0  0  0
   -1.5240    0.2700   -0.6080 S   0  0  0  0  0  0  0  0  0  0  0  0
   -1.3380    2.5810   -0.5890 F   0  0  0  0  0  0  0  0  0  0  0  0
   -2.6710    1.8650   -1.8160 F   0  0  0  0  0  0  0  0  0  0  0  0
   -1.1750    0.3310   -2.5910 S   0  0  0  0  0  0  0  0  0  0  0  0
   -1.5590   -0.8480   -3.4620 F   0  0  0  0  0  0  0  0  0  0  0  0
   -2.9160   -0.4760   -0.5410 N   0  0  0  0  0  0  0  0  0  0  0  0
   -4.0760   -0.6420   -0.3260 C   0  0  0  0  0  0  0  0  0  0  0  0
   -4.9760   -1.7550   -0.4990 N   0  0  0  0  0  0  0  0  0  0  0  0
   -4.5710    0.6780    0.2570 C   0  0  0  0  0  0  0  0  0  0  0  0
   -3.4770    1.0090    1.1840 C   0  0  0  0  0  0  0  0  0  0  0  0
   -3.7120    1.7870    2.0620 O   0  0  0  0  0  0  0  0  0  0  0  0
   -2.1360    0.3230    0.9340 C   0  0  2  0  0  0  0  0  0  0  0  0
   -1.3200    0.8760    2.0710 C   0  0  0  0  0  0  0  0  0  0  0  0
   -2.4750   -1.0970    1.4220 C   0  0  0  0  0  0  0  0  0  0  0  0
    0.5980   -1.0440   -0.2780 C   0  0  1  0  0  0  0  0  0  0  0  0
    0.3050   -1.4400    0.9950 O   0  0  0  0  0  0  0  0  0  0  0  0
    0.6470   -2.5990    1.5310 C   0  0  0  0  0  0  0  0  0  0  0  0
    0.2510   -2.1040   -1.1990 C   0  0  0  0  0  0  0  0  0  0  0  0
    0.6310   -2.1360   -2.4160 O   0  0  0  0  0  0  0  0  0  0  0  0
   -0.5280   -3.1790   -0.8500 O   0  0  0  0  0  0  0  0  0  0  0  0
    2.1210   -0.8010   -0.2880 C   0  0  1  0  0  0  0  0  0  0  0  0
    2.7790   -1.2010   -1.5300 C   0  0  0  0  0  0  0  0  0  0  0  0
    4.1830   -1.0220   -1.5630 O   0  0  0  0  0  0  0  0  0  0  0  0
    2.2280    0.5800    0.2270 C   0  0  1  0  0  0  0  0  0  0  0  0
    3.3540    1.3970   -0.2540 C   0  0  0  0  0  0  0  0  0  0  0  0
    3.5280    2.6370    0.1240 C   0  0  0  0  0  0  0  0  0  0  0  0
    2.7710    3.3970    0.9780 O   0  0  0  0  0  0  0  0  0  0  0  0
    2.4790    0.5220    1.7640 C   0  0  0  0  0  0  0  0  0  0  0  0
    3.7530   -0.0100    2.0070 O   0  0  0  0  0  0  0  0  0  0  0  0
  1  2  1  0
  2  3  1  0
  3  4  1  0
  3 28  1  0
  4  5  1  0
  4 19  1  0
  5  6  1  0
  5  7  1  0
  5  8  1  0
  5 10  1  0
  5 16  1  0
  8  9  1  0
 10 11  2  0
 11 12  1  0
 11 13  1  0
 13 14  1  0
 14 15  2  0
 14 16  1  0
 16 17  1  1
 16 18  1  0
 19 20  1  1
 19 22  1  0
 19 25  1  0
 20 21  1  0
 22 23  2  0
 22 24  1  0
 25 26  1  6
 25 28  1  0
 26 27  1  0
 28 29  1  0
 28 32  1  1
 29 30  2  3
 30 31  1  0
 32 33  1  0
M  END
