
     RDKit          3D

 32 35  0  0  0  0  0  0  0  0999 V2000
   10.4850   -0.7040   -1.4860 C   0  0  0  0  0  0  0  0  0  0  0  0
    9.0030   -0.7510   -1.2490 C   0  0  0  0  0  0  0  0  0  0  0  0
    8.7080    0.0920   -0.0070 C   0  0  0  0  0  0  0  0  0  0  0  0
    7.2530    0.0410    0.2190 C   0  0  0  0  0  0  0  0  0  0  0  0
    6.4430    0.9730   -0.3640 C   0  0  0  0  0  0  0  0  0  0  0  0
    5.0590    0.9240   -0.1490 C   0  0  0  0  0  0  0  0  0  0  0  0
    4.4600   -0.0360    0.6370 C   0  0  0  0  0  0  0  0  0  0  0  0
    3.1850   -0.3200    1.0100 C   0  0  0  0  0  0  0  0  0  0  0  0
    1.9460    0.3440    0.6790 C   0  0  0  0  0  0  0  0  0  0  0  0
    1.6810    1.3680   -0.0450 C   0  0  0  0  0  0  0  0  0  0  0  0
    0.2980    1.8650   -0.2340 C   0  0  0  0  0  0  0  0  0  0  0  0
    0.1520    2.9000   -0.9810 O   0  0  0  0  0  0  0  0  0  0  0  0
   -0.8550    1.3090    0.3250 N   0  0  0  0  0  0  0  0  0  0  0  0
   -2.1800    1.7730    0.1590 C   0  0  0  0  0  0  0  0  0  0  0  0
   -2.5340    2.9700   -0.3600 C   0  0  0  0  0  0  0  0  0  0  0  0
   -3.8830    3.3350   -0.5030 C   0  0  0  0  0  0  0  0  0  0  0  0
   -4.9060    2.4940   -0.1230 C   0  0  0  0  0  0  0  0  0  0  0  0
   -4.5590    1.2650    0.4110 C   0  0  0  0  0  0  0  0  0  0  0  0
   -5.5840    0.2820    0.8530 C   0  0  0  0  0  0  0  0  0  0  0  0
   -5.8410   -0.6230   -0.2190 N   0  0  0  0  0  0  0  0  0  0  0  0
   -6.3360   -0.0360   -1.4230 C   0  0  0  0  0  0  0  0  0  0  0  0
   -7.7750    0.3960   -1.2260 C   0  0  0  0  0  0  0  0  0  0  0  0
   -8.3710   -0.2540   -0.1710 O   0  0  0  0  0  0  0  0  0  0  0  0
   -8.0290   -1.5920   -0.0750 C   0  0  1  0  0  0  0  0  0  0  0  0
   -8.4590   -2.3910   -1.2790 C   0  0  0  0  0  0  0  0  0  0  0  0
   -6.5520   -1.8090    0.1600 C   0  0  0  0  0  0  0  0  0  0  0  0
   -3.2420    0.9300    0.5410 C   0  0  0  0  0  0  0  0  0  0  0  0
    3.2590   -1.4550    1.8380 C   0  0  0  0  0  0  0  0  0  0  0  0
    2.1570   -2.1800    2.5140 C   0  0  0  0  0  0  0  0  0  0  0  0
    4.5390   -1.8200    1.9420 N   0  0  0  0  0  0  0  0  0  0  0  0
    5.3110   -0.9840    1.2260 C   0  0  0  0  0  0  0  0  0  0  0  0
    6.6720   -0.9230    1.0050 C   0  0  0  0  0  0  0  0  0  0  0  0
  1  2  1  0
  2  3  1  0
  3  4  1  0
  4  5  2  0
  4 32  1  0
  5  6  1  0
  6  7  2  0
  7  8  1  0
  7 31  1  0
  8  9  1  0
  8 28  2  0
  9 10  2  3
 10 11  1  0
 11 12  2  0
 11 13  1  0
 13 14  1  0
 14 15  2  0
 14 27  1  0
 15 16  1  0
 16 17  2  0
 17 18  1  0
 18 19  1  0
 18 27  2  0
 19 20  1  0
 20 21  1  0
 20 26  1  0
 21 22  1  0
 22 23  1  0
 23 24  1  0
 24 25  1  6
 24 26  1  0
 28 29  1  0
 28 30  1  0
 30 31  1  0
 31 32  2  0
M  END
