
     RDKit          3D

 29 32  0  0  0  0  0  0  0  0999 V2000
    8.5750    1.2900   -0.2620 C   0  0  0  0  0  0  0  0  0  0  0  0
    7.3310    1.5470    0.0570 C   0  0  0  0  0  0  0  0  0  0  0  0
    6.1140    0.7880   -0.2190 C   0  0  0  0  0  0  0  0  0  0  0  0
    5.0490    1.4930    0.0950 C   0  0  0  0  0  0  0  0  0  0  0  0
    3.6330    1.0640   -0.0420 C   0  0  0  0  0  0  0  0  0  0  0  0
    2.7360    1.8370    0.2960 O   0  0  0  0  0  0  0  0  0  0  0  0
    3.3350   -0.2260   -0.5580 N   0  0  0  0  0  0  0  0  0  0  0  0
    2.0660   -0.7910   -0.7540 C   0  0  0  0  0  0  0  0  0  0  0  0
    0.8810   -0.1720   -0.4600 C   0  0  0  0  0  0  0  0  0  0  0  0
   -0.3590   -0.7010   -0.6400 N   0  0  0  0  0  0  0  0  0  0  0  0
   -1.4840    0.0800   -0.2780 C   0  0  0  0  0  0  0  0  0  0  0  0
   -2.7380   -0.2340   -0.3690 C   0  0  0  0  0  0  0  0  0  0  0  0
   -3.8270    0.7150    0.0610 C   0  0  0  0  0  0  0  0  0  0  0  0
   -4.6430    0.1140    1.1320 N   0  0  1  0  0  0  0  0  0  0  0  0
   -4.1640    0.6090    2.3640 C   0  0  0  0  0  0  0  0  0  0  0  0
   -5.1640    1.3830    3.1840 C   0  0  0  0  0  0  0  0  0  0  0  0
   -5.8240    2.3640    2.2230 C   0  0  0  0  0  0  0  0  0  0  0  0
   -6.6760    1.5450    1.3080 C   0  0  0  0  0  0  0  0  0  0  0  0
   -6.0010    0.3440    0.7960 C   0  0  0  0  0  0  0  0  0  0  0  0
   -0.4420   -1.9220   -1.1440 C   0  0  0  0  0  0  0  0  0  0  0  0
   -1.5390   -2.4820   -1.3410 O   0  0  0  0  0  0  0  0  0  0  0  0
    0.7150   -2.6030   -1.4630 C   0  0  0  0  0  0  0  0  0  0  0  0
    0.5640   -3.8670   -1.9810 C   0  0  0  0  0  0  0  0  0  0  0  0
    1.6710   -4.6190   -2.3280 C   0  0  0  0  0  0  0  0  0  0  0  0
    2.9120   -4.0930   -2.1490 C   0  0  0  0  0  0  0  0  0  0  0  0
    3.1060   -2.8190   -1.6280 C   0  0  0  0  0  0  0  0  0  0  0  0
    1.9940   -2.0860   -1.2890 C   0  0  0  0  0  0  0  0  0  0  0  0
    5.4750    2.7150    0.5800 O   0  0  0  0  0  0  0  0  0  0  0  0
    6.8710    2.7370    0.8110 C   0  0  0  0  0  0  0  0  0  0  0  0
  1  2  2  0
  2  3  1  0
  2 29  1  0
  3  4  2  0
  4  5  1  0
  4 28  1  0
  5  6  2  0
  5  7  1  0
  7  8  1  0
  8  9  2  0
  8 27  1  0
  9 10  1  0
 10 11  1  0
 10 20  1  0
 11 12  2  3
 12 13  1  0
 14 13  1  6
 14 15  1  0
 14 19  1  0
 15 16  1  0
 16 17  1  0
 17 18  1  0
 18 19  1  0
 20 21  2  0
 20 22  1  0
 22 23  2  0
 22 27  1  0
 23 24  1  0
 24 25  2  0
 25 26  1  0
 26 27  2  0
 28 29  1  0
M  CHG  1  14   1
M  END
