
     RDKit          3D

 29 31  0  0  0  0  0  0  0  0999 V2000
    9.0670    1.1130   -0.9090 C   0  0  0  0  0  0  0  0  0  0  0  0
    8.6770    0.4010    0.3810 C   0  0  0  0  0  0  0  0  0  0  0  0
    7.4480   -0.3250    0.1190 N   0  0  0  0  0  0  0  0  0  0  0  0
    7.2630   -1.6510   -0.3520 C   0  0  0  0  0  0  0  0  0  0  0  0
    8.1970   -2.4570   -0.6330 O   0  0  0  0  0  0  0  0  0  0  0  0
    5.8350   -1.9110   -0.4500 C   0  0  0  0  0  0  0  0  0  0  0  0
    5.1530   -0.8310   -0.0700 C   0  0  0  0  0  0  0  0  0  0  0  0
    3.6660   -0.7700   -0.0550 C   0  0  0  0  0  0  0  0  0  0  0  0
    3.0260    0.2950    0.3190 C   0  0  0  0  0  0  0  0  0  0  0  0
    1.6570    0.5620    0.4010 C   0  0  0  0  0  0  0  0  0  0  0  0
    1.4680    1.7810    0.9470 O   0  0  0  0  0  0  0  0  0  0  0  0
    0.4220   -0.0820    0.0790 C   0  0  0  0  0  0  0  0  0  0  0  0
    0.0990   -1.1850   -0.6540 C   0  0  0  0  0  0  0  0  0  0  0  0
    0.9380   -2.0020   -1.5430 C   0  0  0  0  0  0  0  0  0  0  0  0
   -1.2240   -1.4500   -0.5470 N   0  0  0  0  0  0  0  0  0  0  0  0
   -1.8220   -0.5470    0.2450 C   0  0  0  0  0  0  0  0  0  0  0  0
   -3.2590   -0.5420    0.5840 C   0  0  0  0  0  0  0  0  0  0  0  0
   -3.8690   -1.6550    0.4620 O   0  0  0  0  0  0  0  0  0  0  0  0
   -4.0070    0.5420    1.0110 N   0  0  0  0  0  0  0  0  0  0  0  0
   -5.4220    0.4010    1.3210 C   0  0  1  0  0  0  0  0  0  0  0  0
   -5.7360    0.7290    2.7400 C   0  0  0  0  0  0  0  0  0  0  0  0
   -6.1700    1.3060    0.3990 C   0  0  1  0  0  0  0  0  0  0  0  0
   -5.9970    1.0280   -1.0650 C   0  0  0  0  0  0  0  0  0  0  0  0
   -7.3320    0.8450   -0.3850 C   0  0  1  0  0  0  0  0  0  0  0  0
   -7.7950   -0.5890   -0.3290 C   0  0  0  0  0  0  0  0  0  0  0  0
   -0.8180    0.3040    0.6430 C   0  0  0  0  0  0  0  0  0  0  0  0
   -1.0530    1.4200    1.6160 C   0  0  0  0  0  0  0  0  0  0  0  0
    6.0980    0.1810    0.2920 C   0  0  0  0  0  0  0  0  0  0  0  0
    5.8910    1.3440    0.7030 O   0  0  0  0  0  0  0  0  0  0  0  0
  1  2  1  0
  2  3  1  0
  3  4  1  0
  3 28  1  0
  4  5  2  0
  4  6  1  0
  6  7  2  0
  7  8  1  0
  7 28  1  0
  8  9  2  3
  9 10  1  0
 10 11  2  0
 10 12  1  0
 12 13  2  0
 12 26  1  0
 13 14  1  0
 13 15  1  0
 15 16  1  0
 16 17  1  0
 16 26  2  0
 17 18  2  0
 17 19  1  0
 19 20  1  0
 20 21  1  1
 20 22  1  0
 22 23  1  6
 22 24  1  0
 23 24  1  0
 24 25  1  1
 26 27  1  0
 28 29  2  0
M  END
