
     RDKit          3D

 29 31  0  0  0  0  0  0  0  0999 V2000
    7.8020    4.7350    0.6050 C   0  0  0  0  0  0  0  0  0  0  0  0
    6.8710    3.9770    0.6940 C   0  0  0  0  0  0  0  0  0  0  0  0
    5.7770    3.0680    0.8130 C   0  0  0  0  0  0  0  0  0  0  0  0
    4.7140    3.0510   -0.0760 C   0  0  0  0  0  0  0  0  0  0  0  0
    3.6900    2.1510    0.0870 C   0  0  0  0  0  0  0  0  0  0  0  0
    3.6650    1.2310    1.1280 C   0  0  0  0  0  0  0  0  0  0  0  0
    2.6070    0.3210    1.2690 N   0  0  0  0  0  0  0  0  0  0  0  0
    1.2400    0.5310    0.8280 C   0  0  0  0  0  0  0  0  0  0  0  0
    0.6640   -0.8560    0.6570 C   0  0  2  0  0  0  0  0  0  0  0  0
   -0.6240   -0.8350    0.0860 O   0  0  0  0  0  0  0  0  0  0  0  0
   -0.9420   -1.5120   -1.0720 C   0  0  0  0  0  0  0  0  0  0  0  0
    0.0770   -2.1610   -1.5580 O   0  0  0  0  0  0  0  0  0  0  0  0
   -2.1790   -1.5670   -1.7260 N   0  0  0  0  0  0  0  0  0  0  0  0
   -2.2160   -2.4830   -2.9220 C   0  0  0  0  0  0  0  0  0  0  0  0
   -3.1000   -3.6220   -2.3990 C   0  0  0  0  0  0  0  0  0  0  0  0
   -4.3460   -3.1990   -1.7250 C   0  0  0  0  0  0  0  0  0  0  0  0
   -4.2350   -2.0540   -0.7390 C   0  0  0  0  0  0  0  0  0  0  0  0
   -3.4320   -0.9730   -1.4810 C   0  0  1  0  0  0  0  0  0  0  0  0
   -3.6550    0.3940   -1.0730 C   0  0  0  0  0  0  0  0  0  0  0  0
   -3.1120    0.9900    0.1550 C   0  0  0  0  0  0  0  0  0  0  0  0
   -3.6580    2.4010    0.2690 C   0  0  0  0  0  0  0  0  0  0  0  0
   -3.1750    3.2590    1.2820 N   0  0  0  0  0  0  0  0  0  0  0  0
   -4.5260    2.7470   -0.5560 O   0  0  0  0  0  0  0  0  0  0  0  0
    0.4900   -1.4460    2.0410 C   0  0  0  0  0  0  0  0  0  0  0  0
    1.8260   -1.6880    2.6460 C   0  0  0  0  0  0  0  0  0  0  0  0
    2.8610   -0.9400    1.9000 C   0  0  0  0  0  0  0  0  0  0  0  0
    4.0150   -1.4630    1.8340 O   0  0  0  0  0  0  0  0  0  0  0  0
    4.7390    1.2770    1.9940 C   0  0  0  0  0  0  0  0  0  0  0  0
    5.7760    2.1680    1.8530 C   0  0  0  0  0  0  0  0  0  0  0  0
  1  2  3  0
  2  3  1  0
  3  4  2  0
  3 29  1  0
  4  5  1  0
  5  6  2  0
  6  7  1  0
  6 28  1  0
  7  8  1  0
  7 26  1  0
  8  9  1  0
  9 10  1  1
  9 24  1  0
 10 11  1  0
 11 12  2  0
 11 13  1  0
 13 14  1  0
 13 18  1  0
 14 15  1  0
 15 16  1  0
 16 17  1  0
 17 18  1  0
 18 19  1  1
 19 20  1  0
 20 21  1  0
 21 22  1  0
 21 23  2  0
 24 25  1  0
 25 26  1  0
 26 27  2  0
 28 29  2  0
M  END
