
     RDKit          3D

 29 32  0  0  0  0  0  0  0  0999 V2000
   -8.0180   -1.5680    1.0090 C   0  0  0  0  0  0  0  0  0  0  0  0
   -7.2850   -0.3260    0.7330 C   0  0  0  0  0  0  0  0  0  0  0  0
   -6.0320   -0.3740    0.1820 C   0  0  0  0  0  0  0  0  0  0  0  0
   -5.3820    0.8170   -0.0590 C   0  0  0  0  0  0  0  0  0  0  0  0
   -4.0080    0.8370   -0.6590 C   0  0  0  0  0  0  0  0  0  0  0  0
   -3.0240    0.8040    0.4640 C   0  0  0  0  0  0  0  0  0  0  0  0
   -1.6830    0.8010    0.1190 O   0  0  0  0  0  0  0  0  0  0  0  0
   -1.0060   -0.1800   -0.5660 C   0  0  0  0  0  0  0  0  0  0  0  0
   -1.5760   -1.3610   -0.9880 C   0  0  0  0  0  0  0  0  0  0  0  0
   -0.8050   -2.2940   -1.6830 C   0  0  0  0  0  0  0  0  0  0  0  0
    0.5170   -2.0390   -1.9460 C   0  0  0  0  0  0  0  0  0  0  0  0
    1.1160   -0.8680   -1.5370 C   0  0  0  0  0  0  0  0  0  0  0  0
    0.3640    0.0550   -0.8520 C   0  0  0  0  0  0  0  0  0  0  0  0
    0.8670    1.2690   -0.3890 O   0  0  0  0  0  0  0  0  0  0  0  0
    2.2240    1.5670   -0.5970 C   0  0  0  0  0  0  0  0  0  0  0  0
    3.1250    0.6200    0.1010 C   0  0  0  0  0  0  0  0  0  0  0  0
    2.6160   -0.2590    0.8370 O   0  0  0  0  0  0  0  0  0  0  0  0
    4.5290    0.7360   -0.0830 N   0  0  0  0  0  0  0  0  0  0  0  0
    5.0840    1.7500   -0.9280 C   0  0  0  0  0  0  0  0  0  0  0  0
    6.5230    2.0520   -0.7230 C   0  0  0  0  0  0  0  0  0  0  0  0
    7.1300    1.5080    0.4460 N   0  0  0  0  0  0  0  0  0  0  0  0
    6.7460    0.2140    0.8860 C   0  0  0  0  0  0  0  0  0  0  0  0
    7.4090   -0.7520    1.5340 C   0  0  0  0  0  0  0  0  0  0  0  0
    6.4720   -1.8870    1.7180 C   0  0  0  0  0  0  0  0  0  0  0  0
    5.2130   -1.4160    1.0910 C   0  0  0  0  0  0  0  0  0  0  0  0
    5.3770   -0.2010    0.6120 C   0  0  0  0  0  0  0  0  0  0  0  0
   -5.9940    2.0110    0.2530 C   0  0  0  0  0  0  0  0  0  0  0  0
   -7.2720    2.0200    0.8150 C   0  0  0  0  0  0  0  0  0  0  0  0
   -7.8770    0.8510    1.0370 N   0  0  0  0  0  0  0  0  0  0  0  0
  1  2  1  0
  2  3  2  0
  2 29  1  0
  3  4  1  0
  4  5  1  0
  4 27  2  0
  5  6  1  0
  6  7  1  0
  7  8  1  0
  8  9  2  0
  8 13  1  0
  9 10  1  0
 10 11  2  0
 11 12  1  0
 12 13  2  0
 13 14  1  0
 14 15  1  0
 15 16  1  0
 16 17  2  0
 16 18  1  0
 18 19  1  0
 18 26  1  0
 19 20  1  0
 20 21  1  0
 21 22  1  0
 22 23  2  0
 22 26  1  0
 23 24  1  0
 24 25  1  0
 25 26  2  0
 27 28  1  0
 28 29  2  0
M  CHG  1  29   1
M  END
