
     RDKit          3D

 29 31  0  0  0  0  0  0  0  0999 V2000
   -4.5230    2.6170    0.2620 C   0  0  0  0  0  0  0  0  0  0  0  0
   -5.1410    1.2440    0.4500 C   0  0  0  0  0  0  0  0  0  0  0  0
   -4.9980    0.3680   -0.7750 C   0  0  2  0  0  0  0  0  0  0  0  0
   -5.6700    0.9800   -1.9820 C   0  0  0  0  0  0  0  0  0  0  0  0
   -5.6800   -0.9420   -0.4820 C   0  0  0  0  0  0  0  0  0  0  0  0
   -4.9560   -1.8620    0.4290 C   0  0  2  0  0  0  0  0  0  0  0  0
   -5.4340   -1.7710    1.8640 C   0  0  0  0  0  0  0  0  0  0  0  0
   -3.5070   -1.6860    0.4110 C   0  0  0  0  0  0  0  0  0  0  0  0
   -2.8280   -2.3280    1.2850 O   0  0  0  0  0  0  0  0  0  0  0  0
   -2.7930   -0.8630   -0.4950 N   0  0  0  0  0  0  0  0  0  0  0  0
   -1.4060   -1.0330   -0.7520 C   0  0  0  0  0  0  0  0  0  0  0  0
   -0.5160   -0.2060    0.1450 C   0  0  0  0  0  0  0  0  0  0  0  0
    0.8990   -0.4350   -0.1870 N   0  0  0  0  0  0  0  0  0  0  0  0
    1.9510    0.2190    0.4690 C   0  0  0  0  0  0  0  0  0  0  0  0
    1.5830    1.0420    1.3850 O   0  0  0  0  0  0  0  0  0  0  0  0
    3.3680    0.0640    0.2190 C   0  0  0  0  0  0  0  0  0  0  0  0
    4.2460    1.0210    0.7440 C   0  0  0  0  0  0  0  0  0  0  0  0
    5.6090    0.9770    0.5390 C   0  0  0  0  0  0  0  0  0  0  0  0
    6.4710    1.9190    1.0510 C   0  0  0  0  0  0  0  0  0  0  0  0
    7.8170    1.8370    0.8190 C   0  0  0  0  0  0  0  0  0  0  0  0
    8.3760    0.8090    0.0630 C   0  0  0  0  0  0  0  0  0  0  0  0
    7.4830   -0.1290   -0.4420 C   0  0  0  0  0  0  0  0  0  0  0  0
    8.0440   -1.2380   -1.2480 C   0  0  0  0  0  0  0  0  0  0  0  0
    6.1240   -0.0740   -0.2270 C   0  0  0  0  0  0  0  0  0  0  0  0
    5.2840   -0.9780   -0.7200 N   0  0  0  0  0  0  0  0  0  0  0  0
    3.9330   -0.9300   -0.5150 C   0  0  0  0  0  0  0  0  0  0  0  0
    3.1950   -1.8230   -1.0130 O   0  0  0  0  0  0  0  0  0  0  0  0
   -3.5640    0.1590   -1.1250 C   0  0  0  0  0  0  0  0  0  0  0  0
   -3.0610    0.9080   -1.9880 O   0  0  0  0  0  0  0  0  0  0  0  0
  1  2  1  0
  2  3  1  0
  3  4  1  6
  3  5  1  0
  3 28  1  0
  5  6  1  0
  6  7  1  1
  6  8  1  0
  8  9  2  0
  8 10  1  0
 10 11  1  0
 10 28  1  0
 11 12  1  0
 12 13  1  0
 13 14  1  0
 14 15  2  0
 14 16  1  0
 16 17  2  0
 16 26  1  0
 17 18  1  0
 18 19  2  0
 18 24  1  0
 19 20  1  0
 20 21  2  0
 21 22  1  0
 22 23  1  0
 22 24  2  0
 24 25  1  0
 25 26  1  0
 26 27  2  0
 28 29  2  0
M  END
