
     RDKit          3D

 29 31  0  0  0  0  0  0  0  0999 V2000
    5.1180    1.9610   -3.1840 C   0  0  0  0  0  0  0  0  0  0  0  0
    5.9710    1.2670   -2.5130 C   0  0  0  0  0  0  0  0  0  0  0  0
    5.6520    0.4620   -1.3470 C   0  0  0  0  0  0  0  0  0  0  0  0
    6.6470   -0.1550   -0.7400 C   0  0  0  0  0  0  0  0  0  0  0  0
    6.5160   -1.0040    0.4310 C   0  0  0  0  0  0  0  0  0  0  0  0
    4.3200    0.3990   -0.7840 C   0  0  0  0  0  0  0  0  0  0  0  0
    3.1800    0.3080   -1.5690 C   0  0  0  0  0  0  0  0  0  0  0  0
    1.9290    0.3780   -1.0110 C   0  0  0  0  0  0  0  0  0  0  0  0
    1.7630    0.5390    0.3470 C   0  0  0  0  0  0  0  0  0  0  0  0
    2.8720    0.6310    1.1520 C   0  0  0  0  0  0  0  0  0  0  0  0
    4.1230    0.5590    0.5660 C   0  0  0  0  0  0  0  0  0  0  0  0
    2.3810    0.7890    2.5430 C   0  0  0  0  0  0  0  0  0  0  0  0
    0.9940    1.3810    2.3290 C   0  0  0  0  0  0  0  0  0  0  0  0
    0.5750    0.6400    1.1620 N   0  0  0  0  0  0  0  0  0  0  0  0
   -0.6690    0.0970    0.7910 C   0  0  0  0  0  0  0  0  0  0  0  0
   -0.8070   -0.5060   -0.3080 O   0  0  0  0  0  0  0  0  0  0  0  0
   -1.8210    0.2480    1.7200 C   0  0  2  0  0  0  0  0  0  0  0  0
   -1.6100   -0.3820    3.0560 C   0  0  0  0  0  0  0  0  0  0  0  0
   -2.9370   -0.3500    1.1000 O   0  0  0  0  0  0  0  0  0  0  0  0
   -4.0490    0.3560    0.7250 C   0  0  0  0  0  0  0  0  0  0  0  0
   -4.0400    1.5910    0.9600 O   0  0  0  0  0  0  0  0  0  0  0  0
   -5.2230   -0.2680    0.0720 C   0  0  0  0  0  0  0  0  0  0  0  0
   -5.2610   -1.5510   -0.1840 C   0  0  0  0  0  0  0  0  0  0  0  0
   -4.0660   -2.3830    0.2120 C   0  0  0  0  0  0  0  0  0  0  0  0
   -6.3670   -2.2050   -0.8420 N   0  0  0  0  0  0  0  0  0  0  0  0
   -7.4520   -1.3870   -1.2220 C   0  0  0  0  0  0  0  0  0  0  0  0
   -8.4810   -1.8510   -1.8060 O   0  0  0  0  0  0  0  0  0  0  0  0
   -7.4210   -0.0010   -0.9570 N   0  0  0  0  0  0  0  0  0  0  0  0
   -6.3520    0.6280   -0.2530 C   0  0  0  0  0  0  0  0  0  0  0  0
  1  2  2  0
  2  3  1  0
  3  4  2  3
  3  6  1  0
  4  5  1  0
  6  7  2  0
  6 11  1  0
  7  8  1  0
  8  9  2  0
  9 10  1  0
  9 14  1  0
 10 11  2  0
 10 12  1  0
 12 13  1  0
 13 14  1  0
 14 15  1  0
 15 16  2  0
 15 17  1  0
 17 18  1  1
 17 19  1  0
 19 20  1  0
 20 21  2  0
 20 22  1  0
 22 23  2  0
 22 29  1  0
 23 24  1  0
 23 25  1  0
 25 26  1  0
 26 27  2  0
 26 28  1  0
 28 29  1  0
M  END
