
     RDKit          3D

 29 31  0  0  0  0  0  0  0  0999 V2000
   10.4850    1.2460   -0.7650 C   0  0  0  0  0  0  0  0  0  0  0  0
    9.9210    0.0660   -0.2630 O   0  0  0  0  0  0  0  0  0  0  0  0
    8.5640   -0.1280   -0.0580 C   0  0  0  0  0  0  0  0  0  0  0  0
    7.6110    0.8070   -0.3200 C   0  0  0  0  0  0  0  0  0  0  0  0
    6.2470    0.5460   -0.0890 C   0  0  0  0  0  0  0  0  0  0  0  0
    5.8240   -0.6420    0.4020 C   0  0  0  0  0  0  0  0  0  0  0  0
    4.4730   -0.9650    0.6430 N   0  0  0  0  0  0  0  0  0  0  0  0
    3.3330   -0.2260    0.2950 C   0  0  0  0  0  0  0  0  0  0  0  0
    3.4400    0.8560   -0.3040 O   0  0  0  0  0  0  0  0  0  0  0  0
    1.9490   -0.6680    0.6080 C   0  0  0  0  0  0  0  0  0  0  0  0
    0.9110    0.2900    0.1350 C   0  0  0  0  0  0  0  0  0  0  0  0
   -0.4050   -0.1860    0.4640 N   0  0  0  0  0  0  0  0  0  0  0  0
   -1.5660    0.5620    0.1130 C   0  0  0  0  0  0  0  0  0  0  0  0
   -1.3380    1.6420   -0.4940 O   0  0  0  0  0  0  0  0  0  0  0  0
   -2.9090    0.1020    0.4360 C   0  0  0  0  0  0  0  0  0  0  0  0
   -2.9560   -1.0090    1.0580 O   0  0  0  0  0  0  0  0  0  0  0  0
   -4.0870    0.8120    0.0990 N   0  0  0  0  0  0  0  0  0  0  0  0
   -4.2330    2.0710   -0.6040 C   0  0  0  0  0  0  0  0  0  0  0  0
   -5.4270    1.8100   -1.5260 C   0  0  0  0  0  0  0  0  0  0  0  0
   -6.1480    0.6260   -0.9220 C   0  0  2  0  0  0  0  0  0  0  0  0
   -7.6160    0.9860   -0.8250 C   0  0  0  0  0  0  0  0  0  0  0  0
   -8.4560   -0.0700   -0.1900 C   0  0  0  0  0  0  0  0  0  0  0  0
   -7.9660   -0.4170    1.2050 C   0  0  0  0  0  0  0  0  0  0  0  0
   -6.9210   -1.4760    1.1010 C   0  0  0  0  0  0  0  0  0  0  0  0
   -5.5160   -0.9490    0.9180 C   0  0  0  0  0  0  0  0  0  0  0  0
   -5.4760    0.4420    0.3960 C   0  0  1  0  0  0  0  0  0  0  0  0
    6.8180   -1.6020    0.6700 C   0  0  0  0  0  0  0  0  0  0  0  0
    8.1510   -1.3430    0.4430 C   0  0  0  0  0  0  0  0  0  0  0  0
    9.1540   -2.3950    0.7450 C   0  0  0  0  0  0  0  0  0  0  0  0
  1  2  1  0
  2  3  1  0
  3  4  2  0
  3 28  1  0
  4  5  1  0
  5  6  2  0
  6  7  1  0
  6 27  1  0
  7  8  1  0
  8  9  2  0
  8 10  1  0
 10 11  1  0
 11 12  1  0
 12 13  1  0
 13 14  2  0
 13 15  1  0
 15 16  2  0
 15 17  1  0
 17 18  1  0
 17 26  1  0
 18 19  1  0
 20 19  1  1
 20 21  1  0
 20 26  1  0
 21 22  1  0
 22 23  1  0
 23 24  1  0
 24 25  1  0
 26 25  1  6
 27 28  2  0
 28 29  1  0
M  END
