
     RDKit          3D

 29 29  0  0  0  0  0  0  0  0999 V2000
   -4.4080   -1.9600    0.7080 C   0  0  0  0  0  0  0  0  0  0  0  0
   -4.0310   -0.6650    1.4610 C   0  0  2  0  0  0  0  0  0  0  0  0
   -5.3150   -0.0900    1.9370 C   0  0  0  0  0  0  0  0  0  0  0  0
   -3.2480    0.2520    0.5160 C   0  0  2  0  0  0  0  0  0  0  0  0
   -4.1340    0.5500   -0.6100 N   0  0  0  0  0  0  0  0  0  0  0  0
   -4.7540    1.7990   -0.8220 C   0  0  0  0  0  0  0  0  0  0  0  0
   -4.5240    2.7140    0.0250 O   0  0  0  0  0  0  0  0  0  0  0  0
   -5.6510    2.1150   -1.9560 C   0  0  1  0  0  0  0  0  0  0  0  0
   -5.9580    3.4560   -1.9060 F   0  0  0  0  0  0  0  0  0  0  0  0
   -5.1200    1.7470   -3.1650 F   0  0  0  0  0  0  0  0  0  0  0  0
   -6.8470    1.4340   -1.8260 F   0  0  0  0  0  0  0  0  0  0  0  0
   -2.0410   -0.4880    0.0300 C   0  0  0  0  0  0  0  0  0  0  0  0
   -2.2570   -1.3910   -0.8440 O   0  0  0  0  0  0  0  0  0  0  0  0
   -0.7180   -0.2720    0.4400 N   0  0  0  0  0  0  0  0  0  0  0  0
    0.4430   -0.9930   -0.0010 C   0  0  1  0  0  0  0  0  0  0  0  0
    0.3050   -1.5010   -1.4440 C   0  0  0  0  0  0  0  0  0  0  0  0
    1.7200   -0.3050    0.2200 C   0  0  0  0  0  0  0  0  0  0  0  0
    1.8160    0.7780    0.8990 O   0  0  0  0  0  0  0  0  0  0  0  0
    2.9360   -0.7660   -0.2980 N   0  0  0  0  0  0  0  0  0  0  0  0
    4.2200   -0.2160   -0.2070 C   0  0  0  0  0  0  0  0  0  0  0  0
    4.9720   -0.0010   -1.3760 C   0  0  0  0  0  0  0  0  0  0  0  0
    6.2430    0.4980   -1.3240 C   0  0  0  0  0  0  0  0  0  0  0  0
    6.8240    0.8020   -0.0950 C   0  0  0  0  0  0  0  0  0  0  0  0
    8.2060    1.3310    0.0100 C   0  0  2  0  0  0  0  0  0  0  0  0
    8.7430    1.5670   -1.2540 F   0  0  0  0  0  0  0  0  0  0  0  0
    9.0270    0.3730    0.6110 F   0  0  0  0  0  0  0  0  0  0  0  0
    8.2940    2.4800    0.7460 F   0  0  0  0  0  0  0  0  0  0  0  0
    6.1100    0.6010    1.0770 C   0  0  0  0  0  0  0  0  0  0  0  0
    4.8200    0.0950    0.9670 C   0  0  0  0  0  0  0  0  0  0  0  0
  2  1  1  6
  2  3  1  0
  2  4  1  0
  4  5  1  6
  4 12  1  0
  5  6  1  0
  6  7  2  0
  6  8  1  0
  8  9  1  6
  8 10  1  0
  8 11  1  0
 12 13  2  0
 12 14  1  0
 14 15  1  0
 15 16  1  6
 15 17  1  0
 17 18  2  0
 17 19  1  0
 19 20  1  0
 20 21  2  0
 20 29  1  0
 21 22  1  0
 22 23  2  0
 23 24  1  0
 23 28  1  0
 24 25  1  6
 24 26  1  0
 24 27  1  0
 28 29  2  0
M  END
