
     RDKit          3D

 29 32  0  0  0  0  0  0  0  0999 V2000
    3.3780   -0.9830   -3.1850 C   0  0  0  0  0  0  0  0  0  0  0  0
    2.8830    0.0300   -2.2430 C   0  0  0  0  0  0  0  0  0  0  0  0
    2.9060   -0.1780   -0.8500 N   0  0  0  0  0  0  0  0  0  0  0  0
    2.1830    0.8620   -0.1290 C   0  0  0  0  0  0  0  0  0  0  0  0
    0.7040    0.8440   -0.4350 C   0  0  0  0  0  0  0  0  0  0  0  0
   -0.0180    1.9260    0.3790 C   0  0  0  0  0  0  0  0  0  0  0  0
   -1.4230    1.8900    0.0950 N   0  0  0  0  0  0  0  0  0  0  0  0
   -2.2290    0.8570    0.6180 C   0  0  0  0  0  0  0  0  0  0  0  0
   -1.7220   -0.0580    1.4970 C   0  0  0  0  0  0  0  0  0  0  0  0
   -2.5590   -1.0540    2.0160 C   0  0  0  0  0  0  0  0  0  0  0  0
   -3.8950   -1.1420    1.6650 C   0  0  0  0  0  0  0  0  0  0  0  0
   -4.6860   -2.1440    2.2040 O   0  0  0  0  0  0  0  0  0  0  0  0
   -4.1440   -3.0640    3.1050 C   0  0  0  0  0  0  0  0  0  0  0  0
   -4.3770   -0.2080    0.7790 C   0  0  0  0  0  0  0  0  0  0  0  0
   -3.5680    0.7830    0.2560 C   0  0  0  0  0  0  0  0  0  0  0  0
   -4.1290    1.6980   -0.6370 O   0  0  0  0  0  0  0  0  0  0  0  0
   -5.4720    1.6560   -1.0240 C   0  0  0  0  0  0  0  0  0  0  0  0
   -6.0130    2.5730   -1.9120 C   0  0  0  0  0  0  0  0  0  0  0  0
   -7.3350    2.5230   -2.2860 C   0  0  0  0  0  0  0  0  0  0  0  0
   -8.1290    1.5260   -1.7530 C   0  0  0  0  0  0  0  0  0  0  0  0
   -7.5830    0.6290   -0.8790 C   0  0  0  0  0  0  0  0  0  0  0  0
   -6.2650    0.6540   -0.4870 C   0  0  0  0  0  0  0  0  0  0  0  0
   -5.7290   -0.2610    0.3980 O   0  0  0  0  0  0  0  0  0  0  0  0
    4.2160   -0.3380   -0.2390 C   0  0  2  0  0  0  0  0  0  0  0  0
    4.8980   -1.6070   -0.6040 C   0  0  0  0  0  0  0  0  0  0  0  0
    6.2630   -1.7190    0.0640 C   0  0  0  0  0  0  0  0  0  0  0  0
    6.5980   -0.5190    0.8080 N   0  0  0  0  0  0  0  0  0  0  0  0
    5.6130   -0.3560    1.8450 C   0  0  0  0  0  0  0  0  0  0  0  0
    4.2240   -0.1090    1.2430 C   0  0  0  0  0  0  0  0  0  0  0  0
  1  2  1  0
  2  3  1  0
  3  4  1  0
 24  3  1  1
  4  5  1  0
  5  6  1  0
  6  7  1  0
  7  8  1  0
  8  9  2  0
  8 15  1  0
  9 10  1  0
 10 11  2  0
 11 12  1  0
 11 14  1  0
 12 13  1  0
 14 15  2  0
 14 23  1  0
 15 16  1  0
 16 17  1  0
 17 18  2  0
 17 22  1  0
 18 19  1  0
 19 20  2  0
 20 21  1  0
 21 22  2  0
 22 23  1  0
 24 25  1  0
 24 29  1  0
 25 26  1  0
 26 27  1  0
 27 28  1  0
 28 29  1  0
M  CHG  1  27   1
M  END
