
     RDKit          3D

 29 32  0  0  0  0  0  0  0  0999 V2000
   -8.2240   -0.3240    0.3800 C   0  0  0  0  0  0  0  0  0  0  0  0
   -6.7490   -0.1540    0.1770 C   0  0  0  0  0  0  0  0  0  0  0  0
   -5.9800   -1.2030   -0.2650 C   0  0  0  0  0  0  0  0  0  0  0  0
   -4.6160   -1.1230   -0.4740 C   0  0  0  0  0  0  0  0  0  0  0  0
   -4.0070    0.0950   -0.2170 C   0  0  0  0  0  0  0  0  0  0  0  0
   -4.7460    1.1700    0.2260 C   0  0  0  0  0  0  0  0  0  0  0  0
   -6.1080    1.0410    0.4200 C   0  0  0  0  0  0  0  0  0  0  0  0
   -3.8240    2.3180    0.4060 C   0  0  0  0  0  0  0  0  0  0  0  0
   -2.4800    1.6350    0.5220 C   0  0  0  0  0  0  0  0  0  0  0  0
   -2.6290    0.4770   -0.3320 N   0  0  0  0  0  0  0  0  0  0  0  0
   -1.6280   -0.1920   -1.1380 C   0  0  0  0  0  0  0  0  0  0  0  0
   -0.5840   -0.9140   -0.3860 C   0  0  2  0  0  0  0  0  0  0  0  0
   -1.3090   -1.9800    0.4540 C   0  0  0  0  0  0  0  0  0  0  0  0
    0.2860   -0.1890    0.4500 N   0  0  0  0  0  0  0  0  0  0  0  0
    1.4940    0.2420   -0.1180 C   0  0  0  0  0  0  0  0  0  0  0  0
    1.5220    1.3860   -0.9050 C   0  0  0  0  0  0  0  0  0  0  0  0
    2.7250    1.7830   -1.4490 C   0  0  0  0  0  0  0  0  0  0  0  0
    3.8770    1.0520   -1.2100 C   0  0  0  0  0  0  0  0  0  0  0  0
    3.8810   -0.0880   -0.4330 C   0  0  0  0  0  0  0  0  0  0  0  0
    5.0790   -0.8010   -0.2180 N   0  0  0  0  0  0  0  0  0  0  0  0
    5.2550   -2.1890   -0.4770 C   0  0  0  0  0  0  0  0  0  0  0  0
    4.4220   -3.0170   -0.9290 O   0  0  0  0  0  0  0  0  0  0  0  0
    6.5680   -2.5600   -0.1470 O   0  0  0  0  0  0  0  0  0  0  0  0
    7.3560   -1.4260    0.0560 C   0  0  0  0  0  0  0  0  0  0  0  0
    6.3420   -0.3540    0.2830 C   0  0  0  0  0  0  0  0  0  0  0  0
    6.5200    0.8280    0.8450 C   0  0  0  0  0  0  0  0  0  0  0  0
    7.8600    1.1620    1.3150 C   0  0  0  0  0  0  0  0  0  0  0  0
    8.1150    2.2710    1.8630 O   0  0  0  0  0  0  0  0  0  0  0  0
    2.6680   -0.4720    0.1030 C   0  0  0  0  0  0  0  0  0  0  0  0
  1  2  1  0
  2  3  2  0
  2  7  1  0
  3  4  1  0
  4  5  2  0
  5  6  1  0
  5 10  1  0
  6  7  2  0
  6  8  1  0
  8  9  1  0
  9 10  1  0
 10 11  1  0
 11 12  1  0
 12 13  1  1
 12 14  1  0
 14 15  1  0
 15 16  2  0
 15 29  1  0
 16 17  1  0
 17 18  2  0
 18 19  1  0
 19 20  1  0
 19 29  2  0
 20 21  1  0
 20 25  1  0
 21 22  2  0
 21 23  1  0
 23 24  1  0
 24 25  1  0
 25 26  2  3
 26 27  1  0
 27 28  2  0
M  CHG  1  14   1
M  END
