
     RDKit          3D

 20 21  0  0  0  0  0  0  0  0999 V2000
    1.8950   -0.9580    2.4130 O   0  0  0  0  0  0  0  0  0  0  0  0
    1.7290    0.1790    1.8780 C   0  0  0  0  0  0  0  0  0  0  0  0
    2.7860    0.4880    0.8800 C   0  0  0  0  0  0  0  0  0  0  0  0
    3.8600   -0.8450    0.4660 S   0  0  0  0  0  0  0  0  0  0  0  0
    4.0800   -1.0800   -1.2960 C   0  0  0  0  0  0  0  0  0  0  0  0
    5.1530   -0.6760   -1.8660 O   0  0  0  0  0  0  0  0  0  0  0  0
    3.0610   -1.7140   -2.0470 N   0  0  0  0  0  0  0  0  0  0  0  0
    1.6780   -1.5150   -1.6760 C   0  0  0  0  0  0  0  0  0  0  0  0
    1.0890   -0.3600   -2.4030 C   0  0  0  0  0  0  0  0  0  0  0  0
    0.1430    0.4240   -1.9320 C   0  0  0  0  0  0  0  0  0  0  0  0
   -0.5130    0.3170   -0.6040 C   0  0  2  0  0  0  0  0  0  0  0  0
   -1.9000    0.0020   -0.8330 N   0  0  0  0  0  0  0  0  0  0  0  0
   -2.8310   -0.1730    0.2550 C   0  0  0  0  0  0  0  0  0  0  0  0
   -2.9920   -1.1330    1.0920 C   0  0  0  0  0  0  0  0  0  0  0  0
   -4.0880   -0.4790    1.7740 C   0  0  0  0  0  0  0  0  0  0  0  0
   -3.9030    0.6180    0.8160 C   0  0  0  0  0  0  0  0  0  0  0  0
   -0.3670    1.6790    0.0280 C   0  0  0  0  0  0  0  0  0  0  0  0
   -0.5780    2.6440   -0.7480 O   0  0  0  0  0  0  0  0  0  0  0  0
   -0.0260    1.9220    1.3720 N   0  0  0  0  0  0  0  0  0  0  0  0
    0.6570    1.0330    2.2090 N   0  0  0  0  0  0  0  0  0  0  0  0
  1  2  2  0
  2  3  1  0
  2 20  1  0
  3  4  1  0
  4  5  1  0
  5  6  2  0
  5  7  1  0
  7  8  1  0
  8  9  1  0
  9 10  2  0
 10 11  1  0
 11 12  1  6
 11 17  1  0
 12 13  1  0
 13 14  2  0
 13 16  1  0
 14 15  1  0
 15 16  1  0
 17 18  2  0
 17 19  1  0
 19 20  1  0
M  END
