
     RDKit          3D

  8  8  0  0  0  0  0  0  0  0999 V2000
    2.3270    1.8140   -0.2920 O   0  0  0  0  0  0  0  0  0  0  0  0
    1.8910    0.5020   -0.3640 C   0  0  0  0  0  0  0  0  0  0  0  0
    2.8120   -0.5010   -0.4600 O   0  0  0  0  0  0  0  0  0  0  0  0
    0.5710    0.2570   -0.3370 C   0  0  0  0  0  0  0  0  0  0  0  0
   -0.4760    1.2540   -0.2370 C   0  0  0  0  0  0  0  0  0  0  0  0
   -1.6660    0.6890   -0.2360 C   0  0  0  0  0  0  0  0  0  0  0  0
   -1.5030   -0.7710   -0.3370 C   0  0  0  0  0  0  0  0  0  0  0  0
   -0.0920   -0.9840   -0.3970 N   0  0  0  0  0  0  0  0  0  0  0  0
  1  2  1  0
  2  3  1  0
  2  4  2  3
  4  5  1  0
  4  8  1  0
  5  6  2  0
  6  7  1  0
  7  8  1  0
M  CHG  1   1  -1
M  END
