
     RDKit          3D

  8  8  0  0  0  0  0  0  0  0999 V2000
    2.7840   -1.3870    0.2560 O   0  0  0  0  0  0  0  0  0  0  0  0
    2.1610   -0.2360   -0.1300 N   0  0  0  0  0  0  0  0  0  0  0  0
    0.7500   -0.0760   -0.0520 C   0  0  0  0  0  0  0  0  0  0  0  0
   -0.0990   -1.0770   -0.1350 C   0  0  0  0  0  0  0  0  0  0  0  0
   -1.5390   -0.9230   -0.0570 C   0  0  0  0  0  0  0  0  0  0  0  0
   -2.0510    0.2820    0.1070 C   0  0  0  0  0  0  0  0  0  0  0  0
   -1.1870    1.3490    0.1970 O   0  0  0  0  0  0  0  0  0  0  0  0
    0.2150    1.2730    0.1300 C   0  0  0  0  0  0  0  0  0  0  0  0
  1  2  1  0
  2  3  1  0
  3  4  2  0
  3  8  1  0
  4  5  1  0
  5  6  2  0
  6  7  1  0
  7  8  1  0
M  CHG  1   1  -1
M  END
