
     RDKit          3D

  8  8  0  0  0  0  0  0  0  0999 V2000
    2.5660    1.3670   -0.1730 O   0  0  0  0  0  0  0  0  0  0  0  0
    2.0490    0.2410   -0.0180 C   0  0  0  0  0  0  0  0  0  0  0  0
    2.9010   -0.8380    0.1420 O   0  0  0  0  0  0  0  0  0  0  0  0
    0.5930    0.0870   -0.0070 C   0  0  0  0  0  0  0  0  0  0  0  0
   -0.1150   -1.0960    0.1550 C   0  0  0  0  0  0  0  0  0  0  0  0
   -1.4770   -0.8330    0.1060 C   0  0  0  0  0  0  0  0  0  0  0  0
   -1.5850    0.5290   -0.0880 C   0  0  0  0  0  0  0  0  0  0  0  0
   -0.3420    1.0320   -0.1490 N   0  0  0  0  0  0  0  0  0  0  0  0
  1  2  2  0
  2  3  1  0
  2  4  1  0
  4  5  2  0
  4  8  1  0
  5  6  1  0
  6  7  2  0
  7  8  1  0
M  CHG  1   3  -1
M  END
