
     RDKit          3D

  8  8  0  0  0  0  0  0  0  0999 V2000
    2.8560   -0.6720    0.8520 O   0  0  0  0  0  0  0  0  0  0  0  0
    2.1540   -0.3520   -0.2300 N   0  0  0  0  0  0  0  0  0  0  0  0
    0.7500   -0.1010   -0.0870 C   0  0  0  0  0  0  0  0  0  0  0  0
   -0.1230   -1.0710   -0.1020 C   0  0  0  0  0  0  0  0  0  0  0  0
   -1.5750   -0.8510    0.0420 C   0  0  0  0  0  0  0  0  0  0  0  0
   -1.8970    0.5040    0.1930 O   0  0  0  0  0  0  0  0  0  0  0  0
   -0.9920    1.5130    0.2080 C   0  0  0  0  0  0  0  0  0  0  0  0
    0.2920    1.2730    0.0770 C   0  0  0  0  0  0  0  0  0  0  0  0
  1  2  1  0
  2  3  1  0
  3  4  2  0
  3  8  1  0
  4  5  1  0
  5  6  1  0
  6  7  1  0
  7  8  2  0
M  CHG  1   1  -1
M  END
