
     RDKit          3D

  8  8  0  0  0  0  0  0  0  0999 V2000
   -0.3900    2.4340   -0.2070 O   0  0  0  0  0  0  0  0  0  0  0  0
    0.3540    1.2450   -0.1640 C   0  0  0  0  0  0  0  0  0  0  0  0
    1.6370    1.1690   -0.2160 N   0  0  0  0  0  0  0  0  0  0  0  0
    2.0420   -0.2070   -0.1460 C   0  0  0  0  0  0  0  0  0  0  0  0
    0.7820   -0.9560   -0.0420 C   0  0  0  0  0  0  0  0  0  0  0  0
   -0.2090   -0.0930   -0.0530 C   0  0  0  0  0  0  0  0  0  0  0  0
   -1.6650   -0.4460    0.0340 C   0  0  0  0  0  0  0  0  0  0  0  0
   -2.2050    0.1520    1.1510 O   0  0  0  0  0  0  0  0  0  0  0  0
  1  2  1  0
  2  3  2  0
  2  6  1  0
  3  4  1  0
  4  5  1  0
  5  6  2  0
  6  7  1  0
  7  8  1  0
M  CHG  1   1  -1
M  END
