
     RDKit          3D

  8  8  0  0  0  0  0  0  0  0999 V2000
   -1.5220    2.5390   -0.1670 O   0  0  0  0  0  0  0  0  0  0  0  0
   -0.8140    1.3280   -0.1210 C   0  0  0  0  0  0  0  0  0  0  0  0
    0.5120    1.3180   -0.2430 C   0  0  0  0  0  0  0  0  0  0  0  0
    1.1620    0.0150   -0.1830 C   0  0  0  0  0  0  0  0  0  0  0  0
    2.5580   -0.0840   -0.3040 O   0  0  0  0  0  0  0  0  0  0  0  0
    0.5060   -1.1020   -0.0180 C   0  0  0  0  0  0  0  0  0  0  0  0
   -0.9470   -1.1390    0.1200 C   0  0  0  0  0  0  0  0  0  0  0  0
   -1.5570    0.1470    0.0580 N   0  0  0  0  0  0  0  0  0  0  0  0
  1  2  1  0
  2  3  2  0
  2  8  1  0
  3  4  1  0
  4  5  1  0
  4  6  2  0
  6  7  1  0
  7  8  1  0
M  CHG  1   1  -1
M  END
