
     RDKit          3D

  8  8  0  0  0  0  0  0  0  0999 V2000
    2.6220    0.6210   -0.0490 O   0  0  0  0  0  0  0  0  0  0  0  0
    1.8450   -0.3520    0.0850 C   0  0  0  0  0  0  0  0  0  0  0  0
    2.3840   -1.6010    0.2840 O   0  0  0  0  0  0  0  0  0  0  0  0
    0.4050   -0.1030    0.0220 C   0  0  0  0  0  0  0  0  0  0  0  0
   -0.5480   -1.0100    0.1420 C   0  0  0  0  0  0  0  0  0  0  0  0
   -1.8230   -0.3340    0.0170 C   0  0  0  0  0  0  0  0  0  0  0  0
   -1.6310    0.9100   -0.1680 N   0  0  0  0  0  0  0  0  0  0  0  0
   -0.2270    1.2100   -0.1890 C   0  0  0  0  0  0  0  0  0  0  0  0
  1  2  2  0
  2  3  1  0
  2  4  1  0
  4  5  2  0
  4  8  1  0
  5  6  1  0
  6  7  2  0
  7  8  1  0
M  CHG  1   3  -1
M  END
