
     RDKit          3D

  8  8  0  0  0  0  0  0  0  0999 V2000
    2.6990    1.0230   -0.3680 O   0  0  0  0  0  0  0  0  0  0  0  0
    1.9790   -0.0190   -0.3770 C   0  0  0  0  0  0  0  0  0  0  0  0
    2.4840   -1.2710   -0.6510 O   0  0  0  0  0  0  0  0  0  0  0  0
    0.5640    0.1210   -0.0860 C   0  0  0  0  0  0  0  0  0  0  0  0
   -0.2880   -0.9020   -0.0670 C   0  0  0  0  0  0  0  0  0  0  0  0
   -1.6240   -0.3470    0.2670 C   0  0  0  0  0  0  0  0  0  0  0  0
   -1.4280    1.0560    0.4280 N   0  0  0  0  0  0  0  0  0  0  0  0
   -0.1930    1.3230    0.2290 C   0  0  0  0  0  0  0  0  0  0  0  0
  1  2  2  0
  2  3  1  0
  2  4  1  0
  4  5  2  0
  4  8  1  0
  5  6  1  0
  6  7  1  0
  7  8  2  0
M  CHG  1   3  -1
M  END
