
     RDKit          3D

 35 39  0  0  0  0  0  0  0  0999 V2000
   -6.1340    2.9140    1.9750 N   0  0  0  0  0  0  0  0  0  0  0  0
   -5.2580    2.0270    1.5610 C   0  0  0  0  0  0  0  0  0  0  0  0
   -5.5190    0.6500    1.3440 N   0  0  0  0  0  0  0  0  0  0  0  0
   -4.4850    0.0250    0.9400 C   0  0  0  0  0  0  0  0  0  0  0  0
   -4.3990   -1.3840    0.6230 N   0  0  0  0  0  0  0  0  0  0  0  0
   -5.4120   -2.0290    0.1920 C   0  0  0  0  0  0  0  0  0  0  0  0
   -6.7650   -1.4260   -0.0320 C   0  0  0  0  0  0  0  0  0  0  0  0
   -7.5990   -2.5520   -0.5310 C   0  0  0  0  0  0  0  0  0  0  0  0
   -6.8860   -3.6430   -0.6000 C   0  0  0  0  0  0  0  0  0  0  0  0
   -5.5490   -3.3900   -0.1740 N   0  0  0  0  0  0  0  0  0  0  0  0
   -3.3590    0.9570    0.8350 C   0  0  1  0  0  0  0  0  0  0  0  0
   -2.1840    0.5330    1.6790 C   0  0  0  0  0  0  0  0  0  0  0  0
   -0.9550    1.3570    1.4230 C   0  0  0  0  0  0  0  0  0  0  0  0
   -0.8290    1.7610    0.0440 N   0  0  0  0  0  0  0  0  0  0  0  0
    0.4570    1.7900   -0.5410 C   0  0  0  0  0  0  0  0  0  0  0  0
    0.5690    2.1300   -1.7450 O   0  0  0  0  0  0  0  0  0  0  0  0
    1.6410    1.4690    0.1090 O   0  0  0  0  0  0  0  0  0  0  0  0
    2.8750    1.5290   -0.5670 C   0  0  0  0  0  0  0  0  0  0  0  0
    3.6130    2.6900   -0.6510 C   0  0  0  0  0  0  0  0  0  0  0  0
    4.8200    2.7530   -1.3120 C   0  0  0  0  0  0  0  0  0  0  0  0
    5.3380    1.6310   -1.9250 C   0  0  0  0  0  0  0  0  0  0  0  0
    4.6190    0.4570   -1.8560 C   0  0  0  0  0  0  0  0  0  0  0  0
    5.1660   -0.7480   -2.5150 C   0  0  0  0  0  0  0  0  0  0  0  0
    5.2720   -1.8710   -1.6980 O   0  0  0  0  0  0  0  0  0  0  0  0
    6.0000   -2.0670   -0.5660 C   0  0  0  0  0  0  0  0  0  0  0  0
    6.8250   -1.1500    0.0210 C   0  0  0  0  0  0  0  0  0  0  0  0
    7.5260   -1.4240    1.1610 C   0  0  0  0  0  0  0  0  0  0  0  0
    7.4160   -2.6580    1.7580 C   0  0  0  0  0  0  0  0  0  0  0  0
    6.6010   -3.6180    1.2100 C   0  0  0  0  0  0  0  0  0  0  0  0
    5.9020   -3.3240    0.0620 C   0  0  0  0  0  0  0  0  0  0  0  0
    4.8770   -4.5770   -0.6040 Cl  0  0  0  0  0  0  0  0  0  0  0  0
    3.3910    0.4090   -1.1780 C   0  0  0  0  0  0  0  0  0  0  0  0
   -1.9640    2.1440   -0.7710 C   0  0  0  0  0  0  0  0  0  0  0  0
   -2.9970    1.0530   -0.6330 C   0  0  0  0  0  0  0  0  0  0  0  0
   -3.9000    2.2220    1.2400 N   0  0  0  0  0  0  0  0  0  0  0  0
  1  2  2  0
  2  3  1  0
  2 35  1  0
  3  4  2  0
  4  5  1  0
  4 11  1  0
  5  6  2  3
  6  7  1  0
  6 10  1  0
  7  8  1  0
  8  9  2  0
  9 10  1  0
 11 12  1  1
 11 34  1  0
 11 35  1  0
 12 13  1  0
 13 14  1  0
 14 15  1  0
 14 33  1  0
 15 16  2  0
 15 17  1  0
 17 18  1  0
 18 19  2  0
 18 32  1  0
 19 20  1  0
 20 21  2  0
 21 22  1  0
 22 23  1  0
 22 32  2  0
 23 24  1  0
 24 25  1  0
 25 26  2  0
 25 30  1  0
 26 27  1  0
 27 28  2  0
 28 29  1  0
 29 30  2  0
 30 31  1  0
 33 34  1  0
M  CHG  1   1   1
M  END
