
     RDKit          3D

 35 39  0  0  0  0  0  0  0  0999 V2000
   -6.0500    0.4560    2.5500 C   0  0  0  0  0  0  0  0  0  0  0  0
   -5.7360   -0.1180    1.2590 N   0  0  0  0  0  0  0  0  0  0  0  0
   -4.6680    0.2430    0.4500 C   0  0  0  0  0  0  0  0  0  0  0  0
   -4.7970    1.2550   -0.5010 C   0  0  0  0  0  0  0  0  0  0  0  0
   -6.1270    1.8870   -0.5680 C   0  0  0  0  0  0  0  0  0  0  0  0
   -6.2640    2.9280   -1.5440 N   0  0  0  0  0  0  0  0  0  0  0  0
   -3.7180    1.5940   -1.2930 C   0  0  0  0  0  0  0  0  0  0  0  0
   -3.8050    2.4930   -2.1490 O   0  0  0  0  0  0  0  0  0  0  0  0
   -2.5290    0.9320   -1.1350 N   0  0  0  0  0  0  0  0  0  0  0  0
   -1.4320    1.3150   -1.9780 C   0  0  0  0  0  0  0  0  0  0  0  0
   -2.3520   -0.0490   -0.2360 C   0  0  0  0  0  0  0  0  0  0  0  0
   -3.4510   -0.3870    0.5630 C   0  0  0  0  0  0  0  0  0  0  0  0
   -3.0040   -1.3990    1.3820 C   0  0  0  0  0  0  0  0  0  0  0  0
   -3.8580   -2.0720    2.4100 C   0  0  0  0  0  0  0  0  0  0  0  0
   -1.7200   -1.6400    1.0810 N   0  0  0  0  0  0  0  0  0  0  0  0
   -1.3200   -0.8270    0.1030 N   0  0  0  0  0  0  0  0  0  0  0  0
   -0.0020   -0.8110   -0.4660 C   0  0  0  0  0  0  0  0  0  0  0  0
    0.4230   -1.8030   -1.3270 C   0  0  0  0  0  0  0  0  0  0  0  0
    1.6960   -1.7650   -1.8480 C   0  0  0  0  0  0  0  0  0  0  0  0
    2.6030   -0.7680   -1.5570 C   0  0  0  0  0  0  0  0  0  0  0  0
    3.9720   -0.7810   -2.1560 C   0  0  0  0  0  0  0  0  0  0  0  0
    4.8840   -1.5100   -1.3250 N   0  0  0  0  0  0  0  0  0  0  0  0
    5.1470   -2.8320   -1.3940 C   0  0  0  0  0  0  0  0  0  0  0  0
    4.6360   -3.6510   -2.1950 O   0  0  0  0  0  0  0  0  0  0  0  0
    6.0260   -3.0980   -0.4740 O   0  0  0  0  0  0  0  0  0  0  0  0
    6.3640   -2.0250    0.2030 C   0  0  0  0  0  0  0  0  0  0  0  0
    7.2410   -1.7970    1.2550 C   0  0  0  0  0  0  0  0  0  0  0  0
    7.3520   -0.5130    1.7330 C   0  0  0  0  0  0  0  0  0  0  0  0
    8.4560   -0.2040    3.0630 Cl  0  0  0  0  0  0  0  0  0  0  0  0
    6.6440    0.5470    1.2260 C   0  0  0  0  0  0  0  0  0  0  0  0
    6.7550    1.9380    1.7340 C   0  0  0  0  0  0  0  0  0  0  0  0
    5.7780    0.2850    0.1780 C   0  0  0  0  0  0  0  0  0  0  0  0
    5.6260   -0.9760   -0.3410 C   0  0  0  0  0  0  0  0  0  0  0  0
    2.1690    0.2180   -0.6970 C   0  0  0  0  0  0  0  0  0  0  0  0
    0.8960    0.1930   -0.1670 C   0  0  0  0  0  0  0  0  0  0  0  0
  1  2  1  0
  2  3  1  0
  3  4  2  0
  3 12  1  0
  4  5  1  0
  4  7  1  0
  5  6  1  0
  7  8  2  0
  7  9  1  0
  9 10  1  0
  9 11  1  0
 11 12  2  0
 11 16  1  0
 12 13  1  0
 13 14  1  0
 13 15  2  0
 15 16  1  0
 16 17  1  0
 17 18  2  0
 17 35  1  0
 18 19  1  0
 19 20  2  0
 20 21  1  0
 20 34  1  0
 21 22  1  0
 22 23  1  0
 22 33  1  0
 23 24  2  0
 23 25  1  0
 25 26  1  0
 26 27  2  0
 26 33  1  0
 27 28  1  0
 28 29  1  0
 28 30  2  0
 30 31  1  0
 30 32  1  0
 32 33  2  0
 34 35  2  0
M  CHG  1   6   1
M  END
