
     RDKit          3D

 13 14  0  0  0  0  0  0  0  0999 V2000
    3.4120    0.2880   -0.1400 N   0  0  0  0  0  0  0  0  0  0  0  0
    2.0380   -0.0680   -0.0880 C   0  0  0  0  0  0  0  0  0  0  0  0
    1.6560   -1.3910   -0.0500 C   0  0  0  0  0  0  0  0  0  0  0  0
    0.3080   -1.6780   -0.0000 C   0  0  0  0  0  0  0  0  0  0  0  0
   -0.6680   -0.7040    0.0120 C   0  0  0  0  0  0  0  0  0  0  0  0
   -2.0180   -1.0150    0.0620 C   0  0  0  0  0  0  0  0  0  0  0  0
   -2.3420   -2.2120    0.0960 O   0  0  0  0  0  0  0  0  0  0  0  0
   -2.9250   -0.0320    0.0720 N   0  0  0  0  0  0  0  0  0  0  0  0
   -2.5430    1.2380    0.0340 N   0  0  0  0  0  0  0  0  0  0  0  0
   -1.2440    1.5940   -0.0150 C   0  0  0  0  0  0  0  0  0  0  0  0
   -0.8540    2.7890   -0.0520 O   0  0  0  0  0  0  0  0  0  0  0  0
   -0.2750    0.6050   -0.0270 C   0  0  0  0  0  0  0  0  0  0  0  0
    1.0850    0.9290   -0.0770 C   0  0  0  0  0  0  0  0  0  0  0  0
  1  2  1  0
  2  3  2  0
  2 13  1  0
  3  4  1  0
  4  5  2  0
  5  6  1  0
  5 12  1  0
  6  7  2  0
  6  8  1  0
  8  9  1  0
  9 10  1  0
 10 11  2  0
 10 12  1  0
 12 13  2  0
M  END
