
     RDKit          3D

  9  9  0  0  0  0  0  0  0  0999 V2000
   -0.6270    1.7520    0.6470 C   0  0  0  0  0  0  0  0  0  0  0  0
    0.2180    0.6090    0.2310 C   0  0  0  0  0  0  0  0  0  0  0  0
    1.5510    0.7520    0.3140 C   0  0  0  0  0  0  0  0  0  0  0  0
    2.4610   -0.2690   -0.0540 N   0  0  0  0  0  0  0  0  0  0  0  0
    1.9680   -1.5120   -0.5370 C   0  0  0  0  0  0  0  0  0  0  0  0
    0.6610   -1.7040   -0.6380 C   0  0  0  0  0  0  0  0  0  0  0  0
   -0.2950   -0.6390   -0.2540 C   0  0  0  0  0  0  0  0  0  0  0  0
   -1.5770   -0.8840   -0.3770 C   0  0  0  0  0  0  0  0  0  0  0  0
   -2.5630    0.0520   -0.0460 N   0  0  0  0  0  0  0  0  0  0  0  0
  1  2  1  0
  2  3  2  0
  2  7  1  0
  3  4  1  0
  4  5  1  0
  5  6  2  0
  6  7  1  0
  7  8  2  3
  8  9  1  0
M  END
