
     RDKit          3D

  9  9  0  0  0  0  0  0  0  0999 V2000
    2.7350   -0.8150   -0.0930 C   0  0  0  0  0  0  0  0  0  0  0  0
    1.3040   -1.0170    0.4250 C   0  0  0  0  0  0  0  0  0  0  0  0
    0.5300    0.0550    0.0430 N   0  0  0  0  0  0  0  0  0  0  0  0
    0.7230    1.3300    0.5620 C   0  0  0  0  0  0  0  0  0  0  0  0
   -0.3920    2.1610    0.0000 C   0  0  0  0  0  0  0  0  0  0  0  0
   -0.8350    1.3680   -1.2190 C   0  0  0  0  0  0  0  0  0  0  0  0
   -0.6080   -0.0760   -0.7420 C   0  0  2  0  0  0  0  0  0  0  0  0
   -1.8670   -0.4710   -0.0200 C   0  0  0  0  0  0  0  0  0  0  0  0
   -1.7330   -1.7450    0.6400 N   0  0  0  0  0  0  0  0  0  0  0  0
  1  2  1  0
  2  3  1  0
  3  4  1  0
  3  7  1  0
  4  5  1  0
  5  6  1  0
  6  7  1  0
  7  8  1  1
  8  9  1  0
M  CHG  1   9   1
M  END
