
     RDKit          3D

  9  9  0  0  0  0  0  0  0  0999 V2000
   -2.1950    1.4350   -0.2020 C   0  0  0  0  0  0  0  0  0  0  0  0
   -1.6990    0.2690    0.0980 C   0  0  0  0  0  0  0  0  0  0  0  0
   -2.5610   -0.7990    0.4560 N   0  0  0  0  0  0  0  0  0  0  0  0
   -0.2620    0.0350    0.0750 C   0  0  0  0  0  0  0  0  0  0  0  0
    0.2080   -1.1830    0.3920 C   0  0  0  0  0  0  0  0  0  0  0  0
    1.6160   -1.5230    0.4000 C   0  0  0  0  0  0  0  0  0  0  0  0
    2.4780   -0.5990    0.0830 C   0  0  0  0  0  0  0  0  0  0  0  0
    2.0870    0.7660   -0.2800 C   0  0  0  0  0  0  0  0  0  0  0  0
    0.6750    1.0320   -0.2680 N   0  0  0  0  0  0  0  0  0  0  0  0
  1  2  2  0
  2  3  1  0
  2  4  1  0
  4  5  2  0
  4  9  1  0
  5  6  1  0
  6  7  2  0
  7  8  1  0
  8  9  1  0
M  END
