
     RDKit          3D

  9  9  0  0  0  0  0  0  0  0999 V2000
    1.8670   -2.0390    0.9740 N   0  0  0  0  0  0  0  0  0  0  0  0
    2.2730   -1.5330   -0.2840 C   0  0  0  0  0  0  0  0  0  0  0  0
    1.6610   -0.5540   -0.8570 C   0  0  0  0  0  0  0  0  0  0  0  0
    0.5360    0.1850   -0.4060 C   0  0  0  0  0  0  0  0  0  0  0  0
    0.0510    1.1970   -1.1920 C   0  0  0  0  0  0  0  0  0  0  0  0
   -1.0730    1.9050   -0.6980 N   0  0  0  0  0  0  0  0  0  0  0  0
   -2.1410    1.2760    0.0570 C   0  0  0  0  0  0  0  0  0  0  0  0
   -1.6930   -0.1240    0.4040 C   0  0  0  0  0  0  0  0  0  0  0  0
   -0.2160    0.0080    0.8390 C   0  0  0  0  0  0  0  0  0  0  0  0
  1  2  1  0
  2  3  2  3
  3  4  1  0
  4  5  2  0
  4  9  1  0
  5  6  1  0
  6  7  1  0
  7  8  1  0
  8  9  1  0
M  END
