
     RDKit          3D

 10 10  0  0  0  0  0  0  0  0999 V2000
   -2.6510   -0.4640   -0.2160 C   0  0  0  0  0  0  0  0  0  0  0  0
   -1.3540   -1.0160   -0.2250 O   0  0  0  0  0  0  0  0  0  0  0  0
   -0.2590   -0.1890   -0.0900 C   0  0  0  0  0  0  0  0  0  0  0  0
   -0.4670    1.1630    0.0500 C   0  0  0  0  0  0  0  0  0  0  0  0
    0.6620    1.9550    0.1830 C   0  0  0  0  0  0  0  0  0  0  0  0
    1.9020    1.4330    0.1750 N   0  0  0  0  0  0  0  0  0  0  0  0
    2.1340    0.1150    0.0390 C   0  0  0  0  0  0  0  0  0  0  0  0
    3.4140   -0.4340    0.0300 O   0  0  0  0  0  0  0  0  0  0  0  0
    1.0230   -0.7070   -0.0960 C   0  0  0  0  0  0  0  0  0  0  0  0
    1.2620   -2.0640   -0.2360 O   0  0  0  0  0  0  0  0  0  0  0  0
  1  2  1  0
  2  3  1  0
  3  4  2  0
  3  9  1  0
  4  5  1  0
  5  6  2  0
  6  7  1  0
  7  8  1  0
  7  9  2  0
  9 10  1  0
M  END
