
     RDKit          3D

 10 10  0  0  0  0  0  0  0  0999 V2000
   -2.6050   -0.9260   -0.1650 C   0  0  0  0  0  0  0  0  0  0  0  0
   -1.7680    0.1960   -0.2430 O   0  0  0  0  0  0  0  0  0  0  0  0
   -0.3930    0.1460   -0.0700 C   0  0  0  0  0  0  0  0  0  0  0  0
    0.2320   -1.0720    0.1980 C   0  0  0  0  0  0  0  0  0  0  0  0
    1.5740   -1.0900    0.3620 N   0  0  0  0  0  0  0  0  0  0  0  0
    2.2330   -2.2620    0.6270 O   0  0  0  0  0  0  0  0  0  0  0  0
    2.2700    0.0470    0.2640 C   0  0  0  0  0  0  0  0  0  0  0  0
    1.7030    1.2760    0.0010 C   0  0  0  0  0  0  0  0  0  0  0  0
    0.3250    1.3170   -0.1710 C   0  0  0  0  0  0  0  0  0  0  0  0
   -0.3640    2.4870   -0.4390 O   0  0  0  0  0  0  0  0  0  0  0  0
  1  2  1  0
  2  3  1  0
  3  4  2  0
  3  9  1  0
  4  5  1  0
  5  6  1  0
  5  7  2  0
  7  8  1  0
  8  9  2  0
  9 10  1  0
M  CHG  2   5   1   6  -1
M  END
