
     RDKit          3D

 10 10  0  0  0  0  0  0  0  0999 V2000
   -2.1880    1.4280    1.4870 O   0  0  0  0  0  0  0  0  0  0  0  0
   -2.2920    0.0790    1.2490 C   0  0  0  0  0  0  0  0  0  0  0  0
   -1.0610   -0.5800    1.1100 O   0  0  0  0  0  0  0  0  0  0  0  0
   -0.1160   -0.3000    0.1620 C   0  0  0  0  0  0  0  0  0  0  0  0
   -0.2980    0.6870   -0.7710 C   0  0  0  0  0  0  0  0  0  0  0  0
    0.6870    0.9540   -1.7330 C   0  0  0  0  0  0  0  0  0  0  0  0
    1.8030    0.2210   -1.7150 N   0  0  0  0  0  0  0  0  0  0  0  0
    2.0370   -0.7570   -0.8280 C   0  0  0  0  0  0  0  0  0  0  0  0
    3.1960   -1.5210   -0.8060 O   0  0  0  0  0  0  0  0  0  0  0  0
    1.0490   -1.0190    0.1310 C   0  0  0  0  0  0  0  0  0  0  0  0
  1  2  1  0
  2  3  1  0
  3  4  1  0
  4  5  2  0
  4 10  1  0
  5  6  1  0
  6  7  2  0
  7  8  1  0
  8  9  1  0
  8 10  2  0
M  END
