
     RDKit          3D

 11 11  0  0  0  0  0  0  0  0999 V2000
    3.4420    0.8230    0.2060 O   0  0  0  0  0  0  0  0  0  0  0  0
    2.6640   -0.1190    0.2700 N   0  0  0  0  0  0  0  0  0  0  0  0
    3.1590   -1.3800    0.5020 O   0  0  0  0  0  0  0  0  0  0  0  0
    1.2440    0.0310    0.1140 C   0  0  0  0  0  0  0  0  0  0  0  0
    0.6860    1.2700   -0.1210 C   0  0  0  0  0  0  0  0  0  0  0  0
   -0.6780    1.4220   -0.2730 C   0  0  0  0  0  0  0  0  0  0  0  0
   -1.5420    0.3450   -0.1970 C   0  0  0  0  0  0  0  0  0  0  0  0
   -2.9180    0.5020   -0.3510 O   0  0  0  0  0  0  0  0  0  0  0  0
   -0.9780   -0.8930    0.0380 C   0  0  0  0  0  0  0  0  0  0  0  0
   -1.8340   -1.9910    0.1180 O   0  0  0  0  0  0  0  0  0  0  0  0
    0.3860   -1.0440    0.1900 C   0  0  0  0  0  0  0  0  0  0  0  0
  1  2  2  0
  2  3  1  0
  2  4  1  0
  4  5  2  0
  4 11  1  0
  5  6  1  0
  6  7  2  0
  7  8  1  0
  7  9  1  0
  9 10  1  0
  9 11  2  0
M  CHG  2   2   1   3  -1
M  END
