
     RDKit          3D

 12 12  0  0  0  0  0  0  0  0999 V2000
   -2.2700    0.6090    0.6840 C   0  0  0  0  0  0  0  0  0  0  0  0
   -1.9200   -0.5720   -0.1590 C   0  0  0  0  0  0  0  0  0  0  0  0
   -0.7850   -0.3490   -1.1130 C   0  0  0  0  0  0  0  0  0  0  0  0
    0.4840    0.0140   -0.4980 C   0  0  0  0  0  0  0  0  0  0  0  0
    0.9040    1.2850   -0.5380 N   0  0  0  0  0  0  0  0  0  0  0  0
    2.0860    1.6500    0.0260 C   0  0  0  0  0  0  0  0  0  0  0  0
    2.4240    2.8700   -0.0490 O   0  0  0  0  0  0  0  0  0  0  0  0
    2.8250    0.7470    0.6190 O   0  0  0  0  0  0  0  0  0  0  0  0
    2.4770   -0.5200    0.6980 C   0  0  0  0  0  0  0  0  0  0  0  0
    3.2310   -1.3430    1.2810 O   0  0  0  0  0  0  0  0  0  0  0  0
    1.2820   -0.9140    0.1320 C   0  0  0  0  0  0  0  0  0  0  0  0
    0.9360   -2.2520    0.2280 O   0  0  0  0  0  0  0  0  0  0  0  0
  1  2  1  0
  2  3  1  0
  3  4  1  0
  4  5  1  0
  4 11  2  0
  5  6  1  0
  6  7  2  0
  6  8  1  0
  8  9  1  0
  9 10  2  0
  9 11  1  0
 11 12  1  0
M  END
