
     RDKit          3D

 10  9  0  0  0  0  0  0  0  0999 V2000
   -3.8080    0.3060    1.0200 C   0  0  0  0  0  0  0  0  0  0  0  0
   -2.6070   -0.1390    0.1780 C   0  0  0  0  0  0  0  0  0  0  0  0
   -1.4830    0.1060    0.9380 O   0  0  0  0  0  0  0  0  0  0  0  0
   -0.3040   -0.2410    0.3220 C   0  0  0  0  0  0  0  0  0  0  0  0
   -0.1130    0.4680   -0.8860 O   0  0  0  0  0  0  0  0  0  0  0  0
    1.1230    0.0050   -1.3870 C   0  0  0  0  0  0  0  0  0  0  0  0
    2.1980    0.2940   -0.4100 C   0  0  0  0  0  0  0  0  0  0  0  0
    2.4960    1.5880   -0.0060 O   0  0  0  0  0  0  0  0  0  0  0  0
    2.9050   -0.6960    0.1040 C   0  0  0  0  0  0  0  0  0  0  0  0
    3.9150   -0.4460    1.0200 O   0  0  0  0  0  0  0  0  0  0  0  0
  1  2  1  0
  2  3  1  0
  3  4  1  0
  4  5  1  0
  5  6  1  0
  6  7  1  0
  7  8  1  0
  7  9  2  3
  9 10  1  0
M  END
