
     RDKit          3D

 10 10  0  0  0  0  0  0  0  0999 V2000
    2.7600   -0.6370    0.0310 C   0  0  0  0  0  0  0  0  0  0  0  0
    1.7880    0.3560    0.1490 O   0  0  0  0  0  0  0  0  0  0  0  0
    0.4240    0.1410    0.0410 C   0  0  0  0  0  0  0  0  0  0  0  0
   -0.1190   -1.0970   -0.1980 C   0  0  0  0  0  0  0  0  0  0  0  0
   -1.4910   -1.2230   -0.2920 C   0  0  0  0  0  0  0  0  0  0  0  0
   -2.3470   -0.1970   -0.1620 N   0  0  0  0  0  0  0  0  0  0  0  0
   -3.7170   -0.3450   -0.2590 O   0  0  0  0  0  0  0  0  0  0  0  0
   -1.8260    1.0250    0.0740 C   0  0  0  0  0  0  0  0  0  0  0  0
   -0.4390    1.1980    0.1760 C   0  0  0  0  0  0  0  0  0  0  0  0
    0.0790    2.4600    0.4180 O   0  0  0  0  0  0  0  0  0  0  0  0
  1  2  1  0
  2  3  1  0
  3  4  2  0
  3  9  1  0
  4  5  1  0
  5  6  2  0
  6  7  1  0
  6  8  1  0
  8  9  2  0
  9 10  1  0
M  CHG  2   6   1   7  -1
M  END
