
     RDKit          3D

 34 37  0  0  0  0  0  0  0  0999 V2000
   -0.2950    2.7140    0.2780 O   0  0  0  0  0  0  0  0  0  0  0  0
   -0.8570    1.6000    0.2320 C   0  0  0  0  0  0  0  0  0  0  0  0
   -0.0630    0.4500    0.2490 N   0  0  0  0  0  0  0  0  0  0  0  0
    1.3430    0.3890    0.3200 C   0  0  0  0  0  0  0  0  0  0  0  0
    2.1530    1.4450    0.6440 C   0  0  0  0  0  0  0  0  0  0  0  0
    3.4980    1.2660    0.6620 N   0  0  0  0  0  0  0  0  0  0  0  0
    4.0800    0.0900    0.3750 C   0  0  0  0  0  0  0  0  0  0  0  0
    3.3290   -1.0170    0.0400 C   0  0  0  0  0  0  0  0  0  0  0  0
    3.9370   -2.2180   -0.2530 O   0  0  0  0  0  0  0  0  0  0  0  0
    5.2790   -2.4560   -0.3070 C   0  0  0  0  0  0  0  0  0  0  0  0
    5.8010   -3.4030    0.5780 C   0  0  0  0  0  0  0  0  0  0  0  0
    7.1270   -3.7280    0.6210 C   0  0  0  0  0  0  0  0  0  0  0  0
    7.7130   -4.9350    1.7670 Cl  0  0  0  0  0  0  0  0  0  0  0  0
    7.9970   -3.1060   -0.2370 C   0  0  0  0  0  0  0  0  0  0  0  0
    9.3070   -3.4470   -0.1730 F   0  0  0  0  0  0  0  0  0  0  0  0
    7.5100   -2.1640   -1.1240 C   0  0  0  0  0  0  0  0  0  0  0  0
    6.1660   -1.8420   -1.1600 C   0  0  0  0  0  0  0  0  0  0  0  0
    5.6980   -0.9220   -2.0370 F   0  0  0  0  0  0  0  0  0  0  0  0
    1.9760   -0.8450    0.0200 C   0  0  0  0  0  0  0  0  0  0  0  0
   -2.3260    1.5410    0.1620 C   0  0  0  0  0  0  0  0  0  0  0  0
   -2.8510    0.2970    0.1320 N   0  0  0  0  0  0  0  0  0  0  0  0
   -4.1720    0.0670    0.0720 C   0  0  0  0  0  0  0  0  0  0  0  0
   -4.7220   -1.2410    0.0400 N   0  0  0  0  0  0  0  0  0  0  0  0
   -3.9100   -2.3690    0.0710 N   0  0  0  0  0  0  0  0  0  0  0  0
   -4.3450   -3.5030   -0.3450 C   0  0  0  0  0  0  0  0  0  0  0  0
   -3.4440   -4.6780   -0.2940 C   0  0  0  0  0  0  0  0  0  0  0  0
   -3.6340   -5.4990    1.2800 Cl  0  0  0  0  0  0  0  0  0  0  0  0
   -4.9610    1.1540    0.0420 N   0  0  0  0  0  0  0  0  0  0  0  0
   -4.4960    2.4160    0.0690 C   0  0  0  0  0  0  0  0  0  0  0  0
   -3.1250    2.6490    0.1320 C   0  0  0  0  0  0  0  0  0  0  0  0
   -2.5450    3.9790    0.1600 C   0  0  0  0  0  0  0  0  0  0  0  0
   -3.4750    5.1380    0.0150 C   0  0  0  0  0  0  0  0  0  0  0  0
   -4.9090    4.8720    0.3290 C   0  0  0  0  0  0  0  0  0  0  0  0
   -5.3380    3.5460    0.0410 N   0  0  0  0  0  0  0  0  0  0  0  0
  1  2  2  0
  2  3  1  0
  2 20  1  0
  3  4  1  0
  4  5  2  0
  4 19  1  0
  5  6  1  0
  6  7  2  0
  7  8  1  0
  8  9  1  0
  8 19  2  0
  9 10  1  0
 10 11  2  0
 10 17  1  0
 11 12  1  0
 12 13  1  0
 12 14  2  0
 14 15  1  0
 14 16  1  0
 16 17  2  0
 17 18  1  0
 20 21  2  0
 20 30  1  0
 21 22  1  0
 22 23  1  0
 22 28  2  0
 23 24  1  0
 24 25  2  3
 25 26  1  0
 26 27  1  0
 28 29  1  0
 29 30  2  0
 29 34  1  0
 30 31  1  0
 31 32  1  0
 32 33  1  0
 33 34  1  0
M  END
