
     RDKit          3D

 33 36  0  0  0  0  0  0  0  0999 V2000
   -7.0600   -2.4490   -0.5270 C   0  0  0  0  0  0  0  0  0  0  0  0
   -5.7710   -1.7170   -0.6230 C   0  0  0  0  0  0  0  0  0  0  0  0
   -4.9910   -1.5470   -1.7460 C   0  0  0  0  0  0  0  0  0  0  0  0
   -3.9170   -0.8240   -1.3840 N   0  0  0  0  0  0  0  0  0  0  0  0
   -3.9840   -0.5230   -0.0590 C   0  0  0  0  0  0  0  0  0  0  0  0
   -2.9730    0.2560    0.6670 C   0  0  0  0  0  0  0  0  0  0  0  0
   -1.8350    0.7840    0.1340 N   0  0  0  0  0  0  0  0  0  0  0  0
   -1.1010    1.4470    1.0290 C   0  0  0  0  0  0  0  0  0  0  0  0
    0.1440    2.1710    0.9220 C   0  0  0  0  0  0  0  0  0  0  0  0
    0.6240    2.6690    2.0140 O   0  0  0  0  0  0  0  0  0  0  0  0
    0.9030    2.4020   -0.2120 N   0  0  0  0  0  0  0  0  0  0  0  0
    2.2040    3.1370   -0.0890 C   0  0  0  0  0  0  0  0  0  0  0  0
    0.5690    2.0610   -1.5610 C   0  0  0  0  0  0  0  0  0  0  0  0
    1.0240    0.6710   -1.9300 C   0  0  0  0  0  0  0  0  0  0  0  0
    1.7230   -0.1410   -1.1330 N   0  0  0  0  0  0  0  0  0  0  0  0
    1.9390   -1.2760   -1.7940 C   0  0  0  0  0  0  0  0  0  0  0  0
    2.6830   -2.4990   -1.3180 C   0  0  0  0  0  0  0  0  0  0  0  0
    3.3020   -2.2440   -0.0410 N   0  0  0  0  0  0  0  0  0  0  0  0
    4.3000   -1.2370    0.0420 C   0  0  0  0  0  0  0  0  0  0  0  0
    4.7480   -0.5010   -1.0310 C   0  0  0  0  0  0  0  0  0  0  0  0
    5.7260    0.4770   -0.9470 C   0  0  0  0  0  0  0  0  0  0  0  0
    6.2350    1.3710   -2.3860 Cl  0  0  0  0  0  0  0  0  0  0  0  0
    6.2970    0.7410    0.2860 C   0  0  0  0  0  0  0  0  0  0  0  0
    7.2560    1.7040    0.3550 F   0  0  0  0  0  0  0  0  0  0  0  0
    5.8750    0.0250    1.3840 C   0  0  0  0  0  0  0  0  0  0  0  0
    4.9020   -0.9400    1.2710 C   0  0  0  0  0  0  0  0  0  0  0  0
    4.3520   -1.8650    2.6670 Cl  0  0  0  0  0  0  0  0  0  0  0  0
    1.3560   -1.1160   -2.9890 N   0  0  0  0  0  0  0  0  0  0  0  0
    0.8170    0.0470   -3.0530 O   0  0  0  0  0  0  0  0  0  0  0  0
   -1.8260    1.3390    2.2480 C   0  0  0  0  0  0  0  0  0  0  0  0
   -2.9600    0.6070    1.9870 C   0  0  0  0  0  0  0  0  0  0  0  0
   -3.9950    0.2690    3.0130 C   0  0  0  0  0  0  0  0  0  0  0  0
   -5.1120   -1.0740    0.3740 N   0  0  0  0  0  0  0  0  0  0  0  0
  1  2  1  0
  2  3  2  0
  2 33  1  0
  3  4  1  0
  4  5  2  0
  5  6  1  0
  5 33  1  0
  6  7  1  0
  6 31  2  0
  7  8  1  0
  8  9  1  0
  8 30  2  0
  9 10  2  0
  9 11  1  0
 11 12  1  0
 11 13  1  0
 13 14  1  0
 14 15  2  0
 14 29  1  0
 15 16  1  0
 16 17  1  0
 16 28  2  0
 17 18  1  0
 18 19  1  0
 19 20  2  0
 19 26  1  0
 20 21  1  0
 21 22  1  0
 21 23  2  0
 23 24  1  0
 23 25  1  0
 25 26  2  0
 26 27  1  0
 28 29  1  0
 30 31  1  0
 31 32  1  0
M  END
