
     RDKit          3D

 46 51  0  0  0  0  0  0  0  0999 V2000
   -3.2090    0.5190    1.2910 C   0  0  0  0  0  0  0  0  0  0  0  0
   -3.8440   -0.3620    0.2610 C   0  0  0  0  0  0  0  0  0  0  0  0
   -5.1140   -0.6760    0.3270 C   0  0  0  0  0  0  0  0  0  0  0  0
   -5.7730   -1.5170   -0.6340 N   0  0  0  0  0  0  0  0  0  0  0  0
   -7.1180   -1.9380   -0.3940 C   0  0  0  0  0  0  0  0  0  0  0  0
   -7.9230   -1.2580    0.3920 C   0  0  0  0  0  0  0  0  0  0  0  0
   -8.8460   -0.6520    1.1810 C   0  0  0  0  0  0  0  0  0  0  0  0
   -8.8420    0.5120    1.8590 C   0  0  0  0  0  0  0  0  0  0  0  0
   -7.7210    1.4310    1.8350 C   0  0  0  0  0  0  0  0  0  0  0  0
   -8.3140    2.8260    1.6790 C   0  0  0  0  0  0  0  0  0  0  0  0
   -7.5940    3.6780    1.1250 O   0  0  0  0  0  0  0  0  0  0  0  0
   -9.6190    3.1400    2.1390 N   0  0  0  0  0  0  0  0  0  0  0  0
  -10.5820    2.1290    2.3530 C   0  0  0  0  0  0  0  0  0  0  0  0
  -11.8220    2.2530    2.2710 O   0  0  0  0  0  0  0  0  0  0  0  0
  -10.0200    0.7790    2.7180 C   0  0  2  0  0  0  0  0  0  0  0  0
   -9.5760    0.8710    4.1520 C   0  0  0  0  0  0  0  0  0  0  0  0
   -7.6190   -2.9370   -1.3420 N   0  0  0  0  0  0  0  0  0  0  0  0
   -6.8790   -3.3540   -2.2940 C   0  0  0  0  0  0  0  0  0  0  0  0
   -7.3680   -4.3380   -3.2370 N   0  0  0  0  0  0  0  0  0  0  0  0
   -5.5610   -2.8930   -2.4770 N   0  0  0  0  0  0  0  0  0  0  0  0
   -5.0250   -2.0230   -1.6910 C   0  0  0  0  0  0  0  0  0  0  0  0
   -3.6270   -1.7060   -1.8100 N   0  0  0  0  0  0  0  0  0  0  0  0
   -2.9520   -2.1550   -2.9870 C   0  0  0  0  0  0  0  0  0  0  0  0
   -1.4990   -1.9250   -2.9190 C   0  0  0  0  0  0  0  0  0  0  0  0
   -0.9000   -1.2210   -1.9610 C   0  0  0  0  0  0  0  0  0  0  0  0
    0.5490   -1.0230   -1.9280 C   0  0  0  0  0  0  0  0  0  0  0  0
    1.0280    0.3260   -1.9230 N   0  0  0  0  0  0  0  0  0  0  0  0
    2.4790    0.4300   -1.8310 C   0  0  0  0  0  0  0  0  0  0  0  0
    3.1190   -0.6450   -1.8080 O   0  0  0  0  0  0  0  0  0  0  0  0
    3.1300    1.6800   -1.7610 N   0  0  0  0  0  0  0  0  0  0  0  0
    4.6000    1.6740   -1.6000 C   0  0  0  0  0  0  0  0  0  0  0  0
    4.9720    0.9990   -0.3070 C   0  0  0  0  0  0  0  0  0  0  0  0
    6.4380    0.9210   -0.0590 C   0  0  0  0  0  0  0  0  0  0  0  0
    7.0900    1.9170    0.6800 C   0  0  0  0  0  0  0  0  0  0  0  0
    8.4320    1.8620    0.9480 C   0  0  0  0  0  0  0  0  0  0  0  0
    9.1050    2.9220    1.7460 C   0  0  0  0  0  0  0  0  0  0  0  0
    9.2050    0.7950    0.4860 C   0  0  0  0  0  0  0  0  0  0  0  0
    8.5510   -0.1730   -0.2400 C   0  0  0  0  0  0  0  0  0  0  0  0
    7.1930   -0.1180   -0.5110 C   0  0  0  0  0  0  0  0  0  0  0  0
    9.1690   -1.4030   -0.8450 C   0  0  0  0  0  0  0  0  0  0  0  0
   10.5130   -1.6000   -0.2370 C   0  0  0  0  0  0  0  0  0  0  0  0
   11.5400   -0.6280   -0.7530 C   0  0  0  0  0  0  0  0  0  0  0  0
   11.7310    0.5580    0.1220 C   0  0  0  0  0  0  0  0  0  0  0  0
   10.5630    0.9420    0.8780 N   0  0  0  0  0  0  0  0  0  0  0  0
   -1.7300   -0.6840   -0.8760 C   0  0  0  0  0  0  0  0  0  0  0  0
   -3.0350   -0.8860   -0.8370 C   0  0  0  0  0  0  0  0  0  0  0  0
  1  2  1  0
  2  3  2  0
  2 46  1  0
  3  4  1  0
  4  5  1  0
  4 21  1  0
  5  6  2  3
  5 17  1  0
  6  7  1  0
  7  8  2  3
  8  9  1  0
  8 15  1  0
  9 10  1  0
 10 11  2  0
 10 12  1  0
 12 13  1  0
 13 14  2  0
 13 15  1  0
 15 16  1  1
 17 18  2  0
 18 19  1  0
 18 20  1  0
 20 21  2  0
 21 22  1  0
 22 23  1  0
 22 46  1  0
 23 24  1  0
 24 25  2  0
 25 26  1  0
 25 45  1  0
 26 27  1  0
 27 28  1  0
 28 29  2  0
 28 30  1  0
 30 31  1  0
 31 32  1  0
 32 33  1  0
 33 34  2  0
 33 39  1  0
 34 35  1  0
 35 36  1  0
 35 37  2  0
 37 38  1  0
 37 44  1  0
 38 39  2  0
 38 40  1  0
 40 41  1  0
 41 42  1  0
 42 43  1  0
 43 44  1  0
 45 46  2  0
M  END
