
     RDKit          3D

 34 37  0  0  0  0  0  0  0  0999 V2000
   -3.6090    1.0740   -0.5960 O   0  0  0  0  0  0  0  0  0  0  0  0
   -3.5520    0.9740    0.6380 C   0  0  0  0  0  0  0  0  0  0  0  0
   -2.3260    1.4560    1.3540 C   0  0  0  0  0  0  0  0  0  0  0  0
   -1.3800    1.9960    0.3460 C   0  0  0  0  0  0  0  0  0  0  0  0
   -1.4890    3.3120    0.0520 N   0  0  0  0  0  0  0  0  0  0  0  0
   -0.6770    3.8910   -0.8530 C   0  0  0  0  0  0  0  0  0  0  0  0
    0.2600    3.0880   -1.4590 C   0  0  0  0  0  0  0  0  0  0  0  0
    0.3640    1.7490   -1.1530 C   0  0  0  0  0  0  0  0  0  0  0  0
    1.1780    0.7020   -1.5750 C   0  0  0  0  0  0  0  0  0  0  0  0
    0.8220   -0.4510   -0.9110 C   0  0  0  0  0  0  0  0  0  0  0  0
    1.4110   -1.8290   -1.0350 C   0  0  0  0  0  0  0  0  0  0  0  0
    2.4920   -2.0170   -0.1140 N   0  0  0  0  0  0  0  0  0  0  0  0
    3.8140   -1.4600   -0.3320 C   0  0  0  0  0  0  0  0  0  0  0  0
    3.9530   -0.8120   -1.3700 O   0  0  0  0  0  0  0  0  0  0  0  0
    4.8500   -1.6570    0.5830 N   0  0  0  0  0  0  0  0  0  0  0  0
    6.1540   -1.1540    0.4270 C   0  0  0  0  0  0  0  0  0  0  0  0
    7.0360   -1.2050    1.5250 C   0  0  0  0  0  0  0  0  0  0  0  0
    8.3190   -0.7390    1.4160 C   0  0  0  0  0  0  0  0  0  0  0  0
    8.8210   -0.2030    0.2520 C   0  0  0  0  0  0  0  0  0  0  0  0
   10.4630    0.3920    0.1170 Cl  0  0  0  0  0  0  0  0  0  0  0  0
    7.9760   -0.1590   -0.7860 N   0  0  0  0  0  0  0  0  0  0  0  0
    6.6920   -0.6140   -0.7140 C   0  0  0  0  0  0  0  0  0  0  0  0
   -0.1950   -0.1000   -0.0980 N   0  0  0  0  0  0  0  0  0  0  0  0
   -0.4670    1.2060   -0.2410 N   0  0  0  0  0  0  0  0  0  0  0  0
   -4.5950    0.4230    1.4070 N   0  0  0  0  0  0  0  0  0  0  0  0
   -5.8090   -0.0730    0.9230 C   0  0  0  0  0  0  0  0  0  0  0  0
   -6.2230    0.0990   -0.3670 C   0  0  0  0  0  0  0  0  0  0  0  0
   -7.4450   -0.4260   -0.8140 C   0  0  0  0  0  0  0  0  0  0  0  0
   -7.8170   -0.2280   -2.1130 F   0  0  0  0  0  0  0  0  0  0  0  0
   -8.2650   -1.1290    0.0270 C   0  0  0  0  0  0  0  0  0  0  0  0
   -9.7770   -1.7780   -0.5240 Cl  0  0  0  0  0  0  0  0  0  0  0  0
   -7.8460   -1.3040    1.3360 C   0  0  0  0  0  0  0  0  0  0  0  0
   -8.6520   -1.9950    2.1680 F   0  0  0  0  0  0  0  0  0  0  0  0
   -6.6630   -0.7950    1.7670 C   0  0  0  0  0  0  0  0  0  0  0  0
  1  2  2  0
  2  3  1  0
  2 25  1  0
  3  4  1  0
  4  5  2  0
  4 24  1  0
  5  6  1  0
  6  7  2  0
  7  8  1  0
  8  9  2  0
  8 24  1  0
  9 10  1  0
 10 11  1  0
 10 23  2  0
 11 12  1  0
 12 13  1  0
 13 14  2  0
 13 15  1  0
 15 16  1  0
 16 17  2  0
 16 22  1  0
 17 18  1  0
 18 19  2  0
 19 20  1  0
 19 21  1  0
 21 22  2  0
 23 24  1  0
 25 26  1  0
 26 27  2  0
 26 34  1  0
 27 28  1  0
 28 29  1  0
 28 30  2  0
 30 31  1  0
 30 32  1  0
 32 33  1  0
 32 34  2  0
M  END
