
     RDKit          3D

 46 48  0  0  0  0  0  0  0  0999 V2000
    0.3800    3.4860    4.0860 C   0  0  0  0  0  0  0  0  0  0  0  0
    0.8650    2.2920    3.2500 C   0  0  0  0  0  0  0  0  0  0  0  0
   -0.1920    1.2360    3.2320 C   0  0  0  0  0  0  0  0  0  0  0  0
    0.0700   -0.0110    2.5030 C   0  0  0  0  0  0  0  0  0  0  0  0
    0.2670   -0.0060    1.0300 C   0  0  2  0  0  0  0  0  0  0  0  0
    1.3870    0.7890    0.6280 N   0  0  0  0  0  0  0  0  0  0  0  0
    2.7430    0.3350    0.6220 C   0  0  0  0  0  0  0  0  0  0  0  0
    2.9370   -0.8460    1.0010 O   0  0  0  0  0  0  0  0  0  0  0  0
    3.8690    1.1670    0.2050 C   0  0  2  0  0  0  0  0  0  0  0  0
    3.7570    1.5820   -1.2630 C   0  0  0  0  0  0  0  0  0  0  0  0
    3.7370    0.4330   -2.1600 C   0  0  0  0  0  0  0  0  0  0  0  0
    4.9120   -0.0690   -2.6700 C   0  0  0  0  0  0  0  0  0  0  0  0
    4.8670   -1.1680   -3.5240 C   0  0  0  0  0  0  0  0  0  0  0  0
    3.6780   -1.7660   -3.8720 C   0  0  0  0  0  0  0  0  0  0  0  0
    2.5090   -1.2650   -3.3630 C   0  0  0  0  0  0  0  0  0  0  0  0
    2.5580   -0.1700   -2.5130 C   0  0  0  0  0  0  0  0  0  0  0  0
    5.1210    0.4080    0.3500 N   0  0  0  0  0  0  0  0  0  0  0  0
    6.2760    0.9550    0.9320 C   0  0  0  0  0  0  0  0  0  0  0  0
    6.2090    2.1660    1.3400 O   0  0  0  0  0  0  0  0  0  0  0  0
    7.5090    0.2880    1.1080 N   0  0  0  0  0  0  0  0  0  0  0  0
    7.6390   -1.0840    0.6770 C   0  0  0  0  0  0  0  0  0  0  0  0
    9.1030   -1.3110    0.2740 C   0  0  0  0  0  0  0  0  0  0  0  0
    9.6360   -0.0960   -0.2120 O   0  0  0  0  0  0  0  0  0  0  0  0
    9.8810    0.7090    0.8930 C   0  0  0  0  0  0  0  0  0  0  0  0
    8.6430    0.9410    1.7110 C   0  0  0  0  0  0  0  0  0  0  0  0
   -0.9760    0.3500    0.2890 C   0  0  0  0  0  0  0  0  0  0  0  0
   -0.9550    1.2780   -0.5490 O   0  0  0  0  0  0  0  0  0  0  0  0
   -2.1590   -0.3460    0.5270 N   0  0  0  0  0  0  0  0  0  0  0  0
   -3.4320   -0.0020   -0.1980 C   0  0  1  0  0  0  0  0  0  0  0  0
   -3.7190   -1.0110   -1.1810 C   0  0  0  0  0  0  0  0  0  0  0  0
   -4.7960   -1.1190   -2.1320 C   0  0  1  0  0  0  0  0  0  0  0  0
   -6.1640   -1.2400   -1.5410 C   0  0  0  0  0  0  0  0  0  0  0  0
   -7.0690   -1.8500   -2.6670 C   0  0  0  0  0  0  0  0  0  0  0  0
   -7.2000   -0.7660   -3.6850 C   0  0  0  0  0  0  0  0  0  0  0  0
   -6.2330    0.3670   -3.4710 C   0  0  0  0  0  0  0  0  0  0  0  0
   -4.8170   -0.1200   -3.2600 C   0  0  0  0  0  0  0  0  0  0  0  0
   -4.3110    0.5360    0.8360 C   0  0  1  0  0  0  0  0  0  0  0  0
   -3.5810    1.7190    1.3330 O   0  0  0  0  0  0  0  0  0  0  0  0
   -5.5130    1.0990    0.4660 O   0  0  0  0  0  0  0  0  0  0  0  0
   -4.5290   -0.2180    2.1060 C   0  0  2  0  0  0  0  0  0  0  0  0
   -5.4040    0.6040    2.8950 F   0  0  0  0  0  0  0  0  0  0  0  0
   -3.4470   -0.3580    2.9200 F   0  0  0  0  0  0  0  0  0  0  0  0
   -5.3480   -1.4420    1.9440 C   0  0  0  0  0  0  0  0  0  0  0  0
   -4.9030   -2.6020    1.9500 O   0  0  0  0  0  0  0  0  0  0  0  0
   -6.7760   -1.3320    1.7650 N   0  0  0  0  0  0  0  0  0  0  0  0
   -7.6410   -2.4810    1.6050 C   0  0  0  0  0  0  0  0  0  0  0  0
  1  2  1  0
  2  3  1  0
  3  4  1  0
  5  4  1  1
  5  6  1  0
  5 26  1  0
  6  7  1  0
  7  8  2  0
  7  9  1  0
  9 10  1  6
  9 17  1  0
 10 11  1  0
 11 12  2  0
 11 16  1  0
 12 13  1  0
 13 14  2  0
 14 15  1  0
 15 16  2  0
 17 18  1  0
 18 19  2  0
 18 20  1  0
 20 21  1  0
 20 25  1  0
 21 22  1  0
 22 23  1  0
 23 24  1  0
 24 25  1  0
 26 27  2  0
 26 28  1  0
 28 29  1  0
 29 30  1  1
 29 37  1  0
 31 30  1  1
 31 32  1  0
 31 36  1  0
 32 33  1  0
 33 34  1  0
 34 35  1  0
 35 36  1  0
 37 38  1  1
 37 39  1  0
 37 40  1  0
 40 41  1  1
 40 42  1  0
 40 43  1  0
 43 44  2  0
 43 45  1  0
 45 46  1  0
M  END
