
     RDKit          3D

 34 37  0  0  0  0  0  0  0  0999 V2000
    8.3300    2.3420   -0.6050 C   0  0  0  0  0  0  0  0  0  0  0  0
    7.1290    1.4990   -0.2700 C   0  0  0  0  0  0  0  0  0  0  0  0
    6.3730    1.5620    0.8840 C   0  0  0  0  0  0  0  0  0  0  0  0
    5.3610    0.6300    0.8090 C   0  0  0  0  0  0  0  0  0  0  0  0
    4.2950    0.3170    1.7870 C   0  0  0  0  0  0  0  0  0  0  0  0
    3.4500   -0.7420    1.3300 N   0  0  0  0  0  0  0  0  0  0  0  0
    3.9970   -2.0510    1.0980 C   0  0  0  0  0  0  0  0  0  0  0  0
    2.0640   -0.4280    1.1200 C   0  0  0  0  0  0  0  0  0  0  0  0
    1.4620   -0.8050    0.0150 C   0  0  0  0  0  0  0  0  0  0  0  0
    2.3560   -1.6870   -1.1910 Cl  0  0  0  0  0  0  0  0  0  0  0  0
    0.0830   -0.5020   -0.2180 N   0  0  0  0  0  0  0  0  0  0  0  0
   -0.8480   -1.5450   -0.4060 C   0  0  0  0  0  0  0  0  0  0  0  0
   -0.3440   -2.7290   -0.3680 O   0  0  0  0  0  0  0  0  0  0  0  0
   -2.2670   -1.3870   -0.6370 C   0  0  0  0  0  0  0  0  0  0  0  0
   -3.0510   -0.4470   -0.0270 C   0  0  0  0  0  0  0  0  0  0  0  0
   -2.5350    0.2980    0.9870 N   0  0  0  0  0  0  0  0  0  0  0  0
   -3.3150    1.1960    1.6280 C   0  0  0  0  0  0  0  0  0  0  0  0
   -2.8200    1.9030    2.5920 N   0  0  0  0  0  0  0  0  0  0  0  0
   -4.6360    1.3860    1.2840 C   0  0  0  0  0  0  0  0  0  0  0  0
   -5.1740    0.6210    0.2390 C   0  0  0  0  0  0  0  0  0  0  0  0
   -6.5430    0.8890   -0.1790 C   0  0  0  0  0  0  0  0  0  0  0  0
   -6.7060    1.9320   -1.2570 C   0  0  2  0  0  0  0  0  0  0  0  0
   -6.2150    3.1660   -0.8260 F   0  0  0  0  0  0  0  0  0  0  0  0
   -8.0590    2.0110   -1.5370 F   0  0  0  0  0  0  0  0  0  0  0  0
   -5.8510    1.5570   -2.7420 Cl  0  0  0  0  0  0  0  0  0  0  0  0
   -4.3930   -0.2980   -0.4200 C   0  0  0  0  0  0  0  0  0  0  0  0
   -4.9070   -1.1130   -1.4130 C   0  0  0  0  0  0  0  0  0  0  0  0
   -4.1370   -2.0730   -2.0410 C   0  0  0  0  0  0  0  0  0  0  0  0
   -4.3770   -3.0060   -3.0420 C   0  0  0  0  0  0  0  0  0  0  0  0
   -3.2010   -3.6410   -3.1950 N   0  0  0  0  0  0  0  0  0  0  0  0
   -2.3130   -3.1620   -2.3800 O   0  0  0  0  0  0  0  0  0  0  0  0
   -2.8270   -2.1970   -1.6450 C   0  0  0  0  0  0  0  0  0  0  0  0
    5.5220    0.0280   -0.3770 N   0  0  0  0  0  0  0  0  0  0  0  0
    6.5640    0.5350   -1.0220 N   0  0  0  0  0  0  0  0  0  0  0  0
  1  2  1  0
  2  3  2  0
  2 34  1  0
  3  4  1  0
  4  5  1  0
  4 33  2  0
  5  6  1  0
  6  7  1  0
  6  8  1  0
  8  9  2  3
  9 10  1  0
  9 11  1  0
 11 12  1  0
 12 13  2  0
 12 14  1  0
 14 15  2  0
 14 32  1  0
 15 16  1  0
 15 26  1  0
 16 17  1  0
 17 18  2  0
 17 19  1  0
 19 20  2  0
 20 21  1  0
 20 26  1  0
 21 22  1  0
 22 23  1  1
 22 24  1  0
 22 25  1  0
 26 27  2  0
 27 28  1  0
 28 29  1  0
 28 32  2  0
 29 30  2  0
 30 31  1  0
 31 32  1  0
 33 34  1  0
M  END
