
     RDKit          3D

 34 37  0  0  0  0  0  0  0  0999 V2000
    3.5290   -0.2400   -0.7520 O   0  0  0  0  0  0  0  0  0  0  0  0
    3.5130    0.3190   -1.8800 C   0  0  0  0  0  0  0  0  0  0  0  0
    2.2370    0.6260   -2.4710 N   0  0  0  0  0  0  0  0  0  0  0  0
    1.0530    0.3030   -1.8080 N   0  0  0  0  0  0  0  0  0  0  0  0
    0.2900    1.2590   -1.0910 C   0  0  0  0  0  0  0  0  0  0  0  0
    0.7180    2.4360   -1.0650 O   0  0  0  0  0  0  0  0  0  0  0  0
   -0.9600    0.8570   -0.4090 C   0  0  0  0  0  0  0  0  0  0  0  0
   -1.7270    1.7460    0.3030 C   0  0  0  0  0  0  0  0  0  0  0  0
   -2.9140    1.3840    0.9510 C   0  0  0  0  0  0  0  0  0  0  0  0
   -3.6940    2.3340    1.6430 N   0  0  0  0  0  0  0  0  0  0  0  0
   -3.2530    3.7050    1.9230 C   0  0  0  0  0  0  0  0  0  0  0  0
   -2.1670    3.6520    2.9410 C   0  0  0  0  0  0  0  0  0  0  0  0
   -2.8130    2.8720    4.4250 Cl  0  0  0  0  0  0  0  0  0  0  0  0
   -3.3300    0.0780    0.8700 C   0  0  0  0  0  0  0  0  0  0  0  0
   -4.4930   -0.3900    1.4820 C   0  0  0  0  0  0  0  0  0  0  0  0
   -4.8850   -1.7130    1.3860 C   0  0  0  0  0  0  0  0  0  0  0  0
   -5.9430   -2.4320    1.8660 C   0  0  0  0  0  0  0  0  0  0  0  0
   -5.7860   -3.7280    1.4330 C   0  0  0  0  0  0  0  0  0  0  0  0
   -4.6540   -3.7700    0.7100 N   0  0  0  0  0  0  0  0  0  0  0  0
   -4.1240   -4.9710    0.0750 C   0  0  0  0  0  0  0  0  0  0  0  0
   -3.2880   -5.6140    0.9900 F   0  0  0  0  0  0  0  0  0  0  0  0
   -4.0610   -2.5490    0.6520 C   0  0  0  0  0  0  0  0  0  0  0  0
   -2.9450   -2.0840    0.0690 N   0  0  0  0  0  0  0  0  0  0  0  0
   -2.5480   -0.8070    0.1500 C   0  0  0  0  0  0  0  0  0  0  0  0
   -1.3900   -0.4100   -0.4710 N   0  0  0  0  0  0  0  0  0  0  0  0
    4.7300    0.6160   -2.5090 N   0  0  0  0  0  0  0  0  0  0  0  0
    6.0280    0.3700   -2.0300 C   0  0  0  0  0  0  0  0  0  0  0  0
    6.3350    0.0270   -0.7390 C   0  0  0  0  0  0  0  0  0  0  0  0
    7.6460   -0.2300   -0.3140 C   0  0  0  0  0  0  0  0  0  0  0  0
    7.9230   -0.5690    0.9700 F   0  0  0  0  0  0  0  0  0  0  0  0
    8.6950   -0.1430   -1.2000 C   0  0  0  0  0  0  0  0  0  0  0  0
    8.4110    0.2030   -2.5090 C   0  0  0  0  0  0  0  0  0  0  0  0
    9.7680    0.3060   -3.6320 Cl  0  0  0  0  0  0  0  0  0  0  0  0
    7.1240    0.4500   -2.9080 C   0  0  0  0  0  0  0  0  0  0  0  0
  1  2  2  0
  2  3  1  0
  2 26  1  0
  3  4  1  0
  4  5  1  0
  5  6  2  0
  5  7  1  0
  7  8  2  0
  7 25  1  0
  8  9  1  0
  9 10  1  0
  9 14  2  0
 10 11  1  0
 11 12  1  0
 12 13  1  0
 14 15  1  0
 14 24  1  0
 15 16  2  0
 16 17  1  0
 16 22  1  0
 17 18  2  0
 18 19  1  0
 19 20  1  0
 19 22  1  0
 20 21  1  0
 22 23  2  0
 23 24  1  0
 24 25  2  0
 26 27  1  0
 27 28  2  0
 27 34  1  0
 28 29  1  0
 29 30  1  0
 29 31  2  0
 31 32  1  0
 32 33  1  0
 32 34  2  0
M  END
