
     RDKit          3D

 33 36  0  0  0  0  0  0  0  0999 V2000
   -8.4040   -0.5330   -0.6190 C   0  0  0  0  0  0  0  0  0  0  0  0
   -7.2490   -0.6830    0.2930 C   0  0  0  0  0  0  0  0  0  0  0  0
   -6.0420   -0.1920   -0.0570 N   0  0  0  0  0  0  0  0  0  0  0  0
   -4.9700   -0.2980    0.7220 C   0  0  0  0  0  0  0  0  0  0  0  0
   -3.6540    0.2460    0.3230 C   0  0  0  0  0  0  0  0  0  0  0  0
   -2.5410    0.2070    0.9780 O   0  0  0  0  0  0  0  0  0  0  0  0
   -1.5490    0.7800    0.3530 C   0  0  0  0  0  0  0  0  0  0  0  0
   -0.1330    0.9310    0.7890 C   0  0  0  0  0  0  0  0  0  0  0  0
    0.7680    0.5410   -0.3070 N   0  0  0  0  0  0  0  0  0  0  0  0
    2.1290    0.7180    0.2030 C   0  0  0  0  0  0  0  0  0  0  0  0
    3.1020    0.3520   -0.8460 C   0  0  0  0  0  0  0  0  0  0  0  0
    2.6690   -0.0740   -2.0740 C   0  0  0  0  0  0  0  0  0  0  0  0
    3.5920   -0.3970   -3.0020 N   0  0  0  0  0  0  0  0  0  0  0  0
    4.9230   -0.3120   -2.7580 C   0  0  0  0  0  0  0  0  0  0  0  0
    5.3110    0.1100   -1.5430 N   0  0  0  0  0  0  0  0  0  0  0  0
    4.4410    0.4440   -0.5790 C   0  0  0  0  0  0  0  0  0  0  0  0
    4.8510    0.8900    0.7030 N   0  0  0  0  0  0  0  0  0  0  0  0
    6.2460    0.9780    0.9570 C   0  0  0  0  0  0  0  0  0  0  0  0
    6.9790   -0.1150    0.9630 C   0  0  0  0  0  0  0  0  0  0  0  0
    6.4900   -1.4620    0.7270 C   0  0  0  0  0  0  0  0  0  0  0  0
    7.4800   -2.3110    0.8040 N   0  0  0  0  0  0  0  0  0  0  0  0
    8.6670   -1.6450    1.0860 N   0  0  0  0  0  0  0  0  0  0  0  0
    8.4090   -0.2400    1.1990 C   0  0  0  0  0  0  0  0  0  0  0  0
    9.1920    0.6860    1.4390 O   0  0  0  0  0  0  0  0  0  0  0  0
   -2.0760    1.2490   -0.8520 C   0  0  0  0  0  0  0  0  0  0  0  0
   -3.4040    0.9070   -0.8620 C   0  0  0  0  0  0  0  0  0  0  0  0
   -4.3900    1.1950   -1.9460 C   0  0  0  0  0  0  0  0  0  0  0  0
   -5.4740    2.5310   -1.5190 Cl  0  0  0  0  0  0  0  0  0  0  0  0
   -5.0680   -0.9310    1.9440 C   0  0  0  0  0  0  0  0  0  0  0  0
   -3.6760   -1.0840    2.9890 Cl  0  0  0  0  0  0  0  0  0  0  0  0
   -6.3040   -1.4390    2.3130 C   0  0  0  0  0  0  0  0  0  0  0  0
   -7.4170   -1.3290    1.5040 C   0  0  0  0  0  0  0  0  0  0  0  0
   -8.6350   -1.8250    1.8580 F   0  0  0  0  0  0  0  0  0  0  0  0
  1  2  1  0
  2  3  2  0
  2 32  1  0
  3  4  1  0
  4  5  1  0
  4 29  2  0
  5  6  1  0
  5 26  2  0
  6  7  1  0
  7  8  1  0
  7 25  2  0
  8  9  1  0
  9 10  1  0
 10 11  1  0
 11 12  2  0
 11 16  1  0
 12 13  1  0
 13 14  2  0
 14 15  1  0
 15 16  2  0
 16 17  1  0
 17 18  1  0
 18 19  2  3
 19 20  1  0
 19 23  1  0
 20 21  2  0
 21 22  1  0
 22 23  1  0
 23 24  2  0
 25 26  1  0
 26 27  1  0
 27 28  1  0
 29 30  1  0
 29 31  1  0
 31 32  2  0
 32 33  1  0
M  END
