
     RDKit          3D

 34 37  0  0  0  0  0  0  0  0999 V2000
    5.8510    0.5680   -3.7060 C   0  0  0  0  0  0  0  0  0  0  0  0
    6.2100   -0.2270   -2.7410 C   0  0  0  0  0  0  0  0  0  0  0  0
    7.8520   -0.8620   -2.8470 Cl  0  0  0  0  0  0  0  0  0  0  0  0
    5.3690   -0.5990   -1.6360 C   0  0  0  0  0  0  0  0  0  0  0  0
    5.7150   -1.3990   -0.6530 C   0  0  0  0  0  0  0  0  0  0  0  0
    6.9630   -2.0790   -0.4360 C   0  0  2  0  0  0  0  0  0  0  0  0
    8.0730   -1.3010   -0.2510 F   0  0  0  0  0  0  0  0  0  0  0  0
    7.2090   -3.0140   -1.4330 F   0  0  0  0  0  0  0  0  0  0  0  0
    6.8370   -3.0320    1.1260 Cl  0  0  0  0  0  0  0  0  0  0  0  0
    4.0070   -0.0780   -1.5400 N   0  0  0  0  0  0  0  0  0  0  0  0
    3.3960    0.7170   -2.3510 N   0  0  0  0  0  0  0  0  0  0  0  0
    2.1460    0.9520   -1.8910 C   0  0  0  0  0  0  0  0  0  0  0  0
    2.0110    0.2460   -0.7290 C   0  0  0  0  0  0  0  0  0  0  0  0
    0.8250    0.1830    0.1540 C   0  0  0  0  0  0  0  0  0  0  0  0
    0.6960   -0.8760    0.8140 O   0  0  0  0  0  0  0  0  0  0  0  0
   -0.0570    1.2810    0.2000 N   0  0  0  0  0  0  0  0  0  0  0  0
    0.1700    2.3780   -0.5350 N   0  0  0  0  0  0  0  0  0  0  0  0
   -0.7880    3.2890   -0.3300 C   0  0  0  0  0  0  0  0  0  0  0  0
   -0.8820    4.6040   -0.9510 C   0  0  0  0  0  0  0  0  0  0  0  0
   -1.9680    5.4430   -0.6200 N   0  0  0  0  0  0  0  0  0  0  0  0
    0.0050    4.9480   -1.7590 O   0  0  0  0  0  0  0  0  0  0  0  0
   -1.6690    2.7510    0.5770 C   0  0  0  0  0  0  0  0  0  0  0  0
   -2.8250    2.9820    1.2810 C   0  0  0  0  0  0  0  0  0  0  0  0
   -3.0340    1.8700    2.0110 C   0  0  0  0  0  0  0  0  0  0  0  0
   -2.0490    0.9430    1.7930 N   0  0  0  0  0  0  0  0  0  0  0  0
   -1.9480   -0.3460    2.3720 C   0  0  0  0  0  0  0  0  0  0  0  0
   -2.6330   -1.4530    1.6940 C   0  0  2  0  0  0  0  0  0  0  0  0
   -2.2820   -1.7870    0.3020 C   0  0  0  0  0  0  0  0  0  0  0  0
   -3.5410   -2.2940   -0.4080 C   0  0  0  0  0  0  0  0  0  0  0  0
   -4.2300   -3.2900    0.4970 C   0  0  0  0  0  0  0  0  0  0  0  0
   -4.7300   -2.6930    1.7720 C   0  0  0  0  0  0  0  0  0  0  0  0
   -4.1480   -1.2930    1.8970 C   0  0  0  0  0  0  0  0  0  0  0  0
   -1.1990    1.4770    0.9080 C   0  0  0  0  0  0  0  0  0  0  0  0
    3.1720   -0.3860   -0.5250 N   0  0  0  0  0  0  0  0  0  0  0  0
  1  2  2  0
  2  3  1  0
  2  4  1  0
  4  5  2  3
  4 10  1  0
  5  6  1  0
  6  7  1  1
  6  8  1  0
  6  9  1  0
 10 11  1  0
 10 34  1  0
 11 12  2  0
 12 13  1  0
 13 14  1  0
 13 34  2  0
 14 15  2  0
 14 16  1  0
 16 17  1  0
 16 33  1  0
 17 18  2  0
 18 19  1  0
 18 22  1  0
 19 20  1  0
 19 21  2  0
 22 23  1  0
 22 33  2  0
 23 24  2  0
 24 25  1  0
 25 26  1  0
 25 33  1  0
 27 26  1  6
 27 28  1  0
 27 32  1  0
 28 29  1  0
 29 30  1  0
 30 31  1  0
 31 32  1  0
M  END
