
     RDKit          3D

 10  9  0  0  0  0  0  0  0  0999 V2000
    3.0670    0.2250    0.7630 C   0  0  0  0  0  0  0  0  0  0  0  0
    2.3550   -1.0940    0.8660 C   0  0  0  0  0  0  0  0  0  0  0  0
    1.0710   -1.0760    0.3920 O   0  0  0  0  0  0  0  0  0  0  0  0
    0.9480   -0.7360   -0.9310 C   0  0  0  0  0  0  0  0  0  0  0  0
   -0.4270   -0.7660   -1.2500 O   0  0  0  0  0  0  0  0  0  0  0  0
   -1.1110    0.1270   -0.4660 C   0  0  1  0  0  0  0  0  0  0  0  0
   -1.8380    1.1900   -1.2600 C   0  0  0  0  0  0  0  0  0  0  0  0
   -2.4770    2.0100   -0.3000 O   0  0  0  0  0  0  0  0  0  0  0  0
   -2.1940   -0.6280    0.3190 C   0  0  0  0  0  0  0  0  0  0  0  0
   -2.8410    0.3450    1.0890 O   0  0  0  0  0  0  0  0  0  0  0  0
  1  2  1  0
  2  3  1  0
  3  4  1  0
  4  5  1  0
  5  6  1  0
  6  7  1  6
  6  9  1  0
  7  8  1  0
  9 10  1  0
M  END
