
     RDKit          3D

 10  9  0  0  0  0  0  0  0  0999 V2000
    3.9510   -0.4180    0.6830 O   0  0  0  0  0  0  0  0  0  0  0  0
    2.8810   -0.9300   -0.0470 C   0  0  0  0  0  0  0  0  0  0  0  0
    2.1610    0.1580   -0.7970 C   0  0  0  0  0  0  0  0  0  0  0  0
    1.6040    1.2160    0.1280 C   0  0  0  0  0  0  0  0  0  0  0  0
    0.7020    0.7270    1.0440 O   0  0  0  0  0  0  0  0  0  0  0  0
   -0.4090    0.1370    0.4440 C   0  0  0  0  0  0  0  0  0  0  0  0
   -1.3030   -0.3460    1.3970 O   0  0  0  0  0  0  0  0  0  0  0  0
   -2.4050   -0.9330    0.8350 C   0  0  0  0  0  0  0  0  0  0  0  0
   -3.2270   -0.0210   -0.0420 C   0  0  0  0  0  0  0  0  0  0  0  0
   -3.7190    1.0740    0.6210 O   0  0  0  0  0  0  0  0  0  0  0  0
  1  2  1  0
  2  3  1  0
  3  4  1  0
  4  5  1  0
  5  6  1  0
  6  7  1  0
  7  8  1  0
  8  9  1  0
  9 10  1  0
M  END
