
     RDKit          3D

 10  9  0  0  0  0  0  0  0  0999 V2000
    3.8890    1.1790    0.4990 C   0  0  0  0  0  0  0  0  0  0  0  0
    3.0290    0.0970   -0.0770 C   0  0  0  0  0  0  0  0  0  0  0  0
    1.7210    0.2760    0.3290 O   0  0  0  0  0  0  0  0  0  0  0  0
    0.8750   -0.7050   -0.1790 C   0  0  0  0  0  0  0  0  0  0  0  0
   -0.5150   -0.4670    0.2860 C   0  0  0  0  0  0  0  0  0  0  0  0
   -0.8030    0.5200    1.0400 O   0  0  0  0  0  0  0  0  0  0  0  0
   -1.5590   -1.2910   -0.0690 O   0  0  0  0  0  0  0  0  0  0  0  0
   -2.8700   -1.0820    0.3570 C   0  0  0  0  0  0  0  0  0  0  0  0
   -3.4520    0.2360   -0.0640 C   0  0  0  0  0  0  0  0  0  0  0  0
   -3.4920    0.3940   -1.4420 O   0  0  0  0  0  0  0  0  0  0  0  0
  1  2  1  0
  2  3  1  0
  3  4  1  0
  4  5  1  0
  5  6  2  0
  5  7  1  0
  7  8  1  0
  8  9  1  0
  9 10  1  0
M  END
