
     RDKit          3D

 10  9  0  0  0  0  0  0  0  0999 V2000
    2.9770    2.0370   -0.0050 C   0  0  0  0  0  0  0  0  0  0  0  0
    1.8300    1.2690    0.1450 O   0  0  0  0  0  0  0  0  0  0  0  0
    2.1370   -0.0690   -0.0660 C   0  0  0  0  0  0  0  0  0  0  0  0
    0.8820   -0.9140    0.0970 C   0  0  0  0  0  0  0  0  0  0  0  0
   -0.0790   -0.5160   -0.8220 O   0  0  0  0  0  0  0  0  0  0  0  0
   -1.2140   -1.2940   -0.6600 C   0  0  2  0  0  0  0  0  0  0  0  0
   -1.4310   -2.0270   -1.8300 O   0  0  0  0  0  0  0  0  0  0  0  0
   -2.4390   -0.4500   -0.3730 C   0  0  0  0  0  0  0  0  0  0  0  0
   -2.2930    0.3630    0.8720 C   0  0  0  0  0  0  0  0  0  0  0  0
   -1.2050    1.2390    0.7750 O   0  0  0  0  0  0  0  0  0  0  0  0
  1  2  1  0
  2  3  1  0
  3  4  1  0
  4  5  1  0
  5  6  1  0
  6  7  1  6
  6  8  1  0
  8  9  1  0
  9 10  1  0
M  END
