
     RDKit          3D

 10  9  0  0  0  0  0  0  0  0999 V2000
    3.7260   -1.3600    0.7570 C   0  0  0  0  0  0  0  0  0  0  0  0
    2.5740   -0.5910    0.8380 O   0  0  0  0  0  0  0  0  0  0  0  0
    2.5980    0.4960   -0.0310 C   0  0  0  0  0  0  0  0  0  0  0  0
    1.3890    1.1780    0.1520 O   0  0  0  0  0  0  0  0  0  0  0  0
    0.3760    0.2790   -0.1590 C   0  0  0  0  0  0  0  0  0  0  0  0
   -1.0000    0.8870   -0.0040 C   0  0  0  0  0  0  0  0  0  0  0  0
   -2.0170   -0.1710   -0.3640 C   0  0  1  0  0  0  0  0  0  0  0  0
   -1.8490   -1.2470    0.5030 O   0  0  0  0  0  0  0  0  0  0  0  0
   -3.4220    0.4180   -0.1880 C   0  0  0  0  0  0  0  0  0  0  0  0
   -3.6070    0.8580    1.1150 O   0  0  0  0  0  0  0  0  0  0  0  0
  1  2  1  0
  2  3  1  0
  3  4  1  0
  4  5  1  0
  5  6  1  0
  6  7  1  0
  7  8  1  1
  7  9  1  0
  9 10  1  0
M  END
