
     RDKit          3D

 24 24  0  0  0  0  0  0  0  0999 V2000
    9.8890   -0.9900    1.8360 C   0  0  0  0  0  0  0  0  0  0  0  0
    8.7500   -0.3940    2.6160 C   0  0  0  0  0  0  0  0  0  0  0  0
    7.5410   -0.5720    1.8380 N   0  0  0  0  0  0  0  0  0  0  0  0
    6.2590   -0.0560    2.3850 C   0  0  0  0  0  0  0  0  0  0  0  0
    6.4190    0.4760    3.4880 O   0  0  0  0  0  0  0  0  0  0  0  0
    5.0960   -0.2410    1.6010 C   0  0  0  0  0  0  0  0  0  0  0  0
    3.8730    0.1430    1.9110 C   0  0  0  0  0  0  0  0  0  0  0  0
    3.5900    0.8320    3.1670 C   0  0  0  0  0  0  0  0  0  0  0  0
    2.8000   -0.1080    0.9090 C   0  0  0  0  0  0  0  0  0  0  0  0
    1.5290    0.2430    1.1770 C   0  0  0  0  0  0  0  0  0  0  0  0
    0.4770    0.0270    0.2310 C   0  0  0  0  0  0  0  0  0  0  0  0
   -0.7670    0.2960    0.4360 C   0  0  0  0  0  0  0  0  0  0  0  0
   -1.2610    0.8830    1.7360 C   0  0  0  0  0  0  0  0  0  0  0  0
   -1.8230    0.0510   -0.5700 C   0  0  0  0  0  0  0  0  0  0  0  0
   -3.0750    0.3260   -0.3750 C   0  0  0  0  0  0  0  0  0  0  0  0
   -4.1900    0.1250   -1.2940 C   0  0  0  0  0  0  0  0  0  0  0  0
   -5.3900    0.4980   -0.8910 C   0  0  0  0  0  0  0  0  0  0  0  0
   -5.5350    1.1110    0.4880 C   0  0  0  0  0  0  0  0  0  0  0  0
   -6.6280    0.3290   -1.6730 C   0  0  0  0  0  0  0  0  0  0  0  0
   -6.3070    0.3460   -3.1300 C   0  0  0  0  0  0  0  0  0  0  0  0
   -5.1930   -0.6000   -3.4760 C   0  0  0  0  0  0  0  0  0  0  0  0
   -3.9710   -0.4800   -2.6400 C   0  0  2  0  0  0  0  0  0  0  0  0
   -3.4120   -1.8900   -2.4760 C   0  0  0  0  0  0  0  0  0  0  0  0
   -2.9400    0.3420   -3.3950 C   0  0  0  0  0  0  0  0  0  0  0  0
  1  2  1  0
  2  3  1  0
  3  4  1  0
  4  5  2  0
  4  6  1  0
  6  7  2  3
  7  8  1  0
  7  9  1  0
  9 10  2  3
 10 11  1  0
 11 12  2  3
 12 13  1  0
 12 14  1  0
 14 15  2  3
 15 16  1  0
 16 17  2  0
 16 22  1  0
 17 18  1  0
 17 19  1  0
 19 20  1  0
 20 21  1  0
 21 22  1  0
 22 23  1  1
 22 24  1  0
M  END
