
     RDKit          3D

 10  9  0  0  0  0  0  0  0  0999 V2000
   -4.5380   -0.6020   -0.6130 O   0  0  0  0  0  0  0  0  0  0  0  0
   -3.2060   -0.5760   -1.0580 C   0  0  0  0  0  0  0  0  0  0  0  0
   -2.3770   -0.0520    0.0880 C   0  0  0  0  0  0  0  0  0  0  0  0
   -1.0260    0.0240   -0.2250 O   0  0  0  0  0  0  0  0  0  0  0  0
   -0.3820    0.5220    0.9200 C   0  0  0  0  0  0  0  0  0  0  0  0
    1.1300    0.6410    0.6660 C   0  0  0  0  0  0  0  0  0  0  0  0
    1.5990   -0.7330    0.3480 C   0  0  0  0  0  0  0  0  0  0  0  0
    2.9170   -0.8800    0.1270 O   0  0  0  0  0  0  0  0  0  0  0  0
    3.4880   -0.2040   -0.9020 C   0  0  0  0  0  0  0  0  0  0  0  0
    3.3650    1.1500   -0.7520 O   0  0  0  0  0  0  0  0  0  0  0  0
  1  2  1  0
  2  3  1  0
  3  4  1  0
  4  5  1  0
  5  6  1  0
  6  7  1  0
  7  8  1  0
  8  9  1  0
  9 10  1  0
M  END
