
     RDKit          3D

 10  9  0  0  0  0  0  0  0  0999 V2000
   -3.7910    0.4680   -0.1560 C   0  0  0  0  0  0  0  0  0  0  0  0
   -2.4250   -0.1530    0.1360 C   0  0  1  0  0  0  0  0  0  0  0  0
   -2.3770   -1.3610   -0.5370 O   0  0  0  0  0  0  0  0  0  0  0  0
   -1.3290    0.8050   -0.2440 C   0  0  0  0  0  0  0  0  0  0  0  0
   -0.1080    0.3130    0.0490 O   0  0  0  0  0  0  0  0  0  0  0  0
    0.3230   -0.8420   -0.5100 C   0  0  0  0  0  0  0  0  0  0  0  0
    1.6400   -1.0450    0.0050 O   0  0  0  0  0  0  0  0  0  0  0  0
    2.4520    0.0290   -0.3550 C   0  0  0  0  0  0  0  0  0  0  0  0
    3.8300   -0.2860    0.2420 C   0  0  0  0  0  0  0  0  0  0  0  0
    4.7400    0.7110   -0.0450 O   0  0  0  0  0  0  0  0  0  0  0  0
  2  1  1  6
  2  3  1  0
  2  4  1  0
  4  5  1  0
  5  6  1  0
  6  7  1  0
  7  8  1  0
  8  9  1  0
  9 10  1  0
M  END
