
     RDKit          3D

 10  9  0  0  0  0  0  0  0  0999 V2000
    3.1150   -0.8820   -0.7010 C   0  0  0  0  0  0  0  0  0  0  0  0
    2.2700    0.3430   -0.8420 C   0  0  0  0  0  0  0  0  0  0  0  0
    1.1730    0.3230    0.0760 O   0  0  0  0  0  0  0  0  0  0  0  0
    0.2840    1.3790    0.0870 C   0  0  0  0  0  0  0  0  0  0  0  0
    0.4790    2.3240   -0.7210 O   0  0  0  0  0  0  0  0  0  0  0  0
   -0.8770    1.4740    0.9790 C   0  0  0  0  0  0  0  0  0  0  0  0
   -1.0890    0.4410    1.8320 O   0  0  0  0  0  0  0  0  0  0  0  0
   -1.3070   -0.8010    1.3270 C   0  0  0  0  0  0  0  0  0  0  0  0
   -2.4960   -0.9530    0.4230 C   0  0  0  0  0  0  0  0  0  0  0  0
   -2.4760   -0.1750   -0.7050 O   0  0  0  0  0  0  0  0  0  0  0  0
  1  2  1  0
  2  3  1  0
  3  4  1  0
  4  5  2  0
  4  6  1  0
  6  7  1  0
  7  8  1  0
  8  9  1  0
  9 10  1  0
M  END
