
     RDKit          3D

  8  7  0  0  0  0  0  0  0  0999 V2000
    1.2900   -1.6790   -0.0120 O   0  0  0  0  0  0  0  0  0  0  0  0
    1.5960   -0.5310   -0.3580 C   0  0  0  0  0  0  0  0  0  0  0  0
    2.9240   -0.2190   -0.6110 O   0  0  0  0  0  0  0  0  0  0  0  0
    0.5990    0.5880   -0.5280 C   0  0  0  0  0  0  0  0  0  0  0  0
   -1.0670    0.2070   -0.2130 P   0  0  0  0  0  0  0  0  0  0  0  0
   -0.8240   -0.8890    0.8310 O   0  0  0  0  0  0  0  0  0  0  0  0
   -1.8660    1.0580    1.0560 O   0  0  0  0  0  0  0  0  0  0  0  0
   -1.9440   -0.7540   -1.1580 O   0  0  0  0  0  0  0  0  0  0  0  0
  1  2  2  0
  2  3  1  0
  2  4  1  0
  4  5  1  0
  5  6  1  0
  5  7  1  0
  5  8  1  0
M  END
