
     RDKit          3D

  8  7  0  0  0  0  0  0  0  0999 V2000
    3.1770   -1.6570   -0.8430 O   0  0  0  0  0  0  0  0  0  0  0  0
    2.0900   -1.2380   -0.4070 C   0  0  0  0  0  0  0  0  0  0  0  0
    0.9880   -0.8360    0.1380 C   0  0  0  0  0  0  0  0  0  0  0  0
   -0.2240   -0.3720    0.2690 C   0  0  0  0  0  0  0  0  0  0  0  0
   -1.6050   -1.5810    0.3280 P   0  0  0  0  0  0  0  0  0  0  0  0
   -0.5330    0.9590    0.3640 O   0  0  0  0  0  0  0  0  0  0  0  0
   -0.4020    1.8680   -0.5740 O   0  0  0  0  0  0  0  0  0  0  0  0
    0.1330    2.9670   -0.0360 O   0  0  0  0  0  0  0  0  0  0  0  0
  1  2  2  0
  2  3  2  0
  3  4  2  0
  4  5  1  0
  4  6  1  0
  6  7  1  0
  7  8  1  0
M  END
