
     RDKit          3D

  8  7  0  0  0  0  0  0  0  0999 V2000
    1.8740   -1.3390   -0.0760 C   0  0  0  0  0  0  0  0  0  0  0  0
    0.5720   -0.8430   -0.0070 O   0  0  0  0  0  0  0  0  0  0  0  0
    0.4800    0.3800   -0.5410 O   0  0  0  0  0  0  0  0  0  0  0  0
   -0.3660    1.2820    0.0810 C   0  0  0  0  0  0  0  0  0  0  0  0
    0.0800    2.5480    0.4400 O   0  0  0  0  0  0  0  0  0  0  0  0
    1.3880    2.6330    0.7780 O   0  0  0  0  0  0  0  0  0  0  0  0
   -1.9260    0.8380    0.3970 P   0  0  0  0  0  0  0  0  0  0  0  0
   -2.5040   -0.8550   -0.0890 C   0  0  0  0  0  0  0  0  0  0  0  0
  1  2  1  0
  2  3  1  0
  3  4  1  0
  4  5  1  0
  4  7  2  3
  5  6  1  0
  7  8  1  0
M  END
