
     RDKit          3D

  8  7  0  0  0  0  0  0  0  0999 V2000
    2.7900   -0.3580   -0.2720 C   0  0  0  0  0  0  0  0  0  0  0  0
    1.3960    0.0840   -0.0410 C   0  0  0  0  0  0  0  0  0  0  0  0
    1.1240    1.4310    0.1120 O   0  0  0  0  0  0  0  0  0  0  0  0
    0.1570   -1.0040    0.0370 P   0  0  0  0  0  0  0  0  0  0  0  0
   -1.5840   -0.4430    0.3260 C   0  0  2  0  0  0  0  0  0  0  0  0
   -2.3100   -1.5080    0.8960 O   0  0  0  0  0  0  0  0  0  0  0  0
   -2.1670   -0.0750   -0.8960 O   0  0  0  0  0  0  0  0  0  0  0  0
   -2.5710    1.1750   -0.8930 O   0  0  0  0  0  0  0  0  0  0  0  0
  1  2  1  0
  2  3  1  0
  2  4  2  3
  4  5  1  0
  5  6  1  6
  5  7  1  0
  7  8  1  0
M  END
