
     RDKit          3D

  8  8  0  0  0  0  0  0  0  0999 V2000
   -2.6310    0.2210    0.2630 C   0  0  0  0  0  0  0  0  0  0  0  0
   -1.5770    0.0010   -0.9810 P   0  0  0  0  0  0  0  0  0  0  0  0
    0.0590   -0.7920   -0.7760 C   0  0  0  0  0  0  0  0  0  0  0  0
    1.0950   -0.1560   -0.2680 C   0  0  0  0  0  0  0  0  0  0  0  0
    2.3620   -0.6930   -0.0830 O   0  0  0  0  0  0  0  0  0  0  0  0
    3.1140    0.3320    0.3940 O   0  0  0  0  0  0  0  0  0  0  0  0
    2.2730    1.1350    1.0110 O   0  0  0  0  0  0  0  0  0  0  0  0
    1.1920    1.1500    0.1940 O   0  0  0  0  0  0  0  0  0  0  0  0
  1  2  2  0
  2  3  1  0
  3  4  2  3
  4  5  1  0
  4  8  1  0
  5  6  1  0
  6  7  1  0
  7  8  1  0
M  END
