
     RDKit          3D

  8  8  0  0  0  0  0  0  0  0999 V2000
   -2.2480    1.0840    0.4550 O   0  0  0  0  0  0  0  0  0  0  0  0
   -2.3430   -0.1490   -0.0950 O   0  0  0  0  0  0  0  0  0  0  0  0
   -1.3000   -1.0450   -0.0790 C   0  0  0  0  0  0  0  0  0  0  0  0
   -0.0560   -0.6600   -0.0370 C   0  0  0  0  0  0  0  0  0  0  0  0
    1.1290   -1.3380   -0.0130 O   0  0  0  0  0  0  0  0  0  0  0  0
    2.2300   -0.6160    0.0300 O   0  0  0  0  0  0  0  0  0  0  0  0
    2.3790    0.5410    0.0520 C   0  0  0  0  0  0  0  0  0  0  0  0
    0.6130    1.1270    0.0110 P   0  0  0  0  0  0  0  0  0  0  0  0
  1  2  1  0
  2  3  1  0
  3  4  2  3
  4  5  1  0
  4  8  1  0
  5  6  1  0
  6  7  1  0
  7  8  2  0
M  END
