
     RDKit          3D

  8  8  0  0  0  0  0  0  0  0999 V2000
    3.2700   -0.0780    0.4020 O   0  0  0  0  0  0  0  0  0  0  0  0
    2.2720   -0.5870   -0.3020 O   0  0  0  0  0  0  0  0  0  0  0  0
    0.9270   -0.3160   -0.0300 C   0  0  0  0  0  0  0  0  0  0  0  0
   -0.3190   -1.3930   -0.2650 P   0  0  0  0  0  0  0  0  0  0  0  0
   -1.9590   -0.7160    0.1940 C   0  0  0  0  0  0  0  0  0  0  0  0
   -1.9100    0.5290    0.6450 C   0  0  0  0  0  0  0  0  0  0  0  0
   -0.7510    1.2580    0.7640 O   0  0  0  0  0  0  0  0  0  0  0  0
    0.4960    0.9020    0.4730 O   0  0  0  0  0  0  0  0  0  0  0  0
  1  2  1  0
  2  3  1  0
  3  4  2  0
  3  8  1  0
  4  5  1  0
  5  6  2  0
  6  7  1  0
  7  8  1  0
M  END
