
     RDKit          3D

  8  7  0  0  0  0  0  0  0  0999 V2000
    3.2200   -0.2960   -0.2960 O   0  0  0  0  0  0  0  0  0  0  0  0
    2.0290   -0.0180   -0.4880 C   0  0  0  0  0  0  0  0  0  0  0  0
    0.7510    0.0840   -0.6550 C   0  0  0  0  0  0  0  0  0  0  0  0
   -0.5400    0.0800   -0.4970 C   0  0  0  0  0  0  0  0  0  0  0  0
   -1.3120   -1.0690   -0.3870 O   0  0  0  0  0  0  0  0  0  0  0  0
   -1.0480   -1.8630    0.6600 O   0  0  0  0  0  0  0  0  0  0  0  0
   -1.4060    1.6800   -0.4110 P   0  0  0  0  0  0  0  0  0  0  0  0
   -1.0780    2.7450    0.6680 O   0  0  0  0  0  0  0  0  0  0  0  0
  1  2  2  0
  2  3  2  0
  3  4  2  0
  4  5  1  0
  4  7  1  0
  5  6  1  0
  7  8  2  0
M  END
