
     RDKit          3D

  7  6  0  0  0  0  0  0  0  0999 V2000
   -2.7240   -0.1850   -0.1280 C   0  0  0  0  0  0  0  0  0  0  0  0
   -1.3320   -0.6880    0.6180 P   0  0  0  0  0  0  0  0  0  0  0  0
   -0.0610   -1.3740   -0.3400 O   0  0  0  0  0  0  0  0  0  0  0  0
    1.1300   -1.0180    0.0720 O   0  0  0  0  0  0  0  0  0  0  0  0
    1.1560    0.3060    0.2490 O   0  0  0  0  0  0  0  0  0  0  0  0
    2.3620    0.8880    0.5980 C   0  0  0  0  0  0  0  0  0  0  0  0
    3.3630    0.1420    0.7310 O   0  0  0  0  0  0  0  0  0  0  0  0
  1  2  2  0
  2  3  1  0
  3  4  1  0
  4  5  1  0
  5  6  1  0
  6  7  2  0
M  END
