
     RDKit          3D

  7  7  0  0  0  0  0  0  0  0999 V2000
    2.4580   -0.3880    0.2480 O   0  0  0  0  0  0  0  0  0  0  0  0
    1.1340    0.0170    0.0980 C   0  0  0  0  0  0  0  0  0  0  0  0
    0.6490    1.6140   -0.0640 P   0  0  0  0  0  0  0  0  0  0  0  0
   -1.1000    1.7140   -0.2300 O   0  0  0  0  0  0  0  0  0  0  0  0
   -1.5260    0.7640    0.5500 O   0  0  0  0  0  0  0  0  0  0  0  0
   -1.2780   -0.5070    0.0730 C   0  0  0  0  0  0  0  0  0  0  0  0
    0.0760   -0.8630    0.0680 O   0  0  0  0  0  0  0  0  0  0  0  0
  1  2  1  0
  2  3  2  0
  2  7  1  0
  3  4  1  0
  4  5  1  0
  5  6  1  0
  6  7  1  0
M  END
