
     RDKit          3D

 27 28  0  0  0  0  0  0  0  0999 V2000
   -5.3880    0.4440   -1.5060 C   0  0  0  0  0  0  0  0  0  0  0  0
   -4.5560    0.1950   -0.5170 C   0  0  0  0  0  0  0  0  0  0  0  0
   -3.3270    0.9320   -0.3680 N   0  0  0  0  0  0  0  0  0  0  0  0
   -2.1850    0.3920   -0.3270 C   0  0  0  0  0  0  0  0  0  0  0  0
   -1.9070   -1.0320   -0.4220 C   0  0  0  0  0  0  0  0  0  0  0  0
   -2.6960   -2.0100   -0.5590 O   0  0  0  0  0  0  0  0  0  0  0  0
   -0.5270   -1.2130   -0.3340 O   0  0  0  0  0  0  0  0  0  0  0  0
    0.1300   -0.0010   -0.1880 C   0  0  0  0  0  0  0  0  0  0  0  0
    1.4150    0.3190   -0.0670 C   0  0  0  0  0  0  0  0  0  0  0  0
    2.6230   -1.0400   -0.0870 P   0  0  0  0  0  0  0  0  0  0  0  0
    4.0340   -0.7190   -1.2190 C   0  0  0  0  0  0  0  0  0  0  0  0
    4.1460    1.2110   -1.4880 Br  0  0  0  0  0  0  0  0  0  0  0  0
    3.1640   -1.5420    1.6100 C   0  0  2  0  0  0  0  0  0  0  0  0
    1.9920   -2.6940    2.3350 Cl  0  0  0  0  0  0  0  0  0  0  0  0
    3.3560   -0.4030    2.5080 C   0  0  0  0  0  0  0  0  0  0  0  0
    4.4400   -0.1920    3.0130 O   0  0  0  0  0  0  0  0  0  0  0  0
    2.0630    0.7220    2.9160 Cl  0  0  0  0  0  0  0  0  0  0  0  0
    4.7710   -2.4560    1.4440 P   0  0  0  0  0  0  0  0  0  0  0  0
    4.7450   -3.3240   -0.0560 O   0  0  0  0  0  0  0  0  0  0  0  0
    6.4730   -1.0670    1.4080 P   0  0  0  0  0  0  0  0  0  0  0  0
    1.7280    1.6430    0.0640 O   0  0  0  0  0  0  0  0  0  0  0  0
    0.8490    2.7210    0.0850 C   0  0  0  0  0  0  0  0  0  0  0  0
   -0.5790    2.3300   -0.0520 C   0  0  0  0  0  0  0  0  0  0  0  0
   -1.5810    3.3950   -0.0420 C   0  0  0  0  0  0  0  0  0  0  0  0
   -0.8960    1.0460   -0.1790 C   0  0  0  0  0  0  0  0  0  0  0  0
   -4.8800   -0.8150    0.4150 N   0  0  0  0  0  0  0  0  0  0  0  0
   -5.8530   -1.8530    0.1800 C   0  0  0  0  0  0  0  0  0  0  0  0
  1  2  2  0
  2  3  1  0
  2 26  1  0
  3  4  2  3
  4  5  1  0
  4 25  1  0
  5  6  2  0
  5  7  1  0
  7  8  1  0
  8  9  2  0
  8 25  1  0
  9 10  1  0
  9 21  1  0
 10 11  1  0
 10 13  1  0
 11 12  1  0
 13 14  1  1
 13 15  1  0
 13 18  1  0
 15 16  2  0
 15 17  1  0
 18 19  1  0
 18 20  1  0
 21 22  1  0
 22 23  1  0
 23 24  1  0
 23 25  2  0
 26 27  1  0
M  END
