
     RDKit          3D

 28 30  0  0  0  0  0  0  0  0999 V2000
    7.9980    0.4730    0.6910 C   0  0  0  0  0  0  0  0  0  0  0  0
    7.1120    1.2280   -0.2390 C   0  0  0  0  0  0  0  0  0  0  0  0
    5.7460    1.1070   -0.0180 O   0  0  0  0  0  0  0  0  0  0  0  0
    5.0630   -0.0870   -0.0810 C   0  0  0  0  0  0  0  0  0  0  0  0
    5.7510   -1.2340   -0.3840 C   0  0  0  0  0  0  0  0  0  0  0  0
    5.0840   -2.4340   -0.4500 C   0  0  0  0  0  0  0  0  0  0  0  0
    3.7090   -2.4790   -0.2070 C   0  0  0  0  0  0  0  0  0  0  0  0
    2.9990   -1.3410    0.0990 C   0  0  0  0  0  0  0  0  0  0  0  0
    1.6660   -1.4050    0.3310 O   0  0  0  0  0  0  0  0  0  0  0  0
    0.5860   -0.1330    0.7250 P   0  0  0  0  0  0  0  0  0  0  0  0
    0.1250    0.8660   -0.5850 O   0  0  0  0  0  0  0  0  0  0  0  0
   -1.0180    0.4510   -1.2390 C   0  0  0  0  0  0  0  0  0  0  0  0
   -1.9730   -0.3130   -0.3680 C   0  0  2  0  0  0  0  0  0  0  0  0
   -1.7220   -1.7930   -0.6010 C   0  0  0  0  0  0  0  0  0  0  0  0
   -3.2940   -0.0670   -0.6530 O   0  0  0  0  0  0  0  0  0  0  0  0
   -4.0350   -0.1880    0.4910 C   0  0  2  0  0  0  0  0  0  0  0  0
   -4.7600    1.1460    0.7080 C   0  0  0  0  0  0  0  0  0  0  0  0
   -5.6630    1.4580   -0.4630 C   0  0  2  0  0  0  0  0  0  0  0  0
   -6.3430    2.7790   -0.1860 C   0  0  0  0  0  0  0  0  0  0  0  0
   -6.7040    0.4620   -0.6010 N   0  0  0  0  0  0  0  0  0  0  0  0
   -4.6980    1.5290   -1.9600 Cl  0  0  0  0  0  0  0  0  0  0  0  0
   -3.1380   -0.3460    1.6080 N   0  0  0  0  0  0  0  0  0  0  0  0
   -3.1650   -1.9800    2.3040 P   0  0  0  0  0  0  0  0  0  0  0  0
   -1.8610   -2.5680    2.8970 O   0  0  0  0  0  0  0  0  0  0  0  0
   -1.8750    0.0490    1.0890 C   0  0  2  0  0  0  0  0  0  0  0  0
   -1.5250    1.7720    1.2700 Cl  0  0  0  0  0  0  0  0  0  0  0  0
   -0.8010   -0.6570    1.6280 O   0  0  0  0  0  0  0  0  0  0  0  0
    3.6930   -0.1580    0.1570 C   0  0  0  0  0  0  0  0  0  0  0  0
  1  2  1  0
  2  3  1  0
  3  4  1  0
  4  5  2  0
  4 28  1  0
  5  6  1  0
  6  7  2  0
  7  8  1  0
  8  9  1  0
  8 28  2  0
  9 10  1  0
 10 11  1  0
 10 27  1  0
 11 12  1  0
 12 13  1  0
 13 14  1  1
 13 15  1  0
 13 25  1  0
 15 16  1  0
 16 17  1  1
 16 22  1  0
 17 18  1  0
 18 19  1  1
 18 20  1  0
 18 21  1  0
 22 23  1  0
 22 25  1  0
 23 24  2  0
 25 26  1  6
 25 27  1  0
M  END
