
     RDKit          3D

 28 29  0  0  0  0  0  0  0  0999 V2000
    2.0790   -0.9960   -3.1210 C   0  0  0  0  0  0  0  0  0  0  0  0
    2.3140   -0.1450   -2.1490 C   0  0  0  0  0  0  0  0  0  0  0  0
    3.5580   -0.2390   -1.4090 C   0  0  0  0  0  0  0  0  0  0  0  0
    3.9180    0.5420   -0.4210 C   0  0  0  0  0  0  0  0  0  0  0  0
    5.5060    0.3650    0.4690 P   0  0  0  0  0  0  0  0  0  0  0  0
    6.7840   -0.0840   -0.6150 O   0  0  0  0  0  0  0  0  0  0  0  0
    7.5020   -1.1310   -0.0610 C   0  0  0  0  0  0  0  0  0  0  0  0
    5.9150    1.8450    1.4330 C   0  0  0  0  0  0  0  0  0  0  0  0
    5.5310    2.9530    1.1450 O   0  0  0  0  0  0  0  0  0  0  0  0
    6.9260    1.6500    2.8670 Cl  0  0  0  0  0  0  0  0  0  0  0  0
    1.3410    0.8450   -1.8500 N   0  0  0  0  0  0  0  0  0  0  0  0
    1.8780    2.6530   -1.8800 Br  0  0  0  0  0  0  0  0  0  0  0  0
   -0.0120    0.5550   -1.5410 C   0  0  0  0  0  0  0  0  0  0  0  0
   -0.5280    0.4950   -0.3550 C   0  0  0  0  0  0  0  0  0  0  0  0
   -1.9710    0.1890    0.0550 C   0  0  1  0  0  0  0  0  0  0  0  0
   -2.2380   -1.1300   -0.1070 O   0  0  0  0  0  0  0  0  0  0  0  0
   -3.3710   -1.4650   -0.7910 C   0  0  0  0  0  0  0  0  0  0  0  0
   -4.6270   -0.9860   -0.2150 C   0  0  0  0  0  0  0  0  0  0  0  0
   -5.5650   -1.8380    0.1520 C   0  0  0  0  0  0  0  0  0  0  0  0
   -5.4000   -3.3100    0.0040 C   0  0  0  0  0  0  0  0  0  0  0  0
   -4.8960    0.3590   -0.0280 O   0  0  0  0  0  0  0  0  0  0  0  0
   -5.5570    0.8650    1.0990 C   0  0  0  0  0  0  0  0  0  0  0  0
   -1.7530    0.4130    1.5840 C   0  0  2  0  0  0  0  0  0  0  0  0
   -1.4570    1.7520    1.9300 N   0  0  0  0  0  0  0  0  0  0  0  0
   -0.2070    2.0440    2.6080 C   0  0  0  0  0  0  0  0  0  0  0  0
    0.9690    1.5470    1.6350 C   0  0  0  0  0  0  0  0  0  0  0  0
    0.1160    0.7330    0.8470 N   0  0  0  0  0  0  0  0  0  0  0  0
   -0.4770   -0.2740    1.6540 O   0  0  0  0  0  0  0  0  0  0  0  0
  1  2  2  0
  2  3  1  0
  2 11  1  0
  3  4  2  3
  4  5  1  0
  5  6  1  0
  5  8  1  0
  6  7  1  0
  8  9  2  0
  8 10  1  0
 11 12  1  0
 11 13  1  0
 13 14  2  3
 14 15  1  0
 14 27  1  0
 15 16  1  1
 15 23  1  0
 16 17  1  0
 17 18  1  0
 18 19  2  3
 18 21  1  0
 19 20  1  0
 21 22  1  0
 23 24  1  6
 23 28  1  0
 24 25  1  0
 25 26  1  0
 26 27  1  0
 27 28  1  0
M  END
