
     RDKit          3D

 28 28  0  0  0  0  0  0  0  0999 V2000
   -0.9420    4.7510    3.2120 C   0  0  0  0  0  0  0  0  0  0  0  0
   -1.3700    4.3820    2.0280 C   0  0  0  0  0  0  0  0  0  0  0  0
   -1.1110    3.0500    1.5430 C   0  0  0  0  0  0  0  0  0  0  0  0
   -1.5560    2.7010    0.3380 C   0  0  0  0  0  0  0  0  0  0  0  0
   -1.3340    1.3740   -0.2210 C   0  0  0  0  0  0  0  0  0  0  0  0
   -1.8260    1.1390   -1.4310 C   0  0  0  0  0  0  0  0  0  0  0  0
   -2.5750    2.2160   -2.1750 C   0  0  0  0  0  0  0  0  0  0  0  0
   -1.7040   -0.1400   -2.1150 C   0  0  0  0  0  0  0  0  0  0  0  0
   -1.4860   -0.0790   -3.3770 O   0  0  0  0  0  0  0  0  0  0  0  0
   -1.8040   -1.3830   -1.5180 O   0  0  0  0  0  0  0  0  0  0  0  0
   -2.8050   -1.7800   -0.6140 C   0  0  0  0  0  0  0  0  0  0  0  0
   -2.9830   -3.2850   -0.7920 C   0  0  0  0  0  0  0  0  0  0  0  0
   -2.7330   -4.0370    0.4900 C   0  0  0  0  0  0  0  0  0  0  0  0
   -1.0360   -3.8810    1.1310 P   0  0  0  0  0  0  0  0  0  0  0  0
    0.0710   -5.0330    0.5260 O   0  0  0  0  0  0  0  0  0  0  0  0
   -0.4360   -2.2880    1.2110 O   0  0  0  0  0  0  0  0  0  0  0  0
    0.7340   -2.1360    0.6250 O   0  0  0  0  0  0  0  0  0  0  0  0
    0.6770   -0.5930   -0.1740 P   0  0  0  0  0  0  0  0  0  0  0  0
    2.2480    0.3050    0.2480 C   0  0  2  0  0  0  0  0  0  0  0  0
    1.9950    1.6140    0.6640 O   0  0  0  0  0  0  0  0  0  0  0  0
    3.1940    0.3550   -0.9300 C   0  0  1  0  0  0  0  0  0  0  0  0
    2.4890    1.1830   -2.3210 Cl  0  0  0  0  0  0  0  0  0  0  0  0
    4.4230    1.1310   -0.5050 C   0  0  0  0  0  0  0  0  0  0  0  0
    3.9720    2.7870   -0.0180 Cl  0  0  0  0  0  0  0  0  0  0  0  0
    3.6380   -1.0190   -1.2840 C   0  0  0  0  0  0  0  0  0  0  0  0
    3.3900   -1.4800   -2.4510 N   0  0  0  0  0  0  0  0  0  0  0  0
    4.3310   -1.7790   -0.3020 N   0  0  0  0  0  0  0  0  0  0  0  0
   -0.6620    0.3780    0.4150 O   0  0  0  0  0  0  0  0  0  0  0  0
  1  2  2  0
  2  3  1  0
  3  4  2  3
  4  5  1  0
  5  6  2  0
  5 28  1  0
  6  7  1  0
  6  8  1  0
  8  9  2  0
  8 10  1  0
 10 11  1  0
 11 12  1  0
 12 13  1  0
 13 14  1  0
 14 15  1  0
 14 16  1  0
 16 17  1  0
 17 18  1  0
 18 19  1  0
 18 28  1  0
 19 20  1  6
 19 21  1  0
 21 22  1  6
 21 23  1  0
 21 25  1  0
 23 24  1  0
 25 26  2  0
 25 27  1  0
M  END
