
     RDKit          3D

 26 26  0  0  0  0  0  0  0  0999 V2000
    4.4880    3.1800    1.4630 C   0  0  0  0  0  0  0  0  0  0  0  0
    3.3020    2.5930    0.7530 C   0  0  0  0  0  0  0  0  0  0  0  0
    3.6540    1.4080    0.0920 O   0  0  0  0  0  0  0  0  0  0  0  0
    2.3210    0.7180   -0.7260 P   0  0  0  0  0  0  0  0  0  0  0  0
    1.1050    0.0760    0.3350 O   0  0  0  0  0  0  0  0  0  0  0  0
   -0.0460    0.7570    0.7060 C   0  0  0  0  0  0  0  0  0  0  0  0
   -1.1850    0.1500    0.4310 C   0  0  0  0  0  0  0  0  0  0  0  0
   -1.4030   -1.1430   -0.2120 C   0  0  0  0  0  0  0  0  0  0  0  0
   -0.5540   -2.0430   -0.3310 O   0  0  0  0  0  0  0  0  0  0  0  0
   -2.7940   -1.1980   -0.6940 C   0  0  1  0  0  0  0  0  0  0  0  0
   -2.8680   -1.4490   -2.1610 C   0  0  0  0  0  0  0  0  0  0  0  0
   -1.9280   -2.0240   -2.6800 O   0  0  0  0  0  0  0  0  0  0  0  0
   -3.6040   -2.2100    0.0170 C   0  0  0  0  0  0  0  0  0  0  0  0
   -4.9610   -2.3740   -0.3390 N   0  0  0  0  0  0  0  0  0  0  0  0
   -3.1010   -2.8990    0.9040 O   0  0  0  0  0  0  0  0  0  0  0  0
   -3.4180    0.1520   -0.3870 C   0  0  0  0  0  0  0  0  0  0  0  0
   -2.5260    0.6730    0.7240 C   0  0  0  0  0  0  0  0  0  0  0  0
   -2.9730    1.4130    1.6960 C   0  0  0  0  0  0  0  0  0  0  0  0
   -4.3990    1.7990    1.7390 C   0  0  0  0  0  0  0  0  0  0  0  0
   -2.0890    1.8660    2.7810 C   0  0  0  0  0  0  0  0  0  0  0  0
    2.7920   -0.3930   -2.0680 C   0  0  0  0  0  0  0  0  0  0  0  0
    2.2170   -0.2970   -3.2510 C   0  0  0  0  0  0  0  0  0  0  0  0
    0.9890    0.9350   -3.4850 Cl  0  0  0  0  0  0  0  0  0  0  0  0
    3.8330   -1.4290   -1.8520 C   0  0  0  0  0  0  0  0  0  0  0  0
    3.3960   -2.3180   -0.7880 N   0  0  0  0  0  0  0  0  0  0  0  0
    4.3570   -3.3540   -0.5220 C   0  0  0  0  0  0  0  0  0  0  0  0
  1  2  1  0
  2  3  1  0
  3  4  1  0
  4  5  1  0
  4 21  1  0
  5  6  1  0
  6  7  2  3
  7  8  1  0
  7 17  1  0
  8  9  2  0
  8 10  1  0
 10 11  1  6
 10 13  1  0
 10 16  1  0
 11 12  2  0
 13 14  1  0
 13 15  2  0
 16 17  1  0
 17 18  2  3
 18 19  1  0
 18 20  1  0
 21 22  2  3
 21 24  1  0
 22 23  1  0
 24 25  1  0
 25 26  1  0
M  END
