
     RDKit          3D

 28 30  0  0  0  0  0  0  0  0999 V2000
   -6.0560    1.6540   -0.9450 C   0  0  0  0  0  0  0  0  0  0  0  0
   -6.5000    0.5580   -0.0950 C   0  0  0  0  0  0  0  0  0  0  0  0
   -5.7430    0.3080    0.9600 C   0  0  0  0  0  0  0  0  0  0  0  0
   -4.8460    0.0500    1.8880 C   0  0  0  0  0  0  0  0  0  0  0  0
   -3.5170   -1.0630    1.4230 P   0  0  0  0  0  0  0  0  0  0  0  0
   -2.1050   -0.4860    0.9110 N   0  0  0  0  0  0  0  0  0  0  0  0
   -1.0550   -1.3310    0.5420 N   0  0  0  0  0  0  0  0  0  0  0  0
   -0.0280   -0.8940   -0.3390 C   0  0  0  0  0  0  0  0  0  0  0  0
   -0.1460    0.1870   -0.9200 O   0  0  0  0  0  0  0  0  0  0  0  0
    1.1340   -1.7360   -0.5300 C   0  0  2  0  0  0  0  0  0  0  0  0
    0.9350   -2.5610   -1.7910 C   0  0  0  0  0  0  0  0  0  0  0  0
    1.4300   -2.6120    0.6450 C   0  0  0  0  0  0  0  0  0  0  0  0
    2.7110   -2.8580    0.7600 C   0  0  0  0  0  0  0  0  0  0  0  0
    3.6360   -2.0220    0.4310 C   0  0  0  0  0  0  0  0  0  0  0  0
    5.2910   -2.0070    0.8590 Cl  0  0  0  0  0  0  0  0  0  0  0  0
    2.7440   -0.8240   -0.6260 P   0  0  0  0  0  0  0  0  0  0  0  0
    2.7610    0.8000    0.1850 C   0  0  1  0  0  0  0  0  0  0  0  0
    3.1320    1.8780   -0.7770 C   0  0  0  0  0  0  0  0  0  0  0  0
    2.4430    1.9490   -1.8280 O   0  0  0  0  0  0  0  0  0  0  0  0
    4.1490    2.7680   -0.5900 O   0  0  0  0  0  0  0  0  0  0  0  0
    4.4110    3.7630   -1.5890 C   0  0  0  0  0  0  0  0  0  0  0  0
    1.6460    1.2020    1.0560 C   0  0  0  0  0  0  0  0  0  0  0  0
    2.7560    1.6570    1.9980 C   0  0  0  0  0  0  0  0  0  0  0  0
    3.6320    0.8750    1.2860 O   0  0  0  0  0  0  0  0  0  0  0  0
    0.3440   -3.0180    1.4080 O   0  0  0  0  0  0  0  0  0  0  0  0
   -0.9680   -2.6990    1.0460 C   0  0  2  0  0  0  0  0  0  0  0  0
   -1.3570   -3.6150    0.0550 O   0  0  0  0  0  0  0  0  0  0  0  0
   -2.0060   -2.9420    2.4660 Cl  0  0  0  0  0  0  0  0  0  0  0  0
  1  2  1  0
  2  3  2  0
  3  4  2  0
  4  5  1  0
  5  6  2  3
  6  7  1  0
  7  8  1  0
  7 26  1  0
  8  9  2  0
  8 10  1  0
 10 11  1  6
 10 12  1  0
 10 16  1  0
 12 13  2  0
 12 25  1  0
 13 14  2  0
 14 15  1  0
 14 16  1  0
 17 16  1  6
 17 18  1  0
 17 22  1  0
 17 24  1  0
 18 19  2  0
 18 20  1  0
 20 21  1  0
 22 23  1  0
 23 24  1  0
 25 26  1  0
 26 27  1  6
 26 28  1  0
M  END
