
     RDKit          3D

 28 29  0  0  0  0  0  0  0  0999 V2000
    6.4810    0.3770   -1.2510 C   0  0  0  0  0  0  0  0  0  0  0  0
    5.2130    0.8050   -1.0010 O   0  0  0  0  0  0  0  0  0  0  0  0
    4.0980    0.1090   -0.4810 C   0  0  0  0  0  0  0  0  0  0  0  0
    2.9390    0.5530   -0.8310 C   0  0  0  0  0  0  0  0  0  0  0  0
    1.5550    0.4590   -0.7580 C   0  0  0  0  0  0  0  0  0  0  0  0
    0.5280   -0.0940   -0.2000 C   0  0  0  0  0  0  0  0  0  0  0  0
   -0.8010    0.2210   -0.5900 C   0  0  0  0  0  0  0  0  0  0  0  0
   -1.6320   -0.4540    0.2670 C   0  0  0  0  0  0  0  0  0  0  0  0
   -0.9170   -1.1220    1.1080 O   0  0  0  0  0  0  0  0  0  0  0  0
    0.3800   -0.9140    0.8430 C   0  0  0  0  0  0  0  0  0  0  0  0
    1.2920   -1.4810    1.5820 C   0  0  0  0  0  0  0  0  0  0  0  0
    2.0520   -1.5970    2.6360 N   0  0  0  0  0  0  0  0  0  0  0  0
    2.0930   -0.2840    3.9810 Br  0  0  0  0  0  0  0  0  0  0  0  0
   -3.1140   -0.2780    0.0480 C   0  0  1  0  0  0  0  0  0  0  0  0
   -3.9400   -1.6550    0.8520 Cl  0  0  0  0  0  0  0  0  0  0  0  0
   -3.5380    0.9100    0.5970 O   0  0  0  0  0  0  0  0  0  0  0  0
   -3.2890    0.9000    1.8750 O   0  0  0  0  0  0  0  0  0  0  0  0
   -4.2250    1.7210    2.5350 C   0  0  0  0  0  0  0  0  0  0  0  0
   -3.8960    1.7270    4.3560 P   0  0  0  0  0  0  0  0  0  0  0  0
   -3.3550   -0.3960   -1.3460 N   0  0  0  0  0  0  0  0  0  0  0  0
   -3.4650   -1.7320   -1.8350 C   0  0  0  0  0  0  0  0  0  0  0  0
   -2.6690    0.5100   -2.1860 C   0  0  1  0  0  0  0  0  0  0  0  0
   -3.5220    1.5680   -2.5790 O   0  0  0  0  0  0  0  0  0  0  0  0
   -1.4010    1.0690   -1.6660 C   0  0  0  0  0  0  0  0  0  0  0  0
    4.4090   -1.0260    0.3730 C   0  0  2  0  0  0  0  0  0  0  0  0
    5.1250   -0.4410    1.8850 Cl  0  0  0  0  0  0  0  0  0  0  0  0
    5.6870   -2.1760   -0.4590 P   0  0  0  0  0  0  0  0  0  0  0  0
    5.9100   -3.5910    0.1300 O   0  0  0  0  0  0  0  0  0  0  0  0
  1  2  1  0
  2  3  1  0
  3  4  2  3
  3 25  1  0
  4  5  1  0
  5  6  2  3
  6  7  1  0
  6 10  1  0
  7  8  2  0
  7 24  1  0
  8  9  1  0
  8 14  1  0
  9 10  1  0
 10 11  2  0
 11 12  2  0
 12 13  1  0
 14 15  1  1
 14 16  1  0
 14 20  1  0
 16 17  1  0
 17 18  1  0
 18 19  1  0
 20 21  1  0
 20 22  1  0
 22 23  1  1
 22 24  1  0
 25 26  1  1
 25 27  1  0
 27 28  2  0
M  END
