
     RDKit          3D

 34 36  0  0  0  0  0  0  0  0999 V2000
   -2.4250    1.8890   -1.5450 C   0  0  0  0  0  0  0  0  0  0  0  0
   -2.6680    1.5010   -0.2220 O   0  0  0  0  0  0  0  0  0  0  0  0
   -2.4450    0.2410    0.2960 C   0  0  0  0  0  0  0  0  0  0  0  0
   -1.9850   -0.6240   -0.5000 O   0  0  0  0  0  0  0  0  0  0  0  0
   -2.7420   -0.0470    1.7260 C   0  0  2  0  0  0  0  0  0  0  0  0
   -4.1960    0.2000    1.9650 C   0  0  0  0  0  0  0  0  0  0  0  0
   -5.0620   -0.6710    1.1150 C   0  0  0  0  0  0  0  0  0  0  0  0
   -5.4150   -1.9030    1.6210 C   0  0  0  0  0  0  0  0  0  0  0  0
   -6.2160   -2.7100    0.8470 C   0  0  0  0  0  0  0  0  0  0  0  0
   -6.6740   -2.3230   -0.4190 C   0  0  0  0  0  0  0  0  0  0  0  0
   -6.3280   -1.0980   -0.9330 C   0  0  0  0  0  0  0  0  0  0  0  0
   -6.7490   -0.5960   -2.2390 C   0  0  0  0  0  0  0  0  0  0  0  0
   -6.3500    0.6830   -2.7040 N   0  0  0  0  0  0  0  0  0  0  0  0
   -7.4890   -1.2950   -2.9970 N   0  0  0  0  0  0  0  0  0  0  0  0
   -5.5140   -0.2960   -0.1270 C   0  0  0  0  0  0  0  0  0  0  0  0
   -1.8320    0.8320    2.5410 C   0  0  1  0  0  0  0  0  0  0  0  0
   -1.9960    0.6710    4.0190 C   0  0  0  0  0  0  0  0  0  0  0  0
   -0.4910    0.5690    2.0920 N   0  0  0  0  0  0  0  0  0  0  0  0
    0.2770    1.5660    1.4550 C   0  0  0  0  0  0  0  0  0  0  0  0
   -0.2520    2.6930    1.2950 O   0  0  0  0  0  0  0  0  0  0  0  0
    1.6330    1.3720    0.9750 C   0  0  0  0  0  0  0  0  0  0  0  0
    2.2900    0.1770    1.1470 C   0  0  0  0  0  0  0  0  0  0  0  0
    3.5880   -0.0270    0.6930 C   0  0  0  0  0  0  0  0  0  0  0  0
    4.2600    0.9850    0.0460 C   0  0  0  0  0  0  0  0  0  0  0  0
    5.6400    0.7690   -0.4390 C   0  0  0  0  0  0  0  0  0  0  0  0
    6.5460    1.7940   -0.4980 C   0  0  0  0  0  0  0  0  0  0  0  0
    7.8200    1.5590   -0.9540 C   0  0  0  0  0  0  0  0  0  0  0  0
    8.2020    0.2750   -1.3590 C   0  0  0  0  0  0  0  0  0  0  0  0
    7.2920   -0.7570   -1.3000 C   0  0  0  0  0  0  0  0  0  0  0  0
    7.6130   -2.1430   -1.7090 C   0  0  0  0  0  0  0  0  0  0  0  0
    8.1140   -2.8320   -0.5140 N   0  0  0  0  0  0  0  0  0  0  0  0
    6.0230   -0.4890   -0.8390 C   0  0  0  0  0  0  0  0  0  0  0  0
    3.6210    2.1820   -0.1340 C   0  0  0  0  0  0  0  0  0  0  0  0
    2.3190    2.3750    0.3270 C   0  0  0  0  0  0  0  0  0  0  0  0
  1  2  1  0
  2  3  1  0
  3  4  2  0
  3  5  1  0
  5  6  1  1
  5 16  1  0
  6  7  1  0
  7  8  2  0
  7 15  1  0
  8  9  1  0
  9 10  2  0
 10 11  1  0
 11 12  1  0
 11 15  2  0
 12 13  1  0
 12 14  2  0
 16 17  1  1
 16 18  1  0
 18 19  1  0
 19 20  2  0
 19 21  1  0
 21 22  2  0
 21 34  1  0
 22 23  1  0
 23 24  2  0
 24 25  1  0
 24 33  1  0
 25 26  2  0
 25 32  1  0
 26 27  1  0
 27 28  2  0
 28 29  1  0
 29 30  1  0
 29 32  2  0
 30 31  1  0
 33 34  2  0
M  CHG  2  14   1  31   1
M  END
