
     RDKit          3D

 34 36  0  0  0  0  0  0  0  0999 V2000
    6.7280   -2.2270    0.8970 C   0  0  0  0  0  0  0  0  0  0  0  0
    6.1350   -0.9900    0.2620 C   0  0  0  0  0  0  0  0  0  0  0  0
    5.1910   -1.3040   -0.7750 N   0  0  0  0  0  0  0  0  0  0  0  0
    3.8290   -1.3720   -0.2640 C   0  0  1  0  0  0  0  0  0  0  0  0
    3.5370   -0.2200    0.6530 C   0  0  0  0  0  0  0  0  0  0  0  0
    2.0230    0.0510    0.6570 C   0  0  0  0  0  0  0  0  0  0  0  0
    1.6650    0.7740   -0.6090 C   0  0  2  0  0  0  0  0  0  0  0  0
    0.2640    0.8590   -0.8880 N   0  0  0  0  0  0  0  0  0  0  0  0
   -0.6000    0.7470    0.2550 C   0  0  1  0  0  0  0  0  0  0  0  0
   -1.1700    2.0670    0.6770 C   0  0  0  0  0  0  0  0  0  0  0  0
   -2.3830    2.0500    1.3630 C   0  0  0  0  0  0  0  0  0  0  0  0
   -2.9850    3.2330    1.7400 C   0  0  0  0  0  0  0  0  0  0  0  0
   -2.3680    4.4440    1.4270 C   0  0  0  0  0  0  0  0  0  0  0  0
   -1.1740    4.4920    0.7510 C   0  0  0  0  0  0  0  0  0  0  0  0
   -0.5160    5.6960    0.3500 C   0  0  0  0  0  0  0  0  0  0  0  0
    0.0360    6.7190    0.0300 C   0  0  0  0  0  0  0  0  0  0  0  0
    0.7190    7.9700   -0.3460 C   0  0  0  0  0  0  0  0  0  0  0  0
   -0.1750    9.0360   -0.4780 O   0  0  0  0  0  0  0  0  0  0  0  0
   -0.5950    3.2810    0.3880 C   0  0  0  0  0  0  0  0  0  0  0  0
   -1.7400   -0.1930   -0.0440 C   0  0  0  0  0  0  0  0  0  0  0  0
   -2.4040    0.0290   -1.2420 C   0  0  0  0  0  0  0  0  0  0  0  0
   -3.4720   -0.7580   -1.6150 C   0  0  0  0  0  0  0  0  0  0  0  0
   -3.8580   -1.7850   -0.7420 C   0  0  0  0  0  0  0  0  0  0  0  0
   -4.9610   -2.5850   -1.1230 N   0  0  0  0  0  0  0  0  0  0  0  0
   -3.1990   -2.0020    0.4390 C   0  0  0  0  0  0  0  0  0  0  0  0
   -3.6670   -3.1110    1.2920 C   0  0  1  0  0  0  0  0  0  0  0  0
   -4.8330   -2.7520    2.0690 N   0  0  0  0  0  0  0  0  0  0  0  0
   -3.9330   -4.3410    0.5040 C   0  0  0  0  0  0  0  0  0  0  0  0
   -5.0790   -4.8840    0.5950 O   0  0  0  0  0  0  0  0  0  0  0  0
   -3.0340   -4.9560   -0.3320 O   0  0  0  0  0  0  0  0  0  0  0  0
   -3.3600   -6.1350   -1.0610 C   0  0  0  0  0  0  0  0  0  0  0  0
   -2.1340   -1.2090    0.7990 C   0  0  0  0  0  0  0  0  0  0  0  0
    2.3530    0.0380   -1.7420 C   0  0  0  0  0  0  0  0  0  0  0  0
    2.8090   -1.3460   -1.3640 C   0  0  0  0  0  0  0  0  0  0  0  0
  1  2  1  0
  2  3  1  0
  4  3  1  6
  4  5  1  0
  4 34  1  0
  5  6  1  0
  6  7  1  0
  7  8  1  6
  7 33  1  0
  9  8  1  6
  9 10  1  0
  9 20  1  0
 10 11  2  0
 10 19  1  0
 11 12  1  0
 12 13  2  0
 13 14  1  0
 14 15  1  0
 14 19  2  0
 15 16  3  0
 16 17  1  0
 17 18  1  0
 20 21  2  0
 20 32  1  0
 21 22  1  0
 22 23  2  0
 23 24  1  0
 23 25  1  0
 25 26  1  0
 25 32  2  0
 26 27  1  6
 26 28  1  0
 28 29  2  0
 28 30  1  0
 30 31  1  0
 33 34  1  0
M  CHG  2   3   1   8   1
M  END
