
     RDKit          3D

 35 38  0  0  0  0  0  0  0  0999 V2000
   -4.3390   -1.7360    1.4110 C   0  0  0  0  0  0  0  0  0  0  0  0
   -3.1120   -1.6390    0.7840 O   0  0  0  0  0  0  0  0  0  0  0  0
   -2.7530   -2.4070   -0.2980 C   0  0  0  0  0  0  0  0  0  0  0  0
   -3.7180   -3.3210   -0.7430 C   0  0  0  0  0  0  0  0  0  0  0  0
   -3.5050   -4.1620   -1.8070 C   0  0  0  0  0  0  0  0  0  0  0  0
   -2.2770   -4.1000   -2.4680 C   0  0  0  0  0  0  0  0  0  0  0  0
   -2.1180   -4.9700   -3.5280 O   0  0  0  0  0  0  0  0  0  0  0  0
   -1.3640   -3.2090   -2.0200 C   0  0  0  0  0  0  0  0  0  0  0  0
   -1.5620   -2.3310   -0.9260 C   0  0  0  0  0  0  0  0  0  0  0  0
   -0.4880   -1.4370   -0.6410 C   0  0  0  0  0  0  0  0  0  0  0  0
   -0.4270   -0.1070   -0.5790 C   0  0  0  0  0  0  0  0  0  0  0  0
   -1.5840    0.7170   -0.8130 C   0  0  0  0  0  0  0  0  0  0  0  0
   -2.0560    1.7220    0.0550 N   0  0  0  0  0  0  0  0  0  0  0  0
   -2.1800    3.1210   -0.4000 C   0  0  0  0  0  0  0  0  0  0  0  0
   -2.6150    3.9990    0.7310 C   0  0  0  0  0  0  0  0  0  0  0  0
   -1.9960    5.0480    1.0420 O   0  0  0  0  0  0  0  0  0  0  0  0
   -3.7380    3.6560    1.4710 O   0  0  0  0  0  0  0  0  0  0  0  0
   -3.9120    2.2620    1.7410 C   0  0  0  0  0  0  0  0  0  0  0  0
   -2.6720    1.5240    1.3420 C   0  0  0  0  0  0  0  0  0  0  0  0
   -2.0970    0.7020    2.0970 O   0  0  0  0  0  0  0  0  0  0  0  0
    0.9880    0.3640   -0.2840 C   0  0  0  0  0  0  0  0  0  0  0  0
    1.1960    1.6490   -0.2030 C   0  0  0  0  0  0  0  0  0  0  0  0
    2.4280    2.3670    0.0710 C   0  0  0  0  0  0  0  0  0  0  0  0
    2.5240    3.7240    0.1140 C   0  0  0  0  0  0  0  0  0  0  0  0
    3.8030    4.1060    0.3920 O   0  0  0  0  0  0  0  0  0  0  0  0
    4.5290    2.9590    0.7780 C   0  0  0  0  0  0  0  0  0  0  0  0
    3.6830    1.8960    0.3310 O   0  0  0  0  0  0  0  0  0  0  0  0
    1.9300   -0.5440   -0.1370 O   0  0  0  0  0  0  0  0  0  0  0  0
    2.8810   -1.4030   -0.0310 C   0  0  0  0  0  0  0  0  0  0  0  0
    4.2650   -1.0880    0.4100 C   0  0  0  0  0  0  0  0  0  0  0  0
    4.7310   -1.1270    1.6370 C   0  0  0  0  0  0  0  0  0  0  0  0
    6.3050   -0.7580    1.9180 S   0  0  0  0  0  0  0  0  0  0  0  0
    6.9950   -0.3840    0.4130 C   0  0  0  0  0  0  0  0  0  0  0  0
    8.2100   -0.0230    0.0990 N   0  0  0  0  0  0  0  0  0  0  0  0
    5.6220   -0.6110   -0.5710 S   0  0  0  0  0  0  0  0  0  0  0  0
  1  2  1  0
  2  3  1  0
  3  4  2  0
  3  9  1  0
  4  5  1  0
  5  6  2  0
  6  7  1  0
  6  8  1  0
  8  9  2  0
  9 10  1  0
 10 11  2  3
 11 12  1  0
 11 21  1  0
 12 13  1  0
 13 14  1  0
 13 19  1  0
 14 15  1  0
 15 16  2  0
 15 17  1  0
 17 18  1  0
 18 19  1  0
 19 20  2  0
 21 22  2  3
 21 28  1  0
 22 23  1  0
 23 24  2  0
 23 27  1  0
 24 25  1  0
 25 26  1  0
 26 27  1  0
 28 29  1  0
 29 30  1  0
 30 31  2  0
 30 35  1  0
 31 32  1  0
 32 33  1  0
 33 34  2  0
 33 35  1  0
M  END
