
     RDKit          3D

 34 36  0  0  0  0  0  0  0  0999 V2000
   -3.3650    2.8700   -2.7200 C   0  0  0  0  0  0  0  0  0  0  0  0
   -3.8490    1.6280   -1.9670 C   0  0  0  0  0  0  0  0  0  0  0  0
   -4.1070    1.9150   -0.5390 C   0  0  0  0  0  0  0  0  0  0  0  0
   -4.5980    0.7570    0.1980 C   0  0  0  0  0  0  0  0  0  0  0  0
   -5.9830    0.6860    0.4400 C   0  0  0  0  0  0  0  0  0  0  0  0
   -6.5090   -0.3440    1.1660 C   0  0  0  0  0  0  0  0  0  0  0  0
   -5.6690   -1.3150    1.6600 C   0  0  0  0  0  0  0  0  0  0  0  0
   -4.3200   -1.2520    1.4270 C   0  0  0  0  0  0  0  0  0  0  0  0
   -3.3990   -2.2780    1.9570 C   0  0  0  0  0  0  0  0  0  0  0  0
   -4.1950   -3.2520    2.6920 N   0  0  0  0  0  0  0  0  0  0  0  0
   -3.7750   -0.2050    0.6860 C   0  0  0  0  0  0  0  0  0  0  0  0
   -2.3580   -0.2430    0.4610 C   0  0  0  0  0  0  0  0  0  0  0  0
   -1.6640    0.4460    1.2930 O   0  0  0  0  0  0  0  0  0  0  0  0
   -1.7210   -0.9590   -0.5600 N   0  0  0  0  0  0  0  0  0  0  0  0
   -2.6160   -1.7500   -1.4420 C   0  0  0  0  0  0  0  0  0  0  0  0
   -0.3510   -1.0110   -0.8410 C   0  0  0  0  0  0  0  0  0  0  0  0
    0.0730   -1.7030   -1.8400 O   0  0  0  0  0  0  0  0  0  0  0  0
    0.6720   -0.3620   -0.1150 N   0  0  0  0  0  0  0  0  0  0  0  0
    2.0790   -0.4870   -0.5060 C   0  0  0  0  0  0  0  0  0  0  0  0
    2.9520    0.2860    0.4200 C   0  0  2  0  0  0  0  0  0  0  0  0
    2.8420   -0.1620    1.8410 C   0  0  0  0  0  0  0  0  0  0  0  0
    3.1390   -1.5590    2.1700 C   0  0  0  0  0  0  0  0  0  0  0  0
    2.9610   -1.8320    3.6760 C   0  0  0  0  0  0  0  0  0  0  0  0
    3.8370   -0.9970    4.3790 O   0  0  0  0  0  0  0  0  0  0  0  0
    2.3720    1.7260    0.4840 C   0  0  0  0  0  0  0  0  0  0  0  0
    2.3680    2.4290   -0.8140 C   0  0  0  0  0  0  0  0  0  0  0  0
    3.2810    1.8860   -1.8210 C   0  0  0  0  0  0  0  0  0  0  0  0
    3.1630    2.3090   -3.1230 C   0  0  0  0  0  0  0  0  0  0  0  0
    3.9940    1.8020   -4.1280 C   0  0  0  0  0  0  0  0  0  0  0  0
    4.9410    0.8660   -3.8000 C   0  0  0  0  0  0  0  0  0  0  0  0
    5.0750    0.4290   -2.4940 C   0  0  0  0  0  0  0  0  0  0  0  0
    4.2470    0.9420   -1.5230 C   0  0  0  0  0  0  0  0  0  0  0  0
    4.3410    0.5290   -0.0900 C   0  0  2  0  0  0  0  0  0  0  0  0
    5.3260   -0.4440    0.1860 N   0  0  0  0  0  0  0  0  0  0  0  0
  1  2  1  0
  2  3  1  0
  3  4  1  0
  4  5  2  0
  4 11  1  0
  5  6  1  0
  6  7  2  0
  7  8  1  0
  8  9  1  0
  8 11  2  0
  9 10  1  0
 11 12  1  0
 12 13  2  0
 12 14  1  0
 14 15  1  0
 14 16  1  0
 16 17  2  0
 16 18  1  0
 18 19  1  0
 20 19  1  6
 20 21  1  0
 20 25  1  0
 20 33  1  0
 21 22  1  0
 22 23  1  0
 23 24  1  0
 25 26  1  0
 26 27  1  0
 27 28  2  0
 27 32  1  0
 28 29  1  0
 29 30  2  0
 30 31  1  0
 31 32  2  0
 32 33  1  0
 33 34  1  6
M  CHG  2  10   1  34   1
M  END
