
     RDKit          3D

 34 36  0  0  0  0  0  0  0  0999 V2000
    6.9290    3.5170   -0.6190 C   0  0  0  0  0  0  0  0  0  0  0  0
    6.1230    3.3800    0.6370 C   0  0  0  0  0  0  0  0  0  0  0  0
    5.5200    1.9850    0.7560 C   0  0  0  0  0  0  0  0  0  0  0  0
    4.6730    1.7840   -0.3930 N   0  0  0  0  0  0  0  0  0  0  0  0
    3.3240    1.3720   -0.0390 C   0  0  0  0  0  0  0  0  0  0  0  0
    3.1620   -0.0740   -0.4630 C   0  0  0  0  0  0  0  0  0  0  0  0
    1.8420   -0.5770   -0.1560 N   0  0  0  0  0  0  0  0  0  0  0  0
    0.8000   -0.4570   -1.1120 C   0  0  0  0  0  0  0  0  0  0  0  0
    1.0760    0.0700   -2.2180 O   0  0  0  0  0  0  0  0  0  0  0  0
   -0.5940   -0.9450   -0.8100 C   0  0  0  0  0  0  0  0  0  0  0  0
   -1.4240   -0.7030   -1.9250 N   0  0  0  0  0  0  0  0  0  0  0  0
   -2.7810   -0.3160   -1.6700 C   0  0  1  0  0  0  0  0  0  0  0  0
   -3.6610   -1.3560   -1.1240 C   0  0  0  0  0  0  0  0  0  0  0  0
   -3.3680   -2.6380   -1.1920 C   0  0  0  0  0  0  0  0  0  0  0  0
   -4.0960   -3.7470   -0.7190 C   0  0  0  0  0  0  0  0  0  0  0  0
   -3.6060   -4.9920   -0.9040 C   0  0  0  0  0  0  0  0  0  0  0  0
   -4.2750   -6.1170   -0.4620 O   0  0  0  0  0  0  0  0  0  0  0  0
   -4.8970   -0.9340   -0.4940 C   0  0  0  0  0  0  0  0  0  0  0  0
   -5.9290   -1.8710   -0.2320 O   0  0  0  0  0  0  0  0  0  0  0  0
   -5.1470    0.3260   -0.1290 C   0  0  0  0  0  0  0  0  0  0  0  0
   -4.1150    1.3120   -0.4040 C   0  0  0  0  0  0  0  0  0  0  0  0
   -4.3540    2.6020    0.1270 C   0  0  0  0  0  0  0  0  0  0  0  0
   -5.6570    2.8920    0.7830 C   0  0  0  0  0  0  0  0  0  0  0  0
   -3.3770    3.5640    0.0230 C   0  0  0  0  0  0  0  0  0  0  0  0
   -2.2070    3.2050   -0.6010 C   0  0  0  0  0  0  0  0  0  0  0  0
   -1.9470    1.9710   -1.1240 C   0  0  0  0  0  0  0  0  0  0  0  0
   -2.9400    0.9790   -1.0270 C   0  0  0  0  0  0  0  0  0  0  0  0
    1.6490   -1.1670    1.1080 C   0  0  0  0  0  0  0  0  0  0  0  0
    1.0820   -0.4700    2.1500 C   0  0  0  0  0  0  0  0  0  0  0  0
    0.8910   -1.0410    3.3900 C   0  0  0  0  0  0  0  0  0  0  0  0
    1.2810   -2.3430    3.5760 C   0  0  0  0  0  0  0  0  0  0  0  0
    1.8570   -3.0880    2.5560 C   0  0  0  0  0  0  0  0  0  0  0  0
    2.0290   -2.4670    1.3250 C   0  0  0  0  0  0  0  0  0  0  0  0
    2.6110   -3.2060    0.2780 N   0  0  0  0  0  0  0  0  0  0  0  0
  1  2  1  0
  2  3  1  0
  3  4  1  0
  4  5  1  0
  5  6  1  0
  6  7  1  0
  7  8  1  0
  7 28  1  0
  8  9  2  0
  8 10  1  0
 10 11  1  0
 12 11  1  1
 12 13  1  0
 12 27  1  0
 13 14  2  3
 13 18  1  0
 14 15  1  0
 15 16  2  3
 16 17  1  0
 18 19  1  0
 18 20  2  0
 20 21  1  0
 21 22  2  0
 21 27  1  0
 22 23  1  0
 22 24  1  0
 24 25  2  0
 25 26  1  0
 26 27  2  0
 28 29  2  0
 28 33  1  0
 29 30  1  0
 30 31  2  0
 31 32  1  0
 32 33  2  0
 33 34  1  0
M  CHG  2   4   1  11   1
M  END
