
     RDKit          3D

 13 12  0  0  0  0  0  0  0  0999 V2000
    3.5410    0.2190   -0.0650 C   0  0  0  0  0  0  0  0  0  0  0  0
    2.0580    0.5670   -0.2430 C   0  0  2  0  0  0  0  0  0  0  0  0
    2.0300    1.9870   -0.1760 O   0  0  0  0  0  0  0  0  0  0  0  0
    1.2630    0.1120    0.7270 O   0  0  0  0  0  0  0  0  0  0  0  0
    0.1530   -0.6180    0.4310 C   0  0  1  0  0  0  0  0  0  0  0  0
    0.4310   -1.9020   -0.3230 C   0  0  0  0  0  0  0  0  0  0  0  0
   -0.3560   -1.0610    1.8060 C   0  0  0  0  0  0  0  0  0  0  0  0
   -0.9580    0.1790   -0.2020 C   0  0  1  0  0  0  0  0  0  0  0  0
   -0.5220    0.7920   -1.4610 N   0  0  0  0  0  0  0  0  0  0  0  0
   -2.1290   -0.6850   -0.5750 C   0  0  0  0  0  0  0  0  0  0  0  0
   -3.0930    0.1920   -1.1350 O   0  0  0  0  0  0  0  0  0  0  0  0
   -1.4410    1.2300    0.7670 C   0  0  0  0  0  0  0  0  0  0  0  0
   -2.5270    1.9220    0.1900 O   0  0  0  0  0  0  0  0  0  0  0  0
  2  1  1  1
  2  3  1  0
  2  4  1  0
  4  5  1  0
  5  6  1  6
  5  7  1  0
  5  8  1  0
  8  9  1  6
  8 10  1  0
  8 12  1  0
 10 11  1  0
 12 13  1  0
M  END
