
     RDKit          3D

 13 12  0  0  0  0  0  0  0  0999 V2000
    4.8430    0.6530    0.7790 C   0  0  0  0  0  0  0  0  0  0  0  0
    3.6380   -0.0880    0.8180 O   0  0  0  0  0  0  0  0  0  0  0  0
    2.4270    0.4670    0.4160 C   0  0  0  0  0  0  0  0  0  0  0  0
    2.4630    1.6590    0.0180 O   0  0  0  0  0  0  0  0  0  0  0  0
    1.1520   -0.2850    0.4470 C   0  0  2  0  0  0  0  0  0  0  0  0
    1.1990   -1.5100   -0.4400 C   0  0  0  0  0  0  0  0  0  0  0  0
    0.1220    0.5410   -0.0150 O   0  0  0  0  0  0  0  0  0  0  0  0
   -1.2110    0.1010   -0.1010 C   0  0  0  0  0  0  0  0  0  0  0  0
   -1.8640    0.3570   -1.1990 C   0  0  0  0  0  0  0  0  0  0  0  0
   -3.2500    0.0140   -1.5450 C   0  0  0  0  0  0  0  0  0  0  0  0
   -4.0020    1.2340   -1.8090 N   0  0  0  0  0  0  0  0  0  0  0  0
   -1.8140   -0.6180    1.0260 C   0  0  0  0  0  0  0  0  0  0  0  0
   -1.7710    0.2480    2.1430 O   0  0  0  0  0  0  0  0  0  0  0  0
  1  2  1  0
  2  3  1  0
  3  4  2  0
  3  5  1  0
  5  6  1  6
  5  7  1  0
  7  8  1  0
  8  9  2  3
  8 12  1  0
  9 10  1  0
 10 11  1  0
 12 13  1  0
M  END
