
     RDKit          3D

 13 12  0  0  0  0  0  0  0  0999 V2000
   -3.0930   -2.4560   -0.3600 C   0  0  0  0  0  0  0  0  0  0  0  0
   -2.4260   -1.1380    0.0250 C   0  0  0  0  0  0  0  0  0  0  0  0
   -1.0460   -1.2750    0.0860 O   0  0  0  0  0  0  0  0  0  0  0  0
   -0.4560   -0.1040    0.4440 C   0  0  2  0  0  0  0  0  0  0  0  0
   -0.9700    0.2400    1.7180 O   0  0  0  0  0  0  0  0  0  0  0  0
   -0.7100    1.0710   -0.4720 C   0  0  0  0  0  0  0  0  0  0  0  0
   -0.0030    2.1400    0.0850 O   0  0  0  0  0  0  0  0  0  0  0  0
   -0.1460    3.3030   -0.6620 C   0  0  0  0  0  0  0  0  0  0  0  0
    1.0420   -0.2020    0.6140 C   0  0  1  0  0  0  0  0  0  0  0  0
    1.3720   -1.1750    1.6520 N   0  0  0  0  0  0  0  0  0  0  0  0
    1.7450   -0.6150   -0.6410 C   0  0  0  0  0  0  0  0  0  0  0  0
    3.2370   -0.6710   -0.3220 C   0  0  0  0  0  0  0  0  0  0  0  0
    3.7030    0.5640    0.0940 O   0  0  0  0  0  0  0  0  0  0  0  0
  1  2  1  0
  2  3  1  0
  3  4  1  0
  4  5  1  1
  4  6  1  0
  4  9  1  0
  6  7  1  0
  7  8  1  0
  9 10  1  1
  9 11  1  0
 11 12  1  0
 12 13  1  0
M  END
