
     RDKit          3D

 13 12  0  0  0  0  0  0  0  0999 V2000
   -1.8780    2.4400    0.6230 C   0  0  0  0  0  0  0  0  0  0  0  0
   -0.9070    1.3620    0.5940 C   0  0  0  0  0  0  0  0  0  0  0  0
   -1.1350    0.0380    0.4070 C   0  0  0  0  0  0  0  0  0  0  0  0
   -2.4920   -0.3270    0.2180 C   0  0  0  0  0  0  0  0  0  0  0  0
   -2.9810   -1.6350    0.0060 N   0  0  0  0  0  0  0  0  0  0  0  0
   -3.4070    0.5830    0.2330 O   0  0  0  0  0  0  0  0  0  0  0  0
    0.0060   -0.8350    0.4210 C   0  0  0  0  0  0  0  0  0  0  0  0
    0.1710   -2.1020    0.2830 C   0  0  0  0  0  0  0  0  0  0  0  0
   -0.8410   -2.9890    0.0670 O   0  0  0  0  0  0  0  0  0  0  0  0
    1.2770   -0.1510    0.6400 O   0  0  0  0  0  0  0  0  0  0  0  0
    2.0980   -0.1750   -0.5330 C   0  0  0  0  0  0  0  0  0  0  0  0
    3.4060    0.5380   -0.2840 C   0  0  0  0  0  0  0  0  0  0  0  0
    3.2170    1.8620    0.0650 O   0  0  0  0  0  0  0  0  0  0  0  0
  1  2  1  0
  2  3  2  3
  3  4  1  0
  3  7  1  0
  4  5  1  0
  4  6  2  0
  7  8  2  3
  7 10  1  0
  8  9  1  0
 10 11  1  0
 11 12  1  0
 12 13  1  0
M  END
