
     RDKit          3D

 13 12  0  0  0  0  0  0  0  0999 V2000
    2.7710   -0.9060   -0.9420 C   0  0  0  0  0  0  0  0  0  0  0  0
    2.3630    0.0920   -0.2060 C   0  0  0  0  0  0  0  0  0  0  0  0
    0.9300    0.4640   -0.1590 C   0  0  0  0  0  0  0  0  0  0  0  0
    0.0910   -0.4460   -1.0210 C   0  0  0  0  0  0  0  0  0  0  0  0
   -1.3560   -0.0410   -0.9640 C   0  0  0  0  0  0  0  0  0  0  0  0
   -1.9430   -0.0960    0.4170 C   0  0  2  0  0  0  0  0  0  0  0  0
   -1.8540   -1.4340    0.9280 N   0  0  0  0  0  0  0  0  0  0  0  0
   -3.3640    0.3340    0.3290 C   0  0  0  0  0  0  0  0  0  0  0  0
   -4.2530   -0.4740    0.6900 O   0  0  0  0  0  0  0  0  0  0  0  0
   -3.7440    1.5740   -0.1270 O   0  0  0  0  0  0  0  0  0  0  0  0
    3.3020    0.8730    0.5930 C   0  0  0  0  0  0  0  0  0  0  0  0
    2.9470    1.8270    1.3030 O   0  0  0  0  0  0  0  0  0  0  0  0
    4.6410    0.5240    0.5470 O   0  0  0  0  0  0  0  0  0  0  0  0
  1  2  2  0
  2  3  1  0
  2 11  1  0
  3  4  1  0
  4  5  1  0
  5  6  1  0
  6  7  1  6
  6  8  1  0
  8  9  2  0
  8 10  1  0
 11 12  2  0
 11 13  1  0
M  END
