
     RDKit          3D

 13 12  0  0  0  0  0  0  0  0999 V2000
   -0.4700   -1.6290    0.3740 C   0  0  0  0  0  0  0  0  0  0  0  0
   -0.9040   -0.1520    0.4760 C   0  0  2  0  0  0  0  0  0  0  0  0
   -0.6820    0.2000    1.7920 O   0  0  0  0  0  0  0  0  0  0  0  0
   -2.3800   -0.1710    0.1940 C   0  0  0  0  0  0  0  0  0  0  0  0
   -3.0290    1.1770    0.2390 C   0  0  0  0  0  0  0  0  0  0  0  0
   -4.4150    1.0190   -0.0440 N   0  0  0  0  0  0  0  0  0  0  0  0
   -0.0970    0.5910   -0.5110 C   0  0  0  0  0  0  0  0  0  0  0  0
    1.2750    0.3950   -0.3240 O   0  0  0  0  0  0  0  0  0  0  0  0
    2.0560    0.7330    0.7320 C   0  0  0  0  0  0  0  0  0  0  0  0
    1.5840    1.3070    1.7170 O   0  0  0  0  0  0  0  0  0  0  0  0
    3.5210    0.4150    0.7240 C   0  0  0  0  0  0  0  0  0  0  0  0
    3.8640   -0.2840   -0.5790 C   0  0  0  0  0  0  0  0  0  0  0  0
    3.0920   -1.4490   -0.6210 O   0  0  0  0  0  0  0  0  0  0  0  0
  2  1  1  1
  2  3  1  0
  2  4  1  0
  2  7  1  0
  4  5  1  0
  5  6  1  0
  7  8  1  0
  8  9  1  0
  9 10  2  0
  9 11  1  0
 11 12  1  0
 12 13  1  0
M  END
