
     RDKit          3D

 23 26  0  0  0  0  0  0  0  0999 V2000
   -6.9760   -1.0730   -1.0110 O   0  0  0  0  0  0  0  0  0  0  0  0
   -6.0040   -0.4480   -0.5150 C   0  0  0  0  0  0  0  0  0  0  0  0
   -6.2090    0.6170    0.2910 N   0  0  0  0  0  0  0  0  0  0  0  0
   -5.1590    1.2680    0.8080 C   0  0  0  0  0  0  0  0  0  0  0  0
   -5.3360    2.2570    1.5570 O   0  0  0  0  0  0  0  0  0  0  0  0
   -3.8900    0.8380    0.5070 C   0  0  0  0  0  0  0  0  0  0  0  0
   -2.7580    1.4650    1.0080 C   0  0  0  0  0  0  0  0  0  0  0  0
   -1.4880    1.0320    0.7040 C   0  0  0  0  0  0  0  0  0  0  0  0
   -1.2870   -0.0520   -0.1160 C   0  0  0  0  0  0  0  0  0  0  0  0
    0.0820   -0.5010   -0.4290 C   0  0  0  0  0  0  0  0  0  0  0  0
    1.2430    0.0790    0.0350 C   0  0  0  0  0  0  0  0  0  0  0  0
    2.3150   -0.6210   -0.4750 C   0  0  0  0  0  0  0  0  0  0  0  0
    3.7470   -0.3400   -0.2320 C   0  0  0  0  0  0  0  0  0  0  0  0
    4.0760    0.7200    0.5820 C   0  0  0  0  0  0  0  0  0  0  0  0
    5.4050    0.9840    0.8100 C   0  0  0  0  0  0  0  0  0  0  0  0
    6.3370    0.2040    0.2350 N   0  0  0  0  0  0  0  0  0  0  0  0
    6.0400   -0.8290   -0.5570 C   0  0  0  0  0  0  0  0  0  0  0  0
    4.7160   -1.1250   -0.8090 C   0  0  0  0  0  0  0  0  0  0  0  0
    1.8060   -1.5900   -1.2230 N   0  0  0  0  0  0  0  0  0  0  0  0
    0.4680   -1.5210   -1.1980 N   0  0  0  0  0  0  0  0  0  0  0  0
   -2.3840   -0.6980   -0.6310 C   0  0  0  0  0  0  0  0  0  0  0  0
   -3.6460   -0.2480   -0.3140 C   0  0  0  0  0  0  0  0  0  0  0  0
   -4.7590   -0.8650   -0.8070 N   0  0  0  0  0  0  0  0  0  0  0  0
  1  2  2  0
  2  3  1  0
  2 23  1  0
  3  4  1  0
  4  5  2  0
  4  6  1  0
  6  7  2  0
  6 22  1  0
  7  8  1  0
  8  9  2  0
  9 10  1  0
  9 21  1  0
 10 11  1  0
 10 20  2  0
 11 12  2  0
 12 13  1  0
 12 19  1  0
 13 14  2  0
 13 18  1  0
 14 15  1  0
 15 16  2  0
 16 17  1  0
 17 18  2  0
 19 20  1  0
 21 22  2  0
 22 23  1  0
M  CHG  1  16   1
M  END
