
     RDKit          3D

 13 12  0  0  0  0  0  0  0  0999 V2000
   -1.6720    3.2850   -0.2060 C   0  0  0  0  0  0  0  0  0  0  0  0
   -0.7410    2.1820    0.0160 C   0  0  0  0  0  0  0  0  0  0  0  0
   -1.2000    0.9210    0.1030 C   0  0  0  0  0  0  0  0  0  0  0  0
   -2.5560    0.7860   -0.0310 O   0  0  0  0  0  0  0  0  0  0  0  0
   -0.2940   -0.1730    0.3220 C   0  0  0  0  0  0  0  0  0  0  0  0
   -0.5220   -1.4450    0.4360 C   0  0  0  0  0  0  0  0  0  0  0  0
   -1.7710   -2.1370    0.3730 C   0  0  0  0  0  0  0  0  0  0  0  0
   -1.7470   -3.5850    0.5340 N   0  0  0  0  0  0  0  0  0  0  0  0
   -2.8550   -1.5630    0.1920 O   0  0  0  0  0  0  0  0  0  0  0  0
    1.1110    0.1440    0.4420 O   0  0  0  0  0  0  0  0  0  0  0  0
    1.9160   -0.3930   -0.5960 C   0  0  0  0  0  0  0  0  0  0  0  0
    3.3470    0.0510   -0.2880 C   0  0  0  0  0  0  0  0  0  0  0  0
    3.6670   -0.4720    0.9540 O   0  0  0  0  0  0  0  0  0  0  0  0
  1  2  1  0
  2  3  2  3
  3  4  1  0
  3  5  1  0
  5  6  2  3
  5 10  1  0
  6  7  1  0
  7  8  1  0
  7  9  2  0
 10 11  1  0
 11 12  1  0
 12 13  1  0
M  END
