
     RDKit          3D

 31 34  0  0  0  0  0  0  0  0999 V2000
    4.7990    1.5420    0.8380 C   0  0  0  0  0  0  0  0  0  0  0  0
    4.5760    0.2130    0.1570 C   0  0  2  0  0  0  0  0  0  0  0  0
    4.2740    0.5040   -1.2840 C   0  0  0  0  0  0  0  0  0  0  0  0
    3.5140   -0.4390    0.8150 O   0  0  0  0  0  0  0  0  0  0  0  0
    2.2640    0.1060    0.8750 C   0  0  0  0  0  0  0  0  0  0  0  0
    2.0690    1.2140    0.3250 O   0  0  0  0  0  0  0  0  0  0  0  0
    1.1510   -0.4960    1.5240 N   0  0  0  0  0  0  0  0  0  0  0  0
   -0.1650    0.1110    1.5670 C   0  0  0  0  0  0  0  0  0  0  0  0
   -0.8860   -0.0230    0.2880 C   0  0  0  0  0  0  0  0  0  0  0  0
   -0.2720   -0.6690   -0.7610 C   0  0  0  0  0  0  0  0  0  0  0  0
   -0.9700   -0.7830   -1.9450 C   0  0  0  0  0  0  0  0  0  0  0  0
   -2.2400   -0.2630   -2.0640 C   0  0  0  0  0  0  0  0  0  0  0  0
   -2.8810    0.3950   -1.0140 C   0  0  0  0  0  0  0  0  0  0  0  0
   -4.2520    0.9380   -1.1850 C   0  0  2  0  0  0  0  0  0  0  0  0
   -4.4910    2.2000   -0.4630 C   0  0  0  0  0  0  0  0  0  0  0  0
   -5.1020    2.2750    0.6970 C   0  0  0  0  0  0  0  0  0  0  0  0
   -5.5930    1.0380    1.3520 C   0  0  1  0  0  0  0  0  0  0  0  0
   -6.7230    1.3220    2.1540 O   0  0  0  0  0  0  0  0  0  0  0  0
   -5.9030   -0.0520    0.3970 C   0  0  0  0  0  0  0  0  0  0  0  0
   -6.8410   -1.0330    0.7150 C   0  0  0  0  0  0  0  0  0  0  0  0
   -7.0890   -2.0030   -0.1750 N   0  0  0  0  0  0  0  0  0  0  0  0
   -6.4550   -2.0470   -1.3590 C   0  0  0  0  0  0  0  0  0  0  0  0
   -5.5120   -1.0860   -1.7140 C   0  0  0  0  0  0  0  0  0  0  0  0
   -5.2580   -0.0900   -0.7990 C   0  0  0  0  0  0  0  0  0  0  0  0
   -2.1530    0.4900    0.1530 C   0  0  0  0  0  0  0  0  0  0  0  0
    5.8340   -0.5780    0.2210 C   0  0  0  0  0  0  0  0  0  0  0  0
    6.0450   -1.7560    0.7740 C   0  0  0  0  0  0  0  0  0  0  0  0
    7.4500   -2.1180    0.5740 C   0  0  0  0  0  0  0  0  0  0  0  0
    8.0440   -0.9940   -0.1710 C   0  0  0  0  0  0  0  0  0  0  0  0
    7.0800   -0.1150   -0.3620 C   0  0  0  0  0  0  0  0  0  0  0  0
    7.3650    1.4050   -1.2270 Cl  0  0  0  0  0  0  0  0  0  0  0  0
  2  1  1  1
  2  3  1  0
  2  4  1  0
  2 26  1  0
  4  5  1  0
  5  6  2  0
  5  7  1  0
  7  8  1  0
  8  9  1  0
  9 10  2  0
  9 25  1  0
 10 11  1  0
 11 12  2  0
 12 13  1  0
 14 13  1  1
 13 25  2  0
 14 15  1  0
 14 24  1  0
 15 16  2  0
 16 17  1  0
 17 18  1  6
 17 19  1  0
 19 20  2  0
 19 24  1  0
 20 21  1  0
 21 22  2  0
 22 23  1  0
 23 24  2  0
 26 27  2  0
 26 30  1  0
 27 28  1  0
 28 29  1  0
 29 30  2  0
 30 31  1  0
M  END
