
     RDKit          3D

 31 34  0  0  0  0  0  0  0  0999 V2000
    8.4530    0.1060   -2.3170 C   0  0  0  0  0  0  0  0  0  0  0  0
    7.0770   -0.0410   -1.8140 C   0  0  0  0  0  0  0  0  0  0  0  0
    6.3230   -0.8180   -2.3600 O   0  0  0  0  0  0  0  0  0  0  0  0
    6.5860    0.7380   -0.6540 C   0  0  0  0  0  0  0  0  0  0  0  0
    5.1500    0.3860   -0.3630 C   0  0  0  0  0  0  0  0  0  0  0  0
    4.0240    0.9890   -0.8780 C   0  0  0  0  0  0  0  0  0  0  0  0
    2.9170    0.3560   -0.3490 C   0  0  0  0  0  0  0  0  0  0  0  0
    1.5440    0.5310   -0.5030 C   0  0  0  0  0  0  0  0  0  0  0  0
    0.6250   -0.2570    0.1580 C   0  0  0  0  0  0  0  0  0  0  0  0
   -0.8030   -0.0250   -0.0590 C   0  0  0  0  0  0  0  0  0  0  0  0
   -1.3120    0.0900   -1.3480 C   0  0  0  0  0  0  0  0  0  0  0  0
   -2.6510    0.2990   -1.5310 C   0  0  0  0  0  0  0  0  0  0  0  0
   -3.5740    0.4070   -0.4700 C   0  0  0  0  0  0  0  0  0  0  0  0
   -5.0030    0.5370   -0.8010 C   0  0  0  0  0  0  0  0  0  0  0  0
   -5.8700    1.1530   -0.0500 C   0  0  0  0  0  0  0  0  0  0  0  0
   -7.3050    1.3170   -0.3090 C   0  0  2  0  0  0  0  0  0  0  0  0
   -8.2310    0.5930    1.0770 Cl  0  0  0  0  0  0  0  0  0  0  0  0
   -7.7750    0.6210   -1.4950 C   0  0  0  0  0  0  0  0  0  0  0  0
   -9.0480    0.6310   -1.7710 O   0  0  0  0  0  0  0  0  0  0  0  0
   -6.8940   -0.0630   -2.3520 N   0  0  0  0  0  0  0  0  0  0  0  0
   -5.5130   -0.1170   -2.0240 C   0  0  0  0  0  0  0  0  0  0  0  0
   -4.7530   -0.7350   -2.8020 O   0  0  0  0  0  0  0  0  0  0  0  0
   -3.0850    0.2940    0.7800 C   0  0  0  0  0  0  0  0  0  0  0  0
   -3.9520    0.3000    1.9930 C   0  0  0  0  0  0  0  0  0  0  0  0
   -1.6990    0.0800    0.9690 C   0  0  0  0  0  0  0  0  0  0  0  0
   -1.2390   -0.0180    2.3880 C   0  0  0  0  0  0  0  0  0  0  0  0
    1.1410   -1.2300    0.9820 C   0  0  0  0  0  0  0  0  0  0  0  0
    2.4660   -1.4510    1.1760 C   0  0  0  0  0  0  0  0  0  0  0  0
    3.0060   -2.5040    2.0670 C   0  0  0  0  0  0  0  0  0  0  0  0
    3.3770   -0.6340    0.4900 C   0  0  0  0  0  0  0  0  0  0  0  0
    4.7120   -0.5830    0.4530 N   0  0  0  0  0  0  0  0  0  0  0  0
  1  2  1  0
  2  3  2  0
  2  4  1  0
  4  5  1  0
  5  6  2  0
  5 31  1  0
  6  7  1  0
  7  8  2  0
  7 30  1  0
  8  9  1  0
  9 10  1  0
  9 27  2  0
 10 11  2  0
 10 25  1  0
 11 12  1  0
 12 13  2  0
 13 14  1  0
 13 23  1  0
 14 15  2  0
 14 21  1  0
 15 16  1  0
 16 17  1  1
 16 18  1  0
 18 19  2  0
 18 20  1  0
 20 21  1  0
 21 22  2  0
 23 24  1  0
 23 25  2  0
 25 26  1  0
 27 28  1  0
 28 29  1  0
 28 30  2  0
 30 31  1  0
M  END
