
     RDKit          3D

 29 31  0  0  0  0  0  0  0  0999 V2000
    5.5820    1.9600    0.3060 C   0  0  0  0  0  0  0  0  0  0  0  0
    6.1360    0.6030    0.4930 C   0  0  0  0  0  0  0  0  0  0  0  0
    5.4290   -0.4370    0.8170 C   0  0  0  0  0  0  0  0  0  0  0  0
    3.9670   -0.4800    1.0580 C   0  0  0  0  0  0  0  0  0  0  0  0
    3.3030   -1.3820    0.1420 N   0  0  0  0  0  0  0  0  0  0  0  0
    3.3320   -0.8890   -1.2090 C   0  0  0  0  0  0  0  0  0  0  0  0
    2.2880    0.1570   -1.2600 C   0  0  0  0  0  0  0  0  0  0  0  0
    1.3090   -0.1350   -0.0920 C   0  0  1  0  0  0  0  0  0  0  0  0
   -0.0430   -0.2920   -0.6130 C   0  0  0  0  0  0  0  0  0  0  0  0
   -1.1590    0.2780   -0.1590 C   0  0  0  0  0  0  0  0  0  0  0  0
   -1.0740    1.1640    0.9840 C   0  0  0  0  0  0  0  0  0  0  0  0
   -2.1630    1.8960    1.6370 C   0  0  0  0  0  0  0  0  0  0  0  0
    0.0570    1.3610    1.5200 O   0  0  0  0  0  0  0  0  0  0  0  0
   -2.4150    0.0080   -0.8140 N   0  0  0  0  0  0  0  0  0  0  0  0
   -3.6630    0.5500   -0.4120 C   0  0  0  0  0  0  0  0  0  0  0  0
   -4.0410    1.8070   -0.7980 C   0  0  0  0  0  0  0  0  0  0  0  0
   -5.2790    2.3620   -0.5010 C   0  0  0  0  0  0  0  0  0  0  0  0
   -6.1670    1.6010    0.2200 C   0  0  0  0  0  0  0  0  0  0  0  0
   -5.8000    0.3300    0.6170 C   0  0  0  0  0  0  0  0  0  0  0  0
   -4.5710   -0.2290    0.3270 C   0  0  0  0  0  0  0  0  0  0  0  0
   -4.2300   -1.5090    0.7390 O   0  0  0  0  0  0  0  0  0  0  0  0
   -5.1570   -2.2770    1.4800 C   0  0  0  0  0  0  0  0  0  0  0  0
   -2.5230   -0.8540   -1.9440 N   0  0  0  0  0  0  0  0  0  0  0  0
   -1.3510   -1.4540   -2.4220 C   0  0  0  0  0  0  0  0  0  0  0  0
   -1.3870   -2.2240   -3.4160 O   0  0  0  0  0  0  0  0  0  0  0  0
   -0.1400   -1.1720   -1.7620 N   0  0  0  0  0  0  0  0  0  0  0  0
    1.8850   -1.4700    0.3870 C   0  0  0  0  0  0  0  0  0  0  0  0
    6.1050   -1.6980    0.9660 N   0  0  0  0  0  0  0  0  0  0  0  0
    7.4700   -1.7400    0.9170 F   0  0  0  0  0  0  0  0  0  0  0  0
  1  2  1  0
  2  3  2  3
  3  4  1  0
  3 28  1  0
  4  5  1  0
  5  6  1  0
  5 27  1  0
  6  7  1  0
  7  8  1  0
  8  9  1  6
  8 27  1  0
  9 10  2  0
  9 26  1  0
 10 11  1  0
 10 14  1  0
 11 12  1  0
 11 13  2  0
 14 15  1  0
 14 23  1  0
 15 16  2  0
 15 20  1  0
 16 17  1  0
 17 18  2  0
 18 19  1  0
 19 20  2  0
 20 21  1  0
 21 22  1  0
 23 24  1  0
 24 25  2  0
 24 26  1  0
 28 29  1  0
M  END
