
     RDKit          3D

 31 34  0  0  0  0  0  0  0  0999 V2000
   -7.9060    0.6980    1.7340 C   0  0  0  0  0  0  0  0  0  0  0  0
   -6.7330    0.6800    0.9330 O   0  0  0  0  0  0  0  0  0  0  0  0
   -5.5820    0.0600    1.3900 C   0  0  0  0  0  0  0  0  0  0  0  0
   -5.6390   -0.4720    2.5280 O   0  0  0  0  0  0  0  0  0  0  0  0
   -4.3630    0.0250    0.5910 C   0  0  0  0  0  0  0  0  0  0  0  0
   -3.2390   -0.5980    1.0740 C   0  0  0  0  0  0  0  0  0  0  0  0
   -2.0480   -0.6600    0.3520 C   0  0  0  0  0  0  0  0  0  0  0  0
   -0.8370   -1.3480    0.9010 C   0  0  1  0  0  0  0  0  0  0  0  0
   -0.2670   -2.1400   -0.1370 N   0  0  0  0  0  0  0  0  0  0  0  0
    1.1160   -2.4440   -0.1500 C   0  0  0  0  0  0  0  0  0  0  0  0
    1.6350   -3.5650   -0.7670 C   0  0  0  0  0  0  0  0  0  0  0  0
    2.9810   -3.8500   -0.7650 C   0  0  0  0  0  0  0  0  0  0  0  0
    3.8230   -2.9770   -0.1230 C   0  0  0  0  0  0  0  0  0  0  0  0
    5.5390   -3.3190   -0.1080 Cl  0  0  0  0  0  0  0  0  0  0  0  0
    3.3170   -1.8340    0.5100 C   0  0  0  0  0  0  0  0  0  0  0  0
    1.9570   -1.5710    0.4930 C   0  0  0  0  0  0  0  0  0  0  0  0
    1.3850   -0.3840    1.1380 C   0  0  1  0  0  0  0  0  0  0  0  0
    1.5260    0.8830    0.2860 C   0  0  0  0  0  0  0  0  0  0  0  0
    2.9300    1.2080   -0.0020 C   0  0  0  0  0  0  0  0  0  0  0  0
    3.5740    0.7150   -1.1430 C   0  0  0  0  0  0  0  0  0  0  0  0
    4.8920    1.0290   -1.4000 C   0  0  0  0  0  0  0  0  0  0  0  0
    5.6260    1.8330   -0.5540 C   0  0  0  0  0  0  0  0  0  0  0  0
    7.0590    2.1680   -0.8450 C   0  0  0  0  0  0  0  0  0  0  0  0
    5.0060    2.3240    0.5710 C   0  0  0  0  0  0  0  0  0  0  0  0
    3.6910    2.0090    0.8230 C   0  0  0  0  0  0  0  0  0  0  0  0
    0.0510   -0.5050    1.6010 N   0  0  0  0  0  0  0  0  0  0  0  0
   -2.0380   -0.0580   -0.8970 C   0  0  0  0  0  0  0  0  0  0  0  0
   -3.1430    0.5740   -1.4100 C   0  0  0  0  0  0  0  0  0  0  0  0
   -4.2980    0.6080   -0.6560 C   0  0  0  0  0  0  0  0  0  0  0  0
   -5.4530    1.2360   -1.1260 O   0  0  0  0  0  0  0  0  0  0  0  0
   -5.4680    1.8550   -2.3920 C   0  0  0  0  0  0  0  0  0  0  0  0
  1  2  1  0
  2  3  1  0
  3  4  2  0
  3  5  1  0
  5  6  2  0
  5 29  1  0
  6  7  1  0
  8  7  1  6
  7 27  2  0
  8  9  1  0
  8 26  1  0
  9 10  1  0
 10 11  2  0
 10 16  1  0
 11 12  1  0
 12 13  2  0
 13 14  1  0
 13 15  1  0
 15 16  2  0
 16 17  1  0
 17 18  1  6
 17 26  1  0
 18 19  1  0
 19 20  2  0
 19 25  1  0
 20 21  1  0
 21 22  2  0
 22 23  1  0
 22 24  1  0
 24 25  2  0
 27 28  1  0
 28 29  2  0
 29 30  1  0
 30 31  1  0
M  END
