
     RDKit          3D

 31 34  0  0  0  0  0  0  0  0999 V2000
    9.4160    1.3390   -1.6600 C   0  0  0  0  0  0  0  0  0  0  0  0
    8.3700    0.6650   -0.8640 C   0  0  0  0  0  0  0  0  0  0  0  0
    8.6910   -0.2840    0.0790 C   0  0  0  0  0  0  0  0  0  0  0  0
    7.6490   -0.8750    0.7910 C   0  0  0  0  0  0  0  0  0  0  0  0
    7.9990   -1.8250    1.7310 O   0  0  0  0  0  0  0  0  0  0  0  0
    6.3250   -0.5210    0.5600 C   0  0  0  0  0  0  0  0  0  0  0  0
    5.3040   -1.1080    1.2660 C   0  0  0  0  0  0  0  0  0  0  0  0
    3.9800   -0.7330    1.0150 C   0  0  0  0  0  0  0  0  0  0  0  0
    2.9520   -1.3160    1.7160 C   0  0  0  0  0  0  0  0  0  0  0  0
    1.6190   -0.9450    1.4700 C   0  0  0  0  0  0  0  0  0  0  0  0
    1.3010   -0.0040    0.5350 C   0  0  0  0  0  0  0  0  0  0  0  0
    0.0080    0.4260    0.2060 N   0  0  0  0  0  0  0  0  0  0  0  0
   -1.1780   -0.1640    0.6810 C   0  0  0  0  0  0  0  0  0  0  0  0
   -1.2020   -1.1450    1.4500 O   0  0  0  0  0  0  0  0  0  0  0  0
   -2.5300    0.3620    0.2820 C   0  0  0  0  0  0  0  0  0  0  0  0
   -3.6480   -0.4150    0.8900 C   0  0  0  0  0  0  0  0  0  0  0  0
   -4.9210    0.1280    0.4850 N   0  0  0  0  0  0  0  0  0  0  0  0
   -5.6910    1.1510    1.1380 C   0  0  0  0  0  0  0  0  0  0  0  0
   -5.1900    2.0700    1.8500 O   0  0  0  0  0  0  0  0  0  0  0  0
   -7.1490    0.9250    0.8240 C   0  0  0  0  0  0  0  0  0  0  0  0
   -7.0880   -0.3490   -0.0020 C   0  0  1  0  0  0  0  0  0  0  0  0
   -8.2620   -0.4600   -0.9110 C   0  0  0  0  0  0  0  0  0  0  0  0
   -8.3730    0.8930   -2.0530 Cl  0  0  0  0  0  0  0  0  0  0  0  0
   -5.7560   -0.2140   -0.6800 C   0  0  1  0  0  0  0  0  0  0  0  0
   -5.6630    0.9780   -1.5980 C   0  0  0  0  0  0  0  0  0  0  0  0
   -5.3040   -1.4510   -1.3770 C   0  0  0  0  0  0  0  0  0  0  0  0
    2.3500    0.5720   -0.1630 C   0  0  0  0  0  0  0  0  0  0  0  0
    3.6660    0.2160    0.0700 C   0  0  0  0  0  0  0  0  0  0  0  0
    4.7060    0.7930   -0.6260 C   0  0  0  0  0  0  0  0  0  0  0  0
    6.0170    0.4360   -0.3920 C   0  0  0  0  0  0  0  0  0  0  0  0
    7.0570    1.0070   -1.0830 C   0  0  0  0  0  0  0  0  0  0  0  0
  1  2  1  0
  2  3  2  0
  2 31  1  0
  3  4  1  0
  4  5  1  0
  4  6  2  0
  6  7  1  0
  6 30  1  0
  7  8  2  0
  8  9  1  0
  8 28  1  0
  9 10  2  0
 10 11  1  0
 11 12  1  0
 11 27  2  0
 12 13  1  0
 13 14  2  0
 13 15  1  0
 15 16  1  0
 16 17  1  0
 17 18  1  0
 17 24  1  0
 18 19  2  0
 18 20  1  0
 20 21  1  0
 21 22  1  6
 21 24  1  0
 22 23  1  0
 24 25  1  6
 24 26  1  0
 27 28  1  0
 28 29  2  0
 29 30  1  0
 30 31  2  0
M  END
