
     RDKit          3D

 30 33  0  0  0  0  0  0  0  0999 V2000
   -8.2830   -0.2000   -0.3760 N   0  0  0  0  0  0  0  0  0  0  0  0
   -6.5580   -0.2370   -0.3130 S   0  0  2  0  0  0  0  0  0  0  0  0
   -6.0430    0.6850   -1.3650 O   0  0  0  0  0  0  0  0  0  0  0  0
   -6.0660   -1.6220   -0.5650 O   0  0  0  0  0  0  0  0  0  0  0  0
   -6.0510    0.2990    1.3090 C   0  0  0  0  0  0  0  0  0  0  0  0
   -4.5790    0.2970    1.4500 C   0  0  0  0  0  0  0  0  0  0  0  0
   -3.9190   -0.8250    1.8980 C   0  0  0  0  0  0  0  0  0  0  0  0
   -2.5480   -0.7700    2.0090 C   0  0  0  0  0  0  0  0  0  0  0  0
   -1.8000    0.3630    1.6900 C   0  0  0  0  0  0  0  0  0  0  0  0
   -0.4240    0.4410    1.8060 N   0  0  0  0  0  0  0  0  0  0  0  0
    0.5420    0.2080    1.0690 C   0  0  0  0  0  0  0  0  0  0  0  0
    0.5310   -0.2810   -0.3280 C   0  0  0  0  0  0  0  0  0  0  0  0
   -0.5990   -0.5650   -1.0500 C   0  0  0  0  0  0  0  0  0  0  0  0
   -0.2350   -0.9830   -2.2710 N   0  0  0  0  0  0  0  0  0  0  0  0
    1.1280   -0.9540   -2.2910 C   0  0  0  0  0  0  0  0  0  0  0  0
    2.5630   -1.2800   -3.3320 S   0  0  0  0  0  0  0  0  0  0  0  0
    3.7750   -0.7850   -2.0120 C   0  0  0  0  0  0  0  0  0  0  0  0
    5.0490   -0.8150   -2.1970 C   0  0  0  0  0  0  0  0  0  0  0  0
    6.0460   -0.4440   -1.2160 C   0  0  0  0  0  0  0  0  0  0  0  0
    6.7420   -1.3920   -0.4950 C   0  0  0  0  0  0  0  0  0  0  0  0
    7.6740   -0.9970    0.4240 C   0  0  0  0  0  0  0  0  0  0  0  0
    7.9400    0.3380    0.6530 C   0  0  0  0  0  0  0  0  0  0  0  0
    7.2420    1.2840   -0.0700 C   0  0  0  0  0  0  0  0  0  0  0  0
    6.2970    0.9110   -1.0030 C   0  0  0  0  0  0  0  0  0  0  0  0
    5.4010    2.1110   -1.9320 Cl  0  0  0  0  0  0  0  0  0  0  0  0
    2.9350   -0.4550   -1.0080 C   0  0  0  0  0  0  0  0  0  0  0  0
    3.5470   -0.0520    0.0950 O   0  0  0  0  0  0  0  0  0  0  0  0
    1.6260   -0.5330   -1.1290 N   0  0  0  0  0  0  0  0  0  0  0  0
   -2.5070    1.4620    1.2450 C   0  0  0  0  0  0  0  0  0  0  0  0
   -3.8740    1.4470    1.1210 C   0  0  0  0  0  0  0  0  0  0  0  0
  2  1  1  1
  2  3  2  0
  2  4  2  0
  2  5  1  0
  5  6  1  0
  6  7  2  0
  6 30  1  0
  7  8  1  0
  8  9  2  0
  9 10  1  0
  9 29  1  0
 10 11  2  3
 11 12  1  0
 12 13  2  0
 12 28  1  0
 13 14  1  0
 14 15  2  0
 15 16  1  0
 15 28  1  0
 16 17  1  0
 17 18  2  3
 17 26  1  0
 18 19  1  0
 19 20  2  0
 19 24  1  0
 20 21  1  0
 21 22  2  0
 22 23  1  0
 23 24  2  0
 24 25  1  0
 26 27  2  0
 26 28  1  0
 29 30  2  0
M  CHG  1   1   1
M  END
