
     RDKit          3D

 30 33  0  0  0  0  0  0  0  0999 V2000
    6.7200    0.7090    0.0220 C   0  0  0  0  0  0  0  0  0  0  0  0
    5.2330    0.5130   -0.0470 C   0  0  0  0  0  0  0  0  0  0  0  0
    4.4650    0.5140    1.0820 C   0  0  0  0  0  0  0  0  0  0  0  0
    3.0940    0.3330    0.9920 C   0  0  0  0  0  0  0  0  0  0  0  0
    2.4320    0.1470   -0.2160 C   0  0  0  0  0  0  0  0  0  0  0  0
    3.2330    0.1520   -1.3320 C   0  0  0  0  0  0  0  0  0  0  0  0
    4.5870    0.3290   -1.2490 C   0  0  0  0  0  0  0  0  0  0  0  0
    2.5220   -0.0850   -2.9010 S   0  0  2  0  0  0  0  0  0  0  0  0
    3.3310   -1.0380   -3.7460 O   0  0  0  0  0  0  0  0  0  0  0  0
    2.3910    1.2000   -3.6630 O   0  0  0  0  0  0  0  0  0  0  0  0
    0.9200   -0.7900   -2.6030 C   0  0  0  0  0  0  0  0  0  0  0  0
    0.2760    0.0040   -1.4960 C   0  0  0  0  0  0  0  0  0  0  0  0
    1.0170   -0.0300   -0.2620 N   0  0  0  0  0  0  0  0  0  0  0  0
    0.1700   -0.3040    1.1950 S   0  0  1  0  0  0  0  0  0  0  0  0
    1.0450   -1.5000    1.8570 N   0  0  0  0  0  0  0  0  0  0  0  0
    0.3580    0.7410    2.2590 O   0  0  0  0  0  0  0  0  0  0  0  0
   -1.4060   -0.9620    1.0710 C   0  0  0  0  0  0  0  0  0  0  0  0
   -1.7170   -2.3380    1.0410 C   0  0  0  0  0  0  0  0  0  0  0  0
   -0.6700   -3.3980    0.9660 C   0  0  0  0  0  0  0  0  0  0  0  0
   -3.0360   -2.5210    1.0820 N   0  0  0  0  0  0  0  0  0  0  0  0
   -3.6400   -1.3260    1.1370 C   0  0  0  0  0  0  0  0  0  0  0  0
   -4.9800   -0.9620    1.2520 C   0  0  0  0  0  0  0  0  0  0  0  0
   -5.2950    0.3610    1.3510 C   0  0  0  0  0  0  0  0  0  0  0  0
   -7.0120    0.7650    1.5020 Cl  0  0  0  0  0  0  0  0  0  0  0  0
   -4.3390    1.3490    1.3360 C   0  0  0  0  0  0  0  0  0  0  0  0
   -2.9980    0.9600    1.2150 C   0  0  0  0  0  0  0  0  0  0  0  0
   -2.0460    2.0590    0.9150 C   0  0  0  0  0  0  0  0  0  0  0  0
   -2.5900    2.5970   -0.4620 C   0  0  0  0  0  0  0  0  0  0  0  0
   -2.6630    1.6070   -1.4630 N   0  0  0  0  0  0  0  0  0  0  0  0
   -2.6500   -0.3440    1.1250 C   0  0  0  0  0  0  0  0  0  0  0  0
  1  2  1  0
  2  3  2  0
  2  7  1  0
  3  4  1  0
  4  5  2  0
  5  6  1  0
  5 13  1  0
  6  7  2  0
  6  8  1  0
  8  9  2  0
  8 10  2  0
  8 11  1  1
 11 12  1  0
 12 13  1  0
 14 13  1  6
 14 15  2  0
 14 16  2  0
 14 17  1  0
 17 18  2  0
 17 30  1  0
 18 19  1  0
 18 20  1  0
 20 21  1  0
 21 22  2  0
 21 30  1  0
 22 23  1  0
 23 24  1  0
 23 25  2  0
 25 26  1  0
 26 27  1  0
 26 30  2  0
 27 28  1  0
 28 29  1  0
M  CHG  1  29   1
M  END
