
     RDKit          3D

 30 33  0  0  0  0  0  0  0  0999 V2000
    5.0290   -1.5790    0.0720 O   0  0  0  0  0  0  0  0  0  0  0  0
    4.9100   -1.1560    1.2600 C   0  0  0  0  0  0  0  0  0  0  0  0
    6.1120   -1.1280    2.1270 C   0  0  0  0  0  0  0  0  0  0  0  0
    7.5780   -1.7330    1.2570 S   0  0  0  0  0  0  0  0  0  0  0  0
    7.9970   -0.6060   -0.0570 C   0  0  0  0  0  0  0  0  0  0  0  0
    7.2590    0.5320   -0.2890 C   0  0  0  0  0  0  0  0  0  0  0  0
    7.5660    1.4190   -1.3050 C   0  0  0  0  0  0  0  0  0  0  0  0
    8.6570    1.1120   -2.0860 C   0  0  0  0  0  0  0  0  0  0  0  0
    9.4080   -0.0160   -1.8730 C   0  0  0  0  0  0  0  0  0  0  0  0
    9.0790   -0.8830   -0.8540 C   0  0  0  0  0  0  0  0  0  0  0  0
   10.0560   -2.3160   -0.6060 Cl  0  0  0  0  0  0  0  0  0  0  0  0
    3.6220   -0.7410    1.6600 N   0  0  0  0  0  0  0  0  0  0  0  0
    2.4890   -0.7740    0.8180 C   0  0  0  0  0  0  0  0  0  0  0  0
    1.2170   -0.3830    1.1620 C   0  0  0  0  0  0  0  0  0  0  0  0
    0.3800   -0.5630    0.0690 C   0  0  0  0  0  0  0  0  0  0  0  0
   -1.0170   -0.3000   -0.0530 N   0  0  0  0  0  0  0  0  0  0  0  0
   -1.8090    0.2150    0.9740 C   0  0  0  0  0  0  0  0  0  0  0  0
   -1.3240    0.4800    2.0890 O   0  0  0  0  0  0  0  0  0  0  0  0
   -3.2720    0.4700    0.7820 C   0  0  0  0  0  0  0  0  0  0  0  0
   -4.0290    0.2790   -0.2890 C   0  0  0  0  0  0  0  0  0  0  0  0
   -5.3420    0.5770   -0.2530 C   0  0  0  0  0  0  0  0  0  0  0  0
   -5.8240    1.0780    0.9390 C   0  0  0  0  0  0  0  0  0  0  0  0
   -4.3680    1.1020    1.9680 S   0  0  0  0  0  0  0  0  0  0  0  0
   -7.1650    1.5250    1.4080 C   0  0  0  0  0  0  0  0  0  0  0  0
   -8.1740    0.9610    0.4650 C   0  0  0  0  0  0  0  0  0  0  0  0
   -7.9550   -0.4560    0.0790 C   0  0  0  0  0  0  0  0  0  0  0  0
   -7.2380   -0.6550   -1.1410 N   0  0  0  0  0  0  0  0  0  0  0  0
   -6.2900    0.3890   -1.4390 C   0  0  0  0  0  0  0  0  0  0  0  0
    1.1730   -1.0500   -0.8800 O   0  0  0  0  0  0  0  0  0  0  0  0
    2.3870   -1.1740   -0.4550 N   0  0  0  0  0  0  0  0  0  0  0  0
  1  2  2  0
  2  3  1  0
  2 12  1  0
  3  4  1  0
  4  5  1  0
  5  6  2  0
  5 10  1  0
  6  7  1  0
  7  8  2  0
  8  9  1  0
  9 10  2  0
 10 11  1  0
 12 13  1  0
 13 14  1  0
 13 30  2  0
 14 15  2  0
 15 16  1  0
 15 29  1  0
 16 17  1  0
 17 18  2  0
 17 19  1  0
 19 20  2  0
 19 23  1  0
 20 21  1  0
 21 22  2  0
 21 28  1  0
 22 23  1  0
 22 24  1  0
 24 25  1  0
 25 26  1  0
 26 27  1  0
 27 28  1  0
 29 30  1  0
M  CHG  1  27   1
M  END
