
     RDKit          3D

 29 33  0  0  0  0  0  0  0  0999 V2000
    0.4700   -0.3300   -0.9400 O   0  0  0  0  0  0  0  0  0  0  0  0
    0.0230   -1.2900   -0.2800 C   0  0  0  0  0  0  0  0  0  0  0  0
    0.8140   -2.1620    0.6290 C   0  0  1  0  0  0  0  0  0  0  0  0
    0.9680   -1.4940    1.8810 N   0  0  0  0  0  0  0  0  0  0  0  0
    2.6190   -1.3560    2.3650 S   0  0  2  0  0  0  0  0  0  0  0  0
    3.2240   -2.7140    2.4450 O   0  0  0  0  0  0  0  0  0  0  0  0
    2.7440   -0.6730    3.6960 O   0  0  0  0  0  0  0  0  0  0  0  0
    3.4640   -0.4260    1.1930 C   0  0  0  0  0  0  0  0  0  0  0  0
    4.5140   -0.6660    0.3870 C   0  0  0  0  0  0  0  0  0  0  0  0
    4.9430    0.3060   -0.4400 C   0  0  0  0  0  0  0  0  0  0  0  0
    6.0020    0.2170   -1.3250 N   0  0  0  0  0  0  0  0  0  0  0  0
    6.3410    1.2540   -2.1030 C   0  0  0  0  0  0  0  0  0  0  0  0
    5.7080    2.4670   -2.1140 C   0  0  0  0  0  0  0  0  0  0  0  0
    4.6330    2.5990   -1.2350 C   0  0  0  0  0  0  0  0  0  0  0  0
    4.3120    1.5030   -0.4450 C   0  0  0  0  0  0  0  0  0  0  0  0
    3.0210    1.2360    0.8080 S   0  0  0  0  0  0  0  0  0  0  0  0
   -0.1420   -3.3480    0.7790 C   0  0  0  0  0  0  0  0  0  0  0  0
   -1.4670   -2.6150    0.8390 C   0  0  0  0  0  0  0  0  0  0  0  0
   -1.3370   -1.7080   -0.2950 N   0  0  0  0  0  0  0  0  0  0  0  0
   -2.4150   -1.3770   -1.1740 C   0  0  0  0  0  0  0  0  0  0  0  0
   -3.1960   -0.1970   -0.7490 C   0  0  0  0  0  0  0  0  0  0  0  0
   -3.0290    1.1370   -1.0430 C   0  0  0  0  0  0  0  0  0  0  0  0
   -4.0150    1.8690   -0.4090 C   0  0  0  0  0  0  0  0  0  0  0  0
   -4.3500    3.1980   -0.3320 C   0  0  0  0  0  0  0  0  0  0  0  0
   -5.4320    3.6350    0.4100 C   0  0  0  0  0  0  0  0  0  0  0  0
   -6.1430    2.7180    1.0510 N   0  0  0  0  0  0  0  0  0  0  0  0
   -5.8600    1.4170    1.0090 C   0  0  0  0  0  0  0  0  0  0  0  0
   -4.7920    0.9620    0.2790 C   0  0  0  0  0  0  0  0  0  0  0  0
   -4.2710   -0.2720    0.0530 N   0  0  0  0  0  0  0  0  0  0  0  0
  1  2  2  0
  2  3  1  0
  2 19  1  0
  3  4  1  1
  3 17  1  0
  5  4  1  6
  5  6  2  0
  5  7  2  0
  5  8  1  0
  8  9  2  0
  8 16  1  0
  9 10  1  0
 10 11  2  0
 10 15  1  0
 11 12  1  0
 12 13  2  0
 13 14  1  0
 14 15  2  0
 15 16  1  0
 17 18  1  0
 18 19  1  0
 19 20  1  0
 20 21  1  0
 21 22  2  0
 21 29  1  0
 22 23  1  0
 23 24  2  0
 23 28  1  0
 24 25  1  0
 25 26  2  0
 26 27  1  0
 27 28  2  0
 28 29  1  0
M  END
