
     RDKit          3D

 30 33  0  0  0  0  0  0  0  0999 V2000
   -0.1240    1.7600    1.9350 O   0  0  0  0  0  0  0  0  0  0  0  0
   -0.3570    1.3320    0.7780 C   0  0  0  0  0  0  0  0  0  0  0  0
    0.6720    1.3350   -0.1840 O   0  0  0  0  0  0  0  0  0  0  0  0
    1.9270    1.8250    0.2170 C   0  0  0  0  0  0  0  0  0  0  0  0
    2.5720    1.0760    1.3330 C   0  0  0  0  0  0  0  0  0  0  0  0
    2.8080   -0.3810    0.9860 C   0  0  0  0  0  0  0  0  0  0  0  0
    3.6700   -0.4840   -0.1680 N   0  0  0  0  0  0  0  0  0  0  0  0
    4.0410   -1.8730   -0.3370 C   0  0  0  0  0  0  0  0  0  0  0  0
    5.6180   -2.0010   -1.1790 S   0  0  0  0  0  0  0  0  0  0  0  0
    6.9540   -1.3850   -0.1030 C   0  0  0  0  0  0  0  0  0  0  0  0
    6.6350   -0.9650    1.1790 C   0  0  0  0  0  0  0  0  0  0  0  0
    8.2200   -0.4500    1.8520 S   0  0  0  0  0  0  0  0  0  0  0  0
    9.1910   -0.8470    0.3350 C   0  0  0  0  0  0  0  0  0  0  0  0
    8.2240   -1.3190   -0.5020 C   0  0  0  0  0  0  0  0  0  0  0  0
    8.7650   -1.8390   -2.1560 Cl  0  0  0  0  0  0  0  0  0  0  0  0
   -1.6500    0.8550    0.4660 N   0  0  0  0  0  0  0  0  0  0  0  0
   -2.6690    0.8730    1.4890 C   0  0  0  0  0  0  0  0  0  0  0  0
   -3.6380   -0.2590    1.1770 C   0  0  0  0  0  0  0  0  0  0  0  0
   -4.2470    0.0140   -0.1200 C   0  0  0  0  0  0  0  0  0  0  0  0
   -3.3640    0.3220   -1.1590 C   0  0  0  0  0  0  0  0  0  0  0  0
   -3.9020    0.5790   -2.3940 C   0  0  0  0  0  0  0  0  0  0  0  0
   -3.1040    0.8580   -3.3360 O   0  0  0  0  0  0  0  0  0  0  0  0
   -5.2280    0.5360   -2.6010 N   0  0  0  0  0  0  0  0  0  0  0  0
   -6.0690    0.2390   -1.5970 C   0  0  0  0  0  0  0  0  0  0  0  0
   -7.4400    0.1920   -1.7950 C   0  0  0  0  0  0  0  0  0  0  0  0
   -8.2850   -0.1020   -0.7990 N   0  0  0  0  0  0  0  0  0  0  0  0
   -7.8720   -0.3700    0.4500 C   0  0  0  0  0  0  0  0  0  0  0  0
   -6.5140   -0.3370    0.7050 C   0  0  0  0  0  0  0  0  0  0  0  0
   -5.6230   -0.0370   -0.3050 C   0  0  0  0  0  0  0  0  0  0  0  0
   -1.8960    0.3630   -0.8770 C   0  0  0  0  0  0  0  0  0  0  0  0
  1  2  2  0
  2  3  1  0
  2 16  1  0
  3  4  1  0
  4  5  1  0
  5  6  1  0
  6  7  1  0
  7  8  1  0
  8  9  1  0
  9 10  1  0
 10 11  2  0
 10 14  1  0
 11 12  1  0
 12 13  1  0
 13 14  2  0
 14 15  1  0
 16 17  1  0
 16 30  1  0
 17 18  1  0
 18 19  1  0
 19 20  2  0
 19 29  1  0
 20 21  1  0
 20 30  1  0
 21 22  2  0
 21 23  1  0
 23 24  1  0
 24 25  2  0
 24 29  1  0
 25 26  1  0
 26 27  2  0
 27 28  1  0
 28 29  2  0
M  CHG  1   7   1
M  END
