
     RDKit          3D

 30 32  0  0  0  0  0  0  0  0999 V2000
   -6.7380    0.4500    0.0110 C   0  0  0  0  0  0  0  0  0  0  0  0
   -5.6250   -0.4320    0.3090 N   0  0  0  0  0  0  0  0  0  0  0  0
   -5.8570   -1.8010    0.6750 C   0  0  0  0  0  0  0  0  0  0  0  0
   -5.8640   -2.6310   -0.5870 C   0  0  1  0  0  0  0  0  0  0  0  0
   -4.6250   -2.4760   -1.1860 F   0  0  0  0  0  0  0  0  0  0  0  0
   -6.0190   -3.9550   -0.2140 F   0  0  0  0  0  0  0  0  0  0  0  0
   -6.8610   -2.1760   -1.3980 F   0  0  0  0  0  0  0  0  0  0  0  0
   -4.2640    0.0540    0.2430 C   0  0  0  0  0  0  0  0  0  0  0  0
   -3.3260   -0.7240    0.5020 O   0  0  0  0  0  0  0  0  0  0  0  0
   -3.9700    1.3800   -0.1060 N   0  0  0  0  0  0  0  0  0  0  0  0
   -2.7170    2.0020   -0.2190 C   0  0  0  0  0  0  0  0  0  0  0  0
   -2.6260    3.3860   -0.4460 C   0  0  0  0  0  0  0  0  0  0  0  0
   -1.4660    4.0710   -0.5760 C   0  0  0  0  0  0  0  0  0  0  0  0
   -0.2800    3.3770   -0.4810 C   0  0  0  0  0  0  0  0  0  0  0  0
   -0.2950    2.0250   -0.2600 C   0  0  0  0  0  0  0  0  0  0  0  0
    0.9390    1.2880   -0.1610 N   0  0  0  0  0  0  0  0  0  0  0  0
    1.3340    0.4890    0.8460 C   0  0  0  0  0  0  0  0  0  0  0  0
    2.5490   -0.0250    0.5700 N   0  0  0  0  0  0  0  0  0  0  0  0
    2.9590    0.4370   -0.6240 C   0  0  0  0  0  0  0  0  0  0  0  0
    4.2350    0.1310   -1.3260 C   0  0  0  0  0  0  0  0  0  0  0  0
    5.0250   -0.8260   -0.6090 N   0  0  0  0  0  0  0  0  0  0  0  0
    5.7690   -0.4790    0.5540 C   0  0  0  0  0  0  0  0  0  0  0  0
    5.7140    0.7150    0.9480 O   0  0  0  0  0  0  0  0  0  0  0  0
    6.5670   -1.4540    1.2770 C   0  0  0  0  0  0  0  0  0  0  0  0
    6.7080   -2.7820    0.9530 C   0  0  0  0  0  0  0  0  0  0  0  0
    7.5610   -3.3350    1.9140 C   0  0  0  0  0  0  0  0  0  0  0  0
    7.8790   -2.2970    2.7580 C   0  0  0  0  0  0  0  0  0  0  0  0
    7.2730   -1.2050    2.3470 O   0  0  0  0  0  0  0  0  0  0  0  0
    1.9400    1.2540   -1.0630 C   0  0  0  0  0  0  0  0  0  0  0  0
   -1.5120    1.3580   -0.1330 C   0  0  0  0  0  0  0  0  0  0  0  0
  1  2  1  0
  2  3  1  0
  2  8  1  0
  3  4  1  0
  4  5  1  6
  4  6  1  0
  4  7  1  0
  8  9  2  0
  8 10  1  0
 10 11  1  0
 11 12  2  0
 11 30  1  0
 12 13  1  0
 13 14  2  0
 14 15  1  0
 15 16  1  0
 15 30  2  0
 16 17  1  0
 16 29  1  0
 17 18  2  0
 18 19  1  0
 19 20  1  0
 19 29  2  0
 20 21  1  0
 21 22  1  0
 22 23  2  0
 22 24  1  0
 24 25  2  0
 24 28  1  0
 25 26  1  0
 26 27  2  0
 27 28  1  0
M  END
