
     RDKit          3D

 30 33  0  0  0  0  0  0  0  0999 V2000
    6.1460    1.6830    2.2940 C   0  0  0  0  0  0  0  0  0  0  0  0
    5.7810    1.1480    0.9500 C   0  0  0  0  0  0  0  0  0  0  0  0
    5.8290    1.8800   -0.2060 C   0  0  0  0  0  0  0  0  0  0  0  0
    5.4150    1.0060   -1.2030 C   0  0  0  0  0  0  0  0  0  0  0  0
    5.2950    1.4530   -2.9030 Cl  0  0  0  0  0  0  0  0  0  0  0  0
    5.1370   -0.1880   -0.6530 N   0  0  0  0  0  0  0  0  0  0  0  0
    4.6790   -1.3570   -1.3570 C   0  0  0  0  0  0  0  0  0  0  0  0
    3.1540   -1.4030   -1.4440 C   0  0  0  0  0  0  0  0  0  0  0  0
    2.5980   -1.4250   -0.0430 C   0  0  0  0  0  0  0  0  0  0  0  0
    1.1170   -1.4640   -0.0200 C   0  0  0  0  0  0  0  0  0  0  0  0
    0.4090   -0.3100    0.3010 C   0  0  0  0  0  0  0  0  0  0  0  0
   -0.9550   -0.2680    0.3450 C   0  0  0  0  0  0  0  0  0  0  0  0
   -1.6910   -1.3810    0.0670 C   0  0  0  0  0  0  0  0  0  0  0  0
   -3.1610   -1.3680    0.1060 C   0  0  0  0  0  0  0  0  0  0  0  0
   -3.7550   -2.4530    0.2360 O   0  0  0  0  0  0  0  0  0  0  0  0
   -3.8710   -0.1050   -0.0080 C   0  0  0  0  0  0  0  0  0  0  0  0
   -3.5410    0.9500   -0.7650 N   0  0  0  0  0  0  0  0  0  0  0  0
   -4.4060    1.9610   -0.6180 C   0  0  0  0  0  0  0  0  0  0  0  0
   -4.4530    3.1770   -1.1730 N   0  0  0  0  0  0  0  0  0  0  0  0
   -5.4450    3.9960   -0.8360 C   0  0  0  0  0  0  0  0  0  0  0  0
   -6.4260    3.6180    0.0750 C   0  0  0  0  0  0  0  0  0  0  0  0
   -6.3670    2.3700    0.6360 C   0  0  0  0  0  0  0  0  0  0  0  0
   -7.2130    1.9430    1.4690 O   0  0  0  0  0  0  0  0  0  0  0  0
   -5.3380    1.5100    0.2910 C   0  0  0  0  0  0  0  0  0  0  0  0
   -5.0320    0.2370    0.6850 C   0  0  0  0  0  0  0  0  0  0  0  0
   -5.7590   -0.6020    1.6390 C   0  0  0  0  0  0  0  0  0  0  0  0
   -1.0230   -2.5420   -0.2560 C   0  0  0  0  0  0  0  0  0  0  0  0
    0.3750   -2.5820   -0.2990 C   0  0  0  0  0  0  0  0  0  0  0  0
    1.0420   -3.8570   -0.6530 C   0  0  0  0  0  0  0  0  0  0  0  0
    5.3540   -0.1240    0.6690 C   0  0  0  0  0  0  0  0  0  0  0  0
  1  2  1  0
  2  3  1  0
  2 30  2  0
  3  4  2  0
  4  5  1  0
  4  6  1  0
  6  7  1  0
  6 30  1  0
  7  8  1  0
  8  9  1  0
  9 10  1  0
 10 11  2  0
 10 28  1  0
 11 12  1  0
 12 13  2  0
 13 14  1  0
 13 27  1  0
 14 15  2  0
 14 16  1  0
 16 17  1  0
 16 25  2  0
 17 18  1  0
 18 19  1  0
 18 24  2  0
 19 20  1  0
 20 21  2  0
 21 22  1  0
 22 23  2  0
 22 24  1  0
 24 25  1  0
 25 26  1  0
 27 28  2  0
 28 29  1  0
M  END
