
     RDKit          3D

 31 33  0  0  0  0  0  0  0  0999 V2000
   -5.2100    2.3030   -1.1040 C   0  0  0  0  0  0  0  0  0  0  0  0
   -6.0960    1.1140   -1.0360 C   0  0  0  0  0  0  0  0  0  0  0  0
   -5.7530   -0.0790   -0.6400 C   0  0  0  0  0  0  0  0  0  0  0  0
   -4.5060   -0.4770   -0.2080 O   0  0  0  0  0  0  0  0  0  0  0  0
   -3.3200   -0.4170   -0.9220 C   0  0  0  0  0  0  0  0  0  0  0  0
   -2.1660   -0.9420   -0.1310 C   0  0  0  0  0  0  0  0  0  0  0  0
   -1.9390   -0.2170    1.0960 N   0  0  0  0  0  0  0  0  0  0  0  0
   -2.7970   -0.2310    2.2500 C   0  0  0  0  0  0  0  0  0  0  0  0
   -3.2550    1.1270    2.6270 C   0  0  2  0  0  0  0  0  0  0  0  0
   -3.2970    1.1320    4.0420 F   0  0  0  0  0  0  0  0  0  0  0  0
   -4.5590    1.3820    2.1900 F   0  0  0  0  0  0  0  0  0  0  0  0
   -2.3320    2.1870    2.2170 C   0  0  0  0  0  0  0  0  0  0  0  0
   -2.7110    3.4250    2.2150 O   0  0  0  0  0  0  0  0  0  0  0  0
   -1.0060    1.8790    1.8150 N   0  0  0  0  0  0  0  0  0  0  0  0
   -0.7540    0.5980    1.2060 C   0  0  0  0  0  0  0  0  0  0  0  0
    0.4280    0.2060    0.7870 C   0  0  0  0  0  0  0  0  0  0  0  0
    0.8170   -1.0110    0.1740 N   0  0  0  0  0  0  0  0  0  0  0  0
    2.1020   -0.9580   -0.0860 C   0  0  0  0  0  0  0  0  0  0  0  0
    2.9320   -1.8870   -0.6720 C   0  0  0  0  0  0  0  0  0  0  0  0
    4.2660   -1.5670   -0.8280 C   0  0  0  0  0  0  0  0  0  0  0  0
    4.7710   -0.3550   -0.4140 C   0  0  0  0  0  0  0  0  0  0  0  0
    6.0900    0.0240   -0.5420 O   0  0  0  0  0  0  0  0  0  0  0  0
    7.1300   -0.7200   -1.0930 C   0  0  1  0  0  0  0  0  0  0  0  0
    7.6730    0.1110   -2.2670 C   0  0  0  0  0  0  0  0  0  0  0  0
    8.3150   -0.8220   -0.1250 C   0  0  0  0  0  0  0  0  0  0  0  0
    3.8990    0.5250    0.1600 N   0  0  0  0  0  0  0  0  0  0  0  0
    2.5960    0.2580    0.3320 C   0  0  0  0  0  0  0  0  0  0  0  0
    1.6340    0.9620    0.8490 N   0  0  0  0  0  0  0  0  0  0  0  0
   -6.8010   -1.1600   -0.6420 C   0  0  1  0  0  0  0  0  0  0  0  0
   -6.4080   -2.1850   -1.5010 F   0  0  0  0  0  0  0  0  0  0  0  0
   -6.9950   -1.6650    0.6230 F   0  0  0  0  0  0  0  0  0  0  0  0
  1  2  1  0
  2  3  2  3
  3  4  1  0
  3 29  1  0
  4  5  1  0
  5  6  1  0
  6  7  1  0
  7  8  1  0
  7 15  1  0
  8  9  1  0
  9 10  1  1
  9 11  1  0
  9 12  1  0
 12 13  2  0
 12 14  1  0
 14 15  1  0
 15 16  2  3
 16 17  1  0
 16 28  1  0
 17 18  2  0
 18 19  1  0
 18 27  1  0
 19 20  2  0
 20 21  1  0
 21 22  1  0
 21 26  2  0
 22 23  1  0
 23 24  1  6
 23 25  1  0
 26 27  1  0
 27 28  2  0
 29 30  1  6
 29 31  1  0
M  END
