
     RDKit          3D

 30 32  0  0  0  0  0  0  0  0999 V2000
   -6.0550   -2.6520   -1.0410 C   0  0  0  0  0  0  0  0  0  0  0  0
   -5.1560   -2.0820    0.0220 C   0  0  0  0  0  0  0  0  0  0  0  0
   -5.5230   -2.1520    1.3590 C   0  0  0  0  0  0  0  0  0  0  0  0
   -4.7000   -1.6320    2.3190 C   0  0  0  0  0  0  0  0  0  0  0  0
   -5.0480   -1.6800    3.7840 C   0  0  0  0  0  0  0  0  0  0  0  0
   -3.5290   -1.0510    1.9380 C   0  0  0  0  0  0  0  0  0  0  0  0
   -3.1000   -0.9460    0.6300 C   0  0  0  0  0  0  0  0  0  0  0  0
   -1.8740   -0.3360    0.2560 N   0  0  0  0  0  0  0  0  0  0  0  0
   -1.9320    0.6030   -0.7300 C   0  0  0  0  0  0  0  0  0  0  0  0
   -0.8230    1.2740   -1.1910 C   0  0  0  0  0  0  0  0  0  0  0  0
   -0.8080    2.2630   -2.1920 N   0  0  0  0  0  0  0  0  0  0  0  0
   -1.9510    2.8650   -2.7490 C   0  0  0  0  0  0  0  0  0  0  0  0
   -3.1090    2.5910   -2.4130 O   0  0  0  0  0  0  0  0  0  0  0  0
   -1.7830    3.9020   -3.8120 C   0  0  0  0  0  0  0  0  0  0  0  0
   -1.6690    5.4750   -2.9730 Cl  0  0  0  0  0  0  0  0  0  0  0  0
    0.4080    0.9470   -0.5920 C   0  0  0  0  0  0  0  0  0  0  0  0
    0.4900    0.0080    0.3960 C   0  0  0  0  0  0  0  0  0  0  0  0
    1.7050   -0.2780    1.0440 N   0  0  0  0  0  0  0  0  0  0  0  0
    3.0220   -0.0730    0.6480 C   0  0  0  0  0  0  0  0  0  0  0  0
    3.4530    0.1020   -0.6420 C   0  0  0  0  0  0  0  0  0  0  0  0
    4.8090    0.2430   -0.9850 C   0  0  0  0  0  0  0  0  0  0  0  0
    5.1990    0.4310   -2.4030 C   0  0  0  0  0  0  0  0  0  0  0  0
    5.7500    0.2020    0.0210 C   0  0  0  0  0  0  0  0  0  0  0  0
    7.1970    0.3500   -0.3190 C   0  0  0  0  0  0  0  0  0  0  0  0
    5.3130    0.0260    1.2990 C   0  0  0  0  0  0  0  0  0  0  0  0
    3.9980   -0.1130    1.6570 C   0  0  0  0  0  0  0  0  0  0  0  0
    3.6400   -0.2990    3.0820 C   0  0  0  0  0  0  0  0  0  0  0  0
   -0.6940   -0.6170    0.7960 C   0  0  0  0  0  0  0  0  0  0  0  0
   -0.6300   -1.4800    1.7030 O   0  0  0  0  0  0  0  0  0  0  0  0
   -3.9640   -1.4880   -0.3290 C   0  0  0  0  0  0  0  0  0  0  0  0
  1  2  1  0
  2  3  2  0
  2 30  1  0
  3  4  1  0
  4  5  1  0
  4  6  2  0
  6  7  1  0
  7  8  1  0
  7 30  2  0
  8  9  1  0
  8 28  1  0
  9 10  2  0
 10 11  1  0
 10 16  1  0
 11 12  1  0
 12 13  2  0
 12 14  1  0
 14 15  1  0
 16 17  2  0
 17 18  1  0
 17 28  1  0
 18 19  1  0
 19 20  2  0
 19 26  1  0
 20 21  1  0
 21 22  1  0
 21 23  2  0
 23 24  1  0
 23 25  1  0
 25 26  2  0
 26 27  1  0
 28 29  2  0
M  END
