
     RDKit          3D

 30 33  0  0  0  0  0  0  0  0999 V2000
    6.0880    0.7630   -2.4920 N   0  0  0  0  0  0  0  0  0  0  0  0
    4.8100    0.5260   -1.9340 C   0  0  0  0  0  0  0  0  0  0  0  0
    3.7680    1.1290   -2.3780 N   0  0  0  0  0  0  0  0  0  0  0  0
    4.6750   -0.4260   -0.8290 C   0  0  0  0  0  0  0  0  0  0  0  0
    5.8350   -1.0630   -0.3730 C   0  0  0  0  0  0  0  0  0  0  0  0
    5.7820   -1.9610    0.6510 C   0  0  0  0  0  0  0  0  0  0  0  0
    4.5620   -2.2330    1.2340 C   0  0  0  0  0  0  0  0  0  0  0  0
    4.4680   -3.1530    2.2910 O   0  0  0  0  0  0  0  0  0  0  0  0
    3.3940   -1.6350    0.8240 C   0  0  0  0  0  0  0  0  0  0  0  0
    2.1030   -1.9440    1.4690 C   0  0  0  0  0  0  0  0  0  0  0  0
    1.0160   -1.2020    0.8690 N   0  0  0  0  0  0  0  0  0  0  0  0
    0.1720   -1.6310   -0.2560 C   0  0  0  0  0  0  0  0  0  0  0  0
   -1.1930   -1.1490    0.2390 C   0  0  0  0  0  0  0  0  0  0  0  0
   -0.9230    0.1980    0.8740 C   0  0  1  0  0  0  0  0  0  0  0  0
   -1.6430    0.3130    2.1270 N   0  0  0  0  0  0  0  0  0  0  0  0
   -2.5910    1.7550    2.1840 S   0  0  1  0  0  0  0  0  0  0  0  0
   -3.3610    1.8490    3.4460 O   0  0  0  0  0  0  0  0  0  0  0  0
   -1.7220    2.9610    1.9930 O   0  0  0  0  0  0  0  0  0  0  0  0
   -3.7910    1.6660    0.8580 C   0  0  0  0  0  0  0  0  0  0  0  0
   -5.1260    1.6780    0.9120 C   0  0  0  0  0  0  0  0  0  0  0  0
   -5.7900    1.5960   -0.2690 C   0  0  0  0  0  0  0  0  0  0  0  0
   -7.1550    1.5920   -0.4230 N   0  0  0  0  0  0  0  0  0  0  0  0
   -7.7240    1.5070   -1.6330 C   0  0  0  0  0  0  0  0  0  0  0  0
   -7.0300    1.4180   -2.8090 C   0  0  0  0  0  0  0  0  0  0  0  0
   -5.6570    1.4190   -2.6850 C   0  0  0  0  0  0  0  0  0  0  0  0
   -5.0890    1.5110   -1.3820 C   0  0  0  0  0  0  0  0  0  0  0  0
   -3.4150    1.5400   -0.8460 S   0  0  0  0  0  0  0  0  0  0  0  0
    0.5170    0.0820    1.2260 C   0  0  0  0  0  0  0  0  0  0  0  0
    1.2050    0.9950    1.7660 O   0  0  0  0  0  0  0  0  0  0  0  0
    3.4710   -0.7190   -0.2260 C   0  0  0  0  0  0  0  0  0  0  0  0
  1  2  1  0
  2  3  2  0
  2  4  1  0
  4  5  2  0
  4 30  1  0
  5  6  1  0
  6  7  2  0
  7  8  1  0
  7  9  1  0
  9 10  1  0
  9 30  2  0
 10 11  1  0
 11 12  1  0
 11 28  1  0
 12 13  1  0
 13 14  1  0
 14 15  1  1
 14 28  1  0
 16 15  1  1
 16 17  2  0
 16 18  2  0
 16 19  1  0
 19 20  2  0
 19 27  1  0
 20 21  1  0
 21 22  2  0
 21 26  1  0
 22 23  1  0
 23 24  2  0
 24 25  1  0
 25 26  2  0
 26 27  1  0
 28 29  2  0
M  CHG  1   3   1
M  END
