
     RDKit          3D

 30 33  0  0  0  0  0  0  0  0999 V2000
    5.8100   -1.6350   -2.5130 C   0  0  0  0  0  0  0  0  0  0  0  0
    4.4930   -1.1780   -2.3260 O   0  0  0  0  0  0  0  0  0  0  0  0
    3.9270   -1.0250   -1.0520 C   0  0  0  0  0  0  0  0  0  0  0  0
    4.6210   -1.3130    0.1070 C   0  0  0  0  0  0  0  0  0  0  0  0
    4.0560   -1.1590    1.3410 C   0  0  0  0  0  0  0  0  0  0  0  0
    2.7350   -0.6970    1.4300 C   0  0  0  0  0  0  0  0  0  0  0  0
    2.1560   -0.5780    2.7830 C   0  0  0  0  0  0  0  0  0  0  0  0
    1.0600   -1.9440    3.1350 Cl  0  0  0  0  0  0  0  0  0  0  0  0
    2.0220   -0.4030    0.3020 C   0  0  0  0  0  0  0  0  0  0  0  0
    0.6810    0.1480    0.3350 C   0  0  0  0  0  0  0  0  0  0  0  0
   -0.3380   -0.5990   -0.0510 C   0  0  0  0  0  0  0  0  0  0  0  0
   -0.0220   -1.9720   -0.4890 C   0  0  0  0  0  0  0  0  0  0  0  0
   -1.7430   -0.2380   -0.1150 C   0  0  0  0  0  0  0  0  0  0  0  0
   -2.6860   -1.3080   -0.4490 C   0  0  0  0  0  0  0  0  0  0  0  0
   -2.5020   -2.5990   -0.7060 N   0  0  0  0  0  0  0  0  0  0  0  0
   -3.6540   -3.2300   -0.9700 C   0  0  0  0  0  0  0  0  0  0  0  0
   -3.8950   -4.6210   -1.2960 C   0  0  0  0  0  0  0  0  0  0  0  0
   -5.0770   -5.0420   -1.5180 N   0  0  0  0  0  0  0  0  0  0  0  0
   -4.6200   -2.2250   -0.8630 C   0  0  0  0  0  0  0  0  0  0  0  0
   -4.0020   -1.1300   -0.5580 O   0  0  0  0  0  0  0  0  0  0  0  0
   -2.3030    0.9670    0.0800 C   0  0  0  0  0  0  0  0  0  0  0  0
   -1.7020    2.2450    0.4040 C   0  0  0  0  0  0  0  0  0  0  0  0
   -2.5820    3.3150    0.3820 C   0  0  0  0  0  0  0  0  0  0  0  0
   -2.1780    4.5950    0.6600 C   0  0  0  0  0  0  0  0  0  0  0  0
   -3.1200    5.7490    0.6310 C   0  0  0  0  0  0  0  0  0  0  0  0
   -0.8440    4.7960    0.9690 C   0  0  0  0  0  0  0  0  0  0  0  0
    0.0360    3.7350    0.9920 C   0  0  0  0  0  0  0  0  0  0  0  0
   -0.3780    2.4430    0.7100 C   0  0  0  0  0  0  0  0  0  0  0  0
    0.6880    1.5200    0.7800 N   0  0  0  0  0  0  0  0  0  0  0  0
    2.6280   -0.5710   -0.9320 C   0  0  0  0  0  0  0  0  0  0  0  0
  1  2  1  0
  2  3  1  0
  3  4  2  0
  3 30  1  0
  4  5  1  0
  5  6  2  0
  6  7  1  0
  6  9  1  0
  7  8  1  0
  9 10  1  0
  9 30  2  0
 10 11  2  0
 10 29  1  0
 11 12  1  0
 11 13  1  0
 13 14  1  0
 13 21  2  0
 14 15  2  0
 14 20  1  0
 15 16  1  0
 16 17  1  0
 16 19  2  0
 17 18  2  0
 19 20  1  0
 21 22  1  0
 22 23  2  0
 22 28  1  0
 23 24  1  0
 24 25  1  0
 24 26  2  0
 26 27  1  0
 27 28  2  0
 28 29  1  0
M  END
