
     RDKit          3D

 30 33  0  0  0  0  0  0  0  0999 V2000
   -5.4330    1.3370   -1.8080 C   0  0  0  0  0  0  0  0  0  0  0  0
   -4.6590    1.1980   -0.7120 C   0  0  0  0  0  0  0  0  0  0  0  0
   -3.2520    0.9120   -0.9170 C   0  0  0  0  0  0  0  0  0  0  0  0
   -2.4590    0.7730    0.1250 C   0  0  0  0  0  0  0  0  0  0  0  0
   -1.0660    0.4910   -0.0310 N   0  0  0  0  0  0  0  0  0  0  0  0
   -0.5440   -0.7310   -0.5070 C   0  0  1  0  0  0  0  0  0  0  0  0
    0.9960   -0.6090   -0.5630 C   0  0  0  0  0  0  0  0  0  0  0  0
    1.3010    0.5130   -1.4830 C   0  0  0  0  0  0  0  0  0  0  0  0
    0.3520    1.0480   -2.1570 O   0  0  0  0  0  0  0  0  0  0  0  0
    2.6170    0.9820   -1.6090 N   0  0  0  0  0  0  0  0  0  0  0  0
    3.0240    2.0530   -2.5120 C   0  0  0  0  0  0  0  0  0  0  0  0
    4.0370    2.7800   -1.6510 C   0  0  0  0  0  0  0  0  0  0  0  0
    4.6540    1.6230   -0.9290 C   0  0  0  0  0  0  0  0  0  0  0  0
    5.8590    1.4610   -0.3210 C   0  0  0  0  0  0  0  0  0  0  0  0
    6.2210    0.2830    0.2900 C   0  0  0  0  0  0  0  0  0  0  0  0
    7.4680    0.1680    0.9000 O   0  0  0  0  0  0  0  0  0  0  0  0
    5.3510   -0.7730    0.2940 C   0  0  0  0  0  0  0  0  0  0  0  0
    4.1340   -0.6440   -0.3070 C   0  0  0  0  0  0  0  0  0  0  0  0
    3.7610    0.5440   -0.9270 C   0  0  0  0  0  0  0  0  0  0  0  0
   -0.8790   -1.9300    0.3040 C   0  0  0  0  0  0  0  0  0  0  0  0
    0.0920   -2.8020    0.7490 C   0  0  0  0  0  0  0  0  0  0  0  0
   -0.1790   -3.9390    1.4980 C   0  0  0  0  0  0  0  0  0  0  0  0
   -1.4910   -4.2260    1.8250 C   0  0  0  0  0  0  0  0  0  0  0  0
   -1.8340   -5.6670    2.7750 Cl  0  0  0  0  0  0  0  0  0  0  0  0
   -2.4960   -3.3840    1.4030 C   0  0  0  0  0  0  0  0  0  0  0  0
   -2.1790   -2.2570    0.6550 C   0  0  0  0  0  0  0  0  0  0  0  0
   -3.0360    0.9160    1.4040 N   0  0  0  0  0  0  0  0  0  0  0  0
   -4.2520    1.1670    1.6790 C   0  0  0  0  0  0  0  0  0  0  0  0
   -4.7440    1.2950    3.0910 C   0  0  0  0  0  0  0  0  0  0  0  0
   -5.2560    1.3400    0.6250 C   0  0  0  0  0  0  0  0  0  0  0  0
  1  2  2  0
  2  3  1  0
  2 30  1  0
  3  4  2  0
  4  5  1  0
  4 27  1  0
  5  6  1  0
  6  7  1  1
  6 20  1  0
  7  8  1  0
  8  9  2  0
  8 10  1  0
 10 11  1  0
 10 19  1  0
 11 12  1  0
 12 13  1  0
 13 14  2  0
 13 19  1  0
 14 15  1  0
 15 16  1  0
 15 17  2  0
 17 18  1  0
 18 19  2  0
 20 21  2  0
 20 26  1  0
 21 22  1  0
 22 23  2  0
 23 24  1  0
 23 25  1  0
 25 26  2  0
 27 28  2  0
 28 29  1  0
 28 30  1  0
M  END
