
     RDKit          3D

 35 38  0  0  0  0  0  0  0  0999 V2000
   -9.2590   -0.4300   -2.9370 C   0  0  0  0  0  0  0  0  0  0  0  0
   -9.6930    0.0810   -1.6220 C   0  0  0  0  0  0  0  0  0  0  0  0
   -8.8210    0.2780   -0.6750 C   0  0  0  0  0  0  0  0  0  0  0  0
   -7.4250    0.0040   -0.8880 C   0  0  0  0  0  0  0  0  0  0  0  0
   -6.4870    0.1770    0.0110 C   0  0  0  0  0  0  0  0  0  0  0  0
   -6.8000    0.6800    1.3420 C   0  0  0  0  0  0  0  0  0  0  0  0
   -6.0960    0.3310    2.4200 C   0  0  0  0  0  0  0  0  0  0  0  0
   -4.9650   -0.6060    2.2050 C   0  0  0  0  0  0  0  0  0  0  0  0
   -4.3550   -0.4630    0.9090 N   0  0  0  0  0  0  0  0  0  0  0  0
   -2.9480   -0.6450    0.8440 C   0  0  0  0  0  0  0  0  0  0  0  0
   -2.0540    0.4020    0.8750 C   0  0  0  0  0  0  0  0  0  0  0  0
   -0.6810    0.2290    0.8400 C   0  0  0  0  0  0  0  0  0  0  0  0
    0.2050    1.3740    0.8650 C   0  0  0  0  0  0  0  0  0  0  0  0
    1.5460    1.1990    1.2620 N   0  0  0  0  0  0  0  0  0  0  0  0
    2.6010    0.6910    0.4660 C   0  0  0  0  0  0  0  0  0  0  0  0
    2.3350    0.3630   -0.7100 O   0  0  0  0  0  0  0  0  0  0  0  0
    3.9850    0.5610    1.0400 C   0  0  1  0  0  0  0  0  0  0  0  0
    4.8730    0.0000    0.0540 N   0  0  0  0  0  0  0  0  0  0  0  0
    5.1210    0.6270   -1.1940 C   0  0  0  0  0  0  0  0  0  0  0  0
    4.4750    1.7310   -1.3440 O   0  0  0  0  0  0  0  0  0  0  0  0
    5.9890    0.1480   -2.2430 C   0  0  0  0  0  0  0  0  0  0  0  0
    6.0760    0.9160   -3.4070 C   0  0  0  0  0  0  0  0  0  0  0  0
    6.8690    0.5440   -4.4730 C   0  0  0  0  0  0  0  0  0  0  0  0
    7.6080   -0.6020   -4.4310 C   0  0  0  0  0  0  0  0  0  0  0  0
    7.5450   -1.3740   -3.3090 C   0  0  0  0  0  0  0  0  0  0  0  0
    6.7410   -0.9900   -2.2380 C   0  0  0  0  0  0  0  0  0  0  0  0
    6.7270   -1.8090   -1.1530 O   0  0  0  0  0  0  0  0  0  0  0  0
    4.4790    1.8610    1.6070 C   0  0  0  0  0  0  0  0  0  0  0  0
    4.9470    1.6090    3.0130 C   0  0  0  0  0  0  0  0  0  0  0  0
    5.0200    0.1270    3.1760 C   0  0  0  0  0  0  0  0  0  0  0  0
    3.9490   -0.3860    2.2350 C   0  0  0  0  0  0  0  0  0  0  0  0
   -0.2200   -1.0550    0.7720 C   0  0  0  0  0  0  0  0  0  0  0  0
   -1.1320   -2.1060    0.7410 C   0  0  0  0  0  0  0  0  0  0  0  0
   -2.4350   -1.9020    0.7750 N   0  0  0  0  0  0  0  0  0  0  0  0
   -5.0730   -0.1410   -0.2980 C   0  0  0  0  0  0  0  0  0  0  0  0
  1  2  1  0
  2  3  2  3
  3  4  1  0
  4  5  2  3
  5  6  1  0
  5 35  1  0
  6  7  2  0
  7  8  1  0
  8  9  1  0
  9 10  1  0
  9 35  1  0
 10 11  2  0
 10 34  1  0
 11 12  1  0
 12 13  1  0
 12 32  2  0
 13 14  1  0
 14 15  1  0
 15 16  2  0
 15 17  1  0
 17 18  1  6
 17 28  1  0
 17 31  1  0
 18 19  1  0
 19 20  2  0
 19 21  1  0
 21 22  2  0
 21 26  1  0
 22 23  1  0
 23 24  2  0
 24 25  1  0
 25 26  2  0
 26 27  1  0
 28 29  1  0
 29 30  1  0
 30 31  1  0
 32 33  1  0
 33 34  2  0
M  CHG  1  34   1
M  END
