
     RDKit          3D

 35 38  0  0  0  0  0  0  0  0999 V2000
   -6.8660   -3.0740    3.0420 C   0  0  0  0  0  0  0  0  0  0  0  0
   -6.0300   -2.2280    2.1580 C   0  0  0  0  0  0  0  0  0  0  0  0
   -5.0970   -1.3160    2.6270 C   0  0  0  0  0  0  0  0  0  0  0  0
   -4.3400   -0.5490    1.7960 C   0  0  0  0  0  0  0  0  0  0  0  0
   -4.4650   -0.6400    0.4170 C   0  0  0  0  0  0  0  0  0  0  0  0
   -3.6340    0.1340   -0.5150 C   0  0  1  0  0  0  0  0  0  0  0  0
   -4.0010    1.5230   -0.8100 C   0  0  0  0  0  0  0  0  0  0  0  0
   -5.3650    1.6900   -1.4320 C   0  0  2  0  0  0  0  0  0  0  0  0
   -5.5810    3.2020   -1.7330 C   0  0  0  0  0  0  0  0  0  0  0  0
   -6.5250    1.3520   -0.5300 C   0  0  0  0  0  0  0  0  0  0  0  0
   -2.2270   -0.0530   -0.1780 N   0  0  0  0  0  0  0  0  0  0  0  0
   -1.3960    1.0560   -0.2430 C   0  0  0  0  0  0  0  0  0  0  0  0
   -1.7410    2.2610   -0.0190 O   0  0  0  0  0  0  0  0  0  0  0  0
    0.0050    0.8920   -0.5930 C   0  0  0  0  0  0  0  0  0  0  0  0
    0.5630   -0.3480   -0.7120 C   0  0  0  0  0  0  0  0  0  0  0  0
    1.9200   -0.5270   -1.0640 C   0  0  0  0  0  0  0  0  0  0  0  0
    2.6940    0.5650   -1.2890 C   0  0  0  0  0  0  0  0  0  0  0  0
    4.0530    0.5320   -1.6540 N   0  0  0  0  0  0  0  0  0  0  0  0
    4.8650   -0.6260   -1.7750 C   0  0  0  0  0  0  0  0  0  0  0  0
    4.4120   -1.7640   -1.5510 O   0  0  0  0  0  0  0  0  0  0  0  0
    6.3190   -0.5360   -2.1800 C   0  0  0  0  0  0  0  0  0  0  0  0
    7.1260   -1.0380   -1.0560 C   0  0  0  0  0  0  0  0  0  0  0  0
    7.7060   -2.2680   -0.9470 C   0  0  0  0  0  0  0  0  0  0  0  0
    8.3450   -2.3330    0.2470 N   0  0  0  0  0  0  0  0  0  0  0  0
    8.1630   -1.1500    0.8750 C   0  0  0  0  0  0  0  0  0  0  0  0
    8.6020   -0.7000    2.0970 C   0  0  0  0  0  0  0  0  0  0  0  0
    8.2790    0.5750    2.5170 C   0  0  0  0  0  0  0  0  0  0  0  0
    7.5160    1.4140    1.7250 C   0  0  0  0  0  0  0  0  0  0  0  0
    7.0770    0.9660    0.5060 C   0  0  0  0  0  0  0  0  0  0  0  0
    7.4080   -0.3090    0.1010 C   0  0  0  0  0  0  0  0  0  0  0  0
    2.1040    1.8050   -1.1610 C   0  0  0  0  0  0  0  0  0  0  0  0
    2.7870    2.8440   -1.3620 O   0  0  0  0  0  0  0  0  0  0  0  0
    0.7930    1.9470   -0.8210 N   0  0  0  0  0  0  0  0  0  0  0  0
   -5.4030   -1.5580   -0.0270 C   0  0  0  0  0  0  0  0  0  0  0  0
   -6.1690   -2.3340    0.7960 C   0  0  0  0  0  0  0  0  0  0  0  0
  1  2  1  0
  2  3  2  0
  2 35  1  0
  3  4  1  0
  4  5  2  0
  5  6  1  0
  5 34  1  0
  6  7  1  1
  6 11  1  0
  7  8  1  0
  8  9  1  1
  8 10  1  0
 11 12  1  0
 12 13  2  0
 12 14  1  0
 14 15  2  0
 14 33  1  0
 15 16  1  0
 16 17  2  0
 17 18  1  0
 17 31  1  0
 18 19  1  0
 19 20  2  0
 19 21  1  0
 21 22  1  0
 22 23  2  0
 22 30  1  0
 23 24  1  0
 24 25  1  0
 25 26  2  0
 25 30  1  0
 26 27  1  0
 27 28  2  0
 28 29  1  0
 29 30  2  0
 31 32  2  0
 31 33  1  0
 34 35  2  0
M  CHG  1  11   1
M  END
