
     RDKit          3D

 35 36  0  0  0  0  0  0  0  0999 V2000
    2.9560    3.0860    0.3850 C   0  0  0  0  0  0  0  0  0  0  0  0
    2.9650    1.7890    0.6240 C   0  0  0  0  0  0  0  0  0  0  0  0
    2.0850    1.0310    1.3110 N   0  0  0  0  0  0  0  0  0  0  0  0
    2.4630   -0.2420    1.3080 C   0  0  0  0  0  0  0  0  0  0  0  0
    1.8500   -1.4280    1.9150 C   0  0  0  0  0  0  0  0  0  0  0  0
    0.6250   -1.1900    2.7020 C   0  0  0  0  0  0  0  0  0  0  0  0
   -0.5080   -0.6340    2.0530 N   0  0  0  0  0  0  0  0  0  0  0  0
   -1.1490   -1.4600    1.0770 C   0  0  0  0  0  0  0  0  0  0  0  0
   -2.4390   -0.7860    0.6870 C   0  0  0  0  0  0  0  0  0  0  0  0
   -3.5310   -1.4430    0.8980 C   0  0  0  0  0  0  0  0  0  0  0  0
   -4.9100   -1.0690    0.6430 C   0  0  0  0  0  0  0  0  0  0  0  0
   -5.6830   -1.8540   -0.2240 C   0  0  0  0  0  0  0  0  0  0  0  0
   -7.0160   -1.5880   -0.4570 C   0  0  0  0  0  0  0  0  0  0  0  0
   -7.6510   -0.5260    0.1590 C   0  0  0  0  0  0  0  0  0  0  0  0
   -9.0920   -0.2750   -0.1060 C   0  0  0  0  0  0  0  0  0  0  0  0
   -9.3670    0.8180   -1.4580 S   0  0  1  0  0  0  0  0  0  0  0  0
  -11.1490    0.9990   -1.6220 C   0  0  0  0  0  0  0  0  0  0  0  0
   -8.8310    2.1910   -1.0980 O   0  0  0  0  0  0  0  0  0  0  0  0
   -8.7510    0.3200   -2.7070 O   0  0  0  0  0  0  0  0  0  0  0  0
   -6.9060    0.2510    1.0110 C   0  0  0  0  0  0  0  0  0  0  0  0
   -5.5510   -0.0180    1.2510 C   0  0  0  0  0  0  0  0  0  0  0  0
   -2.3630    0.7500   -0.0690 S   0  0  2  0  0  0  0  0  0  0  0  0
   -2.2840    0.6180   -1.8530 C   0  0  0  0  0  0  0  0  0  0  0  0
   -1.0680    1.4280    0.3680 O   0  0  0  0  0  0  0  0  0  0  0  0
   -3.4500    1.7040    0.2300 O   0  0  0  0  0  0  0  0  0  0  0  0
    3.6260   -0.3110    0.5960 N   0  0  0  0  0  0  0  0  0  0  0  0
    3.9300    0.9210    0.1810 C   0  0  0  0  0  0  0  0  0  0  0  0
    5.0160    1.2180   -0.5550 C   0  0  0  0  0  0  0  0  0  0  0  0
    5.9060    0.1280   -0.9060 C   0  0  0  0  0  0  0  0  0  0  0  0
    6.9950    0.2890   -1.6210 C   0  0  0  0  0  0  0  0  0  0  0  0
    7.4680    1.5810   -2.1660 C   0  0  0  0  0  0  0  0  0  0  0  0
    8.7880    1.9050   -1.6390 N   0  0  0  0  0  0  0  0  0  0  0  0
    7.7830   -0.9090   -1.8790 N   0  0  0  0  0  0  0  0  0  0  0  0
    8.6580   -1.4470   -0.8880 C   0  0  0  0  0  0  0  0  0  0  0  0
    7.9350   -2.0350    0.3050 C   0  0  0  0  0  0  0  0  0  0  0  0
  1  2  2  0
  2  3  1  0
  2 27  1  0
  3  4  1  0
  4  5  1  0
  4 26  2  0
  5  6  1  0
  6  7  1  0
  7  8  1  0
  8  9  1  0
  9 10  2  3
  9 22  1  0
 10 11  1  0
 11 12  2  0
 11 21  1  0
 12 13  1  0
 13 14  2  0
 14 15  1  0
 14 20  1  0
 15 16  1  0
 16 17  1  6
 16 18  2  0
 16 19  2  0
 20 21  2  0
 22 23  1  6
 22 24  2  0
 22 25  2  0
 26 27  1  0
 27 28  2  3
 28 29  1  0
 29 30  2  3
 30 31  1  0
 30 33  1  0
 31 32  1  0
 33 34  1  0
 34 35  1  0
M  CHG  1  32   1
M  END
