
     RDKit          3D

 36 39  0  0  0  0  0  0  0  0999 V2000
   -6.9260    2.4170   -1.8420 C   0  0  0  0  0  0  0  0  0  0  0  0
   -6.5210    2.5870   -0.3900 C   0  0  0  0  0  0  0  0  0  0  0  0
   -5.9240    1.3450    0.1540 C   0  0  0  0  0  0  0  0  0  0  0  0
   -4.5590    1.2560    0.2750 C   0  0  0  0  0  0  0  0  0  0  0  0
   -3.9170    0.1330    0.7580 C   0  0  0  0  0  0  0  0  0  0  0  0
   -2.4300    0.0790    0.8270 C   0  0  0  0  0  0  0  0  0  0  0  0
   -1.8230   -0.6290   -0.3720 C   0  0  2  0  0  0  0  0  0  0  0  0
   -0.3840   -0.6020   -0.2570 N   0  0  0  0  0  0  0  0  0  0  0  0
    0.4290   -1.6670    0.1660 C   0  0  0  0  0  0  0  0  0  0  0  0
   -0.0770   -2.7510    0.5050 O   0  0  0  0  0  0  0  0  0  0  0  0
    1.8540   -1.5520    0.2260 N   0  0  0  0  0  0  0  0  0  0  0  0
    2.7220   -2.6050    0.6980 C   0  0  0  0  0  0  0  0  0  0  0  0
    4.1520   -2.2940    0.6360 C   0  0  0  0  0  0  0  0  0  0  0  0
    4.9630   -3.1590    1.1100 O   0  0  0  0  0  0  0  0  0  0  0  0
    4.7420   -1.1380    0.1030 N   0  0  0  0  0  0  0  0  0  0  0  0
    6.1760   -0.9520    0.1410 C   0  0  0  0  0  0  0  0  0  0  0  0
    6.8780    0.0680   -0.4780 N   0  0  0  0  0  0  0  0  0  0  0  0
    8.1500    0.1080   -0.3300 C   0  0  0  0  0  0  0  0  0  0  0  0
    8.8070   -0.8340    0.4260 C   0  0  0  0  0  0  0  0  0  0  0  0
    7.4090   -1.8260    0.9290 S   0  0  0  0  0  0  0  0  0  0  0  0
   10.2200   -0.9210    0.6930 C   0  0  0  0  0  0  0  0  0  0  0  0
   10.9420    0.3170    0.3450 C   0  0  0  0  0  0  0  0  0  0  0  0
   10.0880    1.4350    0.0160 N   0  0  2  0  0  0  0  0  0  0  0  0
    9.5990    2.0990    1.1860 C   0  0  0  0  0  0  0  0  0  0  0  0
    9.1030    1.1220   -0.9650 C   0  0  0  0  0  0  0  0  0  0  0  0
   -2.2270    0.0640   -1.5960 C   0  0  0  0  0  0  0  0  0  0  0  0
   -1.3090    0.5530   -2.3430 O   0  0  0  0  0  0  0  0  0  0  0  0
   -3.5300    0.2460   -2.0360 O   0  0  0  0  0  0  0  0  0  0  0  0
   -3.7590    0.9380   -3.2440 C   0  0  0  0  0  0  0  0  0  0  0  0
   -4.7340   -0.9340    1.1270 C   0  0  0  0  0  0  0  0  0  0  0  0
   -6.1090   -0.8570    1.0100 C   0  0  0  0  0  0  0  0  0  0  0  0
   -6.7030    0.2960    0.5180 C   0  0  0  0  0  0  0  0  0  0  0  0
   -8.1880    0.2980    0.4230 C   0  0  0  0  0  0  0  0  0  0  0  0
   -8.8230   -0.2720    1.6540 C   0  0  0  0  0  0  0  0  0  0  0  0
   -8.0860   -1.3980    2.2930 C   0  0  0  0  0  0  0  0  0  0  0  0
   -7.0180   -1.9780    1.3660 C   0  0  0  0  0  0  0  0  0  0  0  0
  1  2  1  0
  2  3  1  0
  3  4  2  0
  3 32  1  0
  4  5  1  0
  5  6  1  0
  5 30  2  0
  7  6  1  1
  7  8  1  0
  7 26  1  0
  8  9  1  0
  9 10  2  0
  9 11  1  0
 11 12  1  0
 12 13  1  0
 13 14  2  0
 13 15  1  0
 15 16  1  0
 16 17  2  0
 16 20  1  0
 17 18  1  0
 18 19  2  0
 18 25  1  0
 19 20  1  0
 19 21  1  0
 21 22  1  0
 22 23  1  0
 23 24  1  1
 23 25  1  0
 26 27  2  0
 26 28  1  0
 28 29  1  0
 30 31  1  0
 31 32  2  0
 31 36  1  0
 32 33  1  0
 33 34  1  0
 34 35  1  0
 35 36  1  0
M  CHG  1  23   1
M  END
