
     RDKit          3D

 37 41  0  0  0  0  0  0  0  0999 V2000
   -9.0060   -0.2900    2.9320 C   0  0  0  0  0  0  0  0  0  0  0  0
   -7.8950   -0.1400    1.9690 C   0  0  0  0  0  0  0  0  0  0  0  0
   -8.2070    0.1030    0.6950 N   0  0  0  0  0  0  0  0  0  0  0  0
   -7.2260    0.2470   -0.2160 C   0  0  0  0  0  0  0  0  0  0  0  0
   -7.5040    0.4980   -1.5330 C   0  0  0  0  0  0  0  0  0  0  0  0
   -6.5280    0.6500   -2.4780 C   0  0  0  0  0  0  0  0  0  0  0  0
   -5.2200    0.5400   -2.0600 C   0  0  0  0  0  0  0  0  0  0  0  0
   -4.2260    0.6910   -3.0000 C   0  0  0  0  0  0  0  0  0  0  0  0
   -2.9010    0.5950   -2.6550 C   0  0  0  0  0  0  0  0  0  0  0  0
   -2.5810    0.3430   -1.3410 C   0  0  0  0  0  0  0  0  0  0  0  0
   -1.1380    0.2490   -1.0080 C   0  0  0  0  0  0  0  0  0  0  0  0
   -0.7010   -1.1000   -1.2920 N   0  0  0  0  0  0  0  0  0  0  0  0
    0.6620   -1.4230   -1.0560 C   0  0  0  0  0  0  0  0  0  0  0  0
    1.1510   -2.6810   -1.3360 C   0  0  0  0  0  0  0  0  0  0  0  0
    2.4710   -2.9770   -1.1020 C   0  0  0  0  0  0  0  0  0  0  0  0
    3.3090   -1.9860   -0.5790 C   0  0  0  0  0  0  0  0  0  0  0  0
    2.8350   -0.7290   -0.2980 C   0  0  0  0  0  0  0  0  0  0  0  0
    1.5220   -0.4610   -0.5370 C   0  0  0  0  0  0  0  0  0  0  0  0
    3.9630    0.1470    0.1910 C   0  0  0  0  0  0  0  0  0  0  0  0
    5.0830   -0.7170    0.3800 N   0  0  0  0  0  0  0  0  0  0  0  0
    6.3440   -0.4400    1.0180 C   0  0  1  0  0  0  0  0  0  0  0  0
    7.2220    0.5850    0.4340 C   0  0  0  0  0  0  0  0  0  0  0  0
    6.7520    1.9830    0.3340 C   0  0  0  0  0  0  0  0  0  0  0  0
    7.8830    2.7750   -0.2730 C   0  0  0  0  0  0  0  0  0  0  0  0
    7.6950    3.9890   -0.4710 O   0  0  0  0  0  0  0  0  0  0  0  0
    9.0850    2.2010   -0.6040 O   0  0  0  0  0  0  0  0  0  0  0  0
    6.1350   -0.2240    2.5020 C   0  0  0  0  0  0  0  0  0  0  0  0
    7.0920    0.0420    3.2670 O   0  0  0  0  0  0  0  0  0  0  0  0
    4.8710   -0.3140    3.0680 O   0  0  0  0  0  0  0  0  0  0  0  0
    4.6830   -2.0010   -0.1770 C   0  0  0  0  0  0  0  0  0  0  0  0
    5.4840   -2.9680   -0.2720 O   0  0  0  0  0  0  0  0  0  0  0  0
   -3.5490    0.1840   -0.3670 C   0  0  0  0  0  0  0  0  0  0  0  0
   -4.8690    0.2820   -0.7220 C   0  0  0  0  0  0  0  0  0  0  0  0
   -5.8910    0.1350    0.2060 C   0  0  0  0  0  0  0  0  0  0  0  0
   -5.6050   -0.1150    1.5200 C   0  0  0  0  0  0  0  0  0  0  0  0
   -4.4470   -0.2230    1.9450 O   0  0  0  0  0  0  0  0  0  0  0  0
   -6.6450   -0.2530    2.4090 N   0  0  0  0  0  0  0  0  0  0  0  0
  1  2  1  0
  2  3  2  0
  2 37  1  0
  3  4  1  0
  4  5  2  0
  4 34  1  0
  5  6  1  0
  6  7  2  0
  7  8  1  0
  7 33  1  0
  8  9  2  0
  9 10  1  0
 10 11  1  0
 10 32  2  0
 11 12  1  0
 12 13  1  0
 13 14  2  0
 13 18  1  0
 14 15  1  0
 15 16  2  0
 16 17  1  0
 16 30  1  0
 17 18  2  0
 17 19  1  0
 19 20  1  0
 20 21  1  0
 20 30  1  0
 21 22  1  6
 21 27  1  0
 22 23  1  0
 23 24  1  0
 24 25  2  0
 24 26  1  0
 27 28  2  0
 27 29  1  0
 30 31  2  0
 32 33  1  0
 33 34  2  0
 34 35  1  0
 35 36  2  0
 35 37  1  0
M  END
