
     RDKit          3D

 36 39  0  0  0  0  0  0  0  0999 V2000
   -5.0920    4.0760   -0.1590 C   0  0  0  0  0  0  0  0  0  0  0  0
   -6.3440    3.2220    0.0760 C   0  0  0  0  0  0  0  0  0  0  0  0
   -6.1160    2.4910    1.3810 C   0  0  0  0  0  0  0  0  0  0  0  0
   -4.9040    1.6310    1.2770 C   0  0  0  0  0  0  0  0  0  0  0  0
   -3.3000    2.0020    1.8900 S   0  0  0  0  0  0  0  0  0  0  0  0
   -2.5260    0.4910    1.3090 C   0  0  0  0  0  0  0  0  0  0  0  0
   -1.1590    0.1710    1.5000 N   0  0  0  0  0  0  0  0  0  0  0  0
   -0.2810    1.0430    2.1820 C   0  0  0  0  0  0  0  0  0  0  0  0
   -0.8130    2.1300    2.6090 O   0  0  0  0  0  0  0  0  0  0  0  0
    1.1390    0.7700    2.4090 C   0  0  0  0  0  0  0  0  0  0  0  0
    1.6330   -0.4650    1.8960 N   0  0  0  0  0  0  0  0  0  0  0  0
    3.0330   -0.7890    2.0900 C   0  0  0  0  0  0  0  0  0  0  0  0
    3.6920    0.0730    2.7080 O   0  0  0  0  0  0  0  0  0  0  0  0
    3.5900   -2.0360    1.5860 C   0  0  0  0  0  0  0  0  0  0  0  0
    5.0290   -2.2960    1.7900 C   0  0  0  0  0  0  0  0  0  0  0  0
    5.8910   -1.2790    1.1440 C   0  0  0  0  0  0  0  0  0  0  0  0
    6.4430   -0.2210    1.8260 C   0  0  0  0  0  0  0  0  0  0  0  0
    7.2190    0.7120    1.1780 C   0  0  0  0  0  0  0  0  0  0  0  0
    7.4500    0.5870   -0.1800 C   0  0  0  0  0  0  0  0  0  0  0  0
    8.2350    1.5380   -0.8190 C   0  0  0  0  0  0  0  0  0  0  0  0
    8.7490    2.5150   -0.2120 O   0  0  0  0  0  0  0  0  0  0  0  0
    8.4710    1.4320   -2.1350 N   0  0  0  0  0  0  0  0  0  0  0  0
    7.9290    0.3950   -2.7920 C   0  0  0  0  0  0  0  0  0  0  0  0
    8.1310    0.2650   -4.0370 O   0  0  0  0  0  0  0  0  0  0  0  0
    7.1650   -0.5430   -2.2110 N   0  0  0  0  0  0  0  0  0  0  0  0
    6.9190   -0.4490   -0.8810 C   0  0  0  0  0  0  0  0  0  0  0  0
    6.1490   -1.3670   -0.2160 C   0  0  0  0  0  0  0  0  0  0  0  0
   -3.5500   -0.1720    0.6970 C   0  0  0  0  0  0  0  0  0  0  0  0
   -4.7580    0.4100    0.6820 C   0  0  0  0  0  0  0  0  0  0  0  0
   -6.0000   -0.2200    0.0450 C   0  0  0  0  0  0  0  0  0  0  0  0
   -5.7270   -0.5530   -1.3870 C   0  0  0  0  0  0  0  0  0  0  0  0
   -4.8720   -1.7930   -1.5440 C   0  0  0  0  0  0  0  0  0  0  0  0
   -3.4760   -1.5150   -1.3240 N   0  0  2  0  0  0  0  0  0  0  0  0
   -2.6090   -2.3950   -2.0770 C   0  0  0  0  0  0  0  0  0  0  0  0
   -1.8690   -1.6470   -3.1670 C   0  0  0  0  0  0  0  0  0  0  0  0
   -3.2110   -1.5300    0.0800 C   0  0  0  0  0  0  0  0  0  0  0  0
  1  2  1  0
  2  3  1  0
  3  4  1  0
  4  5  1  0
  4 29  2  0
  5  6  1  0
  6  7  1  0
  6 28  2  0
  7  8  1  0
  8  9  2  0
  8 10  1  0
 10 11  1  0
 11 12  1  0
 12 13  2  0
 12 14  1  0
 14 15  1  0
 15 16  1  0
 16 17  2  0
 16 27  1  0
 17 18  1  0
 18 19  2  0
 19 20  1  0
 19 26  1  0
 20 21  2  0
 20 22  1  0
 22 23  1  0
 23 24  2  0
 23 25  1  0
 25 26  1  0
 26 27  2  0
 28 29  1  0
 28 36  1  0
 29 30  1  0
 30 31  1  0
 31 32  1  0
 32 33  1  0
 33 34  1  6
 33 36  1  0
 34 35  1  0
M  CHG  1  33   1
M  END
