
     RDKit          3D

 36 39  0  0  0  0  0  0  0  0999 V2000
   -2.3200    6.1520   -0.5460 C   0  0  0  0  0  0  0  0  0  0  0  0
   -2.3950    4.6750   -0.4930 C   0  0  0  0  0  0  0  0  0  0  0  0
   -1.8590    3.8710   -1.4610 C   0  0  0  0  0  0  0  0  0  0  0  0
   -1.9760    2.5140   -1.3280 C   0  0  0  0  0  0  0  0  0  0  0  0
   -2.6170    1.8990   -0.2510 C   0  0  0  0  0  0  0  0  0  0  0  0
   -2.7720    0.4850   -0.0760 C   0  0  0  0  0  0  0  0  0  0  0  0
   -1.9890   -0.4940    0.1820 C   0  0  0  0  0  0  0  0  0  0  0  0
   -0.5740   -0.4340    0.4050 C   0  0  0  0  0  0  0  0  0  0  0  0
    0.0510   -1.5520    0.5770 O   0  0  0  0  0  0  0  0  0  0  0  0
    0.1590    0.7630    0.4540 N   0  0  0  0  0  0  0  0  0  0  0  0
    1.5540    0.6210    0.6720 N   0  0  0  0  0  0  0  0  0  0  0  0
    2.3620    0.6250   -0.3590 C   0  0  0  0  0  0  0  0  0  0  0  0
    1.8530    0.7740   -1.7570 C   0  0  0  0  0  0  0  0  0  0  0  0
    3.1090   -0.3010   -2.5850 S   0  0  0  0  0  0  0  0  0  0  0  0
    4.4010   -0.0110   -1.3910 C   0  0  0  0  0  0  0  0  0  0  0  0
    5.7420   -0.1950   -1.4450 C   0  0  0  0  0  0  0  0  0  0  0  0
    6.5920    0.1080   -0.3940 C   0  0  0  0  0  0  0  0  0  0  0  0
    8.0560   -0.0950   -0.4680 C   0  0  0  0  0  0  0  0  0  0  0  0
    8.7100    0.1320    0.7800 N   0  0  0  0  0  0  0  0  0  0  0  0
    5.9860    0.6180    0.7320 C   0  0  0  0  0  0  0  0  0  0  0  0
    4.6260    0.8090    0.7970 C   0  0  0  0  0  0  0  0  0  0  0  0
    3.7900    0.4910   -0.2850 C   0  0  0  0  0  0  0  0  0  0  0  0
   -2.5570   -1.8780    0.2830 C   0  0  0  0  0  0  0  0  0  0  0  0
   -1.7620   -2.8510    0.5320 O   0  0  0  0  0  0  0  0  0  0  0  0
   -3.9040   -2.2040    0.1260 N   0  0  0  0  0  0  0  0  0  0  0  0
   -4.3530   -3.5860    0.2230 C   0  0  2  0  0  0  0  0  0  0  0  0
   -4.3130   -4.1420    1.5790 C   0  0  0  0  0  0  0  0  0  0  0  0
   -3.8290   -5.5210    1.4500 C   0  0  0  0  0  0  0  0  0  0  0  0
   -3.7950   -6.3850    2.3860 O   0  0  0  0  0  0  0  0  0  0  0  0
   -3.4150   -5.6930    0.0990 N   0  0  0  0  0  0  0  0  0  0  0  0
   -3.1170   -6.9720   -0.5470 C   0  0  0  0  0  0  0  0  0  0  0  0
   -3.3430   -4.4220   -0.5350 C   0  0  0  0  0  0  0  0  0  0  0  0
   -2.6110   -4.0900   -1.4970 O   0  0  0  0  0  0  0  0  0  0  0  0
   -3.1480    2.7460    0.7100 C   0  0  0  0  0  0  0  0  0  0  0  0
   -3.0420    4.1060    0.5970 C   0  0  0  0  0  0  0  0  0  0  0  0
   -3.6400    4.9620    1.6640 C   0  0  0  0  0  0  0  0  0  0  0  0
  1  2  1  0
  2  3  2  0
  2 35  1  0
  3  4  1  0
  4  5  2  0
  5  6  1  0
  5 34  1  0
  6  7  2  3
  7  8  1  0
  7 23  1  0
  8  9  2  0
  8 10  1  0
 10 11  1  0
 11 12  2  3
 12 13  1  0
 12 22  1  0
 13 14  1  0
 14 15  1  0
 15 16  2  0
 15 22  1  0
 16 17  1  0
 17 18  1  0
 17 20  2  0
 18 19  1  0
 20 21  1  0
 21 22  2  0
 23 24  2  0
 23 25  1  0
 26 25  1  1
 26 27  1  0
 26 32  1  0
 27 28  1  0
 28 29  2  0
 28 30  1  0
 30 31  1  0
 30 32  1  0
 32 33  2  0
 34 35  2  0
 35 36  1  0
M  CHG  1  19   1
M  END
