
     RDKit          3D

 36 38  0  0  0  0  0  0  0  0999 V2000
   -6.5130   -0.8660    2.0790 C   0  0  0  0  0  0  0  0  0  0  0  0
   -5.8040    0.1360    1.6820 C   0  0  0  0  0  0  0  0  0  0  0  0
   -6.2700    1.5690    1.9290 C   0  0  0  0  0  0  0  0  0  0  0  0
   -6.5620    2.0990    0.5260 C   0  0  0  0  0  0  0  0  0  0  0  0
   -5.3410    1.9290   -0.2920 C   0  0  0  0  0  0  0  0  0  0  0  0
   -4.4450    0.9940   -0.1260 C   0  0  0  0  0  0  0  0  0  0  0  0
   -4.5880   -0.0240    0.9140 C   0  0  0  0  0  0  0  0  0  0  0  0
   -3.7090   -0.9410    1.1480 C   0  0  0  0  0  0  0  0  0  0  0  0
   -3.8820   -1.9250    2.2750 C   0  0  0  0  0  0  0  0  0  0  0  0
   -3.4420    1.0970   -1.2930 C   0  0  0  0  0  0  0  0  0  0  0  0
   -2.6470    0.0540   -1.8160 N   0  0  0  0  0  0  0  0  0  0  0  0
   -1.3820   -0.1220   -1.1670 C   0  0  0  0  0  0  0  0  0  0  0  0
   -1.2020    0.7430   -0.2790 O   0  0  0  0  0  0  0  0  0  0  0  0
   -0.5000   -1.1610   -1.5560 C   0  0  2  0  0  0  0  0  0  0  0  0
   -0.6160   -2.4600   -0.8320 C   0  0  0  0  0  0  0  0  0  0  0  0
   -0.3130   -2.4570    0.6190 C   0  0  0  0  0  0  0  0  0  0  0  0
   -0.5400   -4.1770    1.2200 S   0  0  0  0  0  0  0  0  0  0  0  0
   -2.2300   -4.7360    1.1170 C   0  0  0  0  0  0  0  0  0  0  0  0
    0.9080   -0.6870   -1.4820 N   0  0  0  0  0  0  0  0  0  0  0  0
    1.7420   -0.5570   -2.6040 C   0  0  0  0  0  0  0  0  0  0  0  0
    1.2610   -0.8590   -3.7240 O   0  0  0  0  0  0  0  0  0  0  0  0
    3.1190   -0.0950   -2.5450 C   0  0  0  0  0  0  0  0  0  0  0  0
    3.9540    0.0550   -3.6250 C   0  0  0  0  0  0  0  0  0  0  0  0
    5.1930    0.5170   -3.1640 C   0  0  0  0  0  0  0  0  0  0  0  0
    5.0250    0.6190   -1.8050 C   0  0  0  0  0  0  0  0  0  0  0  0
    6.0570    1.0670   -0.8770 C   0  0  0  0  0  0  0  0  0  0  0  0
    7.1770    1.3840   -1.3140 O   0  0  0  0  0  0  0  0  0  0  0  0
    5.8090    1.1490    0.5230 N   0  0  0  0  0  0  0  0  0  0  0  0
    6.8070    1.5870    1.4450 C   0  0  0  0  0  0  0  0  0  0  0  0
    7.9950    0.7050    1.3850 C   0  0  0  0  0  0  0  0  0  0  0  0
    9.2220    1.0840    1.0910 C   0  0  0  0  0  0  0  0  0  0  0  0
    9.6030    2.4780    0.7700 C   0  0  0  0  0  0  0  0  0  0  0  0
    3.7930    0.2500   -1.4770 O   0  0  0  0  0  0  0  0  0  0  0  0
   -3.8560    2.0190   -1.9820 N   0  0  0  0  0  0  0  0  0  0  0  0
   -4.9850    2.6550   -1.5380 C   0  0  0  0  0  0  0  0  0  0  0  0
   -5.5630    3.6770   -2.0110 N   0  0  0  0  0  0  0  0  0  0  0  0
  1  2  2  0
  2  3  1  0
  2  7  1  0
  3  4  1  0
  4  5  1  0
  5  6  2  0
  5 35  1  0
  6  7  1  0
  6 10  1  0
  7  8  2  3
  8  9  1  0
 10 11  1  0
 10 34  2  0
 11 12  1  0
 12 13  2  0
 12 14  1  0
 14 15  1  1
 14 19  1  0
 15 16  1  0
 16 17  1  0
 17 18  1  0
 19 20  1  0
 20 21  2  0
 20 22  1  0
 22 23  2  0
 22 33  1  0
 23 24  1  0
 24 25  2  0
 25 26  1  0
 25 33  1  0
 26 27  2  0
 26 28  1  0
 28 29  1  0
 29 30  1  0
 30 31  2  3
 31 32  1  0
 34 35  1  0
 35 36  2  0
M  CHG  1  36   1
M  END
