
     RDKit          3D

 36 39  0  0  0  0  0  0  0  0999 V2000
    9.6210   -2.8370    0.0590 C   0  0  0  0  0  0  0  0  0  0  0  0
    8.5430   -2.9970   -0.9120 N   0  0  0  0  0  0  0  0  0  0  0  0
    7.5410   -2.0010   -0.5760 C   0  0  0  0  0  0  0  0  0  0  0  0
    7.0180   -1.4500   -1.8700 C   0  0  0  0  0  0  0  0  0  0  0  0
    6.0010   -0.4310   -1.7080 N   0  0  0  0  0  0  0  0  0  0  0  0
    4.7490   -0.7400   -1.0240 C   0  0  0  0  0  0  0  0  0  0  0  0
    4.6310   -1.8960   -0.6130 O   0  0  0  0  0  0  0  0  0  0  0  0
    3.7610    0.2240   -0.8560 N   0  0  0  0  0  0  0  0  0  0  0  0
    2.5220   -0.0040   -0.2020 C   0  0  0  0  0  0  0  0  0  0  0  0
    2.1290   -1.1610    0.4020 C   0  0  0  0  0  0  0  0  0  0  0  0
    0.8980   -1.3150    1.0220 C   0  0  0  0  0  0  0  0  0  0  0  0
   -0.0050   -0.2830    1.0570 C   0  0  0  0  0  0  0  0  0  0  0  0
   -1.2400   -0.3550    1.6490 O   0  0  0  0  0  0  0  0  0  0  0  0
   -2.4110   -0.7440    1.0530 C   0  0  0  0  0  0  0  0  0  0  0  0
   -2.3630   -1.0710   -0.1610 O   0  0  0  0  0  0  0  0  0  0  0  0
   -3.7210   -0.8020    1.7470 C   0  0  0  0  0  0  0  0  0  0  0  0
   -4.8130   -1.2520    0.8730 C   0  0  0  0  0  0  0  0  0  0  0  0
   -5.5940   -0.4080    0.1190 C   0  0  0  0  0  0  0  0  0  0  0  0
   -6.5880   -0.9450   -0.6630 C   0  0  0  0  0  0  0  0  0  0  0  0
   -6.8340   -2.3120   -0.7210 C   0  0  0  0  0  0  0  0  0  0  0  0
   -6.0510   -3.1800    0.0370 C   0  0  0  0  0  0  0  0  0  0  0  0
   -5.0620   -2.6070    0.8110 C   0  0  0  0  0  0  0  0  0  0  0  0
   -6.4470   -4.4220   -0.1620 C   0  0  0  0  0  0  0  0  0  0  0  0
   -7.5740   -4.4590   -1.1110 C   0  0  0  0  0  0  0  0  0  0  0  0
   -7.7400   -2.9970   -1.4120 C   0  0  0  0  0  0  0  0  0  0  0  0
    0.3630    0.9290    0.4450 C   0  0  0  0  0  0  0  0  0  0  0  0
   -0.6080    1.9480    0.5150 N   0  0  0  0  0  0  0  0  0  0  0  0
   -0.4270    3.2350   -0.0310 C   0  0  0  0  0  0  0  0  0  0  0  0
    0.6290    3.5630   -0.6240 O   0  0  0  0  0  0  0  0  0  0  0  0
   -1.4370    4.2490    0.0560 N   0  0  0  0  0  0  0  0  0  0  0  0
   -2.6960    3.9870    0.6920 C   0  0  0  0  0  0  0  0  0  0  0  0
   -2.5570    4.4580    2.1340 C   0  0  0  0  0  0  0  0  0  0  0  0
   -1.3720    5.8540    2.2060 S   0  0  0  0  0  0  0  0  0  0  0  0
   -1.1750    6.6280    0.5920 C   0  0  0  0  0  0  0  0  0  0  0  0
   -1.1970    5.5660   -0.4870 C   0  0  0  0  0  0  0  0  0  0  0  0
    1.5810    1.0560   -0.1590 C   0  0  0  0  0  0  0  0  0  0  0  0
  1  2  1  0
  2  3  1  0
  3  4  1  0
  4  5  1  0
  5  6  1  0
  6  7  2  0
  6  8  1  0
  8  9  1  0
  9 10  2  0
  9 36  1  0
 10 11  1  0
 11 12  2  0
 12 13  1  0
 12 26  1  0
 13 14  1  0
 14 15  2  0
 14 16  1  0
 16 17  1  0
 17 18  1  0
 17 22  2  0
 18 19  2  0
 19 20  1  0
 20 21  1  0
 20 25  2  0
 21 22  1  0
 21 23  2  0
 23 24  1  0
 24 25  1  0
 26 27  1  0
 26 36  2  0
 27 28  1  0
 28 29  2  0
 28 30  1  0
 30 31  1  0
 30 35  1  0
 31 32  1  0
 32 33  1  0
 33 34  1  0
 34 35  1  0
M  CHG  1   2   1
M  END
