
     RDKit          3D

 36 39  0  0  0  0  0  0  0  0999 V2000
   -0.9650    2.9220    3.1780 C   0  0  0  0  0  0  0  0  0  0  0  0
    0.5580    2.9950    3.0440 C   0  0  0  0  0  0  0  0  0  0  0  0
    0.8640    2.7310    1.6270 N   0  0  0  0  0  0  0  0  0  0  0  0
    0.5110    1.5270    1.0030 C   0  0  0  0  0  0  0  0  0  0  0  0
   -0.0950    0.7030    1.8210 O   0  0  0  0  0  0  0  0  0  0  0  0
    0.7090    1.0900   -0.3470 C   0  0  0  0  0  0  0  0  0  0  0  0
    0.2400   -0.1550   -0.6540 C   0  0  0  0  0  0  0  0  0  0  0  0
    0.3960   -0.6980   -2.0410 C   0  0  0  0  0  0  0  0  0  0  0  0
   -0.6430   -0.5570   -2.9000 C   0  0  0  0  0  0  0  0  0  0  0  0
   -1.9950   -0.0050   -2.5520 C   0  0  0  0  0  0  0  0  0  0  0  0
   -2.4640    0.9160   -3.2430 O   0  0  0  0  0  0  0  0  0  0  0  0
   -2.7500   -0.5010   -1.4660 N   0  0  0  0  0  0  0  0  0  0  0  0
   -4.0110   -0.0660   -1.0170 C   0  0  0  0  0  0  0  0  0  0  0  0
   -4.5650    1.1260   -1.3930 C   0  0  0  0  0  0  0  0  0  0  0  0
   -5.7850    1.5450   -0.8510 C   0  0  0  0  0  0  0  0  0  0  0  0
   -6.4230    0.7470    0.0650 C   0  0  0  0  0  0  0  0  0  0  0  0
   -5.9090   -0.4620    0.4770 C   0  0  0  0  0  0  0  0  0  0  0  0
   -4.6810   -0.8510   -0.0900 C   0  0  0  0  0  0  0  0  0  0  0  0
   -4.3550   -2.0330    0.4260 C   0  0  0  0  0  0  0  0  0  0  0  0
   -5.3760   -2.4920    1.3820 C   0  0  0  0  0  0  0  0  0  0  0  0
   -6.3400   -1.3580    1.3250 C   0  0  0  0  0  0  0  0  0  0  0  0
   -0.4620   -1.0260   -4.1780 C   0  0  0  0  0  0  0  0  0  0  0  0
    1.1250   -1.6660   -4.2150 S   0  0  0  0  0  0  0  0  0  0  0  0
    1.5220   -1.2660   -2.4270 C   0  0  0  0  0  0  0  0  0  0  0  0
    2.8290   -1.5930   -1.9060 C   0  0  0  0  0  0  0  0  0  0  0  0
    3.7280   -2.1320   -2.6460 O   0  0  0  0  0  0  0  0  0  0  0  0
    3.2160   -1.3520   -0.5790 N   0  0  0  0  0  0  0  0  0  0  0  0
    4.5200   -1.6700   -0.1070 C   0  0  0  0  0  0  0  0  0  0  0  0
    4.8210   -2.4740    0.8950 C   0  0  0  0  0  0  0  0  0  0  0  0
    6.2540   -2.5420    1.0820 N   0  0  2  0  0  0  0  0  0  0  0  0
    6.5710   -2.0560    2.4180 C   0  0  0  0  0  0  0  0  0  0  0  0
    6.7760   -1.7150    0.0920 N   0  0  0  0  0  0  0  0  0  0  0  0
    5.8050   -1.2020   -0.6000 C   0  0  0  0  0  0  0  0  0  0  0  0
    1.3190    1.8050   -1.4400 C   0  0  0  0  0  0  0  0  0  0  0  0
    1.9360    3.1210   -1.3160 C   0  0  0  0  0  0  0  0  0  0  0  0
    1.3470    1.2830   -2.6160 O   0  0  0  0  0  0  0  0  0  0  0  0
  1  2  1  0
  2  3  1  0
  3  4  1  0
  4  5  2  0
  4  6  1  0
  6  7  2  3
  6 34  1  0
  7  8  1  0
  8  9  1  0
  8 24  2  0
  9 10  1  0
  9 22  2  0
 10 11  2  0
 10 12  1  0
 12 13  1  0
 13 14  2  0
 13 18  1  0
 14 15  1  0
 15 16  2  0
 16 17  1  0
 17 18  1  0
 17 21  2  0
 18 19  2  0
 19 20  1  0
 20 21  1  0
 22 23  1  0
 23 24  1  0
 24 25  1  0
 25 26  2  0
 25 27  1  0
 27 28  1  0
 28 29  2  0
 28 33  1  0
 29 30  1  0
 30 31  1  1
 30 32  1  0
 32 33  2  0
 34 35  1  0
 34 36  2  0
M  CHG  1  30   1
M  END
