
     RDKit          3D

 13 13  0  0  0  0  0  0  0  0999 V2000
    2.7740    1.3730    1.7320 C   0  0  0  0  0  0  0  0  0  0  0  0
    2.4080    0.5400    0.6540 C   0  0  0  0  0  0  0  0  0  0  0  0
    2.0760   -0.2080   -0.3500 C   0  0  0  0  0  0  0  0  0  0  0  0
    0.7420   -0.1000   -1.0170 C   0  0  2  0  0  0  0  0  0  0  0  0
    0.8260   -1.1360   -2.0330 O   0  0  0  0  0  0  0  0  0  0  0  0
    0.6540    1.1500   -1.8180 C   0  0  0  0  0  0  0  0  0  0  0  0
    0.4520    2.6180   -0.7660 S   0  0  0  0  0  0  0  0  0  0  0  0
   -0.6020    2.0100    0.6130 C   0  0  0  0  0  0  0  0  0  0  0  0
   -1.3120    0.8240    0.0810 C   0  0  0  0  0  0  0  0  0  0  0  0
   -0.4630   -0.3990   -0.2040 C   0  0  1  0  0  0  0  0  0  0  0  0
   -1.3560   -1.3410   -0.9820 C   0  0  0  0  0  0  0  0  0  0  0  0
   -0.1430   -1.0650    1.1150 C   0  0  0  0  0  0  0  0  0  0  0  0
   -1.4070   -1.4120    1.8900 C   0  0  0  0  0  0  0  0  0  0  0  0
  1  2  3  0
  2  3  1  0
  3  4  1  0
  4  5  1  6
  4  6  1  0
  4 10  1  0
  6  7  1  0
  7  8  1  0
  8  9  1  0
  9 10  1  0
 10 11  1  6
 10 12  1  0
 12 13  1  0
M  END
