
     RDKit          3D

 22 23  0  0  0  0  0  0  0  0999 V2000
   -1.5500   -2.1620   -1.7440 O   0  0  0  0  0  0  0  0  0  0  0  0
   -2.2690   -1.0440   -1.2570 C   0  0  0  0  0  0  0  0  0  0  0  0
   -1.5890   -0.4380   -0.0780 C   0  0  2  0  0  0  0  0  0  0  0  0
   -1.5340   -1.4350    0.9120 O   0  0  0  0  0  0  0  0  0  0  0  0
   -2.2640    0.7960    0.3910 C   0  0  1  0  0  0  0  0  0  0  0  0
   -3.5220    0.6350    1.1580 C   0  0  2  0  0  0  0  0  0  0  0  0
   -4.4550   -0.0190    0.3610 O   0  0  0  0  0  0  0  0  0  0  0  0
   -4.0760    1.8190    1.5920 O   0  0  0  0  0  0  0  0  0  0  0  0
   -1.1510    1.4480    1.2110 C   0  0  1  0  0  0  0  0  0  0  0  0
   -0.7530    0.6770    2.2770 O   0  0  0  0  0  0  0  0  0  0  0  0
   -0.0440    1.4180    0.1810 C   0  0  1  0  0  0  0  0  0  0  0  0
    1.1970    1.6890    0.7230 O   0  0  0  0  0  0  0  0  0  0  0  0
   -0.1710    0.0480   -0.3970 C   0  0  2  0  0  0  0  0  0  0  0  0
    0.0880    0.1590   -1.8720 C   0  0  0  0  0  0  0  0  0  0  0  0
   -0.7990    1.0660   -2.4800 O   0  0  0  0  0  0  0  0  0  0  0  0
    0.8390   -0.9230    0.1830 C   0  0  0  0  0  0  0  0  0  0  0  0
    2.1130   -0.4910   -0.1010 O   0  0  0  0  0  0  0  0  0  0  0  0
    3.1070   -1.3010    0.3800 C   0  0  2  0  0  0  0  0  0  0  0  0
    3.8330   -0.5590    1.3280 O   0  0  0  0  0  0  0  0  0  0  0  0
    4.8790    0.0290    0.6240 C   0  0  0  0  0  0  0  0  0  0  0  0
    4.8710   -0.5900   -0.7550 C   0  0  0  0  0  0  0  0  0  0  0  0
    4.0360   -1.6820   -0.5880 O   0  0  0  0  0  0  0  0  0  0  0  0
  1  2  1  0
  2  3  1  0
  3  4  1  1
  3  5  1  0
  3 13  1  0
  5  6  1  1
  5  9  1  0
  6  7  1  6
  6  8  1  0
  9 10  1  1
  9 11  1  0
 11 12  1  1
 11 13  1  0
 13 14  1  6
 13 16  1  0
 14 15  1  0
 16 17  1  0
 18 17  1  6
 18 19  1  0
 18 22  1  0
 19 20  1  0
 20 21  1  0
 21 22  1  0
M  END
