
     RDKit          3D

 14 15  0  0  0  0  0  0  0  0999 V2000
    3.3860    0.9530   -0.3950 N   0  0  0  0  0  0  0  0  0  0  0  0
    2.0430    0.4920   -0.2550 C   0  0  0  0  0  0  0  0  0  0  0  0
    1.7360   -0.8380   -0.4560 C   0  0  0  0  0  0  0  0  0  0  0  0
    0.4210   -1.2890   -0.3190 C   0  0  0  0  0  0  0  0  0  0  0  0
    0.0750   -2.6510   -0.5190 N   0  0  0  0  0  0  0  0  0  0  0  0
   -0.6090   -0.4250    0.0190 C   0  0  0  0  0  0  0  0  0  0  0  0
   -1.9210   -0.8590    0.1590 C   0  0  0  0  0  0  0  0  0  0  0  0
   -2.1590   -2.0790   -0.0330 O   0  0  0  0  0  0  0  0  0  0  0  0
   -2.8860    0.0300    0.4910 N   0  0  0  0  0  0  0  0  0  0  0  0
   -2.6000    1.3090    0.6850 N   0  0  0  0  0  0  0  0  0  0  0  0
   -1.3350    1.7490    0.5550 C   0  0  0  0  0  0  0  0  0  0  0  0
   -1.0410    2.9560    0.7340 O   0  0  0  0  0  0  0  0  0  0  0  0
   -0.2920    0.9040    0.2180 C   0  0  0  0  0  0  0  0  0  0  0  0
    1.0100    1.3460    0.0810 C   0  0  0  0  0  0  0  0  0  0  0  0
  1  2  1  0
  2  3  2  0
  2 14  1  0
  3  4  1  0
  4  5  1  0
  4  6  2  0
  6  7  1  0
  6 13  1  0
  7  8  2  0
  7  9  1  0
  9 10  1  0
 10 11  1  0
 11 12  2  0
 11 13  1  0
 13 14  2  0
M  END
