
     RDKit          3D

 14 14  0  0  0  0  0  0  0  0999 V2000
    5.1810    1.1090   -1.3960 C   0  0  0  0  0  0  0  0  0  0  0  0
    3.9250    0.8210   -0.1130 S   0  0  0  0  0  0  0  0  0  0  0  0
    2.9950   -0.7150   -0.4850 C   0  0  0  0  0  0  0  0  0  0  0  0
    1.9970   -0.8690    0.6110 C   0  0  0  0  0  0  0  0  0  0  0  0
    0.7170   -0.8870    0.2680 C   0  0  0  0  0  0  0  0  0  0  0  0
    0.2670   -0.7610   -1.1460 C   0  0  0  0  0  0  0  0  0  0  0  0
   -1.0960   -1.0110   -1.1460 O   0  0  0  0  0  0  0  0  0  0  0  0
   -1.8480   -0.1000   -0.4510 C   0  0  2  0  0  0  0  0  0  0  0  0
   -3.2950   -0.5530   -0.5310 C   0  0  0  0  0  0  0  0  0  0  0  0
   -1.7900    1.2110   -1.2490 C   0  0  0  0  0  0  0  0  0  0  0  0
   -1.3640    0.0720    0.9370 C   0  0  1  0  0  0  0  0  0  0  0  0
   -2.4370    0.2180    1.9700 C   0  0  0  0  0  0  0  0  0  0  0  0
   -3.1980    1.3370    1.6630 O   0  0  0  0  0  0  0  0  0  0  0  0
   -0.3860   -1.0340    1.2700 C   0  0  0  0  0  0  0  0  0  0  0  0
  1  2  1  0
  2  3  1  0
  3  4  1  0
  4  5  2  3
  5  6  1  0
  5 14  1  0
  6  7  1  0
  7  8  1  0
  8  9  1  1
  8 10  1  0
  8 11  1  0
 11 12  1  1
 11 14  1  0
 12 13  1  0
M  END
