
     RDKit          3D

 14 14  0  0  0  0  0  0  0  0999 V2000
    4.2010    1.0270    1.2600 C   0  0  0  0  0  0  0  0  0  0  0  0
    4.0480    0.4340   -0.1230 C   0  0  0  0  0  0  0  0  0  0  0  0
    2.7670   -0.1620   -0.2890 O   0  0  0  0  0  0  0  0  0  0  0  0
    1.6100    0.5690   -0.1640 C   0  0  0  0  0  0  0  0  0  0  0  0
    1.6740    1.7860    0.1010 O   0  0  0  0  0  0  0  0  0  0  0  0
    0.3210   -0.0700   -0.3410 C   0  0  0  0  0  0  0  0  0  0  0  0
   -0.7880    0.6330   -0.2210 C   0  0  0  0  0  0  0  0  0  0  0  0
   -2.1570    0.1530   -0.3650 C   0  0  2  0  0  0  0  0  0  0  0  0
   -2.9450    1.2230   -1.1390 C   0  0  0  0  0  0  0  0  0  0  0  0
   -2.8990   -0.0510    0.9160 C   0  0  0  0  0  0  0  0  0  0  0  0
   -2.2520   -1.0560    1.8380 C   0  0  0  0  0  0  0  0  0  0  0  0
   -2.2680   -1.3490   -1.3910 S   0  0  0  0  0  0  0  0  0  0  0  0
   -0.5430   -1.6700   -1.9420 C   0  0  0  0  0  0  0  0  0  0  0  0
    0.2690   -1.5240   -0.6550 C   0  0  0  0  0  0  0  0  0  0  0  0
  1  2  1  0
  2  3  1  0
  3  4  1  0
  4  5  2  0
  4  6  1  0
  6  7  2  0
  6 14  1  0
  7  8  1  0
  8  9  1  6
  8 10  1  0
  8 12  1  0
 10 11  1  0
 12 13  1  0
 13 14  1  0
M  END
