
     RDKit          3D

 14 14  0  0  0  0  0  0  0  0999 V2000
    4.5730   -0.0480   -0.1920 C   0  0  0  0  0  0  0  0  0  0  0  0
    3.2280   -0.1210   -0.8020 C   0  0  0  0  0  0  0  0  0  0  0  0
    2.1850   -0.5850   -0.1310 C   0  0  0  0  0  0  0  0  0  0  0  0
    2.4660   -1.1200    1.5450 S   0  0  0  0  0  0  0  0  0  0  0  0
    0.8730   -0.6620   -0.7550 C   0  0  0  0  0  0  0  0  0  0  0  0
   -0.2250    0.1560   -0.1570 C   0  0  1  0  0  0  0  0  0  0  0  0
    0.1130    1.6360   -0.1500 C   0  0  0  0  0  0  0  0  0  0  0  0
    1.2880    1.8610    0.6040 O   0  0  0  0  0  0  0  0  0  0  0  0
   -1.4050    0.0590   -1.1570 C   0  0  0  0  0  0  0  0  0  0  0  0
   -2.5990    0.6890   -0.5210 C   0  0  0  0  0  0  0  0  0  0  0  0
   -3.6030   -0.3950   -0.1030 C   0  0  0  0  0  0  0  0  0  0  0  0
   -3.0020   -1.0120    1.1480 C   0  0  0  0  0  0  0  0  0  0  0  0
   -1.7070   -1.3670    0.8930 O   0  0  0  0  0  0  0  0  0  0  0  0
   -0.7660   -0.3630    1.1320 C   0  0  0  0  0  0  0  0  0  0  0  0
  1  2  1  0
  2  3  2  3
  3  4  1  0
  3  5  1  0
  6  5  1  6
  6  7  1  0
  6  9  1  0
  6 14  1  0
  7  8  1  0
  9 10  1  0
 10 11  1  0
 11 12  1  0
 12 13  1  0
 13 14  1  0
M  END
