
     RDKit          3D

 10 10  0  0  0  0  0  0  0  0999 V2000
   -3.3260    0.6710    0.0290 C   0  0  0  0  0  0  0  0  0  0  0  0
   -1.9030    0.7940    0.0940 O   0  0  0  0  0  0  0  0  0  0  0  0
   -1.1340    0.2770   -0.9220 C   0  0  0  0  0  0  0  0  0  0  0  0
   -1.7200   -0.2920   -1.8810 O   0  0  0  0  0  0  0  0  0  0  0  0
    0.3340    0.3330   -0.9810 C   0  0  0  0  0  0  0  0  0  0  0  0
    1.0710    1.1900    0.4790 P   0  0  0  0  0  0  0  0  0  0  0  0
    2.8130    1.2110    0.1930 O   0  0  0  0  0  0  0  0  0  0  0  0
    3.0920   -0.0080    0.8600 C   0  0  0  0  0  0  0  0  0  0  0  0
    2.4090    0.0120    2.0450 O   0  0  0  0  0  0  0  0  0  0  0  0
    1.1190    0.0040    1.7850 O   0  0  0  0  0  0  0  0  0  0  0  0
  1  2  1  0
  2  3  1  0
  3  4  2  0
  3  5  1  0
  5  6  1  0
  6  7  1  0
  6 10  1  0
  7  8  1  0
  8  9  1  0
  9 10  1  0
M  END
