
     RDKit          3D

 24 25  0  0  0  0  0  0  0  0999 V2000
   -5.1180   -0.2300   -1.6870 C   0  0  0  0  0  0  0  0  0  0  0  0
   -4.4160    0.3060   -0.4750 C   0  0  0  0  0  0  0  0  0  0  0  0
   -3.2400   -0.2580   -0.0260 C   0  0  0  0  0  0  0  0  0  0  0  0
   -2.5810    0.1890    1.0500 N   0  0  0  0  0  0  0  0  0  0  0  0
   -1.3540   -0.3590    1.5630 C   0  0  1  0  0  0  0  0  0  0  0  0
   -1.1170   -1.7530    1.2240 C   0  0  0  0  0  0  0  0  0  0  0  0
    0.1980   -1.9390    1.2080 C   0  0  0  0  0  0  0  0  0  0  0  0
    0.7720   -0.5840    1.5550 C   0  0  1  0  0  0  0  0  0  0  0  0
    2.0650   -0.3530    0.8130 C   0  0  0  0  0  0  0  0  0  0  0  0
    1.8260   -0.5730   -0.5290 O   0  0  0  0  0  0  0  0  0  0  0  0
    3.1870   -0.3510   -1.4890 P   0  0  2  0  0  0  0  0  0  0  0  0
    2.7620   -0.6420   -2.9300 O   0  0  0  0  0  0  0  0  0  0  0  0
    4.4190   -1.4260   -1.1190 O   0  0  0  0  0  0  0  0  0  0  0  0
    3.7360    1.2310   -1.4470 O   0  0  0  0  0  0  0  0  0  0  0  0
    5.3840    1.2910   -1.7360 P   0  0  2  0  0  0  0  0  0  0  0  0
    5.7370    2.6320   -2.3560 O   0  0  0  0  0  0  0  0  0  0  0  0
    5.8060    0.1000   -2.8400 O   0  0  0  0  0  0  0  0  0  0  0  0
    6.2080    1.0770   -0.2840 O   0  0  0  0  0  0  0  0  0  0  0  0
   -0.2290    0.3070    1.0920 O   0  0  0  0  0  0  0  0  0  0  0  0
   -3.1180    1.2370    1.7000 C   0  0  0  0  0  0  0  0  0  0  0  0
   -2.5480    1.7010    2.7140 O   0  0  0  0  0  0  0  0  0  0  0  0
   -4.2730    1.8200    1.2890 N   0  0  0  0  0  0  0  0  0  0  0  0
   -4.9440    1.3800    0.2100 C   0  0  0  0  0  0  0  0  0  0  0  0
   -6.0210    1.9210   -0.1770 O   0  0  0  0  0  0  0  0  0  0  0  0
  1  2  1  0
  2  3  2  0
  2 23  1  0
  3  4  1  0
  5  4  1  6
  4 20  1  0
  5  6  1  0
  5 19  1  0
  6  7  2  0
  7  8  1  0
  8  9  1  6
  8 19  1  0
  9 10  1  0
 10 11  1  0
 11 12  2  0
 11 13  1  1
 11 14  1  0
 14 15  1  0
 15 16  2  0
 15 17  1  6
 15 18  1  0
 20 21  2  0
 20 22  1  0
 22 23  1  0
 23 24  2  0
M  END
