
     RDKit          3D

  9  8  0  0  0  0  0  0  0  0999 V2000
   -3.5950    0.2180    0.4210 O   0  0  0  0  0  0  0  0  0  0  0  0
   -2.3720   -0.0970   -0.2130 C   0  0  0  0  0  0  0  0  0  0  0  0
   -1.3990   -0.5670    0.8300 C   0  0  0  0  0  0  0  0  0  0  0  0
   -0.1630   -0.9120    0.3640 O   0  0  0  0  0  0  0  0  0  0  0  0
    0.4790    0.1300   -0.2590 C   0  0  0  0  0  0  0  0  0  0  0  0
    2.1080   -0.3940   -0.8450 P   0  0  0  0  0  0  0  0  0  0  0  0
    2.6240   -1.9420   -0.4520 O   0  0  0  0  0  0  0  0  0  0  0  0
    3.2780    0.8010   -1.0560 O   0  0  0  0  0  0  0  0  0  0  0  0
    3.3980    1.5960   -0.0090 O   0  0  0  0  0  0  0  0  0  0  0  0
  1  2  1  0
  2  3  1  0
  3  4  1  0
  4  5  1  0
  5  6  1  0
  6  7  1  0
  6  8  1  0
  8  9  1  0
M  END
