
     RDKit          3D

 24 25  0  0  0  0  0  0  0  0999 V2000
   -2.3010    0.6320    1.4630 O   0  0  0  0  0  0  0  0  0  0  0  0
   -2.3620   -0.0750    0.3660 C   0  0  0  0  0  0  0  0  0  0  0  0
   -2.7650    0.5310   -0.8750 C   0  0  0  0  0  0  0  0  0  0  0  0
   -2.1490    0.7680   -2.0040 C   0  0  0  0  0  0  0  0  0  0  0  0
   -2.8390    1.3730   -3.0270 O   0  0  0  0  0  0  0  0  0  0  0  0
   -2.1260    1.5350   -4.0450 C   0  0  0  0  0  0  0  0  0  0  0  0
   -2.5360    2.0720   -5.1240 O   0  0  0  0  0  0  0  0  0  0  0  0
   -0.8860    1.0670   -3.8360 N   0  0  0  0  0  0  0  0  0  0  0  0
   -0.9090    0.5830   -2.5360 C   0  0  0  0  0  0  0  0  0  0  0  0
    0.2050    0.0900   -1.9620 C   0  0  0  0  0  0  0  0  0  0  0  0
    0.5090   -0.3710   -0.7320 N   0  0  0  0  0  0  0  0  0  0  0  0
    0.7970   -0.7110    0.3690 C   0  0  0  0  0  0  0  0  0  0  0  0
    1.3200   -0.1140    1.5540 N   0  0  0  0  0  0  0  0  0  0  0  0
    2.3920    0.5900    1.5150 C   0  0  0  0  0  0  0  0  0  0  0  0
    2.9400    1.2090    2.7260 C   0  0  0  0  0  0  0  0  0  0  0  0
    2.3230    1.0250    3.7970 O   0  0  0  0  0  0  0  0  0  0  0  0
    4.1070    1.9700    2.6570 N   0  0  0  0  0  0  0  0  0  0  0  0
    4.6440    2.5630    3.7770 O   0  0  0  0  0  0  0  0  0  0  0  0
    4.2430    3.8170    3.7960 O   0  0  0  0  0  0  0  0  0  0  0  0
    0.5890   -2.0970    0.6750 O   0  0  0  0  0  0  0  0  0  0  0  0
    0.3150   -3.0120   -0.2300 O   0  0  0  0  0  0  0  0  0  0  0  0
   -0.9500   -3.4910    0.0180 C   0  0  0  0  0  0  0  0  0  0  0  0
   -1.9300   -2.4430   -0.4320 C   0  0  0  0  0  0  0  0  0  0  0  0
   -1.9920   -1.4340    0.6000 N   0  0  0  0  0  0  0  0  0  0  0  0
  1  2  2  0
  2  3  1  0
  2 24  1  0
  3  4  2  0
  4  5  1  0
  4  9  1  0
  5  6  1  0
  6  7  2  0
  6  8  1  0
  8  9  1  0
  9 10  2  0
 10 11  1  0
 11 12  2  0
 12 13  1  0
 12 20  1  0
 13 14  2  3
 14 15  1  0
 15 16  2  0
 15 17  1  0
 17 18  1  0
 18 19  1  0
 20 21  1  0
 21 22  1  0
 22 23  1  0
 23 24  1  0
M  END
