
     RDKit          3D

 19 21  0  0  0  0  0  0  0  0999 V2000
   -5.0910    0.0560   -1.7320 C   0  0  0  0  0  0  0  0  0  0  0  0
   -3.6320    0.1840   -1.6990 C   0  0  0  0  0  0  0  0  0  0  0  0
   -2.8920   -0.0370   -0.6060 C   0  0  0  0  0  0  0  0  0  0  0  0
   -3.4870   -0.4330    0.6690 C   0  0  0  0  0  0  0  0  0  0  0  0
   -2.4810   -0.6140    1.7070 C   0  0  0  0  0  0  0  0  0  0  0  0
   -2.9790   -1.0080    3.0090 N   0  0  0  0  0  0  0  0  0  0  0  0
   -1.2430   -0.4400    1.4910 N   0  0  0  0  0  0  0  0  0  0  0  0
   -0.6670   -0.0560    0.2510 C   0  0  0  0  0  0  0  0  0  0  0  0
    0.7740    0.1240    0.0870 C   0  0  0  0  0  0  0  0  0  0  0  0
    1.6940   -0.2450    1.0510 C   0  0  0  0  0  0  0  0  0  0  0  0
    2.9480    0.0600    0.5850 C   0  0  0  0  0  0  0  0  0  0  0  0
    4.1900   -0.1040    1.1490 C   0  0  0  0  0  0  0  0  0  0  0  0
    5.2810    0.2980    0.4400 C   0  0  0  0  0  0  0  0  0  0  0  0
    6.5420    0.1390    0.9970 O   0  0  0  0  0  0  0  0  0  0  0  0
    5.1330    0.8540   -0.8090 C   0  0  0  0  0  0  0  0  0  0  0  0
    3.8740    1.0180   -1.3750 C   0  0  0  0  0  0  0  0  0  0  0  0
    2.7650    0.6120   -0.6620 C   0  0  0  0  0  0  0  0  0  0  0  0
    1.4370    0.6470   -0.9560 N   0  0  0  0  0  0  0  0  0  0  0  0
   -1.5010    0.1220   -0.7100 N   0  0  0  0  0  0  0  0  0  0  0  0
  1  2  1  0
  2  3  2  3
  3  4  1  0
  3 19  1  0
  4  5  1  0
  5  6  1  0
  5  7  2  0
  7  8  1  0
  8  9  1  0
  8 19  2  0
  9 10  2  0
  9 18  1  0
 10 11  1  0
 11 12  2  0
 11 17  1  0
 12 13  1  0
 13 14  1  0
 13 15  2  0
 15 16  1  0
 16 17  2  0
 17 18  1  0
M  END
