
     RDKit          3D

 19 21  0  0  0  0  0  0  0  0999 V2000
    6.5930    0.8560    0.3610 N   0  0  0  0  0  0  0  0  0  0  0  0
    5.1940    1.0040    0.4170 C   0  0  0  0  0  0  0  0  0  0  0  0
    4.6610    2.1070    0.6940 O   0  0  0  0  0  0  0  0  0  0  0  0
    4.3210   -0.1490    0.1460 C   0  0  0  0  0  0  0  0  0  0  0  0
    4.8290   -1.3870   -0.1640 C   0  0  0  0  0  0  0  0  0  0  0  0
    4.0200   -2.4450   -0.4120 N   0  0  0  0  0  0  0  0  0  0  0  0
    2.6750   -2.3230   -0.3640 C   0  0  0  0  0  0  0  0  0  0  0  0
    2.1250   -1.0970   -0.0560 C   0  0  0  0  0  0  0  0  0  0  0  0
    0.6940   -0.9370    0.0020 N   0  0  0  0  0  0  0  0  0  0  0  0
    0.1490    0.3510    0.3250 C   0  0  0  0  0  0  0  0  0  0  0  0
   -1.3230    0.3410    0.3420 C   0  0  0  0  0  0  0  0  0  0  0  0
   -2.1360    1.4430    0.6220 C   0  0  0  0  0  0  0  0  0  0  0  0
   -3.4510    1.0660    0.5480 C   0  0  0  0  0  0  0  0  0  0  0  0
   -3.4620   -0.2520    0.2260 C   0  0  0  0  0  0  0  0  0  0  0  0
   -2.1700   -0.6700    0.1060 N   0  0  0  0  0  0  0  0  0  0  0  0
   -4.8300   -0.8070    0.1080 C   0  0  0  0  0  0  0  0  0  0  0  0
   -5.6810    0.4500    0.0600 C   0  0  0  0  0  0  0  0  0  0  0  0
   -4.8420    1.5250    0.6800 C   0  0  0  0  0  0  0  0  0  0  0  0
    2.9520   -0.0230    0.1950 C   0  0  0  0  0  0  0  0  0  0  0  0
  1  2  1  0
  2  3  2  0
  2  4  1  0
  4  5  2  0
  4 19  1  0
  5  6  1  0
  6  7  2  0
  7  8  1  0
  8  9  1  0
  8 19  2  0
  9 10  1  0
 10 11  1  0
 11 12  2  0
 11 15  1  0
 12 13  1  0
 13 14  2  0
 13 18  1  0
 14 15  1  0
 14 16  1  0
 16 17  1  0
 17 18  1  0
M  END
