
     RDKit          3D

 19 21  0  0  0  0  0  0  0  0999 V2000
    1.3100    4.0960    0.4610 C   0  0  0  0  0  0  0  0  0  0  0  0
    0.3780    3.2640    0.1490 C   0  0  0  0  0  0  0  0  0  0  0  0
    0.4330    1.8200    0.1520 C   0  0  0  0  0  0  0  0  0  0  0  0
    1.6010    1.1250    0.1920 C   0  0  0  0  0  0  0  0  0  0  0  0
    2.8860    1.7240    0.1960 N   0  0  0  0  0  0  0  0  0  0  0  0
    1.6020   -0.2600    0.2140 C   0  0  0  0  0  0  0  0  0  0  0  0
    2.8060   -1.0180    0.2570 N   0  0  0  0  0  0  0  0  0  0  0  0
    2.8340   -2.4250    0.2800 C   0  0  0  0  0  0  0  0  0  0  0  0
    4.1020   -3.2040    0.3250 C   0  0  0  0  0  0  0  0  0  0  0  0
    1.7060   -3.0270    0.2600 O   0  0  0  0  0  0  0  0  0  0  0  0
    0.4350   -0.9210    0.1940 N   0  0  0  0  0  0  0  0  0  0  0  0
   -0.7610   -0.3090    0.1540 C   0  0  0  0  0  0  0  0  0  0  0  0
   -2.0690   -0.7660    0.1270 C   0  0  0  0  0  0  0  0  0  0  0  0
   -2.8500    0.3690    0.0900 C   0  0  0  0  0  0  0  0  0  0  0  0
   -2.0300    1.4600    0.0940 N   0  0  0  0  0  0  0  0  0  0  0  0
   -0.7480    1.0610    0.1330 C   0  0  0  0  0  0  0  0  0  0  0  0
   -4.2790   -0.0230    0.0590 C   0  0  0  0  0  0  0  0  0  0  0  0
   -4.2240   -1.4160   -0.5230 C   0  0  0  0  0  0  0  0  0  0  0  0
   -2.9520   -1.9620    0.1230 C   0  0  0  0  0  0  0  0  0  0  0  0
  1  2  2  0
  2  3  1  0
  3  4  2  0
  3 16  1  0
  4  5  1  0
  4  6  1  0
  6  7  1  0
  6 11  2  0
  7  8  1  0
  8  9  1  0
  8 10  2  0
 11 12  1  0
 12 13  1  0
 12 16  2  0
 13 14  2  0
 13 19  1  0
 14 15  1  0
 14 17  1  0
 15 16  1  0
 17 18  1  0
 18 19  1  0
M  END
