
     RDKit          3D

 18 19  0  0  0  0  0  0  0  0999 V2000
   -5.2770   -0.6360    0.2260 C   0  0  0  0  0  0  0  0  0  0  0  0
   -3.8210   -0.4620   -0.0550 C   0  0  0  0  0  0  0  0  0  0  0  0
   -3.1260   -1.4180   -0.7650 C   0  0  0  0  0  0  0  0  0  0  0  0
   -1.7570   -1.2640   -1.0350 C   0  0  0  0  0  0  0  0  0  0  0  0
   -1.0940   -0.1500   -0.5900 C   0  0  0  0  0  0  0  0  0  0  0  0
    0.6160    0.0350   -0.9300 S   0  0  2  0  0  0  0  0  0  0  0  0
    0.8340    1.5220   -1.0840 O   0  0  0  0  0  0  0  0  0  0  0  0
    0.8290   -0.5630   -2.2880 O   0  0  0  0  0  0  0  0  0  0  0  0
    1.5880   -0.6350    0.2850 N   0  0  0  0  0  0  0  0  0  0  0  0
    1.3520    0.0330    1.5770 C   0  0  0  0  0  0  0  0  0  0  0  0
    1.9400    1.4220    1.4100 C   0  0  0  0  0  0  0  0  0  0  0  0
    3.0690    1.1840    0.4460 C   0  0  0  0  0  0  0  0  0  0  0  0
    2.9820   -0.3070    0.1240 C   0  0  2  0  0  0  0  0  0  0  0  0
    3.6450   -0.7070   -1.0900 C   0  0  0  0  0  0  0  0  0  0  0  0
    3.1370   -1.4750   -1.9250 O   0  0  0  0  0  0  0  0  0  0  0  0
    4.9170   -0.2250   -1.3660 O   0  0  0  0  0  0  0  0  0  0  0  0
   -1.7580    0.8210    0.1210 C   0  0  0  0  0  0  0  0  0  0  0  0
   -3.1280    0.6470    0.3800 C   0  0  0  0  0  0  0  0  0  0  0  0
  1  2  1  0
  2  3  2  0
  2 18  1  0
  3  4  1  0
  4  5  2  0
  5  6  1  0
  5 17  1  0
  6  7  2  0
  6  8  2  0
  6  9  1  1
  9 10  1  0
  9 13  1  0
 10 11  1  0
 11 12  1  0
 12 13  1  0
 13 14  1  6
 14 15  2  0
 14 16  1  0
 17 18  2  0
M  END
