
     RDKit          3D

 19 21  0  0  0  0  0  0  0  0999 V2000
    3.4490   -2.5940    0.3010 C   0  0  0  0  0  0  0  0  0  0  0  0
    3.3180   -1.3050    0.1840 C   0  0  0  0  0  0  0  0  0  0  0  0
    4.4350   -0.3490    0.1480 C   0  0  0  0  0  0  0  0  0  0  0  0
    3.9150    0.8540    0.0230 C   0  0  0  0  0  0  0  0  0  0  0  0
    4.6670    2.0790   -0.0510 N   0  0  0  0  0  0  0  0  0  0  0  0
    2.4550    0.7210   -0.0250 C   0  0  0  0  0  0  0  0  0  0  0  0
    2.0840   -0.5440    0.0680 C   0  0  0  0  0  0  0  0  0  0  0  0
    0.6870   -1.0650    0.0560 C   0  0  0  0  0  0  0  0  0  0  0  0
    0.5540   -2.2740    0.1540 O   0  0  0  0  0  0  0  0  0  0  0  0
   -0.4030   -0.1980   -0.0620 N   0  0  0  0  0  0  0  0  0  0  0  0
   -1.7600   -0.4760   -0.1640 C   0  0  0  0  0  0  0  0  0  0  0  0
   -2.4230   -1.6510   -0.3600 C   0  0  0  0  0  0  0  0  0  0  0  0
   -1.9750   -3.0290   -0.6470 C   0  0  0  0  0  0  0  0  0  0  0  0
   -3.7920   -1.3290   -0.2930 C   0  0  0  0  0  0  0  0  0  0  0  0
   -3.8760   -0.0260   -0.0700 N   0  0  0  0  0  0  0  0  0  0  0  0
   -2.6980    0.5290    0.0140 N   0  0  0  0  0  0  0  0  0  0  0  0
   -2.4130    1.9450    0.2550 C   0  0  1  0  0  0  0  0  0  0  0  0
   -2.2660    2.8650   -0.9000 C   0  0  0  0  0  0  0  0  0  0  0  0
   -3.5520    2.8610   -0.0840 C   0  0  0  0  0  0  0  0  0  0  0  0
  1  2  2  0
  2  3  1  0
  2  7  1  0
  3  4  2  0
  4  5  1  0
  4  6  1  0
  6  7  2  0
  7  8  1  0
  8  9  2  0
  8 10  1  0
 10 11  1  0
 11 12  2  0
 11 16  1  0
 12 13  1  0
 12 14  1  0
 14 15  2  0
 15 16  1  0
 17 16  1  6
 17 18  1  0
 17 19  1  0
 18 19  1  0
M  END
