
     RDKit          3D

 19 20  0  0  0  0  0  0  0  0999 V2000
    0.7360    2.7960    1.8330 C   0  0  0  0  0  0  0  0  0  0  0  0
    1.8640    2.3030    1.4120 C   0  0  0  0  0  0  0  0  0  0  0  0
    2.0990    1.1730    0.5590 C   0  0  0  0  0  0  0  0  0  0  0  0
    3.3610    0.8760    0.2930 C   0  0  0  0  0  0  0  0  0  0  0  0
    3.9090   -0.2210   -0.5450 C   0  0  0  0  0  0  0  0  0  0  0  0
    3.1810   -1.4900   -0.0760 C   0  0  0  0  0  0  0  0  0  0  0  0
    1.8930   -1.6590   -0.8100 C   0  0  0  0  0  0  0  0  0  0  0  0
    0.7110   -0.9850   -0.1540 C   0  0  0  0  0  0  0  0  0  0  0  0
    0.9340    0.4610    0.0510 C   0  0  0  0  0  0  0  0  0  0  0  0
   -0.0620    1.2130   -0.2760 N   0  0  0  0  0  0  0  0  0  0  0  0
   -1.2520    0.6640   -0.7820 C   0  0  0  0  0  0  0  0  0  0  0  0
   -1.5170    0.6530   -2.1220 N   0  0  0  0  0  0  0  0  0  0  0  0
   -2.6660    0.1190   -2.5630 C   0  0  0  0  0  0  0  0  0  0  0  0
   -2.9760    0.0750   -3.7810 O   0  0  0  0  0  0  0  0  0  0  0  0
   -3.5520   -0.4030   -1.6960 N   0  0  0  0  0  0  0  0  0  0  0  0
   -3.3160   -0.4060   -0.3630 C   0  0  0  0  0  0  0  0  0  0  0  0
   -4.3260   -0.9930    0.5510 C   0  0  0  0  0  0  0  0  0  0  0  0
   -2.1520    0.1330    0.1120 C   0  0  0  0  0  0  0  0  0  0  0  0
   -1.8890    0.1380    1.5080 N   0  0  0  0  0  0  0  0  0  0  0  0
  1  2  2  0
  2  3  1  0
  3  4  2  0
  3  9  1  0
  4  5  1  0
  5  6  1  0
  6  7  1  0
  7  8  1  0
  8  9  1  0
  9 10  2  3
 10 11  1  0
 11 12  2  0
 11 18  1  0
 12 13  1  0
 13 14  2  0
 13 15  1  0
 15 16  1  0
 16 17  1  0
 16 18  2  0
 18 19  1  0
M  END
