
     RDKit          3D

 31 34  0  0  0  0  0  0  0  0999 V2000
    5.4210    2.7730   -0.4330 C   0  0  0  0  0  0  0  0  0  0  0  0
    5.0390    1.9500    0.6260 O   0  0  0  0  0  0  0  0  0  0  0  0
    4.0100    1.0250    0.5660 C   0  0  0  0  0  0  0  0  0  0  0  0
    3.2460    0.8090   -0.5390 C   0  0  0  0  0  0  0  0  0  0  0  0
    2.2120   -0.1240   -0.5920 C   0  0  0  0  0  0  0  0  0  0  0  0
    1.4700   -0.2980   -1.7480 O   0  0  0  0  0  0  0  0  0  0  0  0
    0.3800   -1.1520   -1.7890 C   0  0  0  0  0  0  0  0  0  0  0  0
    0.3580   -2.2330   -2.6250 C   0  0  0  0  0  0  0  0  0  0  0  0
   -0.6890   -3.1140   -2.7120 C   0  0  0  0  0  0  0  0  0  0  0  0
   -0.6980   -4.1800   -3.5440 F   0  0  0  0  0  0  0  0  0  0  0  0
   -1.8090   -2.9220   -1.9150 C   0  0  0  0  0  0  0  0  0  0  0  0
   -2.8320   -3.7090   -1.9390 O   0  0  0  0  0  0  0  0  0  0  0  0
   -3.8590   -3.4830   -1.1650 C   0  0  0  0  0  0  0  0  0  0  0  0
   -4.8910   -4.2840   -1.1960 N   0  0  0  0  0  0  0  0  0  0  0  0
   -3.9290   -2.4540   -0.3150 N   0  0  0  0  0  0  0  0  0  0  0  0
   -5.1260   -2.2760    0.5220 C   0  0  0  0  0  0  0  0  0  0  0  0
   -2.8980   -1.5910   -0.2360 C   0  0  0  0  0  0  0  0  0  0  0  0
   -2.9770   -0.6190    0.5780 O   0  0  0  0  0  0  0  0  0  0  0  0
   -1.8090   -1.8210   -1.0510 C   0  0  0  0  0  0  0  0  0  0  0  0
   -0.7480   -0.9520   -0.9830 C   0  0  0  0  0  0  0  0  0  0  0  0
   -0.7720    0.1180   -0.1330 O   0  0  0  0  0  0  0  0  0  0  0  0
   -1.2260    1.3670   -0.5710 C   0  0  0  0  0  0  0  0  0  0  0  0
   -1.1920    2.3970    0.5050 C   0  0  0  0  0  0  0  0  0  0  0  0
   -2.2130    3.0860    0.9900 C   0  0  0  0  0  0  0  0  0  0  0  0
   -1.7570    4.0170    2.0580 C   0  0  0  0  0  0  0  0  0  0  0  0
   -0.3400    3.7480    2.0980 N   0  0  0  0  0  0  0  0  0  0  0  0
   -0.0140    2.8450    1.2350 C   0  0  0  0  0  0  0  0  0  0  0  0
    1.9900   -0.8410    0.5610 C   0  0  0  0  0  0  0  0  0  0  0  0
    2.7470   -0.6560    1.7210 C   0  0  0  0  0  0  0  0  0  0  0  0
    3.7550    0.2790    1.7150 C   0  0  0  0  0  0  0  0  0  0  0  0
    4.5470    0.4950    2.8780 N   0  0  0  0  0  0  0  0  0  0  0  0
  1  2  1  0
  2  3  1  0
  3  4  2  0
  3 30  1  0
  4  5  1  0
  5  6  1  0
  5 28  2  0
  6  7  1  0
  7  8  2  0
  7 20  1  0
  8  9  1  0
  9 10  1  0
  9 11  2  0
 11 12  1  0
 11 19  1  0
 12 13  1  0
 13 14  2  0
 13 15  1  0
 15 16  1  0
 15 17  1  0
 17 18  2  0
 17 19  1  0
 19 20  2  0
 20 21  1  0
 21 22  1  0
 22 23  1  0
 23 24  2  0
 23 27  1  0
 24 25  1  0
 25 26  1  0
 26 27  2  0
 28 29  1  0
 29 30  2  0
 30 31  1  0
M  END
