
     RDKit          3D

 29 30  0  0  0  0  0  0  0  0999 V2000
    6.5770   -2.4750    2.4690 C   0  0  0  0  0  0  0  0  0  0  0  0
    5.4260   -2.0090    1.6300 C   0  0  0  0  0  0  0  0  0  0  0  0
    4.2300   -2.0460    2.1380 C   0  0  0  0  0  0  0  0  0  0  0  0
    3.0240   -1.6340    1.4630 C   0  0  0  0  0  0  0  0  0  0  0  0
    1.9000   -1.7210    2.0740 O   0  0  0  0  0  0  0  0  0  0  0  0
    2.9420   -1.1250    0.1510 N   0  0  0  0  0  0  0  0  0  0  0  0
    1.6910   -0.7320   -0.4620 C   0  0  0  0  0  0  0  0  0  0  0  0
    0.6660   -0.8750    0.2560 O   0  0  0  0  0  0  0  0  0  0  0  0
    1.6840   -0.2110   -1.8300 C   0  0  0  0  0  0  0  0  0  0  0  0
    0.2890    0.1740   -2.2260 C   0  0  0  0  0  0  0  0  0  0  0  0
   -0.2040    1.2120   -1.3500 N   0  0  0  0  0  0  0  0  0  0  0  0
   -1.6290    0.8670   -1.0840 C   0  0  2  0  0  0  0  0  0  0  0  0
   -2.3030    1.2820   -2.3800 C   0  0  0  0  0  0  0  0  0  0  0  0
   -2.0920    1.5610    0.1140 C   0  0  1  0  0  0  0  0  0  0  0  0
   -2.1240    2.9740    0.0260 O   0  0  0  0  0  0  0  0  0  0  0  0
   -3.1570    1.0820    0.9800 C   0  0  0  0  0  0  0  0  0  0  0  0
   -4.5220    0.8260    0.5090 C   0  0  1  0  0  0  0  0  0  0  0  0
   -4.8130   -0.1970   -0.4960 C   0  0  0  0  0  0  0  0  0  0  0  0
   -6.1440    0.2050   -1.1670 C   0  0  0  0  0  0  0  0  0  0  0  0
   -7.0520    0.8110   -0.1110 C   0  0  0  0  0  0  0  0  0  0  0  0
   -6.7910    0.2630    1.2670 C   0  0  1  0  0  0  0  0  0  0  0  0
   -7.2260   -1.1040    1.3270 N   0  0  0  0  0  0  0  0  0  0  0  0
   -5.3740    0.4620    1.7450 C   0  0  0  0  0  0  0  0  0  0  0  0
    5.7040   -1.5700    0.3750 O   0  0  0  0  0  0  0  0  0  0  0  0
    6.9270   -1.0680   -0.0830 C   0  0  2  0  0  0  0  0  0  0  0  0
    7.3060    0.1520    0.7160 C   0  0  0  0  0  0  0  0  0  0  0  0
    7.4660    1.2120   -0.3500 C   0  0  0  0  0  0  0  0  0  0  0  0
    7.6770    0.5000   -1.5350 O   0  0  0  0  0  0  0  0  0  0  0  0
    6.7330   -0.5190   -1.4710 C   0  0  0  0  0  0  0  0  0  0  0  0
  1  2  1  0
  2  3  2  3
  2 24  1  0
  3  4  1  0
  4  5  2  0
  4  6  1  0
  6  7  1  0
  7  8  2  0
  7  9  1  0
  9 10  1  0
 10 11  1  0
 11 12  1  0
 12 13  1  6
 12 14  1  0
 14 15  1  6
 14 16  1  0
 17 16  1  1
 17 18  1  0
 17 23  1  0
 18 19  1  0
 19 20  1  0
 20 21  1  0
 21 22  1  6
 21 23  1  0
 25 24  1  1
 25 26  1  0
 25 29  1  0
 26 27  1  0
 27 28  1  0
 28 29  1  0
M  CHG  2  11   1  22   1
M  END
