
     RDKit          3D

 29 30  0  0  0  0  0  0  0  0999 V2000
   -4.0170    3.1180    1.2030 C   0  0  0  0  0  0  0  0  0  0  0  0
   -3.9860    2.3630   -0.1110 C   0  0  2  0  0  0  0  0  0  0  0  0
   -3.7760    3.4180   -1.2000 C   0  0  0  0  0  0  0  0  0  0  0  0
   -5.3160    1.7400   -0.3580 C   0  0  0  0  0  0  0  0  0  0  0  0
   -5.5400    0.4330    0.3070 C   0  0  0  0  0  0  0  0  0  0  0  0
   -4.3110   -0.1760    0.9190 C   0  0  0  0  0  0  0  0  0  0  0  0
   -3.1830   -0.0180   -0.0430 C   0  0  2  0  0  0  0  0  0  0  0  0
   -1.9960   -0.8250    0.3380 C   0  0  0  0  0  0  0  0  0  0  0  0
   -1.9690   -1.5520    1.3630 O   0  0  0  0  0  0  0  0  0  0  0  0
   -0.8560   -0.7740   -0.4790 N   0  0  0  0  0  0  0  0  0  0  0  0
    0.3800   -1.5030   -0.2390 C   0  0  2  0  0  0  0  0  0  0  0  0
    1.0280   -1.1520    1.0440 C   0  0  0  0  0  0  0  0  0  0  0  0
    1.4200    0.2510    1.2790 C   0  0  0  0  0  0  0  0  0  0  0  0
    2.3710    0.8410    0.3980 N   0  0  0  0  0  0  0  0  0  0  0  0
    3.0380    1.9960    1.0200 C   0  0  0  0  0  0  0  0  0  0  0  0
    4.2830    2.2680    0.2410 C   0  0  2  0  0  0  0  0  0  0  0  0
    5.1470    1.1550    0.2580 O   0  0  0  0  0  0  0  0  0  0  0  0
    5.0190    3.4440    0.8740 C   0  0  0  0  0  0  0  0  0  0  0  0
    5.3630    3.1180    2.1840 O   0  0  0  0  0  0  0  0  0  0  0  0
    4.0360    2.6060   -1.1960 C   0  0  0  0  0  0  0  0  0  0  0  0
    5.2950    2.9050   -1.7660 O   0  0  0  0  0  0  0  0  0  0  0  0
    1.2330   -1.5450   -1.4540 C   0  0  0  0  0  0  0  0  0  0  0  0
    1.9150   -2.9110   -1.2780 C   0  0  0  0  0  0  0  0  0  0  0  0
    0.7450   -3.7310   -1.0350 N   0  0  1  0  0  0  0  0  0  0  0  0
    1.1090   -5.0570   -0.5820 C   0  0  0  0  0  0  0  0  0  0  0  0
   -0.1400   -5.8050   -0.1880 C   0  0  0  0  0  0  0  0  0  0  0  0
    0.2510   -7.0780    0.2440 O   0  0  0  0  0  0  0  0  0  0  0  0
   -0.0380   -2.9920   -0.1020 C   0  0  0  0  0  0  0  0  0  0  0  0
   -2.8260    1.4300   -0.1760 C   0  0  0  0  0  0  0  0  0  0  0  0
  2  1  1  1
  2  3  1  0
  2  4  1  0
  2 29  1  0
  4  5  1  0
  5  6  1  0
  6  7  1  0
  7  8  1  1
  7 29  1  0
  8  9  2  0
  8 10  1  0
 10 11  1  0
 11 12  1  1
 11 22  1  0
 11 28  1  0
 12 13  1  0
 13 14  1  0
 14 15  1  0
 15 16  1  0
 16 17  1  6
 16 18  1  0
 16 20  1  0
 18 19  1  0
 20 21  1  0
 22 23  1  0
 23 24  1  0
 24 25  1  1
 24 28  1  0
 25 26  1  0
 26 27  1  0
M  CHG  2  14   1  24   1
M  END
