
     RDKit          3D

 34 38  0  0  0  0  0  0  0  0999 V2000
  -11.4700   -0.2050   -0.3780 C   0  0  0  0  0  0  0  0  0  0  0  0
  -10.0680   -0.6730   -0.4900 C   0  0  0  0  0  0  0  0  0  0  0  0
   -9.8220   -1.9800   -0.8540 C   0  0  0  0  0  0  0  0  0  0  0  0
   -8.5500   -2.4570   -0.9700 C   0  0  0  0  0  0  0  0  0  0  0  0
   -7.5040   -1.6120   -0.7180 C   0  0  0  0  0  0  0  0  0  0  0  0
   -7.7230   -0.3060   -0.3540 C   0  0  0  0  0  0  0  0  0  0  0  0
   -6.6060    0.5730   -0.0920 C   0  0  0  0  0  0  0  0  0  0  0  0
   -5.3080    0.2390   -0.1670 N   0  0  0  0  0  0  0  0  0  0  0  0
   -4.5530    1.3040    0.1420 C   0  0  0  0  0  0  0  0  0  0  0  0
   -3.1000    1.3940    0.1880 C   0  0  0  0  0  0  0  0  0  0  0  0
   -2.2940    0.3250   -0.1020 C   0  0  0  0  0  0  0  0  0  0  0  0
   -0.9080    0.4440   -0.0490 C   0  0  0  0  0  0  0  0  0  0  0  0
   -0.2720    1.5990    0.2850 C   0  0  0  0  0  0  0  0  0  0  0  0
    1.1300    1.7960    0.3670 N   0  0  0  0  0  0  0  0  0  0  0  0
    2.1370    0.8350    0.2050 C   0  0  0  0  0  0  0  0  0  0  0  0
    1.8420   -0.3500   -0.0400 O   0  0  0  0  0  0  0  0  0  0  0  0
    3.5680    1.1590    0.3110 C   0  0  0  0  0  0  0  0  0  0  0  0
    4.4980    0.2340    0.1540 C   0  0  0  0  0  0  0  0  0  0  0  0
    5.9180    0.5370    0.2550 C   0  0  0  0  0  0  0  0  0  0  0  0
    6.8610   -0.3740    0.1070 C   0  0  0  0  0  0  0  0  0  0  0  0
    6.5160   -1.7430   -0.1700 N   0  0  0  0  0  0  0  0  0  0  0  0
    7.6090   -2.6530   -0.3030 C   0  0  0  0  0  0  0  0  0  0  0  0
    7.3230   -3.8610   -0.5440 O   0  0  0  0  0  0  0  0  0  0  0  0
    9.0270   -2.2950   -0.1820 C   0  0  0  0  0  0  0  0  0  0  0  0
    9.2640   -0.8670    0.1040 C   0  0  0  0  0  0  0  0  0  0  0  0
    8.2540    0.0160    0.2360 C   0  0  0  0  0  0  0  0  0  0  0  0
    8.5560    1.4350    0.5380 C   0  0  0  0  0  0  0  0  0  0  0  0
    7.5810    2.2530    0.0480 O   0  0  0  0  0  0  0  0  0  0  0  0
    6.3070    1.9520    0.5150 C   0  0  0  0  0  0  0  0  0  0  0  0
   -1.1070    2.6910    0.5800 C   0  0  0  0  0  0  0  0  0  0  0  0
   -2.4720    2.5800    0.5300 C   0  0  0  0  0  0  0  0  0  0  0  0
   -5.4170    2.2990    0.4100 N   0  0  0  0  0  0  0  0  0  0  0  0
   -6.6350    1.8420    0.2650 O   0  0  0  0  0  0  0  0  0  0  0  0
   -9.0160    0.1210   -0.2520 N   0  0  0  0  0  0  0  0  0  0  0  0
  1  2  1  0
  2  3  2  0
  2 34  1  0
  3  4  1  0
  4  5  2  0
  5  6  1  0
  6  7  1  0
  6 34  2  0
  7  8  2  0
  7 33  1  0
  8  9  1  0
  9 10  1  0
  9 32  2  0
 10 11  2  0
 10 31  1  0
 11 12  1  0
 12 13  2  0
 13 14  1  0
 13 30  1  0
 14 15  1  0
 15 16  2  0
 15 17  1  0
 17 18  2  3
 18 19  1  0
 19 20  2  0
 19 29  1  0
 20 21  1  0
 20 26  1  0
 21 22  1  0
 22 23  2  0
 22 24  1  0
 24 25  1  0
 25 26  2  0
 26 27  1  0
 27 28  1  0
 28 29  1  0
 30 31  2  0
 32 33  1  0
M  END
