
     RDKit          3D

 34 35  0  0  0  0  0  0  0  0999 V2000
    6.2440    1.8880   -3.0800 O   0  0  0  0  0  0  0  0  0  0  0  0
    5.6140    0.8910   -2.6580 C   0  0  0  0  0  0  0  0  0  0  0  0
    4.2480    0.9470   -2.5170 O   0  0  0  0  0  0  0  0  0  0  0  0
    6.3810   -0.3370   -2.3210 C   0  0  0  0  0  0  0  0  0  0  0  0
    5.4230   -1.4050   -1.8470 C   0  0  0  0  0  0  0  0  0  0  0  0
    4.7340   -0.9050   -0.6810 N   0  0  0  0  0  0  0  0  0  0  0  0
    5.3320   -0.5270    0.5370 C   0  0  0  0  0  0  0  0  0  0  0  0
    6.5830   -0.6260    0.6460 O   0  0  0  0  0  0  0  0  0  0  0  0
    4.5820   -0.0140    1.7140 C   0  0  1  0  0  0  0  0  0  0  0  0
    5.0660    1.3600    2.1360 C   0  0  0  0  0  0  0  0  0  0  0  0
    3.8290    2.2260    1.9250 C   0  0  0  0  0  0  0  0  0  0  0  0
    2.7370    1.2240    2.3230 C   0  0  0  0  0  0  0  0  0  0  0  0
    3.1740    0.0700    1.5250 N   0  0  0  0  0  0  0  0  0  0  0  0
    2.3230   -1.3180    2.0730 S   0  0  1  0  0  0  0  0  0  0  0  0
    2.6990   -2.4920    1.2300 O   0  0  0  0  0  0  0  0  0  0  0  0
    2.5260   -1.5870    3.5210 O   0  0  0  0  0  0  0  0  0  0  0  0
    0.6000   -1.0090    1.7980 C   0  0  0  0  0  0  0  0  0  0  0  0
    0.0660   -1.3530    0.5770 C   0  0  0  0  0  0  0  0  0  0  0  0
   -1.2970   -1.1110    0.3600 C   0  0  0  0  0  0  0  0  0  0  0  0
   -2.0940   -0.5470    1.3260 C   0  0  0  0  0  0  0  0  0  0  0  0
   -3.5230   -0.3010    1.0670 C   0  0  0  0  0  0  0  0  0  0  0  0
   -4.3010   -0.0180    2.0390 O   0  0  0  0  0  0  0  0  0  0  0  0
   -4.0970   -0.3590   -0.2200 N   0  0  0  0  0  0  0  0  0  0  0  0
   -5.5470   -0.0980   -0.3890 C   0  0  1  0  0  0  0  0  0  0  0  0
   -5.7300    1.1470   -1.1810 C   0  0  0  0  0  0  0  0  0  0  0  0
   -7.1290    1.5440   -1.4560 C   0  0  0  0  0  0  0  0  0  0  0  0
   -7.9220    0.6460   -2.3140 C   0  0  0  0  0  0  0  0  0  0  0  0
   -9.1570    0.5030   -2.1570 O   0  0  0  0  0  0  0  0  0  0  0  0
   -7.2990   -0.0770   -3.3470 O   0  0  0  0  0  0  0  0  0  0  0  0
   -6.1470   -1.2630   -1.0120 C   0  0  0  0  0  0  0  0  0  0  0  0
   -5.5180   -2.0450   -1.7940 O   0  0  0  0  0  0  0  0  0  0  0  0
   -7.4700   -1.5950   -0.7750 O   0  0  0  0  0  0  0  0  0  0  0  0
   -1.5320   -0.2110    2.5450 C   0  0  0  0  0  0  0  0  0  0  0  0
   -0.1830   -0.4440    2.7760 C   0  0  0  0  0  0  0  0  0  0  0  0
  1  2  2  0
  2  3  1  0
  2  4  1  0
  4  5  1  0
  5  6  1  0
  6  7  1  0
  7  8  2  0
  9  7  1  6
  9 10  1  0
  9 13  1  0
 10 11  1  0
 11 12  1  0
 12 13  1  0
 14 13  1  6
 14 15  2  0
 14 16  2  0
 14 17  1  0
 17 18  2  0
 17 34  1  0
 18 19  1  0
 19 20  2  0
 20 21  1  0
 20 33  1  0
 21 22  2  0
 21 23  1  0
 23 24  1  0
 24 25  1  6
 24 30  1  0
 25 26  1  0
 26 27  1  0
 27 28  2  0
 27 29  1  0
 30 31  2  0
 30 32  1  0
 33 34  2  0
M  END
