
     RDKit          3D

 34 38  0  0  0  0  0  0  0  0999 V2000
    7.9510   -1.7420    0.5980 C   0  0  0  0  0  0  0  0  0  0  0  0
    6.9880   -0.6630    0.5650 N   0  0  0  0  0  0  0  0  0  0  0  0
    7.2110    0.7630    0.3210 C   0  0  0  0  0  0  0  0  0  0  0  0
    6.0080    1.0920   -0.5630 C   0  0  0  0  0  0  0  0  0  0  0  0
    4.8750    0.2460   -0.0450 C   0  0  2  0  0  0  0  0  0  0  0  0
    4.2250   -0.4270   -1.2430 C   0  0  0  0  0  0  0  0  0  0  0  0
    3.0470   -1.2420   -0.7920 C   0  0  0  0  0  0  0  0  0  0  0  0
    2.0700   -0.3560   -0.2180 N   0  0  0  0  0  0  0  0  0  0  0  0
    0.6720   -0.6130   -0.4810 C   0  0  0  0  0  0  0  0  0  0  0  0
    0.3190   -1.7440   -1.0900 N   0  0  0  0  0  0  0  0  0  0  0  0
   -0.9540   -2.0760   -1.3630 C   0  0  0  0  0  0  0  0  0  0  0  0
   -1.9700   -1.2080   -1.0000 C   0  0  0  0  0  0  0  0  0  0  0  0
   -3.3760   -1.5110   -1.1670 C   0  0  0  0  0  0  0  0  0  0  0  0
   -3.9380   -1.5430   -2.2670 O   0  0  0  0  0  0  0  0  0  0  0  0
   -4.1510   -1.7930    0.0020 N   0  0  0  0  0  0  0  0  0  0  0  0
   -5.5490   -2.0890   -0.1010 C   0  0  0  0  0  0  0  0  0  0  0  0
   -6.5050   -1.4980    0.5750 C   0  0  0  0  0  0  0  0  0  0  0  0
   -7.7970   -2.0880    0.1820 C   0  0  0  0  0  0  0  0  0  0  0  0
   -7.4150   -3.0960   -0.8440 C   0  0  0  0  0  0  0  0  0  0  0  0
   -6.1060   -3.0820   -0.9900 C   0  0  0  0  0  0  0  0  0  0  0  0
   -1.5960   -0.0410   -0.3760 C   0  0  0  0  0  0  0  0  0  0  0  0
   -2.6190    0.9460   -0.0430 C   0  0  0  0  0  0  0  0  0  0  0  0
   -3.9560    0.7320   -0.3080 O   0  0  0  0  0  0  0  0  0  0  0  0
   -2.2740    2.0810    0.5230 C   0  0  0  0  0  0  0  0  0  0  0  0
   -3.3230    3.0420    0.8410 C   0  0  0  0  0  0  0  0  0  0  0  0
   -3.2180    4.3840    0.5100 C   0  0  0  0  0  0  0  0  0  0  0  0
   -4.3480    4.9860    0.9420 C   0  0  0  0  0  0  0  0  0  0  0  0
   -5.1250    4.0140    1.5300 C   0  0  0  0  0  0  0  0  0  0  0  0
   -4.4820    2.8580    1.4540 O   0  0  0  0  0  0  0  0  0  0  0  0
   -0.2810    0.2520   -0.1180 N   0  0  0  0  0  0  0  0  0  0  0  0
    2.4710    0.7400    0.6030 C   0  0  0  0  0  0  0  0  0  0  0  0
    3.8940    1.0630    0.7300 C   0  0  0  0  0  0  0  0  0  0  0  0
    5.5650   -0.7730    0.7780 C   0  0  0  0  0  0  0  0  0  0  0  0
    5.0470   -1.6040    1.5410 O   0  0  0  0  0  0  0  0  0  0  0  0
  1  2  1  0
  2  3  1  0
  2 33  1  0
  3  4  1  0
  5  4  1  6
  5  6  1  0
  5 32  1  0
  5 33  1  0
  6  7  1  0
  7  8  1  0
  8  9  1  0
  8 31  1  0
  9 10  2  0
  9 30  1  0
 10 11  1  0
 11 12  2  0
 12 13  1  0
 12 21  1  0
 13 14  2  0
 13 15  1  0
 15 16  1  0
 16 17  2  0
 16 20  1  0
 17 18  1  0
 18 19  1  0
 19 20  2  0
 21 22  1  0
 21 30  2  0
 22 23  1  0
 22 24  2  3
 24 25  1  0
 25 26  2  0
 25 29  1  0
 26 27  1  0
 27 28  2  0
 28 29  1  0
 31 32  1  0
 33 34  2  0
M  END
