
     RDKit          3D

 34 38  0  0  0  0  0  0  0  0999 V2000
   -6.6710   -3.5520   -0.9740 C   0  0  0  0  0  0  0  0  0  0  0  0
   -5.5860   -2.5920   -0.5950 C   0  0  0  0  0  0  0  0  0  0  0  0
   -4.3420   -3.0330   -0.2030 C   0  0  0  0  0  0  0  0  0  0  0  0
   -3.3610   -2.1230    0.1380 C   0  0  0  0  0  0  0  0  0  0  0  0
   -3.6490   -0.7580    0.0790 C   0  0  0  0  0  0  0  0  0  0  0  0
   -2.5530    0.1200    0.3660 C   0  0  0  0  0  0  0  0  0  0  0  0
   -1.6820   -0.1450    1.2600 O   0  0  0  0  0  0  0  0  0  0  0  0
   -2.3600    1.3330   -0.3280 N   0  0  0  0  0  0  0  0  0  0  0  0
   -1.2530    2.2050    0.0010 C   0  0  0  0  0  0  0  0  0  0  0  0
   -1.0230    3.3800   -0.6660 C   0  0  0  0  0  0  0  0  0  0  0  0
    0.0220    4.2280   -0.3560 C   0  0  0  0  0  0  0  0  0  0  0  0
    0.8650    3.8680    0.6710 C   0  0  0  0  0  0  0  0  0  0  0  0
    0.6180    2.6820    1.3290 C   0  0  0  0  0  0  0  0  0  0  0  0
    1.5370    2.3260    2.4370 C   0  0  0  0  0  0  0  0  0  0  0  0
    2.4250    1.3500    2.0070 O   0  0  0  0  0  0  0  0  0  0  0  0
    3.3240    1.4220    0.9780 C   0  0  0  0  0  0  0  0  0  0  0  0
    3.3840    2.4710    0.3170 O   0  0  0  0  0  0  0  0  0  0  0  0
    4.2220    0.3250    0.6150 C   0  0  0  0  0  0  0  0  0  0  0  0
    4.2360   -0.8570    1.3280 C   0  0  0  0  0  0  0  0  0  0  0  0
    5.0790   -1.8560    0.9840 N   0  0  0  0  0  0  0  0  0  0  0  0
    5.9340   -1.7610   -0.0500 C   0  0  0  0  0  0  0  0  0  0  0  0
    6.7750   -2.8170   -0.3560 C   0  0  0  0  0  0  0  0  0  0  0  0
    7.6290   -2.6590   -1.4280 C   0  0  0  0  0  0  0  0  0  0  0  0
    7.6390   -1.4880   -2.1620 C   0  0  0  0  0  0  0  0  0  0  0  0
    6.7640   -0.4850   -1.7840 C   0  0  0  0  0  0  0  0  0  0  0  0
    5.9280   -0.6120   -0.7530 N   0  0  0  0  0  0  0  0  0  0  0  0
    5.1000    0.4120   -0.4410 C   0  0  0  0  0  0  0  0  0  0  0  0
    5.1060    1.4900   -1.1140 O   0  0  0  0  0  0  0  0  0  0  0  0
   -0.4240    1.8660    0.9980 N   0  0  0  0  0  0  0  0  0  0  0  0
   -4.8900   -0.3140   -0.3100 C   0  0  0  0  0  0  0  0  0  0  0  0
   -5.4650    0.9010   -0.4350 N   0  0  0  0  0  0  0  0  0  0  0  0
   -6.7500    0.7780   -0.8400 C   0  0  0  0  0  0  0  0  0  0  0  0
   -7.0150   -0.5580   -0.9790 C   0  0  0  0  0  0  0  0  0  0  0  0
   -5.8580   -1.2400   -0.6470 C   0  0  0  0  0  0  0  0  0  0  0  0
  1  2  1  0
  2  3  2  0
  2 34  1  0
  3  4  1  0
  4  5  2  0
  5  6  1  0
  5 30  1  0
  6  7  2  0
  6  8  1  0
  8  9  1  0
  9 10  2  0
  9 29  1  0
 10 11  1  0
 11 12  2  0
 12 13  1  0
 13 14  1  0
 13 29  2  0
 14 15  1  0
 15 16  1  0
 16 17  2  0
 16 18  1  0
 18 19  2  0
 18 27  1  0
 19 20  1  0
 20 21  2  0
 21 22  1  0
 21 26  1  0
 22 23  2  0
 23 24  1  0
 24 25  2  0
 25 26  1  0
 26 27  1  0
 27 28  2  0
 30 31  1  0
 30 34  2  0
 31 32  1  0
 32 33  2  0
 33 34  1  0
M  END
