
     RDKit          3D

 20 20  0  0  0  0  0  0  0  0999 V2000
   -5.0950    0.6060   -0.1470 C   0  0  0  0  0  0  0  0  0  0  0  0
   -3.8910    1.3120   -0.0260 O   0  0  0  0  0  0  0  0  0  0  0  0
   -2.7960    0.4600   -0.0890 C   0  0  1  0  0  0  0  0  0  0  0  0
   -1.9430    0.9160   -1.0610 O   0  0  0  0  0  0  0  0  0  0  0  0
   -0.8980    0.0750   -1.3580 C   0  0  2  0  0  0  0  0  0  0  0  0
   -1.4470   -1.0150   -2.2740 C   0  0  0  0  0  0  0  0  0  0  0  0
   -0.1700   -0.4890   -0.2030 C   0  0  1  0  0  0  0  0  0  0  0  0
    1.0580    0.2040    0.1280 N   0  0  0  0  0  0  0  0  0  0  0  0
    2.3400   -0.3900    0.0780 C   0  0  0  0  0  0  0  0  0  0  0  0
    2.4410   -1.5870   -0.2710 O   0  0  0  0  0  0  0  0  0  0  0  0
    3.5200    0.4110    0.4360 C   0  0  2  0  0  0  0  0  0  0  0  0
    3.0970    1.6820    0.8350 O   0  0  0  0  0  0  0  0  0  0  0  0
    4.6220    0.4530   -0.5480 C   0  0  0  0  0  0  0  0  0  0  0  0
    5.1930   -0.9110   -0.8350 C   0  0  0  0  0  0  0  0  0  0  0  0
    5.6700   -1.4390    0.3790 O   0  0  0  0  0  0  0  0  0  0  0  0
   -0.9710   -0.6210    1.0610 C   0  0  2  0  0  0  0  0  0  0  0  0
   -1.6850   -1.8220    1.0890 O   0  0  0  0  0  0  0  0  0  0  0  0
   -1.9980    0.4900    1.2170 C   0  0  2  0  0  0  0  0  0  0  0  0
   -2.8320    0.1080    2.2690 O   0  0  0  0  0  0  0  0  0  0  0  0
   -2.8700    1.0660    3.2730 C   0  0  0  0  0  0  0  0  0  0  0  0
  1  2  1  0
  3  2  1  1
  3  4  1  0
  3 18  1  0
  4  5  1  0
  5  6  1  1
  5  7  1  0
  7  8  1  1
  7 16  1  0
  8  9  1  0
  9 10  2  0
  9 11  1  0
 11 12  1  6
 11 13  1  0
 13 14  1  0
 14 15  1  0
 16 17  1  6
 16 18  1  0
 18 19  1  1
 19 20  1  0
M  END
