
     RDKit          3D

 21 23  0  0  0  0  0  0  0  0999 V2000
   -3.3530   -0.1410   -2.2410 C   0  0  0  0  0  0  0  0  0  0  0  0
   -3.6440   -0.5490   -0.8780 C   0  0  1  0  0  0  0  0  0  0  0  0
   -3.5190   -2.0140   -0.5710 C   0  0  0  0  0  0  0  0  0  0  0  0
   -3.3570   -1.9650    0.9430 C   0  0  0  0  0  0  0  0  0  0  0  0
   -3.2590   -0.6460    1.3010 O   0  0  0  0  0  0  0  0  0  0  0  0
   -2.7090    0.0430    0.1890 C   0  0  2  0  0  0  0  0  0  0  0  0
   -3.0240    1.4870    0.2640 C   0  0  0  0  0  0  0  0  0  0  0  0
   -1.9230    2.3890    0.6570 C   0  0  0  0  0  0  0  0  0  0  0  0
   -0.5610    1.9440    0.2390 C   0  0  0  0  0  0  0  0  0  0  0  0
   -0.2430    0.4980    0.5360 C   0  0  2  0  0  0  0  0  0  0  0  0
   -0.2880    0.3320    2.0290 C   0  0  0  0  0  0  0  0  0  0  0  0
    1.1280    0.1730   -0.0440 C   0  0  2  0  0  0  0  0  0  0  0  0
    0.9720    0.4060   -1.4390 O   0  0  0  0  0  0  0  0  0  0  0  0
    1.5100   -1.2540    0.0860 C   0  0  0  0  0  0  0  0  0  0  0  0
    2.7090   -1.4410    0.9920 C   0  0  0  0  0  0  0  0  0  0  0  0
    3.9310   -1.4500    0.1220 C   0  0  0  0  0  0  0  0  0  0  0  0
    4.1620   -0.0660   -0.4000 C   0  0  1  0  0  0  0  0  0  0  0  0
    3.9850    0.0730   -1.8850 C   0  0  0  0  0  0  0  0  0  0  0  0
    3.5110    1.0100    0.3970 C   0  0  0  0  0  0  0  0  0  0  0  0
    2.0900    1.1860    0.4340 C   0  0  0  0  0  0  0  0  0  0  0  0
   -1.3180   -0.3520   -0.0550 C   0  0  0  0  0  0  0  0  0  0  0  0
  2  1  1  6
  2  3  1  0
  2  6  1  0
  3  4  1  0
  4  5  1  0
  5  6  1  0
  6  7  1  1
  6 21  1  0
  7  8  1  0
  8  9  1  0
  9 10  1  0
 10 11  1  1
 10 12  1  0
 10 21  1  0
 12 13  1  6
 12 14  1  0
 12 20  1  0
 14 15  1  0
 15 16  1  0
 16 17  1  0
 17 18  1  6
 17 19  1  0
 19 20  1  0
M  END
