
     RDKit          3D

 21 23  0  0  0  0  0  0  0  0999 V2000
   -4.3900    1.6070    0.3560 C   0  0  0  0  0  0  0  0  0  0  0  0
   -3.3720    0.4510    0.4950 C   0  0  1  0  0  0  0  0  0  0  0  0
   -3.9790   -0.7080   -0.2190 C   0  0  0  0  0  0  0  0  0  0  0  0
   -2.9020   -1.6930   -0.6520 C   0  0  0  0  0  0  0  0  0  0  0  0
   -1.6270   -1.3720    0.1850 C   0  0  1  0  0  0  0  0  0  0  0  0
   -0.9830   -2.6580    0.3680 C   0  0  0  0  0  0  0  0  0  0  0  0
   -1.0560   -0.1670   -0.3890 C   0  0  2  0  0  0  0  0  0  0  0  0
   -1.1630   -0.2580   -1.8220 O   0  0  0  0  0  0  0  0  0  0  0  0
    0.3940    0.1610   -0.1980 C   0  0  2  0  0  0  0  0  0  0  0  0
    0.7740    1.4630   -0.8230 C   0  0  0  0  0  0  0  0  0  0  0  0
    0.2200    2.7560   -0.4510 C   0  0  0  0  0  0  0  0  0  0  0  0
    0.4420    3.1620    0.8850 O   0  0  0  0  0  0  0  0  0  0  0  0
    1.1600   -0.8320   -1.1030 C   0  0  0  0  0  0  0  0  0  0  0  0
    2.5840   -0.5490   -1.3410 C   0  0  0  0  0  0  0  0  0  0  0  0
    3.5490   -0.9440   -0.2540 C   0  0  1  0  0  0  0  0  0  0  0  0
    4.1980    0.2420    0.4130 C   0  0  0  0  0  0  0  0  0  0  0  0
    3.2880    0.6030    1.5360 C   0  0  0  0  0  0  0  0  0  0  0  0
    2.1670   -0.4470    1.5650 C   0  0  2  0  0  0  0  0  0  0  0  0
    2.8050   -1.5550    0.8720 C   0  0  0  0  0  0  0  0  0  0  0  0
    0.8610    0.0940    1.2100 C   0  0  0  0  0  0  0  0  0  0  0  0
   -2.0390    0.9220   -0.0610 C   0  0  0  0  0  0  0  0  0  0  0  0
  2  1  1  6
  2  3  1  0
  2 21  1  0
  3  4  1  0
  4  5  1  0
  5  6  1  6
  5  7  1  0
  7  8  1  6
  7  9  1  0
  7 21  1  0
  9 10  1  6
  9 13  1  0
  9 20  1  0
 10 11  1  0
 11 12  1  0
 13 14  1  0
 15 14  1  6
 15 16  1  0
 15 19  1  0
 16 17  1  0
 18 17  1  6
 18 19  1  0
 18 20  1  0
M  END
