
     RDKit          3D

 21 24  0  0  0  0  0  0  0  0999 V2000
   -3.6690   -2.4510    0.1100 O   0  0  0  0  0  0  0  0  0  0  0  0
   -3.5570   -1.1830   -0.5020 C   0  0  1  0  0  0  0  0  0  0  0  0
   -4.8090   -0.4260   -0.1300 C   0  0  0  0  0  0  0  0  0  0  0  0
   -4.6500    1.0140   -0.5470 C   0  0  0  0  0  0  0  0  0  0  0  0
   -3.5550    1.6100    0.3190 C   0  0  0  0  0  0  0  0  0  0  0  0
   -2.2730    0.9340   -0.0720 C   0  0  1  0  0  0  0  0  0  0  0  0
   -1.0930    1.3850    0.7860 C   0  0  0  0  0  0  0  0  0  0  0  0
    0.1840    0.9220    0.1120 C   0  0  1  0  0  0  0  0  0  0  0  0
    1.3480    1.3410    0.9400 C   0  0  0  0  0  0  0  0  0  0  0  0
    2.7020    0.9850    0.4010 C   0  0  2  0  0  0  0  0  0  0  0  0
    2.9550    1.5590   -0.9520 C   0  0  0  0  0  0  0  0  0  0  0  0
    4.3370    1.1820   -1.4190 C   0  0  0  0  0  0  0  0  0  0  0  0
    4.2600   -0.2270   -1.7040 O   0  0  0  0  0  0  0  0  0  0  0  0
    3.9100   -1.0020   -0.5680 C   0  0  0  0  0  0  0  0  0  0  0  0
    4.1880   -2.2420   -0.2890 C   0  0  0  0  0  0  0  0  0  0  0  0
    3.6070   -2.6140    1.0140 C   0  0  0  0  0  0  0  0  0  0  0  0
    2.9580   -1.3470    1.4190 C   0  0  0  0  0  0  0  0  0  0  0  0
    3.1220   -0.4040    0.5050 C   0  0  0  0  0  0  0  0  0  0  0  0
    0.1850   -0.5570   -0.0980 C   0  0  0  0  0  0  0  0  0  0  0  0
   -1.0950   -1.0570   -0.7300 C   0  0  0  0  0  0  0  0  0  0  0  0
   -2.3100   -0.5470    0.0270 C   0  0  2  0  0  0  0  0  0  0  0  0
  2  1  1  1
  2  3  1  0
  2 21  1  0
  3  4  1  0
  4  5  1  0
  6  5  1  1
  6  7  1  0
  6 21  1  0
  7  8  1  0
  8  9  1  1
  8 19  1  0
 10  9  1  6
 10 11  1  0
 10 18  1  0
 11 12  1  0
 12 13  1  0
 13 14  1  0
 14 15  2  0
 14 18  1  0
 15 16  1  0
 16 17  1  0
 17 18  2  0
 19 20  1  0
 21 20  1  6
M  END
