
     RDKit          3D

 20 23  0  0  0  0  0  0  0  0999 V2000
   -3.5850   -0.9270    0.0120 C   0  0  0  0  0  0  0  0  0  0  0  0
   -2.1080   -0.7390    0.2700 C   0  0  1  0  0  0  0  0  0  0  0  0
   -1.7950   -1.6500    1.4020 C   0  0  0  0  0  0  0  0  0  0  0  0
   -1.3430   -1.0490   -0.9980 C   0  0  1  0  0  0  0  0  0  0  0  0
   -2.1520   -0.3710   -2.1070 C   0  0  0  0  0  0  0  0  0  0  0  0
   -2.3590    1.0830   -1.8840 C   0  0  0  0  0  0  0  0  0  0  0  0
   -2.5610    1.5290   -0.4880 C   0  0  0  0  0  0  0  0  0  0  0  0
   -1.7100    0.6940    0.4850 C   0  0  1  0  0  0  0  0  0  0  0  0
   -1.8890    1.1480    1.8940 C   0  0  0  0  0  0  0  0  0  0  0  0
   -0.3120    0.8500   -0.0380 C   0  0  1  0  0  0  0  0  0  0  0  0
    0.7390    0.9780    1.0250 C   0  0  0  0  0  0  0  0  0  0  0  0
    2.0590    1.0650    0.2370 C   0  0  1  0  0  0  0  0  0  0  0  0
    3.1740    1.4050    1.2000 C   0  0  0  0  0  0  0  0  0  0  0  0
    3.4830    0.0630    1.8110 C   0  0  0  0  0  0  0  0  0  0  0  0
    3.3530   -0.8880    0.6430 C   0  0  0  0  0  0  0  0  0  0  0  0
    2.3310   -0.3030   -0.2920 C   0  0  2  0  0  0  0  0  0  0  0  0
    2.9740   -0.1540   -1.6750 C   0  0  0  0  0  0  0  0  0  0  0  0
    3.2260   -1.4220   -2.1650 O   0  0  0  0  0  0  0  0  0  0  0  0
    1.1130   -1.1630   -0.4490 C   0  0  0  0  0  0  0  0  0  0  0  0
   -0.0350   -0.3290   -0.9270 C   0  0  1  0  0  0  0  0  0  0  0  0
  2  1  1  6
  2  3  1  0
  2  4  1  0
  2  8  1  0
  4  5  1  6
  4 20  1  0
  5  6  1  0
  6  7  1  0
  7  8  1  0
  8  9  1  1
  8 10  1  0
 10 11  1  1
 10 20  1  0
 12 11  1  1
 12 13  1  0
 12 16  1  0
 13 14  1  0
 14 15  1  0
 15 16  1  0
 16 17  1  6
 16 19  1  0
 17 18  1  0
 20 19  1  1
M  END
