
     RDKit          3D

 21 23  0  0  0  0  0  0  0  0999 V2000
    4.1840   -0.1230    0.1410 C   0  0  0  0  0  0  0  0  0  0  0  0
    2.8920   -0.4180   -0.5710 C   0  0  1  0  0  0  0  0  0  0  0  0
    2.4610   -1.8160   -0.3680 C   0  0  0  0  0  0  0  0  0  0  0  0
    0.9790   -2.0280   -0.7090 C   0  0  0  0  0  0  0  0  0  0  0  0
    0.1650   -0.9720    0.0980 C   0  0  2  0  0  0  0  0  0  0  0  0
    0.7870   -1.1710    1.4660 C   0  0  0  0  0  0  0  0  0  0  0  0
   -1.2270   -1.4840    0.1320 C   0  0  1  0  0  0  0  0  0  0  0  0
   -1.3720   -2.8510   -0.5850 C   0  0  0  0  0  0  0  0  0  0  0  0
   -1.6770   -1.8560    1.5550 C   0  0  0  0  0  0  0  0  0  0  0  0
   -2.1110   -0.6860   -0.4730 O   0  0  0  0  0  0  0  0  0  0  0  0
   -3.0790   -0.0380    0.2110 C   0  0  0  0  0  0  0  0  0  0  0  0
   -2.7350    1.3780    0.5910 C   0  0  0  0  0  0  0  0  0  0  0  0
   -1.2600    1.6440    0.6360 C   0  0  2  0  0  0  0  0  0  0  0  0
   -1.1000    3.0550    1.1450 C   0  0  0  0  0  0  0  0  0  0  0  0
   -0.0070    3.5510    0.2810 C   0  0  0  0  0  0  0  0  0  0  0  0
    0.3310    2.6990   -0.6520 C   0  0  0  0  0  0  0  0  0  0  0  0
   -0.4800    1.4450   -0.5930 C   0  0  2  0  0  0  0  0  0  0  0  0
   -1.3280    1.5260   -1.8760 C   0  0  0  0  0  0  0  0  0  0  0  0
    0.4710    0.2940   -0.5980 C   0  0  2  0  0  0  0  0  0  0  0  0
    0.6150    0.0070   -1.9900 O   0  0  0  0  0  0  0  0  0  0  0  0
    1.8990    0.6560   -0.2250 C   0  0  0  0  0  0  0  0  0  0  0  0
  2  1  1  1
  2  3  1  0
  2 21  1  0
  3  4  1  0
  4  5  1  0
  5  6  1  1
  5  7  1  0
  5 19  1  0
  7  8  1  6
  7  9  1  0
  7 10  1  0
 10 11  1  0
 11 12  1  0
 13 12  1  6
 13 14  1  0
 13 17  1  0
 14 15  1  0
 15 16  2  0
 16 17  1  0
 17 18  1  6
 17 19  1  0
 19 20  1  6
 19 21  1  0
M  END
