
     RDKit          3D

 20 20  0  0  0  0  0  0  0  0999 V2000
   -2.6480    1.2900   -0.0880 C   0  0  0  0  0  0  0  0  0  0  0  0
   -2.2550   -0.1610   -0.2860 C   0  0  2  0  0  0  0  0  0  0  0  0
   -0.9280   -0.2960   -1.0110 C   0  0  2  0  0  0  0  0  0  0  0  0
   -0.9960    0.1870   -2.4210 C   0  0  0  0  0  0  0  0  0  0  0  0
   -0.6560   -1.6780   -1.0610 O   0  0  0  0  0  0  0  0  0  0  0  0
    0.1250    0.3510   -0.1780 C   0  0  1  0  0  0  0  0  0  0  0  0
    0.0530   -0.2340    1.1050 O   0  0  0  0  0  0  0  0  0  0  0  0
    1.5320    0.0500   -0.6820 C   0  0  0  0  0  0  0  0  0  0  0  0
    2.4090    0.6320    0.2240 O   0  0  0  0  0  0  0  0  0  0  0  0
    3.7310    0.4540   -0.0840 C   0  0  1  0  0  0  0  0  0  0  0  0
    4.3420    1.8520   -0.2520 C   0  0  0  0  0  0  0  0  0  0  0  0
    5.6780    1.7940   -0.5650 O   0  0  0  0  0  0  0  0  0  0  0  0
    4.4170   -0.1590    1.0750 C   0  0  0  0  0  0  0  0  0  0  0  0
    3.6970   -0.4620    2.2580 N   0  0  0  0  0  0  0  0  0  0  0  0
    5.6410   -0.4230    1.0440 O   0  0  0  0  0  0  0  0  0  0  0  0
   -3.3850   -0.8230   -1.0430 C   0  0  0  0  0  0  0  0  0  0  0  0
   -4.5710   -0.4610   -0.3740 O   0  0  0  0  0  0  0  0  0  0  0  0
   -4.5470   -1.0110    0.8870 C   0  0  0  0  0  0  0  0  0  0  0  0
   -3.2140   -1.5360    1.3070 C   0  0  0  0  0  0  0  0  0  0  0  0
   -2.1630   -0.7030    1.0070 O   0  0  0  0  0  0  0  0  0  0  0  0
  2  1  1  1
  2  3  1  0
  2 16  1  0
  2 20  1  0
  3  4  1  6
  3  5  1  0
  3  6  1  0
  6  7  1  1
  6  8  1  0
  8  9  1  0
  9 10  1  0
 10 11  1  1
 10 13  1  0
 11 12  1  0
 13 14  1  0
 13 15  2  0
 16 17  1  0
 17 18  1  0
 18 19  1  0
 19 20  1  0
M  END
