
     RDKit          3D

 10  9  0  0  0  0  0  0  0  0999 V2000
    0.9960    1.2920   -0.6050 C   0  0  0  0  0  0  0  0  0  0  0  0
    0.5360    0.0880    0.2330 C   0  0  2  0  0  0  0  0  0  0  0  0
    1.7270   -0.7880    0.3410 C   0  0  0  0  0  0  0  0  0  0  0  0
    2.8640   -0.3170    1.0550 N   0  0  0  0  0  0  0  0  0  0  0  0
    1.8130   -1.9360   -0.1560 O   0  0  0  0  0  0  0  0  0  0  0  0
   -0.5290   -0.5320   -0.4990 N   0  0  0  0  0  0  0  0  0  0  0  0
   -1.1540   -1.6270    0.1580 C   0  0  0  0  0  0  0  0  0  0  0  0
   -1.5170    0.4090   -0.9350 C   0  0  0  0  0  0  0  0  0  0  0  0
   -2.2950    0.9910    0.2010 C   0  0  0  0  0  0  0  0  0  0  0  0
   -2.1110    0.6950    1.3640 O   0  0  0  0  0  0  0  0  0  0  0  0
  2  1  1  6
  2  3  1  0
  2  6  1  0
  3  4  1  0
  3  5  2  0
  6  7  1  0
  6  8  1  0
  8  9  1  0
  9 10  2  0
M  END
