
     RDKit          3D

 21 22  0  0  0  0  0  0  0  0999 V2000
   -4.6030    1.8710    0.9690 C   0  0  0  0  0  0  0  0  0  0  0  0
   -3.2300    1.5190    0.5140 C   0  0  0  0  0  0  0  0  0  0  0  0
   -2.5400    2.4460   -0.2110 C   0  0  0  0  0  0  0  0  0  0  0  0
   -1.2790    2.1790   -0.6660 C   0  0  0  0  0  0  0  0  0  0  0  0
   -0.5750    3.1320   -1.4040 C   0  0  0  0  0  0  0  0  0  0  0  0
    0.6780    2.8180   -1.8320 C   0  0  0  0  0  0  0  0  0  0  0  0
    1.2330    1.5700   -1.5310 C   0  0  0  0  0  0  0  0  0  0  0  0
    2.5680    1.2900   -1.9880 C   0  0  0  0  0  0  0  0  0  0  0  0
    3.2440    0.2010   -1.8550 C   0  0  0  0  0  0  0  0  0  0  0  0
    2.8610   -1.0580   -1.2120 C   0  0  0  0  0  0  0  0  0  0  0  0
    3.7440   -1.3720   -0.0040 C   0  0  2  0  0  0  0  0  0  0  0  0
    3.2750   -2.6700    0.5820 C   0  0  0  0  0  0  0  0  0  0  0  0
    3.6830   -0.2460    1.0050 C   0  0  0  0  0  0  0  0  0  0  0  0
    0.5010    0.7240   -0.8280 N   0  0  0  0  0  0  0  0  0  0  0  0
   -0.7520    0.9710   -0.3700 C   0  0  0  0  0  0  0  0  0  0  0  0
   -1.4510   -0.0320    0.3920 C   0  0  0  0  0  0  0  0  0  0  0  0
   -0.6740   -1.2150    0.5650 C   0  0  0  0  0  0  0  0  0  0  0  0
   -1.0650   -2.3610    1.2330 N   0  0  0  0  0  0  0  0  0  0  0  0
   -2.6930    0.2350    0.8390 C   0  0  0  0  0  0  0  0  0  0  0  0
   -3.6280   -0.5450    1.6230 C   0  0  0  0  0  0  0  0  0  0  0  0
   -3.4500   -1.7600    2.0860 O   0  0  0  0  0  0  0  0  0  0  0  0
  1  2  1  0
  2  3  2  0
  2 19  1  0
  3  4  1  0
  4  5  2  0
  4 15  1  0
  5  6  1  0
  6  7  2  0
  7  8  1  0
  7 14  1  0
  8  9  2  3
  9 10  1  0
 10 11  1  0
 11 12  1  1
 11 13  1  0
 14 15  2  0
 15 16  1  0
 16 17  1  0
 16 19  2  0
 17 18  1  0
 19 20  1  0
 20 21  1  0
M  CHG  1  18   1
M  END
