
     RDKit          3D

 21 22  0  0  0  0  0  0  0  0999 V2000
    6.8960    0.4790   -0.3410 C   0  0  0  0  0  0  0  0  0  0  0  0
    5.5570    1.0030   -0.1080 N   0  0  0  0  0  0  0  0  0  0  0  0
    4.4080    0.1730   -0.1690 C   0  0  0  0  0  0  0  0  0  0  0  0
    4.4650   -1.1770   -0.4440 C   0  0  0  0  0  0  0  0  0  0  0  0
    3.3470   -1.9630   -0.5010 C   0  0  0  0  0  0  0  0  0  0  0  0
    2.0760   -1.4090   -0.2750 C   0  0  0  0  0  0  0  0  0  0  0  0
    1.9970   -0.0870   -0.0040 C   0  0  0  0  0  0  0  0  0  0  0  0
    0.6740    0.5710    0.1840 C   0  0  0  0  0  0  0  0  0  0  0  0
   -0.3750   -0.0780   -0.1000 C   0  0  0  0  0  0  0  0  0  0  0  0
   -1.8200    0.1850   -0.0690 C   0  0  0  0  0  0  0  0  0  0  0  0
   -2.3150    1.5170    0.2830 C   0  0  0  0  0  0  0  0  0  0  0  0
   -2.6230   -0.8310   -0.4390 C   0  0  0  0  0  0  0  0  0  0  0  0
   -4.0490   -0.8150   -0.4850 C   0  0  0  0  0  0  0  0  0  0  0  0
   -4.6730   -1.9490   -0.8970 C   0  0  0  0  0  0  0  0  0  0  0  0
   -6.1150   -1.9590   -0.9520 C   0  0  0  0  0  0  0  0  0  0  0  0
   -6.8240   -0.9050   -0.6160 C   0  0  0  0  0  0  0  0  0  0  0  0
   -6.1820    0.3440   -0.1640 C   0  0  0  0  0  0  0  0  0  0  0  0
   -4.8070    0.2530   -0.1430 O   0  0  0  0  0  0  0  0  0  0  0  0
    0.7710    1.9200    0.7660 C   0  0  0  0  0  0  0  0  0  0  0  0
    1.5010    1.8260    2.0470 N   0  0  0  0  0  0  0  0  0  0  0  0
    3.1420    0.6830    0.0470 C   0  0  0  0  0  0  0  0  0  0  0  0
  1  2  1  0
  2  3  1  0
  3  4  2  0
  3 21  1  0
  4  5  1  0
  5  6  2  0
  6  7  1  0
  7  8  1  0
  7 21  2  0
  8  9  2  3
  8 19  1  0
  9 10  1  0
 10 11  1  0
 10 12  2  3
 12 13  1  0
 13 14  2  0
 13 18  1  0
 14 15  1  0
 15 16  2  0
 16 17  1  0
 17 18  1  0
 19 20  1  0
M  CHG  1  20   1
M  END
