
     RDKit          3D

 10  9  0  0  0  0  0  0  0  0999 V2000
    3.3800    1.1260   -0.2610 C   0  0  0  0  0  0  0  0  0  0  0  0
    2.2100    0.5130    0.2970 N   0  0  0  0  0  0  0  0  0  0  0  0
    1.8940   -0.8620    0.2120 C   0  0  0  0  0  0  0  0  0  0  0  0
    0.7230   -1.3260   -0.1850 C   0  0  0  0  0  0  0  0  0  0  0  0
    0.4350   -2.6920   -0.2610 N   0  0  0  0  0  0  0  0  0  0  0  0
   -0.2420   -0.4090   -0.5340 O   0  0  0  0  0  0  0  0  0  0  0  0
   -1.4840   -0.2490    0.0680 C   0  0  0  0  0  0  0  0  0  0  0  0
   -2.1990    0.8550   -0.6280 C   0  0  0  0  0  0  0  0  0  0  0  0
   -3.5800    1.2940   -0.2280 C   0  0  0  0  0  0  0  0  0  0  0  0
   -1.6970    1.4580   -1.5600 O   0  0  0  0  0  0  0  0  0  0  0  0
  1  2  1  0
  2  3  1  0
  3  4  2  3
  4  5  1  0
  4  6  1  0
  6  7  1  0
  7  8  1  0
  8  9  1  0
  8 10  2  0
M  END
