
     RDKit          3D

 10  9  0  0  0  0  0  0  0  0999 V2000
   -1.3750   -0.6340   -1.0900 C   0  0  0  0  0  0  0  0  0  0  0  0
   -1.6660   -0.0220    0.2590 C   0  0  2  0  0  0  0  0  0  0  0  0
   -2.8540   -0.7720    0.8460 C   0  0  0  0  0  0  0  0  0  0  0  0
   -2.1270    1.3960   -0.0040 C   0  0  0  0  0  0  0  0  0  0  0  0
   -0.6410   -0.1010    1.1540 O   0  0  0  0  0  0  0  0  0  0  0  0
    0.4990    0.4940    0.8040 N   0  0  0  0  0  0  0  0  0  0  0  0
    1.5920   -0.2080    0.2250 C   0  0  0  0  0  0  0  0  0  0  0  0
    1.4620   -1.4350    0.0430 O   0  0  0  0  0  0  0  0  0  0  0  0
    2.8620    0.4510   -0.1680 C   0  0  0  0  0  0  0  0  0  0  0  0
    3.7800   -0.5070   -0.7280 N   0  0  0  0  0  0  0  0  0  0  0  0
  2  1  1  6
  2  3  1  0
  2  4  1  0
  2  5  1  0
  5  6  1  0
  6  7  1  0
  7  8  2  0
  7  9  1  0
  9 10  1  0
M  CHG  1  10   1
M  END
