
     RDKit          3D

 10  9  0  0  0  0  0  0  0  0999 V2000
   -1.2540   -0.3690    1.4140 C   0  0  0  0  0  0  0  0  0  0  0  0
   -0.8800   -0.1290    0.0790 N   0  0  0  0  0  0  0  0  0  0  0  0
   -1.3590    1.0230   -0.5710 C   0  0  0  0  0  0  0  0  0  0  0  0
   -2.8330    0.8870   -0.7870 C   0  0  0  0  0  0  0  0  0  0  0  0
   -3.4460   -0.1070   -0.4570 O   0  0  0  0  0  0  0  0  0  0  0  0
    0.0090   -0.9930   -0.5730 C   0  0  0  0  0  0  0  0  0  0  0  0
    1.4250   -0.9660   -0.0620 C   0  0  0  0  0  0  0  0  0  0  0  0
    2.0340    0.3420   -0.1810 N   0  0  0  0  0  0  0  0  0  0  0  0
    3.3690    0.5360    0.2650 C   0  0  0  0  0  0  0  0  0  0  0  0
    3.9980   -0.4630    0.7680 O   0  0  0  0  0  0  0  0  0  0  0  0
  1  2  1  0
  2  3  1  0
  2  6  1  0
  3  4  1  0
  4  5  2  0
  6  7  1  0
  7  8  1  0
  8  9  1  0
  9 10  2  0
M  END
