
     RDKit          3D

 10  9  0  0  0  0  0  0  0  0999 V2000
    1.9450   -0.9260   -0.7010 C   0  0  0  0  0  0  0  0  0  0  0  0
    1.4920   -0.1110    0.5100 C   0  0  2  0  0  0  0  0  0  0  0  0
    0.1570    0.5330    0.2650 C   0  0  0  0  0  0  0  0  0  0  0  0
   -0.9270   -0.3330   -0.0110 N   0  0  0  0  0  0  0  0  0  0  0  0
   -1.3960   -1.1600    1.0190 C   0  0  0  0  0  0  0  0  0  0  0  0
   -1.9780    0.3970   -0.6980 C   0  0  0  0  0  0  0  0  0  0  0  0
   -3.0460   -0.5430   -0.9800 N   0  0  0  0  0  0  0  0  0  0  0  0
    2.4800    0.9910    0.6270 C   0  0  0  0  0  0  0  0  0  0  0  0
    3.2000    1.0770    1.6550 O   0  0  0  0  0  0  0  0  0  0  0  0
    2.6650    1.9570   -0.3540 O   0  0  0  0  0  0  0  0  0  0  0  0
  2  1  1  6
  2  3  1  0
  2  8  1  0
  3  4  1  0
  4  5  1  0
  4  6  1  0
  6  7  1  0
  8  9  2  0
  8 10  1  0
M  END
