
     RDKit          3D

  7  6  0  0  0  0  0  0  0  0999 V2000
   -0.6270   -1.3490   -0.5560 N   0  0  0  0  0  0  0  0  0  0  0  0
   -0.2480   -0.2130    0.2480 C   0  0  2  0  0  0  0  0  0  0  0  0
   -0.7800    1.0870   -0.3240 C   0  0  0  0  0  0  0  0  0  0  0  0
   -0.2690    2.4560    0.7280 S   0  0  0  0  0  0  0  0  0  0  0  0
    1.2260   -0.1640    0.3710 C   0  0  0  0  0  0  0  0  0  0  0  0
    1.7450    0.7630    1.0400 O   0  0  0  0  0  0  0  0  0  0  0  0
    2.0520   -1.0890   -0.2160 O   0  0  0  0  0  0  0  0  0  0  0  0
  2  1  1  6
  2  3  1  0
  2  5  1  0
  3  4  1  0
  5  6  2  0
  5  7  1  0
M  CHG  1   1   1
M  END
