
     RDKit          3D

  9  9  0  0  0  0  0  0  0  0999 V2000
    2.4950   -0.7880   -0.2820 C   0  0  0  0  0  0  0  0  0  0  0  0
    1.8110    0.2440    0.4750 N   0  0  0  0  0  0  0  0  0  0  0  0
    0.5470    0.7680    0.1040 C   0  0  0  0  0  0  0  0  0  0  0  0
    0.2400    1.9980   -0.3250 C   0  0  0  0  0  0  0  0  0  0  0  0
   -1.1980    2.0870   -0.5910 C   0  0  0  0  0  0  0  0  0  0  0  0
   -1.7690    0.9140   -0.3260 C   0  0  0  0  0  0  0  0  0  0  0  0
   -0.7060    0.0250    0.1240 C   0  0  0  0  0  0  0  0  0  0  0  0
   -0.8560   -1.2400    0.4880 C   0  0  0  0  0  0  0  0  0  0  0  0
   -2.1280   -1.8780    0.4730 N   0  0  0  0  0  0  0  0  0  0  0  0
  1  2  1  0
  2  3  1  0
  3  4  2  0
  3  7  1  0
  4  5  1  0
  5  6  2  0
  6  7  1  0
  7  8  2  3
  8  9  1  0
M  END
