
     RDKit          3D

  9  9  0  0  0  0  0  0  0  0999 V2000
   -2.2630   -1.1470    0.3260 N   0  0  0  0  0  0  0  0  0  0  0  0
   -1.5330    0.1020    0.4130 C   0  0  0  0  0  0  0  0  0  0  0  0
   -2.1880    1.1390    0.7530 N   0  0  0  0  0  0  0  0  0  0  0  0
   -0.1240    0.0580    0.1060 C   0  0  0  0  0  0  0  0  0  0  0  0
    0.4610   -1.1290   -0.2480 C   0  0  0  0  0  0  0  0  0  0  0  0
    1.7910   -1.2130   -0.5460 C   0  0  0  0  0  0  0  0  0  0  0  0
    2.5570   -0.0660   -0.4860 C   0  0  0  0  0  0  0  0  0  0  0  0
    1.9900    1.1370   -0.1330 C   0  0  0  0  0  0  0  0  0  0  0  0
    0.6360    1.1930    0.1650 C   0  0  0  0  0  0  0  0  0  0  0  0
  1  2  1  0
  2  3  2  0
  2  4  1  0
  4  5  2  0
  4  9  1  0
  5  6  1  0
  6  7  2  0
  7  8  1  0
  8  9  2  0
M  CHG  1   3   1
M  END
