
     RDKit          3D

  9  9  0  0  0  0  0  0  0  0999 V2000
    2.8550   -0.8520   -0.1850 C   0  0  0  0  0  0  0  0  0  0  0  0
    1.6060   -0.6640    0.5080 N   0  0  0  0  0  0  0  0  0  0  0  0
    1.0140    0.6090    0.5690 C   0  0  0  0  0  0  0  0  0  0  0  0
   -0.2990    0.7740    0.4450 C   0  0  0  0  0  0  0  0  0  0  0  0
   -1.0660    2.0110    0.4830 C   0  0  0  0  0  0  0  0  0  0  0  0
   -2.3520    1.7260    0.3180 C   0  0  0  0  0  0  0  0  0  0  0  0
   -2.4950    0.2840    0.1620 C   0  0  0  0  0  0  0  0  0  0  0  0
   -1.2850   -0.2780    0.2370 C   0  0  0  0  0  0  0  0  0  0  0  0
   -1.0660   -1.6760    0.1240 N   0  0  0  0  0  0  0  0  0  0  0  0
  1  2  1  0
  2  3  1  0
  3  4  2  3
  4  5  1  0
  4  8  1  0
  5  6  2  0
  6  7  1  0
  7  8  2  0
  8  9  1  0
M  END
