
     RDKit          3D

  9 10  0  0  0  0  0  0  0  0999 V2000
   -2.6310   -0.7140    0.2090 N   0  0  0  0  0  0  0  0  0  0  0  0
   -1.7160    0.3590   -0.0300 C   0  0  2  0  0  0  0  0  0  0  0  0
   -1.0040    0.2480   -1.3740 C   0  0  0  0  0  0  0  0  0  0  0  0
    0.0550    1.3190   -1.1310 C   0  0  0  0  0  0  0  0  0  0  0  0
    0.6100    0.8290    0.1290 N   0  0  0  0  0  0  0  0  0  0  0  0
    1.6110   -0.1640   -0.1500 C   0  0  1  0  0  0  0  0  0  0  0  0
    2.8780   -0.0010    0.7020 C   0  0  0  0  0  0  0  0  0  0  0  0
    2.0020   -1.2080    0.8050 C   0  0  0  0  0  0  0  0  0  0  0  0
   -0.5070    0.3300    0.8920 C   0  0  0  0  0  0  0  0  0  0  0  0
  2  1  1  1
  2  3  1  0
  2  9  1  0
  3  4  1  0
  4  5  1  0
  6  5  1  1
  5  9  1  0
  6  7  1  0
  6  8  1  0
  7  8  1  0
M  CHG  1   1   1
M  END
