
     RDKit          3D

  9  9  0  0  0  0  0  0  0  0999 V2000
   -0.8170    1.6840    1.3190 C   0  0  0  0  0  0  0  0  0  0  0  0
   -0.6990    0.4240    0.4900 C   0  0  0  0  0  0  0  0  0  0  0  0
   -1.7530   -0.2900    0.3740 C   0  0  0  0  0  0  0  0  0  0  0  0
   -1.9720   -1.4910   -0.3120 N   0  0  0  0  0  0  0  0  0  0  0  0
    0.5700    0.0970   -0.1160 C   0  0  0  0  0  0  0  0  0  0  0  0
    0.9430   -0.9540   -0.8940 C   0  0  0  0  0  0  0  0  0  0  0  0
    2.2780   -0.7940   -1.2140 C   0  0  0  0  0  0  0  0  0  0  0  0
    2.6730    0.3620   -0.6120 C   0  0  0  0  0  0  0  0  0  0  0  0
    1.6620    0.9090    0.0500 N   0  0  0  0  0  0  0  0  0  0  0  0
  1  2  1  0
  2  3  2  3
  2  5  1  0
  3  4  1  0
  5  6  2  0
  5  9  1  0
  6  7  1  0
  7  8  2  0
  8  9  1  0
M  CHG  1   4   1
M  END
