
     RDKit          3D

 11 11  0  0  0  0  0  0  0  0999 V2000
    2.9670    0.7820    0.7650 C   0  0  0  0  0  0  0  0  0  0  0  0
    2.4290    0.2140   -0.3540 O   0  0  0  0  0  0  0  0  0  0  0  0
    1.4090   -0.6870   -0.1600 C   0  0  2  0  0  0  0  0  0  0  0  0
    1.8380   -1.9690   -0.5610 O   0  0  0  0  0  0  0  0  0  0  0  0
    0.2340   -0.2370   -0.9920 C   0  0  2  0  0  0  0  0  0  0  0  0
   -0.3390    1.0000   -0.3150 C   0  0  0  0  0  0  0  0  0  0  0  0
   -0.9080    0.3970    0.8090 O   0  0  0  0  0  0  0  0  0  0  0  0
   -1.5680   -0.6870    0.2370 C   0  0  1  0  0  0  0  0  0  0  0  0
   -2.9670   -0.2080   -0.1230 C   0  0  0  0  0  0  0  0  0  0  0  0
   -3.6430    0.2260    1.0160 O   0  0  0  0  0  0  0  0  0  0  0  0
   -0.8550   -1.1030   -0.8560 O   0  0  0  0  0  0  0  0  0  0  0  0
  1  2  1  0
  2  3  1  0
  3  4  1  6
  3  5  1  0
  5  6  1  1
  5 11  1  0
  6  7  1  0
  7  8  1  0
  8  9  1  6
  8 11  1  0
  9 10  1  0
M  END
