
     RDKit          3D

 11 11  0  0  0  0  0  0  0  0999 V2000
   -3.6580   -0.6320   -0.4740 C   0  0  0  0  0  0  0  0  0  0  0  0
   -2.7620   -0.4540    0.5820 O   0  0  0  0  0  0  0  0  0  0  0  0
   -1.4950   -0.2560    0.0060 C   0  0  0  0  0  0  0  0  0  0  0  0
   -0.5250   -0.0630    1.1310 C   0  0  2  0  0  0  0  0  0  0  0  0
   -0.9250    1.0580    1.8720 O   0  0  0  0  0  0  0  0  0  0  0  0
    0.8770    0.1520    0.6960 C   0  0  2  0  0  0  0  0  0  0  0  0
    1.0540    1.2800   -0.1010 O   0  0  0  0  0  0  0  0  0  0  0  0
    2.4540    1.2120   -0.2840 C   0  0  0  0  0  0  0  0  0  0  0  0
    2.6510   -0.2940   -0.4120 C   0  0  1  0  0  0  0  0  0  0  0  0
    3.5380   -0.6970    0.5900 O   0  0  0  0  0  0  0  0  0  0  0  0
    1.4040   -0.8390   -0.0960 O   0  0  0  0  0  0  0  0  0  0  0  0
  1  2  1  0
  2  3  1  0
  3  4  1  0
  4  5  1  6
  4  6  1  0
  6  7  1  6
  6 11  1  0
  7  8  1  0
  8  9  1  0
  9 10  1  1
  9 11  1  0
M  END
