
     RDKit          3D

 11 11  0  0  0  0  0  0  0  0999 V2000
    2.8680    0.4590   -0.4040 C   0  0  0  0  0  0  0  0  0  0  0  0
    1.7960   -0.4720    0.1360 C   0  0  2  0  0  0  0  0  0  0  0  0
    0.9880   -1.1100   -0.9660 C   0  0  0  0  0  0  0  0  0  0  0  0
   -0.2890   -1.3700   -0.4160 O   0  0  0  0  0  0  0  0  0  0  0  0
   -0.9470   -0.1480   -0.4040 C   0  0  1  0  0  0  0  0  0  0  0  0
   -1.0050    0.2750   -1.7520 O   0  0  0  0  0  0  0  0  0  0  0  0
   -2.3630   -0.2420    0.0750 C   0  0  1  0  0  0  0  0  0  0  0  0
   -2.4790   -0.7290    1.3640 O   0  0  0  0  0  0  0  0  0  0  0  0
   -2.9260    1.0320   -0.0230 O   0  0  0  0  0  0  0  0  0  0  0  0
   -0.1080    0.8290    0.3520 C   0  0  0  0  0  0  0  0  0  0  0  0
    0.9650    0.1920    1.0050 O   0  0  0  0  0  0  0  0  0  0  0  0
  2  1  1  6
  2  3  1  0
  2 11  1  0
  3  4  1  0
  4  5  1  0
  5  6  1  6
  5  7  1  0
  5 10  1  0
  7  8  1  1
  7  9  1  0
 10 11  1  0
M  END
