
     RDKit          3D

 10 10  0  0  0  0  0  0  0  0999 V2000
   -1.7520    0.7760   -0.5990 C   0  0  0  0  0  0  0  0  0  0  0  0
   -0.9300   -0.1610    0.2860 C   0  0  2  0  0  0  0  0  0  0  0  0
   -1.8780   -1.0290    0.8780 O   0  0  0  0  0  0  0  0  0  0  0  0
   -0.2400    0.5750    1.3770 C   0  0  0  0  0  0  0  0  0  0  0  0
    1.1390    0.5210    1.3310 O   0  0  0  0  0  0  0  0  0  0  0  0
    1.6930    1.0740    0.2030 C   0  0  0  0  0  0  0  0  0  0  0  0
    1.9830   -0.0780   -0.7620 C   0  0  0  0  0  0  0  0  0  0  0  0
    0.7640   -0.3130   -1.4300 O   0  0  0  0  0  0  0  0  0  0  0  0
   -0.0320   -1.0240   -0.5510 C   0  0  2  0  0  0  0  0  0  0  0  0
   -0.8580   -1.8540   -1.3220 O   0  0  0  0  0  0  0  0  0  0  0  0
  2  1  1  6
  2  3  1  0
  2  4  1  0
  2  9  1  0
  4  5  1  0
  5  6  1  0
  6  7  1  0
  7  8  1  0
  8  9  1  0
  9 10  1  6
M  END
