
     RDKit          3D

 20 22  0  0  0  0  0  0  0  0999 V2000
   -4.5720    2.0120    0.8700 O   0  0  0  0  0  0  0  0  0  0  0  0
   -3.8690    0.9550    0.7070 C   0  0  0  0  0  0  0  0  0  0  0  0
   -4.6490   -0.1560    0.1810 C   0  0  0  0  0  0  0  0  0  0  0  0
   -3.9740   -1.4800    0.1540 C   0  0  0  0  0  0  0  0  0  0  0  0
   -2.8190   -1.3970   -0.7950 C   0  0  0  0  0  0  0  0  0  0  0  0
   -2.8690   -2.1490   -1.9560 O   0  0  0  0  0  0  0  0  0  0  0  0
   -1.7530   -0.6390   -0.5760 C   0  0  0  0  0  0  0  0  0  0  0  0
   -1.4220    0.2490    0.5420 C   0  0  1  0  0  0  0  0  0  0  0  0
   -0.2680    1.0660    0.2090 N   0  0  0  0  0  0  0  0  0  0  0  0
    0.9610    0.9460    0.8850 C   0  0  0  0  0  0  0  0  0  0  0  0
    1.1010    0.1070    1.8220 O   0  0  0  0  0  0  0  0  0  0  0  0
    2.0830    1.8380    0.4610 C   0  0  2  0  0  0  0  0  0  0  0  0
    2.5840    1.5240   -0.9130 C   0  0  0  0  0  0  0  0  0  0  0  0
    3.4370    0.3160   -0.6550 C   0  0  0  0  0  0  0  0  0  0  0  0
    3.9490   -0.7460   -1.2410 C   0  0  0  0  0  0  0  0  0  0  0  0
    4.7240   -1.4820   -0.2160 C   0  0  0  0  0  0  0  0  0  0  0  0
    4.5550   -0.6630    1.0070 C   0  0  0  0  0  0  0  0  0  0  0  0
    3.7990    0.3940    0.7470 C   0  0  0  0  0  0  0  0  0  0  0  0
    3.2090    1.5480    1.2680 O   0  0  0  0  0  0  0  0  0  0  0  0
   -2.5070    1.0180    1.0440 N   0  0  0  0  0  0  0  0  0  0  0  0
  1  2  2  0
  2  3  1  0
  2 20  1  0
  3  4  1  0
  4  5  1  0
  5  6  1  0
  5  7  2  0
  7  8  1  0
  8  9  1  6
  8 20  1  0
  9 10  1  0
 10 11  2  0
 12 10  1  1
 12 13  1  0
 12 19  1  0
 13 14  1  0
 14 15  2  0
 14 18  1  0
 15 16  1  0
 16 17  1  0
 17 18  2  0
 18 19  1  0
M  END
