
     RDKit          3D

 11 11  0  0  0  0  0  0  0  0999 V2000
   -2.2150    0.2990   -0.8100 C   0  0  0  0  0  0  0  0  0  0  0  0
   -1.0460    0.8260   -0.0120 C   0  0  2  0  0  0  0  0  0  0  0  0
   -1.5460    1.3000    1.2090 O   0  0  0  0  0  0  0  0  0  0  0  0
   -0.4610    1.8590   -0.7110 O   0  0  0  0  0  0  0  0  0  0  0  0
   -0.0410   -0.2800    0.2670 C   0  0  1  0  0  0  0  0  0  0  0  0
   -0.6730   -1.4080    1.0420 C   0  0  0  0  0  0  0  0  0  0  0  0
    0.4240   -0.7140   -0.9720 O   0  0  0  0  0  0  0  0  0  0  0  0
    1.6920   -0.1360   -1.1270 C   0  0  0  0  0  0  0  0  0  0  0  0
    2.1760   -0.2440    0.3170 C   0  0  1  0  0  0  0  0  0  0  0  0
    3.2840    0.5500    0.5550 O   0  0  0  0  0  0  0  0  0  0  0  0
    1.0410    0.1770    0.9850 O   0  0  0  0  0  0  0  0  0  0  0  0
  2  1  1  6
  2  3  1  0
  2  4  1  0
  2  5  1  0
  5  6  1  1
  5  7  1  0
  5 11  1  0
  7  8  1  0
  8  9  1  0
  9 10  1  6
  9 11  1  0
M  END
