
     RDKit          3D

 11 11  0  0  0  0  0  0  0  0999 V2000
    3.8270    0.1380    0.4590 C   0  0  0  0  0  0  0  0  0  0  0  0
    2.5520    0.6730    0.6320 O   0  0  0  0  0  0  0  0  0  0  0  0
    1.6080   -0.3450    0.4970 C   0  0  0  0  0  0  0  0  0  0  0  0
    0.2040    0.2180    0.6830 C   0  0  1  0  0  0  0  0  0  0  0  0
   -0.0020    1.1760   -0.2770 O   0  0  0  0  0  0  0  0  0  0  0  0
   -0.8280    0.6440   -1.2530 C   0  0  0  0  0  0  0  0  0  0  0  0
   -1.5470   -0.4700   -0.5270 C   0  0  2  0  0  0  0  0  0  0  0  0
   -1.6700   -1.6080   -1.3010 O   0  0  0  0  0  0  0  0  0  0  0  0
   -2.8980    0.0050   -0.0850 C   0  0  0  0  0  0  0  0  0  0  0  0
   -2.7830    1.1530    0.6960 O   0  0  0  0  0  0  0  0  0  0  0  0
   -0.7580   -0.7510    0.5730 O   0  0  0  0  0  0  0  0  0  0  0  0
  1  2  1  0
  2  3  1  0
  4  3  1  6
  4  5  1  0
  4 11  1  0
  5  6  1  0
  6  7  1  0
  7  8  1  6
  7  9  1  0
  7 11  1  0
  9 10  1  0
M  END
