
     RDKit          3D

 15 15  0  0  0  0  0  0  0  0999 V2000
    3.4370   -0.7120    0.8420 N   0  0  0  0  0  0  0  0  0  0  0  0
    3.0290    0.2790   -0.0910 C   0  0  0  0  0  0  0  0  0  0  0  0
    3.9950    1.2150   -0.5380 N   0  0  0  0  0  0  0  0  0  0  0  0
    1.8140    0.3230   -0.5170 N   0  0  0  0  0  0  0  0  0  0  0  0
    0.8250   -0.5870   -0.0980 C   0  0  0  0  0  0  0  0  0  0  0  0
    1.1480   -1.7130    0.3320 O   0  0  0  0  0  0  0  0  0  0  0  0
   -0.5720   -0.2250   -0.1630 C   0  0  0  0  0  0  0  0  0  0  0  0
   -0.9090    0.9900   -0.6280 N   0  0  0  0  0  0  0  0  0  0  0  0
   -2.1690    1.4340   -0.7330 C   0  0  0  0  0  0  0  0  0  0  0  0
   -2.5970    3.0160   -1.3390 Cl  0  0  0  0  0  0  0  0  0  0  0  0
   -3.1630    0.5510   -0.3240 C   0  0  0  0  0  0  0  0  0  0  0  0
   -4.5150    0.9990   -0.4260 N   0  0  0  0  0  0  0  0  0  0  0  0
   -2.8370   -0.6720    0.1440 N   0  0  0  0  0  0  0  0  0  0  0  0
   -1.5710   -1.1030    0.2440 C   0  0  0  0  0  0  0  0  0  0  0  0
   -1.2200   -2.3840    0.7340 N   0  0  0  0  0  0  0  0  0  0  0  0
  1  2  1  0
  2  3  1  0
  2  4  2  3
  4  5  1  0
  5  6  2  0
  5  7  1  0
  7  8  2  0
  7 14  1  0
  8  9  1  0
  9 10  1  0
  9 11  2  0
 11 12  1  0
 11 13  1  0
 13 14  2  0
 14 15  1  0
M  CHG  1   4   1
M  END
