
     RDKit          3D

 12 13  0  0  0  0  0  0  0  0999 V2000
   -2.3530    1.1990   -0.2350 N   0  0  0  0  0  0  0  0  0  0  0  0
   -1.4300    0.1470   -0.0780 C   0  0  0  0  0  0  0  0  0  0  0  0
   -1.7670   -1.1730    0.0570 C   0  0  0  0  0  0  0  0  0  0  0  0
   -0.8160   -2.1200    0.2040 N   0  0  0  0  0  0  0  0  0  0  0  0
    0.4950   -1.8250    0.2250 C   0  0  0  0  0  0  0  0  0  0  0  0
    1.3330   -2.7240    0.3610 O   0  0  0  0  0  0  0  0  0  0  0  0
    0.9010   -0.5050    0.0930 C   0  0  0  0  0  0  0  0  0  0  0  0
    2.2350   -0.1600    0.1100 C   0  0  0  0  0  0  0  0  0  0  0  0
    2.6170    1.1570   -0.0230 C   0  0  0  0  0  0  0  0  0  0  0  0
    1.6520    2.0790   -0.1670 N   0  0  0  0  0  0  0  0  0  0  0  0
    0.3540    1.7630   -0.1860 C   0  0  0  0  0  0  0  0  0  0  0  0
   -0.0720    0.4580   -0.0560 C   0  0  0  0  0  0  0  0  0  0  0  0
  1  2  1  0
  2  3  2  0
  2 12  1  0
  3  4  1  0
  4  5  1  0
  5  6  2  0
  5  7  1  0
  7  8  2  0
  7 12  1  0
  8  9  1  0
  9 10  2  0
 10 11  1  0
 11 12  2  0
M  END
