
     RDKit          3D

 12 13  0  0  0  0  0  0  0  0999 V2000
    3.1630    0.2230   -0.4900 N   0  0  0  0  0  0  0  0  0  0  0  0
    1.7860   -0.0760   -0.2960 C   0  0  0  0  0  0  0  0  0  0  0  0
    0.8610    0.9320   -0.0540 C   0  0  0  0  0  0  0  0  0  0  0  0
   -0.4760    0.6290    0.1330 C   0  0  0  0  0  0  0  0  0  0  0  0
   -1.4380    1.5860    0.3770 C   0  0  0  0  0  0  0  0  0  0  0  0
   -2.7750    1.2640    0.5620 C   0  0  0  0  0  0  0  0  0  0  0  0
   -3.0860   -0.0440    0.4890 N   0  0  0  0  0  0  0  0  0  0  0  0
   -2.1660   -0.9930    0.2530 C   0  0  0  0  0  0  0  0  0  0  0  0
   -0.8200   -0.7040    0.0630 C   0  0  0  0  0  0  0  0  0  0  0  0
    0.0940   -1.6710   -0.1740 N   0  0  0  0  0  0  0  0  0  0  0  0
    1.4000   -1.4000   -0.3580 C   0  0  0  0  0  0  0  0  0  0  0  0
    2.2490   -2.3190   -0.5810 O   0  0  0  0  0  0  0  0  0  0  0  0
  1  2  1  0
  2  3  2  0
  2 11  1  0
  3  4  1  0
  4  5  2  0
  4  9  1  0
  5  6  1  0
  6  7  2  0
  7  8  1  0
  8  9  2  0
  9 10  1  0
 10 11  1  0
 11 12  2  0
M  END
