
     RDKit          3D

 12 13  0  0  0  0  0  0  0  0999 V2000
   -2.7210   -1.5760   -0.0350 N   0  0  0  0  0  0  0  0  0  0  0  0
   -2.0080   -0.4810    0.0120 C   0  0  0  0  0  0  0  0  0  0  0  0
   -2.4990    0.7640    0.1380 N   0  0  0  0  0  0  0  0  0  0  0  0
   -1.4650    1.6350    0.1490 C   0  0  0  0  0  0  0  0  0  0  0  0
   -1.5630    2.8970    0.2540 O   0  0  0  0  0  0  0  0  0  0  0  0
   -0.2790    0.9770    0.0300 C   0  0  0  0  0  0  0  0  0  0  0  0
    0.9900    1.5210    0.0020 C   0  0  0  0  0  0  0  0  0  0  0  0
    2.2000    0.9370    0.0640 N   0  0  0  0  0  0  0  0  0  0  0  0
    2.4600   -0.3890    0.0590 C   0  0  0  0  0  0  0  0  0  0  0  0
    1.6250   -1.4670   -0.1460 C   0  0  0  0  0  0  0  0  0  0  0  0
    0.2340   -1.4970   -0.1940 C   0  0  0  0  0  0  0  0  0  0  0  0
   -0.6340   -0.4490   -0.0620 C   0  0  0  0  0  0  0  0  0  0  0  0
  1  2  2  0
  2  3  1  0
  2 12  1  0
  3  4  1  0
  4  5  2  0
  4  6  1  0
  6  7  2  0
  6 12  1  0
  7  8  1  0
  8  9  1  0
  9 10  2  0
 10 11  1  0
 11 12  2  0
M  END
