
     RDKit          3D

 12 13  0  0  0  0  0  0  0  0999 V2000
   -1.2500    1.7800   -0.5340 C   0  0  0  0  0  0  0  0  0  0  0  0
   -1.5130    0.3300   -0.2140 C   0  0  0  0  0  0  0  0  0  0  0  0
   -2.6740   -0.3210   -0.1620 N   0  0  0  0  0  0  0  0  0  0  0  0
   -2.4540   -1.5990    0.1630 N   0  0  0  0  0  0  0  0  0  0  0  0
   -1.1420   -1.8120    0.3300 C   0  0  0  0  0  0  0  0  0  0  0  0
   -0.5240   -2.8680    0.6370 O   0  0  0  0  0  0  0  0  0  0  0  0
   -0.5300   -0.6170    0.1000 C   0  0  0  0  0  0  0  0  0  0  0  0
    0.8790   -0.2500    0.1370 C   0  0  0  0  0  0  0  0  0  0  0  0
    1.5710    0.4000    1.1500 C   0  0  0  0  0  0  0  0  0  0  0  0
    2.8900    0.5550    0.7810 C   0  0  0  0  0  0  0  0  0  0  0  0
    3.0170    0.0120   -0.4400 N   0  0  0  0  0  0  0  0  0  0  0  0
    1.8140   -0.4770   -0.8410 C   0  0  0  0  0  0  0  0  0  0  0  0
  1  2  1  0
  2  3  1  0
  2  7  2  0
  3  4  1  0
  4  5  1  0
  5  6  2  0
  5  7  1  0
  7  8  1  0
  8  9  1  0
  8 12  2  0
  9 10  2  0
 10 11  1  0
 11 12  1  0
M  END
