
     RDKit          3D

 10 11  0  0  0  0  0  0  0  0999 V2000
    2.8160   -0.7040    0.2640 N   0  0  0  0  0  0  0  0  0  0  0  0
    1.4750   -0.2390    0.1070 C   0  0  0  0  0  0  0  0  0  0  0  0
    1.2330    1.0770   -0.2170 C   0  0  0  0  0  0  0  0  0  0  0  0
   -0.0240    1.5620   -0.3770 N   0  0  0  0  0  0  0  0  0  0  0  0
   -1.0850    0.7470   -0.2180 C   0  0  0  0  0  0  0  0  0  0  0  0
   -2.4110    0.9530   -0.3130 N   0  0  0  0  0  0  0  0  0  0  0  0
   -3.0050   -0.2020   -0.0570 N   0  0  0  0  0  0  0  0  0  0  0  0
   -2.0930   -1.1550    0.2020 C   0  0  0  0  0  0  0  0  0  0  0  0
   -0.8370   -0.5880    0.1100 C   0  0  0  0  0  0  0  0  0  0  0  0
    0.4170   -1.0610    0.2670 N   0  0  0  0  0  0  0  0  0  0  0  0
  1  2  1  0
  2  3  2  0
  2 10  1  0
  3  4  1  0
  4  5  2  0
  5  6  1  0
  5  9  1  0
  6  7  1  0
  7  8  2  0
  8  9  1  0
  9 10  2  0
M  END
