
     RDKit          3D

 12 13  0  0  0  0  0  0  0  0999 V2000
    0.3160   -2.5250    0.0360 N   0  0  0  0  0  0  0  0  0  0  0  0
   -0.3120   -1.2500    0.0480 C   0  0  0  0  0  0  0  0  0  0  0  0
   -1.6840   -1.1920    0.1420 C   0  0  0  0  0  0  0  0  0  0  0  0
   -2.3660    0.0290    0.1590 C   0  0  0  0  0  0  0  0  0  0  0  0
   -1.6590    1.2130    0.0810 C   0  0  0  0  0  0  0  0  0  0  0  0
   -0.2760    1.1470   -0.0130 C   0  0  0  0  0  0  0  0  0  0  0  0
    0.4570    2.2780   -0.0920 N   0  0  0  0  0  0  0  0  0  0  0  0
    1.7730    2.2390   -0.1820 N   0  0  0  0  0  0  0  0  0  0  0  0
    2.4720    1.1060   -0.2030 C   0  0  0  0  0  0  0  0  0  0  0  0
    1.7710   -0.0920   -0.1250 C   0  0  0  0  0  0  0  0  0  0  0  0
    2.3750   -1.1940   -0.1400 O   0  0  0  0  0  0  0  0  0  0  0  0
    0.3890   -0.0660   -0.0300 C   0  0  0  0  0  0  0  0  0  0  0  0
  1  2  1  0
  2  3  2  0
  2 12  1  0
  3  4  1  0
  4  5  2  0
  5  6  1  0
  6  7  1  0
  6 12  2  0
  7  8  1  0
  8  9  2  0
  9 10  1  0
 10 11  2  0
 10 12  1  0
M  END
