
     RDKit          3D

 21 20  0  0  0  0  0  0  0  0999 V2000
    1.1160    4.0740    0.6530 C   0  0  0  0  0  0  0  0  0  0  0  0
    0.5270    2.7510    0.9360 C   0  0  0  0  0  0  0  0  0  0  0  0
    0.2280    2.3630    2.1000 O   0  0  0  0  0  0  0  0  0  0  0  0
    0.2790    1.8680   -0.1240 N   0  0  0  0  0  0  0  0  0  0  0  0
   -0.3080    0.5280    0.0720 C   0  0  2  0  0  0  0  0  0  0  0  0
    0.7450   -0.4380   -0.3580 C   0  0  1  0  0  0  0  0  0  0  0  0
    1.1020   -0.2580   -1.6940 O   0  0  0  0  0  0  0  0  0  0  0  0
    1.9870   -0.1730    0.4650 C   0  0  0  0  0  0  0  0  0  0  0  0
    3.1080   -1.1350    0.0700 C   0  0  1  0  0  0  0  0  0  0  0  0
    3.3800   -0.9300   -1.2810 O   0  0  0  0  0  0  0  0  0  0  0  0
    4.3390   -0.8700    0.8230 C   0  0  0  0  0  0  0  0  0  0  0  0
    4.4110   -0.9720    2.0890 O   0  0  0  0  0  0  0  0  0  0  0  0
    5.5300   -0.4820    0.1970 O   0  0  0  0  0  0  0  0  0  0  0  0
   -1.5560    0.5130   -0.7240 C   0  0  1  0  0  0  0  0  0  0  0  0
   -1.1970    0.7500   -2.0720 O   0  0  0  0  0  0  0  0  0  0  0  0
   -2.3490   -0.7400   -0.7030 C   0  0  2  0  0  0  0  0  0  0  0  0
   -3.4810   -0.5090   -1.5270 O   0  0  0  0  0  0  0  0  0  0  0  0
   -2.8990   -1.1240    0.6350 C   0  0  2  0  0  0  0  0  0  0  0  0
   -1.9190   -1.3950    1.5860 O   0  0  0  0  0  0  0  0  0  0  0  0
   -3.7070   -2.4040    0.4740 C   0  0  0  0  0  0  0  0  0  0  0  0
   -4.7230   -2.2520   -0.4580 O   0  0  0  0  0  0  0  0  0  0  0  0
  1  2  1  0
  2  3  2  0
  2  4  1  0
  5  4  1  6
  5  6  1  0
  5 14  1  0
  6  7  1  6
  6  8  1  0
  8  9  1  0
  9 10  1  6
  9 11  1  0
 11 12  2  0
 11 13  1  0
 14 15  1  6
 14 16  1  0
 16 17  1  6
 16 18  1  0
 18 19  1  1
 18 20  1  0
 20 21  1  0
M  END
