
     RDKit          3D

 20 19  0  0  0  0  0  0  0  0999 V2000
    1.5020   -0.1180    0.6580 O   0  0  0  0  0  0  0  0  0  0  0  0
    1.9730    0.8560    0.0250 C   0  0  0  0  0  0  0  0  0  0  0  0
    1.7340    2.1680    0.5070 N   0  0  0  0  0  0  0  0  0  0  0  0
    0.9790    2.5240    1.6790 C   0  0  0  0  0  0  0  0  0  0  0  0
   -0.4540    2.1490    1.6840 C   0  0  0  0  0  0  0  0  0  0  0  0
   -0.6640    0.8090    1.5740 O   0  0  0  0  0  0  0  0  0  0  0  0
   -2.0130    0.4530    1.5780 C   0  0  2  0  0  0  0  0  0  0  0  0
   -2.3230   -0.3760    2.7950 C   0  0  0  0  0  0  0  0  0  0  0  0
   -1.6030   -1.5530    2.8630 O   0  0  0  0  0  0  0  0  0  0  0  0
   -2.3900   -0.1790    0.2780 C   0  0  0  0  0  0  0  0  0  0  0  0
   -3.8170   -0.6040    0.1630 C   0  0  2  0  0  0  0  0  0  0  0  0
   -4.2210   -1.5420    1.1010 O   0  0  0  0  0  0  0  0  0  0  0  0
   -4.0630   -1.1250   -1.2510 C   0  0  0  0  0  0  0  0  0  0  0  0
   -5.4080   -1.3880   -1.4470 O   0  0  0  0  0  0  0  0  0  0  0  0
    2.7160    0.6150   -1.1310 O   0  0  0  0  0  0  0  0  0  0  0  0
    2.8980   -0.7320   -1.5290 C   0  0  0  0  0  0  0  0  0  0  0  0
    3.7060   -0.8600   -2.7770 C   0  0  1  0  0  0  0  0  0  0  0  0
    3.1150   -0.2090   -3.8560 O   0  0  0  0  0  0  0  0  0  0  0  0
    5.1110   -0.3580   -2.5260 C   0  0  0  0  0  0  0  0  0  0  0  0
    5.6440   -1.0340   -1.4530 O   0  0  0  0  0  0  0  0  0  0  0  0
  1  2  2  0
  2  3  1  0
  2 15  1  0
  3  4  1  0
  4  5  1  0
  5  6  1  0
  6  7  1  0
  7  8  1  1
  7 10  1  0
  8  9  1  0
 10 11  1  0
 11 12  1  1
 11 13  1  0
 13 14  1  0
 15 16  1  0
 16 17  1  0
 17 18  1  6
 17 19  1  0
 19 20  1  0
M  END
