
     RDKit          3D

 20 19  0  0  0  0  0  0  0  0999 V2000
   -2.2830   -3.0230   -0.3120 C   0  0  0  0  0  0  0  0  0  0  0  0
   -1.8240   -1.7770    0.3920 C   0  0  0  0  0  0  0  0  0  0  0  0
   -2.3700   -1.3870    1.4510 O   0  0  0  0  0  0  0  0  0  0  0  0
   -0.7630   -1.0280   -0.1380 N   0  0  0  0  0  0  0  0  0  0  0  0
   -0.2310    0.2040    0.4650 C   0  0  2  0  0  0  0  0  0  0  0  0
   -0.5970    1.3420   -0.3830 C   0  0  0  0  0  0  0  0  0  0  0  0
   -2.1150    1.4640   -0.4540 C   0  0  0  0  0  0  0  0  0  0  0  0
   -2.7690    1.7770    0.8200 C   0  0  0  0  0  0  0  0  0  0  0  0
   -2.1020    2.0790    1.8250 O   0  0  0  0  0  0  0  0  0  0  0  0
   -4.2160    1.7330    0.9140 C   0  0  0  0  0  0  0  0  0  0  0  0
   -4.9390    1.4350   -0.0750 O   0  0  0  0  0  0  0  0  0  0  0  0
   -4.8220    2.0280    2.1220 O   0  0  0  0  0  0  0  0  0  0  0  0
    1.1140    0.0490    1.0260 C   0  0  1  0  0  0  0  0  0  0  0  0
    0.9250   -0.9700    2.0580 O   0  0  0  0  0  0  0  0  0  0  0  0
    2.2170   -0.5240    0.2100 C   0  0  2  0  0  0  0  0  0  0  0  0
    3.2490   -0.7470    1.2230 O   0  0  0  0  0  0  0  0  0  0  0  0
    2.9250    0.4250   -0.7170 C   0  0  2  0  0  0  0  0  0  0  0  0
    2.2320    0.8030   -1.8350 O   0  0  0  0  0  0  0  0  0  0  0  0
    4.2500   -0.1400   -1.1980 C   0  0  0  0  0  0  0  0  0  0  0  0
    4.8890    0.8960   -1.8940 O   0  0  0  0  0  0  0  0  0  0  0  0
  1  2  1  0
  2  3  2  0
  2  4  1  0
  4  5  1  0
  5  6  1  6
  5 13  1  0
  6  7  1  0
  7  8  1  0
  8  9  2  0
  8 10  1  0
 10 11  2  0
 10 12  1  0
 13 14  1  1
 13 15  1  0
 15 16  1  1
 15 17  1  0
 17 18  1  6
 17 19  1  0
 19 20  1  0
M  END
