
     RDKit          3D

 20 20  0  0  0  0  0  0  0  0999 V2000
   -3.2220   -0.4730   -2.3230 N   0  0  0  0  0  0  0  0  0  0  0  0
   -2.6660    0.8330   -2.0760 C   0  0  0  0  0  0  0  0  0  0  0  0
   -3.2520    1.9230   -2.5330 C   0  0  0  0  0  0  0  0  0  0  0  0
   -2.7400    3.1670   -2.3090 O   0  0  0  0  0  0  0  0  0  0  0  0
   -1.5740    3.3980   -1.5900 C   0  0  0  0  0  0  0  0  0  0  0  0
   -0.9470    2.1620   -1.0950 C   0  0  0  0  0  0  0  0  0  0  0  0
   -1.4260    0.9590   -1.3020 C   0  0  0  0  0  0  0  0  0  0  0  0
   -0.8240   -0.2210   -0.8270 O   0  0  0  0  0  0  0  0  0  0  0  0
   -0.1160   -0.1250    0.4250 C   0  0  1  0  0  0  0  0  0  0  0  0
   -1.1260    0.3250    1.4340 C   0  0  0  0  0  0  0  0  0  0  0  0
   -2.1370   -0.6510    1.4570 O   0  0  0  0  0  0  0  0  0  0  0  0
    0.2530   -1.4220    0.7230 O   0  0  0  0  0  0  0  0  0  0  0  0
    1.5980   -1.7040    0.6790 C   0  0  2  0  0  0  0  0  0  0  0  0
    1.8850   -2.5750   -0.5530 C   0  0  0  0  0  0  0  0  0  0  0  0
    1.4870   -1.8270   -1.6610 O   0  0  0  0  0  0  0  0  0  0  0  0
    2.1810   -2.1790    1.8000 O   0  0  0  0  0  0  0  0  0  0  0  0
    3.2310   -1.5790    2.3710 C   0  0  0  0  0  0  0  0  0  0  0  0
    3.0880   -0.1940    2.8390 C   0  0  0  0  0  0  0  0  0  0  0  0
    4.1430    0.3090    3.3740 O   0  0  0  0  0  0  0  0  0  0  0  0
    1.9810    0.5990    2.7690 O   0  0  0  0  0  0  0  0  0  0  0  0
  1  2  1  0
  2  3  2  0
  2  7  1  0
  3  4  1  0
  4  5  1  0
  5  6  1  0
  6  7  2  0
  7  8  1  0
  8  9  1  0
  9 10  1  1
  9 12  1  0
 10 11  1  0
 12 13  1  0
 13 14  1  6
 13 16  1  0
 14 15  1  0
 16 17  1  0
 17 18  1  0
 18 19  2  0
 18 20  1  0
M  END
