
     RDKit          3D

 23 24  0  0  0  0  0  0  0  0999 V2000
    6.3660   -0.2100    1.1480 C   0  0  0  0  0  0  0  0  0  0  0  0
    5.1690   -0.9040    0.9500 O   0  0  0  0  0  0  0  0  0  0  0  0
    4.0620   -0.3880    0.2970 C   0  0  0  0  0  0  0  0  0  0  0  0
    4.1420    0.7850   -0.1470 O   0  0  0  0  0  0  0  0  0  0  0  0
    2.8110   -1.1440    0.1040 C   0  0  0  0  0  0  0  0  0  0  0  0
    1.8130   -0.3360   -0.6210 C   0  0  0  0  0  0  0  0  0  0  0  0
    0.7380    0.2400    0.0570 C   0  0  0  0  0  0  0  0  0  0  0  0
   -0.2050    0.9960   -0.6060 C   0  0  0  0  0  0  0  0  0  0  0  0
   -1.2450    1.5400    0.1240 O   0  0  0  0  0  0  0  0  0  0  0  0
   -2.4440    0.8800    0.3410 C   0  0  0  0  0  0  0  0  0  0  0  0
   -2.5880   -0.3820   -0.2080 C   0  0  0  0  0  0  0  0  0  0  0  0
   -3.7420   -1.0870   -0.0340 C   0  0  0  0  0  0  0  0  0  0  0  0
   -4.7870   -0.5640    0.6890 C   0  0  0  0  0  0  0  0  0  0  0  0
   -5.9830   -1.3040    0.8670 N   0  0  0  0  0  0  0  0  0  0  0  0
   -6.9230   -0.8040    1.5320 O   0  0  0  0  0  0  0  0  0  0  0  0
   -6.1040   -2.5360    0.3220 O   0  0  0  0  0  0  0  0  0  0  0  0
   -4.6440    0.7080    1.2430 C   0  0  0  0  0  0  0  0  0  0  0  0
   -3.4770    1.4140    1.0640 C   0  0  0  0  0  0  0  0  0  0  0  0
   -3.3320    2.6700    1.6090 O   0  0  0  0  0  0  0  0  0  0  0  0
   -0.0590    1.1680   -1.9590 C   0  0  0  0  0  0  0  0  0  0  0  0
    1.0060    0.6010   -2.6570 C   0  0  0  0  0  0  0  0  0  0  0  0
    1.9430   -0.1530   -1.9800 C   0  0  0  0  0  0  0  0  0  0  0  0
    3.0300   -0.7460   -2.6190 O   0  0  0  0  0  0  0  0  0  0  0  0
  1  2  1  0
  2  3  1  0
  3  4  2  0
  3  5  1  0
  5  6  1  0
  6  7  2  0
  6 22  1  0
  7  8  1  0
  8  9  1  0
  8 20  2  0
  9 10  1  0
 10 11  2  0
 10 18  1  0
 11 12  1  0
 12 13  2  0
 13 14  1  0
 13 17  1  0
 14 15  2  0
 14 16  1  0
 17 18  2  0
 18 19  1  0
 20 21  1  0
 21 22  2  0
 22 23  1  0
M  CHG  2  14   1  16  -1
M  END
