
     RDKit          3D

 20 19  0  0  0  0  0  0  0  0999 V2000
    4.7990   -0.0960   -3.2770 C   0  0  0  0  0  0  0  0  0  0  0  0
    3.7790   -0.6370   -2.4920 O   0  0  0  0  0  0  0  0  0  0  0  0
    3.1020    0.0800   -1.5090 C   0  0  0  0  0  0  0  0  0  0  0  0
    3.4230    1.2630   -1.3190 O   0  0  0  0  0  0  0  0  0  0  0  0
    2.0290   -0.6200   -0.7400 C   0  0  0  0  0  0  0  0  0  0  0  0
    1.4490    0.2010    0.1920 O   0  0  0  0  0  0  0  0  0  0  0  0
    0.4280   -0.4770    0.9170 C   0  0  1  0  0  0  0  0  0  0  0  0
    1.1450   -0.7340    2.2490 C   0  0  0  0  0  0  0  0  0  0  0  0
    0.3980   -1.3840    3.1940 O   0  0  0  0  0  0  0  0  0  0  0  0
   -0.7980    0.3430    1.0370 C   0  0  1  0  0  0  0  0  0  0  0  0
   -0.5310    1.6500    1.8060 C   0  0  0  0  0  0  0  0  0  0  0  0
   -0.0880    1.4760    3.0740 O   0  0  0  0  0  0  0  0  0  0  0  0
   -1.2600    0.8270   -0.3090 C   0  0  0  0  0  0  0  0  0  0  0  0
   -1.6420   -0.1380   -1.3450 C   0  0  2  0  0  0  0  0  0  0  0  0
   -1.9900    0.6920   -2.4800 O   0  0  0  0  0  0  0  0  0  0  0  0
   -2.9780   -0.8580   -1.0960 C   0  0  0  0  0  0  0  0  0  0  0  0
   -3.3310   -1.5570   -2.2870 O   0  0  0  0  0  0  0  0  0  0  0  0
   -1.8870   -0.4130    1.6590 C   0  0  0  0  0  0  0  0  0  0  0  0
   -3.1910    0.1630    1.8910 N   0  0  0  0  0  0  0  0  0  0  0  0
   -1.7760   -1.6000    2.0320 O   0  0  0  0  0  0  0  0  0  0  0  0
  1  2  1  0
  2  3  1  0
  3  4  2  0
  3  5  1  0
  5  6  1  0
  6  7  1  0
  7  8  1  1
  7 10  1  0
  8  9  1  0
 10 11  1  1
 10 13  1  0
 10 18  1  0
 11 12  1  0
 13 14  1  0
 14 15  1  6
 14 16  1  0
 16 17  1  0
 18 19  1  0
 18 20  2  0
M  END
