
     RDKit          3D

 20 19  0  0  0  0  0  0  0  0999 V2000
   -3.4220   -2.3800   -1.6270 C   0  0  0  0  0  0  0  0  0  0  0  0
   -3.1670   -1.1080   -0.7930 C   0  0  2  0  0  0  0  0  0  0  0  0
   -1.9620   -1.3540   -0.1170 O   0  0  0  0  0  0  0  0  0  0  0  0
   -0.7900   -0.6160   -0.3520 C   0  0  0  0  0  0  0  0  0  0  0  0
   -0.8470    0.2840   -1.1990 O   0  0  0  0  0  0  0  0  0  0  0  0
    0.4070   -0.8630    0.3270 N   0  0  0  0  0  0  0  0  0  0  0  0
    1.6030   -0.1460    0.1130 C   0  0  0  0  0  0  0  0  0  0  0  0
    2.2320   -0.1850   -1.2270 C   0  0  1  0  0  0  0  0  0  0  0  0
    1.4650    0.3030   -2.2680 O   0  0  0  0  0  0  0  0  0  0  0  0
    3.4540    0.7500   -1.1560 C   0  0  0  0  0  0  0  0  0  0  0  0
    4.3040    0.3100   -0.0960 O   0  0  0  0  0  0  0  0  0  0  0  0
    5.4770    0.9540    0.2070 C   0  0  0  0  0  0  0  0  0  0  0  0
    5.7960    1.9630   -0.4850 O   0  0  0  0  0  0  0  0  0  0  0  0
    6.3470    0.4650    1.3290 C   0  0  0  0  0  0  0  0  0  0  0  0
    7.4690    1.2490    1.4630 O   0  0  0  0  0  0  0  0  0  0  0  0
   -4.2600   -0.9590    0.2420 C   0  0  2  0  0  0  0  0  0  0  0  0
   -5.4980   -0.7210   -0.3860 O   0  0  0  0  0  0  0  0  0  0  0  0
   -3.9430    0.0920    1.2540 C   0  0  0  0  0  0  0  0  0  0  0  0
   -3.7610    1.4600    0.6870 C   0  0  0  0  0  0  0  0  0  0  0  0
   -3.4680    2.3390    1.7420 O   0  0  0  0  0  0  0  0  0  0  0  0
  2  1  1  6
  2  3  1  0
  2 16  1  0
  3  4  1  0
  4  5  2  0
  4  6  1  0
  6  7  1  0
  7  8  1  0
  8  9  1  6
  8 10  1  0
 10 11  1  0
 11 12  1  0
 12 13  2  0
 12 14  1  0
 14 15  1  0
 16 17  1  6
 16 18  1  0
 18 19  1  0
 19 20  1  0
M  END
