
     RDKit          3D

 19 18  0  0  0  0  0  0  0  0999 V2000
   -4.5990    1.3550    0.1100 C   0  0  0  0  0  0  0  0  0  0  0  0
   -3.5380    0.7340   -0.5750 O   0  0  0  0  0  0  0  0  0  0  0  0
   -2.3870    1.2860   -0.0040 C   0  0  0  0  0  0  0  0  0  0  0  0
   -1.1880    0.7020   -0.6610 C   0  0  2  0  0  0  0  0  0  0  0  0
   -1.4170    0.7610   -2.0920 O   0  0  0  0  0  0  0  0  0  0  0  0
   -0.7610   -0.6170   -0.2420 C   0  0  2  0  0  0  0  0  0  0  0  0
   -0.7480   -1.7510   -1.1660 C   0  0  0  0  0  0  0  0  0  0  0  0
   -1.9200   -2.4600   -1.3050 O   0  0  0  0  0  0  0  0  0  0  0  0
   -1.2210   -0.8270    1.0580 O   0  0  0  0  0  0  0  0  0  0  0  0
   -1.3640   -2.1510    1.3660 C   0  0  0  0  0  0  0  0  0  0  0  0
    0.8270   -0.5370    0.1350 C   0  0  2  0  0  0  0  0  0  0  0  0
    0.7710    0.3960    1.3940 C   0  0  0  0  0  0  0  0  0  0  0  0
    2.1120    0.5790    2.0480 C   0  0  0  0  0  0  0  0  0  0  0  0
    2.5620   -0.6380    2.5350 O   0  0  0  0  0  0  0  0  0  0  0  0
    1.4390    0.2890   -0.9280 C   0  0  2  0  0  0  0  0  0  0  0  0
    1.2160    0.1220   -2.2220 O   0  0  0  0  0  0  0  0  0  0  0  0
    3.0330   -0.0800   -0.8530 C   0  0  0  0  0  0  0  0  0  0  0  0
    3.5010    0.9890   -1.5290 O   0  0  0  0  0  0  0  0  0  0  0  0
    4.5020    1.6180   -0.7970 N   0  0  0  0  0  0  0  0  0  0  0  0
  1  2  1  0
  2  3  1  0
  3  4  1  0
  4  5  1  6
  4  6  1  0
  6  7  1  6
  6  9  1  0
  6 11  1  0
  7  8  1  0
  9 10  1  0
 11 12  1  1
 11 15  1  0
 12 13  1  0
 13 14  1  0
 15 16  1  6
 15 17  1  0
 17 18  1  0
 18 19  1  0
M  END
