
     RDKit          3D

 19 18  0  0  0  0  0  0  0  0999 V2000
    1.4630    1.1460    1.6160 C   0  0  0  0  0  0  0  0  0  0  0  0
    2.1190    0.9810    0.3980 O   0  0  0  0  0  0  0  0  0  0  0  0
    1.8290   -0.2490   -0.1900 C   0  0  2  0  0  0  0  0  0  0  0  0
    3.0400   -0.9460   -0.2360 O   0  0  0  0  0  0  0  0  0  0  0  0
    2.9340   -2.0500    0.5810 C   0  0  0  0  0  0  0  0  0  0  0  0
    4.2120   -2.8750    0.5940 C   0  0  0  0  0  0  0  0  0  0  0  0
    5.2960   -2.1270    1.0520 O   0  0  0  0  0  0  0  0  0  0  0  0
    1.2620    0.0040   -1.5460 C   0  0  1  0  0  0  0  0  0  0  0  0
    0.9360   -1.1480   -2.2440 O   0  0  0  0  0  0  0  0  0  0  0  0
    0.0190    0.8510   -1.4040 C   0  0  0  0  0  0  0  0  0  0  0  0
   -0.9910    0.1590   -0.7070 O   0  0  0  0  0  0  0  0  0  0  0  0
   -2.2420    0.7820   -0.4730 C   0  0  0  0  0  0  0  0  0  0  0  0
   -2.2380    1.9410    0.0950 C   0  0  0  0  0  0  0  0  0  0  0  0
   -3.3710    2.8130    0.4570 C   0  0  0  0  0  0  0  0  0  0  0  0
   -3.3650    3.0320    1.8510 O   0  0  0  0  0  0  0  0  0  0  0  0
   -3.4100    0.0450   -0.9000 C   0  0  0  0  0  0  0  0  0  0  0  0
   -4.7070    0.5160   -0.7440 O   0  0  0  0  0  0  0  0  0  0  0  0
   -3.2920   -1.1410   -1.4730 C   0  0  0  0  0  0  0  0  0  0  0  0
   -2.0440   -1.6910   -1.6710 O   0  0  0  0  0  0  0  0  0  0  0  0
  1  2  1  0
  3  2  1  6
  3  4  1  0
  3  8  1  0
  4  5  1  0
  5  6  1  0
  6  7  1  0
  8  9  1  1
  8 10  1  0
 10 11  1  0
 11 12  1  0
 12 13  2  3
 12 16  1  0
 13 14  1  0
 14 15  1  0
 16 17  1  0
 16 18  2  3
 18 19  1  0
M  END
