
     RDKit          3D

 16 15  0  0  0  0  0  0  0  0999 V2000
    6.6520    0.5290   -0.0960 C   0  0  0  0  0  0  0  0  0  0  0  0
    5.9690    0.0260   -1.0930 C   0  0  0  0  0  0  0  0  0  0  0  0
    4.6190   -0.1830   -1.1870 O   0  0  0  0  0  0  0  0  0  0  0  0
    3.6480    0.0590   -0.2590 C   0  0  0  0  0  0  0  0  0  0  0  0
    3.9820    0.5340    0.8470 O   0  0  0  0  0  0  0  0  0  0  0  0
    2.2830   -0.2010   -0.4920 O   0  0  0  0  0  0  0  0  0  0  0  0
    1.3640    0.0670    0.4920 N   0  0  0  0  0  0  0  0  0  0  0  0
   -0.0080   -0.0220    0.1840 C   0  0  0  0  0  0  0  0  0  0  0  0
   -0.3410   -0.3400   -0.9700 O   0  0  0  0  0  0  0  0  0  0  0  0
   -1.0080    0.2300    1.1130 O   0  0  0  0  0  0  0  0  0  0  0  0
   -2.4050    0.1340    0.7770 C   0  0  0  0  0  0  0  0  0  0  0  0
   -2.7860   -1.1630    0.3420 N   0  0  0  0  0  0  0  0  0  0  0  0
   -3.9860   -1.5700    0.3880 C   0  0  0  0  0  0  0  0  0  0  0  0
   -4.9760   -0.7470    0.8720 O   0  0  0  0  0  0  0  0  0  0  0  0
   -5.1040    0.8630    0.1690 S   0  0  0  0  0  0  0  0  0  0  0  0
   -6.5640    0.8370   -0.8480 N   0  0  0  0  0  0  0  0  0  0  0  0
  1  2  2  0
  2  3  1  0
  3  4  1  0
  4  5  2  0
  4  6  1  0
  6  7  1  0
  7  8  1  0
  8  9  2  0
  8 10  1  0
 10 11  1  0
 11 12  1  0
 12 13  2  3
 13 14  1  0
 14 15  1  0
 15 16  1  0
M  END
