
     RDKit          3D

 16 16  0  0  0  0  0  0  0  0999 V2000
   -4.9940    1.0080   -0.0990 C   0  0  0  0  0  0  0  0  0  0  0  0
   -4.0580    0.5160    0.6910 C   0  0  0  0  0  0  0  0  0  0  0  0
   -3.0980   -0.4860    0.1610 C   0  0  0  0  0  0  0  0  0  0  0  0
   -1.7350   -0.0160    0.2530 N   0  0  0  0  0  0  0  0  0  0  0  0
   -0.6730   -0.8700   -0.2170 C   0  0  0  0  0  0  0  0  0  0  0  0
    0.5070   -0.1760   -0.0050 O   0  0  0  0  0  0  0  0  0  0  0  0
    1.8550   -0.6940   -0.3450 S   0  0  0  0  0  0  0  0  0  0  0  0
    1.4220   -1.1850   -1.7860 O   0  0  0  0  0  0  0  0  0  0  0  0
    1.5960   -1.8120    0.9760 O   0  0  0  0  0  0  0  0  0  0  0  0
    3.1680   -1.4020   -0.4930 O   0  0  0  0  0  0  0  0  0  0  0  0
    4.0880   -1.4620    0.4300 O   0  0  0  0  0  0  0  0  0  0  0  0
    5.1420   -0.7390   -0.0170 N   0  0  0  0  0  0  0  0  0  0  0  0
    5.1080    0.5750    0.3770 N   0  0  0  0  0  0  0  0  0  0  0  0
   -1.4920    1.2680    0.8030 C   0  0  0  0  0  0  0  0  0  0  0  0
   -1.1880    2.5760    0.7630 C   0  0  0  0  0  0  0  0  0  0  0  0
   -1.4350    2.0060    1.9780 O   0  0  0  0  0  0  0  0  0  0  0  0
  1  2  2  0
  2  3  1  0
  3  4  1  0
  4  5  1  0
  4 14  1  0
  5  6  1  0
  6  7  1  0
  7  8  2  0
  7  9  1  0
  7 10  1  0
 10 11  1  0
 11 12  1  0
 12 13  1  0
 14 15  2  0
 14 16  1  0
 15 16  1  0
M  END
