
     RDKit          3D

 27 28  0  0  0  0  0  0  0  0999 V2000
   -3.4770   -3.4250    1.2270 N   0  0  0  0  0  0  0  0  0  0  0  0
   -2.9710   -2.4940    0.5170 C   0  0  0  0  0  0  0  0  0  0  0  0
   -1.7880   -1.7550    0.8270 N   0  0  0  0  0  0  0  0  0  0  0  0
   -1.3060   -0.8230    0.1100 C   0  0  0  0  0  0  0  0  0  0  0  0
   -0.1010   -0.1250    0.4840 N   0  0  0  0  0  0  0  0  0  0  0  0
    0.7610    0.3140   -0.5820 C   0  0  2  0  0  0  0  0  0  0  0  0
    1.7090    1.3710   -0.0780 C   0  0  0  0  0  0  0  0  0  0  0  0
    2.5420    0.9530    0.9620 O   0  0  0  0  0  0  0  0  0  0  0  0
    3.4340   -0.0970    0.8230 C   0  0  0  0  0  0  0  0  0  0  0  0
    3.4870   -0.6790   -0.2690 O   0  0  0  0  0  0  0  0  0  0  0  0
    4.2680   -0.5290    1.8390 O   0  0  0  0  0  0  0  0  0  0  0  0
    5.3920   -1.8660    1.6310 P   0  0  0  0  0  0  0  0  0  0  0  0
    5.8450   -2.5330    3.1670 O   0  0  0  0  0  0  0  0  0  0  0  0
    7.2200   -1.0600    0.6940 P   0  0  0  0  0  0  0  0  0  0  0  0
    7.3000   -1.6020   -0.9670 O   0  0  0  0  0  0  0  0  0  0  0  0
    7.1780    0.6840    0.6440 O   0  0  0  0  0  0  0  0  0  0  0  0
   -0.0960    0.9410   -1.6520 C   0  0  0  0  0  0  0  0  0  0  0  0
   -1.2300    0.3110   -2.0040 O   0  0  0  0  0  0  0  0  0  0  0  0
   -1.9890   -0.3630   -1.1130 C   0  0  2  0  0  0  0  0  0  0  0  0
   -3.1400    0.3570   -0.6540 O   0  0  0  0  0  0  0  0  0  0  0  0
   -3.1320    1.4430    0.1620 C   0  0  0  0  0  0  0  0  0  0  0  0
   -2.0580    1.8910    0.5810 O   0  0  0  0  0  0  0  0  0  0  0  0
   -4.4580    2.0430    0.5090 C   0  0  0  0  0  0  0  0  0  0  0  0
   -4.1860    3.1850    1.3880 N   0  0  0  0  0  0  0  0  0  0  0  0
   -5.3970    3.7150    1.6920 O   0  0  0  0  0  0  0  0  0  0  0  0
   -2.6340   -1.6120   -1.7630 C   0  0  0  0  0  0  0  0  0  0  0  0
   -3.5770   -2.0720   -0.7300 N   0  0  0  0  0  0  0  0  0  0  0  0
  1  2  2  0
  2  3  1  0
  2 27  1  0
  3  4  2  0
  4  5  1  0
  4 19  1  0
  5  6  1  0
  6  7  1  1
  6 17  1  0
  7  8  1  0
  8  9  1  0
  9 10  2  0
  9 11  1  0
 11 12  1  0
 12 13  1  0
 12 14  1  0
 14 15  1  0
 14 16  1  0
 17 18  1  0
 18 19  1  0
 19 20  1  1
 19 26  1  0
 20 21  1  0
 21 22  2  0
 21 23  1  0
 23 24  1  0
 24 25  1  0
 26 27  1  0
M  END
