
     RDKit          3D

 16 15  0  0  0  0  0  0  0  0999 V2000
   -5.2790   -1.3750    0.0830 C   0  0  0  0  0  0  0  0  0  0  0  0
   -4.8100   -0.0970   -0.7670 S   0  0  0  0  0  0  0  0  0  0  0  0
   -5.7170    1.2560   -0.2090 O   0  0  0  0  0  0  0  0  0  0  0  0
   -4.9370    2.2880    0.0190 O   0  0  0  0  0  0  0  0  0  0  0  0
   -3.1510    0.2650   -0.4720 O   0  0  0  0  0  0  0  0  0  0  0  0
   -2.1770   -0.6910   -0.3020 C   0  0  0  0  0  0  0  0  0  0  0  0
   -2.5180   -1.8910   -0.3650 O   0  0  0  0  0  0  0  0  0  0  0  0
   -0.7950   -0.2950   -0.0560 C   0  0  0  0  0  0  0  0  0  0  0  0
   -0.4870    0.9160    0.0010 O   0  0  0  0  0  0  0  0  0  0  0  0
    0.2140   -1.2210    0.1210 O   0  0  0  0  0  0  0  0  0  0  0  0
    1.5270   -0.8110    0.3540 C   0  0  0  0  0  0  0  0  0  0  0  0
    2.6020   -1.7050    0.5420 N   0  0  0  0  0  0  0  0  0  0  0  0
    1.7610    0.4420    0.3980 N   0  0  0  0  0  0  0  0  0  0  0  0
    3.0040    1.0480    0.6190 C   0  0  0  0  0  0  0  0  0  0  0  0
    4.0730    0.4990    0.1790 N   0  0  0  0  0  0  0  0  0  0  0  0
    5.3500    1.1270    0.4090 C   0  0  0  0  0  0  0  0  0  0  0  0
  1  2  2  0
  2  3  1  1
  2  5  1  0
  3  4  1  0
  5  6  1  0
  6  7  2  0
  6  8  1  0
  8  9  2  0
  8 10  1  0
 10 11  1  0
 11 12  1  0
 11 13  2  3
 13 14  1  0
 14 15  2  3
 15 16  1  0
M  END
