
     RDKit          3D

 16 15  0  0  0  0  0  0  0  0999 V2000
    2.5450    0.1590    1.1190 N   0  0  0  0  0  0  0  0  0  0  0  0
    2.7290    0.3090   -0.1300 C   0  0  0  0  0  0  0  0  0  0  0  0
    4.3250    0.7960   -0.7340 S   0  0  0  0  0  0  0  0  0  0  0  0
    5.3820    0.9810    0.5930 O   0  0  0  0  0  0  0  0  0  0  0  0
    1.6180    0.0760   -1.0370 C   0  0  0  0  0  0  0  0  0  0  0  0
    1.7650    0.2150   -2.2780 O   0  0  0  0  0  0  0  0  0  0  0  0
    0.3320   -0.3140   -0.5760 N   0  0  0  0  0  0  0  0  0  0  0  0
    0.1450   -1.3980    0.0970 C   0  0  0  0  0  0  0  0  0  0  0  0
   -1.1810   -1.7540    0.5460 C   0  0  0  0  0  0  0  0  0  0  0  0
   -2.2090   -0.9840    0.2770 C   0  0  0  0  0  0  0  0  0  0  0  0
   -3.5200   -1.3650    0.7380 N   0  0  0  0  0  0  0  0  0  0  0  0
   -3.9780   -2.4870    0.3810 O   0  0  0  0  0  0  0  0  0  0  0  0
   -2.0040    0.1730   -0.4420 O   0  0  0  0  0  0  0  0  0  0  0  0
   -3.0240    0.8300   -1.0930 O   0  0  0  0  0  0  0  0  0  0  0  0
   -3.1590    2.1820   -0.9050 C   0  0  0  0  0  0  0  0  0  0  0  0
   -2.3530    2.7860   -0.1480 O   0  0  0  0  0  0  0  0  0  0  0  0
  1  2  2  0
  2  3  1  0
  2  5  1  0
  3  4  1  0
  5  6  2  0
  5  7  1  0
  7  8  2  3
  8  9  1  0
  9 10  2  3
 10 11  1  0
 10 13  1  0
 11 12  2  0
 13 14  1  0
 14 15  1  0
 15 16  2  0
M  END
