
     RDKit          3D

 16 16  0  0  0  0  0  0  0  0999 V2000
   -3.8420    0.6180   -0.2100 C   0  0  0  0  0  0  0  0  0  0  0  0
   -2.9370   -0.4430    0.1160 O   0  0  0  0  0  0  0  0  0  0  0  0
   -1.5840   -0.2500   -0.3740 C   0  0  0  0  0  0  0  0  0  0  0  0
   -1.3860    0.7290   -1.0400 O   0  0  0  0  0  0  0  0  0  0  0  0
   -0.7110   -1.2880    0.0240 C   0  0  2  0  0  0  0  0  0  0  0  0
   -0.5890   -1.3220    1.5310 N   0  0  0  0  0  0  0  0  0  0  0  0
    0.0710   -2.5550    1.6260 O   0  0  0  0  0  0  0  0  0  0  0  0
    1.1880   -2.5660    0.7520 C   0  0  0  0  0  0  0  0  0  0  0  0
    2.0840   -3.4080    0.9380 O   0  0  0  0  0  0  0  0  0  0  0  0
    0.9080   -1.2680   -0.4030 S   0  0  0  0  0  0  0  0  0  0  0  0
    1.7310   -0.6090    1.4690 O   0  0  0  0  0  0  0  0  0  0  0  0
    1.0990    0.2260   -0.3810 N   0  0  0  0  0  0  0  0  0  0  0  0
    1.7320    1.2550   -0.3940 C   0  0  0  0  0  0  0  0  0  0  0  0
    3.1960    1.1640   -0.4850 N   0  0  0  0  0  0  0  0  0  0  0  0
    1.2620    2.6030   -0.1940 C   0  0  0  0  0  0  0  0  0  0  0  0
    0.0630    2.9260    0.0720 O   0  0  0  0  0  0  0  0  0  0  0  0
  1  2  1  0
  2  3  1  0
  3  4  2  0
  5  3  1  1
  5  6  1  0
  5 10  1  0
  6  7  1  0
  7  8  1  0
  8  9  2  0
  8 10  1  0
 10 11  2  0
 10 12  1  0
 12 13  2  3
 13 14  1  0
 13 15  1  0
 15 16  2  0
M  END
