
     RDKit          3D

 15 16  0  0  0  0  0  0  0  0999 V2000
   -1.2680    2.7170   -0.8660 C   0  0  0  0  0  0  0  0  0  0  0  0
   -0.3640    2.1440    0.0790 N   0  0  0  0  0  0  0  0  0  0  0  0
   -0.4130    0.7330    0.1930 C   0  0  2  0  0  0  0  0  0  0  0  0
    0.2090    0.2480    1.2910 O   0  0  0  0  0  0  0  0  0  0  0  0
    1.5960    0.4250    1.6590 S   0  0  0  0  0  0  0  0  0  0  0  0
    2.3030    1.3920   -0.0790 O   0  0  0  0  0  0  0  0  0  0  0  0
    2.8130   -0.2900    2.0870 O   0  0  0  0  0  0  0  0  0  0  0  0
    2.4130   -0.8710    1.0140 C   0  0  0  0  0  0  0  0  0  0  0  0
    2.7030   -1.8620    0.1820 C   0  0  0  0  0  0  0  0  0  0  0  0
    3.8030   -2.7000    0.3460 O   0  0  0  0  0  0  0  0  0  0  0  0
   -0.0630   -0.0650   -1.0100 C   0  0  0  0  0  0  0  0  0  0  0  0
   -0.5480   -1.3320   -0.5980 O   0  0  0  0  0  0  0  0  0  0  0  0
   -1.5230   -1.1300    0.2770 N   0  0  0  0  0  0  0  0  0  0  0  0
   -2.6480   -1.9650    0.0020 C   0  0  0  0  0  0  0  0  0  0  0  0
   -1.8160    0.2410    0.3160 N   0  0  0  0  0  0  0  0  0  0  0  0
  1  2  1  0
  3  2  1  6
  3  4  1  0
  3 11  1  0
  3 15  1  0
  4  5  1  0
  5  6  2  0
  5  7  1  0
  5  8  1  0
  7  8  1  0
  8  9  2  3
  9 10  1  0
 11 12  1  0
 12 13  1  0
 13 14  1  0
 13 15  1  0
M  END
