
     RDKit          3D

 15 15  0  0  0  0  0  0  0  0999 V2000
    4.5450    0.1880    0.0570 C   0  0  0  0  0  0  0  0  0  0  0  0
    3.8020    0.0900   -1.1910 N   0  0  0  0  0  0  0  0  0  0  0  0
    2.5190    0.5980   -0.9580 O   0  0  0  0  0  0  0  0  0  0  0  0
    1.4310   -0.1910   -0.6110 C   0  0  0  0  0  0  0  0  0  0  0  0
    1.6140   -1.4040   -0.5080 O   0  0  0  0  0  0  0  0  0  0  0  0
    0.1590    0.3860   -0.3850 N   0  0  0  0  0  0  0  0  0  0  0  0
   -1.0330   -0.3760   -0.0200 C   0  0  1  0  0  0  0  0  0  0  0  0
   -1.8180    0.5340    0.7340 O   0  0  0  0  0  0  0  0  0  0  0  0
   -2.2690    1.5120   -0.1190 C   0  0  0  0  0  0  0  0  0  0  0  0
   -3.1250    2.8140    0.8470 S   0  0  0  0  0  0  0  0  0  0  0  0
   -2.5160    4.3560    0.3170 O   0  0  0  0  0  0  0  0  0  0  0  0
   -1.8250   -0.8610   -1.0840 N   0  0  0  0  0  0  0  0  0  0  0  0
   -2.4560   -2.0180   -0.4390 C   0  0  0  0  0  0  0  0  0  0  0  0
   -1.1910   -2.5940    0.2170 C   0  0  0  0  0  0  0  0  0  0  0  0
   -0.6290   -1.4560    0.7790 O   0  0  0  0  0  0  0  0  0  0  0  0
  1  2  1  0
  2  3  1  0
  3  4  1  0
  4  5  2  0
  4  6  1  0
  7  6  1  6
  7  8  1  0
  7 12  1  0
  7 15  1  0
  8  9  1  0
  9 10  1  0
 10 11  1  0
 12 13  1  0
 13 14  1  0
 14 15  1  0
M  END
