
     RDKit          3D

 19 19  0  0  0  0  0  0  0  0999 V2000
   -5.5300   -1.0320   -0.9580 N   0  0  0  0  0  0  0  0  0  0  0  0
   -4.5170   -0.0130   -0.8010 C   0  0  0  0  0  0  0  0  0  0  0  0
   -4.3800    0.4050    0.6510 C   0  0  2  0  0  0  0  0  0  0  0  0
   -5.6170    0.9100    1.0610 O   0  0  0  0  0  0  0  0  0  0  0  0
   -3.2900    1.4370    0.7570 C   0  0  0  0  0  0  0  0  0  0  0  0
   -2.0790    0.8930    0.3300 O   0  0  0  0  0  0  0  0  0  0  0  0
   -1.4810   -0.1560    0.9590 C   0  0  0  0  0  0  0  0  0  0  0  0
   -1.9840   -0.6900    1.9630 O   0  0  0  0  0  0  0  0  0  0  0  0
   -0.1960   -0.7020    0.4630 C   0  0  0  0  0  0  0  0  0  0  0  0
    0.6950    0.4420    0.0880 C   0  0  2  0  0  0  0  0  0  0  0  0
    0.0890    1.1900   -0.9090 O   0  0  0  0  0  0  0  0  0  0  0  0
    1.9840   -0.1120   -0.4430 C   0  0  1  0  0  0  0  0  0  0  0  0
    1.7590   -0.9140   -1.5370 O   0  0  0  0  0  0  0  0  0  0  0  0
    2.9580    0.9690   -0.8530 C   0  0  0  0  0  0  0  0  0  0  0  0
    4.2230    0.1490   -0.9810 C   0  0  0  0  0  0  0  0  0  0  0  0
    3.9400   -1.0180   -0.0960 C   0  0  1  0  0  0  0  0  0  0  0  0
    5.0610   -1.1490    0.9110 C   0  0  0  0  0  0  0  0  0  0  0  0
    5.1910   -0.0180    1.6810 O   0  0  0  0  0  0  0  0  0  0  0  0
    2.7110   -0.7980    0.5110 O   0  0  0  0  0  0  0  0  0  0  0  0
  1  2  1  0
  2  3  1  0
  3  4  1  6
  3  5  1  0
  5  6  1  0
  6  7  1  0
  7  8  2  0
  7  9  1  0
  9 10  1  0
 10 11  1  6
 10 12  1  0
 12 13  1  6
 12 14  1  0
 12 19  1  0
 14 15  1  0
 15 16  1  0
 16 17  1  1
 16 19  1  0
 17 18  1  0
M  END
