
     RDKit          3D

 20 20  0  0  0  0  0  0  0  0999 V2000
    0.4930    1.6730   -0.9770 C   0  0  0  0  0  0  0  0  0  0  0  0
    0.8340    0.2440   -0.6280 C   0  0  2  0  0  0  0  0  0  0  0  0
    0.4340   -0.5770   -1.6680 O   0  0  0  0  0  0  0  0  0  0  0  0
    0.1980   -0.1330    0.6460 C   0  0  0  0  0  0  0  0  0  0  0  0
   -1.3040   -0.0510    0.7270 C   0  0  2  0  0  0  0  0  0  0  0  0
   -1.5750   -0.4690    2.0730 O   0  0  0  0  0  0  0  0  0  0  0  0
   -2.0330   -1.0480   -0.1220 C   0  0  0  0  0  0  0  0  0  0  0  0
   -3.3430   -1.1910    0.0500 O   0  0  0  0  0  0  0  0  0  0  0  0
   -4.3030   -0.3160   -0.1610 C   0  0  2  0  0  0  0  0  0  0  0  0
   -5.5360   -0.9590    0.1800 O   0  0  0  0  0  0  0  0  0  0  0  0
   -4.4790   -0.0980   -1.5720 O   0  0  0  0  0  0  0  0  0  0  0  0
   -4.3420    0.9440    0.5120 N   0  0  0  0  0  0  0  0  0  0  0  0
   -5.5990    1.4750    0.2070 O   0  0  0  0  0  0  0  0  0  0  0  0
    2.3640    0.0940   -0.4540 C   0  0  1  0  0  0  0  0  0  0  0  0
    2.9560    0.3800   -1.8430 C   0  0  0  0  0  0  0  0  0  0  0  0
    2.9170    1.1000    0.4830 C   0  0  0  0  0  0  0  0  0  0  0  0
    3.2430    0.5950    1.7420 O   0  0  0  0  0  0  0  0  0  0  0  0
    4.1830   -0.4290    1.4770 C   0  0  0  0  0  0  0  0  0  0  0  0
    3.4480   -1.5330    0.8130 C   0  0  0  0  0  0  0  0  0  0  0  0
    2.5970   -1.2070   -0.1730 O   0  0  0  0  0  0  0  0  0  0  0  0
  2  1  1  6
  2  3  1  0
  2  4  1  0
  2 14  1  0
  4  5  1  0
  5  6  1  1
  5  7  1  0
  7  8  1  0
  8  9  1  0
  9 10  1  1
  9 11  1  0
  9 12  1  0
 12 13  1  0
 14 15  1  6
 14 16  1  0
 14 20  1  0
 16 17  1  0
 17 18  1  0
 18 19  1  0
 19 20  1  0
M  END
