
     RDKit          3D

 19 19  0  0  0  0  0  0  0  0999 V2000
   -1.0280    1.0510    1.5220 C   0  0  0  0  0  0  0  0  0  0  0  0
   -1.1830    0.1100    0.3670 C   0  0  2  0  0  0  0  0  0  0  0  0
   -2.2050    0.7000   -0.5540 C   0  0  1  0  0  0  0  0  0  0  0  0
   -3.3390    0.9060    0.3040 O   0  0  0  0  0  0  0  0  0  0  0  0
   -1.9210    2.1020   -1.0330 C   0  0  0  0  0  0  0  0  0  0  0  0
   -3.0980    2.5370   -1.7070 O   0  0  0  0  0  0  0  0  0  0  0  0
   -1.8550   -1.0240    0.9330 O   0  0  0  0  0  0  0  0  0  0  0  0
   -2.3790   -1.8590   -0.0100 C   0  0  0  0  0  0  0  0  0  0  0  0
   -1.4870   -2.1210   -1.0540 O   0  0  0  0  0  0  0  0  0  0  0  0
   -0.1710   -1.9430   -0.6080 C   0  0  0  0  0  0  0  0  0  0  0  0
    0.0420   -0.4610   -0.2250 C   0  0  1  0  0  0  0  0  0  0  0  0
    0.5630    0.2620   -1.4420 C   0  0  0  0  0  0  0  0  0  0  0  0
    1.1470   -0.4950    0.8000 C   0  0  2  0  0  0  0  0  0  0  0  0
    1.5540    0.6960    1.3060 O   0  0  0  0  0  0  0  0  0  0  0  0
    2.2750   -1.3930    0.4640 C   0  0  0  0  0  0  0  0  0  0  0  0
    3.2590   -0.9520   -0.4700 N   0  0  0  0  0  0  0  0  0  0  0  0
    4.1120    0.1790   -0.2670 C   0  0  0  0  0  0  0  0  0  0  0  0
    4.0780    0.8820    0.7620 O   0  0  0  0  0  0  0  0  0  0  0  0
    5.0240    0.5250   -1.2460 O   0  0  0  0  0  0  0  0  0  0  0  0
  2  1  1  1
  2  3  1  0
  2  7  1  0
  2 11  1  0
  3  4  1  1
  3  5  1  0
  5  6  1  0
  7  8  1  0
  8  9  1  0
  9 10  1  0
 10 11  1  0
 11 12  1  6
 11 13  1  0
 13 14  1  6
 13 15  1  0
 15 16  1  0
 16 17  1  0
 17 18  2  0
 17 19  1  0
M  END
