
     RDKit          3D

 20 20  0  0  0  0  0  0  0  0999 V2000
    4.7690    1.2510   -1.0210 O   0  0  0  0  0  0  0  0  0  0  0  0
    4.9270    0.3010   -0.2440 C   0  0  0  0  0  0  0  0  0  0  0  0
    3.9900   -0.7460   -0.1310 N   0  0  0  0  0  0  0  0  0  0  0  0
    2.7670   -0.8450   -0.8660 C   0  0  0  0  0  0  0  0  0  0  0  0
    1.7750    0.2440   -0.6110 C   0  0  1  0  0  0  0  0  0  0  0  0
    2.2940    1.4720   -0.9540 O   0  0  0  0  0  0  0  0  0  0  0  0
    0.5180    0.0490   -1.4390 C   0  0  0  0  0  0  0  0  0  0  0  0
   -0.5250   -0.7630   -0.7330 C   0  0  0  0  0  0  0  0  0  0  0  0
   -1.0090   -0.1190    0.5390 C   0  0  2  0  0  0  0  0  0  0  0  0
   -1.1780   -1.0540    1.5570 O   0  0  0  0  0  0  0  0  0  0  0  0
   -2.2720    0.6540    0.3750 C   0  0  0  0  0  0  0  0  0  0  0  0
   -3.3700   -0.1130    0.0470 O   0  0  0  0  0  0  0  0  0  0  0  0
   -4.4610    0.7130   -0.0750 C   0  0  0  0  0  0  0  0  0  0  0  0
   -5.7330   -0.0140   -0.4340 C   0  0  0  0  0  0  0  0  0  0  0  0
   -6.0720   -0.9690    0.5350 O   0  0  0  0  0  0  0  0  0  0  0  0
    0.0610    0.8570    1.0360 C   0  0  2  0  0  0  0  0  0  0  0  0
   -0.0750    2.0330    0.3260 O   0  0  0  0  0  0  0  0  0  0  0  0
    1.4310    0.2820    0.8760 C   0  0  0  0  0  0  0  0  0  0  0  0
    6.0860    0.2910    0.5390 O   0  0  0  0  0  0  0  0  0  0  0  0
    6.9660    1.2950    0.4190 O   0  0  0  0  0  0  0  0  0  0  0  0
  1  2  2  0
  2  3  1  0
  2 19  1  0
  3  4  1  0
  4  5  1  0
  5  6  1  6
  5  7  1  0
  5 18  1  0
  7  8  1  0
  8  9  1  0
  9 10  1  1
  9 11  1  0
  9 16  1  0
 11 12  1  0
 12 13  1  0
 13 14  1  0
 14 15  1  0
 16 17  1  6
 16 18  1  0
 19 20  1  0
M  END
