
     RDKit          3D

 20 20  0  0  0  0  0  0  0  0999 V2000
    3.6290   -2.4890    1.1780 C   0  0  0  0  0  0  0  0  0  0  0  0
    2.7360   -1.7750    0.2200 C   0  0  0  0  0  0  0  0  0  0  0  0
    2.6070   -2.1630   -0.9790 O   0  0  0  0  0  0  0  0  0  0  0  0
    1.9840   -0.6280    0.5910 N   0  0  0  0  0  0  0  0  0  0  0  0
    1.1090    0.0860   -0.3160 C   0  0  2  0  0  0  0  0  0  0  0  0
    1.5870    1.4920   -0.5870 C   0  0  1  0  0  0  0  0  0  0  0  0
    1.0780    1.9860   -1.7870 O   0  0  0  0  0  0  0  0  0  0  0  0
    1.1700    2.4570    0.4800 C   0  0  0  0  0  0  0  0  0  0  0  0
   -0.0860    2.3410    0.8790 C   0  0  0  0  0  0  0  0  0  0  0  0
   -0.6130    3.2300    1.9190 C   0  0  0  0  0  0  0  0  0  0  0  0
   -1.8010    3.1520    2.3240 O   0  0  0  0  0  0  0  0  0  0  0  0
    0.1710    4.2060    2.5120 O   0  0  0  0  0  0  0  0  0  0  0  0
   -0.8370    1.3550    0.2620 O   0  0  0  0  0  0  0  0  0  0  0  0
   -0.3320    0.0190    0.1120 C   0  0  1  0  0  0  0  0  0  0  0  0
   -1.1790   -0.6150   -0.9680 C   0  0  2  0  0  0  0  0  0  0  0  0
   -1.0370    0.1180   -2.1250 O   0  0  0  0  0  0  0  0  0  0  0  0
   -2.6100   -0.6570   -0.4720 C   0  0  2  0  0  0  0  0  0  0  0  0
   -2.6610   -1.4090    0.6850 O   0  0  0  0  0  0  0  0  0  0  0  0
   -3.4200   -1.3810   -1.5260 C   0  0  0  0  0  0  0  0  0  0  0  0
   -2.8420   -2.6540   -1.7220 O   0  0  0  0  0  0  0  0  0  0  0  0
  1  2  1  0
  2  3  2  0
  2  4  1  0
  5  4  1  1
  5  6  1  0
  5 14  1  0
  6  7  1  6
  6  8  1  0
  8  9  2  0
  9 10  1  0
  9 13  1  0
 10 11  2  0
 10 12  1  0
 14 13  1  6
 14 15  1  0
 15 16  1  6
 15 17  1  0
 17 18  1  1
 17 19  1  0
 19 20  1  0
M  END
