
     RDKit          3D

 19 19  0  0  0  0  0  0  0  0999 V2000
   -1.1930    1.6650    1.2410 C   0  0  0  0  0  0  0  0  0  0  0  0
   -0.2590    0.4750    0.9690 C   0  0  1  0  0  0  0  0  0  0  0  0
    0.1630    0.0510    2.2220 O   0  0  0  0  0  0  0  0  0  0  0  0
   -1.1670   -0.5950    0.3660 C   0  0  2  0  0  0  0  0  0  0  0  0
   -1.5680   -0.2480   -1.0320 C   0  0  0  0  0  0  0  0  0  0  0  0
   -2.7340   -0.8110   -1.4710 O   0  0  0  0  0  0  0  0  0  0  0  0
   -3.7670   -0.6060   -0.5970 C   0  0  2  0  0  0  0  0  0  0  0  0
   -4.2410    0.7450   -0.5210 N   0  0  0  0  0  0  0  0  0  0  0  0
   -3.3870   -1.1860    0.7390 C   0  0  0  0  0  0  0  0  0  0  0  0
   -2.2100   -0.7430    1.2440 O   0  0  0  0  0  0  0  0  0  0  0  0
    0.8420    0.8840    0.0710 C   0  0  1  0  0  0  0  0  0  0  0  0
    1.5350    1.9320    0.6730 O   0  0  0  0  0  0  0  0  0  0  0  0
    1.8490   -0.1930   -0.2690 C   0  0  2  0  0  0  0  0  0  0  0  0
    2.5390   -0.7230    0.9590 C   0  0  0  0  0  0  0  0  0  0  0  0
    3.2240    0.2680    1.6560 O   0  0  0  0  0  0  0  0  0  0  0  0
    2.8710    0.3320   -1.2230 C   0  0  0  0  0  0  0  0  0  0  0  0
    3.8930   -0.6270   -1.6580 C   0  0  0  0  0  0  0  0  0  0  0  0
    4.8920   -0.1500   -2.2750 O   0  0  0  0  0  0  0  0  0  0  0  0
    3.8860   -1.9940   -1.4730 O   0  0  0  0  0  0  0  0  0  0  0  0
  2  1  1  1
  2  3  1  0
  2  4  1  0
  2 11  1  0
  4  5  1  6
  4 10  1  0
  5  6  1  0
  6  7  1  0
  7  8  1  1
  7  9  1  0
  9 10  1  0
 11 12  1  1
 11 13  1  0
 13 14  1  1
 13 16  1  0
 14 15  1  0
 16 17  1  0
 17 18  2  0
 17 19  1  0
M  END
