
     RDKit          3D

 19 19  0  0  0  0  0  0  0  0999 V2000
   -2.6770    1.7720    0.5450 N   0  0  0  0  0  0  0  0  0  0  0  0
   -2.5440    0.6230    1.3710 C   0  0  0  0  0  0  0  0  0  0  0  0
   -3.0510   -0.5770    0.6040 C   0  0  2  0  0  0  0  0  0  0  0  0
   -2.9390   -1.7480    1.3610 O   0  0  0  0  0  0  0  0  0  0  0  0
   -2.4290   -0.6990   -0.7470 C   0  0  2  0  0  0  0  0  0  0  0  0
   -2.5720    0.5090   -1.4320 O   0  0  0  0  0  0  0  0  0  0  0  0
   -3.1810   -1.7900   -1.5260 C   0  0  0  0  0  0  0  0  0  0  0  0
   -4.5290   -1.4840   -1.6360 O   0  0  0  0  0  0  0  0  0  0  0  0
   -0.9960   -1.1210   -0.7320 C   0  0  0  0  0  0  0  0  0  0  0  0
   -0.1480   -0.2100   -0.1310 O   0  0  0  0  0  0  0  0  0  0  0  0
    1.1450   -0.7350   -0.1900 C   0  0  0  0  0  0  0  0  0  0  0  0
    2.0460    0.3040    0.4850 C   0  0  2  0  0  0  0  0  0  0  0  0
    1.6320    0.4850    1.7980 O   0  0  0  0  0  0  0  0  0  0  0  0
    1.9160    1.5940   -0.2890 C   0  0  0  0  0  0  0  0  0  0  0  0
    3.2940    2.0910   -0.6480 C   0  0  0  0  0  0  0  0  0  0  0  0
    4.1730    2.0850    0.4120 O   0  0  0  0  0  0  0  0  0  0  0  0
    4.3990    0.8460    0.9570 C   0  0  0  0  0  0  0  0  0  0  0  0
    3.4520   -0.2150    0.4450 C   0  0  1  0  0  0  0  0  0  0  0  0
    3.5480   -1.3000    1.3290 O   0  0  0  0  0  0  0  0  0  0  0  0
  1  2  1  0
  2  3  1  0
  3  4  1  1
  3  5  1  0
  5  6  1  6
  5  7  1  0
  5  9  1  0
  7  8  1  0
  9 10  1  0
 10 11  1  0
 11 12  1  0
 12 13  1  1
 12 14  1  0
 12 18  1  0
 14 15  1  0
 15 16  1  0
 16 17  1  0
 17 18  1  0
 18 19  1  1
M  END
