
     RDKit          3D

 20 20  0  0  0  0  0  0  0  0999 V2000
    1.0200   -4.0800    0.7490 C   0  0  0  0  0  0  0  0  0  0  0  0
    0.9510   -2.6490    0.8420 O   0  0  0  0  0  0  0  0  0  0  0  0
    0.2410   -1.9030   -0.0990 C   0  0  0  0  0  0  0  0  0  0  0  0
   -0.3170   -2.5780   -1.0090 O   0  0  0  0  0  0  0  0  0  0  0  0
    0.1530   -0.4190   -0.0280 C   0  0  2  0  0  0  0  0  0  0  0  0
    1.5660    0.0960   -0.0920 C   0  0  0  0  0  0  0  0  0  0  0  0
    2.3490   -0.2570    0.8280 O   0  0  0  0  0  0  0  0  0  0  0  0
    2.0370    0.9320   -1.1070 N   0  0  0  0  0  0  0  0  0  0  0  0
    3.4140    1.3830   -1.0920 C   0  0  0  0  0  0  0  0  0  0  0  0
    3.7700    2.1720    0.1310 C   0  0  0  0  0  0  0  0  0  0  0  0
    5.1250    2.5310   -0.0060 O   0  0  0  0  0  0  0  0  0  0  0  0
   -0.3940    0.0330    1.3090 C   0  0  0  0  0  0  0  0  0  0  0  0
   -1.8370   -0.3700    1.4970 C   0  0  0  0  0  0  0  0  0  0  0  0
   -2.6070    0.0060    0.2730 C   0  0  1  0  0  0  0  0  0  0  0  0
   -3.2230   -1.1010   -0.3390 O   0  0  0  0  0  0  0  0  0  0  0  0
   -3.7410    0.9590    0.6410 C   0  0  0  0  0  0  0  0  0  0  0  0
   -3.2760    2.0990    1.2550 O   0  0  0  0  0  0  0  0  0  0  0  0
   -1.7470    0.7050   -0.7320 C   0  0  2  0  0  0  0  0  0  0  0  0
   -2.5150    0.8450   -1.9050 O   0  0  0  0  0  0  0  0  0  0  0  0
   -0.6040    0.0290   -1.0770 O   0  0  0  0  0  0  0  0  0  0  0  0
  1  2  1  0
  2  3  1  0
  3  4  2  0
  5  3  1  1
  5  6  1  0
  5 12  1  0
  5 20  1  0
  6  7  2  0
  6  8  1  0
  8  9  1  0
  9 10  1  0
 10 11  1  0
 12 13  1  0
 13 14  1  0
 14 15  1  6
 14 16  1  0
 14 18  1  0
 16 17  1  0
 18 19  1  6
 18 20  1  0
M  END
