
     RDKit          3D

 11 11  0  0  0  0  0  0  0  0999 V2000
   -2.5130   -1.6850   -0.1280 O   0  0  0  0  0  0  0  0  0  0  0  0
   -1.6400   -0.5940    0.0050 C   0  0  0  0  0  0  0  0  0  0  0  0
   -2.1220    0.6870    0.2140 C   0  0  0  0  0  0  0  0  0  0  0  0
   -1.1830    1.6890    0.3320 C   0  0  0  0  0  0  0  0  0  0  0  0
    0.1740    1.4600    0.2500 C   0  0  0  0  0  0  0  0  0  0  0  0
    1.0840    2.4970    0.3730 O   0  0  0  0  0  0  0  0  0  0  0  0
    0.6390    0.1810    0.0420 C   0  0  0  0  0  0  0  0  0  0  0  0
    2.0090   -0.0460   -0.0410 O   0  0  0  0  0  0  0  0  0  0  0  0
    2.5150   -1.3290   -0.2510 C   0  0  0  0  0  0  0  0  0  0  0  0
    2.1600   -2.2260    0.7420 F   0  0  0  0  0  0  0  0  0  0  0  0
   -0.2840   -0.8340   -0.0780 C   0  0  0  0  0  0  0  0  0  0  0  0
  1  2  1  0
  2  3  2  0
  2 11  1  0
  3  4  1  0
  4  5  2  0
  5  6  1  0
  5  7  1  0
  7  8  1  0
  7 11  2  0
  8  9  1  0
  9 10  1  0
M  END
