
     RDKit          3D

 19 21  0  0  0  0  0  0  0  0999 V2000
   -4.0570   -0.3870   -0.2990 C   0  0  0  0  0  0  0  0  0  0  0  0
   -2.8110    0.1060   -0.3560 C   0  0  0  0  0  0  0  0  0  0  0  0
   -2.4730    1.4450   -0.5300 C   0  0  0  0  0  0  0  0  0  0  0  0
   -1.1010    1.5730   -0.5140 C   0  0  0  0  0  0  0  0  0  0  0  0
   -0.6220    0.2710   -0.3250 C   0  0  0  0  0  0  0  0  0  0  0  0
    0.8070    0.0020   -0.2710 C   0  0  0  0  0  0  0  0  0  0  0  0
    1.6670    0.2410   -1.2750 N   0  0  0  0  0  0  0  0  0  0  0  0
    2.8970   -0.0730   -0.9560 N   0  0  0  0  0  0  0  0  0  0  0  0
    4.0760    0.0610   -1.8160 C   0  0  0  0  0  0  0  0  0  0  0  0
    2.8640   -0.5350    0.3020 C   0  0  0  0  0  0  0  0  0  0  0  0
    4.0140   -1.0110    1.0850 C   0  0  0  0  0  0  0  0  0  0  0  0
    1.5500   -0.5010    0.7680 C   0  0  0  0  0  0  0  0  0  0  0  0
    1.0960   -0.8820    2.0610 N   0  0  0  0  0  0  0  0  0  0  0  0
   -1.6550   -0.5870   -0.2340 N   0  0  0  0  0  0  0  0  0  0  0  0
   -1.5830   -2.0190   -0.0530 C   0  0  0  0  0  0  0  0  0  0  0  0
   -1.6230   -2.4820    1.3630 C   0  0  0  0  0  0  0  0  0  0  0  0
   -0.7360    2.9350   -0.6900 N   0  0  0  0  0  0  0  0  0  0  0  0
   -1.9730    3.6660   -0.8190 C   0  0  0  0  0  0  0  0  0  0  0  0
   -3.0260    2.6380   -0.7020 C   0  0  0  0  0  0  0  0  0  0  0  0
  1  2  2  0
  2  3  1  0
  2 14  1  0
  3  4  1  0
  3 19  2  0
  4  5  2  0
  4 17  1  0
  5  6  1  0
  5 14  1  0
  6  7  2  0
  6 12  1  0
  7  8  1  0
  8  9  1  0
  8 10  1  0
 10 11  1  0
 10 12  2  0
 12 13  1  0
 14 15  1  0
 15 16  1  0
 17 18  1  0
 18 19  1  0
M  END
