
     RDKit          3D

 19 21  0  0  0  0  0  0  0  0999 V2000
   -5.1720    1.6020   -1.4350 C   0  0  0  0  0  0  0  0  0  0  0  0
   -4.9480    0.4420   -0.8430 C   0  0  0  0  0  0  0  0  0  0  0  0
   -5.8540   -0.6920   -0.6000 C   0  0  0  0  0  0  0  0  0  0  0  0
   -5.0260   -1.6940    0.1020 C   0  0  0  0  0  0  0  0  0  0  0  0
   -3.8030   -1.2290    0.2570 C   0  0  0  0  0  0  0  0  0  0  0  0
   -2.5060   -1.5670    0.7990 N   0  0  0  0  0  0  0  0  0  0  0  0
   -1.6710   -0.4560    0.5450 C   0  0  0  0  0  0  0  0  0  0  0  0
   -0.3550   -0.2630    0.8520 N   0  0  0  0  0  0  0  0  0  0  0  0
    0.2940    0.8670    0.5350 C   0  0  0  0  0  0  0  0  0  0  0  0
    1.7480    1.0350    0.8940 C   0  0  0  0  0  0  0  0  0  0  0  0
    2.5910    0.5650   -0.1480 N   0  0  0  0  0  0  0  0  0  0  0  0
    3.7130   -0.2050    0.2490 C   0  0  1  0  0  0  0  0  0  0  0  0
    4.4340    0.3150    1.4630 C   0  0  0  0  0  0  0  0  0  0  0  0
    3.4110   -1.6780    0.4210 C   0  0  0  0  0  0  0  0  0  0  0  0
    4.7310   -0.1200   -0.9010 C   0  0  0  0  0  0  0  0  0  0  0  0
   -0.4090    1.8540   -0.1240 C   0  0  0  0  0  0  0  0  0  0  0  0
   -1.7180    1.6600   -0.4270 N   0  0  0  0  0  0  0  0  0  0  0  0
   -2.3610    0.5260   -0.1060 C   0  0  0  0  0  0  0  0  0  0  0  0
   -3.6980    0.0610   -0.2960 N   0  0  0  0  0  0  0  0  0  0  0  0
  1  2  2  0
  2  3  1  0
  2 19  1  0
  3  4  1  0
  4  5  2  0
  5  6  1  0
  5 19  1  0
  6  7  1  0
  7  8  2  0
  7 18  1  0
  8  9  1  0
  9 10  1  0
  9 16  2  0
 10 11  1  0
 11 12  1  0
 12 13  1  1
 12 14  1  0
 12 15  1  0
 16 17  1  0
 17 18  2  0
 18 19  1  0
M  CHG  1  11   1
M  END
