
     RDKit          3D

 19 21  0  0  0  0  0  0  0  0999 V2000
   -2.2610   -0.5700    2.1050 C   0  0  0  0  0  0  0  0  0  0  0  0
   -1.7810    0.6100    1.3330 C   0  0  0  0  0  0  0  0  0  0  0  0
   -1.8860    0.5180   -0.1210 C   0  0  0  0  0  0  0  0  0  0  0  0
   -0.8390    0.5880   -0.8660 N   0  0  0  0  0  0  0  0  0  0  0  0
    0.4910    0.7560   -0.4100 C   0  0  0  0  0  0  0  0  0  0  0  0
    0.8350    1.8430    0.1520 N   0  0  0  0  0  0  0  0  0  0  0  0
    2.0790    2.1630    0.6480 N   0  0  0  0  0  0  0  0  0  0  0  0
    3.0030    1.2680    0.5340 C   0  0  0  0  0  0  0  0  0  0  0  0
    4.3150    1.6130    1.0600 C   0  0  0  0  0  0  0  0  0  0  0  0
    5.2820    0.7190    0.9600 C   0  0  0  0  0  0  0  0  0  0  0  0
    5.0150   -0.5260    0.3530 N   0  0  0  0  0  0  0  0  0  0  0  0
    3.8730   -0.8800   -0.1290 C   0  0  0  0  0  0  0  0  0  0  0  0
    2.7580    0.0090   -0.0730 N   0  0  0  0  0  0  0  0  0  0  0  0
    1.4660   -0.3180   -0.5870 C   0  0  1  0  0  0  0  0  0  0  0  0
    0.9470   -1.7050   -0.1040 C   0  0  0  0  0  0  0  0  0  0  0  0
    1.2600   -1.4270   -1.5420 C   0  0  0  0  0  0  0  0  0  0  0  0
   -3.1810    0.3420   -0.8330 C   0  0  2  0  0  0  0  0  0  0  0  0
   -3.9070   -0.9200   -0.4820 C   0  0  0  0  0  0  0  0  0  0  0  0
   -2.9900    0.3460   -2.3490 C   0  0  0  0  0  0  0  0  0  0  0  0
  1  2  1  0
  2  3  1  0
  3  4  2  3
  3 17  1  0
  4  5  1  0
  5  6  2  0
  5 14  1  0
  6  7  1  0
  7  8  2  0
  8  9  1  0
  8 13  1  0
  9 10  2  0
 10 11  1  0
 11 12  2  0
 12 13  1  0
 13 14  1  0
 14 15  1  1
 14 16  1  0
 15 16  1  0
 17 18  1  1
 17 19  1  0
M  CHG  1   7   1
M  END
