
     RDKit          3D

 18 21  0  0  0  0  0  0  0  0999 V2000
   -3.0660    2.8470   -0.5500 C   0  0  0  0  0  0  0  0  0  0  0  0
   -4.1040    1.9560   -0.3220 C   0  0  0  0  0  0  0  0  0  0  0  0
   -3.8500    0.6540   -0.0940 N   0  0  0  0  0  0  0  0  0  0  0  0
   -2.5770    0.1700   -0.0780 C   0  0  0  0  0  0  0  0  0  0  0  0
   -1.5580    1.0590   -0.3040 C   0  0  0  0  0  0  0  0  0  0  0  0
   -1.7690    2.3820   -0.5390 C   0  0  0  0  0  0  0  0  0  0  0  0
   -0.1250    0.9090   -0.3610 N   0  0  0  0  0  0  0  0  0  0  0  0
    0.7050   -0.0020    0.0170 C   0  0  0  0  0  0  0  0  0  0  0  0
    2.1430    0.2370   -0.2330 C   0  0  0  0  0  0  0  0  0  0  0  0
    2.7710   -0.8150    0.2330 C   0  0  0  0  0  0  0  0  0  0  0  0
    4.2470   -0.6740    0.0290 C   0  0  0  0  0  0  0  0  0  0  0  0
    4.4070    0.8310   -0.1320 C   0  0  0  0  0  0  0  0  0  0  0  0
    3.1130    1.1960   -0.8010 C   0  0  0  0  0  0  0  0  0  0  0  0
    1.8580   -1.7590    0.7870 N   0  0  0  0  0  0  0  0  0  0  0  0
    0.5600   -1.2630    0.6580 N   0  0  0  0  0  0  0  0  0  0  0  0
   -0.5820   -2.0130    1.1340 C   0  0  0  0  0  0  0  0  0  0  0  0
   -1.5810   -2.1200   -0.0030 C   0  0  0  0  0  0  0  0  0  0  0  0
   -2.7860   -1.2730    0.2040 C   0  0  0  0  0  0  0  0  0  0  0  0
  1  2  2  0
  1  6  1  0
  2  3  1  0
  3  4  2  0
  4  5  1  0
  4 18  1  0
  5  6  2  0
  5  7  1  0
  7  8  2  0
  8  9  1  0
  8 15  1  0
  9 10  2  0
  9 13  1  0
 10 11  1  0
 10 14  1  0
 11 12  1  0
 12 13  1  0
 14 15  1  0
 15 16  1  0
 16 17  1  0
 17 18  1  0
M  CHG  1   3   1
M  END
