
     RDKit          3D

 19 21  0  0  0  0  0  0  0  0999 V2000
   -1.0180   -0.5890   -3.1120 C   0  0  0  0  0  0  0  0  0  0  0  0
   -0.0060   -0.3690   -2.0200 C   0  0  0  0  0  0  0  0  0  0  0  0
    1.3060   -0.3650   -2.3000 N   0  0  0  0  0  0  0  0  0  0  0  0
    2.2510   -0.1630   -1.3210 C   0  0  0  0  0  0  0  0  0  0  0  0
    3.6120   -0.1780   -1.7280 N   0  0  0  0  0  0  0  0  0  0  0  0
    1.8610    0.0400   -0.0340 C   0  0  0  0  0  0  0  0  0  0  0  0
    2.8500    0.2610    1.0410 C   0  0  0  0  0  0  0  0  0  0  0  0
    2.4730    0.4530    2.2670 N   0  0  0  0  0  0  0  0  0  0  0  0
    3.6020    0.6410    3.1170 C   0  0  0  0  0  0  0  0  0  0  0  0
    4.7690    0.5360    2.2240 C   0  0  0  0  0  0  0  0  0  0  0  0
    4.2780    0.3120    1.0160 C   0  0  0  0  0  0  0  0  0  0  0  0
    0.5410    0.0320    0.2280 N   0  0  0  0  0  0  0  0  0  0  0  0
   -0.3910   -0.1640   -0.7160 C   0  0  0  0  0  0  0  0  0  0  0  0
   -1.7750   -0.1700   -0.4010 N   0  0  0  0  0  0  0  0  0  0  0  0
   -2.5660   -1.3710   -0.6210 C   0  0  0  0  0  0  0  0  0  0  0  0
   -3.3150   -1.7090    0.6510 C   0  0  0  0  0  0  0  0  0  0  0  0
   -4.0890   -0.5630    1.2100 C   0  0  0  0  0  0  0  0  0  0  0  0
   -3.2570    0.6900    1.3630 C   0  0  0  0  0  0  0  0  0  0  0  0
   -2.4560    0.9900    0.1410 C   0  0  0  0  0  0  0  0  0  0  0  0
  1  2  1  0
  2  3  2  0
  2 13  1  0
  3  4  1  0
  4  5  1  0
  4  6  2  0
  6  7  1  0
  6 12  1  0
  7  8  2  0
  7 11  1  0
  8  9  1  0
  9 10  1  0
 10 11  2  0
 12 13  2  0
 13 14  1  0
 14 15  1  0
 14 19  1  0
 15 16  1  0
 16 17  1  0
 17 18  1  0
 18 19  1  0
M  CHG  1   3   1
M  END
