
     RDKit          3D

 20 20  0  0  0  0  0  0  0  0999 V2000
    0.2690    4.2470   -0.2260 C   0  0  0  0  0  0  0  0  0  0  0  0
    0.6420    2.9040   -0.2330 O   0  0  0  0  0  0  0  0  0  0  0  0
   -0.4860    2.0670   -0.1600 C   0  0  0  0  0  0  0  0  0  0  0  0
    0.1350    0.6390   -0.1800 C   0  0  1  0  0  0  0  0  0  0  0  0
    0.8380    0.5870   -1.3480 O   0  0  0  0  0  0  0  0  0  0  0  0
    0.9740    0.5720    1.0230 C   0  0  2  0  0  0  0  0  0  0  0  0
    1.8810    1.6780    1.0530 O   0  0  0  0  0  0  0  0  0  0  0  0
    1.8500   -0.6390    1.1790 C   0  0  0  0  0  0  0  0  0  0  0  0
    2.8180   -0.7380    0.1240 N   0  0  0  0  0  0  0  0  0  0  0  0
    3.7600   -1.8230    0.0540 C   0  0  0  0  0  0  0  0  0  0  0  0
    3.7450   -2.7070    0.9280 O   0  0  0  0  0  0  0  0  0  0  0  0
    4.6930   -1.9140   -0.9670 O   0  0  0  0  0  0  0  0  0  0  0  0
   -1.0550   -0.2830   -0.1960 C   0  0  1  0  0  0  0  0  0  0  0  0
   -1.9200   -0.1210    1.0350 C   0  0  0  0  0  0  0  0  0  0  0  0
   -3.0540   -1.0000    1.0390 N   0  0  0  0  0  0  0  0  0  0  0  0
   -1.9290    0.1110   -1.3930 C   0  0  0  0  0  0  0  0  0  0  0  0
   -2.4770   -1.0260   -1.9080 O   0  0  0  0  0  0  0  0  0  0  0  0
   -1.6050   -2.0510   -1.6600 C   0  0  0  0  0  0  0  0  0  0  0  0
   -0.7660   -1.7120   -0.4600 C   0  0  2  0  0  0  0  0  0  0  0  0
   -1.0980   -2.5390    0.6290 O   0  0  0  0  0  0  0  0  0  0  0  0
  1  2  1  0
  2  3  1  0
  3  4  1  0
  4  5  1  6
  4  6  1  0
  4 13  1  0
  6  7  1  6
  6  8  1  0
  8  9  1  0
  9 10  1  0
 10 11  2  0
 10 12  1  0
 13 14  1  1
 13 16  1  0
 13 19  1  0
 14 15  1  0
 16 17  1  0
 17 18  1  0
 18 19  1  0
 19 20  1  1
M  CHG  1  15   1
M  END
