
     RDKit          3D

 20 20  0  0  0  0  0  0  0  0999 V2000
    2.5900   -2.5360    0.3810 N   0  0  0  0  0  0  0  0  0  0  0  0
    3.2830   -1.4020   -0.1080 C   0  0  0  0  0  0  0  0  0  0  0  0
    4.5110   -1.4890   -0.3250 O   0  0  0  0  0  0  0  0  0  0  0  0
    2.5500   -0.1440   -0.3510 C   0  0  2  0  0  0  0  0  0  0  0  0
    3.2050    0.9720    0.4320 C   0  0  0  0  0  0  0  0  0  0  0  0
    4.6150    1.0880    0.1120 N   0  0  0  0  0  0  0  0  0  0  0  0
    1.1750   -0.2600   -0.0410 O   0  0  0  0  0  0  0  0  0  0  0  0
    0.1860   -0.0150   -0.9810 C   0  0  0  0  0  0  0  0  0  0  0  0
    0.5850    0.3170   -2.1280 O   0  0  0  0  0  0  0  0  0  0  0  0
   -1.2640   -0.1310   -0.6790 C   0  0  1  0  0  0  0  0  0  0  0  0
   -2.1330    0.1780   -1.8340 C   0  0  0  0  0  0  0  0  0  0  0  0
   -2.0550    1.4000   -2.4100 O   0  0  0  0  0  0  0  0  0  0  0  0
   -1.4580   -1.6610   -0.4760 C   0  0  0  0  0  0  0  0  0  0  0  0
   -2.8390   -1.9030   -0.3050 O   0  0  0  0  0  0  0  0  0  0  0  0
   -3.1170   -1.5540    1.0160 C   0  0  0  0  0  0  0  0  0  0  0  0
   -2.9770   -0.0610    1.1430 C   0  0  0  0  0  0  0  0  0  0  0  0
   -1.6610    0.4540    0.6380 C   0  0  1  0  0  0  0  0  0  0  0  0
   -0.6960    0.0760    1.5910 O   0  0  0  0  0  0  0  0  0  0  0  0
   -1.7100    1.9570    0.6890 C   0  0  0  0  0  0  0  0  0  0  0  0
   -2.6230    2.5170   -0.1610 O   0  0  0  0  0  0  0  0  0  0  0  0
  1  2  1  0
  2  3  2  0
  2  4  1  0
  4  5  1  1
  4  7  1  0
  5  6  1  0
  7  8  1  0
  8  9  2  0
  8 10  1  0
 10 11  1  6
 10 13  1  0
 10 17  1  0
 11 12  1  0
 13 14  1  0
 14 15  1  0
 15 16  1  0
 16 17  1  0
 17 18  1  1
 17 19  1  0
 19 20  1  0
M  CHG  1   6   1
M  END
