
     RDKit          3D

 19 19  0  0  0  0  0  0  0  0999 V2000
   -3.4820   -2.6850   -1.0230 C   0  0  0  0  0  0  0  0  0  0  0  0
   -2.3000   -2.2750   -1.3730 O   0  0  0  0  0  0  0  0  0  0  0  0
   -1.2180   -1.7630   -0.9450 C   0  0  0  0  0  0  0  0  0  0  0  0
   -1.0870   -0.4680   -0.2000 C   0  0  2  0  0  0  0  0  0  0  0  0
   -1.7750   -0.4870    1.1310 C   0  0  0  0  0  0  0  0  0  0  0  0
   -3.1220   -0.7090    1.1220 O   0  0  0  0  0  0  0  0  0  0  0  0
   -1.7130    0.5890   -1.1100 C   0  0  0  0  0  0  0  0  0  0  0  0
   -1.1420    1.8100   -1.0840 O   0  0  0  0  0  0  0  0  0  0  0  0
    0.1820    1.9370   -0.8250 C   0  0  1  0  0  0  0  0  0  0  0  0
    0.4530    3.4140   -0.5230 C   0  0  0  0  0  0  0  0  0  0  0  0
   -0.4230    3.7360    0.6930 C   0  0  0  0  0  0  0  0  0  0  0  0
   -0.2770    5.0610    1.0760 O   0  0  0  0  0  0  0  0  0  0  0  0
    0.4920    1.2220    0.3350 O   0  0  0  0  0  0  0  0  0  0  0  0
    0.3620   -0.1180   -0.0170 C   0  0  1  0  0  0  0  0  0  0  0  0
    1.0970   -0.9170    0.9010 N   0  0  0  0  0  0  0  0  0  0  0  0
    2.4900   -0.8920    0.4410 C   0  0  2  0  0  0  0  0  0  0  0  0
    2.6390   -1.9140   -0.5660 N   0  0  0  0  0  0  0  0  0  0  0  0
    3.4830   -0.9610    1.5570 C   0  0  0  0  0  0  0  0  0  0  0  0
    4.7490   -0.9230    0.9570 O   0  0  0  0  0  0  0  0  0  0  0  0
  1  2  1  0
  2  3  1  0
  4  3  1  6
  4  5  1  0
  4  7  1  0
  4 14  1  0
  5  6  1  0
  7  8  1  0
  8  9  1  0
  9 10  1  1
  9 13  1  0
 10 11  1  0
 11 12  1  0
 13 14  1  0
 14 15  1  1
 15 16  1  0
 16 17  1  6
 16 18  1  0
 18 19  1  0
M  CHG  1  17   1
M  END
