
     RDKit          3D

 20 20  0  0  0  0  0  0  0  0999 V2000
    6.2780    1.9860   -0.0160 N   0  0  0  0  0  0  0  0  0  0  0  0
    5.0400    1.7700    0.6480 C   0  0  0  0  0  0  0  0  0  0  0  0
    4.7460    2.4380    1.6890 O   0  0  0  0  0  0  0  0  0  0  0  0
    4.1020    0.8350    0.2030 O   0  0  0  0  0  0  0  0  0  0  0  0
    2.9040    0.6140    0.8310 C   0  0  0  0  0  0  0  0  0  0  0  0
    2.6220    1.2860    1.8670 O   0  0  0  0  0  0  0  0  0  0  0  0
    1.8890   -0.3780    0.3740 C   0  0  1  0  0  0  0  0  0  0  0  0
    2.4170   -1.0190   -0.8090 N   0  0  0  0  0  0  0  0  0  0  0  0
    1.5950   -1.3990    1.4510 C   0  0  0  0  0  0  0  0  0  0  0  0
    0.3920   -2.2100    0.9900 C   0  0  0  0  0  0  0  0  0  0  0  0
   -0.7140   -1.4230    0.7690 O   0  0  0  0  0  0  0  0  0  0  0  0
   -0.4920   -0.6010   -0.3140 C   0  0  1  0  0  0  0  0  0  0  0  0
   -1.7070    0.2330   -0.6580 C   0  0  1  0  0  0  0  0  0  0  0  0
   -1.4120    1.0360   -1.7560 O   0  0  0  0  0  0  0  0  0  0  0  0
   -2.9240   -0.6100   -0.8920 C   0  0  0  0  0  0  0  0  0  0  0  0
   -4.1080    0.2680   -1.2350 C   0  0  1  0  0  0  0  0  0  0  0  0
   -5.2330   -0.5690   -1.4500 O   0  0  0  0  0  0  0  0  0  0  0  0
   -4.4690    1.1540   -0.0550 C   0  0  0  0  0  0  0  0  0  0  0  0
   -4.7130    0.3450    1.0400 O   0  0  0  0  0  0  0  0  0  0  0  0
    0.6090    0.3770    0.0900 C   0  0  0  0  0  0  0  0  0  0  0  0
  1  2  1  0
  2  3  2  0
  2  4  1  0
  4  5  1  0
  5  6  2  0
  5  7  1  0
  7  8  1  6
  7  9  1  0
  7 20  1  0
  9 10  1  0
 10 11  1  0
 11 12  1  0
 12 13  1  0
 12 20  1  1
 13 14  1  6
 13 15  1  0
 15 16  1  0
 16 17  1  1
 16 18  1  0
 18 19  1  0
M  CHG  1   8   1
M  END
