
     RDKit          3D

 20 20  0  0  0  0  0  0  0  0999 V2000
    3.1790   -2.9100   -0.4040 C   0  0  0  0  0  0  0  0  0  0  0  0
    2.4230   -1.7850   -1.0030 C   0  0  0  0  0  0  0  0  0  0  0  0
    2.2490   -1.6610   -2.2470 O   0  0  0  0  0  0  0  0  0  0  0  0
    1.8610   -0.7940   -0.1690 N   0  0  0  0  0  0  0  0  0  0  0  0
    1.1030    0.3450   -0.6740 C   0  0  2  0  0  0  0  0  0  0  0  0
    1.8740    1.5910   -0.3730 C   0  0  1  0  0  0  0  0  0  0  0  0
    1.5770    2.6040   -1.2960 O   0  0  0  0  0  0  0  0  0  0  0  0
    1.6600    2.0740    1.0220 C   0  0  0  0  0  0  0  0  0  0  0  0
    0.4260    1.9990    1.4950 C   0  0  0  0  0  0  0  0  0  0  0  0
    0.1050    2.4510    2.8630 C   0  0  0  0  0  0  0  0  0  0  0  0
   -1.0590    2.3880    3.3290 O   0  0  0  0  0  0  0  0  0  0  0  0
    1.0950    2.9650    3.6870 O   0  0  0  0  0  0  0  0  0  0  0  0
   -0.5250    1.4800    0.6380 O   0  0  0  0  0  0  0  0  0  0  0  0
   -0.2710    0.2820   -0.1070 C   0  0  1  0  0  0  0  0  0  0  0  0
   -1.3480    0.1700   -1.1710 C   0  0  2  0  0  0  0  0  0  0  0  0
   -1.3220    1.2700   -2.0260 O   0  0  0  0  0  0  0  0  0  0  0  0
   -2.6860    0.0170   -0.5040 C   0  0  2  0  0  0  0  0  0  0  0  0
   -3.0370    1.1150    0.2600 O   0  0  0  0  0  0  0  0  0  0  0  0
   -2.8110   -1.2050    0.3310 C   0  0  0  0  0  0  0  0  0  0  0  0
   -2.4680   -2.4260   -0.3610 N   0  0  0  0  0  0  0  0  0  0  0  0
  1  2  1  0
  2  3  2  0
  2  4  1  0
  5  4  1  1
  5  6  1  0
  5 14  1  0
  6  7  1  6
  6  8  1  0
  8  9  2  0
  9 10  1  0
  9 13  1  0
 10 11  2  0
 10 12  1  0
 14 13  1  6
 14 15  1  0
 15 16  1  1
 15 17  1  0
 17 18  1  1
 17 19  1  0
 19 20  1  0
M  CHG  1  20   1
M  END
