
     RDKit          3D

 19 19  0  0  0  0  0  0  0  0999 V2000
    3.4890    2.5200    0.1750 C   0  0  0  0  0  0  0  0  0  0  0  0
    2.8620    1.4240   -0.4190 O   0  0  0  0  0  0  0  0  0  0  0  0
    2.7910    0.4220    0.5130 C   0  0  0  0  0  0  0  0  0  0  0  0
    2.1530   -0.8430    0.0770 C   0  0  1  0  0  0  0  0  0  0  0  0
    2.1880   -1.7150    1.1870 O   0  0  0  0  0  0  0  0  0  0  0  0
    0.7080   -0.6910   -0.3390 C   0  0  1  0  0  0  0  0  0  0  0  0
    0.2600   -2.0010   -0.6620 O   0  0  0  0  0  0  0  0  0  0  0  0
   -0.1690   -0.1620    0.7220 C   0  0  0  0  0  0  0  0  0  0  0  0
   -1.5850    0.0300    0.2960 C   0  0  1  0  0  0  0  0  0  0  0  0
   -2.2460   -1.2240   -0.1470 C   0  0  0  0  0  0  0  0  0  0  0  0
   -2.0970   -2.1890    0.8580 O   0  0  0  0  0  0  0  0  0  0  0  0
   -2.4100    0.5200    1.5150 C   0  0  0  0  0  0  0  0  0  0  0  0
   -3.6800    1.0020    1.0920 N   0  0  0  0  0  0  0  0  0  0  0  0
   -3.6540    1.9510    0.0090 C   0  0  0  0  0  0  0  0  0  0  0  0
   -2.9030    1.3100   -1.1390 C   0  0  0  0  0  0  0  0  0  0  0  0
   -1.6590    0.9780   -0.7100 O   0  0  0  0  0  0  0  0  0  0  0  0
    2.8820   -1.5570   -1.0360 C   0  0  2  0  0  0  0  0  0  0  0  0
    2.9580   -0.8330   -2.2640 N   0  0  0  0  0  0  0  0  0  0  0  0
    2.3460   -2.8290   -1.2420 O   0  0  0  0  0  0  0  0  0  0  0  0
  1  2  1  0
  2  3  1  0
  3  4  1  0
  4  5  1  1
  4  6  1  0
  4 17  1  0
  6  7  1  1
  6  8  1  0
  9  8  1  1
  9 10  1  0
  9 12  1  0
  9 16  1  0
 10 11  1  0
 12 13  1  0
 13 14  1  0
 14 15  1  0
 15 16  1  0
 17 18  1  6
 17 19  1  0
M  CHG  1  13   1
M  END
