
     RDKit          3D

 20 20  0  0  0  0  0  0  0  0999 V2000
   -4.3740    2.2990   -0.3980 C   0  0  0  0  0  0  0  0  0  0  0  0
   -5.2120    1.2710   -0.1720 O   0  0  0  0  0  0  0  0  0  0  0  0
   -4.8190    0.2800    0.6400 C   0  0  0  0  0  0  0  0  0  0  0  0
   -3.5640   -0.4550    0.1370 C   0  0  0  0  0  0  0  0  0  0  0  0
   -2.5710    0.3970    0.0610 O   0  0  0  0  0  0  0  0  0  0  0  0
   -1.3180    0.2230   -0.3490 C   0  0  0  0  0  0  0  0  0  0  0  0
   -0.5610   -0.8150    0.4690 C   0  0  2  0  0  0  0  0  0  0  0  0
   -1.1370   -2.1770    0.2660 C   0  0  0  0  0  0  0  0  0  0  0  0
   -0.6900   -0.4000    1.8120 O   0  0  0  0  0  0  0  0  0  0  0  0
    0.9160   -0.7970    0.1200 C   0  0  1  0  0  0  0  0  0  0  0  0
    1.5880    0.5740    0.3350 C   0  0  0  0  0  0  0  0  0  0  0  0
    2.9710    0.4180   -0.0170 O   0  0  0  0  0  0  0  0  0  0  0  0
    3.7710    1.5370    0.1020 C   0  0  0  0  0  0  0  0  0  0  0  0
    3.3100    2.6260    0.4960 O   0  0  0  0  0  0  0  0  0  0  0  0
    5.1140    1.4290   -0.2270 O   0  0  0  0  0  0  0  0  0  0  0  0
    5.9170    2.5480   -0.1090 N   0  0  0  0  0  0  0  0  0  0  0  0
    1.8360   -1.9200    0.4030 C   0  0  1  0  0  0  0  0  0  0  0  0
    1.4820   -3.1910    0.9150 N   0  0  0  0  0  0  0  0  0  0  0  0
    1.4190   -1.5850   -1.0230 C   0  0  2  0  0  0  0  0  0  0  0  0
    2.4500   -1.0500   -1.8240 O   0  0  0  0  0  0  0  0  0  0  0  0
  1  2  1  0
  2  3  1  0
  3  4  1  0
  4  5  1  0
  5  6  1  0
  6  7  1  0
  7  8  1  1
  7  9  1  0
  7 10  1  0
 10 11  1  6
 10 17  1  0
 10 19  1  0
 11 12  1  0
 12 13  1  0
 13 14  2  0
 13 15  1  0
 15 16  1  0
 17 18  1  1
 17 19  1  0
 19 20  1  6
M  CHG  1  16   1
M  END
