
     RDKit          3D

 20 20  0  0  0  0  0  0  0  0999 V2000
    3.8140    2.1920   -0.7040 C   0  0  0  0  0  0  0  0  0  0  0  0
    3.4420    0.8540   -0.9180 O   0  0  0  0  0  0  0  0  0  0  0  0
    3.4210    0.1760    0.3080 C   0  0  0  0  0  0  0  0  0  0  0  0
    3.0180   -1.2570    0.0470 C   0  0  0  0  0  0  0  0  0  0  0  0
    1.7890   -1.2760   -0.5230 O   0  0  0  0  0  0  0  0  0  0  0  0
    0.7400   -0.7430    0.2080 C   0  0  2  0  0  0  0  0  0  0  0  0
   -0.2720   -1.8080    0.5000 C   0  0  0  0  0  0  0  0  0  0  0  0
   -1.4870   -1.7440   -0.3700 C   0  0  1  0  0  0  0  0  0  0  0  0
   -1.1380   -2.1580   -1.6510 O   0  0  0  0  0  0  0  0  0  0  0  0
   -2.4670   -2.7460    0.1480 C   0  0  0  0  0  0  0  0  0  0  0  0
   -2.9240   -2.5580    1.3220 O   0  0  0  0  0  0  0  0  0  0  0  0
   -2.8840   -3.8390   -0.5800 O   0  0  0  0  0  0  0  0  0  0  0  0
   -2.1620   -0.4150   -0.3950 C   0  0  1  0  0  0  0  0  0  0  0  0
   -3.0950   -0.4070    0.6700 O   0  0  0  0  0  0  0  0  0  0  0  0
   -1.2250    0.7550   -0.3130 C   0  0  1  0  0  0  0  0  0  0  0  0
   -1.6330    1.7050   -1.3310 N   0  0  0  0  0  0  0  0  0  0  0  0
   -1.4230    1.3880    1.0070 C   0  0  0  0  0  0  0  0  0  0  0  0
   -1.9350    2.7060    1.0650 N   0  0  0  0  0  0  0  0  0  0  0  0
   -1.1560    0.8070    2.0840 O   0  0  0  0  0  0  0  0  0  0  0  0
    0.2060    0.4230   -0.5620 C   0  0  0  0  0  0  0  0  0  0  0  0
  1  2  1  0
  2  3  1  0
  3  4  1  0
  4  5  1  0
  6  5  1  6
  6  7  1  0
  6 20  1  0
  7  8  1  0
  8  9  1  6
  8 10  1  0
  8 13  1  0
 10 11  2  0
 10 12  1  0
 13 14  1  1
 13 15  1  0
 15 16  1  6
 15 17  1  0
 15 20  1  0
 17 18  1  0
 17 19  2  0
M  CHG  1  16   1
M  END
