
     RDKit          3D

 20 20  0  0  0  0  0  0  0  0999 V2000
    4.8250    0.3460    0.6870 C   0  0  0  0  0  0  0  0  0  0  0  0
    3.8080   -0.5150    0.4070 O   0  0  0  0  0  0  0  0  0  0  0  0
    2.6850   -0.0050   -0.1770 C   0  0  2  0  0  0  0  0  0  0  0  0
    3.0170    0.5780   -1.4020 O   0  0  0  0  0  0  0  0  0  0  0  0
    2.0000    0.9780    0.6970 C   0  0  0  0  0  0  0  0  0  0  0  0
    0.8360    1.6120    0.1340 N   0  0  0  0  0  0  0  0  0  0  0  0
    0.0820    0.8330   -0.7830 C   0  0  0  0  0  0  0  0  0  0  0  0
   -0.4730   -0.4380   -0.1470 C   0  0  2  0  0  0  0  0  0  0  0  0
   -1.0450   -1.3100   -1.2080 C   0  0  0  0  0  0  0  0  0  0  0  0
   -1.5830   -2.5990   -0.6860 C   0  0  1  0  0  0  0  0  0  0  0  0
   -2.6180   -2.5160    0.2180 O   0  0  0  0  0  0  0  0  0  0  0  0
   -1.9550   -3.4270   -1.7850 O   0  0  0  0  0  0  0  0  0  0  0  0
   -1.4270   -0.1460    0.9480 C   0  0  0  0  0  0  0  0  0  0  0  0
   -2.6780    0.5820    0.6460 C   0  0  1  0  0  0  0  0  0  0  0  0
   -3.4400    0.7220    1.8700 O   0  0  0  0  0  0  0  0  0  0  0  0
   -2.5590    1.9440    0.1950 N   0  0  0  0  0  0  0  0  0  0  0  0
   -3.3900    2.3740   -0.9100 C   0  0  0  0  0  0  0  0  0  0  0  0
   -4.1890    1.5650   -1.4490 O   0  0  0  0  0  0  0  0  0  0  0  0
    0.6240   -1.0900    0.4110 O   0  0  0  0  0  0  0  0  0  0  0  0
    1.7260   -1.1850   -0.3880 C   0  0  0  0  0  0  0  0  0  0  0  0
  1  2  1  0
  2  3  1  0
  3  4  1  6
  3  5  1  0
  3 20  1  0
  5  6  1  0
  6  7  1  0
  7  8  1  0
  8  9  1  6
  8 13  1  0
  8 19  1  0
  9 10  1  0
 10 11  1  1
 10 12  1  0
 13 14  1  0
 14 15  1  1
 14 16  1  0
 16 17  1  0
 17 18  2  0
 19 20  1  0
M  CHG  1   6   1
M  END
