
     RDKit          3D

 11 12  0  0  0  0  0  0  0  0999 V2000
    2.6550   -0.2160   -0.4000 N   0  0  0  0  0  0  0  0  0  0  0  0
    1.4350    0.4640   -0.1270 C   0  0  0  0  0  0  0  0  0  0  0  0
    1.2370    1.7760    0.1030 N   0  0  0  0  0  0  0  0  0  0  0  0
   -0.0470    2.0150    0.3170 N   0  0  0  0  0  0  0  0  0  0  0  0
   -0.7510    0.8640    0.2360 C   0  0  0  0  0  0  0  0  0  0  0  0
   -2.1010    0.5780    0.3770 C   0  0  0  0  0  0  0  0  0  0  0  0
   -2.4590   -0.7100    0.2270 N   0  0  0  0  0  0  0  0  0  0  0  0
   -1.5680   -1.6580   -0.0420 N   0  0  0  0  0  0  0  0  0  0  0  0
   -0.2560   -1.4120   -0.1840 C   0  0  0  0  0  0  0  0  0  0  0  0
    0.5950   -2.3040   -0.4390 O   0  0  0  0  0  0  0  0  0  0  0  0
    0.1830   -0.1110   -0.0440 C   0  0  0  0  0  0  0  0  0  0  0  0
  1  2  1  0
  2  3  2  0
  2 11  1  0
  3  4  1  0
  4  5  1  0
  5  6  1  0
  5 11  2  0
  6  7  2  0
  7  8  1  0
  8  9  1  0
  9 10  2  0
  9 11  1  0
M  END
