
     RDKit          3D

 11 12  0  0  0  0  0  0  0  0999 V2000
   -2.0510   -1.1550   -0.1030 N   0  0  0  0  0  0  0  0  0  0  0  0
   -1.2430   -0.0050    0.0470 C   0  0  0  0  0  0  0  0  0  0  0  0
   -1.8390    1.2050    0.2620 C   0  0  0  0  0  0  0  0  0  0  0  0
   -1.0420    2.2750    0.4000 N   0  0  0  0  0  0  0  0  0  0  0  0
    0.2750    2.1730    0.3320 N   0  0  0  0  0  0  0  0  0  0  0  0
    0.8970    1.0040    0.1220 C   0  0  0  0  0  0  0  0  0  0  0  0
    2.1900    0.6150    0.0100 N   0  0  0  0  0  0  0  0  0  0  0  0
    2.2560   -0.7130   -0.2030 C   0  0  0  0  0  0  0  0  0  0  0  0
    3.3130   -1.3920   -0.3520 O   0  0  0  0  0  0  0  0  0  0  0  0
    0.9820   -1.1530   -0.2220 N   0  0  0  0  0  0  0  0  0  0  0  0
    0.1240   -0.1310   -0.0270 C   0  0  0  0  0  0  0  0  0  0  0  0
  1  2  1  0
  2  3  2  0
  2 11  1  0
  3  4  1  0
  4  5  2  0
  5  6  1  0
  6  7  1  0
  6 11  2  0
  7  8  1  0
  8  9  2  0
  8 10  1  0
 10 11  1  0
M  END
