
     RDKit          3D

 11 12  0  0  0  0  0  0  0  0999 V2000
    3.1240    0.2850    0.0740 N   0  0  0  0  0  0  0  0  0  0  0  0
    1.7220    0.0540   -0.0680 C   0  0  0  0  0  0  0  0  0  0  0  0
    1.2810   -0.8250   -0.9860 N   0  0  0  0  0  0  0  0  0  0  0  0
   -0.0410   -1.0650   -1.1430 C   0  0  0  0  0  0  0  0  0  0  0  0
   -0.4790   -1.8900   -2.0030 O   0  0  0  0  0  0  0  0  0  0  0  0
   -0.9880   -0.4170   -0.3700 C   0  0  0  0  0  0  0  0  0  0  0  0
   -2.3660   -0.4390   -0.2880 C   0  0  0  0  0  0  0  0  0  0  0  0
   -2.7070    0.4370    0.6860 N   0  0  0  0  0  0  0  0  0  0  0  0
   -1.6110    0.9810    1.1900 N   0  0  0  0  0  0  0  0  0  0  0  0
   -0.5130    0.4800    0.5640 C   0  0  0  0  0  0  0  0  0  0  0  0
    0.8150    0.6920    0.6920 N   0  0  0  0  0  0  0  0  0  0  0  0
  1  2  1  0
  2  3  2  0
  2 11  1  0
  3  4  1  0
  4  5  2  0
  4  6  1  0
  6  7  2  0
  6 10  1  0
  7  8  1  0
  8  9  1  0
  9 10  2  0
 10 11  1  0
M  END
