
     RDKit          3D

 11 12  0  0  0  0  0  0  0  0999 V2000
    3.1840   -0.6680   -0.0250 N   0  0  0  0  0  0  0  0  0  0  0  0
    1.9190   -0.3850   -0.0130 C   0  0  0  0  0  0  0  0  0  0  0  0
    1.3460    0.8270    0.1300 N   0  0  0  0  0  0  0  0  0  0  0  0
    0.0090    0.7350    0.0930 C   0  0  0  0  0  0  0  0  0  0  0  0
   -1.0420    1.6230    0.1860 C   0  0  0  0  0  0  0  0  0  0  0  0
   -2.3190    1.1770    0.1050 N   0  0  0  0  0  0  0  0  0  0  0  0
   -2.6090   -0.1020   -0.0620 N   0  0  0  0  0  0  0  0  0  0  0  0
   -1.5890   -0.9740   -0.1530 C   0  0  0  0  0  0  0  0  0  0  0  0
   -1.8440   -2.1990   -0.3120 O   0  0  0  0  0  0  0  0  0  0  0  0
   -0.2690   -0.6050   -0.0810 C   0  0  0  0  0  0  0  0  0  0  0  0
    0.9110   -1.2530   -0.1410 N   0  0  0  0  0  0  0  0  0  0  0  0
  1  2  2  0
  2  3  1  0
  2 11  1  0
  3  4  1  0
  4  5  1  0
  4 10  2  0
  5  6  2  0
  6  7  1  0
  7  8  1  0
  8  9  2  0
  8 10  1  0
 10 11  1  0
M  END
