
     RDKit          3D

 11 12  0  0  0  0  0  0  0  0999 V2000
   -2.3830   -1.1240   -0.0820 N   0  0  0  0  0  0  0  0  0  0  0  0
   -1.4800   -0.0220   -0.1220 C   0  0  0  0  0  0  0  0  0  0  0  0
   -1.9070    1.2380   -0.2920 N   0  0  0  0  0  0  0  0  0  0  0  0
   -1.0810    2.2640   -0.3320 N   0  0  0  0  0  0  0  0  0  0  0  0
    0.2490    2.1220   -0.2040 C   0  0  0  0  0  0  0  0  0  0  0  0
    0.7550    0.8520   -0.0270 C   0  0  0  0  0  0  0  0  0  0  0  0
    2.0190    0.3600    0.1320 N   0  0  0  0  0  0  0  0  0  0  0  0
    1.9040   -0.9640    0.2630 C   0  0  0  0  0  0  0  0  0  0  0  0
    2.8460   -1.7660    0.4280 O   0  0  0  0  0  0  0  0  0  0  0  0
    0.6060   -1.3430    0.1940 N   0  0  0  0  0  0  0  0  0  0  0  0
   -0.1070   -0.2180    0.0140 C   0  0  0  0  0  0  0  0  0  0  0  0
  1  2  1  0
  2  3  2  0
  2 11  1  0
  3  4  1  0
  4  5  2  0
  5  6  1  0
  6  7  1  0
  6 11  2  0
  7  8  1  0
  8  9  2  0
  8 10  1  0
 10 11  1  0
M  END
