
     RDKit          3D

 14 13  0  0  0  0  0  0  0  0999 V2000
   -1.5010   -0.8070   -1.8380 C   0  0  0  0  0  0  0  0  0  0  0  0
   -2.0850   -0.9780   -0.6730 C   0  0  0  0  0  0  0  0  0  0  0  0
   -3.3020   -1.6250   -0.5650 O   0  0  0  0  0  0  0  0  0  0  0  0
   -1.4430   -0.4750    0.5600 C   0  0  1  0  0  0  0  0  0  0  0  0
   -0.2180    0.1330    0.3490 O   0  0  0  0  0  0  0  0  0  0  0  0
    0.7190   -0.5260    1.1270 C   0  0  0  0  0  0  0  0  0  0  0  0
    2.0020    0.0180    0.9860 O   0  0  0  0  0  0  0  0  0  0  0  0
    2.6540    0.0550   -0.2340 C   0  0  0  0  0  0  0  0  0  0  0  0
    2.0790   -0.4100   -1.2330 O   0  0  0  0  0  0  0  0  0  0  0  0
    4.0180    0.6360   -0.3670 C   0  0  0  0  0  0  0  0  0  0  0  0
    4.4630    1.0960    0.8830 O   0  0  0  0  0  0  0  0  0  0  0  0
   -2.6500    0.7080    1.3420 P   0  0  0  0  0  0  0  0  0  0  0  0
   -3.8970    1.1590    0.2260 O   0  0  0  0  0  0  0  0  0  0  0  0
   -1.7730    2.1190    1.8420 O   0  0  0  0  0  0  0  0  0  0  0  0
  1  2  2  0
  2  3  1  0
  2  4  1  0
  4  5  1  6
  4 12  1  0
  5  6  1  0
  6  7  1  0
  7  8  1  0
  8  9  2  0
  8 10  1  0
 10 11  1  0
 12 13  1  0
 12 14  1  0
M  END
