
     RDKit          3D

 28 29  0  0  0  0  0  0  0  0999 V2000
   -6.0930    0.5280    1.2070 C   0  0  0  0  0  0  0  0  0  0  0  0
   -5.4270   -0.4820    0.3210 C   0  0  1  0  0  0  0  0  0  0  0  0
   -6.0860   -1.8340    0.6260 C   0  0  0  0  0  0  0  0  0  0  0  0
   -5.7140   -0.1990   -1.1370 C   0  0  0  0  0  0  0  0  0  0  0  0
   -4.0560   -0.6440    0.5760 O   0  0  0  0  0  0  0  0  0  0  0  0
   -3.1540    0.3880    0.4670 C   0  0  0  0  0  0  0  0  0  0  0  0
   -3.6040    1.5140    0.1210 O   0  0  0  0  0  0  0  0  0  0  0  0
   -1.7710    0.1920    0.7330 N   0  0  0  0  0  0  0  0  0  0  0  0
   -1.4130   -1.1590    1.1190 C   0  0  0  0  0  0  0  0  0  0  0  0
   -0.6110   -1.7150   -0.0320 C   0  0  0  0  0  0  0  0  0  0  0  0
   -1.2390   -2.5160   -0.6970 O   0  0  0  0  0  0  0  0  0  0  0  0
    0.7720   -1.3870   -0.3860 C   0  0  0  0  0  0  0  0  0  0  0  0
    1.1790    0.0100    0.0300 C   0  0  1  0  0  0  0  0  0  0  0  0
    2.5030    0.2050   -0.3450 O   0  0  0  0  0  0  0  0  0  0  0  0
    3.0920    1.3300   -0.8220 C   0  0  0  0  0  0  0  0  0  0  0  0
    4.3510    1.4450   -1.1570 C   0  0  0  0  0  0  0  0  0  0  0  0
    5.3250    0.3900   -1.0720 C   0  0  0  0  0  0  0  0  0  0  0  0
    6.5870    0.6530   -1.4810 C   0  0  0  0  0  0  0  0  0  0  0  0
    6.9230    1.8880   -1.9610 O   0  0  0  0  0  0  0  0  0  0  0  0
    5.0290   -0.9620   -0.5750 C   0  0  0  0  0  0  0  0  0  0  0  0
    4.5530   -0.9330    1.2020 P   0  0  0  0  0  0  0  0  0  0  0  0
    4.3680   -2.5510    1.8010 O   0  0  0  0  0  0  0  0  0  0  0  0
    5.6990   -0.0370    2.1230 O   0  0  0  0  0  0  0  0  0  0  0  0
    2.2630    2.4920   -0.9700 N   0  0  0  0  0  0  0  0  0  0  0  0
    0.9020    2.3720   -0.6090 C   0  0  0  0  0  0  0  0  0  0  0  0
    0.2600    3.4640   -0.4380 O   0  0  0  0  0  0  0  0  0  0  0  0
    0.2210    1.0570   -0.4280 C   0  0  2  0  0  0  0  0  0  0  0  0
   -0.8910    1.3100    0.5990 C   0  0  0  0  0  0  0  0  0  0  0  0
  2  1  1  1
  2  3  1  0
  2  4  1  0
  2  5  1  0
  5  6  1  0
  6  7  2  0
  6  8  1  0
  8  9  1  0
  8 28  1  0
  9 10  1  0
 10 11  2  0
 10 12  1  0
 13 12  1  6
 13 14  1  0
 13 27  1  0
 14 15  1  0
 15 16  2  3
 15 24  1  0
 16 17  1  0
 17 18  2  3
 17 20  1  0
 18 19  1  0
 20 21  1  0
 21 22  1  0
 21 23  1  0
 24 25  1  0
 25 26  2  0
 25 27  1  0
 27 28  1  1
M  END
