
     RDKit          3D

 14 13  0  0  0  0  0  0  0  0999 V2000
   -3.2310    0.9070   -1.3750 O   0  0  0  0  0  0  0  0  0  0  0  0
   -3.6650    0.4490   -0.3030 C   0  0  0  0  0  0  0  0  0  0  0  0
   -4.5210    1.2570    0.4750 O   0  0  0  0  0  0  0  0  0  0  0  0
   -3.3370   -0.7890    0.1260 O   0  0  0  0  0  0  0  0  0  0  0  0
   -2.5150   -1.6860   -0.4710 C   0  0  0  0  0  0  0  0  0  0  0  0
   -1.0630   -1.4170   -0.3890 C   0  0  2  0  0  0  0  0  0  0  0  0
   -0.7120   -1.4630    1.0100 O   0  0  0  0  0  0  0  0  0  0  0  0
   -0.5650   -0.1320   -0.9530 C   0  0  0  0  0  0  0  0  0  0  0  0
    0.9730   -0.1010   -0.7970 C   0  0  0  0  0  0  0  0  0  0  0  0
    1.3070   -0.1930    0.5610 O   0  0  0  0  0  0  0  0  0  0  0  0
    2.6990   -0.1590    0.6200 C   0  0  0  0  0  0  0  0  0  0  0  0
    3.2630    1.4390   -0.1190 P   0  0  0  0  0  0  0  0  0  0  0  0
    2.9990    2.7740    0.9550 O   0  0  0  0  0  0  0  0  0  0  0  0
    4.9180    1.3530   -0.6280 O   0  0  0  0  0  0  0  0  0  0  0  0
  1  2  2  0
  2  3  1  0
  2  4  1  0
  4  5  1  0
  5  6  1  0
  6  7  1  1
  6  8  1  0
  8  9  1  0
  9 10  1  0
 10 11  1  0
 11 12  1  0
 12 13  1  0
 12 14  1  0
M  END
