
     RDKit          3D

 27 28  0  0  0  0  0  0  0  0999 V2000
    0.9320   -4.1190   -1.1960 O   0  0  0  0  0  0  0  0  0  0  0  0
    0.4020   -3.0910   -0.5720 C   0  0  0  0  0  0  0  0  0  0  0  0
    1.3480   -2.1670   -0.1960 N   0  0  0  0  0  0  0  0  0  0  0  0
    1.6220   -1.4420    1.0280 C   0  0  0  0  0  0  0  0  0  0  0  0
    0.6420   -0.2700    1.0800 C   0  0  2  0  0  0  0  0  0  0  0  0
    0.6430    0.3190   -0.0550 O   0  0  0  0  0  0  0  0  0  0  0  0
    1.1480    0.9640   -0.9860 C   0  0  0  0  0  0  0  0  0  0  0  0
    2.2840    0.7230   -1.8900 C   0  0  0  0  0  0  0  0  0  0  0  0
    3.6510    0.5980   -1.2870 C   0  0  0  0  0  0  0  0  0  0  0  0
    4.9230    0.3210   -2.6380 P   0  0  0  0  0  0  0  0  0  0  0  0
    5.9190   -1.0520   -2.2430 O   0  0  0  0  0  0  0  0  0  0  0  0
    5.9300    1.7020   -2.8460 O   0  0  0  0  0  0  0  0  0  0  0  0
    0.9270    0.6130    2.2920 C   0  0  0  0  0  0  0  0  0  0  0  0
   -0.1410    1.5050    2.7440 C   0  0  0  0  0  0  0  0  0  0  0  0
   -0.7500    2.5210    1.8810 C   0  0  0  0  0  0  0  0  0  0  0  0
   -2.2270    2.3330    1.5570 C   0  0  0  0  0  0  0  0  0  0  0  0
   -2.4700    2.3300    0.0400 C   0  0  0  0  0  0  0  0  0  0  0  0
   -3.6760    1.4820   -0.3450 C   0  0  0  0  0  0  0  0  0  0  0  0
   -3.5040    0.6930   -1.4520 O   0  0  0  0  0  0  0  0  0  0  0  0
   -3.3730   -0.6240   -1.7490 C   0  0  0  0  0  0  0  0  0  0  0  0
   -4.3390   -1.4250   -2.0490 O   0  0  0  0  0  0  0  0  0  0  0  0
   -2.0610   -1.3820   -1.7830 C   0  0  0  0  0  0  0  0  0  0  0  0
   -2.1060   -2.4450   -0.7680 C   0  0  2  0  0  0  0  0  0  0  0  0
   -2.6000   -1.7830    0.5360 C   0  0  0  0  0  0  0  0  0  0  0  0
   -1.6930   -0.7390    0.6890 O   0  0  0  0  0  0  0  0  0  0  0  0
   -0.6530   -0.9840    1.5000 C   0  0  0  0  0  0  0  0  0  0  0  0
   -0.9800   -3.2220   -0.4630 N   0  0  0  0  0  0  0  0  0  0  0  0
  1  2  2  0
  2  3  1  0
  2 27  1  0
  3  4  1  0
  4  5  1  0
  5  6  1  6
  5 13  1  0
  5 26  1  0
  6  7  1  0
  7  8  1  0
  8  9  1  0
  9 10  1  0
 10 11  1  0
 10 12  1  0
 13 14  1  0
 14 15  1  0
 15 16  1  0
 16 17  1  0
 17 18  1  0
 18 19  1  0
 19 20  1  0
 20 21  2  0
 20 22  1  0
 23 22  1  6
 23 24  1  0
 23 27  1  0
 24 25  1  0
 25 26  1  0
M  END
