
     RDKit          3D

 27 28  0  0  0  0  0  0  0  0999 V2000
    2.5430   -3.2930   -0.4980 C   0  0  0  0  0  0  0  0  0  0  0  0
    2.4630   -1.9490   -0.3230 O   0  0  0  0  0  0  0  0  0  0  0  0
    1.3100   -1.4330    0.2040 C   0  0  2  0  0  0  0  0  0  0  0  0
    1.0660   -1.9870    1.5620 C   0  0  0  0  0  0  0  0  0  0  0  0
   -0.2990   -2.6000    1.7550 C   0  0  0  0  0  0  0  0  0  0  0  0
   -1.4050   -1.6900    1.2750 C   0  0  0  0  0  0  0  0  0  0  0  0
   -1.1530   -1.2260   -0.1410 C   0  0  2  0  0  0  0  0  0  0  0  0
    0.1260   -1.8240   -0.6770 C   0  0  0  0  0  0  0  0  0  0  0  0
   -1.0340    0.2090   -0.1890 N   0  0  0  0  0  0  0  0  0  0  0  0
   -2.1770    1.0540   -0.2110 C   0  0  0  0  0  0  0  0  0  0  0  0
   -2.1020    2.3020   -0.2530 O   0  0  0  0  0  0  0  0  0  0  0  0
   -3.4250    0.4740   -0.1870 O   0  0  0  0  0  0  0  0  0  0  0  0
   -4.6310    1.1850   -0.2040 C   0  0  2  0  0  0  0  0  0  0  0  0
   -4.7370    2.0320   -1.4670 C   0  0  0  0  0  0  0  0  0  0  0  0
   -4.8030    2.0980    0.9910 C   0  0  0  0  0  0  0  0  0  0  0  0
   -5.7590    0.1770   -0.2490 C   0  0  0  0  0  0  0  0  0  0  0  0
    0.2420    0.7810   -0.2140 C   0  0  0  0  0  0  0  0  0  0  0  0
    0.3660    1.9770   -0.6040 O   0  0  0  0  0  0  0  0  0  0  0  0
    1.4840    0.0820    0.1880 C   0  0  1  0  0  0  0  0  0  0  0  0
    1.8720    0.6300    1.5470 C   0  0  0  0  0  0  0  0  0  0  0  0
    2.5540    0.5110   -0.7570 C   0  0  0  0  0  0  0  0  0  0  0  0
    2.3020    1.2560   -1.7650 O   0  0  0  0  0  0  0  0  0  0  0  0
    3.9240    0.1310   -0.6190 N   0  0  0  0  0  0  0  0  0  0  0  0
    4.9280    0.5900   -1.5910 C   0  0  0  0  0  0  0  0  0  0  0  0
    4.9720    2.4660   -1.5830 P   0  0  0  0  0  0  0  0  0  0  0  0
    4.4150    3.0310   -0.0600 O   0  0  0  0  0  0  0  0  0  0  0  0
    6.5860    2.9770   -1.8650 O   0  0  0  0  0  0  0  0  0  0  0  0
  1  2  1  0
  3  2  1  6
  3  4  1  0
  3  8  1  0
  3 19  1  0
  4  5  1  0
  5  6  1  0
  7  6  1  1
  7  8  1  0
  7  9  1  0
  9 10  1  0
  9 17  1  0
 10 11  2  0
 10 12  1  0
 12 13  1  0
 13 14  1  6
 13 15  1  0
 13 16  1  0
 17 18  2  0
 17 19  1  0
 19 20  1  1
 19 21  1  0
 21 22  2  0
 21 23  1  0
 23 24  1  0
 24 25  1  0
 25 26  1  0
 25 27  1  0
M  END
