
     RDKit          3D

 14 13  0  0  0  0  0  0  0  0999 V2000
    3.1610    1.4890    0.5490 C   0  0  0  0  0  0  0  0  0  0  0  0
    3.4890    1.1320   -0.7390 O   0  0  0  0  0  0  0  0  0  0  0  0
    3.5140   -0.1990   -1.0040 C   0  0  0  0  0  0  0  0  0  0  0  0
    2.2600   -0.9390   -0.8430 C   0  0  0  0  0  0  0  0  0  0  0  0
    2.2410   -2.2050   -1.0540 O   0  0  0  0  0  0  0  0  0  0  0  0
    1.0360   -0.4090   -0.4740 O   0  0  0  0  0  0  0  0  0  0  0  0
   -0.1110   -1.2230   -0.3520 C   0  0  0  0  0  0  0  0  0  0  0  0
   -1.3290   -0.4700    0.0540 C   0  0  1  0  0  0  0  0  0  0  0  0
   -2.4690   -1.4760    0.1840 C   0  0  0  0  0  0  0  0  0  0  0  0
   -1.1930    0.1660    1.2800 O   0  0  0  0  0  0  0  0  0  0  0  0
   -1.7100    0.4610   -0.9200 O   0  0  0  0  0  0  0  0  0  0  0  0
   -3.1280    1.3100   -0.4030 P   0  0  0  0  0  0  0  0  0  0  0  0
   -3.8930    0.5410    0.9480 O   0  0  0  0  0  0  0  0  0  0  0  0
   -2.7220    2.9710   -0.0190 O   0  0  0  0  0  0  0  0  0  0  0  0
  1  2  1  0
  2  3  1  0
  3  4  1  0
  4  5  2  0
  4  6  1  0
  6  7  1  0
  7  8  1  0
  8  9  1  1
  8 10  1  0
  8 11  1  0
 11 12  1  0
 12 13  1  0
 12 14  1  0
M  END
