
     RDKit          3D

 14 14  0  0  0  0  0  0  0  0999 V2000
    5.0860   -0.1170    0.1220 O   0  0  0  0  0  0  0  0  0  0  0  0
    3.9620   -1.0510    1.0900 P   0  0  0  0  0  0  0  0  0  0  0  0
    3.5980   -2.5240    0.2530 O   0  0  0  0  0  0  0  0  0  0  0  0
    2.4840   -0.1210    1.1410 O   0  0  0  0  0  0  0  0  0  0  0  0
    2.3650    0.5020   -0.0970 C   0  0  0  0  0  0  0  0  0  0  0  0
    1.0650    1.3170   -0.0460 C   0  0  0  0  0  0  0  0  0  0  0  0
    0.0550    0.3910    0.1900 O   0  0  0  0  0  0  0  0  0  0  0  0
   -1.2000    0.9870    0.2630 C   0  0  0  0  0  0  0  0  0  0  0  0
   -2.1780   -0.1570    0.5230 C   0  0  2  0  0  0  0  0  0  0  0  0
   -1.9080   -0.8240    1.6830 O   0  0  0  0  0  0  0  0  0  0  0  0
   -2.1240   -1.0720   -0.6970 C   0  0  0  0  0  0  0  0  0  0  0  0
   -2.8010   -0.2840   -1.6240 O   0  0  0  0  0  0  0  0  0  0  0  0
   -3.8240    0.2910   -0.9030 C   0  0  0  0  0  0  0  0  0  0  0  0
   -3.4470    0.3600    0.4200 O   0  0  0  0  0  0  0  0  0  0  0  0
  1  2  1  0
  2  3  1  0
  2  4  1  0
  4  5  1  0
  5  6  1  0
  6  7  1  0
  7  8  1  0
  8  9  1  0
  9 10  1  1
  9 11  1  0
  9 14  1  0
 11 12  1  0
 12 13  1  0
 13 14  1  0
M  END
