
     RDKit          3D

 22 22  0  0  0  0  0  0  0  0999 V2000
    5.1460    3.4680   -0.8970 C   0  0  0  0  0  0  0  0  0  0  0  0
    4.0310    4.2520   -0.2380 C   0  0  0  0  0  0  0  0  0  0  0  0
    2.7960    3.5500    0.0210 C   0  0  0  0  0  0  0  0  0  0  0  0
    2.6570    2.2460   -0.3030 C   0  0  0  0  0  0  0  0  0  0  0  0
    1.4170    1.5550   -0.0410 C   0  0  0  0  0  0  0  0  0  0  0  0
    1.1830    0.2930   -0.3180 C   0  0  0  0  0  0  0  0  0  0  0  0
    2.1730   -0.6060   -0.9450 C   0  0  0  0  0  0  0  0  0  0  0  0
   -0.1640   -0.2720    0.0130 C   0  0  0  0  0  0  0  0  0  0  0  0
   -0.4810   -1.5160   -0.2360 C   0  0  0  0  0  0  0  0  0  0  0  0
   -1.7230   -2.1940    0.0210 C   0  0  0  0  0  0  0  0  0  0  0  0
   -1.7660   -3.5050   -0.3340 C   0  0  0  0  0  0  0  0  0  0  0  0
   -0.5290   -4.0840   -0.9460 C   0  0  0  0  0  0  0  0  0  0  0  0
   -2.9230   -4.3940   -0.1650 C   0  0  0  0  0  0  0  0  0  0  0  0
   -4.2530   -3.7070   -0.0760 C   0  0  0  0  0  0  0  0  0  0  0  0
   -4.1310   -2.2260   -0.2530 C   0  0  0  0  0  0  0  0  0  0  0  0
   -2.9630   -1.7100    0.6000 C   0  0  1  0  0  0  0  0  0  0  0  0
   -3.1440   -2.3990    1.9710 C   0  0  0  0  0  0  0  0  0  0  0  0
   -3.1520   -0.2580    0.8610 C   0  0  0  0  0  0  0  0  0  0  0  0
    4.2500    5.5040    0.0430 C   0  0  0  0  0  0  0  0  0  0  0  0
    3.3240    6.4040    0.6620 C   0  0  0  0  0  0  0  0  0  0  0  0
    2.1820    6.0720    1.0050 O   0  0  0  0  0  0  0  0  0  0  0  0
    3.7160    7.7360    0.9010 O   0  0  0  0  0  0  0  0  0  0  0  0
  1  2  1  0
  2  3  1  0
  2 19  2  3
  3  4  2  3
  4  5  1  0
  5  6  2  3
  6  7  1  0
  6  8  1  0
  8  9  2  3
  9 10  1  0
 10 11  2  0
 10 16  1  0
 11 12  1  0
 11 13  1  0
 13 14  1  0
 14 15  1  0
 15 16  1  0
 16 17  1  1
 16 18  1  0
 19 20  1  0
 20 21  2  0
 20 22  1  0
M  END
