
     RDKit          3D

 22 22  0  0  0  0  0  0  0  0999 V2000
   -2.9460    3.9750   -1.0290 C   0  0  0  0  0  0  0  0  0  0  0  0
   -2.8910    2.5180   -0.6560 C   0  0  0  0  0  0  0  0  0  0  0  0
   -4.0220    1.7760   -0.5040 C   0  0  0  0  0  0  0  0  0  0  0  0
   -3.9580    0.4170   -0.1560 C   0  0  0  0  0  0  0  0  0  0  0  0
   -5.2590   -0.2440   -0.0310 C   0  0  0  0  0  0  0  0  0  0  0  0
   -2.7320   -0.1870    0.0380 C   0  0  0  0  0  0  0  0  0  0  0  0
   -2.6760   -1.5940    0.4000 C   0  0  2  0  0  0  0  0  0  0  0  0
   -1.2850   -2.1610    0.5880 C   0  0  0  0  0  0  0  0  0  0  0  0
   -3.3290   -2.5020   -0.6370 C   0  0  0  0  0  0  0  0  0  0  0  0
   -3.3540   -1.7610    1.7660 C   0  0  0  0  0  0  0  0  0  0  0  0
   -1.6000    0.5700   -0.1170 C   0  0  0  0  0  0  0  0  0  0  0  0
   -0.3770   -0.0060    0.0690 O   0  0  0  0  0  0  0  0  0  0  0  0
    0.8810    0.5840   -0.0290 C   0  0  2  0  0  0  0  0  0  0  0  0
    1.0680    1.7230    0.9570 C   0  0  0  0  0  0  0  0  0  0  0  0
    1.0740    1.0280   -1.4670 C   0  0  0  0  0  0  0  0  0  0  0  0
    1.9110   -0.4790    0.2780 C   0  0  0  0  0  0  0  0  0  0  0  0
    3.2920    0.0790    0.1860 C   0  0  0  0  0  0  0  0  0  0  0  0
    4.3210   -1.0110    0.4980 C   0  0  0  0  0  0  0  0  0  0  0  0
    5.6810   -0.3510    0.3800 C   0  0  0  0  0  0  0  0  0  0  0  0
    6.7950   -1.3410    0.6700 C   0  0  0  0  0  0  0  0  0  0  0  0
    7.9980   -0.6240    0.5310 O   0  0  0  0  0  0  0  0  0  0  0  0
   -1.6710    1.9260   -0.4650 C   0  0  0  0  0  0  0  0  0  0  0  0
  1  2  1  0
  2  3  2  0
  2 22  1  0
  3  4  1  0
  4  5  1  0
  4  6  2  0
  6  7  1  0
  6 11  1  0
  7  8  1  1
  7  9  1  0
  7 10  1  0
 11 12  1  0
 11 22  2  0
 12 13  1  0
 13 14  1  1
 13 15  1  0
 13 16  1  0
 16 17  1  0
 17 18  1  0
 18 19  1  0
 19 20  1  0
 20 21  1  0
M  END
