
     RDKit          3D

 20 21  0  0  0  0  0  0  0  0999 V2000
   -3.8980    2.1560   -1.0220 C   0  0  0  0  0  0  0  0  0  0  0  0
   -3.0590    0.9250   -1.0650 C   0  0  0  0  0  0  0  0  0  0  0  0
   -3.2410    0.1760   -2.0720 O   0  0  0  0  0  0  0  0  0  0  0  0
   -2.1250    0.5930   -0.0750 N   0  0  0  0  0  0  0  0  0  0  0  0
   -1.9170    1.4250    1.0720 C   0  0  0  0  0  0  0  0  0  0  0  0
   -2.8050    2.1800    1.5180 O   0  0  0  0  0  0  0  0  0  0  0  0
   -0.6380    1.3750    1.7150 N   0  0  0  0  0  0  0  0  0  0  0  0
    0.3070    0.6100    1.2800 C   0  0  0  0  0  0  0  0  0  0  0  0
    1.5700    0.5870    1.9550 N   0  0  0  0  0  0  0  0  0  0  0  0
    0.1120   -0.2050    0.0890 C   0  0  1  0  0  0  0  0  0  0  0  0
    1.0820   -1.3510   -0.0750 C   0  0  1  0  0  0  0  0  0  0  0  0
    0.7080   -1.9990   -1.2610 O   0  0  0  0  0  0  0  0  0  0  0  0
    2.4290   -0.7650   -0.3230 C   0  0  0  0  0  0  0  0  0  0  0  0
    3.5820   -0.8100    0.4280 C   0  0  0  0  0  0  0  0  0  0  0  0
    4.5780   -0.1380   -0.1770 N   0  0  0  0  0  0  0  0  0  0  0  0
    4.0610    0.3360   -1.3160 C   0  0  0  0  0  0  0  0  0  0  0  0
    2.7760   -0.0300   -1.4180 N   0  0  0  0  0  0  0  0  0  0  0  0
   -1.3060   -0.5910   -0.1080 C   0  0  1  0  0  0  0  0  0  0  0  0
   -1.7500   -1.5790    0.9600 C   0  0  0  0  0  0  0  0  0  0  0  0
   -3.0810   -1.9350    0.7250 O   0  0  0  0  0  0  0  0  0  0  0  0
  1  2  1  0
  2  3  2  0
  2  4  1  0
  4  5  1  0
  4 18  1  0
  5  6  2  0
  5  7  1  0
  7  8  2  0
  8  9  1  0
 10  8  1  1
 10 11  1  0
 10 18  1  0
 11 12  1  6
 11 13  1  0
 13 14  2  0
 13 17  1  0
 14 15  1  0
 15 16  1  0
 16 17  2  0
 18 19  1  1
 19 20  1  0
M  CHG  1  17   1
M  END
