
     RDKit          3D

 22 23  0  0  0  0  0  0  0  0999 V2000
   -2.9580   -4.2230   -1.9250 C   0  0  0  0  0  0  0  0  0  0  0  0
   -1.6390   -3.5210   -1.7860 C   0  0  0  0  0  0  0  0  0  0  0  0
   -1.9300   -2.1230   -1.2180 C   0  0  0  0  0  0  0  0  0  0  0  0
   -0.5940   -1.4600   -1.0950 C   0  0  0  0  0  0  0  0  0  0  0  0
   -0.6840   -0.0210   -0.5460 C   0  0  0  0  0  0  0  0  0  0  0  0
   -1.8290    0.4320   -0.3040 C   0  0  0  0  0  0  0  0  0  0  0  0
   -2.3440    1.7090    0.1660 C   0  0  0  0  0  0  0  0  0  0  0  0
   -3.6470    1.9220    0.4400 C   0  0  0  0  0  0  0  0  0  0  0  0
   -3.8390    3.3190    0.8750 C   0  0  0  0  0  0  0  0  0  0  0  0
   -2.5140    3.9320    0.7490 C   0  0  0  0  0  0  0  0  0  0  0  0
   -1.6670    2.9830    0.3500 C   0  0  0  0  0  0  0  0  0  0  0  0
    0.6140    0.3560    0.0060 C   0  0  0  0  0  0  0  0  0  0  0  0
    1.7100   -0.1200   -0.5470 C   0  0  0  0  0  0  0  0  0  0  0  0
    3.1070    0.0270   -0.3190 C   0  0  0  0  0  0  0  0  0  0  0  0
    4.0170   -0.6850   -1.0500 C   0  0  0  0  0  0  0  0  0  0  0  0
    5.3930   -0.3720   -0.6560 C   0  0  0  0  0  0  0  0  0  0  0  0
    5.2390    0.6460    0.3560 C   0  0  0  0  0  0  0  0  0  0  0  0
    3.9210    0.8460    0.5280 C   0  0  0  0  0  0  0  0  0  0  0  0
    0.6110    0.8520    1.3810 C   0  0  0  0  0  0  0  0  0  0  0  0
   -0.4170    1.2700    1.9390 O   0  0  0  0  0  0  0  0  0  0  0  0
    1.7460    0.8940    2.2010 O   0  0  0  0  0  0  0  0  0  0  0  0
    1.7220    1.3620    3.5220 C   0  0  0  0  0  0  0  0  0  0  0  0
  1  2  1  0
  2  3  1  0
  3  4  1  0
  4  5  1  0
  5  6  2  3
  5 12  1  0
  6  7  1  0
  7  8  2  0
  7 11  1  0
  8  9  1  0
  9 10  1  0
 10 11  2  0
 12 13  2  3
 12 19  1  0
 13 14  1  0
 14 15  2  0
 14 18  1  0
 15 16  1  0
 16 17  1  0
 17 18  2  0
 19 20  2  0
 19 21  1  0
 21 22  1  0
M  END
