
     RDKit          3D

 22 23  0  0  0  0  0  0  0  0999 V2000
   -3.0910   -3.0170   -1.6400 C   0  0  0  0  0  0  0  0  0  0  0  0
   -3.3540   -1.5730   -1.5830 C   0  0  0  0  0  0  0  0  0  0  0  0
   -4.5210   -1.0930   -2.0920 C   0  0  0  0  0  0  0  0  0  0  0  0
   -4.5390    0.3380   -1.9160 C   0  0  0  0  0  0  0  0  0  0  0  0
   -3.2570    0.6100   -1.2480 C   0  0  0  0  0  0  0  0  0  0  0  0
   -2.5280   -0.5300   -1.0410 C   0  0  0  0  0  0  0  0  0  0  0  0
   -1.2360   -0.4720   -0.3860 C   0  0  0  0  0  0  0  0  0  0  0  0
   -0.4280   -1.4730   -0.1420 C   0  0  0  0  0  0  0  0  0  0  0  0
   -0.8300   -2.7520   -0.5380 O   0  0  0  0  0  0  0  0  0  0  0  0
    0.9000   -1.5200    0.5020 C   0  0  0  0  0  0  0  0  0  0  0  0
    0.9840   -2.2880    1.7990 C   0  0  0  0  0  0  0  0  0  0  0  0
    2.0660   -1.0420    0.1080 C   0  0  0  0  0  0  0  0  0  0  0  0
    3.3020   -1.2420    0.9930 C   0  0  0  0  0  0  0  0  0  0  0  0
    2.4040   -0.3550   -1.1550 C   0  0  0  0  0  0  0  0  0  0  0  0
    2.4480    1.1050   -1.0490 C   0  0  0  0  0  0  0  0  0  0  0  0
    2.7730    1.6030    0.3050 C   0  0  0  0  0  0  0  0  0  0  0  0
    2.1590    2.9940    0.5200 C   0  0  0  0  0  0  0  0  0  0  0  0
    1.4050    2.9170    1.8540 C   0  0  0  0  0  0  0  0  0  0  0  0
   -0.0310    2.6370    1.5900 C   0  0  0  0  0  0  0  0  0  0  0  0
   -0.4280    1.1970    1.5050 C   0  0  0  0  0  0  0  0  0  0  0  0
   -0.8730    0.8920    0.0950 C   0  0  0  0  0  0  0  0  0  0  0  0
   -0.9130    1.8850   -0.6510 O   0  0  0  0  0  0  0  0  0  0  0  0
  1  2  1  0
  2  3  2  0
  2  6  1  0
  3  4  1  0
  4  5  1  0
  5  6  2  0
  6  7  1  0
  7  8  2  0
  7 21  1  0
  8  9  1  0
  8 10  1  0
 10 11  1  0
 10 12  2  0
 12 13  1  0
 12 14  1  0
 14 15  1  0
 15 16  1  0
 16 17  1  0
 17 18  1  0
 18 19  1  0
 19 20  1  0
 20 21  1  0
 21 22  2  0
M  END
