
     RDKit          3D

 22 23  0  0  0  0  0  0  0  0999 V2000
    3.2270   -3.7600   -0.6700 C   0  0  0  0  0  0  0  0  0  0  0  0
    2.5600   -2.7760    0.2150 C   0  0  0  0  0  0  0  0  0  0  0  0
    2.8070   -1.5040    0.1060 C   0  0  0  0  0  0  0  0  0  0  0  0
    2.2360   -0.3880    0.9010 C   0  0  0  0  0  0  0  0  0  0  0  0
    1.5160    0.6260    0.1570 C   0  0  0  0  0  0  0  0  0  0  0  0
    0.2820    0.3470   -0.6130 C   0  0  0  0  0  0  0  0  0  0  0  0
   -0.9510    0.0600    0.1690 C   0  0  1  0  0  0  0  0  0  0  0  0
   -1.3150    1.1550    1.1300 C   0  0  0  0  0  0  0  0  0  0  0  0
   -2.1340    0.0680   -0.8560 C   0  0  0  0  0  0  0  0  0  0  0  0
   -3.4470   -0.1000   -0.1760 C   0  0  1  0  0  0  0  0  0  0  0  0
   -4.4590   -0.4890   -1.2370 C   0  0  0  0  0  0  0  0  0  0  0  0
   -3.4210   -1.1870    0.8690 C   0  0  0  0  0  0  0  0  0  0  0  0
   -2.2300   -2.0520    0.6810 C   0  0  1  0  0  0  0  0  0  0  0  0
   -2.2810   -2.6910   -0.5750 O   0  0  0  0  0  0  0  0  0  0  0  0
   -0.9580   -1.2640    0.8380 C   0  0  0  0  0  0  0  0  0  0  0  0
    1.9630    1.8860    0.0770 C   0  0  0  0  0  0  0  0  0  0  0  0
    1.2090    2.9100   -0.6810 C   0  0  0  0  0  0  0  0  0  0  0  0
    1.6910    4.1350   -0.7740 C   0  0  0  0  0  0  0  0  0  0  0  0
    2.9280    4.5980   -0.1860 C   0  0  0  0  0  0  0  0  0  0  0  0
    3.6510    3.7560    0.4980 C   0  0  0  0  0  0  0  0  0  0  0  0
    3.2060    2.3630    0.6630 C   0  0  0  0  0  0  0  0  0  0  0  0
    3.9570    1.6440    1.3250 O   0  0  0  0  0  0  0  0  0  0  0  0
  1  2  1  0
  2  3  2  3
  3  4  1  0
  4  5  1  0
  5  6  1  0
  5 16  2  3
  6  7  1  0
  7  8  1  1
  7  9  1  0
  7 15  1  0
  9 10  1  0
 10 11  1  6
 10 12  1  0
 12 13  1  0
 13 14  1  6
 13 15  1  0
 16 17  1  0
 16 21  1  0
 17 18  2  0
 18 19  1  0
 19 20  2  0
 20 21  1  0
 21 22  2  0
M  END
