
     RDKit          3D

 35 39  0  0  0  0  0  0  0  0999 V2000
   -1.0950    2.7640    1.3950 C   0  0  0  0  0  0  0  0  0  0  0  0
   -2.1410    2.7230    0.5940 C   0  0  0  0  0  0  0  0  0  0  0  0
   -2.8730    1.5010    0.3000 C   0  0  0  0  0  0  0  0  0  0  0  0
   -3.9170    1.5870   -0.5240 C   0  0  0  0  0  0  0  0  0  0  0  0
   -4.3190    2.8840   -1.1220 C   0  0  0  0  0  0  0  0  0  0  0  0
   -2.5090    0.2350    0.8450 N   0  0  0  0  0  0  0  0  0  0  0  0
   -3.2850   -0.3650    1.8980 C   0  0  0  0  0  0  0  0  0  0  0  0
   -3.8240   -1.7180    1.4660 C   0  0  0  0  0  0  0  0  0  0  0  0
   -3.1400   -2.1160    0.2550 N   0  0  0  0  0  0  0  0  0  0  0  0
   -1.7220   -1.8930    0.0780 C   0  0  0  0  0  0  0  0  0  0  0  0
   -0.8860   -2.8350   -0.2780 C   0  0  0  0  0  0  0  0  0  0  0  0
   -1.4490   -4.2060   -0.5140 C   0  0  0  0  0  0  0  0  0  0  0  0
   -2.6240   -4.3180   -0.9970 O   0  0  0  0  0  0  0  0  0  0  0  0
   -0.6710   -5.3960   -0.1980 C   0  0  0  0  0  0  0  0  0  0  0  0
    0.5390   -5.2060    0.2950 C   0  0  0  0  0  0  0  0  0  0  0  0
    1.0760   -3.8690    0.5090 C   0  0  0  0  0  0  0  0  0  0  0  0
    1.8590   -3.6040    1.5290 C   0  0  0  0  0  0  0  0  0  0  0  0
    2.4230   -2.2850    1.7640 C   0  0  0  0  0  0  0  0  0  0  0  0
    3.2320   -1.9920    2.8430 O   0  0  0  0  0  0  0  0  0  0  0  0
    2.1310   -1.3230    0.8770 C   0  0  0  0  0  0  0  0  0  0  0  0
    2.6520   -0.0700    1.1050 O   0  0  0  0  0  0  0  0  0  0  0  0
    2.4260    0.6940    2.2520 C   0  0  0  0  0  0  0  0  0  0  0  0
    1.3060   -1.5570   -0.3110 C   0  0  0  0  0  0  0  0  0  0  0  0
    1.2720   -0.6840   -1.3020 C   0  0  0  0  0  0  0  0  0  0  0  0
    1.9430    0.5550   -1.4580 C   0  0  0  0  0  0  0  0  0  0  0  0
    1.3510    1.7140   -1.9630 C   0  0  0  0  0  0  0  0  0  0  0  0
    2.3110    2.7120   -1.9670 C   0  0  0  0  0  0  0  0  0  0  0  0
    2.3630    4.0240   -2.3270 C   0  0  0  0  0  0  0  0  0  0  0  0
    3.5360    4.7310   -2.1860 C   0  0  0  0  0  0  0  0  0  0  0  0
    4.6710    4.1460   -1.6870 C   0  0  0  0  0  0  0  0  0  0  0  0
    4.6350    2.8190   -1.3180 C   0  0  0  0  0  0  0  0  0  0  0  0
    3.4610    2.1100   -1.4590 C   0  0  0  0  0  0  0  0  0  0  0  0
    3.1660    0.8770   -1.1930 O   0  0  0  0  0  0  0  0  0  0  0  0
    0.5740   -2.8070   -0.4470 C   0  0  2  0  0  0  0  0  0  0  0  0
   -1.3260   -0.4750    0.3100 C   0  0  0  0  0  0  0  0  0  0  0  0
  1  2  2  0
  2  3  1  0
  3  4  2  3
  3  6  1  0
  4  5  1  0
  6  7  1  0
  6 35  1  0
  7  8  1  0
  8  9  1  0
  9 10  1  0
 10 11  2  3
 10 35  1  0
 11 12  1  0
 34 11  1  1
 12 13  2  0
 12 14  1  0
 14 15  2  0
 15 16  1  0
 16 17  2  0
 16 34  1  0
 17 18  1  0
 18 19  1  0
 18 20  2  0
 20 21  1  0
 20 23  1  0
 21 22  1  0
 23 24  2  3
 23 34  1  0
 24 25  1  0
 25 26  2  0
 25 33  1  0
 26 27  1  0
 27 28  2  0
 27 32  1  0
 28 29  1  0
 29 30  2  0
 30 31  1  0
 31 32  2  0
 32 33  1  0
M  END
