
     RDKit          3D

 35 39  0  0  0  0  0  0  0  0999 V2000
   -4.9780    2.1220    4.1470 C   0  0  0  0  0  0  0  0  0  0  0  0
   -3.9140    1.3170    3.6980 O   0  0  0  0  0  0  0  0  0  0  0  0
   -3.6320    1.0650    2.3820 C   0  0  0  0  0  0  0  0  0  0  0  0
   -4.4090    1.6090    1.3930 C   0  0  0  0  0  0  0  0  0  0  0  0
   -4.1700    1.3870    0.0650 C   0  0  0  0  0  0  0  0  0  0  0  0
   -3.0710    0.5600   -0.2900 C   0  0  0  0  0  0  0  0  0  0  0  0
   -2.2880    0.0100    0.6790 C   0  0  0  0  0  0  0  0  0  0  0  0
   -2.5770    0.2700    2.0330 C   0  0  0  0  0  0  0  0  0  0  0  0
   -1.1890   -0.8150    0.3860 O   0  0  0  0  0  0  0  0  0  0  0  0
   -0.9240   -1.0560   -0.9570 C   0  0  0  0  0  0  0  0  0  0  0  0
    0.1980   -1.9020   -1.3110 N   0  0  0  0  0  0  0  0  0  0  0  0
    1.3490   -2.0700   -0.4600 C   0  0  0  0  0  0  0  0  0  0  0  0
    2.1040   -0.7620   -0.4170 C   0  0  1  0  0  0  0  0  0  0  0  0
    1.2240    0.2010    0.1020 O   0  0  0  0  0  0  0  0  0  0  0  0
    3.3130   -0.8840    0.4290 C   0  0  0  0  0  0  0  0  0  0  0  0
    3.5450   -2.1060    1.0640 C   0  0  0  0  0  0  0  0  0  0  0  0
    4.6600   -2.2310    1.8460 C   0  0  0  0  0  0  0  0  0  0  0  0
    5.5340   -1.1880    2.0090 C   0  0  0  0  0  0  0  0  0  0  0  0
    6.7380   -1.3690    2.8700 C   0  0  0  0  0  0  0  0  0  0  0  0
    5.2870    0.0190    1.3700 C   0  0  0  0  0  0  0  0  0  0  0  0
    4.1780    0.1730    0.5800 C   0  0  0  0  0  0  0  0  0  0  0  0
    3.8930    1.4410   -0.1080 C   0  0  0  0  0  0  0  0  0  0  0  0
    5.1700    2.2900   -0.1210 C   0  0  0  0  0  0  0  0  0  0  0  0
    5.7050    2.3290    1.1760 O   0  0  0  0  0  0  0  0  0  0  0  0
    6.2420    1.1200    1.5610 C   0  0  0  0  0  0  0  0  0  0  0  0
   -1.6450   -0.5530   -1.9250 C   0  0  0  0  0  0  0  0  0  0  0  0
   -1.2450   -0.8960   -3.2970 C   0  0  0  0  0  0  0  0  0  0  0  0
   -0.9470   -1.1730   -4.3910 N   0  0  0  0  0  0  0  0  0  0  0  0
   -2.7930    0.3090   -1.6940 C   0  0  1  0  0  0  0  0  0  0  0  0
   -3.9820   -0.0730   -2.4860 C   0  0  0  0  0  0  0  0  0  0  0  0
   -4.7050    0.8850   -3.1160 C   0  0  0  0  0  0  0  0  0  0  0  0
   -5.8220    0.5380   -3.8600 C   0  0  0  0  0  0  0  0  0  0  0  0
   -6.1880   -0.7950   -3.9530 C   0  0  0  0  0  0  0  0  0  0  0  0
   -5.4410   -1.7460   -3.3060 C   0  0  0  0  0  0  0  0  0  0  0  0
   -4.3350   -1.3980   -2.5690 C   0  0  0  0  0  0  0  0  0  0  0  0
  1  2  1  0
  2  3  1  0
  3  4  2  0
  3  8  1  0
  4  5  1  0
  5  6  2  0
  6  7  1  0
  6 29  1  0
  7  8  2  0
  7  9  1  0
  9 10  1  0
 10 11  1  0
 10 26  2  0
 11 12  1  0
 12 13  1  0
 13 14  1  1
 13 15  1  0
 15 16  2  0
 15 21  1  0
 16 17  1  0
 17 18  2  0
 18 19  1  0
 18 20  1  0
 20 21  2  0
 20 25  1  0
 21 22  1  0
 22 23  1  0
 23 24  1  0
 24 25  1  0
 26 27  1  0
 26 29  1  0
 27 28  3  0
 29 30  1  1
 30 31  2  0
 30 35  1  0
 31 32  1  0
 32 33  2  0
 33 34  1  0
 34 35  2  0
M  END
