
     RDKit          3D

 29 32  0  0  0  0  0  0  0  0999 V2000
   -3.5080   -2.6220   -0.0560 C   0  0  0  0  0  0  0  0  0  0  0  0
   -3.7830   -1.2440   -0.6320 C   0  0  1  0  0  0  0  0  0  0  0  0
   -4.2430   -1.4830   -2.0760 C   0  0  0  0  0  0  0  0  0  0  0  0
   -4.8860   -0.5610    0.0950 C   0  0  0  0  0  0  0  0  0  0  0  0
   -4.4950    0.6150    0.9080 C   0  0  0  0  0  0  0  0  0  0  0  0
   -3.0920    0.6270    1.3990 C   0  0  1  0  0  0  0  0  0  0  0  0
   -2.8350    1.9770    2.0630 C   0  0  0  0  0  0  0  0  0  0  0  0
   -2.8220   -0.4250    2.4560 C   0  0  0  0  0  0  0  0  0  0  0  0
   -2.1810    0.4840    0.2380 C   0  0  0  0  0  0  0  0  0  0  0  0
   -1.0200    1.2140    0.0980 C   0  0  0  0  0  0  0  0  0  0  0  0
   -0.1760    1.0770   -0.9840 C   0  0  0  0  0  0  0  0  0  0  0  0
    1.0410    1.8920   -1.0560 C   0  0  2  0  0  0  0  0  0  0  0  0
    1.2410    2.4490   -2.3210 O   0  0  0  0  0  0  0  0  0  0  0  0
    2.2350    1.0970   -0.6180 C   0  0  0  0  0  0  0  0  0  0  0  0
    2.0860   -0.1530   -0.0440 C   0  0  0  0  0  0  0  0  0  0  0  0
    3.1580   -0.9040    0.3670 C   0  0  0  0  0  0  0  0  0  0  0  0
    4.4230   -0.3790    0.1950 C   0  0  0  0  0  0  0  0  0  0  0  0
    5.4900   -1.1400    0.6100 C   0  0  0  0  0  0  0  0  0  0  0  0
    6.7840   -0.6410    0.4520 C   0  0  0  0  0  0  0  0  0  0  0  0
    7.9310   -1.4250    0.8830 C   0  0  0  0  0  0  0  0  0  0  0  0
    9.0840   -0.9620    0.7320 O   0  0  0  0  0  0  0  0  0  0  0  0
    7.7240   -2.6610    1.4470 O   0  0  0  0  0  0  0  0  0  0  0  0
    6.9650    0.6040   -0.1180 C   0  0  0  0  0  0  0  0  0  0  0  0
    5.9110    1.3740   -0.5370 C   0  0  0  0  0  0  0  0  0  0  0  0
    4.6340    0.8640   -0.3720 C   0  0  0  0  0  0  0  0  0  0  0  0
    3.5140    1.5810   -0.7700 C   0  0  0  0  0  0  0  0  0  0  0  0
   -0.5360    0.1670   -1.9470 C   0  0  0  0  0  0  0  0  0  0  0  0
   -1.6940   -0.5630   -1.8130 C   0  0  0  0  0  0  0  0  0  0  0  0
   -2.5410   -0.4300   -0.7310 C   0  0  0  0  0  0  0  0  0  0  0  0
  2  1  1  1
  2  3  1  0
  2  4  1  0
  2 29  1  0
  4  5  1  0
  5  6  1  0
  6  7  1  1
  6  8  1  0
  6  9  1  0
  9 10  2  0
  9 29  1  0
 10 11  1  0
 11 12  1  0
 11 27  2  0
 12 13  1  6
 12 14  1  0
 14 15  2  0
 14 26  1  0
 15 16  1  0
 16 17  2  0
 17 18  1  0
 17 25  1  0
 18 19  2  0
 19 20  1  0
 19 23  1  0
 20 21  2  0
 20 22  1  0
 23 24  2  0
 24 25  1  0
 25 26  2  0
 27 28  1  0
 28 29  2  0
M  CHG  1  22  -1
M  END
