
     RDKit          3D

 35 37  0  0  0  0  0  0  0  0999 V2000
   -2.1410    5.0650    0.1960 C   0  0  0  0  0  0  0  0  0  0  0  0
   -0.9080    4.8290   -0.6790 C   0  0  0  0  0  0  0  0  0  0  0  0
   -0.2460    5.9110   -1.1700 C   0  0  0  0  0  0  0  0  0  0  0  0
    1.1090    5.1890   -2.1030 S   0  0  0  0  0  0  0  0  0  0  0  0
    0.6460    3.4800   -1.7380 C   0  0  0  0  0  0  0  0  0  0  0  0
   -0.4520    3.5810   -0.9690 C   0  0  0  0  0  0  0  0  0  0  0  0
   -1.1760    2.3700   -0.4940 C   0  0  0  0  0  0  0  0  0  0  0  0
   -2.4640    2.4650   -0.4630 O   0  0  0  0  0  0  0  0  0  0  0  0
   -0.5500    1.1560   -0.0750 C   0  0  0  0  0  0  0  0  0  0  0  0
    0.9190    1.0180   -0.0270 C   0  0  0  0  0  0  0  0  0  0  0  0
    1.3530   -0.5590    0.7930 S   0  0  0  0  0  0  0  0  0  0  0  0
    3.1400   -0.7150    0.8190 C   0  0  0  0  0  0  0  0  0  0  0  0
    3.6370   -1.7830    1.4110 C   0  0  0  0  0  0  0  0  0  0  0  0
    2.7220   -2.7080    1.9700 O   0  0  0  0  0  0  0  0  0  0  0  0
    5.0910   -2.0310    1.5040 C   0  0  0  0  0  0  0  0  0  0  0  0
    5.9220   -1.2540    0.5510 C   0  0  1  0  0  0  0  0  0  0  0  0
    6.0900   -2.0740   -0.7310 C   0  0  0  0  0  0  0  0  0  0  0  0
    6.9850   -1.4190   -1.5800 O   0  0  0  0  0  0  0  0  0  0  0  0
    5.4090    0.0650    0.2840 N   0  0  0  0  0  0  0  0  0  0  0  0
    4.0010    0.2870    0.2110 C   0  0  0  0  0  0  0  0  0  0  0  0
    3.5180    1.3010   -0.3500 O   0  0  0  0  0  0  0  0  0  0  0  0
   -1.3630    0.1830    0.3380 C   0  0  0  0  0  0  0  0  0  0  0  0
   -0.9240   -1.0700    0.7820 N   0  0  0  0  0  0  0  0  0  0  0  0
   -2.7280    0.4270    0.3270 O   0  0  0  0  0  0  0  0  0  0  0  0
   -3.5920   -0.6240   -0.0410 C   0  0  0  0  0  0  0  0  0  0  0  0
   -4.2830   -1.1990    0.8920 C   0  0  0  0  0  0  0  0  0  0  0  0
   -4.1640   -0.7870    2.1980 F   0  0  0  0  0  0  0  0  0  0  0  0
   -5.2530   -2.2730    0.6760 C   0  0  0  0  0  0  0  0  0  0  0  0
   -6.2230   -2.3750   -0.2920 C   0  0  0  0  0  0  0  0  0  0  0  0
   -6.8990   -3.5610   -0.1080 C   0  0  0  0  0  0  0  0  0  0  0  0
   -6.3090   -4.1530    0.9840 C   0  0  0  0  0  0  0  0  0  0  0  0
   -5.3580   -3.3780    1.4140 O   0  0  0  0  0  0  0  0  0  0  0  0
   -3.6870   -1.0410   -1.4550 C   0  0  1  0  0  0  0  0  0  0  0  0
   -4.2700   -0.0420   -2.1970 F   0  0  0  0  0  0  0  0  0  0  0  0
   -2.4050   -1.2250   -1.9920 F   0  0  0  0  0  0  0  0  0  0  0  0
  1  2  1  0
  2  3  2  0
  2  6  1  0
  3  4  1  0
  4  5  1  0
  5  6  2  0
  6  7  1  0
  7  8  2  0
  7  9  1  0
  9 10  1  0
  9 22  2  3
 10 11  1  0
 11 12  1  0
 12 13  2  0
 12 20  1  0
 13 14  1  0
 13 15  1  0
 15 16  1  0
 16 17  1  6
 16 19  1  0
 17 18  1  0
 19 20  1  0
 20 21  2  0
 22 23  1  0
 22 24  1  0
 24 25  1  0
 25 26  2  3
 25 33  1  0
 26 27  1  0
 26 28  1  0
 28 29  2  0
 28 32  1  0
 29 30  1  0
 30 31  2  0
 31 32  1  0
 33 34  1  6
 33 35  1  0
M  END
