
     RDKit          3D

 35 37  0  0  0  0  0  0  0  0999 V2000
   -9.1050    1.9680    0.2830 N   0  0  0  0  0  0  0  0  0  0  0  0
   -8.4200    0.8620    0.0790 C   0  0  0  0  0  0  0  0  0  0  0  0
   -7.7100   -0.3150   -0.1250 C   0  0  0  0  0  0  0  0  0  0  0  0
   -6.2700   -0.1260    0.4480 C   0  0  2  0  0  0  0  0  0  0  0  0
   -5.9780    1.2710   -0.1470 C   0  0  0  0  0  0  0  0  0  0  0  0
   -6.3570    1.4140   -1.4660 O   0  0  0  0  0  0  0  0  0  0  0  0
   -5.4560   -1.0380   -0.3720 N   0  0  0  0  0  0  0  0  0  0  0  0
   -4.1780   -0.4880   -0.7070 C   0  0  0  0  0  0  0  0  0  0  0  0
   -3.0140   -0.6550    0.3030 C   0  0  2  0  0  0  0  0  0  0  0  0
   -3.3910   -0.2190    1.5400 O   0  0  0  0  0  0  0  0  0  0  0  0
   -1.9960    0.2930   -0.3100 C   0  0  0  0  0  0  0  0  0  0  0  0
   -0.9820   -0.2560   -1.0230 C   0  0  0  0  0  0  0  0  0  0  0  0
   -0.3940   -1.9180   -0.5160 S   0  0  0  0  0  0  0  0  0  0  0  0
    0.7550   -1.4370    0.8720 C   0  0  0  0  0  0  0  0  0  0  0  0
    2.0160   -2.2420    0.8960 C   0  0  1  0  0  0  0  0  0  0  0  0
    2.7070   -2.1140   -0.3190 O   0  0  0  0  0  0  0  0  0  0  0  0
    2.9090   -1.5160    1.9300 C   0  0  0  0  0  0  0  0  0  0  0  0
    3.3760    0.1180    1.4320 S   0  0  0  0  0  0  0  0  0  0  0  0
    4.9440    0.0980    0.5300 C   0  0  0  0  0  0  0  0  0  0  0  0
    5.0380    0.2650   -0.8030 C   0  0  0  0  0  0  0  0  0  0  0  0
    6.3750    0.2430   -1.3480 C   0  0  0  0  0  0  0  0  0  0  0  0
    6.3740    0.3640   -2.7240 O   0  0  0  0  0  0  0  0  0  0  0  0
    7.4810    0.0860   -0.5720 C   0  0  0  0  0  0  0  0  0  0  0  0
    7.3270   -0.1150    0.8360 C   0  0  0  0  0  0  0  0  0  0  0  0
    6.0380   -0.1000    1.2560 C   0  0  0  0  0  0  0  0  0  0  0  0
    8.5890   -0.2550    1.4000 O   0  0  0  0  0  0  0  0  0  0  0  0
    9.4810    0.3820    0.5010 C   0  0  0  0  0  0  0  0  0  0  0  0
    8.8500    0.0770   -0.7560 O   0  0  0  0  0  0  0  0  0  0  0  0
   -0.1640    0.4850   -1.8300 C   0  0  0  0  0  0  0  0  0  0  0  0
   -0.4100    1.8650   -1.8900 C   0  0  0  0  0  0  0  0  0  0  0  0
    0.3240    2.6680   -2.6860 F   0  0  0  0  0  0  0  0  0  0  0  0
   -1.4190    2.4470   -1.1510 C   0  0  0  0  0  0  0  0  0  0  0  0
   -1.5950    3.7640   -1.1890 F   0  0  0  0  0  0  0  0  0  0  0  0
   -2.2380    1.6270   -0.3170 C   0  0  0  0  0  0  0  0  0  0  0  0
   -3.0850    2.2570    0.5420 F   0  0  0  0  0  0  0  0  0  0  0  0
  1  2  3  0
  2  3  1  0
  4  3  1  6
  4  5  1  0
  4  7  1  0
  5  6  1  0
  7  8  1  0
  8  9  1  0
  9 10  1  1
  9 11  1  0
 11 12  2  0
 11 34  1  0
 12 13  1  0
 12 29  1  0
 13 14  1  0
 14 15  1  0
 15 16  1  6
 15 17  1  0
 17 18  1  0
 18 19  1  0
 19 20  2  0
 19 25  1  0
 20 21  1  0
 21 22  1  0
 21 23  2  0
 23 24  1  0
 23 28  1  0
 24 25  2  0
 24 26  1  0
 26 27  1  0
 27 28  1  0
 29 30  2  0
 30 31  1  0
 30 32  1  0
 32 33  1  0
 32 34  2  0
 34 35  1  0
M  END
