
     RDKit          3D

 35 39  0  0  0  0  0  0  0  0999 V2000
   10.4100    1.4630    0.0990 C   0  0  0  0  0  0  0  0  0  0  0  0
    9.1440    0.8650   -0.4130 C   0  0  0  0  0  0  0  0  0  0  0  0
    8.3010    1.4790   -1.2860 C   0  0  0  0  0  0  0  0  0  0  0  0
    7.2630    0.5810   -1.4920 C   0  0  0  0  0  0  0  0  0  0  0  0
    7.5180   -0.5290   -0.7410 C   0  0  0  0  0  0  0  0  0  0  0  0
    6.7330   -1.7320   -0.6180 C   0  0  0  0  0  0  0  0  0  0  0  0
    5.4430   -1.7560   -0.4090 C   0  0  0  0  0  0  0  0  0  0  0  0
    4.7320   -3.0280   -0.3020 C   0  0  0  0  0  0  0  0  0  0  0  0
    3.4510   -2.9730   -0.0680 C   0  0  0  0  0  0  0  0  0  0  0  0
    2.7510   -1.7920    0.0810 O   0  0  0  0  0  0  0  0  0  0  0  0
    3.3360   -0.5470   -0.0030 C   0  0  0  0  0  0  0  0  0  0  0  0
    2.6550    0.7190    0.1440 C   0  0  0  0  0  0  0  0  0  0  0  0
    1.4030    0.9150    0.3780 C   0  0  0  0  0  0  0  0  0  0  0  0
    0.3520   -0.0160    0.5570 C   0  0  0  0  0  0  0  0  0  0  0  0
    0.4680   -1.2460    0.5110 O   0  0  0  0  0  0  0  0  0  0  0  0
   -1.0760    0.4680    0.8350 C   0  0  2  0  0  0  0  0  0  0  0  0
   -1.0530    1.2680    2.0990 C   0  0  0  0  0  0  0  0  0  0  0  0
   -1.2570    0.4520    3.3420 C   0  0  0  0  0  0  0  0  0  0  0  0
   -2.5010   -0.4230    3.1620 C   0  0  0  0  0  0  0  0  0  0  0  0
   -2.1180   -1.4280    2.1030 C   0  0  0  0  0  0  0  0  0  0  0  0
   -2.0200   -0.6580    0.8020 C   0  0  1  0  0  0  0  0  0  0  0  0
   -3.3630   -0.3160    0.3990 N   0  0  0  0  0  0  0  0  0  0  0  0
   -4.0060   -0.9360   -0.7360 C   0  0  0  0  0  0  0  0  0  0  0  0
   -3.3500   -1.7830   -1.3560 O   0  0  0  0  0  0  0  0  0  0  0  0
   -5.3640   -0.5460   -1.0900 C   0  0  0  0  0  0  0  0  0  0  0  0
   -6.1720    0.3890   -0.4730 C   0  0  0  0  0  0  0  0  0  0  0  0
   -7.3870    0.4570   -1.1170 C   0  0  0  0  0  0  0  0  0  0  0  0
   -8.5340    1.1900   -0.9390 C   0  0  0  0  0  0  0  0  0  0  0  0
   -9.6250    1.0340   -1.7700 C   0  0  0  0  0  0  0  0  0  0  0  0
   -9.5670    0.1250   -2.8000 C   0  0  0  0  0  0  0  0  0  0  0  0
   -8.4090   -0.6030   -2.9660 C   0  0  0  0  0  0  0  0  0  0  0  0
   -7.3030   -0.4590   -2.1410 C   0  0  0  0  0  0  0  0  0  0  0  0
   -6.0730   -1.0570   -2.1100 N   0  0  0  0  0  0  0  0  0  0  0  0
    4.6690   -0.5300   -0.2460 C   0  0  0  0  0  0  0  0  0  0  0  0
    8.6580   -0.2920   -0.1220 O   0  0  0  0  0  0  0  0  0  0  0  0
  1  2  1  0
  2  3  2  0
  2 35  1  0
  3  4  1  0
  4  5  2  0
  5  6  1  0
  5 35  1  0
  6  7  2  3
  7  8  1  0
  7 34  1  0
  8  9  2  0
  9 10  1  0
 10 11  1  0
 11 12  1  0
 11 34  2  0
 12 13  2  3
 13 14  1  0
 14 15  2  0
 16 14  1  1
 16 17  1  0
 16 21  1  0
 17 18  1  0
 18 19  1  0
 19 20  1  0
 20 21  1  0
 21 22  1  1
 22 23  1  0
 23 24  2  0
 23 25  1  0
 25 26  2  0
 25 33  1  0
 26 27  1  0
 27 28  2  0
 27 32  1  0
 28 29  1  0
 29 30  2  0
 30 31  1  0
 31 32  2  0
 32 33  1  0
M  END
