
     RDKit          3D

 35 37  0  0  0  0  0  0  0  0999 V2000
    6.5300   -0.6940   -1.0140 C   0  0  0  0  0  0  0  0  0  0  0  0
    6.7150   -1.1120    0.4170 C   0  0  2  0  0  0  0  0  0  0  0  0
    6.9250    0.1050    1.2980 C   0  0  0  0  0  0  0  0  0  0  0  0
    7.9920   -1.9320    0.5110 C   0  0  0  0  0  0  0  0  0  0  0  0
    8.1510   -2.3130    1.8490 F   0  0  0  0  0  0  0  0  0  0  0  0
    5.3620   -2.1010    1.0540 S   0  0  0  0  0  0  0  0  0  0  0  0
    3.8370   -1.1940    1.1700 C   0  0  0  0  0  0  0  0  0  0  0  0
    2.9740   -1.1730    0.1000 C   0  0  0  0  0  0  0  0  0  0  0  0
    3.3420   -1.8890   -1.0730 N   0  0  0  0  0  0  0  0  0  0  0  0
    1.7590   -0.4750    0.1330 C   0  0  0  0  0  0  0  0  0  0  0  0
    1.3840    0.2240    1.2570 C   0  0  0  0  0  0  0  0  0  0  0  0
    0.1360    0.9640    1.3390 C   0  0  0  0  0  0  0  0  0  0  0  0
   -0.1330    1.5970    2.3900 O   0  0  0  0  0  0  0  0  0  0  0  0
   -0.8350    1.0170    0.2590 C   0  0  0  0  0  0  0  0  0  0  0  0
   -1.9610    1.7020    0.3640 C   0  0  0  0  0  0  0  0  0  0  0  0
   -2.4350    2.4560    1.4200 O   0  0  0  0  0  0  0  0  0  0  0  0
   -3.4140    3.3940    0.9690 C   0  0  0  0  0  0  0  0  0  0  0  0
   -3.3350    3.3020   -0.5360 C   0  0  1  0  0  0  0  0  0  0  0  0
   -2.2380    4.0090   -1.0150 O   0  0  0  0  0  0  0  0  0  0  0  0
   -3.0060    1.8070   -0.6920 C   0  0  2  0  0  0  0  0  0  0  0  0
   -4.0680    1.0060   -0.2840 O   0  0  0  0  0  0  0  0  0  0  0  0
   -4.6880   -0.0060   -0.9490 C   0  0  0  0  0  0  0  0  0  0  0  0
   -4.3510   -0.4410   -2.2150 C   0  0  0  0  0  0  0  0  0  0  0  0
   -5.0330   -1.4650   -2.7980 C   0  0  0  0  0  0  0  0  0  0  0  0
   -6.0650   -2.0760   -2.1290 C   0  0  0  0  0  0  0  0  0  0  0  0
   -6.4360   -1.6740   -0.8590 C   0  0  0  0  0  0  0  0  0  0  0  0
   -5.7420   -0.6390   -0.2780 C   0  0  0  0  0  0  0  0  0  0  0  0
   -6.1860   -0.0960    1.3460 S   0  0  2  0  0  0  0  0  0  0  0  0
   -7.5060   -1.0480    1.9140 N   0  0  0  0  0  0  0  0  0  0  0  0
   -6.5810    1.3510    1.3100 O   0  0  0  0  0  0  0  0  0  0  0  0
   -4.9900   -0.3180    2.2550 O   0  0  0  0  0  0  0  0  0  0  0  0
    2.2730    0.1920    2.3360 C   0  0  0  0  0  0  0  0  0  0  0  0
    1.8800    0.8900    3.4360 F   0  0  0  0  0  0  0  0  0  0  0  0
    3.4670   -0.4960    2.2980 C   0  0  0  0  0  0  0  0  0  0  0  0
    4.2990   -0.5030    3.3620 F   0  0  0  0  0  0  0  0  0  0  0  0
  2  1  1  6
  2  3  1  0
  2  4  1  0
  2  6  1  0
  4  5  1  0
  6  7  1  0
  7  8  2  0
  7 34  1  0
  8  9  1  0
  8 10  1  0
 10 11  2  0
 11 12  1  0
 11 32  1  0
 12 13  2  0
 12 14  1  0
 14 15  2  3
 15 16  1  0
 15 20  1  0
 16 17  1  0
 17 18  1  0
 18 19  1  1
 18 20  1  0
 20 21  1  1
 21 22  1  0
 22 23  2  0
 22 27  1  0
 23 24  1  0
 24 25  2  0
 25 26  1  0
 26 27  2  0
 27 28  1  0
 28 29  1  1
 28 30  2  0
 28 31  2  0
 32 33  1  0
 32 34  2  0
 34 35  1  0
M  END
