
     RDKit          3D

 31 33  0  0  0  0  0  0  0  0999 V2000
   -1.6710   -7.4310    1.8110 N   0  0  0  0  0  0  0  0  0  0  0  0
   -1.5030   -6.0520    1.5320 C   0  0  0  0  0  0  0  0  0  0  0  0
   -0.5090   -5.3320    1.5760 N   0  0  0  0  0  0  0  0  0  0  0  0
   -0.5920   -3.9790    1.2420 C   0  0  0  0  0  0  0  0  0  0  0  0
    0.4430   -3.2010    1.2970 O   0  0  0  0  0  0  0  0  0  0  0  0
   -1.8880   -3.5030    0.8460 C   0  0  0  0  0  0  0  0  0  0  0  0
   -2.3510   -2.3380    0.4280 C   0  0  0  0  0  0  0  0  0  0  0  0
   -1.5340   -1.1840    0.2680 N   0  0  0  0  0  0  0  0  0  0  0  0
   -2.0550    0.0670   -0.1310 C   0  0  0  0  0  0  0  0  0  0  0  0
   -3.2610    0.2530   -0.3240 O   0  0  0  0  0  0  0  0  0  0  0  0
   -1.1590    1.1870   -0.3340 N   0  0  0  0  0  0  0  0  0  0  0  0
   -1.7650    2.3000   -0.8540 C   0  0  0  0  0  0  0  0  0  0  0  0
   -1.4630    3.5720   -0.7160 C   0  0  0  0  0  0  0  0  0  0  0  0
   -2.3390    4.5650   -1.3970 C   0  0  0  0  0  0  0  0  0  0  0  0
   -2.9830    5.4110   -1.8980 C   0  0  0  0  0  0  0  0  0  0  0  0
   -2.8930    6.8720   -1.8570 C   0  0  0  0  0  0  0  0  0  0  0  0
   -1.7600    7.2770   -1.4010 O   0  0  0  0  0  0  0  0  0  0  0  0
    0.1570    0.9970    0.1320 C   0  0  0  0  0  0  0  0  0  0  0  0
    1.0040    0.2670   -0.7800 N   0  0  0  0  0  0  0  0  0  0  0  0
    2.5930    0.0270   -0.1140 S   0  0  2  0  0  0  0  0  0  0  0  0
    3.3270   -0.9680   -0.9130 O   0  0  0  0  0  0  0  0  0  0  0  0
    2.3500   -0.6440    1.2610 O   0  0  0  0  0  0  0  0  0  0  0  0
    3.3420    1.5880    0.1220 C   0  0  0  0  0  0  0  0  0  0  0  0
    4.7100    1.5810    0.7150 C   0  0  2  0  0  0  0  0  0  0  0  0
    5.8370    0.8730    0.1030 C   0  0  0  0  0  0  0  0  0  0  0  0
    6.2060    0.3600    1.5040 C   0  0  0  0  0  0  0  0  0  0  0  0
    4.9240    0.9430    2.0410 C   0  0  0  0  0  0  0  0  0  0  0  0
   -3.7910   -2.2090    0.0040 C   0  0  2  0  0  0  0  0  0  0  0  0
   -4.4400   -3.1430   -0.9080 C   0  0  0  0  0  0  0  0  0  0  0  0
   -3.8730   -1.8830   -1.5050 C   0  0  0  0  0  0  0  0  0  0  0  0
   -2.9150   -4.9900    1.0600 S   0  0  0  0  0  0  0  0  0  0  0  0
  1  2  1  0
  2  3  2  0
  2 31  1  0
  3  4  1  0
  4  5  2  0
  4  6  1  0
  6  7  2  3
  6 31  1  0
  7  8  1  0
 28  7  1  6
  8  9  1  0
  9 10  2  0
  9 11  1  0
 11 12  1  0
 11 18  1  0
 12 13  2  3
 13 14  1  0
 14 15  2  3
 15 16  1  0
 16 17  2  0
 18 19  1  0
 19 20  1  0
 20 21  2  0
 20 22  2  0
 20 23  1  1
 24 23  1  6
 24 25  1  0
 24 27  1  0
 25 26  1  0
 26 27  1  0
 28 29  1  0
 28 30  1  0
 29 30  1  0
M  END
