
     RDKit          3D

 31 34  0  0  0  0  0  0  0  0999 V2000
    7.5800   -0.1770    1.3590 C   0  0  0  0  0  0  0  0  0  0  0  0
    7.0190   -0.1970    2.6200 O   0  0  0  0  0  0  0  0  0  0  0  0
    5.6570   -0.4270    2.5370 C   0  0  0  0  0  0  0  0  0  0  0  0
    4.9340    0.5930    1.7630 C   0  0  0  0  0  0  0  0  0  0  0  0
    4.3710    1.7370    2.1960 N   0  0  0  0  0  0  0  0  0  0  0  0
    3.8340    2.3500    1.1870 O   0  0  0  0  0  0  0  0  0  0  0  0
    3.9990    1.6870    0.0860 C   0  0  0  0  0  0  0  0  0  0  0  0
    3.5410    2.0420   -1.2710 C   0  0  0  0  0  0  0  0  0  0  0  0
    2.1970    1.5090   -1.5440 N   0  0  0  0  0  0  0  0  0  0  0  0
    1.0440    2.1330   -1.3030 C   0  0  0  0  0  0  0  0  0  0  0  0
    0.9790    3.2870   -0.7990 O   0  0  0  0  0  0  0  0  0  0  0  0
    0.0010    1.3620   -1.6710 N   0  0  0  0  0  0  0  0  0  0  0  0
   -1.4120    1.6610   -1.5940 C   0  0  0  0  0  0  0  0  0  0  0  0
   -2.0390    1.2740   -0.2670 C   0  0  0  0  0  0  0  0  0  0  0  0
   -1.9300   -0.1430    0.0430 C   0  0  0  0  0  0  0  0  0  0  0  0
   -2.9050   -0.9110    0.3770 C   0  0  0  0  0  0  0  0  0  0  0  0
   -2.8070   -2.3950    0.6900 C   0  0  0  0  0  0  0  0  0  0  0  0
   -4.1170   -2.9500    0.2130 C   0  0  0  0  0  0  0  0  0  0  0  0
   -5.0040   -1.7850   -0.0920 C   0  0  1  0  0  0  0  0  0  0  0  0
   -6.5990   -2.1520    0.5810 Cl  0  0  0  0  0  0  0  0  0  0  0  0
   -4.3270   -0.6370    0.5960 C   0  0  0  0  0  0  0  0  0  0  0  0
   -4.8870    0.3220    1.2910 C   0  0  0  0  0  0  0  0  0  0  0  0
   -6.3760    0.4440    1.3890 C   0  0  0  0  0  0  0  0  0  0  0  0
   -4.1100    1.3140    2.1000 C   0  0  0  0  0  0  0  0  0  0  0  0
    0.5710    0.2210   -2.1550 C   0  0  0  0  0  0  0  0  0  0  0  0
    0.0110   -0.9340   -2.6830 C   0  0  0  0  0  0  0  0  0  0  0  0
    0.8660   -1.9310   -3.0990 C   0  0  0  0  0  0  0  0  0  0  0  0
    2.2420   -1.8170   -3.0090 C   0  0  0  0  0  0  0  0  0  0  0  0
    2.8140   -0.6740   -2.4870 C   0  0  0  0  0  0  0  0  0  0  0  0
    1.9500    0.3190   -2.0730 C   0  0  0  0  0  0  0  0  0  0  0  0
    4.6880    0.5780    0.4210 N   0  0  0  0  0  0  0  0  0  0  0  0
  1  2  1  0
  2  3  1  0
  3  4  1  0
  4  5  2  0
  4 31  1  0
  5  6  1  0
  6  7  1  0
  7  8  1  0
  7 31  2  0
  8  9  1  0
  9 10  1  0
  9 30  1  0
 10 11  2  0
 10 12  1  0
 12 13  1  0
 12 25  1  0
 13 14  1  0
 14 15  1  0
 15 16  2  3
 16 17  1  0
 16 21  1  0
 17 18  1  0
 18 19  1  0
 19 20  1  1
 19 21  1  0
 21 22  2  3
 22 23  1  0
 22 24  1  0
 25 26  2  0
 25 30  1  0
 26 27  1  0
 27 28  2  0
 28 29  1  0
 29 30  2  0
M  END
