
     RDKit          3D

 31 34  0  0  0  0  0  0  0  0999 V2000
    6.8660    0.0750   -4.0810 C   0  0  0  0  0  0  0  0  0  0  0  0
    5.9850    0.5960   -3.1160 O   0  0  0  0  0  0  0  0  0  0  0  0
    5.4810   -0.4630   -2.4080 C   0  0  0  0  0  0  0  0  0  0  0  0
    4.5280   -0.0520   -1.3460 C   0  0  0  0  0  0  0  0  0  0  0  0
    4.2020    1.2650   -1.1030 C   0  0  0  0  0  0  0  0  0  0  0  0
    3.3100    1.5970   -0.1060 C   0  0  0  0  0  0  0  0  0  0  0  0
    2.6920    0.6410    0.7050 C   0  0  0  0  0  0  0  0  0  0  0  0
    1.7200    1.0430    1.7730 C   0  0  2  0  0  0  0  0  0  0  0  0
    2.0870    0.5230    3.1110 C   0  0  0  0  0  0  0  0  0  0  0  0
    1.4600   -0.7510    3.5690 C   0  0  0  0  0  0  0  0  0  0  0  0
    0.1280   -0.9000    3.0970 N   0  0  0  0  0  0  0  0  0  0  0  0
   -0.7170   -1.8540    3.8410 C   0  0  0  0  0  0  0  0  0  0  0  0
   -0.3820   -0.1960    1.9840 C   0  0  0  0  0  0  0  0  0  0  0  0
   -1.6480   -0.4850    1.5850 N   0  0  0  0  0  0  0  0  0  0  0  0
   -2.2280    0.1290    0.5390 C   0  0  0  0  0  0  0  0  0  0  0  0
   -3.5560   -0.1790    0.1260 N   0  0  0  0  0  0  0  0  0  0  0  0
   -4.5980    0.2710    0.7000 C   0  0  0  0  0  0  0  0  0  0  0  0
   -4.4450    1.3260    2.0720 Cl  0  0  0  0  0  0  0  0  0  0  0  0
   -5.9150   -0.0900    0.2180 C   0  0  0  0  0  0  0  0  0  0  0  0
   -7.1560    0.2010    0.5850 C   0  0  0  0  0  0  0  0  0  0  0  0
   -7.7250   -0.6120   -0.4800 C   0  0  0  0  0  0  0  0  0  0  0  0
   -6.4920   -0.9080   -0.8540 C   0  0  0  0  0  0  0  0  0  0  0  0
   -5.8670   -1.6650   -1.8340 O   0  0  0  0  0  0  0  0  0  0  0  0
   -5.8820   -1.3360   -3.2020 C   0  0  0  0  0  0  0  0  0  0  0  0
   -1.5030    1.0560   -0.1130 N   0  0  0  0  0  0  0  0  0  0  0  0
   -2.0890    1.7440   -1.2490 C   0  0  0  0  0  0  0  0  0  0  0  0
   -0.2340    1.3800    0.2480 C   0  0  0  0  0  0  0  0  0  0  0  0
    0.3910    2.2550   -0.4010 O   0  0  0  0  0  0  0  0  0  0  0  0
    0.3560    0.7520    1.3170 C   0  0  0  0  0  0  0  0  0  0  0  0
    3.0250   -0.6700    0.4540 C   0  0  0  0  0  0  0  0  0  0  0  0
    3.9310   -1.0060   -0.5600 C   0  0  0  0  0  0  0  0  0  0  0  0
  1  2  1  0
  2  3  1  0
  3  4  1  0
  4  5  2  0
  4 31  1  0
  5  6  1  0
  6  7  2  0
  8  7  1  6
  7 30  1  0
  8  9  1  0
  8 29  1  0
  9 10  1  0
 10 11  1  0
 11 12  1  0
 11 13  1  0
 13 14  1  0
 13 29  2  0
 14 15  2  0
 15 16  1  0
 15 25  1  0
 16 17  2  3
 17 18  1  0
 17 19  1  0
 19 20  2  0
 19 22  1  0
 20 21  1  0
 21 22  2  0
 22 23  1  0
 23 24  1  0
 25 26  1  0
 25 27  1  0
 27 28  2  0
 27 29  1  0
 30 31  2  0
M  END
