
     RDKit          3D

 31 32  0  0  0  0  0  0  0  0999 V2000
    8.2230    1.6930    1.6610 C   0  0  0  0  0  0  0  0  0  0  0  0
    6.8860    2.0540    1.7730 O   0  0  0  0  0  0  0  0  0  0  0  0
    6.0470    0.9410    1.8030 C   0  0  0  0  0  0  0  0  0  0  0  0
    4.6470    1.4080    1.9280 C   0  0  0  0  0  0  0  0  0  0  0  0
    3.7910    1.4540    0.9830 N   0  0  0  0  0  0  0  0  0  0  0  0
    4.1620    1.0210   -0.3670 C   0  0  0  0  0  0  0  0  0  0  0  0
    5.1150    1.7010   -1.0310 C   0  0  0  0  0  0  0  0  0  0  0  0
    5.4480    1.2810   -2.2950 C   0  0  0  0  0  0  0  0  0  0  0  0
    4.3760   -0.1330   -2.5660 S   0  0  0  0  0  0  0  0  0  0  0  0
    3.5690   -0.0290   -0.9360 C   0  0  0  0  0  0  0  0  0  0  0  0
    2.5320   -0.9750   -0.5390 C   0  0  0  0  0  0  0  0  0  0  0  0
    2.2130   -1.8620   -1.3580 O   0  0  0  0  0  0  0  0  0  0  0  0
    1.8930   -0.9300    0.6990 N   0  0  0  0  0  0  0  0  0  0  0  0
    0.8500   -1.7690    1.1850 C   0  0  0  0  0  0  0  0  0  0  0  0
   -0.4900   -1.6660    0.6420 C   0  0  0  0  0  0  0  0  0  0  0  0
   -1.4130   -1.5780    1.6320 N   0  0  0  0  0  0  0  0  0  0  0  0
   -2.7310   -1.4750    1.2620 N   0  0  0  0  0  0  0  0  0  0  0  0
   -3.4710   -0.2600    1.2410 C   0  0  0  0  0  0  0  0  0  0  0  0
   -2.8540    0.7800    1.5890 O   0  0  0  0  0  0  0  0  0  0  0  0
   -4.8670   -0.2470    0.8340 C   0  0  0  0  0  0  0  0  0  0  0  0
   -5.4090   -1.3240    0.5010 O   0  0  0  0  0  0  0  0  0  0  0  0
   -5.6190    0.9570    0.8080 N   0  0  0  0  0  0  0  0  0  0  0  0
   -7.0040    1.0180    0.4120 C   0  0  0  0  0  0  0  0  0  0  0  0
   -7.4880    2.4400    0.4990 C   0  0  0  0  0  0  0  0  0  0  0  0
   -8.8290    2.4470    0.1080 O   0  0  0  0  0  0  0  0  0  0  0  0
   -1.0520   -1.6430   -0.6830 C   0  0  1  0  0  0  0  0  0  0  0  0
   -0.6220   -0.4640   -1.4820 C   0  0  0  0  0  0  0  0  0  0  0  0
   -1.8770    0.1110   -2.1490 C   0  0  0  0  0  0  0  0  0  0  0  0
   -3.0400   -1.2840   -2.4130 S   0  0  0  0  0  0  0  0  0  0  0  0
   -2.0740   -2.8030   -2.5740 C   0  0  0  0  0  0  0  0  0  0  0  0
   -1.0260   -2.9390   -1.4610 C   0  0  0  0  0  0  0  0  0  0  0  0
  1  2  1  0
  2  3  1  0
  3  4  1  0
  4  5  2  3
  5  6  1  0
  6  7  1  0
  6 10  2  0
  7  8  2  0
  8  9  1  0
  9 10  1  0
 10 11  1  0
 11 12  2  0
 11 13  1  0
 13 14  1  0
 14 15  1  0
 15 16  2  3
 26 15  1  1
 16 17  1  0
 17 18  1  0
 18 19  2  0
 18 20  1  0
 20 21  2  0
 20 22  1  0
 22 23  1  0
 23 24  1  0
 24 25  1  0
 26 27  1  0
 26 31  1  0
 27 28  1  0
 28 29  1  0
 29 30  1  0
 30 31  1  0
M  END
