
     RDKit          3D

 31 34  0  0  0  0  0  0  0  0999 V2000
    5.4250   -0.8410   -1.5040 C   0  0  0  0  0  0  0  0  0  0  0  0
    4.3660   -1.6280   -0.9350 N   0  0  0  0  0  0  0  0  0  0  0  0
    3.6920   -1.5020    0.3560 C   0  0  0  0  0  0  0  0  0  0  0  0
    2.3110   -1.9560    0.0400 C   0  0  1  0  0  0  0  0  0  0  0  0
    1.4820   -1.0190   -0.7240 C   0  0  0  0  0  0  0  0  0  0  0  0
    1.0210    0.1800   -0.0910 N   0  0  0  0  0  0  0  0  0  0  0  0
   -0.3520    0.0890    0.4100 C   0  0  0  0  0  0  0  0  0  0  0  0
   -0.9300   -1.2620    0.7240 C   0  0  0  0  0  0  0  0  0  0  0  0
   -2.2590   -1.0560    1.1740 O   0  0  0  0  0  0  0  0  0  0  0  0
   -3.2930   -0.5260    0.4680 C   0  0  0  0  0  0  0  0  0  0  0  0
   -3.2150   -0.1130   -0.8270 C   0  0  0  0  0  0  0  0  0  0  0  0
   -4.3300    0.4240   -1.4910 C   0  0  0  0  0  0  0  0  0  0  0  0
   -5.5330    0.5430   -0.8380 C   0  0  0  0  0  0  0  0  0  0  0  0
   -5.6260    0.1300    0.4690 C   0  0  0  0  0  0  0  0  0  0  0  0
   -6.8190    0.2380    1.1460 C   0  0  0  0  0  0  0  0  0  0  0  0
   -6.9180   -0.1730    2.4520 C   0  0  0  0  0  0  0  0  0  0  0  0
   -5.8330   -0.6950    3.0970 C   0  0  0  0  0  0  0  0  0  0  0  0
   -4.6360   -0.8090    2.4350 C   0  0  0  0  0  0  0  0  0  0  0  0
   -4.5240   -0.4010    1.1250 C   0  0  0  0  0  0  0  0  0  0  0  0
   -1.0340    1.1560    0.6140 N   0  0  0  0  0  0  0  0  0  0  0  0
   -0.4990    2.4320    0.3690 C   0  0  0  0  0  0  0  0  0  0  0  0
   -1.1950    3.4870    0.5790 O   0  0  0  0  0  0  0  0  0  0  0  0
    0.8200    2.5300   -0.1120 N   0  0  0  0  0  0  0  0  0  0  0  0
    1.2280    3.6990   -0.8440 C   0  0  0  0  0  0  0  0  0  0  0  0
    1.7310    1.3960    0.1770 C   0  0  1  0  0  0  0  0  0  0  0  0
    2.0760    1.5490    1.6410 C   0  0  0  0  0  0  0  0  0  0  0  0
    2.9860    1.6070   -0.6360 C   0  0  0  0  0  0  0  0  0  0  0  0
    2.6270   -3.1280   -0.7910 O   0  0  0  0  0  0  0  0  0  0  0  0
    3.7300   -2.7650   -1.5510 C   0  0  0  0  0  0  0  0  0  0  0  0
    4.1680   -3.3430   -2.6750 C   0  0  0  0  0  0  0  0  0  0  0  0
    5.5760   -2.7740   -3.5280 Cl  0  0  0  0  0  0  0  0  0  0  0  0
  1  2  1  0
  2  3  1  0
  2 29  1  0
  3  4  1  0
  4  5  1  6
  4 28  1  0
  5  6  1  0
  6  7  1  0
  6 25  1  0
  7  8  1  0
  7 20  2  0
  8  9  1  0
  9 10  1  0
 10 11  2  0
 10 19  1  0
 11 12  1  0
 12 13  2  0
 13 14  1  0
 14 15  2  0
 14 19  1  0
 15 16  1  0
 16 17  2  0
 17 18  1  0
 18 19  2  0
 20 21  1  0
 21 22  2  0
 21 23  1  0
 23 24  1  0
 23 25  1  0
 25 26  1  1
 25 27  1  0
 28 29  1  0
 29 30  2  3
 30 31  1  0
M  END
