
     RDKit          3D

 30 31  0  0  0  0  0  0  0  0999 V2000
    2.2220   -1.0240    2.4320 C   0  0  0  0  0  0  0  0  0  0  0  0
    2.2940   -1.5890    1.0260 C   0  0  0  0  0  0  0  0  0  0  0  0
    2.2180   -0.6010   -0.0060 N   0  0  0  0  0  0  0  0  0  0  0  0
    3.4860   -0.0250   -0.5140 C   0  0  0  0  0  0  0  0  0  0  0  0
    3.8090    1.1790    0.3050 C   0  0  0  0  0  0  0  0  0  0  0  0
    5.0880    1.8330   -0.1480 C   0  0  0  0  0  0  0  0  0  0  0  0
    6.2430    0.9360   -0.0240 C   0  0  0  0  0  0  0  0  0  0  0  0
    6.2200   -0.2330    0.4410 O   0  0  0  0  0  0  0  0  0  0  0  0
    7.5320    1.3890   -0.4600 N   0  0  0  0  0  0  0  0  0  0  0  0
    8.6840    0.5220   -0.3470 C   0  0  0  0  0  0  0  0  0  0  0  0
    1.0270   -0.1150   -0.5940 C   0  0  0  0  0  0  0  0  0  0  0  0
    1.2360    0.7410   -1.5340 O   0  0  0  0  0  0  0  0  0  0  0  0
   -0.3270   -0.4600   -0.2690 C   0  0  0  0  0  0  0  0  0  0  0  0
   -1.3480    0.0480   -0.9030 C   0  0  0  0  0  0  0  0  0  0  0  0
   -1.1000    1.0200   -2.0040 C   0  0  0  0  0  0  0  0  0  0  0  0
   -2.7480   -0.2710   -0.6470 C   0  0  0  0  0  0  0  0  0  0  0  0
   -3.7650    0.3960   -1.4260 N   0  0  0  0  0  0  0  0  0  0  0  0
   -4.4940    1.8690   -0.9800 S   0  0  2  0  0  0  0  0  0  0  0  0
   -5.1460    1.7820    0.3690 O   0  0  0  0  0  0  0  0  0  0  0  0
   -5.5050    2.3160   -2.0300 O   0  0  0  0  0  0  0  0  0  0  0  0
   -3.3300    3.2250   -0.8640 C   0  0  0  0  0  0  0  0  0  0  0  0
   -4.1090    4.3910   -0.4770 N   0  0  0  0  0  0  0  0  0  0  0  0
   -3.1840   -1.1170    0.2530 C   0  0  0  0  0  0  0  0  0  0  0  0
   -4.7000   -1.2050    0.2470 C   0  0  0  0  0  0  0  0  0  0  0  0
   -5.0720   -2.7010    0.3200 C   0  0  0  0  0  0  0  0  0  0  0  0
   -5.1180   -3.1630    1.7310 C   0  0  0  0  0  0  0  0  0  0  0  0
   -3.8350   -3.3850    2.4230 C   0  0  0  0  0  0  0  0  0  0  0  0
   -2.6680   -2.7660    1.9660 N   0  0  0  0  0  0  0  0  0  0  0  0
   -2.3390   -1.8940    1.1430 C   0  0  0  0  0  0  0  0  0  0  0  0
   -0.5570   -1.5940    1.0840 S   0  0  0  0  0  0  0  0  0  0  0  0
  1  2  1  0
  2  3  1  0
  3  4  1  0
  3 11  1  0
  4  5  1  0
  5  6  1  0
  6  7  1  0
  7  8  2  0
  7  9  1  0
  9 10  1  0
 11 12  2  0
 11 13  1  0
 13 14  2  0
 13 30  1  0
 14 15  1  0
 14 16  1  0
 16 17  1  0
 16 23  2  0
 17 18  1  0
 18 19  2  0
 18 20  2  0
 18 21  1  1
 21 22  1  0
 23 24  1  0
 23 29  1  0
 24 25  1  0
 25 26  1  0
 26 27  1  0
 27 28  1  0
 28 29  2  0
 29 30  1  0
M  END
