
     RDKit          3D

 27 29  0  0  0  0  0  0  0  0999 V2000
   -3.7400   -2.3270    1.1980 C   0  0  0  0  0  0  0  0  0  0  0  0
   -3.6540   -0.8140    1.2090 C   0  0  2  0  0  0  0  0  0  0  0  0
   -3.4980   -0.3720    2.6700 C   0  0  0  0  0  0  0  0  0  0  0  0
   -4.9020   -0.2570    0.6240 C   0  0  0  0  0  0  0  0  0  0  0  0
   -4.7100    1.0380   -0.1170 C   0  0  0  0  0  0  0  0  0  0  0  0
   -3.5970    1.0010   -1.1040 C   0  0  2  0  0  0  0  0  0  0  0  0
   -3.2770    2.4540   -1.4810 C   0  0  0  0  0  0  0  0  0  0  0  0
   -3.9370    0.2950   -2.3890 C   0  0  0  0  0  0  0  0  0  0  0  0
   -2.3590    0.4190   -0.5590 C   0  0  0  0  0  0  0  0  0  0  0  0
   -1.1690    0.7340   -1.1470 C   0  0  0  0  0  0  0  0  0  0  0  0
    0.0660    0.2230   -0.6930 C   0  0  0  0  0  0  0  0  0  0  0  0
    1.2690    0.5540   -1.3920 C   0  0  0  0  0  0  0  0  0  0  0  0
    1.0570    1.1210   -2.5810 O   0  0  0  0  0  0  0  0  0  0  0  0
    2.6480    0.4040   -1.0750 C   0  0  0  0  0  0  0  0  0  0  0  0
    3.2880   -0.0350   -0.0440 C   0  0  0  0  0  0  0  0  0  0  0  0
    4.7520   -0.1180    0.0980 C   0  0  0  0  0  0  0  0  0  0  0  0
    5.2960   -0.6190    1.2790 C   0  0  0  0  0  0  0  0  0  0  0  0
    6.6600   -0.7200    1.4690 C   0  0  0  0  0  0  0  0  0  0  0  0
    7.5540   -0.3290    0.4950 C   0  0  0  0  0  0  0  0  0  0  0  0
    8.9880   -0.4460    0.7210 C   0  0  0  0  0  0  0  0  0  0  0  0
    9.4950   -0.8940    1.7750 O   0  0  0  0  0  0  0  0  0  0  0  0
    9.8360   -0.0370   -0.2940 O   0  0  0  0  0  0  0  0  0  0  0  0
    7.0290    0.1670   -0.6740 C   0  0  0  0  0  0  0  0  0  0  0  0
    5.6430    0.2700   -0.8670 C   0  0  0  0  0  0  0  0  0  0  0  0
   -0.0030   -0.6070    0.3680 C   0  0  0  0  0  0  0  0  0  0  0  0
   -1.2360   -0.9280    0.9710 C   0  0  0  0  0  0  0  0  0  0  0  0
   -2.4240   -0.4170    0.5110 C   0  0  0  0  0  0  0  0  0  0  0  0
  2  1  1  1
  2  3  1  0
  2  4  1  0
  2 27  1  0
  4  5  1  0
  5  6  1  0
  6  7  1  6
  6  8  1  0
  6  9  1  0
  9 10  2  0
  9 27  1  0
 10 11  1  0
 11 12  1  0
 11 25  2  0
 12 13  2  0
 12 14  1  0
 14 15  2  3
 15 16  1  0
 16 17  2  0
 16 24  1  0
 17 18  1  0
 18 19  2  0
 19 20  1  0
 19 23  1  0
 20 21  2  0
 20 22  1  0
 23 24  2  0
 25 26  1  0
 26 27  2  0
M  CHG  1  22  -1
M  END
