
     RDKit          3D

 22 24  0  0  0  0  0  0  0  0999 V2000
    0.2980    1.0120   -0.4140 O   0  0  0  0  0  0  0  0  0  0  0  0
    0.4250    0.2560    0.5710 C   0  0  0  0  0  0  0  0  0  0  0  0
    1.7520    0.1100    1.0750 N   0  0  0  0  0  0  0  0  0  0  0  0
    2.8750    0.7450    0.5420 N   0  0  0  0  0  0  0  0  0  0  0  0
    4.0810    0.0130    0.2680 C   0  0  0  0  0  0  0  0  0  0  0  0
    4.0310   -1.2070    0.5390 O   0  0  0  0  0  0  0  0  0  0  0  0
    5.2570    0.5710   -0.2610 N   0  0  0  0  0  0  0  0  0  0  0  0
    6.4580   -0.2390   -0.5140 C   0  0  2  0  0  0  0  0  0  0  0  0
    7.7630    0.2710    0.0200 C   0  0  0  0  0  0  0  0  0  0  0  0
    7.4910    0.2260   -1.4520 C   0  0  0  0  0  0  0  0  0  0  0  0
   -0.6640   -0.4250    1.1680 N   0  0  0  0  0  0  0  0  0  0  0  0
   -1.9920   -0.3220    0.7280 C   0  0  0  0  0  0  0  0  0  0  0  0
   -2.4700    0.5960   -0.1590 C   0  0  0  0  0  0  0  0  0  0  0  0
   -3.8120    0.6140   -0.5410 C   0  0  0  0  0  0  0  0  0  0  0  0
   -4.6920   -0.3180   -0.0130 C   0  0  0  0  0  0  0  0  0  0  0  0
   -6.1140   -0.3240   -0.3710 C   0  0  0  0  0  0  0  0  0  0  0  0
   -6.7250    0.5220   -1.1810 C   0  0  0  0  0  0  0  0  0  0  0  0
   -8.1450    0.1000   -1.2170 C   0  0  0  0  0  0  0  0  0  0  0  0
   -8.2190   -0.9160   -0.4080 C   0  0  0  0  0  0  0  0  0  0  0  0
   -7.0740   -1.2940    0.1290 C   0  0  0  0  0  0  0  0  0  0  0  0
   -4.2020   -1.2220    0.8640 N   0  0  0  0  0  0  0  0  0  0  0  0
   -2.9180   -1.2320    1.2240 C   0  0  0  0  0  0  0  0  0  0  0  0
  1  2  2  0
  2  3  1  0
  2 11  1  0
  3  4  1  0
  4  5  1  0
  5  6  2  0
  5  7  1  0
  8  7  1  1
  8  9  1  0
  8 10  1  0
  9 10  1  0
 11 12  1  0
 12 13  2  0
 12 22  1  0
 13 14  1  0
 14 15  2  0
 15 16  1  0
 15 21  1  0
 16 17  2  0
 16 20  1  0
 17 18  1  0
 18 19  2  0
 19 20  2  0
 21 22  2  0
M  END
