
     RDKit          3D

 22 24  0  0  0  0  0  0  0  0999 V2000
   -4.6430    2.1120   -0.7990 C   0  0  0  0  0  0  0  0  0  0  0  0
   -4.2700    1.4920    0.5300 C   0  0  0  0  0  0  0  0  0  0  0  0
   -2.9610    0.8730    0.4620 N   0  0  0  0  0  0  0  0  0  0  0  0
   -1.8010    1.4210    0.7180 N   0  0  0  0  0  0  0  0  0  0  0  0
   -0.7860    0.5330    0.5460 C   0  0  0  0  0  0  0  0  0  0  0  0
    0.6220    0.7870    0.7850 C   0  0  0  0  0  0  0  0  0  0  0  0
    0.8870    1.5960    1.6930 O   0  0  0  0  0  0  0  0  0  0  0  0
    1.6100    0.1600    0.0300 N   0  0  0  0  0  0  0  0  0  0  0  0
    2.9930    0.3410    0.2120 C   0  0  0  0  0  0  0  0  0  0  0  0
    3.5430    1.1540    1.1520 C   0  0  0  0  0  0  0  0  0  0  0  0
    4.9390    1.2740    1.2630 C   0  0  0  0  0  0  0  0  0  0  0  0
    5.3930    2.0460    2.1570 O   0  0  0  0  0  0  0  0  0  0  0  0
    5.7670    0.6060    0.4650 N   0  0  0  0  0  0  0  0  0  0  0  0
    5.2150   -0.1940   -0.4600 C   0  0  0  0  0  0  0  0  0  0  0  0
    3.8690   -0.3480   -0.6120 C   0  0  0  0  0  0  0  0  0  0  0  0
    3.3460   -1.2060   -1.6040 N   0  0  0  0  0  0  0  0  0  0  0  0
   -1.3790   -0.6360    0.1610 C   0  0  0  0  0  0  0  0  0  0  0  0
   -0.9240   -1.9080   -0.1440 C   0  0  0  0  0  0  0  0  0  0  0  0
   -1.7930   -2.9490   -0.4990 C   0  0  0  0  0  0  0  0  0  0  0  0
   -3.1320   -2.6530   -0.5320 C   0  0  0  0  0  0  0  0  0  0  0  0
   -3.6230   -1.4070   -0.2340 C   0  0  0  0  0  0  0  0  0  0  0  0
   -2.7420   -0.4120    0.1100 C   0  0  0  0  0  0  0  0  0  0  0  0
  1  2  1  0
  2  3  1  0
  3  4  1  0
  3 22  1  0
  4  5  2  0
  5  6  1  0
  5 17  1  0
  6  7  2  0
  6  8  1  0
  8  9  1  0
  9 10  2  0
  9 15  1  0
 10 11  1  0
 11 12  2  0
 11 13  1  0
 13 14  1  0
 14 15  2  0
 15 16  1  0
 17 18  2  0
 17 22  1  0
 18 19  1  0
 19 20  2  0
 20 21  1  0
 21 22  2  0
M  END
