
     RDKit          3D

 29 33  0  0  0  0  0  0  0  0999 V2000
   -8.0020    0.5440    1.1530 C   0  0  0  0  0  0  0  0  0  0  0  0
   -6.7620   -0.2390    1.0080 C   0  0  0  0  0  0  0  0  0  0  0  0
   -6.5920   -1.3690    1.7910 C   0  0  0  0  0  0  0  0  0  0  0  0
   -5.4530   -2.1280    1.6890 C   0  0  0  0  0  0  0  0  0  0  0  0
   -4.5190   -1.7410    0.8130 N   0  0  0  0  0  0  0  0  0  0  0  0
   -4.6130   -0.6660    0.0270 C   0  0  0  0  0  0  0  0  0  0  0  0
   -5.7750    0.0990    0.1380 C   0  0  0  0  0  0  0  0  0  0  0  0
   -5.8940    1.2870   -0.7210 C   0  0  0  0  0  0  0  0  0  0  0  0
   -4.5360    1.8880   -1.0180 C   0  0  0  0  0  0  0  0  0  0  0  0
   -3.6670    0.8580   -1.6910 C   0  0  0  0  0  0  0  0  0  0  0  0
   -3.5680   -0.3320   -0.8770 N   0  0  0  0  0  0  0  0  0  0  0  0
   -2.4070   -1.2100   -0.9650 C   0  0  0  0  0  0  0  0  0  0  0  0
   -1.1930   -0.4580   -0.5710 C   0  0  0  0  0  0  0  0  0  0  0  0
    0.0120   -0.9520   -0.9660 N   0  0  0  0  0  0  0  0  0  0  0  0
    1.1370   -0.3280   -0.6420 C   0  0  0  0  0  0  0  0  0  0  0  0
    2.4590   -0.5830   -0.8930 C   0  0  0  0  0  0  0  0  0  0  0  0
    3.0520   -1.7130   -1.6540 C   0  0  0  0  0  0  0  0  0  0  0  0
    3.2070    0.4280   -0.2970 C   0  0  0  0  0  0  0  0  0  0  0  0
    4.6870    0.5520   -0.3150 C   0  0  0  0  0  0  0  0  0  0  0  0
    5.2720   -0.4420    0.6610 C   0  0  0  0  0  0  0  0  0  0  0  0
    6.7580   -0.4060    0.7260 C   0  0  1  0  0  0  0  0  0  0  0  0
    7.5040   -0.6960   -0.5420 C   0  0  0  0  0  0  0  0  0  0  0  0
    8.5090    0.3700   -0.1320 C   0  0  0  0  0  0  0  0  0  0  0  0
    7.4180    0.9280    0.7930 C   0  0  0  0  0  0  0  0  0  0  0  0
    2.3110    1.2310    0.2760 N   0  0  0  0  0  0  0  0  0  0  0  0
    1.0840    0.7980    0.0810 N   0  0  0  0  0  0  0  0  0  0  0  0
   -0.0880    1.3140    0.4880 C   0  0  0  0  0  0  0  0  0  0  0  0
   -0.1960    2.3660    1.1680 O   0  0  0  0  0  0  0  0  0  0  0  0
   -1.2330    0.6690    0.1520 N   0  0  0  0  0  0  0  0  0  0  0  0
  1  2  1  0
  2  3  2  0
  2  7  1  0
  3  4  1  0
  4  5  2  0
  5  6  1  0
  6  7  2  0
  6 11  1  0
  7  8  1  0
  8  9  1  0
  9 10  1  0
 10 11  1  0
 11 12  1  0
 12 13  1  0
 13 14  2  0
 13 29  1  0
 14 15  1  0
 15 16  2  0
 15 26  1  0
 16 17  1  0
 16 18  1  0
 18 19  1  0
 18 25  2  0
 19 20  1  0
 21 20  1  6
 21 22  1  0
 21 24  1  0
 22 23  1  0
 23 24  1  0
 25 26  1  0
 26 27  1  0
 27 28  2  0
 27 29  1  0
M  END
