
     RDKit          3D

 29 33  0  0  0  0  0  0  0  0999 V2000
   -5.8550    0.0270   -2.2270 O   0  0  0  0  0  0  0  0  0  0  0  0
   -5.4600   -0.3160   -1.0660 C   0  0  0  0  0  0  0  0  0  0  0  0
   -4.2000   -0.9060   -0.6710 C   0  0  0  0  0  0  0  0  0  0  0  0
   -3.1050   -1.2140   -1.6500 C   0  0  0  0  0  0  0  0  0  0  0  0
   -2.6140   -0.0280   -2.3980 C   0  0  0  0  0  0  0  0  0  0  0  0
   -2.0070    1.0720   -1.5990 C   0  0  0  0  0  0  0  0  0  0  0  0
   -0.8360    0.6380   -0.8830 N   0  0  0  0  0  0  0  0  0  0  0  0
   -0.8030    0.1710    0.3660 C   0  0  0  0  0  0  0  0  0  0  0  0
    0.4910   -0.1080    0.6600 N   0  0  0  0  0  0  0  0  0  0  0  0
    1.2850    0.1740   -0.3860 C   0  0  0  0  0  0  0  0  0  0  0  0
    2.6410    0.0840   -0.6270 C   0  0  0  0  0  0  0  0  0  0  0  0
    3.4880   -0.4050    0.3910 N   0  0  0  0  0  0  0  0  0  0  0  0
    4.9260   -0.5350    0.2310 C   0  0  2  0  0  0  0  0  0  0  0  0
    5.5630   -1.0690    1.4450 C   0  0  0  0  0  0  0  0  0  0  0  0
    7.0050   -0.7760    1.6480 C   0  0  0  0  0  0  0  0  0  0  0  0
    7.5860    0.2110    0.6780 C   0  0  0  0  0  0  0  0  0  0  0  0
    6.5630    1.3390    0.5610 C   0  0  0  0  0  0  0  0  0  0  0  0
    5.4440    0.7690   -0.2790 C   0  0  0  0  0  0  0  0  0  0  0  0
    3.1190    0.4630   -1.8200 N   0  0  0  0  0  0  0  0  0  0  0  0
    2.2940    0.9350   -2.8000 C   0  0  0  0  0  0  0  0  0  0  0  0
    0.9620    1.0180   -2.5480 N   0  0  0  0  0  0  0  0  0  0  0  0
    0.4160    0.6550   -1.3740 C   0  0  0  0  0  0  0  0  0  0  0  0
   -4.1950   -1.1070    0.6300 C   0  0  0  0  0  0  0  0  0  0  0  0
   -5.4670   -0.6640    1.2280 C   0  0  0  0  0  0  0  0  0  0  0  0
   -5.9130   -0.6670    2.4770 C   0  0  0  0  0  0  0  0  0  0  0  0
   -7.2450   -0.1390    2.6930 C   0  0  0  0  0  0  0  0  0  0  0  0
   -7.9950    0.3270    1.7080 C   0  0  0  0  0  0  0  0  0  0  0  0
   -7.5560    0.3550    0.3140 C   0  0  0  0  0  0  0  0  0  0  0  0
   -6.2400   -0.1740    0.1510 N   0  0  0  0  0  0  0  0  0  0  0  0
  1  2  2  0
  2  3  1  0
  2 29  1  0
  3  4  1  0
  3 23  2  0
  4  5  1  0
  5  6  1  0
  6  7  1  0
  7  8  1  0
  7 22  1  0
  8  9  2  0
  9 10  1  0
 10 11  2  0
 10 22  1  0
 11 12  1  0
 11 19  1  0
 13 12  1  1
 13 14  1  0
 13 18  1  0
 14 15  1  0
 15 16  1  0
 16 17  1  0
 17 18  1  0
 19 20  2  0
 20 21  1  0
 21 22  2  0
 23 24  1  0
 24 25  2  0
 24 29  1  0
 25 26  1  0
 26 27  2  0
 27 28  1  0
 28 29  1  0
M  END
