
     RDKit          3D

 30 33  0  0  0  0  0  0  0  0999 V2000
   -5.1220    0.3650   -1.3310 C   0  0  0  0  0  0  0  0  0  0  0  0
   -4.5470    1.0440   -0.1330 C   0  0  1  0  0  0  0  0  0  0  0  0
   -5.2660    2.3740    0.0280 C   0  0  0  0  0  0  0  0  0  0  0  0
   -4.7600    0.2970    1.1650 C   0  0  0  0  0  0  0  0  0  0  0  0
   -3.9990   -0.9760    1.2770 C   0  0  0  0  0  0  0  0  0  0  0  0
   -2.6850   -1.0380    0.5960 C   0  0  2  0  0  0  0  0  0  0  0  0
   -2.8480   -1.9080   -0.6510 C   0  0  0  0  0  0  0  0  0  0  0  0
   -1.6310   -1.7320    1.4450 C   0  0  0  0  0  0  0  0  0  0  0  0
   -2.1910    0.2740    0.1320 C   0  0  0  0  0  0  0  0  0  0  0  0
   -0.7940    0.4830    0.0560 C   0  0  0  0  0  0  0  0  0  0  0  0
   -0.2720    1.6610   -0.3700 C   0  0  0  0  0  0  0  0  0  0  0  0
    1.1730    1.9300   -0.5410 C   0  0  0  0  0  0  0  0  0  0  0  0
    1.5260    3.1870   -0.6600 N   0  0  0  0  0  0  0  0  0  0  0  0
    2.7770    3.6480   -0.8250 O   0  0  0  0  0  0  0  0  0  0  0  0
    2.1790    0.9130   -0.5410 C   0  0  0  0  0  0  0  0  0  0  0  0
    1.9170   -0.3970   -0.9170 C   0  0  0  0  0  0  0  0  0  0  0  0
    2.8290   -1.4250   -0.8440 C   0  0  0  0  0  0  0  0  0  0  0  0
    4.0980   -1.1650   -0.3710 C   0  0  0  0  0  0  0  0  0  0  0  0
    5.0430   -2.1850   -0.2860 C   0  0  0  0  0  0  0  0  0  0  0  0
    6.2990   -1.8790    0.1930 C   0  0  0  0  0  0  0  0  0  0  0  0
    7.3110   -2.9530    0.2880 C   0  0  0  0  0  0  0  0  0  0  0  0
    7.0460   -4.1270   -0.0570 O   0  0  0  0  0  0  0  0  0  0  0  0
    8.5880   -2.6920    0.7630 O   0  0  0  0  0  0  0  0  0  0  0  0
    6.6030   -0.5950    0.5750 C   0  0  0  0  0  0  0  0  0  0  0  0
    5.6830    0.4210    0.4980 C   0  0  0  0  0  0  0  0  0  0  0  0
    4.4000    0.1240    0.0120 C   0  0  0  0  0  0  0  0  0  0  0  0
    3.4660    1.1380   -0.0690 C   0  0  0  0  0  0  0  0  0  0  0  0
   -1.1900    2.6610   -0.7280 C   0  0  0  0  0  0  0  0  0  0  0  0
   -2.5520    2.4720   -0.6580 C   0  0  0  0  0  0  0  0  0  0  0  0
   -3.0680    1.2630   -0.2230 C   0  0  0  0  0  0  0  0  0  0  0  0
  2  1  1  6
  2  3  1  0
  2  4  1  0
  2 30  1  0
  4  5  1  0
  5  6  1  0
  6  7  1  6
  6  8  1  0
  6  9  1  0
  9 10  2  0
  9 30  1  0
 10 11  1  0
 11 12  1  0
 11 28  2  0
 12 13  2  3
 12 15  1  0
 13 14  1  0
 15 16  2  0
 15 27  1  0
 16 17  1  0
 17 18  2  0
 18 19  1  0
 18 26  1  0
 19 20  2  0
 20 21  1  0
 20 24  1  0
 21 22  2  0
 21 23  1  0
 24 25  2  0
 25 26  1  0
 26 27  2  0
 28 29  1  0
 29 30  2  0
M  END
