
     RDKit          3D

 29 33  0  0  0  0  0  0  0  0999 V2000
   -4.8830    2.7220    1.8940 C   0  0  0  0  0  0  0  0  0  0  0  0
   -5.1110    2.6230    0.4450 C   0  0  0  0  0  0  0  0  0  0  0  0
   -4.2940    1.9390   -0.3310 C   0  0  0  0  0  0  0  0  0  0  0  0
   -3.1360    1.2540    0.2110 N   0  0  0  0  0  0  0  0  0  0  0  0
   -2.2700    0.5230   -0.6220 C   0  0  0  0  0  0  0  0  0  0  0  0
   -1.0790   -0.1860   -0.0800 C   0  0  0  0  0  0  0  0  0  0  0  0
   -0.7680   -0.1720    1.1710 C   0  0  0  0  0  0  0  0  0  0  0  0
    0.3850   -0.8520    1.7340 C   0  0  0  0  0  0  0  0  0  0  0  0
    1.4260   -1.1630    0.7950 N   0  0  0  0  0  0  0  0  0  0  0  0
    2.2050    0.0440    0.6090 C   0  0  0  0  0  0  0  0  0  0  0  0
    3.3480   -0.0860   -0.3350 C   0  0  0  0  0  0  0  0  0  0  0  0
    4.2770   -1.1420    0.1760 C   0  0  0  0  0  0  0  0  0  0  0  0
    5.4310   -1.5860   -0.3540 N   0  0  0  0  0  0  0  0  0  0  0  0
    5.9740   -2.5510    0.4110 C   0  0  0  0  0  0  0  0  0  0  0  0
    7.2050   -3.2990    0.2150 C   0  0  0  0  0  0  0  0  0  0  0  0
    7.7000   -4.2720    1.0410 C   0  0  0  0  0  0  0  0  0  0  0  0
    8.8860   -4.6870    0.4440 C   0  0  0  0  0  0  0  0  0  0  0  0
    9.0750   -3.9790   -0.6920 N   0  0  0  0  0  0  0  0  0  0  0  0
    8.0450   -3.1430   -0.8130 N   0  0  0  0  0  0  0  0  0  0  0  0
    5.1090   -2.6870    1.4380 N   0  0  0  0  0  0  0  0  0  0  0  0
    4.1220   -1.8560    1.2850 O   0  0  0  0  0  0  0  0  0  0  0  0
    0.9570   -1.6150   -0.4650 C   0  0  0  0  0  0  0  0  0  0  0  0
   -0.2190   -0.9430   -1.0300 C   0  0  0  0  0  0  0  0  0  0  0  0
   -2.5420    0.4770   -1.9120 C   0  0  0  0  0  0  0  0  0  0  0  0
   -3.6920    1.1420   -2.5320 C   0  0  0  0  0  0  0  0  0  0  0  0
   -4.5210    1.8370   -1.7670 C   0  0  0  0  0  0  0  0  0  0  0  0
   -5.6880    2.5120   -2.3870 C   0  0  0  0  0  0  0  0  0  0  0  0
   -6.0210    3.7290   -1.5730 C   0  0  0  0  0  0  0  0  0  0  0  0
   -6.2980    3.3220   -0.1410 C   0  0  0  0  0  0  0  0  0  0  0  0
  1  2  1  0
  2  3  2  0
  2 29  1  0
  3  4  1  0
  3 26  1  0
  4  5  1  0
  5  6  1  0
  5 24  2  0
  6  7  2  0
  6 23  1  0
  7  8  1  0
  8  9  1  0
  9 10  1  0
  9 22  1  0
 10 11  1  0
 11 12  1  0
 12 13  2  0
 12 21  1  0
 13 14  1  0
 14 15  1  0
 14 20  2  0
 15 16  2  0
 15 19  1  0
 16 17  1  0
 17 18  2  0
 18 19  1  0
 20 21  1  0
 22 23  1  0
 24 25  1  0
 25 26  2  0
 26 27  1  0
 27 28  1  0
 28 29  1  0
M  END
