
     RDKit          3D

 24 24  0  0  0  0  0  0  0  0999 V2000
   -1.8660    0.4310    3.5630 C   0  0  0  0  0  0  0  0  0  0  0  0
   -1.9140    1.6410    3.0450 C   0  0  0  0  0  0  0  0  0  0  0  0
   -2.2080    1.7470    1.5900 C   0  0  0  0  0  0  0  0  0  0  0  0
   -2.2520    2.9500    1.1230 C   0  0  0  0  0  0  0  0  0  0  0  0
   -2.3890    0.5230    0.7950 C   0  0  0  0  0  0  0  0  0  0  0  0
   -2.4220    0.6360   -0.6630 C   0  0  1  0  0  0  0  0  0  0  0  0
   -1.1780    1.1360   -1.3340 C   0  0  0  0  0  0  0  0  0  0  0  0
    0.0720    0.3710   -1.1180 C   0  0  2  0  0  0  0  0  0  0  0  0
    1.1730    1.0890   -1.9170 C   0  0  0  0  0  0  0  0  0  0  0  0
    0.0520   -1.0820   -1.3930 C   0  0  0  0  0  0  0  0  0  0  0  0
    1.3810   -1.7670   -1.1420 C   0  0  0  0  0  0  0  0  0  0  0  0
    1.8120   -1.6330    0.2680 C   0  0  0  0  0  0  0  0  0  0  0  0
    2.9650   -1.0490    0.5230 C   0  0  0  0  0  0  0  0  0  0  0  0
    3.9720   -0.4680   -0.3980 C   0  0  0  0  0  0  0  0  0  0  0  0
    5.2450   -0.4100    0.4200 C   0  0  2  0  0  0  0  0  0  0  0  0
    6.0940    0.7690   -0.0320 C   0  0  0  0  0  0  0  0  0  0  0  0
    6.0610   -1.6610    0.3020 C   0  0  0  0  0  0  0  0  0  0  0  0
    4.7040   -0.1980    1.8030 C   0  0  0  0  0  0  0  0  0  0  0  0
    3.4770   -0.8660    1.8230 O   0  0  0  0  0  0  0  0  0  0  0  0
   -3.2080   -0.3750   -1.4350 C   0  0  2  0  0  0  0  0  0  0  0  0
   -2.9280    0.0010   -2.8300 O   0  0  0  0  0  0  0  0  0  0  0  0
   -4.6830   -0.1890   -1.3870 C   0  0  0  0  0  0  0  0  0  0  0  0
   -5.4460   -0.2630   -0.1420 C   0  0  0  0  0  0  0  0  0  0  0  0
   -5.3860   -1.5900    0.5900 C   0  0  0  0  0  0  0  0  0  0  0  0
  1  2  2  0
  2  3  1  0
  3  4  2  0
  3  5  1  0
  6  5  1  1
  6  7  1  0
  6 20  1  0
  7  8  1  0
  8  9  1  6
  8 10  1  0
 10 11  1  0
 11 12  1  0
 12 13  2  3
 13 14  1  0
 13 19  1  0
 14 15  1  0
 15 16  1  6
 15 17  1  0
 15 18  1  0
 18 19  1  0
 20 21  1  6
 20 22  1  0
 22 23  1  0
 23 24  1  0
M  END
