
     RDKit          3D

 12 12  0  0  0  0  0  0  0  0999 V2000
    3.7220    0.8540   -0.7310 O   0  0  0  0  0  0  0  0  0  0  0  0
    3.0240    0.0520    0.1680 C   0  0  0  0  0  0  0  0  0  0  0  0
    1.5370    0.3550    0.0560 C   0  0  1  0  0  0  0  0  0  0  0  0
    1.1190    0.0890   -1.2300 O   0  0  0  0  0  0  0  0  0  0  0  0
   -0.2130    0.3990   -1.3630 C   0  0  0  0  0  0  0  0  0  0  0  0
   -1.0470   -0.3770   -0.3740 C   0  0  2  0  0  0  0  0  0  0  0  0
   -1.0250   -1.7200   -0.6940 O   0  0  0  0  0  0  0  0  0  0  0  0
   -2.4810    0.1050   -0.3760 C   0  0  0  0  0  0  0  0  0  0  0  0
   -2.4940    1.4670   -0.0500 O   0  0  0  0  0  0  0  0  0  0  0  0
   -0.4760   -0.2030    1.0190 C   0  0  1  0  0  0  0  0  0  0  0  0
   -1.0890   -1.1330    1.8420 O   0  0  0  0  0  0  0  0  0  0  0  0
    0.8960   -0.4280    1.0090 O   0  0  0  0  0  0  0  0  0  0  0  0
  1  2  1  0
  3  2  1  6
  3  4  1  0
  3 12  1  0
  4  5  1  0
  5  6  1  0
  6  7  1  6
  6  8  1  0
  6 10  1  0
  8  9  1  0
 10 11  1  1
 10 12  1  0
M  END
