
     RDKit          3D

 12 12  0  0  0  0  0  0  0  0999 V2000
    0.8910    3.0150   -0.5550 O   0  0  0  0  0  0  0  0  0  0  0  0
   -0.1080    2.1290   -0.1930 C   0  0  0  0  0  0  0  0  0  0  0  0
    0.4290    0.7150   -0.2190 C   0  0  1  0  0  0  0  0  0  0  0  0
    1.4860    0.6710    0.6950 O   0  0  0  0  0  0  0  0  0  0  0  0
    1.7800   -0.6350    1.0830 C   0  0  2  0  0  0  0  0  0  0  0  0
    3.1350   -0.6910    1.3870 O   0  0  0  0  0  0  0  0  0  0  0  0
    1.4490   -1.5610    0.0780 O   0  0  0  0  0  0  0  0  0  0  0  0
    0.0500   -1.6730    0.0400 C   0  0  2  0  0  0  0  0  0  0  0  0
   -0.3160   -2.1730   -1.2150 O   0  0  0  0  0  0  0  0  0  0  0  0
   -0.5870   -0.2930    0.2270 C   0  0  2  0  0  0  0  0  0  0  0  0
   -1.8860   -0.2240   -0.5120 C   0  0  0  0  0  0  0  0  0  0  0  0
   -2.7140   -1.2280    0.0280 O   0  0  0  0  0  0  0  0  0  0  0  0
  1  2  1  0
  3  2  1  1
  3  4  1  0
  3 10  1  0
  4  5  1  0
  5  6  1  6
  5  7  1  0
  7  8  1  0
  8  9  1  6
  8 10  1  0
 10 11  1  6
 11 12  1  0
M  END
