
     RDKit          3D

 12 12  0  0  0  0  0  0  0  0999 V2000
    4.1240   -0.5500    1.1210 O   0  0  0  0  0  0  0  0  0  0  0  0
    3.1280   -0.2250    0.2250 C   0  0  0  0  0  0  0  0  0  0  0  0
    1.8870   -0.0060    0.8620 O   0  0  0  0  0  0  0  0  0  0  0  0
    0.9940    0.3080   -0.1430 C   0  0  0  0  0  0  0  0  0  0  0  0
   -0.3930    0.5780    0.3280 C   0  0  2  0  0  0  0  0  0  0  0  0
   -1.0440   -0.5560    1.0440 C   0  0  2  0  0  0  0  0  0  0  0  0
   -0.5630   -1.7960    0.7030 O   0  0  0  0  0  0  0  0  0  0  0  0
   -2.5020   -0.3980    0.5930 C   0  0  2  0  0  0  0  0  0  0  0  0
   -3.2340   -1.5350    0.8230 O   0  0  0  0  0  0  0  0  0  0  0  0
   -2.3420   -0.1220   -0.7450 O   0  0  0  0  0  0  0  0  0  0  0  0
   -1.2800    0.7330   -0.9020 C   0  0  1  0  0  0  0  0  0  0  0  0
   -1.6500    2.0590   -1.1080 O   0  0  0  0  0  0  0  0  0  0  0  0
  1  2  1  0
  2  3  1  0
  3  4  1  0
  5  4  1  6
  5  6  1  0
  5 11  1  0
  6  7  1  6
  6  8  1  0
  8  9  1  6
  8 10  1  0
 10 11  1  0
 11 12  1  1
M  END
