
     RDKit          3D

 12 12  0  0  0  0  0  0  0  0999 V2000
   -0.9200   -0.1860   -1.5510 C   0  0  0  0  0  0  0  0  0  0  0  0
   -0.6830   -0.1800   -0.0790 C   0  0  1  0  0  0  0  0  0  0  0  0
   -1.9990    0.0780    0.6270 C   0  0  0  0  0  0  0  0  0  0  0  0
   -1.8160    0.1510    1.9960 O   0  0  0  0  0  0  0  0  0  0  0  0
   -0.1430   -1.3840    0.3640 O   0  0  0  0  0  0  0  0  0  0  0  0
    1.1360   -1.5910   -0.0750 C   0  0  2  0  0  0  0  0  0  0  0  0
    1.5820   -2.8050    0.4530 O   0  0  0  0  0  0  0  0  0  0  0  0
    2.0380   -0.6070    0.2870 O   0  0  0  0  0  0  0  0  0  0  0  0
    1.6040    0.6330   -0.2330 C   0  0  2  0  0  0  0  0  0  0  0  0
    2.5700    1.5660    0.1690 O   0  0  0  0  0  0  0  0  0  0  0  0
    0.2700    0.9170    0.3680 C   0  0  1  0  0  0  0  0  0  0  0  0
   -0.2490    2.1520    0.0730 O   0  0  0  0  0  0  0  0  0  0  0  0
  2  1  1  6
  2  3  1  0
  2  5  1  0
  2 11  1  0
  3  4  1  0
  5  6  1  0
  6  7  1  1
  6  8  1  0
  8  9  1  0
  9 10  1  1
  9 11  1  0
 11 12  1  6
M  END
