
     RDKit          3D

 12 12  0  0  0  0  0  0  0  0999 V2000
   -1.8100    0.9500    0.9770 C   0  0  0  0  0  0  0  0  0  0  0  0
   -1.0340    0.5020   -0.2130 C   0  0  2  0  0  0  0  0  0  0  0  0
   -1.9440   -0.3030   -1.1090 C   0  0  0  0  0  0  0  0  0  0  0  0
   -1.3140   -0.7660   -2.2490 O   0  0  0  0  0  0  0  0  0  0  0  0
    0.1990   -0.2860    0.1260 C   0  0  1  0  0  0  0  0  0  0  0  0
   -0.1740   -1.4190    0.8320 O   0  0  0  0  0  0  0  0  0  0  0  0
    0.9260   -0.6540   -1.0030 O   0  0  0  0  0  0  0  0  0  0  0  0
    2.2620   -0.5180   -0.6870 C   0  0  2  0  0  0  0  0  0  0  0  0
    3.0140   -1.6230   -1.1000 O   0  0  0  0  0  0  0  0  0  0  0  0
    2.3540   -0.3220    0.6880 O   0  0  0  0  0  0  0  0  0  0  0  0
    1.2130    0.4880    0.9040 C   0  0  1  0  0  0  0  0  0  0  0  0
    1.4990    1.7110    0.3150 O   0  0  0  0  0  0  0  0  0  0  0  0
  2  1  1  1
  2  3  1  0
  2  5  1  0
  3  4  1  0
  5  6  1  1
  5  7  1  0
  5 11  1  0
  7  8  1  0
  8  9  1  1
  8 10  1  0
 10 11  1  0
 11 12  1  6
M  END
