
     RDKit          3D

 24 23  0  0  0  0  0  0  0  0999 V2000
   -8.6410    0.7140   -1.3130 C   0  0  0  0  0  0  0  0  0  0  0  0
   -8.2840   -0.7440   -1.3370 C   0  0  0  0  0  0  0  0  0  0  0  0
   -6.8440   -0.9170   -1.0460 C   0  0  0  0  0  0  0  0  0  0  0  0
   -6.0440    0.1060   -0.8090 C   0  0  0  0  0  0  0  0  0  0  0  0
   -4.6090   -0.1310   -0.5240 C   0  0  0  0  0  0  0  0  0  0  0  0
   -4.3210    0.4110    0.8250 C   0  0  0  0  0  0  0  0  0  0  0  0
   -3.8700   -0.4200    1.7610 C   0  0  0  0  0  0  0  0  0  0  0  0
   -3.5820    0.0920    3.0880 C   0  0  0  0  0  0  0  0  0  0  0  0
   -2.1810   -0.0280    3.4830 C   0  0  0  0  0  0  0  0  0  0  0  0
   -1.1240   -0.4480    2.8780 C   0  0  0  0  0  0  0  0  0  0  0  0
   -0.8600   -0.9770    1.5520 C   0  0  0  0  0  0  0  0  0  0  0  0
    0.1370   -0.1740    0.7790 C   0  0  0  0  0  0  0  0  0  0  0  0
    0.7280    0.8980    1.2230 C   0  0  0  0  0  0  0  0  0  0  0  0
    1.7250    1.6460    0.3680 C   0  0  0  0  0  0  0  0  0  0  0  0
    1.8930    1.0040   -0.9420 C   0  0  0  0  0  0  0  0  0  0  0  0
    3.0320    0.5360   -1.3710 C   0  0  0  0  0  0  0  0  0  0  0  0
    4.2870    0.5880   -0.6050 C   0  0  0  0  0  0  0  0  0  0  0  0
    4.7190   -0.8410   -0.4300 C   0  0  0  0  0  0  0  0  0  0  0  0
    5.8550   -1.2570   -0.8960 C   0  0  0  0  0  0  0  0  0  0  0  0
    6.8930   -0.5270   -1.6290 C   0  0  0  0  0  0  0  0  0  0  0  0
    8.2100   -0.5590   -0.8450 C   0  0  0  0  0  0  0  0  0  0  0  0
    9.2650    0.1680   -1.5650 C   0  0  0  0  0  0  0  0  0  0  0  0
    9.0120    0.7160   -2.6780 O   0  0  0  0  0  0  0  0  0  0  0  0
   10.5440    0.2720   -1.0490 O   0  0  0  0  0  0  0  0  0  0  0  0
  1  2  1  0
  2  3  1  0
  3  4  2  3
  4  5  1  0
  5  6  1  0
  6  7  2  3
  7  8  1  0
  8  9  1  0
  9 10  2  3
 10 11  1  0
 11 12  1  0
 12 13  2  3
 13 14  1  0
 14 15  1  0
 15 16  2  3
 16 17  1  0
 17 18  1  0
 18 19  2  3
 19 20  1  0
 20 21  1  0
 21 22  1  0
 22 23  2  0
 22 24  1  0
M  END
