
     RDKit          3D

 13 14  0  0  0  0  0  0  0  0999 V2000
   -3.2030    0.2250   -0.8540 C   0  0  0  0  0  0  0  0  0  0  0  0
   -2.4420   -0.1130    0.1700 C   0  0  0  0  0  0  0  0  0  0  0  0
   -3.0350   -0.5630    1.4350 C   0  0  0  0  0  0  0  0  0  0  0  0
   -0.9790   -0.0320    0.0250 C   0  0  0  0  0  0  0  0  0  0  0  0
   -0.0730   -0.3390    0.9700 N   0  0  0  0  0  0  0  0  0  0  0  0
    1.1560   -0.1400    0.4680 C   0  0  0  0  0  0  0  0  0  0  0  0
    2.4130   -0.2790    0.9490 N   0  0  0  0  0  0  0  0  0  0  0  0
    3.4870    0.0040    0.1970 C   0  0  0  0  0  0  0  0  0  0  0  0
    4.6470   -0.1310    0.6600 O   0  0  0  0  0  0  0  0  0  0  0  0
    3.3430    0.4530   -1.1100 C   0  0  0  0  0  0  0  0  0  0  0  0
    2.0820    0.6030   -1.6200 C   0  0  0  0  0  0  0  0  0  0  0  0
    0.9870    0.3110   -0.8440 C   0  0  0  0  0  0  0  0  0  0  0  0
   -0.3210    0.3480   -1.0310 O   0  0  0  0  0  0  0  0  0  0  0  0
  1  2  2  0
  2  3  1  0
  2  4  1  0
  4  5  2  0
  4 13  1  0
  5  6  1  0
  6  7  1  0
  6 12  2  0
  7  8  1  0
  8  9  2  0
  8 10  1  0
 10 11  2  0
 11 12  1  0
 12 13  1  0
M  END
