
     RDKit          3D

 13 14  0  0  0  0  0  0  0  0999 V2000
   -4.1270    0.1340    0.1890 O   0  0  0  0  0  0  0  0  0  0  0  0
   -2.7450    0.1180    0.0810 C   0  0  0  0  0  0  0  0  0  0  0  0
   -2.0670    1.2230   -0.3820 C   0  0  0  0  0  0  0  0  0  0  0  0
   -0.6960    1.1980   -0.4860 C   0  0  0  0  0  0  0  0  0  0  0  0
    0.0040    0.0520   -0.1220 C   0  0  0  0  0  0  0  0  0  0  0  0
    1.4230    0.0320   -0.2320 N   0  0  0  0  0  0  0  0  0  0  0  0
    2.1960    1.1490   -0.1960 C   0  0  0  0  0  0  0  0  0  0  0  0
    3.5150    0.7940   -0.3260 C   0  0  0  0  0  0  0  0  0  0  0  0
    3.5670   -0.5740   -0.4470 C   0  0  0  0  0  0  0  0  0  0  0  0
    2.2560   -1.0150   -0.3840 C   0  0  0  0  0  0  0  0  0  0  0  0
   -0.6960   -1.0060    0.3260 N   0  0  0  0  0  0  0  0  0  0  0  0
   -2.0320   -1.0290    0.4440 C   0  0  0  0  0  0  0  0  0  0  0  0
   -2.7220   -2.1470    0.9130 O   0  0  0  0  0  0  0  0  0  0  0  0
  1  2  1  0
  2  3  2  0
  2 12  1  0
  3  4  1  0
  4  5  2  0
  5  6  1  0
  5 11  1  0
  6  7  1  0
  6 10  1  0
  7  8  2  0
  8  9  1  0
  9 10  2  0
 11 12  2  0
 12 13  1  0
M  END
