
     RDKit          3D

 13 14  0  0  0  0  0  0  0  0999 V2000
    4.9110    0.0110   -0.0470 O   0  0  0  0  0  0  0  0  0  0  0  0
    3.5300    0.0310   -0.0670 C   0  0  0  0  0  0  0  0  0  0  0  0
    2.8640   -1.0900    0.3910 C   0  0  0  0  0  0  0  0  0  0  0  0
    1.5040   -1.1410    0.4030 C   0  0  0  0  0  0  0  0  0  0  0  0
    0.7720   -0.0280   -0.0610 C   0  0  0  0  0  0  0  0  0  0  0  0
   -0.4850    0.0330   -0.0810 O   0  0  0  0  0  0  0  0  0  0  0  0
   -1.7540    0.0950   -0.1020 C   0  0  0  0  0  0  0  0  0  0  0  0
   -2.2600   -0.0090    1.1430 N   0  0  0  0  0  0  0  0  0  0  0  0
   -3.6600    0.0650    1.0520 C   0  0  0  0  0  0  0  0  0  0  0  0
   -3.9880    0.2270   -0.3780 C   0  0  0  0  0  0  0  0  0  0  0  0
   -2.8530    0.2390   -1.0100 C   0  0  0  0  0  0  0  0  0  0  0  0
    1.4890    1.0600   -0.5100 N   0  0  0  0  0  0  0  0  0  0  0  0
    2.8050    1.1050   -0.5200 C   0  0  0  0  0  0  0  0  0  0  0  0
  1  2  1  0
  2  3  2  0
  2 13  1  0
  3  4  1  0
  4  5  2  0
  5  6  1  0
  5 12  1  0
  6  7  1  0
  7  8  2  0
  7 11  1  0
  8  9  1  0
  9 10  1  0
 10 11  2  0
 12 13  2  0
M  END
