
     RDKit          3D

 18 19  0  0  0  0  0  0  0  0999 V2000
    3.0660   -1.7260   -1.2950 O   0  0  0  0  0  0  0  0  0  0  0  0
    3.3920   -0.7190   -0.4100 C   0  0  1  0  0  0  0  0  0  0  0  0
    3.9470    0.4470   -1.2400 C   0  0  2  0  0  0  0  0  0  0  0  0
    4.7450    1.1960   -0.3920 O   0  0  0  0  0  0  0  0  0  0  0  0
    2.7550    1.2810   -1.6890 C   0  0  0  0  0  0  0  0  0  0  0  0
    1.5930    0.5480   -1.7200 O   0  0  0  0  0  0  0  0  0  0  0  0
    1.0830    0.2500   -0.4810 C   0  0  1  0  0  0  0  0  0  0  0  0
    0.0810   -0.6910   -0.5010 O   0  0  0  0  0  0  0  0  0  0  0  0
   -1.1340   -0.2660   -0.0540 C   0  0  2  0  0  0  0  0  0  0  0  0
   -1.6710   -1.0040    1.1320 C   0  0  0  0  0  0  0  0  0  0  0  0
   -2.7420   -0.2180    1.7020 N   0  0  0  0  0  0  0  0  0  0  0  0
   -3.8040    0.0560    0.7890 C   0  0  0  0  0  0  0  0  0  0  0  0
   -3.3690    0.5240   -0.5600 C   0  0  2  0  0  0  0  0  0  0  0  0
   -4.4650    0.5120   -1.4160 O   0  0  0  0  0  0  0  0  0  0  0  0
   -2.2130   -0.2880   -1.1200 C   0  0  1  0  0  0  0  0  0  0  0  0
   -1.7930    0.3500   -2.2830 O   0  0  0  0  0  0  0  0  0  0  0  0
    2.2070   -0.2380    0.4030 C   0  0  2  0  0  0  0  0  0  0  0  0
    2.6620    0.7620    1.2600 O   0  0  0  0  0  0  0  0  0  0  0  0
  2  1  1  6
  2  3  1  0
  2 17  1  0
  3  4  1  1
  3  5  1  0
  5  6  1  0
  6  7  1  0
  7  8  1  6
  7 17  1  0
  9  8  1  6
  9 10  1  0
  9 15  1  0
 10 11  1  0
 11 12  1  0
 12 13  1  0
 13 14  1  6
 13 15  1  0
 15 16  1  6
 17 18  1  1
M  CHG  1  11   1
M  END
