
     RDKit          3D

 13 14  0  0  0  0  0  0  0  0999 V2000
    4.6870    0.3910   -0.2390 C   0  0  0  0  0  0  0  0  0  0  0  0
    3.3890   -0.1790   -0.0490 O   0  0  0  0  0  0  0  0  0  0  0  0
    2.2380    0.4870   -0.4130 C   0  0  0  0  0  0  0  0  0  0  0  0
    2.3410    1.6150   -0.9190 O   0  0  0  0  0  0  0  0  0  0  0  0
    0.9200   -0.1120   -0.2110 C   0  0  0  0  0  0  0  0  0  0  0  0
   -0.2880    0.4490   -0.5300 C   0  0  0  0  0  0  0  0  0  0  0  0
   -1.3000   -0.4360   -0.1820 C   0  0  0  0  0  0  0  0  0  0  0  0
   -2.7350   -0.2360   -0.3490 C   0  0  0  0  0  0  0  0  0  0  0  0
   -3.7810   -0.9890   -0.0630 C   0  0  0  0  0  0  0  0  0  0  0  0
   -4.6790    0.0390   -0.5770 C   0  0  0  0  0  0  0  0  0  0  0  0
   -3.6250    0.7950   -0.8650 C   0  0  0  0  0  0  0  0  0  0  0  0
   -0.6680   -1.5030    0.3360 N   0  0  0  0  0  0  0  0  0  0  0  0
    0.6420   -1.3110    0.3180 N   0  0  0  0  0  0  0  0  0  0  0  0
  1  2  1  0
  2  3  1  0
  3  4  2  0
  3  5  1  0
  5  6  2  0
  5 13  1  0
  6  7  1  0
  7  8  1  0
  7 12  2  0
  8  9  2  0
  8 11  1  0
  9 10  1  0
 10 11  2  0
 12 13  1  0
M  END
