
     RDKit          3D

 12 13  0  0  0  0  0  0  0  0999 V2000
   -4.1360    0.6270   -0.7910 O   0  0  0  0  0  0  0  0  0  0  0  0
   -2.9190    0.4120   -0.6240 C   0  0  0  0  0  0  0  0  0  0  0  0
   -2.3630   -0.8470   -0.7090 C   0  0  0  0  0  0  0  0  0  0  0  0
   -1.0090   -1.0110   -0.5130 C   0  0  0  0  0  0  0  0  0  0  0  0
   -0.2250    0.0890   -0.2330 C   0  0  0  0  0  0  0  0  0  0  0  0
    1.2130   -0.0810   -0.0240 C   0  0  0  0  0  0  0  0  0  0  0  0
    2.1480    0.8900    0.2620 C   0  0  0  0  0  0  0  0  0  0  0  0
    3.3570    0.2720    0.3710 C   0  0  0  0  0  0  0  0  0  0  0  0
    3.1740   -1.0060    0.1640 O   0  0  0  0  0  0  0  0  0  0  0  0
    1.9060   -1.2640   -0.0770 C   0  0  0  0  0  0  0  0  0  0  0  0
   -0.8090    1.3010   -0.1590 N   0  0  0  0  0  0  0  0  0  0  0  0
   -2.1110    1.4490   -0.3490 N   0  0  0  0  0  0  0  0  0  0  0  0
  1  2  2  0
  2  3  1  0
  2 12  1  0
  3  4  2  0
  4  5  1  0
  5  6  1  0
  5 11  2  0
  6  7  1  0
  6 10  2  0
  7  8  2  0
  8  9  1  0
  9 10  1  0
 11 12  1  0
M  END
