
     RDKit          3D

 19 20  0  0  0  0  0  0  0  0999 V2000
   -2.6870   -2.6840    0.4150 N   0  0  0  0  0  0  0  0  0  0  0  0
   -1.8870   -1.5980    0.0110 C   0  0  0  0  0  0  0  0  0  0  0  0
   -0.6810   -1.8660   -0.2960 O   0  0  0  0  0  0  0  0  0  0  0  0
   -2.3350   -0.2320   -0.0760 C   0  0  0  0  0  0  0  0  0  0  0  0
   -1.5460    0.7340   -0.4580 C   0  0  0  0  0  0  0  0  0  0  0  0
   -0.1980    0.4360   -0.8010 N   0  0  0  0  0  0  0  0  0  0  0  0
    0.8780    0.8690    0.0200 C   0  0  0  0  0  0  0  0  0  0  0  0
    2.0680    0.3040   -0.0660 C   0  0  0  0  0  0  0  0  0  0  0  0
    2.3300   -0.7660   -0.9850 N   0  0  0  0  0  0  0  0  0  0  0  0
    3.4870   -1.3220   -1.0760 C   0  0  0  0  0  0  0  0  0  0  0  0
    4.6750   -0.9710   -0.2900 C   0  0  0  0  0  0  0  0  0  0  0  0
    4.4380    0.1070    0.6460 N   0  0  0  0  0  0  0  0  0  0  0  0
    3.1700    0.7400    0.7680 C   0  0  0  0  0  0  0  0  0  0  0  0
    3.0510    1.6720    1.6090 O   0  0  0  0  0  0  0  0  0  0  0  0
   -1.9490    2.0590   -0.5520 O   0  0  0  0  0  0  0  0  0  0  0  0
   -3.1290    2.5360    0.0980 C   0  0  0  0  0  0  0  0  0  0  0  0
   -4.1100    1.4330    0.1730 C   0  0  0  0  0  0  0  0  0  0  0  0
   -5.3460    1.7550    0.1540 O   0  0  0  0  0  0  0  0  0  0  0  0
   -3.6770    0.0960    0.2600 N   0  0  0  0  0  0  0  0  0  0  0  0
  1  2  1  0
  2  3  2  0
  2  4  1  0
  4  5  2  0
  4 19  1  0
  5  6  1  0
  5 15  1  0
  6  7  1  0
  7  8  2  3
  8  9  1  0
  8 13  1  0
  9 10  2  0
 10 11  1  0
 11 12  1  0
 12 13  1  0
 13 14  2  0
 15 16  1  0
 16 17  1  0
 17 18  2  0
 17 19  1  0
M  END
