
     RDKit          3D

 19 20  0  0  0  0  0  0  0  0999 V2000
    2.1450    1.7780   -1.5810 C   0  0  0  0  0  0  0  0  0  0  0  0
    2.5290    1.0640   -0.5660 C   0  0  0  0  0  0  0  0  0  0  0  0
    3.8740    1.0710   -0.1650 C   0  0  0  0  0  0  0  0  0  0  0  0
    4.7050    1.7780   -0.8000 O   0  0  0  0  0  0  0  0  0  0  0  0
    4.2770    0.3390    0.8780 N   0  0  0  0  0  0  0  0  0  0  0  0
    3.4060   -0.4050    1.5470 C   0  0  0  0  0  0  0  0  0  0  0  0
    3.7880   -1.1060    2.5460 O   0  0  0  0  0  0  0  0  0  0  0  0
    2.1100   -0.4370    1.1930 N   0  0  0  0  0  0  0  0  0  0  0  0
    1.6490    0.2850    0.1450 C   0  0  0  0  0  0  0  0  0  0  0  0
    0.3690    0.2170   -0.1600 C   0  0  0  0  0  0  0  0  0  0  0  0
   -0.6440   -0.5680    0.5180 C   0  0  0  0  0  0  0  0  0  0  0  0
   -1.8870   -0.5690    0.1400 C   0  0  0  0  0  0  0  0  0  0  0  0
   -2.3980    0.1680   -0.9420 N   0  0  0  0  0  0  0  0  0  0  0  0
   -3.7890    0.0990   -1.2790 C   0  0  0  0  0  0  0  0  0  0  0  0
   -4.1940    0.7850   -2.2660 O   0  0  0  0  0  0  0  0  0  0  0  0
   -4.6590   -0.7080   -0.5300 N   0  0  0  0  0  0  0  0  0  0  0  0
   -4.2210   -1.4610    0.5490 N   0  0  0  0  0  0  0  0  0  0  0  0
   -2.8480   -1.4020    0.8940 C   0  0  0  0  0  0  0  0  0  0  0  0
   -2.4420   -2.0950    1.8900 O   0  0  0  0  0  0  0  0  0  0  0  0
  1  2  2  0
  2  3  1  0
  2  9  1  0
  3  4  2  0
  3  5  1  0
  5  6  1  0
  6  7  2  0
  6  8  1  0
  8  9  1  0
  9 10  2  3
 10 11  1  0
 11 12  2  3
 12 13  1  0
 12 18  1  0
 13 14  1  0
 14 15  2  0
 14 16  1  0
 16 17  1  0
 17 18  1  0
 18 19  2  0
M  END
