
     RDKit          3D

 19 20  0  0  0  0  0  0  0  0999 V2000
   -1.2650   -2.0860   -0.7360 C   0  0  0  0  0  0  0  0  0  0  0  0
   -1.6200   -0.7410   -0.2500 C   0  0  0  0  0  0  0  0  0  0  0  0
   -0.5940    0.1230    0.0700 C   0  0  0  0  0  0  0  0  0  0  0  0
    0.7240   -0.3250   -0.0830 C   0  0  0  0  0  0  0  0  0  0  0  0
    1.9790   -0.0600    0.0230 C   0  0  0  0  0  0  0  0  0  0  0  0
    2.5780    1.1630    0.4710 C   0  0  0  0  0  0  0  0  0  0  0  0
    1.9520    2.1860    0.8320 O   0  0  0  0  0  0  0  0  0  0  0  0
    4.0220    1.2830    0.5320 N   0  0  0  0  0  0  0  0  0  0  0  0
    4.8710    0.2280    0.1620 C   0  0  0  0  0  0  0  0  0  0  0  0
    6.1230    0.3490    0.2210 O   0  0  0  0  0  0  0  0  0  0  0  0
    4.3350   -1.0020   -0.2880 N   0  0  0  0  0  0  0  0  0  0  0  0
    2.9390   -1.1620   -0.3630 C   0  0  0  0  0  0  0  0  0  0  0  0
    2.5340   -2.2840   -0.7720 O   0  0  0  0  0  0  0  0  0  0  0  0
   -1.0580    1.3920    0.5270 C   0  0  0  0  0  0  0  0  0  0  0  0
   -0.3390    2.3260    0.8700 O   0  0  0  0  0  0  0  0  0  0  0  0
   -2.4670    1.7180    0.6360 N   0  0  0  0  0  0  0  0  0  0  0  0
   -3.3950    0.6400    0.8310 C   0  0  1  0  0  0  0  0  0  0  0  0
   -4.7340    1.0900    0.5070 N   0  0  0  0  0  0  0  0  0  0  0  0
   -2.9790   -0.3950   -0.1240 N   0  0  0  0  0  0  0  0  0  0  0  0
  1  2  1  0
  2  3  2  0
  2 19  1  0
  3  4  1  0
  3 14  1  0
  4  5  2  3
  5  6  1  0
  5 12  1  0
  6  7  2  0
  6  8  1  0
  8  9  1  0
  9 10  2  0
  9 11  1  0
 11 12  1  0
 12 13  2  0
 14 15  2  0
 14 16  1  0
 16 17  1  0
 17 18  1  6
 17 19  1  0
M  END
