
     RDKit          3D

 19 20  0  0  0  0  0  0  0  0999 V2000
    2.3600    2.5240   -1.3200 O   0  0  0  0  0  0  0  0  0  0  0  0
    1.9510    1.4650   -0.6650 C   0  0  0  0  0  0  0  0  0  0  0  0
    1.4940    1.6480    0.6410 N   0  0  0  0  0  0  0  0  0  0  0  0
    0.2450    1.3860    1.2400 C   0  0  0  0  0  0  0  0  0  0  0  0
   -0.8580    0.9500    0.6870 C   0  0  0  0  0  0  0  0  0  0  0  0
   -2.1570    0.6740    1.2920 C   0  0  0  0  0  0  0  0  0  0  0  0
   -3.1130    0.7130    0.3980 C   0  0  0  0  0  0  0  0  0  0  0  0
   -2.5310    1.0230   -0.9140 C   0  0  0  0  0  0  0  0  0  0  0  0
   -1.0600    0.6220   -0.7410 C   0  0  2  0  0  0  0  0  0  0  0  0
   -0.8650   -0.7720   -1.0660 N   0  0  0  0  0  0  0  0  0  0  0  0
   -0.7060   -1.8270   -0.1380 C   0  0  0  0  0  0  0  0  0  0  0  0
   -1.3210   -2.9040   -0.4630 O   0  0  0  0  0  0  0  0  0  0  0  0
    0.0200   -1.8630    1.0750 N   0  0  0  0  0  0  0  0  0  0  0  0
    1.3770   -1.6100    1.2920 N   0  0  0  0  0  0  0  0  0  0  0  0
    2.4350   -1.5560    0.3520 C   0  0  0  0  0  0  0  0  0  0  0  0
    3.5900   -2.0410    0.7080 O   0  0  0  0  0  0  0  0  0  0  0  0
    2.4060   -1.0190   -0.9910 C   0  0  0  0  0  0  0  0  0  0  0  0
    2.7610   -1.8570   -1.9220 O   0  0  0  0  0  0  0  0  0  0  0  0
    2.0500    0.2780   -1.4310 N   0  0  0  0  0  0  0  0  0  0  0  0
  1  2  2  0
  2  3  1  0
  2 19  1  0
  3  4  1  0
  4  5  2  0
  5  6  1  0
  5  9  1  0
  6  7  2  0
  7  8  1  0
  9  8  1  1
  9 10  1  0
 10 11  1  0
 11 12  2  0
 11 13  1  0
 13 14  1  0
 14 15  1  0
 15 16  2  0
 15 17  1  0
 17 18  2  0
 17 19  1  0
M  END
