
     RDKit          3D

 19 20  0  0  0  0  0  0  0  0999 V2000
    5.4110   -0.5010    1.7390 N   0  0  0  0  0  0  0  0  0  0  0  0
    4.0440   -0.2240    1.8660 C   0  0  0  0  0  0  0  0  0  0  0  0
    3.3480   -0.9840    2.6160 O   0  0  0  0  0  0  0  0  0  0  0  0
    3.3590    0.8380    1.2280 N   0  0  0  0  0  0  0  0  0  0  0  0
    2.4010    0.6450    0.4060 C   0  0  0  0  0  0  0  0  0  0  0  0
    1.9310   -0.6450    0.0520 N   0  0  0  0  0  0  0  0  0  0  0  0
    0.8600   -0.8580   -0.8680 C   0  0  0  0  0  0  0  0  0  0  0  0
    0.3160   -1.9960   -0.9730 O   0  0  0  0  0  0  0  0  0  0  0  0
    0.3990    0.2670   -1.6920 C   0  0  1  0  0  0  0  0  0  0  0  0
   -0.9610    0.0840   -2.0180 O   0  0  0  0  0  0  0  0  0  0  0  0
   -1.9720   -0.0160   -1.0980 C   0  0  0  0  0  0  0  0  0  0  0  0
   -1.8210    0.0760    0.1960 C   0  0  0  0  0  0  0  0  0  0  0  0
   -2.9340   -0.0410    1.0580 N   0  0  0  0  0  0  0  0  0  0  0  0
   -4.2880   -0.2640    0.6370 C   0  0  0  0  0  0  0  0  0  0  0  0
   -4.3830   -0.3560   -0.8240 C   0  0  0  0  0  0  0  0  0  0  0  0
   -3.3250   -0.2420   -1.5930 C   0  0  0  0  0  0  0  0  0  0  0  0
    0.6890    1.5870   -1.1180 C   0  0  0  0  0  0  0  0  0  0  0  0
   -0.0340    2.5550   -1.4590 O   0  0  0  0  0  0  0  0  0  0  0  0
    1.7710    1.7700   -0.1870 N   0  0  0  0  0  0  0  0  0  0  0  0
  1  2  1  0
  2  3  2  0
  2  4  1  0
  4  5  2  3
  5  6  1  0
  5 19  1  0
  6  7  1  0
  7  8  2  0
  7  9  1  0
  9 10  1  1
  9 17  1  0
 10 11  1  0
 11 12  2  0
 11 16  1  0
 12 13  1  0
 13 14  1  0
 14 15  1  0
 15 16  2  0
 17 18  2  0
 17 19  1  0
M  END
