
     RDKit          3D

 19 20  0  0  0  0  0  0  0  0999 V2000
   -2.9660    1.3370   -0.0240 C   0  0  0  0  0  0  0  0  0  0  0  0
   -2.5040    0.3080   -1.0260 C   0  0  2  0  0  0  0  0  0  0  0  0
   -3.1790    0.6760   -2.3570 C   0  0  0  0  0  0  0  0  0  0  0  0
   -2.9190   -1.0510   -0.5410 C   0  0  0  0  0  0  0  0  0  0  0  0
   -2.3200   -1.2980    0.7240 N   0  0  0  0  0  0  0  0  0  0  0  0
   -0.9020   -0.9970    0.8110 C   0  0  2  0  0  0  0  0  0  0  0  0
   -0.5550   -0.9420    2.2660 C   0  0  0  0  0  0  0  0  0  0  0  0
   -1.2720    0.0530    2.9360 O   0  0  0  0  0  0  0  0  0  0  0  0
   -0.5450    0.2670    0.1000 C   0  0  1  0  0  0  0  0  0  0  0  0
    0.9410    0.3870   -0.0540 C   0  0  0  0  0  0  0  0  0  0  0  0
    1.7110    0.4470    0.9360 O   0  0  0  0  0  0  0  0  0  0  0  0
    1.5500    0.4380   -1.3380 N   0  0  0  0  0  0  0  0  0  0  0  0
    2.9220    0.5540   -1.5180 N   0  0  0  0  0  0  0  0  0  0  0  0
    3.8990    0.1150   -0.5840 C   0  0  0  0  0  0  0  0  0  0  0  0
    3.8230   -0.9140    0.1490 N   0  0  0  0  0  0  0  0  0  0  0  0
    5.0120   -1.0080    0.9530 C   0  0  0  0  0  0  0  0  0  0  0  0
    5.6690    0.2130    0.8390 O   0  0  0  0  0  0  0  0  0  0  0  0
    5.1570    0.7440   -0.2890 N   0  0  0  0  0  0  0  0  0  0  0  0
   -1.1240    0.2990   -1.1900 O   0  0  0  0  0  0  0  0  0  0  0  0
  2  1  1  1
  2  3  1  0
  2  4  1  0
  2 19  1  0
  4  5  1  0
  5  6  1  0
  6  7  1  1
  6  9  1  0
  7  8  1  0
  9 10  1  6
  9 19  1  0
 10 11  2  0
 10 12  1  0
 12 13  1  0
 13 14  1  0
 14 15  2  0
 14 18  1  0
 15 16  1  0
 16 17  1  0
 17 18  1  0
M  END
