
     RDKit          3D

 17 18  0  0  0  0  0  0  0  0999 V2000
    1.7560    1.5760    0.4330 O   0  0  0  0  0  0  0  0  0  0  0  0
    2.7820    0.8680   -0.1910 C   0  0  1  0  0  0  0  0  0  0  0  0
    3.4430    0.0080    0.8900 C   0  0  2  0  0  0  0  0  0  0  0  0
    4.3120   -0.8610    0.2310 O   0  0  0  0  0  0  0  0  0  0  0  0
    2.2930   -0.7990    1.5100 C   0  0  0  0  0  0  0  0  0  0  0  0
    1.7140   -1.6290    0.5540 O   0  0  0  0  0  0  0  0  0  0  0  0
    1.0880   -0.9000   -0.4560 C   0  0  1  0  0  0  0  0  0  0  0  0
    0.2500    0.0060    0.1460 O   0  0  0  0  0  0  0  0  0  0  0  0
   -1.0740   -0.1080   -0.1590 C   0  0  2  0  0  0  0  0  0  0  0  0
   -1.5530    1.1130   -0.8660 C   0  0  0  0  0  0  0  0  0  0  0  0
   -2.9830    1.4450   -0.6710 C   0  0  0  0  0  0  0  0  0  0  0  0
   -3.8660    0.3790   -0.4040 N   0  0  0  0  0  0  0  0  0  0  0  0
   -3.3420   -0.7190    0.3430 C   0  0  0  0  0  0  0  0  0  0  0  0
   -1.9870   -0.3870    0.9860 C   0  0  1  0  0  0  0  0  0  0  0  0
   -1.6470   -1.5090    1.7190 O   0  0  0  0  0  0  0  0  0  0  0  0
    2.1720   -0.1040   -1.1810 C   0  0  2  0  0  0  0  0  0  0  0  0
    3.1950   -0.9370   -1.6290 O   0  0  0  0  0  0  0  0  0  0  0  0
  2  1  1  1
  2  3  1  0
  2 16  1  0
  3  4  1  6
  3  5  1  0
  5  6  1  0
  6  7  1  0
  7  8  1  1
  7 16  1  0
  9  8  1  1
  9 10  1  0
  9 14  1  0
 10 11  1  0
 11 12  1  0
 12 13  1  0
 13 14  1  0
 14 15  1  6
 16 17  1  1
M  CHG  1  12   1
M  END
