
     RDKit          3D

 19 20  0  0  0  0  0  0  0  0999 V2000
    4.9360   -0.3240    1.4080 C   0  0  0  0  0  0  0  0  0  0  0  0
    4.4470    0.1010    0.0430 C   0  0  1  0  0  0  0  0  0  0  0  0
    4.5670   -1.1220   -0.7840 N   0  0  0  0  0  0  0  0  0  0  0  0
    3.0720    0.4880    0.0630 C   0  0  0  0  0  0  0  0  0  0  0  0
    2.6310    1.5950    0.4990 O   0  0  0  0  0  0  0  0  0  0  0  0
    2.0260   -0.2970   -0.3960 N   0  0  0  0  0  0  0  0  0  0  0  0
    0.6780    0.0240   -0.3190 C   0  0  0  0  0  0  0  0  0  0  0  0
    0.0550   -0.3350   -1.3400 N   0  0  0  0  0  0  0  0  0  0  0  0
   -1.2280   -0.1200   -1.4950 O   0  0  0  0  0  0  0  0  0  0  0  0
   -2.0840    0.4680   -0.5560 C   0  0  1  0  0  0  0  0  0  0  0  0
   -1.9570    1.9840   -0.7850 C   0  0  0  0  0  0  0  0  0  0  0  0
   -3.5060    0.1010   -0.7310 C   0  0  1  0  0  0  0  0  0  0  0  0
   -3.8440   -1.3620   -0.6320 C   0  0  0  0  0  0  0  0  0  0  0  0
   -5.0450   -0.9350    0.0570 N   0  0  0  0  0  0  0  0  0  0  0  0
   -4.3410    0.2180    0.4950 C   0  0  0  0  0  0  0  0  0  0  0  0
   -4.4190    0.9730    1.4840 O   0  0  0  0  0  0  0  0  0  0  0  0
   -1.5790    0.1260    0.7690 N   0  0  0  0  0  0  0  0  0  0  0  0
   -0.1800    0.2870    0.8880 C   0  0  0  0  0  0  0  0  0  0  0  0
    0.3930    0.6100    1.9060 O   0  0  0  0  0  0  0  0  0  0  0  0
  2  1  1  1
  2  3  1  0
  2  4  1  0
  4  5  2  0
  4  6  1  0
  6  7  1  0
  7  8  2  0
  7 18  1  0
  8  9  1  0
  9 10  1  0
 10 11  1  6
 10 12  1  0
 10 17  1  0
 12 13  1  1
 12 15  1  0
 13 14  1  0
 14 15  1  0
 15 16  2  0
 17 18  1  0
 18 19  2  0
M  END
