
     RDKit          3D

 20 21  0  0  0  0  0  0  0  0999 V2000
    3.6680   -0.8280   -2.9810 C   0  0  0  0  0  0  0  0  0  0  0  0
    4.0330   -0.1850   -1.6590 C   0  0  0  0  0  0  0  0  0  0  0  0
    3.9930   -1.1720   -0.5240 C   0  0  2  0  0  0  0  0  0  0  0  0
    4.8740   -2.2360   -0.6990 O   0  0  0  0  0  0  0  0  0  0  0  0
    2.6280   -1.7260   -0.2760 C   0  0  0  0  0  0  0  0  0  0  0  0
    1.6250   -0.7240    0.0640 C   0  0  0  0  0  0  0  0  0  0  0  0
    0.7480    0.0430   -0.6980 C   0  0  0  0  0  0  0  0  0  0  0  0
   -0.0670    0.8900   -0.0560 C   0  0  0  0  0  0  0  0  0  0  0  0
   -0.0630    1.0160    1.2640 C   0  0  0  0  0  0  0  0  0  0  0  0
   -0.8330    1.8100    2.2030 C   0  0  0  0  0  0  0  0  0  0  0  0
   -2.1070    1.9410    2.3200 C   0  0  0  0  0  0  0  0  0  0  0  0
   -2.5850    2.8250    3.3670 N   0  0  0  0  0  0  0  0  0  0  0  0
   -3.1000    1.2290    1.5250 C   0  0  0  0  0  0  0  0  0  0  0  0
   -4.4260    1.4720    1.6710 N   0  0  0  0  0  0  0  0  0  0  0  0
   -5.3220    0.7770    0.9410 C   0  0  0  0  0  0  0  0  0  0  0  0
   -4.9140   -0.1620    0.0630 N   0  0  0  0  0  0  0  0  0  0  0  0
   -3.6000   -0.3930   -0.0720 C   0  0  0  0  0  0  0  0  0  0  0  0
   -3.1390   -1.3940   -1.0070 N   0  0  0  0  0  0  0  0  0  0  0  0
   -2.7280    0.3030    0.6570 N   0  0  0  0  0  0  0  0  0  0  0  0
    1.2110   -0.1580    1.7500 S   0  0  0  0  0  0  0  0  0  0  0  0
  1  2  1  0
  2  3  1  0
  3  4  1  6
  3  5  1  0
  5  6  1  0
  6  7  2  0
  6 20  1  0
  7  8  1  0
  8  9  2  0
  9 10  1  0
  9 20  1  0
 10 11  2  3
 11 12  1  0
 11 13  1  0
 13 14  2  0
 13 19  1  0
 14 15  1  0
 15 16  2  0
 16 17  1  0
 17 18  1  0
 17 19  2  0
M  CHG  1  16   1
M  END
