
     RDKit          3D

 20 21  0  0  0  0  0  0  0  0999 V2000
    1.2510   -1.9390   -1.1590 C   0  0  0  0  0  0  0  0  0  0  0  0
    1.7780   -0.7850   -0.3720 C   0  0  0  0  0  0  0  0  0  0  0  0
    0.9590    0.1470    0.0240 C   0  0  0  0  0  0  0  0  0  0  0  0
   -0.4540    0.1060   -0.2710 C   0  0  0  0  0  0  0  0  0  0  0  0
   -1.3010    1.0390    0.1200 C   0  0  0  0  0  0  0  0  0  0  0  0
   -2.7450    0.9330   -0.2200 C   0  0  0  0  0  0  0  0  0  0  0  0
   -3.6790    1.7850    0.1070 C   0  0  0  0  0  0  0  0  0  0  0  0
   -5.0050    1.3810   -0.3870 C   0  0  2  0  0  0  0  0  0  0  0  0
   -6.0070    1.5750    0.6220 N   0  0  0  0  0  0  0  0  0  0  0  0
   -4.8010   -0.0890   -0.7320 C   0  0  0  0  0  0  0  0  0  0  0  0
   -3.3310   -0.1780   -0.9960 C   0  0  0  0  0  0  0  0  0  0  0  0
    3.1640   -0.7060   -0.0590 N   0  0  0  0  0  0  0  0  0  0  0  0
    3.7300   -0.6650    1.2450 C   0  0  0  0  0  0  0  0  0  0  0  0
    3.0790   -0.6930    2.3260 O   0  0  0  0  0  0  0  0  0  0  0  0
    5.1900   -0.5840    1.1630 C   0  0  0  0  0  0  0  0  0  0  0  0
    6.0090   -0.5310    2.1470 N   0  0  0  0  0  0  0  0  0  0  0  0
    7.3750   -0.4570    1.8630 N   0  0  0  0  0  0  0  0  0  0  0  0
    5.4880   -0.5770   -0.2220 N   0  0  0  0  0  0  0  0  0  0  0  0
    4.2710   -0.6500   -0.9580 C   0  0  0  0  0  0  0  0  0  0  0  0
    4.0780   -0.6730   -2.5960 S   0  0  0  0  0  0  0  0  0  0  0  0
  1  2  1  0
  2  3  2  3
  2 12  1  0
  3  4  1  0
  4  5  2  3
  5  6  1  0
  6  7  2  0
  6 11  1  0
  7  8  1  0
  8  9  1  1
  8 10  1  0
 10 11  1  0
 12 13  1  0
 12 19  1  0
 13 14  2  0
 13 15  1  0
 15 16  2  3
 15 18  1  0
 16 17  1  0
 18 19  1  0
 19 20  2  0
M  CHG  1   9   1
M  END
