
     RDKit          3D

 20 21  0  0  0  0  0  0  0  0999 V2000
    2.0630   -2.7180    0.6840 C   0  0  0  0  0  0  0  0  0  0  0  0
    1.4620   -1.3930    0.3120 C   0  0  1  0  0  0  0  0  0  0  0  0
    1.9090   -1.0680   -1.0920 C   0  0  0  0  0  0  0  0  0  0  0  0
    3.4190   -1.0060   -1.0690 C   0  0  0  0  0  0  0  0  0  0  0  0
    3.8390    0.0190   -0.1480 N   0  0  0  0  0  0  0  0  0  0  0  0
    3.6240    1.3940   -0.4050 C   0  0  0  0  0  0  0  0  0  0  0  0
    4.0440    2.3860    0.5220 N   0  0  0  0  0  0  0  0  0  0  0  0
    2.8980    1.9100   -1.7690 S   0  0  0  0  0  0  0  0  0  0  0  0
   -0.0470   -1.4490    0.4110 C   0  0  0  0  0  0  0  0  0  0  0  0
   -0.6110   -2.5140    0.7420 O   0  0  0  0  0  0  0  0  0  0  0  0
   -0.8300   -0.3150    0.1340 N   0  0  0  0  0  0  0  0  0  0  0  0
   -2.2340   -0.1950    0.1770 C   0  0  0  0  0  0  0  0  0  0  0  0
   -3.0470   -1.2450    0.5080 C   0  0  0  0  0  0  0  0  0  0  0  0
   -4.4410   -1.0500    0.5300 C   0  0  0  0  0  0  0  0  0  0  0  0
   -4.9830    0.1320    0.2370 N   0  0  0  0  0  0  0  0  0  0  0  0
   -4.1850    1.2010   -0.0980 C   0  0  0  0  0  0  0  0  0  0  0  0
   -2.8270    1.0300   -0.1250 C   0  0  0  0  0  0  0  0  0  0  0  0
   -2.2320    2.1720   -0.4690 C   0  0  0  0  0  0  0  0  0  0  0  0
   -3.3130    3.1550   -0.6790 C   0  0  0  0  0  0  0  0  0  0  0  0
   -4.5030    2.4100   -0.4120 N   0  0  0  0  0  0  0  0  0  0  0  0
  2  1  1  6
  2  3  1  0
  2  9  1  0
  3  4  1  0
  4  5  1  0
  5  6  1  0
  6  7  1  0
  6  8  2  0
  9 10  2  0
  9 11  1  0
 11 12  1  0
 12 13  2  0
 12 17  1  0
 13 14  1  0
 14 15  2  0
 15 16  1  0
 16 17  1  0
 16 20  2  0
 17 18  2  0
 18 19  1  0
 19 20  1  0
M  CHG  1  15   1
M  END
