
     RDKit          3D

 20 20  0  0  0  0  0  0  0  0999 V2000
    6.0960    3.6290    0.3850 C   0  0  0  0  0  0  0  0  0  0  0  0
    5.3430    2.0670    0.9160 S   0  0  0  0  0  0  0  0  0  0  0  0
    3.6540    1.9760    0.4450 N   0  0  0  0  0  0  0  0  0  0  0  0
    3.0120    0.8790    0.3070 C   0  0  0  0  0  0  0  0  0  0  0  0
    3.6790   -0.3390    0.5420 N   0  0  0  0  0  0  0  0  0  0  0  0
    1.6260    0.8900   -0.0820 C   0  0  0  0  0  0  0  0  0  0  0  0
    0.8640   -0.1790   -0.2550 C   0  0  0  0  0  0  0  0  0  0  0  0
   -0.5400    0.0040   -0.6560 C   0  0  0  0  0  0  0  0  0  0  0  0
   -1.3570   -0.9950   -0.8470 C   0  0  0  0  0  0  0  0  0  0  0  0
   -2.7150   -0.8200   -1.2340 N   0  0  0  0  0  0  0  0  0  0  0  0
   -3.6500   -0.2530   -0.2980 C   0  0  0  0  0  0  0  0  0  0  0  0
   -3.2320    0.1150    0.9590 C   0  0  0  0  0  0  0  0  0  0  0  0
   -4.1190    0.6540    1.8540 C   0  0  0  0  0  0  0  0  0  0  0  0
   -5.3920    0.8200    1.4940 N   0  0  0  0  0  0  0  0  0  0  0  0
   -5.8650    0.4850    0.2900 C   0  0  0  0  0  0  0  0  0  0  0  0
   -4.9720   -0.0680   -0.6350 C   0  0  0  0  0  0  0  0  0  0  0  0
   -5.4860   -0.4040   -1.8680 O   0  0  0  0  0  0  0  0  0  0  0  0
    1.3010   -1.5000   -0.0820 N   0  0  0  0  0  0  0  0  0  0  0  0
    1.3980   -2.1690    1.2000 C   0  0  0  0  0  0  0  0  0  0  0  0
    1.6790   -2.2640   -1.2690 C   0  0  0  0  0  0  0  0  0  0  0  0
  1  2  1  0
  2  3  1  0
  3  4  2  3
  4  5  1  0
  4  6  1  0
  6  7  2  3
  7  8  1  0
  7 18  1  0
  8  9  2  3
  9 10  1  0
 10 11  1  0
 11 12  2  0
 11 16  1  0
 12 13  1  0
 13 14  2  0
 14 15  1  0
 15 16  2  0
 16 17  1  0
 18 19  1  0
 18 20  1  0
M  CHG  1  14   1
M  END
