
     RDKit          3D

 20 20  0  0  0  0  0  0  0  0999 V2000
    2.9640    2.1830   -1.7920 C   0  0  0  0  0  0  0  0  0  0  0  0
    3.3150    1.6490   -0.4410 C   0  0  0  0  0  0  0  0  0  0  0  0
    2.7060    0.2950   -0.1670 C   0  0  2  0  0  0  0  0  0  0  0  0
    1.1600    0.5070   -0.2710 C   0  0  0  0  0  0  0  0  0  0  0  0
    0.4620   -0.7670   -0.0190 C   0  0  0  0  0  0  0  0  0  0  0  0
   -0.9500   -0.8340   -0.0470 N   0  0  0  0  0  0  0  0  0  0  0  0
   -1.5060   -2.1460    0.2520 C   0  0  0  0  0  0  0  0  0  0  0  0
   -2.6410   -2.5120    0.7670 C   0  0  0  0  0  0  0  0  0  0  0  0
   -2.9240   -3.9270    0.9510 C   0  0  0  0  0  0  0  0  0  0  0  0
   -2.0760   -4.7720    0.6130 O   0  0  0  0  0  0  0  0  0  0  0  0
   -3.6850   -1.6120    1.1910 N   0  0  0  0  0  0  0  0  0  0  0  0
   -3.8390   -0.3820    0.8960 C   0  0  0  0  0  0  0  0  0  0  0  0
   -3.0240    0.4970    0.0480 C   0  0  0  0  0  0  0  0  0  0  0  0
   -3.6880    1.6930   -0.4020 C   0  0  0  0  0  0  0  0  0  0  0  0
   -5.0560    1.9430    0.0140 N   0  0  0  0  0  0  0  0  0  0  0  0
   -3.0390    2.8250   -1.3580 S   0  0  0  0  0  0  0  0  0  0  0  0
   -1.7630    0.2820   -0.3520 C   0  0  0  0  0  0  0  0  0  0  0  0
   -1.2060    1.2970   -1.1580 N   0  0  0  0  0  0  0  0  0  0  0  0
    3.0560   -0.1170    1.1750 N   0  0  0  0  0  0  0  0  0  0  0  0
    3.6790   -1.4270    1.1970 C   0  0  0  0  0  0  0  0  0  0  0  0
  1  2  1  0
  3  2  1  1
  3  4  1  0
  3 19  1  0
  4  5  1  0
  5  6  1  0
  6  7  1  0
  6 17  1  0
  7  8  2  0
  8  9  1  0
  8 11  1  0
  9 10  2  0
 11 12  2  0
 12 13  1  0
 13 14  1  0
 13 17  2  0
 14 15  1  0
 14 16  2  0
 17 18  1  0
 19 20  1  0
M  CHG  1  19   1
M  END
