
     RDKit          3D

  6  6  0  0  0  0  0  0  0  0999 V2000
    1.4280   -0.5840    0.1270 C   0  0  0  0  0  0  0  0  0  0  0  0
    0.4010   -0.2010   -0.8400 N   0  0  0  0  0  0  0  0  0  0  0  0
   -0.8550   -0.7740   -0.3420 C   0  0  0  0  0  0  0  0  0  0  0  0
   -1.1540    0.1900    0.8010 C   0  0  0  0  0  0  0  0  0  0  0  0
   -0.5160    1.3760    0.4920 O   0  0  0  0  0  0  0  0  0  0  0  0
    0.1650    1.2100   -0.6870 C   0  0  0  0  0  0  0  0  0  0  0  0
  1  2  1  0
  2  3  1  0
  2  6  1  0
  3  4  1  0
  4  5  1  0
  5  6  1  0
M  END
