
     RDKit          3D

 20 21  0  0  0  0  0  0  0  0999 V2000
    3.0680   -1.3040    1.5500 C   0  0  0  0  0  0  0  0  0  0  0  0
    3.4270   -0.5010    0.3270 C   0  0  0  0  0  0  0  0  0  0  0  0
    4.6590   -0.0730    0.2550 C   0  0  0  0  0  0  0  0  0  0  0  0
    5.0760    0.8860   -1.2110 S   0  0  0  0  0  0  0  0  0  0  0  0
    3.8080    1.0660   -2.2380 C   0  0  0  0  0  0  0  0  0  0  0  0
    2.5890    0.4370   -1.8010 C   0  0  0  0  0  0  0  0  0  0  0  0
    2.3900   -0.2500   -0.6950 C   0  0  0  0  0  0  0  0  0  0  0  0
    1.0560   -0.8160   -0.4370 C   0  0  0  0  0  0  0  0  0  0  0  0
    0.7590   -1.4990    0.6080 N   0  0  0  0  0  0  0  0  0  0  0  0
   -0.5360   -1.9970    0.7690 N   0  0  0  0  0  0  0  0  0  0  0  0
   -1.6780   -1.2530    0.3650 C   0  0  0  0  0  0  0  0  0  0  0  0
   -2.0840   -0.0770    0.8120 C   0  0  0  0  0  0  0  0  0  0  0  0
   -1.3780    0.6680    1.8470 C   0  0  0  0  0  0  0  0  0  0  0  0
   -1.9130    1.9270    2.2480 N   0  0  0  0  0  0  0  0  0  0  0  0
   -0.3370    0.2230    2.3670 O   0  0  0  0  0  0  0  0  0  0  0  0
   -3.3270    0.3010    0.0910 C   0  0  1  0  0  0  0  0  0  0  0  0
   -3.1750    1.6110   -0.6470 C   0  0  0  0  0  0  0  0  0  0  0  0
   -3.5380   -0.8390   -0.8140 C   0  0  0  0  0  0  0  0  0  0  0  0
   -4.6390   -0.9460   -1.7400 N   0  0  0  0  0  0  0  0  0  0  0  0
   -2.5940   -1.6740   -0.6220 N   0  0  0  0  0  0  0  0  0  0  0  0
  1  2  1  0
  2  3  2  0
  2  7  1  0
  3  4  1  0
  4  5  2  0
  5  6  1  0
  6  7  2  0
  7  8  1  0
  8  9  2  3
  9 10  1  0
 10 11  1  0
 11 12  2  0
 11 20  1  0
 12 13  1  0
 12 16  1  0
 13 14  1  0
 13 15  2  0
 16 17  1  6
 16 18  1  0
 18 19  1  0
 18 20  2  0
M  END
