
     RDKit          3D

 20 21  0  0  0  0  0  0  0  0999 V2000
    2.6030    0.9760    1.5820 C   0  0  0  0  0  0  0  0  0  0  0  0
    2.1350    0.0940    0.4150 C   0  0  2  0  0  0  0  0  0  0  0  0
    2.7490    0.7150   -0.8220 C   0  0  0  0  0  0  0  0  0  0  0  0
    4.1840    0.7490   -0.7570 N   0  0  0  0  0  0  0  0  0  0  0  0
    4.9750   -0.4220   -0.6400 C   0  0  0  0  0  0  0  0  0  0  0  0
    6.4150   -0.3270   -0.5770 N   0  0  0  0  0  0  0  0  0  0  0  0
    4.4080   -1.5380   -0.5900 O   0  0  0  0  0  0  0  0  0  0  0  0
    0.7070    0.1490    0.4110 N   0  0  0  0  0  0  0  0  0  0  0  0
    0.2520   -0.4280    1.6730 C   0  0  0  0  0  0  0  0  0  0  0  0
    0.0720   -0.4490   -0.7170 C   0  0  0  0  0  0  0  0  0  0  0  0
   -1.4190   -0.2800   -0.5980 C   0  0  0  0  0  0  0  0  0  0  0  0
   -1.7660    0.3970    0.4270 N   0  0  0  0  0  0  0  0  0  0  0  0
   -3.1660    0.7180    0.7920 C   0  0  0  0  0  0  0  0  0  0  0  0
   -3.3380    1.8120    1.6040 C   0  0  0  0  0  0  0  0  0  0  0  0
   -5.1440    1.8840    1.8370 S   0  0  0  0  0  0  0  0  0  0  0  0
   -5.4970    0.4760    0.8490 C   0  0  0  0  0  0  0  0  0  0  0  0
   -4.2410    0.0420    0.4080 C   0  0  0  0  0  0  0  0  0  0  0  0
   -4.2200   -1.1830   -0.4850 C   0  0  0  0  0  0  0  0  0  0  0  0
   -3.4940   -0.7250   -1.7300 C   0  0  0  0  0  0  0  0  0  0  0  0
   -2.0860   -0.9170   -1.6680 N   0  0  0  0  0  0  0  0  0  0  0  0
  2  1  1  1
  2  3  1  0
  2  8  1  0
  3  4  1  0
  4  5  1  0
  5  6  1  0
  5  7  2  0
  8  9  1  0
  8 10  1  0
 10 11  1  0
 11 12  2  0
 11 20  1  0
 12 13  1  0
 13 14  2  0
 13 17  1  0
 14 15  1  0
 15 16  1  0
 16 17  2  0
 17 18  1  0
 18 19  1  0
 19 20  1  0
M  CHG  1  20   1
M  END
