
     RDKit          3D

 21 22  0  0  0  0  0  0  0  0999 V2000
    3.5670    1.8210    0.2650 C   0  0  0  0  0  0  0  0  0  0  0  0
    3.5670    0.6770    1.0420 O   0  0  0  0  0  0  0  0  0  0  0  0
    3.2690   -0.4670    0.3200 C   0  0  0  0  0  0  0  0  0  0  0  0
    1.9140   -0.3920   -0.3100 C   0  0  2  0  0  0  0  0  0  0  0  0
    0.8840   -0.2300    0.5840 O   0  0  0  0  0  0  0  0  0  0  0  0
   -0.2250   -0.9040    0.1190 C   0  0  1  0  0  0  0  0  0  0  0  0
   -0.4810   -2.0660    1.0840 C   0  0  0  0  0  0  0  0  0  0  0  0
   -1.4690   -0.0330    0.1060 C   0  0  2  0  0  0  0  0  0  0  0  0
   -2.4930   -0.8780   -0.3900 O   0  0  0  0  0  0  0  0  0  0  0  0
   -1.2920    1.0500   -0.8740 C   0  0  0  0  0  0  0  0  0  0  0  0
   -2.2990    2.1220   -0.9090 C   0  0  0  0  0  0  0  0  0  0  0  0
   -2.0240    2.9860   -1.8140 O   0  0  0  0  0  0  0  0  0  0  0  0
   -3.4780    2.4340   -0.2050 N   0  0  0  0  0  0  0  0  0  0  0  0
   -3.7830    1.9210    1.1100 C   0  0  0  0  0  0  0  0  0  0  0  0
   -4.8780    2.3180    1.5970 O   0  0  0  0  0  0  0  0  0  0  0  0
   -3.0000    1.0210    1.9230 N   0  0  0  0  0  0  0  0  0  0  0  0
   -1.8550    0.3300    1.4640 C   0  0  0  0  0  0  0  0  0  0  0  0
   -1.0620   -0.0150    2.3710 O   0  0  0  0  0  0  0  0  0  0  0  0
    0.1100   -1.5180   -1.2040 C   0  0  0  0  0  0  0  0  0  0  0  0
    1.6260   -1.7230   -1.0300 C   0  0  2  0  0  0  0  0  0  0  0  0
    1.9230   -2.8110   -0.2410 O   0  0  0  0  0  0  0  0  0  0  0  0
  1  2  1  0
  2  3  1  0
  4  3  1  1
  4  5  1  0
  4 20  1  0
  5  6  1  0
  6  7  1  1
  6  8  1  0
  6 19  1  0
  8  9  1  6
  8 10  1  0
  8 17  1  0
 10 11  1  0
 11 12  2  0
 11 13  1  0
 13 14  1  0
 14 15  2  0
 14 16  1  0
 16 17  1  0
 17 18  2  0
 19 20  1  0
 20 21  1  1
M  END
