
     RDKit          3D

 21 22  0  0  0  0  0  0  0  0999 V2000
   -1.6860   -1.1870   -0.3570 O   0  0  0  0  0  0  0  0  0  0  0  0
   -1.8510   -0.1640    0.2880 C   0  0  0  0  0  0  0  0  0  0  0  0
   -3.0570    0.0440    1.0630 N   0  0  0  0  0  0  0  0  0  0  0  0
   -4.0910   -0.9010    1.1430 C   0  0  0  0  0  0  0  0  0  0  0  0
   -5.1470   -0.3200    2.0840 C   0  0  1  0  0  0  0  0  0  0  0  0
   -4.6950   -0.0720    3.3520 O   0  0  0  0  0  0  0  0  0  0  0  0
   -5.7940    0.8590    1.3770 C   0  0  0  0  0  0  0  0  0  0  0  0
   -6.9930    0.4520    2.0100 O   0  0  0  0  0  0  0  0  0  0  0  0
   -6.5030   -0.8790    1.8930 C   0  0  0  0  0  0  0  0  0  0  0  0
   -1.0050    0.9620    0.4150 N   0  0  0  0  0  0  0  0  0  0  0  0
    0.4440    0.1950   -0.1050 C   0  0  0  0  0  0  0  0  0  0  0  0
    0.3540   -0.9620   -0.2590 O   0  0  0  0  0  0  0  0  0  0  0  0
    1.4830    1.0590   -0.2540 O   0  0  0  0  0  0  0  0  0  0  0  0
    2.7390    0.4650   -0.6220 C   0  0  2  0  0  0  0  0  0  0  0  0
    3.9060    1.0540    0.0510 C   0  0  0  0  0  0  0  0  0  0  0  0
    5.1540    0.4530   -0.5770 C   0  0  0  0  0  0  0  0  0  0  0  0
    4.8440   -0.7790   -1.3630 C   0  0  2  0  0  0  0  0  0  0  0  0
    6.0200   -1.2850   -1.9090 O   0  0  0  0  0  0  0  0  0  0  0  0
    3.8670   -0.5510   -2.4950 C   0  0  0  0  0  0  0  0  0  0  0  0
    2.9300    0.6300   -2.1550 C   0  0  2  0  0  0  0  0  0  0  0  0
    3.5880    1.7920   -2.4430 O   0  0  0  0  0  0  0  0  0  0  0  0
  1  2  2  0
  2  3  1  0
  2 10  1  0
  3  4  1  0
  4  5  1  0
  5  6  1  1
  5  7  1  0
  5  9  1  0
  7  8  1  0
  8  9  1  0
 10 11  1  0
 11 12  2  0
 11 13  1  0
 14 13  1  1
 14 15  1  0
 14 20  1  0
 15 16  1  0
 16 17  1  0
 17 18  1  6
 17 19  1  0
 19 20  1  0
 20 21  1  1
M  END
