
     RDKit          3D

 21 22  0  0  0  0  0  0  0  0999 V2000
   -1.7000    2.4960    0.3260 N   0  0  0  0  0  0  0  0  0  0  0  0
   -1.7360    1.4110    1.2510 C   0  0  1  0  0  0  0  0  0  0  0  0
   -3.0100    1.3920    1.8490 O   0  0  0  0  0  0  0  0  0  0  0  0
   -3.6530    0.2200    1.4620 C   0  0  0  0  0  0  0  0  0  0  0  0
   -2.9610   -0.2130    0.1840 C   0  0  2  0  0  0  0  0  0  0  0  0
   -3.2940    0.5850   -0.8810 O   0  0  0  0  0  0  0  0  0  0  0  0
   -2.9810   -1.6760   -0.0690 C   0  0  0  0  0  0  0  0  0  0  0  0
   -2.1650   -1.8740   -1.3500 C   0  0  0  0  0  0  0  0  0  0  0  0
   -1.1650   -0.7860   -1.5640 C   0  0  0  0  0  0  0  0  0  0  0  0
   -0.6510   -0.1700   -0.3630 N   0  0  0  0  0  0  0  0  0  0  0  0
    0.7100    0.1430   -0.3130 C   0  0  0  0  0  0  0  0  0  0  0  0
    1.4860   -0.1220   -1.2980 O   0  0  0  0  0  0  0  0  0  0  0  0
    1.2910    0.7890    0.8820 C   0  0  0  0  0  0  0  0  0  0  0  0
    2.7070    0.9220    0.7570 O   0  0  0  0  0  0  0  0  0  0  0  0
    3.5140   -0.2060    0.5960 C   0  0  0  0  0  0  0  0  0  0  0  0
    2.9060   -1.3170    0.5710 O   0  0  0  0  0  0  0  0  0  0  0  0
    4.9740   -0.1630    0.4600 C   0  0  0  0  0  0  0  0  0  0  0  0
    5.4420   -0.2810   -0.9700 C   0  0  0  0  0  0  0  0  0  0  0  0
    4.8830    0.8090   -1.6760 O   0  0  0  0  0  0  0  0  0  0  0  0
   -1.5260    0.0680    0.6990 C   0  0  1  0  0  0  0  0  0  0  0  0
   -1.3330   -0.8530    1.7370 O   0  0  0  0  0  0  0  0  0  0  0  0
  2  1  1  6
  2  3  1  0
  2 20  1  0
  3  4  1  0
  4  5  1  0
  5  6  1  6
  5  7  1  0
  5 20  1  0
  7  8  1  0
  8  9  1  0
  9 10  1  0
 10 11  1  0
 10 20  1  0
 11 12  2  0
 11 13  1  0
 13 14  1  0
 14 15  1  0
 15 16  2  0
 15 17  1  0
 17 18  1  0
 18 19  1  0
 20 21  1  1
M  END
