
     RDKit          3D

 21 22  0  0  0  0  0  0  0  0999 V2000
   -4.4830    1.5990   -1.9420 O   0  0  0  0  0  0  0  0  0  0  0  0
   -3.7740    1.5420   -0.8860 C   0  0  0  0  0  0  0  0  0  0  0  0
   -2.4250    1.1000   -0.9560 N   0  0  0  0  0  0  0  0  0  0  0  0
   -1.7860    0.4830    0.2250 C   0  0  1  0  0  0  0  0  0  0  0  0
   -2.4750   -0.8870    0.3330 C   0  0  0  0  0  0  0  0  0  0  0  0
   -2.4100   -1.4140   -1.0860 C   0  0  0  0  0  0  0  0  0  0  0  0
   -1.0230   -1.3760   -1.6160 C   0  0  0  0  0  0  0  0  0  0  0  0
   -0.2230   -0.3430   -1.3000 O   0  0  0  0  0  0  0  0  0  0  0  0
   -0.3480    0.3210   -0.1250 C   0  0  2  0  0  0  0  0  0  0  0  0
    0.5090   -0.1770    0.9980 C   0  0  0  0  0  0  0  0  0  0  0  0
    1.9780   -0.3290    0.6340 C   0  0  1  0  0  0  0  0  0  0  0  0
    2.5970   -0.7850    1.8370 O   0  0  0  0  0  0  0  0  0  0  0  0
    2.2300   -1.3970   -0.3610 C   0  0  0  0  0  0  0  0  0  0  0  0
    1.6350   -2.6270    0.0530 O   0  0  0  0  0  0  0  0  0  0  0  0
    2.5990    0.9890    0.3030 C   0  0  0  0  0  0  0  0  0  0  0  0
    4.0330    0.8960   -0.0650 C   0  0  0  0  0  0  0  0  0  0  0  0
    4.3310    0.1540   -1.1830 O   0  0  0  0  0  0  0  0  0  0  0  0
   -2.0980    1.3670    1.3400 C   0  0  0  0  0  0  0  0  0  0  0  0
   -1.3400    1.7910    2.2250 O   0  0  0  0  0  0  0  0  0  0  0  0
   -3.4670    1.8190    1.4450 N   0  0  0  0  0  0  0  0  0  0  0  0
   -4.2950    1.9080    0.3530 O   0  0  0  0  0  0  0  0  0  0  0  0
  1  2  2  0
  2  3  1  0
  2 21  1  0
  3  4  1  0
  4  5  1  1
  4  9  1  0
  4 18  1  0
  5  6  1  0
  6  7  1  0
  7  8  1  0
  8  9  1  0
  9 10  1  1
 10 11  1  0
 11 12  1  1
 11 13  1  0
 11 15  1  0
 13 14  1  0
 15 16  1  0
 16 17  1  0
 18 19  2  0
 18 20  1  0
 20 21  1  0
M  END
