
     RDKit          3D

 21 23  0  0  0  0  0  0  0  0999 V2000
    3.2400    0.2050    2.3480 O   0  0  0  0  0  0  0  0  0  0  0  0
    3.5730    0.4080    0.9900 C   0  0  1  0  0  0  0  0  0  0  0  0
    4.1370   -0.8350    0.3940 C   0  0  2  0  0  0  0  0  0  0  0  0
    5.2990   -0.6410   -0.3280 O   0  0  0  0  0  0  0  0  0  0  0  0
    3.0870   -1.5670   -0.4430 C   0  0  0  0  0  0  0  0  0  0  0  0
    1.8890   -1.4510    0.2310 O   0  0  0  0  0  0  0  0  0  0  0  0
    1.3560   -0.1660   -0.0290 C   0  0  1  0  0  0  0  0  0  0  0  0
    0.2010   -0.0890    0.7480 O   0  0  0  0  0  0  0  0  0  0  0  0
   -0.9570   -0.0630   -0.0430 C   0  0  2  0  0  0  0  0  0  0  0  0
   -1.6050    1.2690    0.2070 C   0  0  0  0  0  0  0  0  0  0  0  0
   -2.9520    1.3500   -0.2530 N   0  0  0  0  0  0  0  0  0  0  0  0
   -3.6640    2.3720   -0.7350 C   0  0  0  0  0  0  0  0  0  0  0  0
   -4.9150    1.8720   -1.0230 C   0  0  0  0  0  0  0  0  0  0  0  0
   -4.9290    0.5870   -0.7150 N   0  0  0  0  0  0  0  0  0  0  0  0
   -3.7080    0.2410   -0.2310 C   0  0  0  0  0  0  0  0  0  0  0  0
   -3.2520   -1.0680    0.2370 C   0  0  2  0  0  0  0  0  0  0  0  0
   -3.9110   -1.3420    1.4580 O   0  0  0  0  0  0  0  0  0  0  0  0
   -1.7920   -1.2350    0.3420 C   0  0  1  0  0  0  0  0  0  0  0  0
   -1.3510   -2.3330   -0.4210 O   0  0  0  0  0  0  0  0  0  0  0  0
    2.3430    0.9200    0.2970 C   0  0  2  0  0  0  0  0  0  0  0  0
    2.6350    1.7240   -0.7990 O   0  0  0  0  0  0  0  0  0  0  0  0
  2  1  1  1
  2  3  1  0
  2 20  1  0
  3  4  1  6
  3  5  1  0
  5  6  1  0
  6  7  1  0
  7  8  1  1
  7 20  1  0
  9  8  1  1
  9 10  1  0
  9 18  1  0
 10 11  1  0
 11 12  1  0
 11 15  1  0
 12 13  2  0
 13 14  1  0
 14 15  2  0
 15 16  1  0
 16 17  1  1
 16 18  1  0
 18 19  1  6
 20 21  1  6
M  END
