
     RDKit          3D

 20 21  0  0  0  0  0  0  0  0999 V2000
   -3.9710    1.6810    0.8590 C   0  0  0  0  0  0  0  0  0  0  0  0
   -3.2000    0.4570    1.2660 C   0  0  0  0  0  0  0  0  0  0  0  0
   -2.2880    0.0330    0.2010 N   0  0  0  0  0  0  0  0  0  0  0  0
   -1.4490   -1.0990    0.3430 C   0  0  0  0  0  0  0  0  0  0  0  0
   -1.5240   -1.7280    1.4300 O   0  0  0  0  0  0  0  0  0  0  0  0
   -0.5330   -1.5060   -0.7510 C   0  0  1  0  0  0  0  0  0  0  0  0
   -1.0090   -2.9120   -1.1570 C   0  0  0  0  0  0  0  0  0  0  0  0
   -0.6340   -0.6300   -1.8330 O   0  0  0  0  0  0  0  0  0  0  0  0
   -0.0450    0.6160   -1.7620 C   0  0  0  0  0  0  0  0  0  0  0  0
   -0.4480    1.6290   -2.4180 O   0  0  0  0  0  0  0  0  0  0  0  0
    1.1140    0.7550   -0.8720 C   0  0  0  0  0  0  0  0  0  0  0  0
    1.7390    1.8990   -0.7370 C   0  0  0  0  0  0  0  0  0  0  0  0
    1.2450    2.9720   -1.4830 O   0  0  0  0  0  0  0  0  0  0  0  0
    2.8290    2.0350    0.0990 O   0  0  0  0  0  0  0  0  0  0  0  0
    3.3530    0.9850    0.8650 C   0  0  1  0  0  0  0  0  0  0  0  0
    3.3230    1.2850    2.2920 N   0  0  0  0  0  0  0  0  0  0  0  0
    2.6300   -0.2960    0.6950 C   0  0  0  0  0  0  0  0  0  0  0  0
    1.5910   -0.3960   -0.1130 C   0  0  0  0  0  0  0  0  0  0  0  0
    0.8840   -1.6840   -0.2700 C   0  0  2  0  0  0  0  0  0  0  0  0
    1.5620   -2.4070   -1.2660 O   0  0  0  0  0  0  0  0  0  0  0  0
  1  2  1  0
  2  3  1  0
  3  4  1  0
  4  5  2  0
  4  6  1  0
  6  7  1  6
  6  8  1  0
  6 19  1  0
  8  9  1  0
  9 10  2  0
  9 11  1  0
 11 12  2  0
 11 18  1  0
 12 13  1  0
 12 14  1  0
 14 15  1  0
 15 16  1  1
 15 17  1  0
 17 18  2  0
 18 19  1  0
 19 20  1  6
M  END
