
     RDKit          3D

 38 40  0  0  0  0  0  0  0  0999 V2000
    2.2490    6.6590   -0.4570 C   0  0  0  0  0  0  0  0  0  0  0  0
    2.3430    6.2840    1.0030 C   0  0  0  0  0  0  0  0  0  0  0  0
    2.6390    4.9400    1.0900 O   0  0  0  0  0  0  0  0  0  0  0  0
    1.5830    4.2200    0.4480 C   0  0  0  0  0  0  0  0  0  0  0  0
    1.9390    2.7960    0.5740 C   0  0  0  0  0  0  0  0  0  0  0  0
    0.9960    1.8070    0.0100 C   0  0  1  0  0  0  0  0  0  0  0  0
    1.5080    0.4330    0.2080 N   0  0  0  0  0  0  0  0  0  0  0  0
    1.8080   -0.4370   -0.8410 C   0  0  0  0  0  0  0  0  0  0  0  0
    1.6280   -0.0410   -2.0310 O   0  0  0  0  0  0  0  0  0  0  0  0
    2.3190   -1.7780   -0.6070 C   0  0  0  0  0  0  0  0  0  0  0  0
    1.9630   -2.8730   -1.3740 C   0  0  0  0  0  0  0  0  0  0  0  0
    2.4770   -4.1280   -1.1380 C   0  0  0  0  0  0  0  0  0  0  0  0
    3.3910   -4.3550   -0.1030 C   0  0  0  0  0  0  0  0  0  0  0  0
    3.8980   -5.6260    0.1220 O   0  0  0  0  0  0  0  0  0  0  0  0
    4.8290   -5.9680    1.1140 C   0  0  0  0  0  0  0  0  0  0  0  0
    6.1310   -5.2690    0.9310 C   0  0  0  0  0  0  0  0  0  0  0  0
    7.0760   -5.3870    1.7420 O   0  0  0  0  0  0  0  0  0  0  0  0
    6.2800   -4.4610   -0.1910 O   0  0  0  0  0  0  0  0  0  0  0  0
    3.7550   -3.2740    0.6690 C   0  0  0  0  0  0  0  0  0  0  0  0
    3.2200   -2.0170    0.4080 C   0  0  0  0  0  0  0  0  0  0  0  0
   -0.4310    1.8890    0.4800 C   0  0  1  0  0  0  0  0  0  0  0  0
   -1.1840    0.7720   -0.1990 C   0  0  0  0  0  0  0  0  0  0  0  0
   -1.6400   -0.3230    0.5320 C   0  0  0  0  0  0  0  0  0  0  0  0
   -2.3270   -1.3350   -0.0990 C   0  0  0  0  0  0  0  0  0  0  0  0
   -2.5990   -1.3320   -1.4380 C   0  0  0  0  0  0  0  0  0  0  0  0
   -3.5260   -2.7050   -2.2510 P   0  0  0  0  0  0  0  0  0  0  0  0
   -4.7930   -2.0080   -3.4310 C   0  0  0  0  0  0  0  0  0  0  0  0
   -4.3630   -3.6270   -1.0490 O   0  0  0  0  0  0  0  0  0  0  0  0
   -5.7150   -3.3160   -1.0190 C   0  0  0  0  0  0  0  0  0  0  0  0
   -6.4640   -4.1030    0.0120 C   0  0  0  0  0  0  0  0  0  0  0  0
   -2.1510   -0.2530   -2.1630 C   0  0  0  0  0  0  0  0  0  0  0  0
   -1.4600    0.7680   -1.5430 C   0  0  0  0  0  0  0  0  0  0  0  0
   -0.5670    1.8350    1.9640 C   0  0  0  0  0  0  0  0  0  0  0  0
   -1.9650    2.2060    2.3760 C   0  0  0  0  0  0  0  0  0  0  0  0
   -2.1290    3.6990    2.1210 C   0  0  0  0  0  0  0  0  0  0  0  0
   -2.0130    3.9030    0.6980 N   0  0  0  0  0  0  0  0  0  0  0  0
   -1.0540    3.1320   -0.0240 C   0  0  0  0  0  0  0  0  0  0  0  0
   -0.7640    3.5990   -1.1650 O   0  0  0  0  0  0  0  0  0  0  0  0
  1  2  1  0
  2  3  1  0
  3  4  1  0
  4  5  1  0
  6  5  1  1
  6  7  1  0
  6 21  1  0
  7  8  1  0
  8  9  2  0
  8 10  1  0
 10 11  2  0
 10 20  1  0
 11 12  1  0
 12 13  2  0
 13 14  1  0
 13 19  1  0
 14 15  1  0
 15 16  1  0
 16 17  2  0
 16 18  1  0
 19 20  2  0
 21 22  1  6
 21 33  1  0
 21 37  1  0
 22 23  2  0
 22 32  1  0
 23 24  1  0
 24 25  2  0
 25 26  1  0
 25 31  1  0
 26 27  1  0
 26 28  1  0
 28 29  1  0
 29 30  1  0
 31 32  2  0
 33 34  1  0
 34 35  1  0
 35 36  1  0
 36 37  1  0
 37 38  2  0
M  END
