
     RDKit          3D

 37 39  0  0  0  0  0  0  0  0999 V2000
   -6.9450   -0.1230    2.2810 N   0  0  0  0  0  0  0  0  0  0  0  0
   -6.2830   -1.0710    1.4680 C   0  0  0  0  0  0  0  0  0  0  0  0
   -6.9070   -1.4060    0.4060 O   0  0  0  0  0  0  0  0  0  0  0  0
   -5.0670   -1.6110    1.7630 O   0  0  0  0  0  0  0  0  0  0  0  0
   -4.4400   -2.5520    0.9220 C   0  0  0  0  0  0  0  0  0  0  0  0
   -4.1560   -1.9860   -0.4420 C   0  0  0  0  0  0  0  0  0  0  0  0
   -3.3110   -0.8660   -0.3790 O   0  0  0  0  0  0  0  0  0  0  0  0
   -1.9950   -0.8980    0.1220 C   0  0  0  0  0  0  0  0  0  0  0  0
   -1.6200   -2.0190    0.5120 O   0  0  0  0  0  0  0  0  0  0  0  0
   -1.2450    0.3680    0.1190 C   0  0  2  0  0  0  0  0  0  0  0  0
   -2.0630    1.3420   -0.4630 O   0  0  0  0  0  0  0  0  0  0  0  0
   -0.0190    0.2910   -0.6800 C   0  0  2  0  0  0  0  0  0  0  0  0
    1.0530   -0.5580   -0.3680 N   0  0  0  0  0  0  0  0  0  0  0  0
    1.8770   -0.8200   -1.4450 C   0  0  0  0  0  0  0  0  0  0  0  0
    2.9350   -1.5980   -1.3790 N   0  0  0  0  0  0  0  0  0  0  0  0
    3.2730   -2.1970   -0.2000 C   0  0  0  0  0  0  0  0  0  0  0  0
    4.2900   -2.9330   -0.1850 O   0  0  0  0  0  0  0  0  0  0  0  0
    2.4930   -1.9580    0.8610 N   0  0  0  0  0  0  0  0  0  0  0  0
    2.8280   -2.5780    2.1180 C   0  0  0  0  0  0  0  0  0  0  0  0
    3.7460   -1.7630    2.9850 C   0  0  0  0  0  0  0  0  0  0  0  0
    5.0420   -1.4580    2.3860 C   0  0  0  0  0  0  0  0  0  0  0  0
    5.1400   -0.5250    1.5550 O   0  0  0  0  0  0  0  0  0  0  0  0
    6.1830   -2.1710    2.7050 O   0  0  0  0  0  0  0  0  0  0  0  0
    1.4150   -1.1530    0.7520 C   0  0  0  0  0  0  0  0  0  0  0  0
    0.7510   -0.9750    1.7740 O   0  0  0  0  0  0  0  0  0  0  0  0
    1.5660   -0.1380   -2.6750 N   0  0  0  0  0  0  0  0  0  0  0  0
    1.7740   -0.9870   -4.2320 P   0  0  0  0  0  0  0  0  0  0  0  0
    2.5610   -0.2710   -5.3650 O   0  0  0  0  0  0  0  0  0  0  0  0
    1.0920    1.2490   -2.6340 C   0  0  0  0  0  0  0  0  0  0  0  0
    0.5440    1.5810   -1.2280 C   0  0  2  0  0  0  0  0  0  0  0  0
    1.7030    1.9710   -0.3660 C   0  0  0  0  0  0  0  0  0  0  0  0
    1.6170    3.2110    0.2260 O   0  0  0  0  0  0  0  0  0  0  0  0
    1.3000    4.4100   -1.0220 P   0  0  0  0  0  0  0  0  0  0  0  0
    0.7310    5.8310   -0.1730 O   0  0  0  0  0  0  0  0  0  0  0  0
    0.8970    6.8970   -0.9240 O   0  0  0  0  0  0  0  0  0  0  0  0
   -0.1040    3.6580   -2.0280 C   0  0  0  0  0  0  0  0  0  0  0  0
   -0.4560    2.5030   -1.3420 O   0  0  0  0  0  0  0  0  0  0  0  0
  1  2  1  0
  2  3  2  0
  2  4  1  0
  4  5  1  0
  5  6  1  0
  6  7  1  0
  7  8  1  0
  8  9  2  0
  8 10  1  0
 10 11  1  6
 10 12  1  0
 12 13  1  1
 12 30  1  0
 13 14  1  0
 13 24  1  0
 14 15  2  0
 14 26  1  0
 15 16  1  0
 16 17  2  0
 16 18  1  0
 18 19  1  0
 18 24  1  0
 19 20  1  0
 20 21  1  0
 21 22  2  0
 21 23  1  0
 24 25  2  0
 26 27  1  0
 26 29  1  0
 27 28  2  0
 30 29  1  6
 30 31  1  0
 30 37  1  0
 31 32  1  0
 32 33  1  0
 33 34  1  0
 33 36  1  0
 34 35  1  0
 36 37  1  0
M  END
