
     RDKit          3D

 38 40  0  0  0  0  0  0  0  0999 V2000
   -2.2660   -6.8480    0.8610 C   0  0  0  0  0  0  0  0  0  0  0  0
   -2.1260   -6.5300   -0.6090 C   0  0  0  0  0  0  0  0  0  0  0  0
   -1.4090   -5.2320   -0.8230 C   0  0  0  0  0  0  0  0  0  0  0  0
   -2.1520   -4.0880   -0.1810 C   0  0  0  0  0  0  0  0  0  0  0  0
   -1.4660   -2.8250   -0.3790 N   0  0  0  0  0  0  0  0  0  0  0  0
   -2.0150   -1.6240    0.1510 C   0  0  0  0  0  0  0  0  0  0  0  0
   -3.0780   -1.6840    0.7740 O   0  0  0  0  0  0  0  0  0  0  0  0
   -1.2360   -0.3860   -0.1040 C   0  0  1  0  0  0  0  0  0  0  0  0
   -1.7870    0.8050    0.4160 N   0  0  0  0  0  0  0  0  0  0  0  0
   -3.0400    1.2540   -0.0470 C   0  0  2  0  0  0  0  0  0  0  0  0
   -3.0820    1.5860   -1.5100 C   0  0  0  0  0  0  0  0  0  0  0  0
   -2.1070    2.6580   -1.8150 C   0  0  0  0  0  0  0  0  0  0  0  0
   -0.8990    2.3120   -1.9540 O   0  0  0  0  0  0  0  0  0  0  0  0
   -2.4190    3.9930   -1.9570 O   0  0  0  0  0  0  0  0  0  0  0  0
   -1.3730    4.8980   -2.2500 C   0  0  0  0  0  0  0  0  0  0  0  0
   -3.3620    2.4960    0.7480 C   0  0  0  0  0  0  0  0  0  0  0  0
   -4.6120    2.7400    1.2730 C   0  0  0  0  0  0  0  0  0  0  0  0
   -4.8770    3.8800    2.0020 C   0  0  0  0  0  0  0  0  0  0  0  0
   -3.9010    4.8280    2.2380 C   0  0  0  0  0  0  0  0  0  0  0  0
   -4.2530    6.3500    3.2100 P   0  0  0  0  0  0  0  0  0  0  0  0
   -3.3860    7.6250    2.9120 O   0  0  0  0  0  0  0  0  0  0  0  0
   -2.6500    4.5820    1.7110 C   0  0  0  0  0  0  0  0  0  0  0  0
   -2.3750    3.4450    0.9820 C   0  0  0  0  0  0  0  0  0  0  0  0
    0.0750   -0.5840    0.5650 C   0  0  0  0  0  0  0  0  0  0  0  0
    1.2460   -0.2520   -0.0650 C   0  0  0  0  0  0  0  0  0  0  0  0
    2.4840   -0.4320    0.5730 C   0  0  0  0  0  0  0  0  0  0  0  0
    3.6970   -0.0670   -0.1330 C   0  0  0  0  0  0  0  0  0  0  0  0
    4.8830   -0.1890    0.3920 C   0  0  0  0  0  0  0  0  0  0  0  0
    6.1310    0.1760   -0.3080 C   0  0  0  0  0  0  0  0  0  0  0  0
    7.2680    0.0110    0.3230 C   0  0  0  0  0  0  0  0  0  0  0  0
    8.5480    0.3560   -0.3230 C   0  0  0  0  0  0  0  0  0  0  0  0
    8.4280    0.8500   -1.6050 O   0  0  0  0  0  0  0  0  0  0  0  0
    7.2570    1.0200   -2.2580 C   0  0  0  0  0  0  0  0  0  0  0  0
    6.1200    0.7040   -1.6620 C   0  0  0  0  0  0  0  0  0  0  0  0
    2.4240   -0.9490    1.8360 C   0  0  0  0  0  0  0  0  0  0  0  0
    1.2790   -1.2590    2.4140 O   0  0  0  0  0  0  0  0  0  0  0  0
    0.1300   -1.0980    1.8360 C   0  0  0  0  0  0  0  0  0  0  0  0
   -0.9500   -1.4060    2.4200 O   0  0  0  0  0  0  0  0  0  0  0  0
  1  2  1  0
  2  3  1  0
  3  4  1  0
  4  5  1  0
  5  6  1  0
  6  7  2  0
  6  8  1  0
  8  9  1  1
  8 24  1  0
  9 10  1  0
 10 11  1  6
 10 16  1  0
 11 12  1  0
 12 13  2  0
 12 14  1  0
 14 15  1  0
 16 17  2  0
 16 23  1  0
 17 18  1  0
 18 19  2  0
 19 20  1  0
 19 22  1  0
 20 21  2  0
 22 23  2  0
 24 25  2  0
 24 37  1  0
 25 26  1  0
 26 27  1  0
 26 35  2  0
 27 28  2  3
 28 29  1  0
 29 30  2  0
 29 34  1  0
 30 31  1  0
 31 32  1  0
 32 33  1  0
 33 34  2  0
 35 36  1  0
 36 37  1  0
 37 38  2  0
M  END
