
     RDKit          3D

 32 32  0  0  0  0  0  0  0  0999 V2000
    0.0700   -1.1430   -3.1740 O   0  0  0  0  0  0  0  0  0  0  0  0
    0.3940   -2.3490   -2.3410 P   0  0  1  0  0  0  0  0  0  0  0  0
   -0.8260   -3.4990   -2.5880 O   0  0  0  0  0  0  0  0  0  0  0  0
    1.8560   -3.0620   -2.8110 O   0  0  0  0  0  0  0  0  0  0  0  0
    0.4790   -2.0140   -0.7070 O   0  0  0  0  0  0  0  0  0  0  0  0
    0.3720   -0.6590   -0.4180 C   0  0  2  0  0  0  0  0  0  0  0  0
    1.5810   -0.1510    0.3400 C   0  0  2  0  0  0  0  0  0  0  0  0
    1.5730   -0.6790    1.6260 O   0  0  0  0  0  0  0  0  0  0  0  0
    2.9780   -1.5540    1.9570 P   0  0  2  0  0  0  0  0  0  0  0  0
    2.6800   -2.4460    3.1410 O   0  0  0  0  0  0  0  0  0  0  0  0
    4.2810   -0.5600    2.3320 O   0  0  0  0  0  0  0  0  0  0  0  0
    3.4340   -2.4980    0.6170 O   0  0  0  0  0  0  0  0  0  0  0  0
    1.4400    1.3570    0.4720 C   0  0  1  0  0  0  0  0  0  0  0  0
    1.0080    1.8100   -0.7930 O   0  0  0  0  0  0  0  0  0  0  0  0
    2.0160    2.9810   -1.4270 P   0  0  2  0  0  0  0  0  0  0  0  0
    1.5830    4.3310   -0.9480 O   0  0  0  0  0  0  0  0  0  0  0  0
    1.9260    2.9130   -3.1140 O   0  0  0  0  0  0  0  0  0  0  0  0
    3.6050    2.6590   -0.9310 O   0  0  0  0  0  0  0  0  0  0  0  0
    0.2580    1.5890    1.4090 C   0  0  2  0  0  0  0  0  0  0  0  0
    0.4090    0.8970    2.5980 O   0  0  0  0  0  0  0  0  0  0  0  0
   -0.9550    1.0570    0.7030 C   0  0  2  0  0  0  0  0  0  0  0  0
   -2.1390    1.3930    1.3400 O   0  0  0  0  0  0  0  0  0  0  0  0
   -3.1160    2.3680    0.3640 P   0  0  1  0  0  0  0  0  0  0  0  0
   -2.5800    3.7800    0.3020 O   0  0  0  0  0  0  0  0  0  0  0  0
   -3.1730    1.7330   -1.1990 O   0  0  0  0  0  0  0  0  0  0  0  0
   -4.6670    2.3870    1.0560 O   0  0  0  0  0  0  0  0  0  0  0  0
   -0.8620   -0.4340    0.4330 C   0  0  1  0  0  0  0  0  0  0  0  0
   -2.0190   -0.7670   -0.2520 O   0  0  0  0  0  0  0  0  0  0  0  0
   -2.9610   -1.9120    0.5070 P   0  0  1  0  0  0  0  0  0  0  0  0
   -2.2000   -3.0670    1.0610 O   0  0  0  0  0  0  0  0  0  0  0  0
   -3.7870   -1.1610    1.7800 O   0  0  0  0  0  0  0  0  0  0  0  0
   -4.1580   -2.4110   -0.6110 O   0  0  0  0  0  0  0  0  0  0  0  0
  1  2  2  0
  2  3  1  1
  2  4  1  0
  2  5  1  0
  6  5  1  1
  6  7  1  0
  6 27  1  0
  7  8  1  1
  7 13  1  0
  8  9  1  0
  9 10  2  0
  9 11  1  1
  9 12  1  0
 13 14  1  6
 13 19  1  0
 14 15  1  0
 15 16  2  0
 15 17  1  6
 15 18  1  0
 19 20  1  1
 19 21  1  0
 21 22  1  1
 21 27  1  0
 22 23  1  0
 23 24  2  0
 23 25  1  6
 23 26  1  0
 27 28  1  6
 28 29  1  0
 29 30  2  0
 29 31  1  1
 29 32  1  0
M  END
