
     RDKit          3D

 37 38  0  0  0  0  0  0  0  0999 V2000
    1.7690    2.1280    3.3150 C   0  0  0  0  0  0  0  0  0  0  0  0
    1.4130    2.0400    1.9800 O   0  0  0  0  0  0  0  0  0  0  0  0
    1.2630    0.9060    1.2190 C   0  0  0  0  0  0  0  0  0  0  0  0
    1.9510   -0.1040    1.4170 N   0  0  0  0  0  0  0  0  0  0  0  0
    2.9380   -0.3960    2.3170 C   0  0  0  0  0  0  0  0  0  0  0  0
    4.1700   -0.0550    2.1730 O   0  0  0  0  0  0  0  0  0  0  0  0
    2.7100   -1.1610    3.5990 C   0  0  1  0  0  0  0  0  0  0  0  0
    1.3950   -1.4720    3.8070 O   0  0  0  0  0  0  0  0  0  0  0  0
    3.5840   -2.4020    3.4720 C   0  0  0  0  0  0  0  0  0  0  0  0
    4.9020   -2.0470    3.2680 O   0  0  0  0  0  0  0  0  0  0  0  0
    5.9470   -3.4040    3.1220 P   0  0  0  0  0  0  0  0  0  0  0  0
    7.5460   -2.8270    2.7770 O   0  0  0  0  0  0  0  0  0  0  0  0
    5.9370   -4.3720    4.5610 O   0  0  0  0  0  0  0  0  0  0  0  0
    0.2440    0.9760    0.1670 C   0  0  0  0  0  0  0  0  0  0  0  0
   -0.5210    2.0000   -0.1130 C   0  0  0  0  0  0  0  0  0  0  0  0
   -0.3550    3.2330    0.7350 C   0  0  0  0  0  0  0  0  0  0  0  0
   -1.4400    1.9700   -1.1480 O   0  0  0  0  0  0  0  0  0  0  0  0
   -1.9040    0.8130   -1.7140 C   0  0  2  0  0  0  0  0  0  0  0  0
   -3.0490    0.4640   -0.7970 O   0  0  0  0  0  0  0  0  0  0  0  0
   -4.0530    1.3990   -0.6770 C   0  0  0  0  0  0  0  0  0  0  0  0
   -5.1850    1.1350    0.1740 N   0  0  0  0  0  0  0  0  0  0  0  0
   -4.0360    2.4950   -1.2850 O   0  0  0  0  0  0  0  0  0  0  0  0
   -1.0230   -0.3470   -1.4570 C   0  0  0  0  0  0  0  0  0  0  0  0
   -0.0510   -0.2500   -0.5810 C   0  0  0  0  0  0  0  0  0  0  0  0
   -1.1630   -1.5760   -2.2250 N   0  0  0  0  0  0  0  0  0  0  0  0
   -1.7120   -1.4450   -3.3980 C   0  0  0  0  0  0  0  0  0  0  0  0
   -1.8410   -2.6550   -4.1890 N   0  0  0  0  0  0  0  0  0  0  0  0
   -2.0780   -4.2530   -3.4480 P   0  0  0  0  0  0  0  0  0  0  0  0
   -1.6940   -5.4660   -4.6290 O   0  0  0  0  0  0  0  0  0  0  0  0
   -0.9390   -4.3570   -2.1180 O   0  0  0  0  0  0  0  0  0  0  0  0
   -2.3070   -0.2830   -3.8020 N   0  0  0  0  0  0  0  0  0  0  0  0
   -2.4280    0.8370   -3.0590 C   0  0  0  0  0  0  0  0  0  0  0  0
   -3.0270    1.7010   -3.8080 O   0  0  0  0  0  0  0  0  0  0  0  0
   -3.6150    2.6050   -4.4500 C   0  0  0  0  0  0  0  0  0  0  0  0
   -2.7770    3.8950   -4.3990 C   0  0  0  0  0  0  0  0  0  0  0  0
   -3.1920    4.8880   -5.0100 O   0  0  0  0  0  0  0  0  0  0  0  0
   -1.5990    3.9500   -3.6970 O   0  0  0  0  0  0  0  0  0  0  0  0
  1  2  1  0
  2  3  1  0
  3  4  2  3
  3 14  1  0
  4  5  1  0
  5  6  2  0
  5  7  1  0
  7  8  1  6
  7  9  1  0
  9 10  1  0
 10 11  1  0
 11 12  1  0
 11 13  1  0
 14 15  2  0
 14 24  1  0
 15 16  1  0
 15 17  1  0
 17 18  1  0
 18 19  1  1
 18 23  1  0
 18 32  1  0
 19 20  1  0
 20 21  1  0
 20 22  2  0
 23 24  2  0
 23 25  1  0
 25 26  2  0
 26 27  1  0
 26 31  1  0
 27 28  1  0
 28 29  1  0
 28 30  1  0
 31 32  2  0
 32 33  1  0
 33 34  1  0
 34 35  1  0
 35 36  2  0
 35 37  1  0
M  END
