
     RDKit          3D

 37 38  0  0  0  0  0  0  0  0999 V2000
    7.6380   -4.3550    0.4080 C   0  0  0  0  0  0  0  0  0  0  0  0
    7.6190   -2.9550    0.4550 O   0  0  0  0  0  0  0  0  0  0  0  0
    6.4830   -2.1880    0.5290 C   0  0  0  0  0  0  0  0  0  0  0  0
    5.3600   -2.7620    0.5590 O   0  0  0  0  0  0  0  0  0  0  0  0
    6.5720   -0.7610    0.5720 N   0  0  0  0  0  0  0  0  0  0  0  0
    5.4160    0.0610    0.6490 C   0  0  0  0  0  0  0  0  0  0  0  0
    4.2990   -0.5160    0.6780 O   0  0  0  0  0  0  0  0  0  0  0  0
    5.5270    1.5550    0.6930 C   0  0  0  0  0  0  0  0  0  0  0  0
    4.2350    2.1800    0.7700 N   0  0  0  0  0  0  0  0  0  0  0  0
    3.6040    1.7620    1.8910 O   0  0  0  0  0  0  0  0  0  0  0  0
    2.2430    1.9740    1.7080 C   0  0  0  0  0  0  0  0  0  0  0  0
    2.0050    1.9200    0.2020 C   0  0  2  0  0  0  0  0  0  0  0  0
    1.1120    0.8020   -0.2060 C   0  0  1  0  0  0  0  0  0  0  0  0
   -0.1660    1.2350   -0.6350 O   0  0  0  0  0  0  0  0  0  0  0  0
   -1.3440    0.9410   -0.0040 C   0  0  0  0  0  0  0  0  0  0  0  0
   -1.2790    0.2280    1.0400 O   0  0  0  0  0  0  0  0  0  0  0  0
   -2.6370    1.4370   -0.5240 C   0  0  2  0  0  0  0  0  0  0  0  0
   -2.6960    2.9520   -0.5750 C   0  0  0  0  0  0  0  0  0  0  0  0
   -2.5310    3.5320    0.6590 O   0  0  0  0  0  0  0  0  0  0  0  0
   -2.6190    5.2530    0.4570 P   0  0  0  0  0  0  0  0  0  0  0  0
   -3.8160    5.5960   -0.7370 O   0  0  0  0  0  0  0  0  0  0  0  0
   -3.1580    5.9250    1.9690 O   0  0  0  0  0  0  0  0  0  0  0  0
   -3.7920    0.8780    0.2140 C   0  0  0  0  0  0  0  0  0  0  0  0
   -4.5710    1.6650    0.8090 O   0  0  0  0  0  0  0  0  0  0  0  0
   -4.0560   -0.5060    0.2770 N   0  0  0  0  0  0  0  0  0  0  0  0
   -5.1820   -1.0730    0.9940 C   0  0  0  0  0  0  0  0  0  0  0  0
   -5.1670   -2.5780    0.8580 C   0  0  0  0  0  0  0  0  0  0  0  0
   -5.2640   -2.9630   -0.5970 C   0  0  0  0  0  0  0  0  0  0  0  0
   -5.2410   -4.8320   -0.6980 P   0  0  0  0  0  0  0  0  0  0  0  0
   -5.3040   -5.3590   -2.3360 O   0  0  0  0  0  0  0  0  0  0  0  0
   -6.5180   -5.5280    0.2390 O   0  0  0  0  0  0  0  0  0  0  0  0
    1.6390   -0.0590   -1.2780 C   0  0  0  0  0  0  0  0  0  0  0  0
    1.1710   -1.2080   -1.4270 O   0  0  0  0  0  0  0  0  0  0  0  0
    2.6600    0.4040   -2.1270 N   0  0  0  0  0  0  0  0  0  0  0  0
    3.5620    1.3720   -1.6140 C   0  0  0  0  0  0  0  0  0  0  0  0
    4.5150    1.8620   -2.2740 O   0  0  0  0  0  0  0  0  0  0  0  0
    3.3710    1.8060   -0.2740 N   0  0  0  0  0  0  0  0  0  0  0  0
  1  2  1  0
  2  3  1  0
  3  4  2  0
  3  5  1  0
  5  6  1  0
  6  7  2  0
  6  8  1  0
  8  9  1  0
  9 10  1  0
  9 37  1  0
 10 11  1  0
 12 11  1  1
 12 13  1  0
 12 37  1  0
 13 14  1  6
 13 32  1  0
 14 15  1  0
 15 16  2  0
 15 17  1  0
 17 18  1  1
 17 23  1  0
 18 19  1  0
 19 20  1  0
 20 21  1  0
 20 22  1  0
 23 24  2  0
 23 25  1  0
 25 26  1  0
 26 27  1  0
 27 28  1  0
 28 29  1  0
 29 30  1  0
 29 31  1  0
 32 33  2  0
 32 34  1  0
 34 35  1  0
 35 36  2  0
 35 37  1  0
M  END
