
     RDKit          3D

 38 40  0  0  0  0  0  0  0  0999 V2000
   -3.3070   -4.2520   -2.2530 O   0  0  0  0  0  0  0  0  0  0  0  0
   -4.3700   -3.6110   -2.2530 C   0  0  0  0  0  0  0  0  0  0  0  0
   -5.4860   -4.1210   -2.9010 O   0  0  0  0  0  0  0  0  0  0  0  0
   -4.4270   -2.3870   -1.6020 O   0  0  0  0  0  0  0  0  0  0  0  0
   -3.3200   -1.8340   -0.9350 C   0  0  2  0  0  0  0  0  0  0  0  0
   -3.5510   -1.6150    0.4040 O   0  0  0  0  0  0  0  0  0  0  0  0
   -2.8750   -0.5250   -1.5770 C   0  0  0  0  0  0  0  0  0  0  0  0
   -1.7440   -0.0850   -0.7360 N   0  0  0  0  0  0  0  0  0  0  0  0
   -0.5120   -0.5210   -0.7920 N   0  0  0  0  0  0  0  0  0  0  0  0
    0.2580    0.0350    0.1510 C   0  0  0  0  0  0  0  0  0  0  0  0
   -0.5180    0.8920    0.8740 C   0  0  0  0  0  0  0  0  0  0  0  0
    0.2540    1.4460    1.8160 N   0  0  0  0  0  0  0  0  0  0  0  0
    1.5170    0.9340    1.6840 C   0  0  0  0  0  0  0  0  0  0  0  0
    2.6850    1.2850    2.5330 C   0  0  0  0  0  0  0  0  0  0  0  0
    3.4100    2.4700    1.8880 C   0  0  1  0  0  0  0  0  0  0  0  0
    2.5830    3.5610    1.7840 O   0  0  0  0  0  0  0  0  0  0  0  0
    3.2510    4.6660    2.2530 C   0  0  0  0  0  0  0  0  0  0  0  0
    4.6870    4.1820    2.3280 C   0  0  0  0  0  0  0  0  0  0  0  0
    4.4960    2.8310    2.6660 O   0  0  0  0  0  0  0  0  0  0  0  0
    1.5250    0.0660    0.6620 N   0  0  0  0  0  0  0  0  0  0  0  0
    2.6010   -0.6930    0.1640 C   0  0  0  0  0  0  0  0  0  0  0  0
    3.7610   -0.6450    0.6460 O   0  0  0  0  0  0  0  0  0  0  0  0
    2.4500   -1.5910   -0.9500 N   0  0  0  0  0  0  0  0  0  0  0  0
    3.5600   -2.3700   -1.4610 C   0  0  0  0  0  0  0  0  0  0  0  0
    4.7020   -1.5440   -1.9480 C   0  0  0  0  0  0  0  0  0  0  0  0
    5.6870   -2.4380   -2.4070 O   0  0  0  0  0  0  0  0  0  0  0  0
    7.0290   -1.5350   -2.9810 P   0  0  0  0  0  0  0  0  0  0  0  0
    8.0650   -2.4600   -3.9940 O   0  0  0  0  0  0  0  0  0  0  0  0
    7.8660   -0.6820   -1.7520 O   0  0  0  0  0  0  0  0  0  0  0  0
   -1.8100    0.8060    0.2890 C   0  0  0  0  0  0  0  0  0  0  0  0
   -2.8270    1.5120    0.7270 O   0  0  0  0  0  0  0  0  0  0  0  0
   -3.8620    1.8320    1.4570 C   0  0  0  0  0  0  0  0  0  0  0  0
   -5.1230    1.0300    1.5010 C   0  0  1  0  0  0  0  0  0  0  0  0
   -5.9950    1.7090    2.4390 O   0  0  0  0  0  0  0  0  0  0  0  0
   -5.8660    1.1020    0.3160 O   0  0  0  0  0  0  0  0  0  0  0  0
   -6.7270   -0.3790    0.1030 P   0  0  0  0  0  0  0  0  0  0  0  0
   -8.2780   -0.2500    0.9150 O   0  0  0  0  0  0  0  0  0  0  0  0
   -7.0180   -0.6780   -1.5820 O   0  0  0  0  0  0  0  0  0  0  0  0
  1  2  2  0
  2  3  1  0
  2  4  1  0
  4  5  1  0
  5  6  1  1
  5  7  1  0
  7  8  1  0
  8  9  1  0
  8 30  1  0
  9 10  2  0
 10 11  1  0
 10 20  1  0
 11 12  1  0
 11 30  2  0
 12 13  2  0
 13 14  1  0
 13 20  1  0
 15 14  1  1
 15 16  1  0
 15 19  1  0
 16 17  1  0
 17 18  1  0
 18 19  1  0
 20 21  1  0
 21 22  2  0
 21 23  1  0
 23 24  1  0
 24 25  1  0
 25 26  1  0
 26 27  1  0
 27 28  1  0
 27 29  1  0
 30 31  1  0
 31 32  1  0
 32 33  1  0
 33 34  1  1
 33 35  1  0
 35 36  1  0
 36 37  1  0
 36 38  1  0
M  END
