
     RDKit          3D

 37 38  0  0  0  0  0  0  0  0999 V2000
    4.0640    2.0600    2.2620 C   0  0  0  0  0  0  0  0  0  0  0  0
    4.7120    1.3290    1.2020 N   0  0  0  0  0  0  0  0  0  0  0  0
    4.0180    0.3330    0.4000 C   0  0  0  0  0  0  0  0  0  0  0  0
    3.4170    1.0900   -0.8070 C   0  0  0  0  0  0  0  0  0  0  0  0
    2.7100    0.1440   -1.6570 N   0  0  0  0  0  0  0  0  0  0  0  0
    3.4490   -0.5220   -2.7250 C   0  0  0  0  0  0  0  0  0  0  0  0
    4.6480   -0.2420   -2.8470 O   0  0  0  0  0  0  0  0  0  0  0  0
    2.7490   -1.4130   -3.5170 O   0  0  0  0  0  0  0  0  0  0  0  0
    1.3340   -1.3900   -3.4940 C   0  0  0  0  0  0  0  0  0  0  0  0
    0.9660   -1.4180   -2.0140 C   0  0  2  0  0  0  0  0  0  0  0  0
   -0.4310   -1.8680   -1.7830 C   0  0  0  0  0  0  0  0  0  0  0  0
   -0.4810   -2.6900   -0.6600 O   0  0  0  0  0  0  0  0  0  0  0  0
   -1.3350   -3.6950   -0.3520 C   0  0  0  0  0  0  0  0  0  0  0  0
   -0.9340   -4.8260    0.0110 O   0  0  0  0  0  0  0  0  0  0  0  0
   -2.7990   -3.4850   -0.4370 C   0  0  0  0  0  0  0  0  0  0  0  0
   -3.1800   -2.6700    0.6780 N   0  0  0  0  0  0  0  0  0  0  0  0
   -4.4660   -3.3170    1.6810 P   0  0  0  0  0  0  0  0  0  0  0  0
   -3.8800   -4.5980    2.6770 O   0  0  0  0  0  0  0  0  0  0  0  0
   -5.8890   -3.7550    0.8060 O   0  0  0  0  0  0  0  0  0  0  0  0
   -3.2750   -1.2740    0.3920 C   0  0  0  0  0  0  0  0  0  0  0  0
   -2.2110   -0.5650    1.2020 C   0  0  0  0  0  0  0  0  0  0  0  0
   -1.7430    0.7180    0.4950 C   0  0  2  0  0  0  0  0  0  0  0  0
   -1.7550    1.7810    1.6210 C   0  0  0  0  0  0  0  0  0  0  0  0
   -1.3070    3.0010    1.1190 O   0  0  0  0  0  0  0  0  0  0  0  0
   -1.3290    4.1750    2.3970 P   0  0  0  0  0  0  0  0  0  0  0  0
   -2.8730    4.0420    3.1950 O   0  0  0  0  0  0  0  0  0  0  0  0
   -1.2880    5.7510    1.6450 O   0  0  0  0  0  0  0  0  0  0  0  0
   -2.7950    1.2090   -0.4380 C   0  0  0  0  0  0  0  0  0  0  0  0
   -2.4640    1.4430   -1.7960 N   0  0  0  0  0  0  0  0  0  0  0  0
   -3.9810    1.4400   -0.1110 O   0  0  0  0  0  0  0  0  0  0  0  0
   -0.5290    0.5160   -0.0250 O   0  0  0  0  0  0  0  0  0  0  0  0
    0.4710    0.8080   -0.8320 C   0  0  0  0  0  0  0  0  0  0  0  0
    0.8150    2.0080   -1.1570 O   0  0  0  0  0  0  0  0  0  0  0  0
    1.3470   -0.1470   -1.4870 N   0  0  0  0  0  0  0  0  0  0  0  0
    6.0770    1.5880    0.9280 C   0  0  0  0  0  0  0  0  0  0  0  0
    6.6840    0.9820    0.0200 O   0  0  0  0  0  0  0  0  0  0  0  0
    6.7620    2.5270    1.6700 O   0  0  0  0  0  0  0  0  0  0  0  0
  1  2  1  0
  2  3  1  0
  2 35  1  0
  3  4  1  0
  4  5  1  0
  5  6  1  0
  5 34  1  0
  6  7  2  0
  6  8  1  0
  8  9  1  0
 10  9  1  6
 10 11  1  0
 10 34  1  0
 11 12  1  0
 12 13  1  0
 13 14  2  0
 13 15  1  0
 15 16  1  0
 16 17  1  0
 16 20  1  0
 17 18  1  0
 17 19  1  0
 20 21  1  0
 21 22  1  0
 22 23  1  1
 22 28  1  0
 22 31  1  0
 23 24  1  0
 24 25  1  0
 25 26  1  0
 25 27  1  0
 28 29  1  0
 28 30  2  0
 31 32  1  0
 32 33  2  0
 32 34  1  0
 35 36  2  0
 35 37  1  0
M  END
