
     RDKit          3D

 25 26  0  0  0  0  0  0  0  0999 V2000
    2.4770    0.3090   -2.3570 C   0  0  0  0  0  0  0  0  0  0  0  0
    1.2340    0.7740   -1.5470 C   0  0  0  0  0  0  0  0  0  0  0  0
    0.9020   -0.2190   -0.5020 C   0  0  2  0  0  0  0  0  0  0  0  0
    2.0330   -0.3990    0.5090 C   0  0  2  0  0  0  0  0  0  0  0  0
    1.7610   -1.4630    1.3590 O   0  0  0  0  0  0  0  0  0  0  0  0
    2.4940    1.1360    1.3970 P   0  0  0  0  0  0  0  0  0  0  0  0
    4.2990    1.0300    1.8640 C   0  0  0  0  0  0  0  0  0  0  0  0
    0.9180   -1.4790   -1.1870 O   0  0  0  0  0  0  0  0  0  0  0  0
   -0.6130   -2.1790   -1.3410 P   0  0  0  0  0  0  0  0  0  0  0  0
   -0.7460   -3.2730   -2.6680 O   0  0  0  0  0  0  0  0  0  0  0  0
   -1.8900   -0.8400   -1.4090 C   0  0  2  0  0  0  0  0  0  0  0  0
   -2.2810   -0.5560   -2.7150 O   0  0  0  0  0  0  0  0  0  0  0  0
   -1.4350    0.2530   -0.7270 O   0  0  0  0  0  0  0  0  0  0  0  0
   -0.3950   -0.0200    0.1870 C   0  0  2  0  0  0  0  0  0  0  0  0
   -0.3850    1.0620    1.0200 O   0  0  0  0  0  0  0  0  0  0  0  0
   -0.1950    2.6090    0.3680 P   0  0  0  0  0  0  0  0  0  0  0  0
    0.1540    3.7270    1.6480 O   0  0  0  0  0  0  0  0  0  0  0  0
   -1.6010    3.2020   -0.4660 O   0  0  0  0  0  0  0  0  0  0  0  0
   -1.3220    3.3660   -1.8200 C   0  0  0  0  0  0  0  0  0  0  0  0
   -0.8430   -1.4730    1.2670 P   0  0  0  0  0  0  0  0  0  0  0  0
   -2.6550   -1.8180    1.2630 C   0  0  2  0  0  0  0  0  0  0  0  0
   -3.5780   -0.7820    2.4880 P   0  0  0  0  0  0  0  0  0  0  0  0
   -2.8340   -3.1530    1.6260 O   0  0  0  0  0  0  0  0  0  0  0  0
   -2.3140   -3.2790    2.8290 O   0  0  0  0  0  0  0  0  0  0  0  0
   -3.3610   -1.4950   -0.4510 P   0  0  0  0  0  0  0  0  0  0  0  0
  1  2  1  0
  3  2  1  6
  3  4  1  0
  3  8  1  0
  3 14  1  0
  4  5  1  1
  4  6  1  0
  6  7  1  0
  8  9  1  0
  9 10  1  0
  9 11  1  0
 11 12  1  6
 11 13  1  0
 11 25  1  0
 13 14  1  0
 14 15  1  1
 14 20  1  0
 15 16  1  0
 16 17  1  0
 16 18  1  0
 18 19  1  0
 20 21  1  0
 21 22  1  1
 21 23  1  0
 21 25  1  0
 23 24  1  0
M  END
