
     RDKit          3D

 25 25  0  0  0  0  0  0  0  0999 V2000
    3.4890   -1.7190    2.4770 C   0  0  0  0  0  0  0  0  0  0  0  0
    2.8720   -0.6850    1.9330 C   0  0  0  0  0  0  0  0  0  0  0  0
    3.3790    0.6660    2.0990 C   0  0  0  0  0  0  0  0  0  0  0  0
    2.5930    1.9270    1.4120 P   0  0  0  0  0  0  0  0  0  0  0  0
    1.7220   -0.9420    1.1970 O   0  0  0  0  0  0  0  0  0  0  0  0
    2.0220   -0.1060   -0.5280 P   0  0  0  0  0  0  0  0  0  0  0  0
    3.6000   -0.9790   -1.9040 P   0  0  0  0  0  0  0  0  0  0  0  0
    5.0790   -1.7400   -1.3700 O   0  0  0  0  0  0  0  0  0  0  0  0
    2.6160   -1.0600   -3.2020 O   0  0  0  0  0  0  0  0  0  0  0  0
    1.5360   -0.7680   -3.3110 O   0  0  0  0  0  0  0  0  0  0  0  0
    0.5570   -0.1280   -2.1160 P   0  0  0  0  0  0  0  0  0  0  0  0
   -1.3310   -0.2640   -1.8520 C   0  0  1  0  0  0  0  0  0  0  0  0
   -1.8290   -1.5220   -2.5810 C   0  0  0  0  0  0  0  0  0  0  0  0
   -1.1230   -2.5860   -1.9770 O   0  0  0  0  0  0  0  0  0  0  0  0
   -1.6610   -0.4810   -0.3910 C   0  0  0  0  0  0  0  0  0  0  0  0
   -1.0890    0.8600    0.7080 P   0  0  0  0  0  0  0  0  0  0  0  0
   -2.0630    1.0060    2.2570 C   0  0  0  0  0  0  0  0  0  0  0  0
   -2.6420   -0.2850    2.6940 C   0  0  0  0  0  0  0  0  0  0  0  0
   -2.4550   -1.3380    2.0370 O   0  0  0  0  0  0  0  0  0  0  0  0
   -3.4090   -0.3730    3.8430 O   0  0  0  0  0  0  0  0  0  0  0  0
   -0.8690    2.7870   -0.3010 P   0  0  0  0  0  0  0  0  0  0  0  0
   -0.2660    3.9520    0.8240 O   0  0  0  0  0  0  0  0  0  0  0  0
   -2.0150    0.8740   -2.4550 C   0  0  0  0  0  0  0  0  0  0  0  0
   -1.3720    1.7650   -3.0470 O   0  0  0  0  0  0  0  0  0  0  0  0
   -3.3850    0.9730   -2.3740 O   0  0  0  0  0  0  0  0  0  0  0  0
  1  2  2  0
  2  3  1  0
  2  5  1  0
  3  4  2  0
  5  6  1  0
  6  7  1  0
  6 11  1  0
  7  8  1  0
  7  9  1  0
  9 10  1  0
 10 11  1  0
 11 12  1  0
 12 13  1  6
 12 15  1  0
 12 23  1  0
 13 14  1  0
 15 16  1  0
 16 17  1  0
 16 21  1  0
 17 18  1  0
 18 19  2  0
 18 20  1  0
 21 22  1  0
 23 24  2  0
 23 25  1  0
M  END
