
     RDKit          3D

 28 28  0  0  0  0  0  0  0  0999 V2000
    5.4050   -0.3040   -1.7170 O   0  0  0  0  0  0  0  0  0  0  0  0
    4.3150   -0.3630   -0.6570 P   0  0  2  0  0  0  0  0  0  0  0  0
    4.3870    1.0430    0.2500 O   0  0  0  0  0  0  0  0  0  0  0  0
    4.6600   -1.6900    0.3240 O   0  0  0  0  0  0  0  0  0  0  0  0
    2.8490   -0.5350   -1.4620 O   0  0  0  0  0  0  0  0  0  0  0  0
    1.7540   -0.3270   -0.6120 C   0  0  1  0  0  0  0  0  0  0  0  0
    1.0050    0.8670   -1.1590 C   0  0  2  0  0  0  0  0  0  0  0  0
    1.7800    1.9890   -1.2960 O   0  0  0  0  0  0  0  0  0  0  0  0
   -0.2410    1.0870   -0.3300 C   0  0  2  0  0  0  0  0  0  0  0  0
    0.0130    1.3430    0.9910 O   0  0  0  0  0  0  0  0  0  0  0  0
   -0.6630    2.8510    1.3770 P   0  0  1  0  0  0  0  0  0  0  0  0
   -2.1360    2.6780    1.6170 O   0  0  0  0  0  0  0  0  0  0  0  0
    0.0730    3.5230    2.7410 O   0  0  0  0  0  0  0  0  0  0  0  0
   -0.4630    3.9450    0.0980 O   0  0  0  0  0  0  0  0  0  0  0  0
   -1.1060   -0.1540   -0.5360 C   0  0  2  0  0  0  0  0  0  0  0  0
   -2.3790    0.0210   -0.0290 O   0  0  0  0  0  0  0  0  0  0  0  0
   -3.5030   -0.0740   -1.3090 P   0  0  2  0  0  0  0  0  0  0  0  0
   -3.1990   -1.3590   -2.0450 O   0  0  0  0  0  0  0  0  0  0  0  0
   -3.2260    1.1980   -2.3870 O   0  0  0  0  0  0  0  0  0  0  0  0
   -5.0810   -0.0930   -0.7370 O   0  0  0  0  0  0  0  0  0  0  0  0
   -0.4270   -1.3880    0.0330 C   0  0  2  0  0  0  0  0  0  0  0  0
   -0.2860   -1.3470    1.3930 O   0  0  0  0  0  0  0  0  0  0  0  0
   -1.1360   -2.6350    2.0780 P   0  0  2  0  0  0  0  0  0  0  0  0
   -0.2520   -3.8440    2.2820 O   0  0  0  0  0  0  0  0  0  0  0  0
   -2.3550   -3.0850    1.0000 O   0  0  0  0  0  0  0  0  0  0  0  0
   -1.8560   -2.2180    3.5440 O   0  0  0  0  0  0  0  0  0  0  0  0
    0.8830   -1.5410   -0.7030 C   0  0  1  0  0  0  0  0  0  0  0  0
    0.5720   -1.7560   -2.0460 O   0  0  0  0  0  0  0  0  0  0  0  0
  1  2  2  0
  2  3  1  1
  2  4  1  0
  2  5  1  0
  6  5  1  6
  6  7  1  0
  6 27  1  0
  7  8  1  1
  7  9  1  0
  9 10  1  1
  9 15  1  0
 10 11  1  0
 11 12  2  0
 11 13  1  1
 11 14  1  0
 15 16  1  1
 15 21  1  0
 16 17  1  0
 17 18  2  0
 17 19  1  6
 17 20  1  0
 21 22  1  1
 21 27  1  0
 22 23  1  0
 23 24  2  0
 23 25  1  6
 23 26  1  0
 27 28  1  6
M  END
