
     RDKit          3D

 25 24  0  0  0  0  0  0  0  0999 V2000
   -4.4290    2.5400    0.5510 C   0  0  0  0  0  0  0  0  0  0  0  0
   -4.3260    1.1320    0.6590 O   0  0  0  0  0  0  0  0  0  0  0  0
   -3.5130    0.4900   -0.2720 C   0  0  0  0  0  0  0  0  0  0  0  0
   -3.7590    0.8470   -1.8740 P   0  0  0  0  0  0  0  0  0  0  0  0
   -2.4670   -0.4760    0.1450 C   0  0  1  0  0  0  0  0  0  0  0  0
   -1.8340   -0.9410   -0.9910 O   0  0  0  0  0  0  0  0  0  0  0  0
   -1.5460    0.2490    1.0940 C   0  0  1  0  0  0  0  0  0  0  0  0
   -1.0080    1.3440    0.4010 O   0  0  0  0  0  0  0  0  0  0  0  0
   -2.3670    0.7240    2.1440 O   0  0  0  0  0  0  0  0  0  0  0  0
   -1.4360    1.5860    3.3210 P   0  0  0  0  0  0  0  0  0  0  0  0
   -0.7460    2.9020    2.8770 O   0  0  0  0  0  0  0  0  0  0  0  0
   -0.5940   -0.5420    1.6840 O   0  0  0  0  0  0  0  0  0  0  0  0
    0.4740   -1.3130    0.5630 P   0  0  0  0  0  0  0  0  0  0  0  0
    0.7140   -0.3050   -0.8010 O   0  0  0  0  0  0  0  0  0  0  0  0
    2.3600   -0.1090   -1.2270 P   0  0  0  0  0  0  0  0  0  0  0  0
    3.3320    1.0990   -0.6690 C   0  0  0  0  0  0  0  0  0  0  0  0
    2.8850    2.0810    0.2140 O   0  0  0  0  0  0  0  0  0  0  0  0
    4.7190    1.1800   -1.0900 C   0  0  0  0  0  0  0  0  0  0  0  0
    5.7520    2.3630   -0.5720 P   0  0  0  0  0  0  0  0  0  0  0  0
    7.4960    2.4280   -1.1280 C   0  0  0  0  0  0  0  0  0  0  0  0
    8.2090    1.4340   -1.0710 O   0  0  0  0  0  0  0  0  0  0  0  0
   -0.3360   -3.2770    0.0760 P   0  0  0  0  0  0  0  0  0  0  0  0
    0.3310   -4.6090    1.1700 C   0  0  0  0  0  0  0  0  0  0  0  0
   -0.2060   -3.6700   -1.6800 C   0  0  0  0  0  0  0  0  0  0  0  0
   -0.9170   -4.5180   -2.1750 O   0  0  0  0  0  0  0  0  0  0  0  0
  1  2  1  0
  2  3  1  0
  3  4  2  0
  3  5  1  0
  5  6  1  6
  5  7  1  0
  7  8  1  6
  7  9  1  0
  7 12  1  0
  9 10  1  0
 10 11  2  0
 12 13  1  0
 13 14  1  0
 13 22  1  0
 14 15  1  0
 15 16  2  3
 16 17  1  0
 16 18  1  0
 18 19  2  3
 19 20  1  0
 20 21  2  0
 22 23  1  0
 22 24  1  0
 24 25  2  0
M  END
