
     RDKit          3D

 25 24  0  0  0  0  0  0  0  0999 V2000
   -5.5170   -0.1730   -3.5610 O   0  0  0  0  0  0  0  0  0  0  0  0
   -4.5110   -0.5360   -2.4120 P   0  0  0  0  0  0  0  0  0  0  0  0
   -5.0550   -0.6720   -0.6540 C   0  0  0  0  0  0  0  0  0  0  0  0
   -4.1940    0.1810    0.2690 C   0  0  1  0  0  0  0  0  0  0  0  0
   -4.3380    1.6220   -0.2060 C   0  0  0  0  0  0  0  0  0  0  0  0
   -3.9230    1.7970   -1.5070 O   0  0  0  0  0  0  0  0  0  0  0  0
   -4.8210    0.1290    1.6540 C   0  0  0  0  0  0  0  0  0  0  0  0
   -4.0690    0.8980    2.5430 O   0  0  0  0  0  0  0  0  0  0  0  0
   -2.5160   -0.4250    0.3230 P   0  0  0  0  0  0  0  0  0  0  0  0
   -1.6180   -0.8380    2.2000 P   0  0  0  0  0  0  0  0  0  0  0  0
   -1.5310   -0.9790   -1.4510 P   0  0  0  0  0  0  0  0  0  0  0  0
   -1.6910   -2.6760   -1.7820 O   0  0  0  0  0  0  0  0  0  0  0  0
    0.2820   -0.5750   -1.4280 C   0  0  0  0  0  0  0  0  0  0  0  0
    0.9800   -1.3390   -0.3770 C   0  0  0  0  0  0  0  0  0  0  0  0
    0.3310   -2.1020    0.3160 O   0  0  0  0  0  0  0  0  0  0  0  0
    2.4300   -1.2370   -0.1080 C   0  0  2  0  0  0  0  0  0  0  0  0
    3.4640   -1.6120   -1.5790 P   0  0  0  0  0  0  0  0  0  0  0  0
    2.8320   -2.0620    0.9340 O   0  0  0  0  0  0  0  0  0  0  0  0
    2.1880   -1.7290    2.0450 O   0  0  0  0  0  0  0  0  0  0  0  0
    2.6710    0.0810    0.3170 O   0  0  0  0  0  0  0  0  0  0  0  0
    3.9390    0.2580    0.5780 O   0  0  0  0  0  0  0  0  0  0  0  0
    4.3020    1.5110    0.0990 C   0  0  0  0  0  0  0  0  0  0  0  0
    5.7690    1.7330    0.3930 C   0  0  1  0  0  0  0  0  0  0  0  0
    5.9310    1.6610    1.7880 O   0  0  0  0  0  0  0  0  0  0  0  0
    6.7150    0.3200   -0.3990 P   0  0  0  0  0  0  0  0  0  0  0  0
  1  2  2  0
  2  3  1  0
  4  3  1  6
  4  5  1  0
  4  7  1  0
  4  9  1  0
  5  6  1  0
  7  8  1  0
  9 10  1  0
  9 11  1  0
 11 12  1  0
 11 13  1  0
 13 14  1  0
 14 15  2  0
 14 16  1  0
 16 17  1  6
 16 18  1  0
 16 20  1  0
 18 19  1  0
 20 21  1  0
 21 22  1  0
 22 23  1  0
 23 24  1  1
 23 25  1  0
M  END
