
     RDKit          3D

 25 26  0  0  0  0  0  0  0  0999 V2000
   -1.7840    4.7950    0.1590 O   0  0  0  0  0  0  0  0  0  0  0  0
   -1.1540    3.6010    0.5580 C   0  0  0  0  0  0  0  0  0  0  0  0
    0.1970    3.8630    0.6140 O   0  0  0  0  0  0  0  0  0  0  0  0
    0.9050    2.7300    1.0030 C   0  0  0  0  0  0  0  0  0  0  0  0
    0.6890    1.6840    0.0810 O   0  0  0  0  0  0  0  0  0  0  0  0
    1.3790    0.5510    0.4430 C   0  0  2  0  0  0  0  0  0  0  0  0
    2.3350    0.1420   -0.6020 C   0  0  0  0  0  0  0  0  0  0  0  0
    1.8590   -0.1660   -1.8560 O   0  0  0  0  0  0  0  0  0  0  0  0
    3.9530    0.0470   -0.2970 P   0  0  0  0  0  0  0  0  0  0  0  0
    5.2010   -0.4560   -1.5520 C   0  0  0  0  0  0  0  0  0  0  0  0
    5.6160   -2.2780   -1.4040 P   0  0  0  0  0  0  0  0  0  0  0  0
    6.9970   -2.5530   -2.4490 O   0  0  0  0  0  0  0  0  0  0  0  0
    6.1580   -2.5910    0.2350 O   0  0  0  0  0  0  0  0  0  0  0  0
    0.2690   -0.8890    0.7820 P   0  0  0  0  0  0  0  0  0  0  0  0
    0.1040   -1.9470   -0.5460 O   0  0  0  0  0  0  0  0  0  0  0  0
   -1.6710   -0.2510    1.6060 P   0  0  0  0  0  0  0  0  0  0  0  0
   -2.1050   -1.4410    2.7900 O   0  0  0  0  0  0  0  0  0  0  0  0
   -2.6320   -2.7240    1.7040 P   0  0  0  0  0  0  0  0  0  0  0  0
   -3.5430   -3.9050    2.5320 O   0  0  0  0  0  0  0  0  0  0  0  0
   -3.7240   -1.6270    0.6230 C   0  0  0  0  0  0  0  0  0  0  0  0
   -4.9310   -1.7040    0.1060 C   0  0  0  0  0  0  0  0  0  0  0  0
   -5.1810   -0.1260   -0.8320 P   0  0  0  0  0  0  0  0  0  0  0  0
   -3.8480    0.7840    0.1840 C   0  0  0  0  0  0  0  0  0  0  0  0
   -2.9360   -0.4290    0.3050 C   0  0  1  0  0  0  0  0  0  0  0  0
   -2.3180   -0.5310   -0.9550 O   0  0  0  0  0  0  0  0  0  0  0  0
  1  2  1  0
  2  3  1  0
  3  4  1  0
  4  5  1  0
  6  5  1  6
  6  7  1  0
  6 14  1  0
  7  8  1  0
  7  9  2  3
  9 10  1  0
 10 11  1  0
 11 12  1  0
 11 13  1  0
 14 15  1  0
 14 16  1  0
 16 17  1  0
 16 24  1  0
 17 18  1  0
 18 19  1  0
 18 20  1  0
 20 21  2  0
 20 24  1  0
 21 22  1  0
 22 23  1  0
 23 24  1  0
 24 25  1  6
M  END
