
     RDKit          3D

 25 25  0  0  0  0  0  0  0  0999 V2000
   -7.9970   -0.9480    0.1760 C   0  0  0  0  0  0  0  0  0  0  0  0
   -6.6730   -1.3700    0.2520 O   0  0  0  0  0  0  0  0  0  0  0  0
   -5.9510   -0.5110   -0.4120 O   0  0  0  0  0  0  0  0  0  0  0  0
   -4.6220   -0.5840    0.0350 C   0  0  2  0  0  0  0  0  0  0  0  0
   -4.1740   -1.8780   -0.1950 O   0  0  0  0  0  0  0  0  0  0  0  0
   -4.5320   -0.2100    1.8640 P   0  0  0  0  0  0  0  0  0  0  0  0
   -4.8950   -1.3620    2.8460 O   0  0  0  0  0  0  0  0  0  0  0  0
   -3.6630    0.6820   -0.9190 P   0  0  0  0  0  0  0  0  0  0  0  0
   -2.0140    0.5810   -0.9720 C   0  0  0  0  0  0  0  0  0  0  0  0
   -1.3110   -0.4910   -0.2780 C   0  0  0  0  0  0  0  0  0  0  0  0
    0.2610   -0.4320    0.2490 P   0  0  0  0  0  0  0  0  0  0  0  0
    1.1990    1.1310   -0.0750 C   0  0  2  0  0  0  0  0  0  0  0  0
    2.0610    1.5240    0.9280 O   0  0  0  0  0  0  0  0  0  0  0  0
    3.6930    1.6730    0.4390 P   0  0  0  0  0  0  0  0  0  0  0  0
    4.6840    1.6940    1.8780 O   0  0  0  0  0  0  0  0  0  0  0  0
    4.1620    0.1280   -0.5080 C   0  0  1  0  0  0  0  0  0  0  0  0
    3.4400   -0.9680   -0.0530 O   0  0  0  0  0  0  0  0  0  0  0  0
    3.9080    0.3950   -1.8540 O   0  0  0  0  0  0  0  0  0  0  0  0
    5.6050   -0.1580   -0.3660 C   0  0  0  0  0  0  0  0  0  0  0  0
    6.4700    0.6850   -0.7110 O   0  0  0  0  0  0  0  0  0  0  0  0
    6.0360   -1.3620    0.1520 O   0  0  0  0  0  0  0  0  0  0  0  0
    7.4320   -1.6530    0.2950 C   0  0  0  0  0  0  0  0  0  0  0  0
   -0.0810    2.4090   -0.4760 P   0  0  0  0  0  0  0  0  0  0  0  0
   -1.2930    2.9680    1.2360 P   0  0  0  0  0  0  0  0  0  0  0  0
   -1.2080    1.5980   -1.7430 C   0  0  0  0  0  0  0  0  0  0  0  0
  1  2  1  0
  2  3  1  0
  3  4  1  0
  4  5  1  1
  4  6  1  0
  4  8  1  0
  6  7  2  0
  8  9  2  3
  9 10  1  0
  9 25  1  0
 10 11  2  0
 11 12  1  0
 12 13  1  1
 12 23  1  0
 13 14  1  0
 14 15  1  0
 14 16  1  0
 16 17  1  1
 16 18  1  0
 16 19  1  0
 19 20  2  0
 19 21  1  0
 21 22  1  0
 23 24  1  0
 23 25  1  0
M  END
