
     RDKit          3D

 41 43  0  0  0  0  0  0  0  0999 V2000
    7.8530   -1.9040    0.4370 C   0  0  0  0  0  0  0  0  0  0  0  0
    8.2430   -0.7270    0.7670 C   0  0  0  0  0  0  0  0  0  0  0  0
    7.4110    0.5330    0.7670 C   0  0  0  0  0  0  0  0  0  0  0  0
    6.0910    0.3090    0.3710 N   0  0  0  0  0  0  0  0  0  0  0  0
    4.9620    1.1090    0.2350 C   0  0  0  0  0  0  0  0  0  0  0  0
    5.0390    2.3100    0.5400 O   0  0  0  0  0  0  0  0  0  0  0  0
    3.6520    0.6640   -0.2440 C   0  0  0  0  0  0  0  0  0  0  0  0
    2.5360    0.8310    0.5440 C   0  0  0  0  0  0  0  0  0  0  0  0
    1.2800    0.3800    0.1210 C   0  0  0  0  0  0  0  0  0  0  0  0
    0.0810    0.5760    0.9870 C   0  0  0  0  0  0  0  0  0  0  0  0
   -1.0780    0.0560    0.3570 N   0  0  0  0  0  0  0  0  0  0  0  0
   -1.3570   -1.3330    0.1560 C   0  0  0  0  0  0  0  0  0  0  0  0
   -0.5890   -2.3130    0.6800 C   0  0  0  0  0  0  0  0  0  0  0  0
   -0.8660   -3.6720    0.5120 C   0  0  0  0  0  0  0  0  0  0  0  0
   -1.9680   -4.0310   -0.2190 C   0  0  0  0  0  0  0  0  0  0  0  0
   -2.2860   -5.4860   -0.4320 C   0  0  0  0  0  0  0  0  0  0  0  0
   -2.7530   -3.0390   -0.7530 C   0  0  0  0  0  0  0  0  0  0  0  0
   -2.4900   -1.6740   -0.5950 C   0  0  0  0  0  0  0  0  0  0  0  0
   -3.4150   -0.4240   -1.3200 S   0  0  0  0  0  0  0  0  0  0  0  0
   -4.7450    0.3590   -0.5130 C   0  0  0  0  0  0  0  0  0  0  0  0
   -5.3170    1.3780   -1.2740 N   0  0  0  0  0  0  0  0  0  0  0  0
   -6.2980    2.1550   -0.8550 C   0  0  0  0  0  0  0  0  0  0  0  0
   -6.8860    3.2400   -1.7200 C   0  0  0  0  0  0  0  0  0  0  0  0
   -5.9880    4.7810   -1.4810 S   0  0  0  0  0  0  0  0  0  0  0  0
   -6.0890    5.2950    0.2510 C   0  0  0  0  0  0  0  0  0  0  0  0
   -6.5400    5.8750   -2.3470 O   0  0  0  0  0  0  0  0  0  0  0  0
   -6.8020    1.9550    0.4310 C   0  0  0  0  0  0  0  0  0  0  0  0
   -6.2240    0.9520    1.1490 C   0  0  0  0  0  0  0  0  0  0  0  0
   -6.6900    0.7770    2.3260 O   0  0  0  0  0  0  0  0  0  0  0  0
   -5.2210    0.1560    0.7150 N   0  0  0  0  0  0  0  0  0  0  0  0
   -4.7530   -0.8370    1.6120 C   0  0  0  0  0  0  0  0  0  0  0  0
   -5.6180   -2.0780    1.6460 C   0  0  0  0  0  0  0  0  0  0  0  0
   -5.8010   -2.7570    0.4200 N   0  0  0  0  0  0  0  0  0  0  0  0
    1.1550   -0.2370   -1.0950 C   0  0  0  0  0  0  0  0  0  0  0  0
    2.2640   -0.4080   -1.8870 C   0  0  0  0  0  0  0  0  0  0  0  0
    3.5190    0.0510   -1.4470 C   0  0  0  0  0  0  0  0  0  0  0  0
    4.6370   -0.1290   -2.4010 C   0  0  0  0  0  0  0  0  0  0  0  0
    4.1820   -0.7830   -3.5740 O   0  0  0  0  0  0  0  0  0  0  0  0
    8.0170    1.6160    1.1390 C   0  0  0  0  0  0  0  0  0  0  0  0
    7.5210    2.9910    1.2530 C   0  0  0  0  0  0  0  0  0  0  0  0
    9.4970    1.4830    1.5290 C   0  0  0  0  0  0  0  0  0  0  0  0
  1  2  2  0
  2  3  1  0
  3  4  1  0
  3 39  2  3
  4  5  1  0
  5  6  2  0
  5  7  1  0
  7  8  2  0
  7 36  1  0
  8  9  1  0
  9 10  1  0
  9 34  2  0
 10 11  1  0
 11 12  1  0
 12 13  2  0
 12 18  1  0
 13 14  1  0
 14 15  2  0
 15 16  1  0
 15 17  1  0
 17 18  2  0
 18 19  1  0
 19 20  1  0
 20 21  2  0
 20 30  1  0
 21 22  1  0
 22 23  1  0
 22 27  2  0
 23 24  1  0
 24 25  1  1
 24 26  2  0
 27 28  1  0
 28 29  2  0
 28 30  1  0
 30 31  1  0
 31 32  1  0
 32 33  1  0
 34 35  1  0
 35 36  2  0
 36 37  1  0
 37 38  1  0
 39 40  1  0
 39 41  1  0
M  CHG  1  33   1
M  END
