
     RDKit          3D

 41 44  0  0  0  0  0  0  0  0999 V2000
    7.2900    2.7670    1.2330 C   0  0  0  0  0  0  0  0  0  0  0  0
    7.2510    1.5240    0.4440 C   0  0  0  0  0  0  0  0  0  0  0  0
    8.4260    0.9780    0.1910 C   0  0  0  0  0  0  0  0  0  0  0  0
    9.7400    1.3670    0.5110 C   0  0  0  0  0  0  0  0  0  0  0  0
   10.0330    2.3830    1.1170 O   0  0  0  0  0  0  0  0  0  0  0  0
   10.8570    0.4580    0.0470 C   0  0  0  0  0  0  0  0  0  0  0  0
   12.1550    0.4750   -0.0490 C   0  0  0  0  0  0  0  0  0  0  0  0
   12.9150   -0.6300   -0.4720 C   0  0  0  0  0  0  0  0  0  0  0  0
   12.0820   -1.7120   -0.7750 C   0  0  0  0  0  0  0  0  0  0  0  0
   10.4210   -1.2500   -0.5110 S   0  0  0  0  0  0  0  0  0  0  0  0
    6.1860    0.9010   -0.1250 N   0  0  0  0  0  0  0  0  0  0  0  0
    5.0250    0.1960    0.4740 C   0  0  0  0  0  0  0  0  0  0  0  0
    4.8790    0.2040    1.6110 O   0  0  0  0  0  0  0  0  0  0  0  0
    4.3300   -0.3990   -0.6290 N   0  0  0  0  0  0  0  0  0  0  0  0
    3.1610   -1.3710    0.2850 C   0  0  0  0  0  0  0  0  0  0  0  0
    2.9490   -0.8570    1.3090 O   0  0  0  0  0  0  0  0  0  0  0  0
    2.8020   -2.5260   -0.4780 C   0  0  0  0  0  0  0  0  0  0  0  0
    1.6090   -2.7780   -1.2130 C   0  0  0  0  0  0  0  0  0  0  0  0
    0.2850   -2.7800   -0.7150 C   0  0  0  0  0  0  0  0  0  0  0  0
   -0.4560   -1.7200   -0.1660 N   0  0  0  0  0  0  0  0  0  0  0  0
   -0.8040   -0.4480   -0.8130 C   0  0  0  0  0  0  0  0  0  0  0  0
   -0.2810   -0.2070   -1.9430 O   0  0  0  0  0  0  0  0  0  0  0  0
   -1.7300    0.4400   -0.1480 C   0  0  0  0  0  0  0  0  0  0  0  0
   -1.5550    1.3910    0.7500 C   0  0  0  0  0  0  0  0  0  0  0  0
   -2.6150    1.9880    1.4230 C   0  0  0  0  0  0  0  0  0  0  0  0
   -3.9430    1.6290    1.2060 C   0  0  0  0  0  0  0  0  0  0  0  0
   -5.0310    2.1240    2.0610 C   0  0  0  0  0  0  0  0  0  0  0  0
   -5.8970    3.2990    1.6200 C   0  0  0  0  0  0  0  0  0  0  0  0
   -6.7900    3.3790    0.7480 C   0  0  0  0  0  0  0  0  0  0  0  0
   -7.5910    4.5510    0.5100 C   0  0  0  0  0  0  0  0  0  0  0  0
   -6.9640    5.6130    1.7300 S   0  0  0  0  0  0  0  0  0  0  0  0
   -5.7100    4.5120    2.4490 C   0  0  0  0  0  0  0  0  0  0  0  0
   -4.1400    0.6280    0.2550 C   0  0  0  0  0  0  0  0  0  0  0  0
   -5.5350    0.2690   -0.0390 C   0  0  0  0  0  0  0  0  0  0  0  0
   -5.6710   -0.9280   -0.9160 N   0  0  0  0  0  0  0  0  0  0  0  0
   -6.9110   -1.6560   -0.7300 C   0  0  0  0  0  0  0  0  0  0  0  0
   -7.5380   -1.6510    0.3900 N   0  0  0  0  0  0  0  0  0  0  0  0
   -8.7590   -2.4580    0.3490 C   0  0  0  0  0  0  0  0  0  0  0  0
   -8.8840   -2.8890   -1.0930 C   0  0  0  0  0  0  0  0  0  0  0  0
   -7.6440   -2.4460   -1.7910 C   0  0  0  0  0  0  0  0  0  0  0  0
   -3.0800    0.0720   -0.3770 C   0  0  0  0  0  0  0  0  0  0  0  0
  1  2  1  0
  2  3  2  3
  2 11  1  0
  3  4  1  0
  4  5  2  0
  4  6  1  0
  6  7  2  0
  6 10  1  0
  7  8  1  0
  8  9  2  0
  9 10  1  0
 11 12  1  0
 12 13  2  0
 12 14  1  0
 14 15  1  0
 15 16  2  0
 15 17  1  0
 17 18  1  0
 18 19  1  0
 19 20  1  0
 20 21  1  0
 21 22  2  0
 21 23  1  0
 23 24  2  0
 23 41  1  0
 24 25  1  0
 25 26  2  0
 26 27  1  0
 26 33  1  0
 27 28  1  0
 28 29  1  0
 28 32  2  0
 29 30  2  0
 30 31  1  0
 31 32  1  0
 33 34  1  0
 33 41  2  0
 34 35  1  0
 35 36  1  0
 36 37  2  0
 36 40  1  0
 37 38  1  0
 38 39  1  0
 39 40  1  0
M  CHG  1  37   1
M  END
