
     RDKit          3D

 41 44  0  0  0  0  0  0  0  0999 V2000
    9.5370    1.4280    4.0290 C   0  0  0  0  0  0  0  0  0  0  0  0
    8.7880    0.3480    3.9720 C   0  0  0  0  0  0  0  0  0  0  0  0
    7.6640    0.2830    3.0170 C   0  0  0  0  0  0  0  0  0  0  0  0
    7.5910    1.8410    2.0820 S   0  0  0  0  0  0  0  0  0  0  0  0
    6.2140    1.7830    0.9420 C   0  0  0  0  0  0  0  0  0  0  0  0
    5.4640    0.6370    0.8510 C   0  0  0  0  0  0  0  0  0  0  0  0
    4.3900    0.6040   -0.0050 C   0  0  0  0  0  0  0  0  0  0  0  0
    3.6320   -0.5550   -0.0880 C   0  0  0  0  0  0  0  0  0  0  0  0
    2.5550   -0.6020   -0.9300 C   0  0  0  0  0  0  0  0  0  0  0  0
    1.7780   -1.7800   -1.0630 N   0  0  0  0  0  0  0  0  0  0  0  0
    2.3030   -3.0510   -1.3780 C   0  0  0  0  0  0  0  0  0  0  0  0
    3.5340   -3.0860   -1.5830 O   0  0  0  0  0  0  0  0  0  0  0  0
    1.5070   -4.2540   -1.4850 C   0  0  0  0  0  0  0  0  0  0  0  0
    2.1240   -5.8040   -2.1000 S   0  0  0  0  0  0  0  0  0  0  0  0
    0.6160   -6.6990   -1.8960 C   0  0  0  0  0  0  0  0  0  0  0  0
    0.3960   -7.9270   -2.1730 O   0  0  0  0  0  0  0  0  0  0  0  0
   -0.2220   -5.7830   -1.3880 N   0  0  0  0  0  0  0  0  0  0  0  0
    0.2300   -4.5620   -1.1840 C   0  0  0  0  0  0  0  0  0  0  0  0
   -0.6460   -3.5640   -0.5040 C   0  0  0  0  0  0  0  0  0  0  0  0
   -0.3810   -3.1360    0.6630 O   0  0  0  0  0  0  0  0  0  0  0  0
   -1.8120   -3.0240   -1.1130 N   0  0  0  0  0  0  0  0  0  0  0  0
   -2.6140   -2.0340   -0.4480 C   0  0  0  0  0  0  0  0  0  0  0  0
   -3.7620   -1.5410   -1.2020 C   0  0  0  0  0  0  0  0  0  0  0  0
   -4.1320   -2.0070   -2.4130 C   0  0  0  0  0  0  0  0  0  0  0  0
   -5.2430   -1.5270   -3.1150 C   0  0  0  0  0  0  0  0  0  0  0  0
   -5.9680   -0.5370   -2.5160 C   0  0  0  0  0  0  0  0  0  0  0  0
   -5.6280   -0.0170   -1.2620 C   0  0  0  0  0  0  0  0  0  0  0  0
   -4.5270   -0.5190   -0.6060 C   0  0  0  0  0  0  0  0  0  0  0  0
   -4.0750   -0.0510    0.6990 C   0  0  0  0  0  0  0  0  0  0  0  0
   -4.8670    1.0470    1.2700 N   0  0  0  0  0  0  0  0  0  0  0  0
   -4.1740    2.2870    1.1060 C   0  0  0  0  0  0  0  0  0  0  0  0
   -4.7360    3.4900    1.7260 C   0  0  0  0  0  0  0  0  0  0  0  0
   -6.0520    3.9940    1.2990 C   0  0  0  0  0  0  0  0  0  0  0  0
   -7.2110    3.0920    1.5540 C   0  0  0  0  0  0  0  0  0  0  0  0
    2.2540    0.5080   -1.6720 C   0  0  0  0  0  0  0  0  0  0  0  0
    2.9890    1.6760   -1.6130 C   0  0  0  0  0  0  0  0  0  0  0  0
    2.6460    2.8660   -2.4280 C   0  0  0  0  0  0  0  0  0  0  0  0
    4.0800    1.7430   -0.7700 C   0  0  0  0  0  0  0  0  0  0  0  0
    4.8440    2.8080   -0.6300 N   0  0  0  0  0  0  0  0  0  0  0  0
    5.9020    2.8840    0.1930 C   0  0  0  0  0  0  0  0  0  0  0  0
    6.6110    3.9440    0.2900 O   0  0  0  0  0  0  0  0  0  0  0  0
  1  2  2  0
  2  3  1  0
  3  4  1  0
  4  5  1  0
  5  6  2  0
  5 40  1  0
  6  7  1  0
  7  8  2  0
  7 38  1  0
  8  9  1  0
  9 10  1  0
  9 35  2  0
 10 11  1  0
 11 12  2  0
 11 13  1  0
 13 14  1  0
 13 18  2  0
 14 15  1  0
 15 16  2  0
 15 17  1  0
 17 18  1  0
 18 19  1  0
 19 20  2  0
 19 21  1  0
 21 22  1  0
 22 23  1  0
 23 24  2  0
 23 28  1  0
 24 25  1  0
 25 26  2  0
 26 27  1  0
 27 28  2  0
 28 29  1  0
 29 30  1  0
 30 31  1  0
 31 32  1  0
 32 33  1  0
 33 34  1  0
 35 36  1  0
 36 37  1  0
 36 38  2  0
 38 39  1  0
 39 40  1  0
 40 41  2  0
M  CHG  1  30   1
M  END
