
     RDKit          3D

 33 36  0  0  0  0  0  0  0  0999 V2000
    2.3750    0.3410   -3.6220 C   0  0  0  0  0  0  0  0  0  0  0  0
    3.2980   -0.6800   -3.0190 C   0  0  0  0  0  0  0  0  0  0  0  0
    3.7330   -0.5410   -1.6450 C   0  0  0  0  0  0  0  0  0  0  0  0
    2.7740   -0.5680   -0.4920 C   0  0  2  0  0  0  0  0  0  0  0  0
    3.6070   -0.4060    0.8080 C   0  0  2  0  0  0  0  0  0  0  0  0
    2.6530   -0.4280    1.8620 O   0  0  0  0  0  0  0  0  0  0  0  0
    4.3920    0.8430    0.8720 C   0  0  0  0  0  0  0  0  0  0  0  0
    5.8990    0.5820    1.0270 C   0  0  0  0  0  0  0  0  0  0  0  0
    6.0230   -0.0630    2.2680 O   0  0  0  0  0  0  0  0  0  0  0  0
    5.2490   -1.1750    2.3920 C   0  0  0  0  0  0  0  0  0  0  0  0
    4.5100   -1.5590    1.0960 C   0  0  0  0  0  0  0  0  0  0  0  0
    2.1380   -1.9250   -0.4550 C   0  0  0  0  0  0  0  0  0  0  0  0
    0.7280   -1.9470   -0.9640 C   0  0  0  0  0  0  0  0  0  0  0  0
   -0.0190   -0.9970   -0.0120 C   0  0  2  0  0  0  0  0  0  0  0  0
   -1.3800   -1.2090   -0.3250 O   0  0  0  0  0  0  0  0  0  0  0  0
   -2.0850   -1.7730    0.7040 C   0  0  2  0  0  0  0  0  0  0  0  0
   -1.9000   -3.2390    0.8960 C   0  0  0  0  0  0  0  0  0  0  0  0
   -3.2150   -3.7430    1.5070 C   0  0  0  0  0  0  0  0  0  0  0  0
   -4.2450   -2.7100    1.1900 C   0  0  0  0  0  0  0  0  0  0  0  0
   -3.5630   -1.6900    0.3250 C   0  0  2  0  0  0  0  0  0  0  0  0
   -3.6650   -2.0480   -1.1340 C   0  0  0  0  0  0  0  0  0  0  0  0
   -4.1090   -0.3190    0.6320 C   0  0  0  0  0  0  0  0  0  0  0  0
   -4.3520    0.4860   -0.5810 C   0  0  0  0  0  0  0  0  0  0  0  0
   -4.2400    1.8070   -0.6650 C   0  0  0  0  0  0  0  0  0  0  0  0
   -3.8550    2.7210    0.4240 C   0  0  1  0  0  0  0  0  0  0  0  0
   -4.6750    2.5300    1.6860 C   0  0  0  0  0  0  0  0  0  0  0  0
   -2.4150    2.6820    0.8150 C   0  0  0  0  0  0  0  0  0  0  0  0
   -1.5050    2.0400   -0.2110 C   0  0  1  0  0  0  0  0  0  0  0  0
   -1.0940    3.1470   -1.1790 C   0  0  0  0  0  0  0  0  0  0  0  0
   -0.3710    4.2740   -0.5330 C   0  0  0  0  0  0  0  0  0  0  0  0
   -0.2980    1.4150    0.4670 C   0  0  0  0  0  0  0  0  0  0  0  0
    0.3870    0.3800   -0.4380 C   0  0  1  0  0  0  0  0  0  0  0  0
    1.8600    0.5980   -0.5530 C   0  0  0  0  0  0  0  0  0  0  0  0
  1  2  1  0
  2  3  1  0
  4  3  1  6
  4  5  1  0
  4 12  1  0
  4 33  1  0
  5  6  1  1
  5  7  1  0
  5 11  1  0
  7  8  1  0
  8  9  1  0
  9 10  1  0
 10 11  1  0
 12 13  1  0
 14 13  1  6
 14 15  1  0
 14 32  1  0
 15 16  1  0
 16 17  1  6
 16 20  1  0
 17 18  1  0
 18 19  1  0
 19 20  1  0
 20 21  1  6
 20 22  1  0
 22 23  1  0
 23 24  2  0
 24 25  1  0
 25 26  1  1
 25 27  1  0
 27 28  1  0
 28 29  1  6
 28 31  1  0
 29 30  1  0
 32 31  1  1
 32 33  1  0
M  END
