
     RDKit          3D

 32 35  0  0  0  0  0  0  0  0999 V2000
   -0.4390    0.6800    0.3970 O   0  0  0  0  0  0  0  0  0  0  0  0
    0.1500    1.1170    1.4040 C   0  0  0  0  0  0  0  0  0  0  0  0
   -0.6180    1.6940    2.4180 N   0  0  0  0  0  0  0  0  0  0  0  0
   -2.0120    1.8840    2.5190 C   0  0  0  0  0  0  0  0  0  0  0  0
   -2.5230    2.4990    3.6640 N   0  0  0  0  0  0  0  0  0  0  0  0
   -3.8340    2.5960    3.5930 C   0  0  0  0  0  0  0  0  0  0  0  0
   -4.1850    2.0580    2.4290 N   0  0  0  0  0  0  0  0  0  0  0  0
   -3.0530    1.6260    1.7850 N   0  0  0  0  0  0  0  0  0  0  0  0
   -3.1390    1.0060    0.5080 C   0  0  0  0  0  0  0  0  0  0  0  0
   -3.1100    1.6900   -0.6920 C   0  0  0  0  0  0  0  0  0  0  0  0
   -3.2490    1.0630   -1.9130 C   0  0  0  0  0  0  0  0  0  0  0  0
   -3.4250   -0.3160   -1.9470 C   0  0  0  0  0  0  0  0  0  0  0  0
   -3.4580   -1.0180   -0.7820 C   0  0  0  0  0  0  0  0  0  0  0  0
   -3.6470   -2.4900   -0.8430 C   0  0  0  0  0  0  0  0  0  0  0  0
   -5.1290   -2.8480   -0.7960 C   0  0  0  0  0  0  0  0  0  0  0  0
   -5.9930   -2.1130   -2.1800 Cl  0  0  0  0  0  0  0  0  0  0  0  0
   -3.3180   -0.3790    0.4270 C   0  0  0  0  0  0  0  0  0  0  0  0
    1.6220    1.0110    1.4870 C   0  0  0  0  0  0  0  0  0  0  0  0
    2.3770    1.4520    2.5370 C   0  0  0  0  0  0  0  0  0  0  0  0
    3.7690    1.2930    2.4960 C   0  0  0  0  0  0  0  0  0  0  0  0
    4.4700    1.6910    3.4480 O   0  0  0  0  0  0  0  0  0  0  0  0
    4.3660    0.7160    1.4420 N   0  0  0  0  0  0  0  0  0  0  0  0
    3.6280    0.2880    0.4200 C   0  0  0  0  0  0  0  0  0  0  0  0
    4.1860   -0.3330   -0.7600 C   0  0  0  0  0  0  0  0  0  0  0  0
    3.3290   -0.7440   -1.6790 C   0  0  0  0  0  0  0  0  0  0  0  0
    3.5780   -1.4200   -3.0020 C   0  0  0  0  0  0  0  0  0  0  0  0
    4.0700   -2.6760   -2.7110 O   0  0  0  0  0  0  0  0  0  0  0  0
    5.7650   -2.7250   -2.4900 S   0  0  0  0  0  0  0  0  0  0  0  0
    6.3460   -1.3470   -1.5140 C   0  0  0  0  0  0  0  0  0  0  0  0
    7.6950   -1.2520   -1.4650 F   0  0  0  0  0  0  0  0  0  0  0  0
    5.6240   -0.4510   -0.8640 C   0  0  0  0  0  0  0  0  0  0  0  0
    2.2690    0.4440    0.4630 N   0  0  0  0  0  0  0  0  0  0  0  0
  1  2  2  0
  2  3  1  0
  2 18  1  0
  3  4  1  0
  4  5  2  0
  4  8  1  0
  5  6  1  0
  6  7  2  0
  7  8  1  0
  8  9  1  0
  9 10  2  0
  9 17  1  0
 10 11  1  0
 11 12  2  0
 12 13  1  0
 13 14  1  0
 13 17  2  0
 14 15  1  0
 15 16  1  0
 18 19  2  0
 18 32  1  0
 19 20  1  0
 20 21  2  0
 20 22  1  0
 22 23  1  0
 23 24  1  0
 23 32  2  0
 24 25  2  0
 24 31  1  0
 25 26  1  0
 26 27  1  0
 27 28  1  0
 28 29  1  0
 29 30  1  0
 29 31  2  0
M  END
