
     RDKit          3D

 32 35  0  0  0  0  0  0  0  0999 V2000
   -5.2110   -3.3910    3.1700 O   0  0  0  0  0  0  0  0  0  0  0  0
   -3.9950   -3.0130    2.3400 S   0  0  0  0  0  0  0  0  0  0  0  0
   -4.4500   -1.8250    1.1100 C   0  0  0  0  0  0  0  0  0  0  0  0
   -5.7810   -1.6430    0.8100 C   0  0  0  0  0  0  0  0  0  0  0  0
   -6.1190   -0.7220   -0.1430 C   0  0  0  0  0  0  0  0  0  0  0  0
   -5.1260   -0.0070   -0.7720 C   0  0  0  0  0  0  0  0  0  0  0  0
   -5.5400    0.9010   -1.7190 C   0  0  0  0  0  0  0  0  0  0  0  0
   -4.6230    1.6420   -2.3810 C   0  0  0  0  0  0  0  0  0  0  0  0
   -5.1380    2.8100   -3.5970 Cl  0  0  0  0  0  0  0  0  0  0  0  0
   -3.2870    1.4580   -2.0790 C   0  0  0  0  0  0  0  0  0  0  0  0
   -2.7970    0.5730   -1.1500 C   0  0  0  0  0  0  0  0  0  0  0  0
   -1.4220    0.3860   -0.8420 N   0  0  0  0  0  0  0  0  0  0  0  0
   -0.3320    1.0560   -1.4180 C   0  0  0  0  0  0  0  0  0  0  0  0
   -0.5680    1.9280   -2.3140 O   0  0  0  0  0  0  0  0  0  0  0  0
    1.0920    0.8100   -1.0470 C   0  0  0  0  0  0  0  0  0  0  0  0
    1.3890   -0.0630   -0.1440 C   0  0  0  0  0  0  0  0  0  0  0  0
    2.7290   -0.3920    0.3180 C   0  0  0  0  0  0  0  0  0  0  0  0
    2.9280   -1.6490    0.8300 N   0  0  0  0  0  0  0  0  0  0  0  0
    4.0820   -2.0630    1.2800 N   0  0  0  0  0  0  0  0  0  0  0  0
    4.5200   -3.2380    1.8220 C   0  0  0  0  0  0  0  0  0  0  0  0
    3.7940   -4.2450    2.0020 O   0  0  0  0  0  0  0  0  0  0  0  0
    5.8260   -3.1410    2.1230 N   0  0  0  0  0  0  0  0  0  0  0  0
    6.1930   -1.9230    1.7730 N   0  0  0  0  0  0  0  0  0  0  0  0
    5.1360   -1.2420    1.2530 C   0  0  0  0  0  0  0  0  0  0  0  0
    5.0230    0.0300    0.7620 C   0  0  0  0  0  0  0  0  0  0  0  0
    3.7790    0.4790    0.2790 C   0  0  0  0  0  0  0  0  0  0  0  0
    3.6650    1.8920   -0.0490 C   0  0  0  0  0  0  0  0  0  0  0  0
    4.7450    2.5920   -0.1110 N   0  0  0  0  0  0  0  0  0  0  0  0
    4.6670    3.9960   -0.4350 C   0  0  0  0  0  0  0  0  0  0  0  0
    5.2560    4.3100   -1.6320 F   0  0  0  0  0  0  0  0  0  0  0  0
   -3.7720   -0.1830   -0.4770 C   0  0  0  0  0  0  0  0  0  0  0  0
   -3.4260   -1.1070    0.4790 C   0  0  0  0  0  0  0  0  0  0  0  0
  1  2  2  0
  2  3  1  0
  3  4  2  0
  3 32  1  0
  4  5  1  0
  5  6  2  0
  6  7  1  0
  6 31  1  0
  7  8  2  0
  8  9  1  0
  8 10  1  0
 10 11  2  0
 11 12  1  0
 11 31  1  0
 12 13  1  0
 13 14  2  0
 13 15  1  0
 15 16  2  3
 16 17  1  0
 17 18  2  0
 17 26  1  0
 18 19  1  0
 19 20  1  0
 19 24  1  0
 20 21  2  0
 20 22  1  0
 22 23  1  0
 23 24  2  0
 24 25  1  0
 25 26  2  0
 26 27  1  0
 27 28  2  3
 28 29  1  0
 29 30  1  0
 31 32  2  0
M  END
