
     RDKit          3D

 32 35  0  0  0  0  0  0  0  0999 V2000
   -8.5410   -0.8960   -0.0640 C   0  0  0  0  0  0  0  0  0  0  0  0
   -7.3270   -1.4100   -0.0770 C   0  0  0  0  0  0  0  0  0  0  0  0
   -6.8340   -2.5300    0.5520 C   0  0  0  0  0  0  0  0  0  0  0  0
   -7.4860   -3.3650    1.3320 C   0  0  0  0  0  0  0  0  0  0  0  0
   -8.8020   -3.2250    1.6370 F   0  0  0  0  0  0  0  0  0  0  0  0
   -5.5180   -2.6410    0.2270 N   0  0  0  0  0  0  0  0  0  0  0  0
   -5.1740   -1.6290   -0.5830 C   0  0  0  0  0  0  0  0  0  0  0  0
   -3.8700   -1.3400   -1.1820 C   0  0  0  0  0  0  0  0  0  0  0  0
   -3.3490   -1.7570   -2.3880 C   0  0  0  0  0  0  0  0  0  0  0  0
   -4.2270   -2.7930   -3.5150 Cl  0  0  0  0  0  0  0  0  0  0  0  0
   -2.1250   -1.2780   -2.5720 N   0  0  0  0  0  0  0  0  0  0  0  0
   -1.8220   -0.5360   -1.4850 C   0  0  0  0  0  0  0  0  0  0  0  0
   -2.9070   -0.5640   -0.6000 C   0  0  0  0  0  0  0  0  0  0  0  0
   -2.7370    0.1360    0.5240 N   0  0  0  0  0  0  0  0  0  0  0  0
   -1.6760    0.8370    0.8850 C   0  0  0  0  0  0  0  0  0  0  0  0
   -0.5640    0.9070    0.0550 C   0  0  0  0  0  0  0  0  0  0  0  0
    0.5740    1.5250    0.1970 N   0  0  0  0  0  0  0  0  0  0  0  0
    1.5060    1.5770   -0.5110 C   0  0  0  0  0  0  0  0  0  0  0  0
    2.8340    2.1230   -0.6630 N   0  0  0  0  0  0  0  0  0  0  0  0
    3.2630    2.9390    0.4520 C   0  0  0  0  0  0  0  0  0  0  0  0
    3.2820    2.1300    1.7370 C   0  0  0  0  0  0  0  0  0  0  0  0
    4.1770    1.0570    1.5730 O   0  0  0  0  0  0  0  0  0  0  0  0
    5.5140    1.1460    1.3020 C   0  0  0  0  0  0  0  0  0  0  0  0
    6.0220    2.2840    1.1850 O   0  0  0  0  0  0  0  0  0  0  0  0
    6.3580    0.0560    1.1470 O   0  0  0  0  0  0  0  0  0  0  0  0
    7.7380    0.1970    0.8680 C   0  0  2  0  0  0  0  0  0  0  0  0
    8.1000   -0.4450   -0.4580 C   0  0  0  0  0  0  0  0  0  0  0  0
    8.5850   -0.3670    1.9780 C   0  0  0  0  0  0  0  0  0  0  0  0
    0.8640    0.4910   -1.9330 S   0  0  0  0  0  0  0  0  0  0  0  0
   -0.6700    0.1910   -1.1560 C   0  0  0  0  0  0  0  0  0  0  0  0
   -6.2750   -0.8840   -0.7640 N   0  0  0  0  0  0  0  0  0  0  0  0
   -6.3540    0.3080   -1.5700 C   0  0  0  0  0  0  0  0  0  0  0  0
  1  2  2  0
  2  3  1  0
  2 31  1  0
  3  4  2  3
  3  6  1  0
  4  5  1  0
  6  7  2  0
  7  8  1  0
  7 31  1  0
  8  9  2  0
  8 13  1  0
  9 10  1  0
  9 11  1  0
 11 12  1  0
 12 13  2  0
 12 30  1  0
 13 14  1  0
 14 15  2  0
 15 16  1  0
 16 17  1  0
 16 30  2  0
 17 18  2  0
 18 19  1  0
 18 29  1  0
 19 20  1  0
 20 21  1  0
 21 22  1  0
 22 23  1  0
 23 24  2  0
 23 25  1  0
 25 26  1  0
 26 27  1  6
 26 28  1  0
 29 30  1  0
 31 32  1  0
M  END
