
     RDKit          3D

 33 36  0  0  0  0  0  0  0  0999 V2000
    4.2700   -3.9850   -0.9180 C   0  0  0  0  0  0  0  0  0  0  0  0
    4.8790   -2.9340   -0.0390 C   0  0  0  0  0  0  0  0  0  0  0  0
    3.9970   -2.3770    1.0380 C   0  0  2  0  0  0  0  0  0  0  0  0
    3.6390   -3.5210    1.8470 O   0  0  0  0  0  0  0  0  0  0  0  0
    2.7360   -1.7580    0.5650 C   0  0  0  0  0  0  0  0  0  0  0  0
    2.4850   -0.4620    0.5010 C   0  0  0  0  0  0  0  0  0  0  0  0
    3.5710    0.4870    0.9420 C   0  0  1  0  0  0  0  0  0  0  0  0
    3.8910    1.4950   -0.1640 C   0  0  0  0  0  0  0  0  0  0  0  0
    3.3320    2.8580    0.1120 C   0  0  0  0  0  0  0  0  0  0  0  0
    3.9630    3.4700    1.3480 C   0  0  0  0  0  0  0  0  0  0  0  0
    4.1510    2.3830    2.3570 C   0  0  0  0  0  0  0  0  0  0  0  0
    3.0810    1.3360    2.1110 C   0  0  2  0  0  0  0  0  0  0  0  0
    3.0170    0.4850    3.3650 C   0  0  0  0  0  0  0  0  0  0  0  0
    1.2000    0.1390    0.0270 C   0  0  0  0  0  0  0  0  0  0  0  0
    0.2000   -0.8590   -0.4860 C   0  0  2  0  0  0  0  0  0  0  0  0
   -1.0610   -0.3770   -0.3320 O   0  0  0  0  0  0  0  0  0  0  0  0
   -1.7880   -0.1260   -1.4540 C   0  0  2  0  0  0  0  0  0  0  0  0
   -1.9280   -1.3900   -2.2750 C   0  0  0  0  0  0  0  0  0  0  0  0
   -1.0950    0.8440   -2.3850 C   0  0  0  0  0  0  0  0  0  0  0  0
   -2.2100    1.4260   -3.1540 C   0  0  0  0  0  0  0  0  0  0  0  0
   -3.2370    1.6580   -2.0320 C   0  0  1  0  0  0  0  0  0  0  0  0
   -4.5170    1.9160   -2.7150 C   0  0  0  0  0  0  0  0  0  0  0  0
   -3.1410    0.4780   -1.1070 C   0  0  1  0  0  0  0  0  0  0  0  0
   -4.2130   -0.5490   -1.3650 C   0  0  0  0  0  0  0  0  0  0  0  0
   -5.3770   -0.5800   -0.4350 C   0  0  0  0  0  0  0  0  0  0  0  0
   -4.9570   -0.8940    1.0010 C   0  0  0  0  0  0  0  0  0  0  0  0
   -3.5690   -0.3940    1.1730 C   0  0  2  0  0  0  0  0  0  0  0  0
   -3.3940   -0.0650    2.5270 O   0  0  0  0  0  0  0  0  0  0  0  0
   -3.2580    0.8580    0.3550 C   0  0  2  0  0  0  0  0  0  0  0  0
   -4.3980    1.8280    0.5900 C   0  0  0  0  0  0  0  0  0  0  0  0
   -2.0430    1.4680    0.9690 C   0  0  0  0  0  0  0  0  0  0  0  0
    0.3130   -2.1630    0.2690 C   0  0  0  0  0  0  0  0  0  0  0  0
    1.6960   -2.7610    0.0970 C   0  0  0  0  0  0  0  0  0  0  0  0
  1  2  1  0
  2  3  1  0
  3  4  1  1
  3  5  1  0
  5  6  2  0
  5 33  1  0
  7  6  1  6
  6 14  1  0
  7  8  1  0
  7 12  1  0
  8  9  1  0
  9 10  1  0
 10 11  1  0
 11 12  1  0
 12 13  1  1
 14 15  1  0
 15 16  1  1
 15 32  1  0
 16 17  1  0
 17 18  1  6
 17 19  1  0
 17 23  1  0
 19 20  1  0
 20 21  1  0
 21 22  1  6
 21 23  1  0
 23 24  1  6
 23 29  1  0
 24 25  1  0
 25 26  1  0
 26 27  1  0
 27 28  1  1
 27 29  1  0
 29 30  1  6
 29 31  1  0
 32 33  1  0
M  END
