
     RDKit          3D

 33 36  0  0  0  0  0  0  0  0999 V2000
   -6.1610   -0.4150    0.4130 C   0  0  0  0  0  0  0  0  0  0  0  0
   -5.3590    0.7460    0.0410 C   0  0  1  0  0  0  0  0  0  0  0  0
   -5.2630    1.6650    1.2810 C   0  0  0  0  0  0  0  0  0  0  0  0
   -4.2960    1.1800    2.2860 C   0  0  2  0  0  0  0  0  0  0  0  0
   -4.0740    2.1820    3.2130 O   0  0  0  0  0  0  0  0  0  0  0  0
   -2.9750    0.6790    1.7630 C   0  0  0  0  0  0  0  0  0  0  0  0
   -3.1970   -0.1590    0.5930 C   0  0  2  0  0  0  0  0  0  0  0  0
   -2.2040   -0.2790   -0.5030 C   0  0  1  0  0  0  0  0  0  0  0  0
   -1.4500   -1.5650   -0.3990 C   0  0  0  0  0  0  0  0  0  0  0  0
   -0.4130   -1.8060   -1.4290 C   0  0  1  0  0  0  0  0  0  0  0  0
   -0.9650   -1.8090   -2.7370 O   0  0  0  0  0  0  0  0  0  0  0  0
    0.7750   -0.9680   -1.4780 C   0  0  0  0  0  0  0  0  0  0  0  0
    1.7740   -0.8650   -0.3980 C   0  0  2  0  0  0  0  0  0  0  0  0
    1.1620   -0.3720    0.8850 C   0  0  0  0  0  0  0  0  0  0  0  0
    2.6410    0.3510   -0.8530 C   0  0  0  0  0  0  0  0  0  0  0  0
    3.8200    0.5620   -0.0350 C   0  0  0  0  0  0  0  0  0  0  0  0
    4.6100   -0.5030    0.1910 C   0  0  0  0  0  0  0  0  0  0  0  0
    4.1260   -1.7450   -0.4570 C   0  0  0  0  0  0  0  0  0  0  0  0
    2.6690   -2.0400   -0.1750 C   0  0  1  0  0  0  0  0  0  0  0  0
    2.6730   -2.4900    1.2980 C   0  0  0  0  0  0  0  0  0  0  0  0
    2.3370   -3.2840   -0.9540 C   0  0  0  0  0  0  0  0  0  0  0  0
    5.7990   -0.4050    0.9810 C   0  0  0  0  0  0  0  0  0  0  0  0
    6.2400   -1.4700    1.5360 O   0  0  0  0  0  0  0  0  0  0  0  0
    6.4930    0.8840    1.1510 C   0  0  0  0  0  0  0  0  0  0  0  0
    5.8030    1.9410    0.3290 C   0  0  0  0  0  0  0  0  0  0  0  0
    4.2730    1.8690    0.5540 C   0  0  2  0  0  0  0  0  0  0  0  0
    4.0850    1.9660    2.0290 C   0  0  0  0  0  0  0  0  0  0  0  0
    3.6760    3.0030   -0.2350 C   0  0  0  0  0  0  0  0  0  0  0  0
   -3.4510   -0.2940   -1.4080 C   0  0  2  0  0  0  0  0  0  0  0  0
   -4.1080   -1.6020   -1.6300 C   0  0  0  0  0  0  0  0  0  0  0  0
   -3.1170    0.3810   -2.7220 C   0  0  0  0  0  0  0  0  0  0  0  0
   -4.0110    0.6500   -0.4340 C   0  0  1  0  0  0  0  0  0  0  0  0
   -3.4480    2.0450   -0.6560 C   0  0  0  0  0  0  0  0  0  0  0  0
  2  1  1  1
  2  3  1  0
  2 32  1  0
  3  4  1  0
  4  5  1  1
  4  6  1  0
  7  6  1  1
  7  8  1  0
  7 32  1  0
  8  9  1  1
  8 29  1  0
  9 10  1  0
 10 11  1  6
 10 12  1  0
 12 13  1  0
 13 14  1  1
 13 15  1  0
 13 19  1  0
 15 16  1  0
 16 17  2  0
 16 26  1  0
 17 18  1  0
 17 22  1  0
 18 19  1  0
 19 20  1  1
 19 21  1  0
 22 23  2  0
 22 24  1  0
 24 25  1  0
 25 26  1  0
 26 27  1  1
 26 28  1  0
 29 30  1  6
 29 31  1  0
 29 32  1  0
 32 33  1  6
M  END
