
     RDKit          3D

 33 35  0  0  0  0  0  0  0  0999 V2000
    4.2360    4.0220   -1.7910 C   0  0  0  0  0  0  0  0  0  0  0  0
    3.8660    2.6270   -1.3050 C   0  0  0  0  0  0  0  0  0  0  0  0
    2.3850    2.3700   -1.4860 C   0  0  1  0  0  0  0  0  0  0  0  0
    1.6770    3.4430   -0.6600 C   0  0  0  0  0  0  0  0  0  0  0  0
    1.9380    2.5530   -2.8990 C   0  0  0  0  0  0  0  0  0  0  0  0
    2.0480    1.0220   -0.9250 C   0  0  0  0  0  0  0  0  0  0  0  0
    1.2630    1.0010    0.0450 O   0  0  0  0  0  0  0  0  0  0  0  0
    2.5850   -0.2110   -1.4500 C   0  0  0  0  0  0  0  0  0  0  0  0
    3.4330   -0.0490   -2.4120 O   0  0  0  0  0  0  0  0  0  0  0  0
    2.3110   -1.5040   -1.0470 N   0  0  0  0  0  0  0  0  0  0  0  0
    3.1720   -2.5860   -1.6490 C   0  0  0  0  0  0  0  0  0  0  0  0
    3.4990   -3.4890   -0.4330 C   0  0  0  0  0  0  0  0  0  0  0  0
    3.4390   -2.7650    0.8690 C   0  0  0  0  0  0  0  0  0  0  0  0
    2.0870   -2.1360    1.1980 C   0  0  0  0  0  0  0  0  0  0  0  0
    1.3680   -2.0530   -0.1330 C   0  0  1  0  0  0  0  0  0  0  0  0
    0.0180   -1.5560   -0.0580 C   0  0  0  0  0  0  0  0  0  0  0  0
   -0.5170   -1.0630   -1.1150 O   0  0  0  0  0  0  0  0  0  0  0  0
   -0.7980   -1.5420    1.0080 O   0  0  0  0  0  0  0  0  0  0  0  0
   -2.0520   -1.1780    1.3330 C   0  0  2  0  0  0  0  0  0  0  0  0
   -2.3180   -0.1530    2.3600 C   0  0  0  0  0  0  0  0  0  0  0  0
   -1.8480    1.2490    2.1060 C   0  0  0  0  0  0  0  0  0  0  0  0
   -2.5380    1.9090    0.9900 C   0  0  0  0  0  0  0  0  0  0  0  0
   -2.1480    1.9270   -0.3120 C   0  0  0  0  0  0  0  0  0  0  0  0
   -2.8970    2.5880   -1.3010 C   0  0  0  0  0  0  0  0  0  0  0  0
   -4.0470    3.2340   -0.9720 C   0  0  0  0  0  0  0  0  0  0  0  0
   -4.4700    3.2360    0.3320 C   0  0  0  0  0  0  0  0  0  0  0  0
   -3.7260    2.5840    1.2900 C   0  0  0  0  0  0  0  0  0  0  0  0
   -2.9440   -2.3540    1.6730 C   0  0  0  0  0  0  0  0  0  0  0  0
   -2.4000   -3.3160    2.5160 C   0  0  0  0  0  0  0  0  0  0  0  0
   -3.1510   -4.4330    2.8830 C   0  0  0  0  0  0  0  0  0  0  0  0
   -4.4220   -4.5470    2.3930 C   0  0  0  0  0  0  0  0  0  0  0  0
   -4.9380   -3.5750    1.5550 C   0  0  0  0  0  0  0  0  0  0  0  0
   -4.2120   -2.4530    1.1730 C   0  0  0  0  0  0  0  0  0  0  0  0
  1  2  1  0
  2  3  1  0
  3  4  1  1
  3  5  1  0
  3  6  1  0
  6  7  2  0
  6  8  1  0
  8  9  2  0
  8 10  1  0
 10 11  1  0
 10 15  1  0
 11 12  1  0
 12 13  1  0
 13 14  1  0
 14 15  1  0
 15 16  1  1
 16 17  2  0
 16 18  1  0
 18 19  1  0
 19 20  1  1
 19 28  1  0
 20 21  1  0
 21 22  1  0
 22 23  2  0
 22 27  1  0
 23 24  1  0
 24 25  2  0
 25 26  1  0
 26 27  2  0
 28 29  2  0
 28 33  1  0
 29 30  1  0
 30 31  2  0
 31 32  1  0
 32 33  2  0
M  END
