
     RDKit          3D

 33 34  0  0  0  0  0  0  0  0999 V2000
   -2.1790   -0.9560    1.6820 C   0  0  0  0  0  0  0  0  0  0  0  0
   -2.2630    0.2010    1.0820 C   0  0  0  0  0  0  0  0  0  0  0  0
   -1.4480    1.3190    1.6330 C   0  0  0  0  0  0  0  0  0  0  0  0
   -1.3490    1.4520    2.9800 C   0  0  0  0  0  0  0  0  0  0  0  0
   -0.7650    2.3130    0.8720 N   0  0  0  0  0  0  0  0  0  0  0  0
   -1.1330    3.7360    1.0290 C   0  0  0  0  0  0  0  0  0  0  0  0
   -0.2530    4.4740    1.9600 C   0  0  0  0  0  0  0  0  0  0  0  0
   -0.6200    5.8620    2.1620 N   0  0  0  0  0  0  0  0  0  0  0  0
    0.7320    4.0350    2.5630 O   0  0  0  0  0  0  0  0  0  0  0  0
    0.2730    2.0420   -0.1050 C   0  0  0  0  0  0  0  0  0  0  0  0
    0.0200    2.3880   -1.3080 O   0  0  0  0  0  0  0  0  0  0  0  0
    1.5730    1.4170    0.1700 C   0  0  0  0  0  0  0  0  0  0  0  0
    2.1160    0.1500   -0.9500 S   0  0  0  0  0  0  0  0  0  0  0  0
    1.5080   -1.3920   -0.3080 C   0  0  0  0  0  0  0  0  0  0  0  0
    2.1830   -2.0110    0.5640 N   0  0  0  0  0  0  0  0  0  0  0  0
    3.4040   -1.6290    1.1220 C   0  0  0  0  0  0  0  0  0  0  0  0
    4.1590   -0.8540    0.5070 O   0  0  0  0  0  0  0  0  0  0  0  0
    3.8060   -2.1430    2.4480 C   0  0  1  0  0  0  0  0  0  0  0  0
    4.0260   -3.6370    2.4500 C   0  0  0  0  0  0  0  0  0  0  0  0
    5.4190   -3.7370    1.9010 C   0  0  0  0  0  0  0  0  0  0  0  0
    5.9590   -2.3610    2.0890 C   0  0  0  0  0  0  0  0  0  0  0  0
    5.0360   -1.6420    2.8100 O   0  0  0  0  0  0  0  0  0  0  0  0
    0.2830   -1.8800   -0.7760 N   0  0  0  0  0  0  0  0  0  0  0  0
   -0.1880   -1.4140   -2.0970 C   0  0  0  0  0  0  0  0  0  0  0  0
   -1.6490   -1.2170   -2.1260 C   0  0  0  0  0  0  0  0  0  0  0  0
   -2.1460    0.1470   -2.3720 C   0  0  0  0  0  0  0  0  0  0  0  0
   -1.8980    0.8440   -3.6120 C   0  0  0  0  0  0  0  0  0  0  0  0
   -1.2790    0.4350   -4.6480 C   0  0  0  0  0  0  0  0  0  0  0  0
   -0.5960   -0.7750   -5.0670 C   0  0  0  0  0  0  0  0  0  0  0  0
   -2.8500    0.7700   -1.3870 C   0  0  0  0  0  0  0  0  0  0  0  0
   -3.2100    0.3090   -0.0700 C   0  0  0  0  0  0  0  0  0  0  0  0
   -4.5110   -0.0360    0.1840 C   0  0  0  0  0  0  0  0  0  0  0  0
   -5.5020    0.0500   -0.8970 C   0  0  0  0  0  0  0  0  0  0  0  0
  1  2  2  0
  2  3  1  0
  2 31  1  0
  3  4  2  0
  3  5  1  0
  5  6  1  0
  5 10  1  0
  6  7  1  0
  7  8  1  0
  7  9  2  0
 10 11  2  0
 10 12  1  0
 12 13  1  0
 13 14  1  0
 14 15  2  3
 14 23  1  0
 15 16  1  0
 16 17  2  0
 18 16  1  6
 18 19  1  0
 18 22  1  0
 19 20  1  0
 20 21  1  0
 21 22  1  0
 23 24  1  0
 24 25  1  0
 25 26  1  0
 26 27  1  0
 26 30  2  0
 27 28  2  3
 28 29  1  0
 30 31  1  0
 31 32  2  3
 32 33  1  0
M  END
