
     RDKit          3D

 33 35  0  0  0  0  0  0  0  0999 V2000
    5.4090    4.1510   -0.3830 C   0  0  0  0  0  0  0  0  0  0  0  0
    6.0850    3.0560   -0.1640 C   0  0  0  0  0  0  0  0  0  0  0  0
    5.5360    2.0310    0.7770 C   0  0  0  0  0  0  0  0  0  0  0  0
    6.2580    0.9770    0.9490 C   0  0  0  0  0  0  0  0  0  0  0  0
    6.0150   -0.2090    1.8040 C   0  0  0  0  0  0  0  0  0  0  0  0
    4.2260    2.3230    1.3260 C   0  0  0  0  0  0  0  0  0  0  0  0
    3.5100    1.3270    2.0480 N   0  0  0  0  0  0  0  0  0  0  0  0
    3.0250    0.1510    1.4060 C   0  0  0  0  0  0  0  0  0  0  0  0
    3.2510    0.0310    0.1650 O   0  0  0  0  0  0  0  0  0  0  0  0
    2.2870   -0.9100    2.1100 C   0  0  0  0  0  0  0  0  0  0  0  0
    1.8680   -1.9270    1.2640 O   0  0  0  0  0  0  0  0  0  0  0  0
    1.0090   -1.8380    0.1950 C   0  0  0  0  0  0  0  0  0  0  0  0
    0.3770   -0.6850   -0.2270 C   0  0  0  0  0  0  0  0  0  0  0  0
   -0.4800   -0.6460   -1.3120 C   0  0  0  0  0  0  0  0  0  0  0  0
   -1.1060    0.6230   -1.6810 C   0  0  0  0  0  0  0  0  0  0  0  0
   -2.4080    0.8300   -1.0920 N   0  0  0  0  0  0  0  0  0  0  0  0
   -3.5990    0.4700   -1.5990 C   0  0  0  0  0  0  0  0  0  0  0  0
   -3.8700   -0.2320   -2.8890 C   0  0  0  0  0  0  0  0  0  0  0  0
   -4.6000    0.8500   -0.7280 C   0  0  0  0  0  0  0  0  0  0  0  0
   -3.9820    1.4560    0.3320 C   0  0  0  0  0  0  0  0  0  0  0  0
   -2.6190    1.4340    0.0860 C   0  0  0  0  0  0  0  0  0  0  0  0
   -1.5950    2.0020    1.0050 C   0  0  0  0  0  0  0  0  0  0  0  0
   -4.7970    1.9660    1.4250 C   0  0  0  0  0  0  0  0  0  0  0  0
   -4.2920    2.0280    2.5730 O   0  0  0  0  0  0  0  0  0  0  0  0
   -6.1800    2.3940    1.1750 C   0  0  0  0  0  0  0  0  0  0  0  0
   -6.7270    1.9760   -0.1400 C   0  0  0  0  0  0  0  0  0  0  0  0
   -6.0770    0.7450   -0.7120 C   0  0  0  0  0  0  0  0  0  0  0  0
   -0.6810   -1.8350   -1.9700 C   0  0  0  0  0  0  0  0  0  0  0  0
   -0.0620   -2.9920   -1.5650 C   0  0  0  0  0  0  0  0  0  0  0  0
    0.7840   -3.0360   -0.4960 C   0  0  0  0  0  0  0  0  0  0  0  0
    1.4090   -4.2060   -0.0870 O   0  0  0  0  0  0  0  0  0  0  0  0
    1.2570   -5.4480   -0.6880 C   0  0  0  0  0  0  0  0  0  0  0  0
   -0.1360   -6.0000   -0.6970 C   0  0  0  0  0  0  0  0  0  0  0  0
  1  2  2  0
  2  3  1  0
  3  4  2  3
  3  6  1  0
  4  5  1  0
  6  7  1  0
  7  8  1  0
  8  9  2  0
  8 10  1  0
 10 11  1  0
 11 12  1  0
 12 13  2  0
 12 30  1  0
 13 14  1  0
 14 15  1  0
 14 28  2  0
 15 16  1  0
 16 17  1  0
 16 21  1  0
 17 18  1  0
 17 19  2  0
 19 20  1  0
 19 27  1  0
 20 21  2  0
 20 23  1  0
 21 22  1  0
 23 24  2  0
 23 25  1  0
 25 26  1  0
 26 27  1  0
 28 29  1  0
 29 30  2  0
 30 31  1  0
 31 32  1  0
 32 33  1  0
M  END
