
     RDKit          3D

 33 34  0  0  0  0  0  0  0  0999 V2000
   -0.8620   -4.3800   -2.6660 C   0  0  0  0  0  0  0  0  0  0  0  0
    0.1390   -3.7230   -3.2220 C   0  0  0  0  0  0  0  0  0  0  0  0
    0.8170   -2.5560   -2.4880 C   0  0  0  0  0  0  0  0  0  0  0  0
    0.0280   -2.3610   -0.9510 S   0  0  0  0  0  0  0  0  0  0  0  0
    0.4030   -1.0500    0.1450 C   0  0  0  0  0  0  0  0  0  0  0  0
    1.2140   -0.0220    0.0110 C   0  0  0  0  0  0  0  0  0  0  0  0
    1.9340    0.0020   -1.3400 C   0  0  0  0  0  0  0  0  0  0  0  0
    1.5250    1.0830    0.9130 C   0  0  0  0  0  0  0  0  0  0  0  0
    2.7890    1.1390    1.3690 C   0  0  0  0  0  0  0  0  0  0  0  0
    3.8590    0.1980    1.0430 C   0  0  0  0  0  0  0  0  0  0  0  0
    5.0470    0.8030    0.4030 C   0  0  0  0  0  0  0  0  0  0  0  0
    5.5320    0.5010   -0.7750 C   0  0  0  0  0  0  0  0  0  0  0  0
    6.7450    1.3340   -1.0700 C   0  0  0  0  0  0  0  0  0  0  0  0
    6.8280    2.1460    0.1690 C   0  0  0  0  0  0  0  0  0  0  0  0
    5.8580    1.8420    1.0090 C   0  0  0  0  0  0  0  0  0  0  0  0
    0.6990    2.1470    1.3950 N   0  0  0  0  0  0  0  0  0  0  0  0
   -0.5510    2.6400    0.9600 C   0  0  0  0  0  0  0  0  0  0  0  0
   -0.8100    3.8840    0.8680 O   0  0  0  0  0  0  0  0  0  0  0  0
   -1.6220    1.7430    0.5930 C   0  0  0  0  0  0  0  0  0  0  0  0
   -2.8720    2.1150    0.1040 N   0  0  0  0  0  0  0  0  0  0  0  0
   -3.0320    3.1480   -0.8480 C   0  0  0  0  0  0  0  0  0  0  0  0
   -2.0620    3.7630   -1.3220 O   0  0  0  0  0  0  0  0  0  0  0  0
   -4.3360    3.4970   -1.2800 N   0  0  0  0  0  0  0  0  0  0  0  0
   -4.4930    4.5580   -2.2570 C   0  0  0  0  0  0  0  0  0  0  0  0
   -4.0420    1.3820    0.5610 C   0  0  0  0  0  0  0  0  0  0  0  0
   -3.8770    0.1800    1.3400 C   0  0  0  0  0  0  0  0  0  0  0  0
   -5.0380   -0.2390    1.7970 O   0  0  0  0  0  0  0  0  0  0  0  0
   -2.8300   -0.6470    1.7350 N   0  0  0  0  0  0  0  0  0  0  0  0
   -1.8940   -1.4690    0.9950 C   0  0  2  0  0  0  0  0  0  0  0  0
   -2.2750   -2.9550    1.1320 C   0  0  0  0  0  0  0  0  0  0  0  0
   -2.2250   -3.2580    2.4980 O   0  0  0  0  0  0  0  0  0  0  0  0
   -2.5610   -4.6000    2.7190 C   0  0  0  0  0  0  0  0  0  0  0  0
   -0.4460   -1.2630    1.4160 C   0  0  0  0  0  0  0  0  0  0  0  0
  1  2  2  0
  2  3  1  0
  3  4  1  0
  4  5  1  0
  5  6  2  0
  5 33  1  0
  6  7  1  0
  6  8  1  0
  8  9  2  3
  8 16  1  0
  9 10  1  0
 10 11  1  0
 11 12  2  0
 11 15  1  0
 12 13  1  0
 13 14  1  0
 14 15  2  0
 16 17  1  0
 17 18  2  0
 17 19  1  0
 19 20  1  0
 20 21  1  0
 20 25  1  0
 21 22  2  0
 21 23  1  0
 23 24  1  0
 25 26  1  0
 26 27  2  0
 26 28  1  0
 28 29  1  0
 29 30  1  1
 29 33  1  0
 30 31  1  0
 31 32  1  0
M  END
