
     RDKit          3D

 33 35  0  0  0  0  0  0  0  0999 V2000
    9.7060    1.1060    0.1060 C   0  0  0  0  0  0  0  0  0  0  0  0
    8.7420   -0.0790    0.2390 C   0  0  2  0  0  0  0  0  0  0  0  0
    7.4500    0.2800   -0.3910 C   0  0  0  0  0  0  0  0  0  0  0  0
    6.2420   -0.1820    0.3430 C   0  0  0  0  0  0  0  0  0  0  0  0
    5.0390    0.0130   -0.2940 C   0  0  0  0  0  0  0  0  0  0  0  0
    3.8130   -0.3660    0.2680 C   0  0  0  0  0  0  0  0  0  0  0  0
    2.6370   -0.1200   -0.4880 N   0  0  0  0  0  0  0  0  0  0  0  0
    1.3060   -0.2350   -0.0290 C   0  0  0  0  0  0  0  0  0  0  0  0
    1.0770   -0.5770    1.1400 O   0  0  0  0  0  0  0  0  0  0  0  0
    0.1950    0.0610   -0.9680 C   0  0  0  0  0  0  0  0  0  0  0  0
    0.4130    0.3960   -2.1470 O   0  0  0  0  0  0  0  0  0  0  0  0
   -1.1690   -0.0430   -0.4990 N   0  0  0  0  0  0  0  0  0  0  0  0
   -2.2560    0.2460   -1.4140 C   0  0  0  0  0  0  0  0  0  0  0  0
   -3.5760    0.0520   -0.6590 C   0  0  1  0  0  0  0  0  0  0  0  0
   -3.5750   -1.3910   -0.2410 C   0  0  0  0  0  0  0  0  0  0  0  0
   -4.7940   -1.7160    0.5160 C   0  0  0  0  0  0  0  0  0  0  0  0
   -5.9190   -1.6720   -0.0230 O   0  0  0  0  0  0  0  0  0  0  0  0
   -4.7710   -2.0980    1.8930 N   0  0  0  0  0  0  0  0  0  0  0  0
   -5.9910   -2.3970    2.6250 C   0  0  0  0  0  0  0  0  0  0  0  0
   -3.5340   -2.2230    2.6340 C   0  0  0  0  0  0  0  0  0  0  0  0
   -3.5910    0.9010    0.5640 C   0  0  0  0  0  0  0  0  0  0  0  0
   -4.3310    2.2040    0.4080 C   0  0  0  0  0  0  0  0  0  0  0  0
   -4.0040    2.8380   -1.2610 S   0  0  0  0  0  0  0  0  0  0  0  0
   -4.6630    1.5460   -2.3790 C   0  0  2  0  0  0  0  0  0  0  0  0
   -3.9530    1.4480   -3.6680 C   0  0  0  0  0  0  0  0  0  0  0  0
   -6.1160    1.9680   -2.6390 C   0  0  0  0  0  0  0  0  0  0  0  0
   -4.7480    0.2780   -1.5690 C   0  0  0  0  0  0  0  0  0  0  0  0
    3.8440   -0.9530    1.5010 C   0  0  0  0  0  0  0  0  0  0  0  0
    5.0460   -1.1510    2.1410 C   0  0  0  0  0  0  0  0  0  0  0  0
    6.2560   -0.7660    1.5670 C   0  0  0  0  0  0  0  0  0  0  0  0
    7.4850   -0.9750    2.2400 N   0  0  0  0  0  0  0  0  0  0  0  0
    8.6840   -0.5650    1.6140 C   0  0  0  0  0  0  0  0  0  0  0  0
    9.7610   -0.6170    2.2670 O   0  0  0  0  0  0  0  0  0  0  0  0
  2  1  1  1
  2  3  1  0
  2 32  1  0
  3  4  1  0
  4  5  2  0
  4 30  1  0
  5  6  1  0
  6  7  1  0
  6 28  2  0
  7  8  1  0
  8  9  2  0
  8 10  1  0
 10 11  2  0
 10 12  1  0
 12 13  1  0
 14 13  1  6
 14 15  1  0
 14 21  1  0
 14 27  1  0
 15 16  1  0
 16 17  2  0
 16 18  1  0
 18 19  1  0
 18 20  1  0
 21 22  1  0
 22 23  1  0
 23 24  1  0
 24 25  1  6
 24 26  1  0
 24 27  1  0
 28 29  1  0
 29 30  2  0
 30 31  1  0
 31 32  1  0
 32 33  2  0
M  END
