
     RDKit          3D

 33 36  0  0  0  0  0  0  0  0999 V2000
    5.7850    3.4130    0.0790 C   0  0  0  0  0  0  0  0  0  0  0  0
    6.5990    2.2760   -0.1350 O   0  0  0  0  0  0  0  0  0  0  0  0
    6.0950    1.0050    0.0720 C   0  0  0  0  0  0  0  0  0  0  0  0
    6.9170   -0.0790   -0.1480 C   0  0  0  0  0  0  0  0  0  0  0  0
    6.4430   -1.3550    0.0500 C   0  0  0  0  0  0  0  0  0  0  0  0
    5.1340   -1.5710    0.4730 C   0  0  0  0  0  0  0  0  0  0  0  0
    4.3340   -0.4810    0.6840 C   0  0  0  0  0  0  0  0  0  0  0  0
    2.9300   -0.5910    1.1120 C   0  0  2  0  0  0  0  0  0  0  0  0
    2.6090   -1.6730    2.0640 C   0  0  0  0  0  0  0  0  0  0  0  0
    2.2860   -3.0100    1.4970 C   0  0  0  0  0  0  0  0  0  0  0  0
    1.9890   -2.9820    0.0410 C   0  0  0  0  0  0  0  0  0  0  0  0
    1.2270   -1.7390   -0.3090 N   0  0  0  0  0  0  0  0  0  0  0  0
   -0.0830   -1.9150   -0.7450 C   0  0  0  0  0  0  0  0  0  0  0  0
   -0.5360   -3.5820   -0.7000 S   0  0  0  0  0  0  0  0  0  0  0  0
   -1.1140   -1.1230   -1.1990 N   0  0  0  0  0  0  0  0  0  0  0  0
   -1.1870    0.2370   -1.4740 C   0  0  0  0  0  0  0  0  0  0  0  0
   -0.1760    1.0240   -1.9600 C   0  0  0  0  0  0  0  0  0  0  0  0
   -0.3930    2.3630   -2.3070 C   0  0  0  0  0  0  0  0  0  0  0  0
   -1.6210    2.9200   -2.1700 C   0  0  0  0  0  0  0  0  0  0  0  0
   -1.8580    4.2960   -2.5230 N   0  0  0  0  0  0  0  0  0  0  0  0
   -2.6220    2.1180   -1.6840 C   0  0  0  0  0  0  0  0  0  0  0  0
   -2.4880    0.8000   -1.3220 C   0  0  0  0  0  0  0  0  0  0  0  0
   -3.4570    0.1070   -0.8770 O   0  0  0  0  0  0  0  0  0  0  0  0
   -4.4280   -0.6310   -0.4170 C   0  0  2  0  0  0  0  0  0  0  0  0
   -5.5110   -0.7060   -1.4340 C   0  0  0  0  0  0  0  0  0  0  0  0
   -5.6470   -1.5890   -2.2850 O   0  0  0  0  0  0  0  0  0  0  0  0
   -6.3090    0.3880   -1.2320 O   0  0  0  0  0  0  0  0  0  0  0  0
   -6.1230    0.9060    0.0880 C   0  0  0  0  0  0  0  0  0  0  0  0
   -5.2390   -0.0850    0.7530 C   0  0  2  0  0  0  0  0  0  0  0  0
   -4.3940    0.4470    1.8510 C   0  0  0  0  0  0  0  0  0  0  0  0
   -6.0890   -1.2260    1.2710 C   0  0  0  0  0  0  0  0  0  0  0  0
    1.9740   -0.5500   -0.0570 C   0  0  0  0  0  0  0  0  0  0  0  0
    4.8430    0.7540    0.4770 N   0  0  0  0  0  0  0  0  0  0  0  0
  1  2  1  0
  2  3  1  0
  3  4  2  0
  3 33  1  0
  4  5  1  0
  5  6  2  0
  6  7  1  0
  8  7  1  6
  7 33  2  0
  8  9  1  0
  8 32  1  0
  9 10  1  0
 10 11  1  0
 11 12  1  0
 12 13  1  0
 12 32  1  0
 13 14  2  0
 13 15  1  0
 15 16  1  0
 16 17  2  0
 16 22  1  0
 17 18  1  0
 18 19  2  0
 19 20  1  0
 19 21  1  0
 21 22  2  0
 22 23  1  0
 24 23  1  6
 24 25  1  0
 24 29  1  0
 25 26  2  0
 25 27  1  0
 27 28  1  0
 28 29  1  0
 29 30  1  1
 29 31  1  0
M  END
