
     RDKit          3D

 33 35  0  0  0  0  0  0  0  0999 V2000
   -0.0590    1.3720   -1.6540 C   0  0  0  0  0  0  0  0  0  0  0  0
    0.1250    1.2550   -0.1600 C   0  0  2  0  0  0  0  0  0  0  0  0
    1.3690    2.0080    0.3240 C   0  0  0  0  0  0  0  0  0  0  0  0
    0.0940   -0.1000    0.4060 C   0  0  1  0  0  0  0  0  0  0  0  0
   -1.1830   -0.8280    0.1450 C   0  0  0  0  0  0  0  0  0  0  0  0
   -1.0460   -1.9380   -0.4760 O   0  0  0  0  0  0  0  0  0  0  0  0
   -2.4710   -0.4310    0.5010 N   0  0  0  0  0  0  0  0  0  0  0  0
   -2.8160    0.7680    1.2210 C   0  0  0  0  0  0  0  0  0  0  0  0
   -4.1840    0.4630    1.8780 C   0  0  0  0  0  0  0  0  0  0  0  0
   -5.1880    0.5470    0.7370 C   0  0  2  0  0  0  0  0  0  0  0  0
   -5.0070    1.8280    0.1690 O   0  0  0  0  0  0  0  0  0  0  0  0
   -6.6000    0.4610    1.2110 C   0  0  0  0  0  0  0  0  0  0  0  0
   -7.4760    0.3320    0.0070 C   0  0  0  0  0  0  0  0  0  0  0  0
   -7.1390   -0.6160   -0.8650 C   0  0  0  0  0  0  0  0  0  0  0  0
   -5.9350   -1.4270   -0.5290 C   0  0  0  0  0  0  0  0  0  0  0  0
   -4.8020   -0.4760   -0.2790 C   0  0  2  0  0  0  0  0  0  0  0  0
   -3.5960   -1.2820    0.1280 C   0  0  0  0  0  0  0  0  0  0  0  0
    1.2370   -0.9320    0.1440 N   0  0  0  0  0  0  0  0  0  0  0  0
    2.0060   -1.3680    1.2940 C   0  0  0  0  0  0  0  0  0  0  0  0
    3.0000   -2.1100    1.2180 O   0  0  0  0  0  0  0  0  0  0  0  0
    1.6560   -1.4640   -1.1120 C   0  0  0  0  0  0  0  0  0  0  0  0
    2.7530   -0.7290   -1.7690 C   0  0  2  0  0  0  0  0  0  0  0  0
    3.0210   -1.4120   -3.1510 C   0  0  0  0  0  0  0  0  0  0  0  0
    4.0860   -0.8490   -1.0590 C   0  0  0  0  0  0  0  0  0  0  0  0
    4.7330   -1.8990   -1.2980 O   0  0  0  0  0  0  0  0  0  0  0  0
    4.5470    0.1510   -0.1980 N   0  0  0  0  0  0  0  0  0  0  0  0
    5.7700    0.1040    0.5030 C   0  0  0  0  0  0  0  0  0  0  0  0
    6.6210   -0.9470    0.5440 C   0  0  0  0  0  0  0  0  0  0  0  0
    7.8080   -0.8450    1.2770 C   0  0  0  0  0  0  0  0  0  0  0  0
    8.1460    0.2640    1.9510 N   0  0  0  0  0  0  0  0  0  0  0  0
    7.3280    1.3260    1.9340 C   0  0  0  0  0  0  0  0  0  0  0  0
    7.7530    2.8370    2.8320 S   0  0  0  0  0  0  0  0  0  0  0  0
    6.1610    1.2390    1.2200 C   0  0  0  0  0  0  0  0  0  0  0  0
  2  1  1  6
  2  3  1  0
  2  4  1  0
  4  5  1  0
  4 18  1  6
  5  6  2  0
  5  7  1  0
  7  8  1  0
  7 17  1  0
  8  9  1  0
  9 10  1  0
 10 11  1  6
 10 12  1  0
 10 16  1  0
 12 13  1  0
 13 14  2  0
 14 15  1  0
 16 15  1  1
 16 17  1  0
 18 19  1  0
 18 21  1  0
 19 20  2  0
 21 22  1  0
 22 23  1  6
 22 24  1  0
 24 25  2  0
 24 26  1  0
 26 27  1  0
 27 28  2  0
 27 33  1  0
 28 29  1  0
 29 30  2  0
 30 31  1  0
 31 32  1  0
 31 33  2  0
M  END
