
     RDKit          3D

 33 35  0  0  0  0  0  0  0  0999 V2000
   -7.6970    0.4580   -1.5960 C   0  0  0  0  0  0  0  0  0  0  0  0
   -6.6550    0.9840   -2.5270 C   0  0  0  0  0  0  0  0  0  0  0  0
   -5.3460    1.2860   -1.8300 C   0  0  1  0  0  0  0  0  0  0  0  0
   -5.5660    2.2300   -0.8580 O   0  0  0  0  0  0  0  0  0  0  0  0
   -4.7160    0.0490   -1.2810 C   0  0  0  0  0  0  0  0  0  0  0  0
   -4.4330   -0.9310   -2.0160 O   0  0  0  0  0  0  0  0  0  0  0  0
   -4.4200   -0.0430    0.1030 N   0  0  0  0  0  0  0  0  0  0  0  0
   -3.8000   -1.2290    0.7140 C   0  0  2  0  0  0  0  0  0  0  0  0
   -4.6250   -1.8710    1.7500 C   0  0  0  0  0  0  0  0  0  0  0  0
   -3.9020   -2.5090    2.9020 C   0  0  0  0  0  0  0  0  0  0  0  0
   -3.7040   -1.4850    4.0220 C   0  0  0  0  0  0  0  0  0  0  0  0
   -3.5230   -0.1080    3.3890 C   0  0  0  0  0  0  0  0  0  0  0  0
   -2.4120   -0.2180    2.4380 N   0  0  0  0  0  0  0  0  0  0  0  0
   -1.1900    0.3510    2.8510 C   0  0  0  0  0  0  0  0  0  0  0  0
   -1.1690    0.9190    3.9960 O   0  0  0  0  0  0  0  0  0  0  0  0
    0.0120    0.3380    2.0980 C   0  0  0  0  0  0  0  0  0  0  0  0
    1.1910    0.9340    2.5790 C   0  0  0  0  0  0  0  0  0  0  0  0
    2.3320    0.9080    1.8340 C   0  0  0  0  0  0  0  0  0  0  0  0
    2.4000    0.3000    0.5720 C   0  0  0  0  0  0  0  0  0  0  0  0
    3.6240    0.3050   -0.1500 N   0  0  0  0  0  0  0  0  0  0  0  0
    3.8710   -0.1840   -1.4250 C   0  0  0  0  0  0  0  0  0  0  0  0
    2.9410   -0.7070   -2.0730 O   0  0  0  0  0  0  0  0  0  0  0  0
    5.1890   -0.1040   -2.0270 C   0  0  0  0  0  0  0  0  0  0  0  0
    6.2650    0.4050   -1.4990 C   0  0  0  0  0  0  0  0  0  0  0  0
    7.5060    0.4100   -2.2290 C   0  0  0  0  0  0  0  0  0  0  0  0
    7.8640   -0.0230   -3.4410 C   0  0  0  0  0  0  0  0  0  0  0  0
    9.1240    0.1160   -3.8750 C   0  0  0  0  0  0  0  0  0  0  0  0
   10.0300    0.7160   -3.0350 C   0  0  0  0  0  0  0  0  0  0  0  0
   11.4820    1.0130   -3.2170 C   0  0  0  0  0  0  0  0  0  0  0  0
    9.0630    1.0830   -1.6100 S   0  0  0  0  0  0  0  0  0  0  0  0
    1.2220   -0.2640    0.1550 C   0  0  0  0  0  0  0  0  0  0  0  0
    0.1080   -0.2270    0.9060 N   0  0  0  0  0  0  0  0  0  0  0  0
   -2.4220   -0.8330    1.1520 C   0  0  0  0  0  0  0  0  0  0  0  0
  1  2  1  0
  2  3  1  0
  3  4  1  1
  3  5  1  0
  5  6  2  0
  5  7  1  0
  8  7  1  1
  8  9  1  0
  8 33  1  0
  9 10  1  0
 10 11  1  0
 11 12  1  0
 12 13  1  0
 13 14  1  0
 13 33  1  0
 14 15  2  0
 14 16  1  0
 16 17  2  0
 16 32  1  0
 17 18  1  0
 18 19  2  0
 19 20  1  0
 19 31  1  0
 20 21  1  0
 21 22  2  0
 21 23  1  0
 23 24  2  3
 24 25  1  0
 25 26  2  0
 25 30  1  0
 26 27  1  0
 27 28  2  0
 28 29  1  0
 28 30  1  0
 31 32  2  0
M  END
