
     RDKit          3D

 31 34  0  0  0  0  0  0  0  0999 V2000
   -2.5010    3.0580    1.4730 C   0  0  0  0  0  0  0  0  0  0  0  0
   -2.8690    2.0720    0.6020 O   0  0  0  0  0  0  0  0  0  0  0  0
   -4.0310    1.3660    0.4280 C   0  0  0  0  0  0  0  0  0  0  0  0
   -5.1230    1.6260    1.1840 C   0  0  0  0  0  0  0  0  0  0  0  0
   -6.2760    0.9200    1.0090 C   0  0  0  0  0  0  0  0  0  0  0  0
   -7.5740    0.9230    1.5860 C   0  0  0  0  0  0  0  0  0  0  0  0
   -8.3090    0.0510    1.0400 O   0  0  0  0  0  0  0  0  0  0  0  0
   -7.5950   -0.5900    0.0910 C   0  0  0  0  0  0  0  0  0  0  0  0
   -6.3420   -0.0890    0.0460 C   0  0  0  0  0  0  0  0  0  0  0  0
   -5.2030   -0.3720   -0.7440 C   0  0  0  0  0  0  0  0  0  0  0  0
   -4.0500    0.3710   -0.5450 C   0  0  0  0  0  0  0  0  0  0  0  0
   -2.8710    0.2620   -1.4670 C   0  0  0  0  0  0  0  0  0  0  0  0
   -2.2650   -1.0470   -1.3830 N   0  0  0  0  0  0  0  0  0  0  0  0
   -0.8710   -0.9900   -0.8890 C   0  0  0  0  0  0  0  0  0  0  0  0
   -0.3470    0.1860   -0.7100 O   0  0  0  0  0  0  0  0  0  0  0  0
   -0.1370   -2.1190   -0.6170 N   0  0  0  0  0  0  0  0  0  0  0  0
    1.2160   -2.1890   -0.1910 C   0  0  0  0  0  0  0  0  0  0  0  0
    2.1550   -1.2600   -0.1980 N   0  0  0  0  0  0  0  0  0  0  0  0
    3.4510   -1.4390    0.1110 C   0  0  0  0  0  0  0  0  0  0  0  0
    4.5400   -0.4870    0.1270 C   0  0  0  0  0  0  0  0  0  0  0  0
    4.7340    0.5750   -0.6200 C   0  0  0  0  0  0  0  0  0  0  0  0
    3.7370    0.9540   -1.6710 C   0  0  0  0  0  0  0  0  0  0  0  0
    4.6160    0.9380   -3.2430 Cl  0  0  0  0  0  0  0  0  0  0  0  0
    5.9910    1.4030   -0.5300 C   0  0  0  0  0  0  0  0  0  0  0  0
    6.0720    2.1160    0.7790 C   0  0  0  0  0  0  0  0  0  0  0  0
    5.8810    0.8190    2.0580 S   0  0  0  0  0  0  0  0  0  0  0  0
    5.6570   -0.7260    1.1560 C   0  0  0  0  0  0  0  0  0  0  0  0
    3.8160   -2.7500    0.4700 C   0  0  0  0  0  0  0  0  0  0  0  0
    2.9200   -3.7930    0.5130 C   0  0  0  0  0  0  0  0  0  0  0  0
    1.6250   -3.4970    0.1850 C   0  0  0  0  0  0  0  0  0  0  0  0
    0.6850   -4.4880    0.1960 F   0  0  0  0  0  0  0  0  0  0  0  0
  1  2  1  0
  2  3  1  0
  3  4  2  0
  3 11  1  0
  4  5  1  0
  5  6  2  0
  5  9  1  0
  6  7  1  0
  7  8  1  0
  8  9  2  0
  9 10  1  0
 10 11  2  0
 11 12  1  0
 12 13  1  0
 13 14  1  0
 14 15  2  0
 14 16  1  0
 16 17  1  0
 17 18  2  0
 17 30  1  0
 18 19  1  0
 19 20  1  0
 19 28  2  0
 20 21  2  0
 20 27  1  0
 21 22  1  0
 21 24  1  0
 22 23  1  0
 24 25  1  0
 25 26  1  0
 26 27  1  0
 28 29  1  0
 29 30  2  0
 30 31  1  0
M  END
