
     RDKit          3D

 31 34  0  0  0  0  0  0  0  0999 V2000
   -0.4880   -1.3880   -0.9110 O   0  0  0  0  0  0  0  0  0  0  0  0
   -0.8400   -1.2450    0.3040 C   0  0  0  0  0  0  0  0  0  0  0  0
   -0.1200   -1.9560    1.2680 N   0  0  0  0  0  0  0  0  0  0  0  0
    1.0000   -2.8150    0.9860 C   0  0  0  0  0  0  0  0  0  0  0  0
    2.1540   -2.0690    0.4470 C   0  0  0  0  0  0  0  0  0  0  0  0
    2.1210   -0.7640    0.3490 C   0  0  0  0  0  0  0  0  0  0  0  0
    3.2290    0.0110   -0.1780 C   0  0  0  0  0  0  0  0  0  0  0  0
    3.0820    1.3440   -0.2290 C   0  0  0  0  0  0  0  0  0  0  0  0
    4.1710    2.1770   -0.7540 C   0  0  0  0  0  0  0  0  0  0  0  0
    5.3860    1.7380   -1.2220 C   0  0  0  0  0  0  0  0  0  0  0  0
    6.0910    2.8630   -1.6120 C   0  0  0  0  0  0  0  0  0  0  0  0
    7.3510    2.9230   -2.1420 F   0  0  0  0  0  0  0  0  0  0  0  0
    5.2380    3.9120   -1.3460 C   0  0  0  0  0  0  0  0  0  0  0  0
    5.6670    5.5910   -1.6680 Cl  0  0  0  0  0  0  0  0  0  0  0  0
    4.1070    3.4880   -0.8390 O   0  0  0  0  0  0  0  0  0  0  0  0
    3.3240   -2.8410    0.0370 C   0  0  0  0  0  0  0  0  0  0  0  0
    4.4440   -2.7260   -0.4330 N   0  0  0  0  0  0  0  0  0  0  0  0
    5.3030   -3.6470   -0.6920 C   0  0  0  0  0  0  0  0  0  0  0  0
    4.9810   -4.9330   -0.4330 C   0  0  0  0  0  0  0  0  0  0  0  0
    3.3000   -4.7190    0.2320 S   0  0  0  0  0  0  0  0  0  0  0  0
   -1.9420   -0.3690    0.5790 C   0  0  0  0  0  0  0  0  0  0  0  0
   -2.7980    0.0120   -0.4820 C   0  0  0  0  0  0  0  0  0  0  0  0
   -3.8780    0.8270   -0.2920 C   0  0  0  0  0  0  0  0  0  0  0  0
   -4.1100    1.2760    0.9990 C   0  0  0  0  0  0  0  0  0  0  0  0
   -3.3160    0.9290    2.0160 N   0  0  0  0  0  0  0  0  0  0  0  0
   -2.2290    0.1100    1.8300 C   0  0  0  0  0  0  0  0  0  0  0  0
   -1.5460   -0.1540    2.8510 O   0  0  0  0  0  0  0  0  0  0  0  0
   -5.3050    2.1700    1.1310 C   0  0  0  0  0  0  0  0  0  0  0  0
   -6.5160    1.4330    0.5450 C   0  0  0  0  0  0  0  0  0  0  0  0
   -6.2140    0.8570   -0.7940 C   0  0  0  0  0  0  0  0  0  0  0  0
   -4.8340    1.2740   -1.3250 C   0  0  0  0  0  0  0  0  0  0  0  0
  1  2  2  0
  2  3  1  0
  2 21  1  0
  3  4  1  0
  4  5  1  0
  5  6  2  3
  5 16  1  0
  6  7  1  0
  7  8  2  3
  8  9  1  0
  9 10  2  0
  9 15  1  0
 10 11  1  0
 11 12  1  0
 11 13  2  0
 13 14  1  0
 13 15  1  0
 16 17  2  0
 16 20  1  0
 17 18  1  0
 18 19  2  0
 19 20  1  0
 21 22  2  0
 21 26  1  0
 22 23  1  0
 23 24  2  0
 23 31  1  0
 24 25  1  0
 24 28  1  0
 25 26  1  0
 26 27  2  0
 28 29  1  0
 29 30  1  0
 30 31  1  0
M  END
