
     RDKit          3D

 31 32  0  0  0  0  0  0  0  0999 V2000
   -2.0120   -1.0760   -1.6450 C   0  0  0  0  0  0  0  0  0  0  0  0
   -1.9560   -2.0300   -0.5080 C   0  0  1  0  0  0  0  0  0  0  0  0
   -2.5390   -3.3970   -0.8700 C   0  0  0  0  0  0  0  0  0  0  0  0
   -0.4780   -2.2670   -0.1750 C   0  0  0  0  0  0  0  0  0  0  0  0
   -0.2930   -2.6000    1.1640 O   0  0  0  0  0  0  0  0  0  0  0  0
    0.6460   -3.4260    1.7070 C   0  0  0  0  0  0  0  0  0  0  0  0
    0.7680   -3.4010    2.9810 O   0  0  0  0  0  0  0  0  0  0  0  0
    1.5240   -4.3350    0.9610 C   0  0  0  0  0  0  0  0  0  0  0  0
    2.5800   -3.6360    0.1470 C   0  0  0  0  0  0  0  0  0  0  0  0
    3.1780   -2.4410    0.8360 C   0  0  0  0  0  0  0  0  0  0  0  0
    3.9780   -1.6810   -0.2080 C   0  0  0  0  0  0  0  0  0  0  0  0
    4.8500   -0.6180    0.3910 C   0  0  0  0  0  0  0  0  0  0  0  0
    4.1530    0.7270    0.4580 C   0  0  0  0  0  0  0  0  0  0  0  0
    4.0680    1.3590   -0.9090 C   0  0  0  0  0  0  0  0  0  0  0  0
    3.7250    2.8160   -0.7590 C   0  0  0  0  0  0  0  0  0  0  0  0
    2.2750    2.9840   -0.3830 C   0  0  0  0  0  0  0  0  0  0  0  0
    1.3630    2.7950   -1.5500 C   0  0  0  0  0  0  0  0  0  0  0  0
   -0.0780    2.7050   -1.0310 C   0  0  0  0  0  0  0  0  0  0  0  0
   -0.0750    1.9040    0.1030 O   0  0  0  0  0  0  0  0  0  0  0  0
   -1.1980    1.2730    0.6590 C   0  0  0  0  0  0  0  0  0  0  0  0
   -0.9280    0.4410    1.5620 O   0  0  0  0  0  0  0  0  0  0  0  0
   -2.4960    1.6430    0.1420 C   0  0  2  0  0  0  0  0  0  0  0  0
   -2.8170    3.0860    0.5530 C   0  0  0  0  0  0  0  0  0  0  0  0
   -4.0220    3.1490    1.4640 C   0  0  0  0  0  0  0  0  0  0  0  0
   -5.2420    2.5310    0.8190 C   0  0  0  0  0  0  0  0  0  0  0  0
   -4.8800    1.3270   -0.0290 C   0  0  0  0  0  0  0  0  0  0  0  0
   -3.5920    0.7640    0.3630 N   0  0  0  0  0  0  0  0  0  0  0  0
   -3.6130   -0.5460    0.9000 C   0  0  0  0  0  0  0  0  0  0  0  0
   -4.6250   -0.8480    1.6520 O   0  0  0  0  0  0  0  0  0  0  0  0
   -2.6560   -1.6000    0.7240 C   0  0  0  0  0  0  0  0  0  0  0  0
   -2.3490   -2.2780    1.7700 O   0  0  0  0  0  0  0  0  0  0  0  0
  2  1  1  6
  2  3  1  0
  2  4  1  0
  2 30  1  0
  4  5  1  0
  5  6  1  0
  6  7  2  0
  6  8  1  0
  8  9  1  0
  9 10  1  0
 10 11  1  0
 11 12  1  0
 12 13  1  0
 13 14  1  0
 14 15  1  0
 15 16  1  0
 16 17  1  0
 17 18  1  0
 18 19  1  0
 19 20  1  0
 20 21  2  0
 20 22  1  0
 22 23  1  1
 22 27  1  0
 23 24  1  0
 24 25  1  0
 25 26  1  0
 26 27  1  0
 27 28  1  0
 28 29  2  0
 28 30  1  0
 30 31  2  0
M  END
