
     RDKit          3D

 31 34  0  0  0  0  0  0  0  0999 V2000
   -7.8610   -0.2730   -0.1550 C   0  0  0  0  0  0  0  0  0  0  0  0
   -6.4970    0.3710   -0.0370 C   0  0  0  0  0  0  0  0  0  0  0  0
   -5.4540   -0.6840   -0.1790 C   0  0  0  0  0  0  0  0  0  0  0  0
   -4.0290   -0.1290   -0.0710 C   0  0  1  0  0  0  0  0  0  0  0  0
   -2.9940   -1.2080   -0.2100 C   0  0  0  0  0  0  0  0  0  0  0  0
   -1.6360   -0.8240   -0.0740 N   0  0  0  0  0  0  0  0  0  0  0  0
   -1.0550   -0.3410    1.1080 C   0  0  0  0  0  0  0  0  0  0  0  0
   -1.7310   -0.2250    2.1530 O   0  0  0  0  0  0  0  0  0  0  0  0
    0.3440    0.0500    1.1660 C   0  0  0  0  0  0  0  0  0  0  0  0
    0.7510    1.2270    1.8020 C   0  0  0  0  0  0  0  0  0  0  0  0
    2.0600    1.4460    1.6280 N   0  0  0  0  0  0  0  0  0  0  0  0
    2.8200    2.5540    2.1770 C   0  0  0  0  0  0  0  0  0  0  0  0
    2.5230    0.4360    0.8930 C   0  0  0  0  0  0  0  0  0  0  0  0
    3.9090    0.2440    0.3850 C   0  0  0  0  0  0  0  0  0  0  0  0
    4.3100   -0.9270    0.2220 O   0  0  0  0  0  0  0  0  0  0  0  0
    4.7350    1.3240    0.0940 N   0  0  0  0  0  0  0  0  0  0  0  0
    6.0370    1.2890   -0.3680 C   0  0  0  0  0  0  0  0  0  0  0  0
    6.9100    2.8050   -0.6930 S   0  0  0  0  0  0  0  0  0  0  0  0
    8.4870    2.0780   -1.2410 C   0  0  0  0  0  0  0  0  0  0  0  0
    9.5480    2.7680   -1.6220 F   0  0  0  0  0  0  0  0  0  0  0  0
    8.1990    0.7710   -1.1240 C   0  0  0  0  0  0  0  0  0  0  0  0
    7.0040    0.3420   -0.6980 C   0  0  0  0  0  0  0  0  0  0  0  0
    6.6390   -1.4170   -0.5440 Cl  0  0  0  0  0  0  0  0  0  0  0  0
    1.4820   -0.4550    0.5880 C   0  0  0  0  0  0  0  0  0  0  0  0
    1.5900   -1.7500   -0.1010 C   0  0  0  0  0  0  0  0  0  0  0  0
    0.7210   -2.7980    0.0360 C   0  0  0  0  0  0  0  0  0  0  0  0
    1.1880   -3.8380   -0.7810 C   0  0  0  0  0  0  0  0  0  0  0  0
    2.3410   -3.3410   -1.3760 C   0  0  0  0  0  0  0  0  0  0  0  0
    2.5250   -2.1340   -0.9480 O   0  0  0  0  0  0  0  0  0  0  0  0
   -3.8280    0.9690   -1.1890 C   0  0  0  0  0  0  0  0  0  0  0  0
   -3.7570    1.2470    0.2780 C   0  0  0  0  0  0  0  0  0  0  0  0
  1  2  1  0
  2  3  1  0
  4  3  1  1
  4  5  1  0
  4 30  1  0
  4 31  1  0
  5  6  1  0
  6  7  1  0
  7  8  2  0
  7  9  1  0
  9 10  2  0
  9 24  1  0
 10 11  1  0
 11 12  1  0
 11 13  1  0
 13 14  1  0
 13 24  2  0
 14 15  2  0
 14 16  1  0
 16 17  1  0
 17 18  1  0
 17 22  2  0
 18 19  1  0
 19 20  1  0
 19 21  2  0
 21 22  1  0
 22 23  1  0
 24 25  1  0
 25 26  2  0
 25 29  1  0
 26 27  1  0
 27 28  2  0
 28 29  1  0
 30 31  1  0
M  END
