
     RDKit          3D

 29 31  0  0  0  0  0  0  0  0999 V2000
    4.8960    3.5310    3.9890 C   0  0  0  0  0  0  0  0  0  0  0  0
    3.6190    3.3820    3.3620 O   0  0  0  0  0  0  0  0  0  0  0  0
    3.5170    2.4100    2.3440 C   0  0  0  0  0  0  0  0  0  0  0  0
    4.5620    1.6590    1.9980 N   0  0  0  0  0  0  0  0  0  0  0  0
    4.4660    0.7450    1.0470 C   0  0  0  0  0  0  0  0  0  0  0  0
    3.2800    0.5300    0.3770 C   0  0  0  0  0  0  0  0  0  0  0  0
    3.1590   -0.5130   -0.6790 C   0  0  0  0  0  0  0  0  0  0  0  0
    4.6710   -1.4200   -0.9230 S   0  0  2  0  0  0  0  0  0  0  0  0
    5.1390   -2.2730    0.5860 C   0  0  0  0  0  0  0  0  0  0  0  0
    5.7720   -0.6150   -1.4950 O   0  0  0  0  0  0  0  0  0  0  0  0
    4.3500   -2.5290   -1.9240 O   0  0  0  0  0  0  0  0  0  0  0  0
    2.1660    1.2630    0.6740 C   0  0  0  0  0  0  0  0  0  0  0  0
    0.8540    1.2140    0.0540 C   0  0  0  0  0  0  0  0  0  0  0  0
   -0.0890    0.1050    0.3940 C   0  0  0  0  0  0  0  0  0  0  0  0
   -1.3900    0.3970   -0.2250 N   0  0  0  0  0  0  0  0  0  0  0  0
   -2.3830   -0.5320   -0.5350 C   0  0  0  0  0  0  0  0  0  0  0  0
   -2.1760   -1.8690   -0.3980 N   0  0  0  0  0  0  0  0  0  0  0  0
   -3.1030   -2.7710   -0.7410 C   0  0  0  0  0  0  0  0  0  0  0  0
   -2.8750   -4.2600   -0.6140 C   0  0  0  0  0  0  0  0  0  0  0  0
   -4.2970   -2.3390   -1.2470 N   0  0  0  0  0  0  0  0  0  0  0  0
   -4.5770   -1.0360   -1.4140 C   0  0  0  0  0  0  0  0  0  0  0  0
   -3.5940   -0.1460   -1.0460 C   0  0  0  0  0  0  0  0  0  0  0  0
   -4.0880    1.2400   -1.2900 C   0  0  0  0  0  0  0  0  0  0  0  0
   -5.4240    1.0520   -1.9240 C   0  0  0  0  0  0  0  0  0  0  0  0
   -5.7280   -0.3630   -1.9150 N   0  0  0  0  0  0  0  0  0  0  0  0
   -6.9710   -1.0020   -2.3490 C   0  0  0  0  0  0  0  0  0  0  0  0
    2.3250    2.2390    1.7100 C   0  0  0  0  0  0  0  0  0  0  0  0
    1.1820    3.0230    2.0070 C   0  0  0  0  0  0  0  0  0  0  0  0
    0.2220    3.6670    2.2720 N   0  0  0  0  0  0  0  0  0  0  0  0
  1  2  1  0
  2  3  1  0
  3  4  2  0
  3 27  1  0
  4  5  1  0
  5  6  2  0
  6  7  1  0
  6 12  1  0
  7  8  1  0
  8  9  1  1
  8 10  2  0
  8 11  2  0
 12 13  1  0
 12 27  2  0
 13 14  1  0
 14 15  1  0
 15 16  1  0
 16 17  2  0
 16 22  1  0
 17 18  1  0
 18 19  1  0
 18 20  2  0
 20 21  1  0
 21 22  2  0
 21 25  1  0
 22 23  1  0
 23 24  1  0
 24 25  1  0
 25 26  1  0
 27 28  1  0
 28 29  3  0
M  END
