
     RDKit          3D

 31 34  0  0  0  0  0  0  0  0999 V2000
    7.1720    2.6940   -1.2640 C   0  0  0  0  0  0  0  0  0  0  0  0
    5.3810    2.7100   -1.2660 S   0  0  0  0  0  0  0  0  0  0  0  0
    4.7820    1.1190   -0.7090 C   0  0  0  0  0  0  0  0  0  0  0  0
    5.6830    0.1430   -0.3690 C   0  0  0  0  0  0  0  0  0  0  0  0
    5.2220   -1.0780    0.0580 C   0  0  0  0  0  0  0  0  0  0  0  0
    3.8590   -1.3190    0.1440 C   0  0  0  0  0  0  0  0  0  0  0  0
    3.3740   -2.9380    0.6770 Cl  0  0  0  0  0  0  0  0  0  0  0  0
    2.9390   -0.3530   -0.1900 C   0  0  0  0  0  0  0  0  0  0  0  0
    1.5890   -0.5840   -0.1090 O   0  0  0  0  0  0  0  0  0  0  0  0
    0.9920   -0.8470    1.1140 C   0  0  0  0  0  0  0  0  0  0  0  0
    1.7310   -0.8220    2.2980 C   0  0  0  0  0  0  0  0  0  0  0  0
    1.0660   -1.0990    3.4970 C   0  0  0  0  0  0  0  0  0  0  0  0
   -0.2780   -1.3870    3.5100 C   0  0  0  0  0  0  0  0  0  0  0  0
   -0.9860   -1.4050    2.3280 C   0  0  0  0  0  0  0  0  0  0  0  0
   -0.3560   -1.1340    1.1150 C   0  0  0  0  0  0  0  0  0  0  0  0
   -1.0420   -1.1410   -0.1270 N   0  0  0  0  0  0  0  0  0  0  0  0
   -1.8300   -0.1440   -0.5910 C   0  0  0  0  0  0  0  0  0  0  0  0
   -2.1450    1.1500    0.0640 C   0  0  0  0  0  0  0  0  0  0  0  0
   -3.1870    1.8240   -0.5920 O   0  0  0  0  0  0  0  0  0  0  0  0
   -4.4460    1.2870   -0.7010 C   0  0  0  0  0  0  0  0  0  0  0  0
   -5.4650    1.9730   -1.3710 C   0  0  0  0  0  0  0  0  0  0  0  0
   -6.7150    1.4580   -1.4870 C   0  0  0  0  0  0  0  0  0  0  0  0
   -7.0190    0.2350   -0.9440 C   0  0  0  0  0  0  0  0  0  0  0  0
   -8.2570   -0.3100   -1.0420 F   0  0  0  0  0  0  0  0  0  0  0  0
   -6.0310   -0.4600   -0.2800 C   0  0  0  0  0  0  0  0  0  0  0  0
   -4.7610    0.0630   -0.1610 C   0  0  0  0  0  0  0  0  0  0  0  0
   -2.3160   -0.4920   -1.8010 N   0  0  0  0  0  0  0  0  0  0  0  0
   -1.8380   -1.6920   -2.0900 N   0  0  0  0  0  0  0  0  0  0  0  0
   -1.0610   -2.0910   -1.0710 C   0  0  0  0  0  0  0  0  0  0  0  0
   -0.4500   -3.1700   -1.0060 O   0  0  0  0  0  0  0  0  0  0  0  0
    3.4100    0.8640   -0.6170 C   0  0  0  0  0  0  0  0  0  0  0  0
  1  2  1  0
  2  3  1  0
  3  4  2  0
  3 31  1  0
  4  5  1  0
  5  6  2  0
  6  7  1  0
  6  8  1  0
  8  9  1  0
  8 31  2  0
  9 10  1  0
 10 11  2  0
 10 15  1  0
 11 12  1  0
 12 13  2  0
 13 14  1  0
 14 15  2  0
 15 16  1  0
 16 17  1  0
 16 29  1  0
 17 18  1  0
 17 27  2  0
 18 19  1  0
 19 20  1  0
 20 21  2  0
 20 26  1  0
 21 22  1  0
 22 23  2  0
 23 24  1  0
 23 25  1  0
 25 26  2  0
 27 28  1  0
 28 29  1  0
 29 30  2  0
M  END
