
     RDKit          3D

 29 31  0  0  0  0  0  0  0  0999 V2000
    7.3240    3.4100   -0.2070 C   0  0  0  0  0  0  0  0  0  0  0  0
    6.5460    2.4730   -1.0970 C   0  0  0  0  0  0  0  0  0  0  0  0
    6.9150    1.0210   -0.8490 C   0  0  1  0  0  0  0  0  0  0  0  0
    6.6050    0.6800    0.6150 C   0  0  0  0  0  0  0  0  0  0  0  0
    5.2370    0.3550    0.4740 O   0  0  0  0  0  0  0  0  0  0  0  0
    5.0240   -0.1700   -0.7820 C   0  0  0  0  0  0  0  0  0  0  0  0
    3.8750   -1.0260   -1.1730 C   0  0  0  0  0  0  0  0  0  0  0  0
    2.9190   -1.4020   -0.4070 C   0  0  0  0  0  0  0  0  0  0  0  0
    1.5520   -2.4540   -0.9800 S   0  0  0  0  0  0  0  0  0  0  0  0
    0.7230   -2.4940    0.6090 C   0  0  0  0  0  0  0  0  0  0  0  0
   -0.4990   -3.2150    0.8070 N   0  0  0  0  0  0  0  0  0  0  0  0
   -0.5860   -4.5180    1.0050 N   0  0  0  0  0  0  0  0  0  0  0  0
   -1.8780   -4.8790    1.1560 C   0  0  0  0  0  0  0  0  0  0  0  0
   -2.3330   -6.2750    1.3950 C   0  0  0  0  0  0  0  0  0  0  0  0
   -2.5850   -3.7480    1.0430 N   0  0  0  0  0  0  0  0  0  0  0  0
   -1.7300   -2.7130    0.8260 C   0  0  0  0  0  0  0  0  0  0  0  0
   -2.1560   -1.2980    0.6510 C   0  0  0  0  0  0  0  0  0  0  0  0
   -2.4050   -1.0310   -0.8200 C   0  0  0  0  0  0  0  0  0  0  0  0
   -2.8200    0.3130   -1.0730 N   0  0  0  0  0  0  0  0  0  0  0  0
   -4.0020    0.8850   -0.5090 C   0  0  0  0  0  0  0  0  0  0  0  0
   -4.7360    0.2030    0.2490 O   0  0  0  0  0  0  0  0  0  0  0  0
   -4.4000    2.2850   -0.7950 C   0  0  0  0  0  0  0  0  0  0  0  0
   -5.6720    2.6030   -0.0720 C   0  0  1  0  0  0  0  0  0  0  0  0
   -6.0580    4.0490   -0.3840 C   0  0  0  0  0  0  0  0  0  0  0  0
   -6.7770    1.6550   -0.4180 C   0  0  0  0  0  0  0  0  0  0  0  0
    1.4150   -1.8090    1.3900 N   0  0  0  0  0  0  0  0  0  0  0  0
    2.5820   -1.1960    0.9550 C   0  0  0  0  0  0  0  0  0  0  0  0
    3.2880   -0.4930    1.7660 O   0  0  0  0  0  0  0  0  0  0  0  0
    5.9790    0.2070   -1.5430 N   0  0  0  0  0  0  0  0  0  0  0  0
  1  2  1  0
  3  2  1  1
  3  4  1  0
  3 29  1  0
  4  5  1  0
  5  6  1  0
  6  7  1  0
  6 29  2  0
  7  8  2  3
  8  9  1  0
  8 27  1  0
  9 10  1  0
 10 11  1  0
 10 26  2  0
 11 12  1  0
 11 16  1  0
 12 13  2  0
 13 14  1  0
 13 15  1  0
 15 16  2  0
 16 17  1  0
 17 18  1  0
 18 19  1  0
 19 20  1  0
 20 21  2  0
 20 22  1  0
 22 23  1  0
 23 24  1  6
 23 25  1  0
 26 27  1  0
 27 28  2  0
M  END
