
     RDKit          3D

 18 20  0  0  0  0  0  0  0  0999 V2000
   -3.7640   -1.2310    0.2150 C   0  0  0  0  0  0  0  0  0  0  0  0
   -2.6460   -0.4970   -0.5370 C   0  0  2  0  0  0  0  0  0  0  0  0
   -1.4810   -1.3050   -0.4490 N   0  0  0  0  0  0  0  0  0  0  0  0
   -0.3790   -0.8810    0.0620 C   0  0  0  0  0  0  0  0  0  0  0  0
    0.6630   -1.8680    0.0450 N   0  0  0  0  0  0  0  0  0  0  0  0
    2.0250   -1.6460    0.2650 N   0  0  0  0  0  0  0  0  0  0  0  0
    2.7250   -0.3900    0.3920 C   0  0  0  0  0  0  0  0  0  0  0  0
    2.2480    0.8310    0.5580 C   0  0  0  0  0  0  0  0  0  0  0  0
    3.2970    1.7380    0.6300 O   0  0  0  0  0  0  0  0  0  0  0  0
    4.5130    1.0860    0.5070 C   0  0  0  0  0  0  0  0  0  0  0  0
    5.6650    1.6200    0.5310 O   0  0  0  0  0  0  0  0  0  0  0  0
    4.2040   -0.3530    0.3440 C   0  0  0  0  0  0  0  0  0  0  0  0
    0.8590    1.2670    0.6600 C   0  0  0  0  0  0  0  0  0  0  0  0
    0.6220    2.4920    0.8500 O   0  0  0  0  0  0  0  0  0  0  0  0
   -0.2890    0.4450    0.5690 N   0  0  0  0  0  0  0  0  0  0  0  0
   -1.5040    1.0650    1.0600 C   0  0  0  0  0  0  0  0  0  0  0  0
   -2.5590    0.8720    0.0270 C   0  0  1  0  0  0  0  0  0  0  0  0
   -2.3070    1.7940   -1.0100 O   0  0  0  0  0  0  0  0  0  0  0  0
  2  1  1  1
  2  3  1  0
  2 17  1  0
  3  4  2  0
  4  5  1  0
  4 15  1  0
  5  6  1  0
  6  7  1  0
  7  8  2  0
  7 12  1  0
  8  9  1  0
  8 13  1  0
  9 10  1  0
 10 11  2  0
 10 12  1  0
 13 14  2  0
 13 15  1  0
 15 16  1  0
 16 17  1  0
 17 18  1  6
M  END
