
     RDKit          3D

 18 19  0  0  0  0  0  0  0  0999 V2000
   -5.4380   -0.5100   -0.2830 C   0  0  0  0  0  0  0  0  0  0  0  0
   -4.1600   -0.3330   -0.8420 N   0  0  0  0  0  0  0  0  0  0  0  0
   -3.1920    0.3370    0.0670 C   0  0  2  0  0  0  0  0  0  0  0  0
   -3.6580    1.7720    0.3370 C   0  0  0  0  0  0  0  0  0  0  0  0
   -1.9090    0.2250   -0.5640 C   0  0  0  0  0  0  0  0  0  0  0  0
   -1.4070    0.3390   -1.5820 O   0  0  0  0  0  0  0  0  0  0  0  0
   -0.7450   -0.2890    0.6630 N   0  0  0  0  0  0  0  0  0  0  0  0
    0.2170   -0.6260   -0.2330 C   0  0  0  0  0  0  0  0  0  0  0  0
    0.5400   -0.9510   -1.3070 O   0  0  0  0  0  0  0  0  0  0  0  0
    1.5260   -0.5010    0.6190 N   0  0  0  0  0  0  0  0  0  0  0  0
    2.7640   -0.5480    0.1220 C   0  0  0  0  0  0  0  0  0  0  0  0
    3.8410   -0.4740    0.8890 C   0  0  0  0  0  0  0  0  0  0  0  0
    4.6850   -0.3680    2.0320 N   0  0  0  0  0  0  0  0  0  0  0  0
    5.5550    0.4530    1.1460 C   0  0  0  0  0  0  0  0  0  0  0  0
    5.0950   -0.4950    0.0740 C   0  0  2  0  0  0  0  0  0  0  0  0
    4.6730   -0.0430   -1.1460 O   0  0  0  0  0  0  0  0  0  0  0  0
    3.3340   -0.2720   -1.2510 C   0  0  0  0  0  0  0  0  0  0  0  0
    2.6620   -0.2410   -2.2790 O   0  0  0  0  0  0  0  0  0  0  0  0
  1  2  1  0
  2  3  1  0
  3  4  1  6
  3  5  1  0
  5  6  2  0
  5  7  1  0
  7  8  1  0
  8  9  2  0
  8 10  1  0
 10 11  1  0
 11 12  2  0
 11 17  1  0
 12 13  1  0
 12 15  1  0
 13 14  1  0
 15 14  1  1
 15 16  1  0
 16 17  1  0
 17 18  2  0
M  END
