
     RDKit          3D

 18 19  0  0  0  0  0  0  0  0999 V2000
    5.2990    0.3540   -0.1540 C   0  0  0  0  0  0  0  0  0  0  0  0
    4.0060   -0.0890    0.2170 O   0  0  0  0  0  0  0  0  0  0  0  0
    2.8610    0.2450   -0.4550 C   0  0  0  0  0  0  0  0  0  0  0  0
    2.9130    0.9800   -1.4570 O   0  0  0  0  0  0  0  0  0  0  0  0
    1.5830   -0.2640    0.0090 C   0  0  0  0  0  0  0  0  0  0  0  0
    0.4470    0.0360   -0.6150 C   0  0  0  0  0  0  0  0  0  0  0  0
   -0.8130   -0.4530   -0.1750 N   0  0  0  0  0  0  0  0  0  0  0  0
   -2.1360    0.0530   -0.3030 C   0  0  0  0  0  0  0  0  0  0  0  0
   -2.5480    1.1830   -1.1320 C   0  0  0  0  0  0  0  0  0  0  0  0
   -3.8810    1.6290   -1.2100 N   0  0  0  0  0  0  0  0  0  0  0  0
   -1.6640    1.8090   -1.8270 N   0  0  0  0  0  0  0  0  0  0  0  0
   -1.9530    2.8750   -2.6290 O   0  0  0  0  0  0  0  0  0  0  0  0
   -2.9650   -0.6750    0.4620 C   0  0  0  0  0  0  0  0  0  0  0  0
   -2.2100   -1.7420    1.1660 C   0  0  0  0  0  0  0  0  0  0  0  0
   -0.8490   -1.7150    0.5600 C   0  0  2  0  0  0  0  0  0  0  0  0
    0.2280   -1.6070    1.6060 C   0  0  0  0  0  0  0  0  0  0  0  0
    0.0310   -1.9360    2.8000 O   0  0  0  0  0  0  0  0  0  0  0  0
    1.4820   -1.1070    1.1510 N   0  0  0  0  0  0  0  0  0  0  0  0
  1  2  1  0
  2  3  1  0
  3  4  2  0
  3  5  1  0
  5  6  2  0
  5 18  1  0
  6  7  1  0
  7  8  1  0
  7 15  1  0
  8  9  1  0
  8 13  2  0
  9 10  1  0
  9 11  2  3
 11 12  1  0
 13 14  1  0
 15 14  1  1
 15 16  1  0
 16 17  2  0
 16 18  1  0
M  END
