
     RDKit          3D

 18 19  0  0  0  0  0  0  0  0999 V2000
    4.4300    1.8550    0.1060 C   0  0  0  0  0  0  0  0  0  0  0  0
    4.4470    0.9300   -0.9410 O   0  0  0  0  0  0  0  0  0  0  0  0
    4.2280   -0.3630   -0.5280 C   0  0  0  0  0  0  0  0  0  0  0  0
    2.8790   -0.5120    0.0540 C   0  0  0  0  0  0  0  0  0  0  0  0
    2.6910   -0.5110    1.2960 O   0  0  0  0  0  0  0  0  0  0  0  0
    1.7700   -0.6680   -0.7810 N   0  0  0  0  0  0  0  0  0  0  0  0
    0.4390   -0.8400   -0.4070 N   0  0  0  0  0  0  0  0  0  0  0  0
   -0.0130   -1.7070    0.6060 C   0  0  0  0  0  0  0  0  0  0  0  0
    0.8690   -2.3550    1.2270 O   0  0  0  0  0  0  0  0  0  0  0  0
   -1.4060   -1.9390    1.0160 C   0  0  0  0  0  0  0  0  0  0  0  0
   -2.4110   -1.2050    0.3290 N   0  0  0  0  0  0  0  0  0  0  0  0
   -3.5320   -1.7850   -0.3530 C   0  0  0  0  0  0  0  0  0  0  0  0
   -4.3010   -0.8730   -0.8240 N   0  0  0  0  0  0  0  0  0  0  0  0
   -3.8640    0.3960   -0.5240 C   0  0  2  0  0  0  0  0  0  0  0  0
   -3.5380    1.4160   -1.3370 O   0  0  0  0  0  0  0  0  0  0  0  0
   -3.1200    2.3350   -0.2530 C   0  0  0  0  0  0  0  0  0  0  0  0
   -2.1370    1.4060    0.4290 C   0  0  0  0  0  0  0  0  0  0  0  0
   -2.5410    0.1790    0.2050 C   0  0  0  0  0  0  0  0  0  0  0  0
  1  2  1  0
  2  3  1  0
  3  4  1  0
  4  5  2  0
  4  6  1  0
  6  7  1  0
  7  8  1  0
  8  9  2  0
  8 10  1  0
 10 11  1  0
 11 12  1  0
 11 18  1  0
 12 13  2  0
 13 14  1  0
 14 15  1  6
 14 18  1  0
 15 16  1  0
 16 17  1  0
 17 18  2  0
M  END
