
     RDKit          3D

 17 18  0  0  0  0  0  0  0  0999 V2000
    2.0500    0.7440   -1.8260 C   0  0  0  0  0  0  0  0  0  0  0  0
    1.7910    0.0070   -0.4590 C   0  0  2  0  0  0  0  0  0  0  0  0
    0.4490    0.1760   -0.1970 O   0  0  0  0  0  0  0  0  0  0  0  0
   -0.4280   -0.6570   -0.9320 C   0  0  0  0  0  0  0  0  0  0  0  0
    0.0620   -1.4740   -1.7360 O   0  0  0  0  0  0  0  0  0  0  0  0
   -1.8670   -0.5520   -0.7850 C   0  0  1  0  0  0  0  0  0  0  0  0
   -2.5860   -1.6190   -0.1100 C   0  0  0  0  0  0  0  0  0  0  0  0
   -3.0230   -1.2340    1.1430 O   0  0  0  0  0  0  0  0  0  0  0  0
   -3.8850   -0.1540    1.0760 C   0  0  0  0  0  0  0  0  0  0  0  0
   -3.7690    0.6260   -0.1740 C   0  0  0  0  0  0  0  0  0  0  0  0
   -2.3790    0.7970   -0.6280 N   0  0  0  0  0  0  0  0  0  0  0  0
    2.8200    0.3700    0.4780 C   0  0  0  0  0  0  0  0  0  0  0  0
    3.8480    1.2300    0.2110 N   0  0  0  0  0  0  0  0  0  0  0  0
    4.6890    1.2070    1.1760 N   0  0  0  0  0  0  0  0  0  0  0  0
    4.3140    0.3920    2.1340 C   0  0  0  0  0  0  0  0  0  0  0  0
    4.8870    0.1490    3.1710 O   0  0  0  0  0  0  0  0  0  0  0  0
    3.1250   -0.1400    1.7000 N   0  0  0  0  0  0  0  0  0  0  0  0
  2  1  1  6
  2  3  1  0
  2 12  1  0
  3  4  1  0
  4  5  2  0
  6  4  1  1
  6  7  1  0
  6 11  1  0
  7  8  1  0
  8  9  1  0
  9 10  1  0
 10 11  1  0
 12 13  2  0
 12 17  1  0
 13 14  1  0
 14 15  1  0
 15 16  2  0
 15 17  1  0
M  END
