
     RDKit          3D

 26 28  0  0  0  0  0  0  0  0999 V2000
   -7.5270   -0.5150   -0.3890 C   0  0  0  0  0  0  0  0  0  0  0  0
   -6.1650    0.0580   -0.3760 C   0  0  0  0  0  0  0  0  0  0  0  0
   -5.2950   -0.2360    0.5750 C   0  0  0  0  0  0  0  0  0  0  0  0
   -5.7170   -1.1700    1.6510 C   0  0  0  0  0  0  0  0  0  0  0  0
   -3.9860    0.3020    0.6060 N   0  0  0  0  0  0  0  0  0  0  0  0
   -3.2350    0.7150    1.7730 C   0  0  0  0  0  0  0  0  0  0  0  0
   -1.8050    0.6000    1.2870 C   0  0  0  0  0  0  0  0  0  0  0  0
   -1.9200    1.1290   -0.1120 C   0  0  1  0  0  0  0  0  0  0  0  0
   -2.0960    2.5250    0.0050 O   0  0  0  0  0  0  0  0  0  0  0  0
   -0.7020    0.8420   -0.9520 C   0  0  0  0  0  0  0  0  0  0  0  0
   -0.4050   -0.6040   -1.1010 C   0  0  0  0  0  0  0  0  0  0  0  0
    0.8270   -0.7890   -1.9480 C   0  0  0  0  0  0  0  0  0  0  0  0
    2.0190   -0.1790   -1.4100 N   0  0  0  0  0  0  0  0  0  0  0  0
    2.4770    1.0580   -1.6590 C   0  0  0  0  0  0  0  0  0  0  0  0
    1.8960    2.1170   -2.5630 C   0  0  0  0  0  0  0  0  0  0  0  0
    3.6470    1.2450   -0.9320 C   0  0  0  0  0  0  0  0  0  0  0  0
    3.9120    0.0960   -0.2240 C   0  0  0  0  0  0  0  0  0  0  0  0
    5.0190   -0.1940    0.6770 C   0  0  0  0  0  0  0  0  0  0  0  0
    5.7090   -1.3810    0.6210 C   0  0  0  0  0  0  0  0  0  0  0  0
    6.7610   -1.6450    1.4840 C   0  0  0  0  0  0  0  0  0  0  0  0
    7.1370   -0.7020    2.4290 C   0  0  0  0  0  0  0  0  0  0  0  0
    6.4610    0.4800    2.4960 C   0  0  0  0  0  0  0  0  0  0  0  0
    5.4040    0.7300    1.6190 C   0  0  0  0  0  0  0  0  0  0  0  0
    2.8690   -0.7770   -0.5480 C   0  0  0  0  0  0  0  0  0  0  0  0
    2.7690   -2.1510    0.0020 C   0  0  0  0  0  0  0  0  0  0  0  0
   -3.1850    0.5180   -0.6100 C   0  0  0  0  0  0  0  0  0  0  0  0
  1  2  1  0
  2  3  2  3
  3  4  1  0
  3  5  1  0
  5  6  1  0
  5 26  1  0
  6  7  1  0
  7  8  1  0
  8  9  1  1
  8 10  1  0
  8 26  1  0
 10 11  1  0
 11 12  1  0
 12 13  1  0
 13 14  1  0
 13 24  1  0
 14 15  1  0
 14 16  2  0
 16 17  1  0
 17 18  1  0
 17 24  2  0
 18 19  2  0
 18 23  1  0
 19 20  1  0
 20 21  2  0
 21 22  1  0
 22 23  2  0
 24 25  1  0
M  END
