
     RDKit          3D

 26 28  0  0  0  0  0  0  0  0999 V2000
   -5.9830    1.1470    1.7510 C   0  0  0  0  0  0  0  0  0  0  0  0
   -5.6250   -0.0940    1.6290 C   0  0  0  0  0  0  0  0  0  0  0  0
   -4.6040   -0.7140    0.8280 C   0  0  0  0  0  0  0  0  0  0  0  0
   -4.4460   -2.0430    1.0230 C   0  0  0  0  0  0  0  0  0  0  0  0
   -5.2630   -2.7810    1.9880 C   0  0  0  0  0  0  0  0  0  0  0  0
   -3.6700   -0.0520   -0.0610 C   0  0  0  0  0  0  0  0  0  0  0  0
   -2.3140   -0.4790    0.0150 C   0  0  0  0  0  0  0  0  0  0  0  0
   -1.3620    0.0490   -0.8300 C   0  0  0  0  0  0  0  0  0  0  0  0
    0.0310   -0.3770   -0.6220 C   0  0  0  0  0  0  0  0  0  0  0  0
    0.2330   -1.6440   -0.5590 O   0  0  0  0  0  0  0  0  0  0  0  0
    1.1280    0.4700   -0.4810 N   0  0  0  0  0  0  0  0  0  0  0  0
    2.4710    0.0630   -0.2920 C   0  0  0  0  0  0  0  0  0  0  0  0
    2.9940   -1.1650   -0.5430 C   0  0  0  0  0  0  0  0  0  0  0  0
    4.3350   -1.4460   -0.2710 C   0  0  0  0  0  0  0  0  0  0  0  0
    5.1840   -0.4870    0.2640 C   0  0  0  0  0  0  0  0  0  0  0  0
    4.6280    0.7490    0.5100 C   0  0  0  0  0  0  0  0  0  0  0  0
    3.3270    1.0410    0.2510 C   0  0  0  0  0  0  0  0  0  0  0  0
    5.6990    1.6220    1.0980 C   0  0  0  0  0  0  0  0  0  0  0  0
    6.9510    0.9460    0.6120 C   0  0  0  0  0  0  0  0  0  0  0  0
    6.5580   -0.4570    0.6330 N   0  0  0  0  0  0  0  0  0  0  0  0
    7.3780   -1.5930    0.9510 C   0  0  0  0  0  0  0  0  0  0  0  0
   -1.6990    0.9890   -1.7590 C   0  0  0  0  0  0  0  0  0  0  0  0
   -0.7040    1.5300   -2.6970 C   0  0  0  0  0  0  0  0  0  0  0  0
   -3.0280    1.4160   -1.8500 C   0  0  0  0  0  0  0  0  0  0  0  0
   -3.9990    0.8760   -0.9860 C   0  0  0  0  0  0  0  0  0  0  0  0
   -5.4060    1.2560   -1.2800 C   0  0  0  0  0  0  0  0  0  0  0  0
  1  2  2  0
  2  3  1  0
  3  4  2  3
  3  6  1  0
  4  5  1  0
  6  7  2  0
  6 25  1  0
  7  8  1  0
  8  9  1  0
  8 22  2  0
  9 10  2  0
  9 11  1  0
 11 12  1  0
 12 13  2  0
 12 17  1  0
 13 14  1  0
 14 15  2  0
 15 16  1  0
 15 20  1  0
 16 17  2  0
 16 18  1  0
 18 19  1  0
 19 20  1  0
 20 21  1  0
 22 23  1  0
 22 24  1  0
 24 25  2  0
 25 26  1  0
M  END
