
     RDKit          3D

 26 28  0  0  0  0  0  0  0  0999 V2000
    6.9000    0.3210   -0.9240 C   0  0  0  0  0  0  0  0  0  0  0  0
    5.4790   -0.0790   -1.0560 C   0  0  0  0  0  0  0  0  0  0  0  0
    5.0620   -0.8940   -2.0940 C   0  0  0  0  0  0  0  0  0  0  0  0
    3.7440   -1.2740   -2.2430 C   0  0  0  0  0  0  0  0  0  0  0  0
    2.7780   -0.8380   -1.3330 C   0  0  0  0  0  0  0  0  0  0  0  0
    1.3530   -1.2490   -1.5060 C   0  0  0  0  0  0  0  0  0  0  0  0
    3.1730   -0.0280   -0.2960 C   0  0  0  0  0  0  0  0  0  0  0  0
    2.2100    0.4320    0.6400 N   0  0  0  0  0  0  0  0  0  0  0  0
    1.5260    1.6860    0.5680 C   0  0  0  0  0  0  0  0  0  0  0  0
    0.0290    1.6110    0.4240 C   0  0  0  0  0  0  0  0  0  0  0  0
   -0.6510    0.9060    1.5300 C   0  0  0  0  0  0  0  0  0  0  0  0
   -0.1300    0.9960    2.7780 C   0  0  0  0  0  0  0  0  0  0  0  0
   -0.7540    0.3530    3.8150 C   0  0  0  0  0  0  0  0  0  0  0  0
   -1.8860   -0.3710    3.6070 C   0  0  0  0  0  0  0  0  0  0  0  0
   -2.4060   -0.4520    2.3060 C   0  0  0  0  0  0  0  0  0  0  0  0
   -3.6050   -1.3220    2.1800 C   0  0  0  0  0  0  0  0  0  0  0  0
   -1.8310    0.1680    1.2280 C   0  0  0  0  0  0  0  0  0  0  0  0
   -2.2680    0.1040   -0.1650 C   0  0  0  0  0  0  0  0  0  0  0  0
   -3.5070   -0.4830   -0.5070 N   0  0  0  0  0  0  0  0  0  0  0  0
   -4.6660    0.3280   -0.1690 C   0  0  0  0  0  0  0  0  0  0  0  0
   -5.3570    0.8440   -1.4320 C   0  0  0  0  0  0  0  0  0  0  0  0
   -5.9220   -0.2060   -2.1450 O   0  0  0  0  0  0  0  0  0  0  0  0
   -5.0020   -1.2220   -2.2560 C   0  0  0  0  0  0  0  0  0  0  0  0
   -3.5940   -0.7790   -1.9340 C   0  0  0  0  0  0  0  0  0  0  0  0
    4.5090    0.3320   -0.1810 C   0  0  0  0  0  0  0  0  0  0  0  0
    4.9080    1.2320    0.9570 C   0  0  0  0  0  0  0  0  0  0  0  0
  1  2  1  0
  2  3  2  0
  2 25  1  0
  3  4  1  0
  4  5  2  0
  5  6  1  0
  5  7  1  0
  7  8  1  0
  7 25  2  0
  8  9  1  0
  9 10  1  0
 10 11  1  0
 11 12  2  0
 11 17  1  0
 12 13  1  0
 13 14  2  0
 14 15  1  0
 15 16  1  0
 15 17  2  0
 17 18  1  0
 18 19  1  0
 19 20  1  0
 19 24  1  0
 20 21  1  0
 21 22  1  0
 22 23  1  0
 23 24  1  0
 25 26  1  0
M  END
