
     RDKit          3D

 26 28  0  0  0  0  0  0  0  0999 V2000
   -6.0410    1.8370   -0.5470 C   0  0  0  0  0  0  0  0  0  0  0  0
   -5.3460    1.1610    0.3700 C   0  0  0  0  0  0  0  0  0  0  0  0
   -6.0930    0.1110    1.0990 C   0  0  0  0  0  0  0  0  0  0  0  0
   -5.3640   -0.4950    2.2130 C   0  0  0  0  0  0  0  0  0  0  0  0
   -4.1320   -0.1740    2.4840 C   0  0  0  0  0  0  0  0  0  0  0  0
   -3.3990    0.8110    1.7090 C   0  0  0  0  0  0  0  0  0  0  0  0
   -3.9740    1.4540    0.6790 C   0  0  0  0  0  0  0  0  0  0  0  0
   -3.1770    2.4280   -0.0640 C   0  0  0  0  0  0  0  0  0  0  0  0
   -2.8840    2.1290   -1.4860 C   0  0  0  0  0  0  0  0  0  0  0  0
   -2.1460    0.8840   -1.6580 N   0  0  0  0  0  0  0  0  0  0  0  0
   -0.8720    0.6430   -1.1010 C   0  0  0  0  0  0  0  0  0  0  0  0
   -0.3370    1.5380   -0.4200 O   0  0  0  0  0  0  0  0  0  0  0  0
   -0.2030   -0.6270   -1.3200 C   0  0  2  0  0  0  0  0  0  0  0  0
   -1.1030   -1.7280   -0.7520 C   0  0  0  0  0  0  0  0  0  0  0  0
   -0.1310   -2.8200   -0.4640 C   0  0  0  0  0  0  0  0  0  0  0  0
    1.1660   -2.0710   -0.1270 C   0  0  0  0  0  0  0  0  0  0  0  0
    1.0670   -0.7860   -0.7300 N   0  0  0  0  0  0  0  0  0  0  0  0
    2.1850   -0.3520   -1.4860 C   0  0  0  0  0  0  0  0  0  0  0  0
    3.4370   -0.2540   -0.6930 C   0  0  0  0  0  0  0  0  0  0  0  0
    3.7170    0.8810    0.0410 C   0  0  0  0  0  0  0  0  0  0  0  0
    4.8900    1.0000    0.7950 C   0  0  0  0  0  0  0  0  0  0  0  0
    5.2060    2.1950    1.5810 C   0  0  0  0  0  0  0  0  0  0  0  0
    5.7860   -0.0490    0.8000 C   0  0  0  0  0  0  0  0  0  0  0  0
    5.5260   -1.1940    0.0720 C   0  0  0  0  0  0  0  0  0  0  0  0
    6.4920   -2.3160    0.0800 C   0  0  0  0  0  0  0  0  0  0  0  0
    4.3600   -1.2760   -0.6600 C   0  0  0  0  0  0  0  0  0  0  0  0
  1  2  2  0
  2  3  1  0
  2  7  1  0
  3  4  1  0
  4  5  2  0
  5  6  1  0
  6  7  2  0
  7  8  1  0
  8  9  1  0
  9 10  1  0
 10 11  1  0
 11 12  2  0
 13 11  1  1
 13 14  1  0
 13 17  1  0
 14 15  1  0
 15 16  1  0
 16 17  1  0
 17 18  1  0
 18 19  1  0
 19 20  2  0
 19 26  1  0
 20 21  1  0
 21 22  1  0
 21 23  2  0
 23 24  1  0
 24 25  1  0
 24 26  2  0
M  END
