
     RDKit          3D

 26 28  0  0  0  0  0  0  0  0999 V2000
   -7.8430    1.7300   -0.4380 C   0  0  0  0  0  0  0  0  0  0  0  0
   -6.4490    1.3680   -0.7310 C   0  0  0  0  0  0  0  0  0  0  0  0
   -5.8100    0.5450    0.0770 C   0  0  0  0  0  0  0  0  0  0  0  0
   -6.5040   -0.0040    1.2680 C   0  0  0  0  0  0  0  0  0  0  0  0
   -5.5740   -0.7290    2.1900 C   0  0  0  0  0  0  0  0  0  0  0  0
   -4.6450   -1.6540    1.4280 C   0  0  0  0  0  0  0  0  0  0  0  0
   -3.8780   -0.8780    0.4440 C   0  0  0  0  0  0  0  0  0  0  0  0
   -2.5720   -1.1870    0.1430 C   0  0  0  0  0  0  0  0  0  0  0  0
   -1.8410   -0.4540   -0.7880 C   0  0  0  0  0  0  0  0  0  0  0  0
   -0.4510   -0.8170   -1.0730 C   0  0  0  0  0  0  0  0  0  0  0  0
    0.1000   -1.6140   -0.2960 O   0  0  0  0  0  0  0  0  0  0  0  0
    0.2690   -0.3050   -2.1760 N   0  0  0  0  0  0  0  0  0  0  0  0
    1.6080   -0.5320   -2.5710 C   0  0  0  0  0  0  0  0  0  0  0  0
    2.7410   -0.0420   -1.7650 C   0  0  0  0  0  0  0  0  0  0  0  0
    2.8420   -0.5510   -0.3920 C   0  0  0  0  0  0  0  0  0  0  0  0
    4.0800   -0.0060    0.3140 C   0  0  0  0  0  0  0  0  0  0  0  0
    4.9260   -0.9560    0.6740 C   0  0  0  0  0  0  0  0  0  0  0  0
    4.6230   -2.3790    0.3860 C   0  0  0  0  0  0  0  0  0  0  0  0
    6.2040   -0.6700    1.3670 C   0  0  0  0  0  0  0  0  0  0  0  0
    6.9580    0.4020    1.1950 C   0  0  0  0  0  0  0  0  0  0  0  0
    6.7210    1.5350    0.3020 C   0  0  0  0  0  0  0  0  0  0  0  0
    5.4040    2.1480    0.2370 C   0  0  0  0  0  0  0  0  0  0  0  0
    4.1670    1.4410    0.5240 C   0  0  0  0  0  0  0  0  0  0  0  0
   -2.4710    0.5840   -1.3910 C   0  0  0  0  0  0  0  0  0  0  0  0
   -3.7530    0.9210   -1.1230 N   0  0  0  0  0  0  0  0  0  0  0  0
   -4.4230    0.1920   -0.2210 C   0  0  0  0  0  0  0  0  0  0  0  0
  1  2  1  0
  2  3  2  3
  3  4  1  0
  3 26  1  0
  4  5  1  0
  5  6  1  0
  6  7  1  0
  7  8  2  0
  7 26  1  0
  8  9  1  0
  9 10  1  0
  9 24  2  0
 10 11  2  0
 10 12  1  0
 12 13  1  0
 13 14  1  0
 14 15  1  0
 15 16  1  0
 16 17  2  0
 16 23  1  0
 17 18  1  0
 17 19  1  0
 19 20  2  0
 20 21  1  0
 21 22  1  0
 22 23  1  0
 24 25  1  0
 25 26  2  0
M  END
