
     RDKit          3D

 31 33  0  0  0  0  0  0  0  0999 V2000
   -9.7250    0.6060   -1.2070 N   0  0  0  0  0  0  0  0  0  0  0  0
   -8.2980    0.7740   -1.2210 C   0  0  0  0  0  0  0  0  0  0  0  0
   -7.7170    1.4680   -2.1030 O   0  0  0  0  0  0  0  0  0  0  0  0
   -7.4820    0.1590   -0.2350 N   0  0  0  0  0  0  0  0  0  0  0  0
   -6.0440    0.2880   -0.1920 C   0  0  2  0  0  0  0  0  0  0  0  0
   -5.2950   -1.0090    0.0410 C   0  0  0  0  0  0  0  0  0  0  0  0
   -4.4760   -0.3350    1.0320 N   0  0  0  0  0  0  0  0  0  0  0  0
   -3.1730   -0.5340    1.5930 C   0  0  0  0  0  0  0  0  0  0  0  0
   -2.7440    0.2500    2.4570 O   0  0  0  0  0  0  0  0  0  0  0  0
   -2.3590   -1.5820    1.2060 O   0  0  0  0  0  0  0  0  0  0  0  0
   -1.0700   -1.7750    1.7640 C   0  0  0  0  0  0  0  0  0  0  0  0
   -0.2230   -0.6560    1.5300 O   0  0  0  0  0  0  0  0  0  0  0  0
    0.0870   -0.2370    0.2400 C   0  0  0  0  0  0  0  0  0  0  0  0
   -0.4470   -0.9340   -0.6900 O   0  0  0  0  0  0  0  0  0  0  0  0
    0.9600    0.9170   -0.0320 C   0  0  2  0  0  0  0  0  0  0  0  0
    1.0840    1.0730   -1.5600 C   0  0  0  0  0  0  0  0  0  0  0  0
    2.1010   -0.0000   -1.8500 C   0  0  0  0  0  0  0  0  0  0  0  0
    3.0600    0.1670   -0.7670 N   0  0  0  0  0  0  0  0  0  0  0  0
    4.4340   -0.1350   -0.9850 C   0  0  0  0  0  0  0  0  0  0  0  0
    4.7710   -0.5020   -2.1860 O   0  0  0  0  0  0  0  0  0  0  0  0
    5.5230   -0.0860   -0.0210 C   0  0  0  0  0  0  0  0  0  0  0  0
    6.7360   -0.3940   -0.4940 C   0  0  0  0  0  0  0  0  0  0  0  0
    7.9280   -0.3850    0.3630 C   0  0  1  0  0  0  0  0  0  0  0  0
    8.5290   -1.6540    0.2120 O   0  0  0  0  0  0  0  0  0  0  0  0
    9.0730    0.9270   -0.3260 P   0  0  0  0  0  0  0  0  0  0  0  0
    8.6350    2.4040   -0.1770 O   0  0  0  0  0  0  0  0  0  0  0  0
    7.6740   -0.0810    1.6780 O   0  0  0  0  0  0  0  0  0  0  0  0
    6.4510    0.2320    2.1680 C   0  0  0  0  0  0  0  0  0  0  0  0
    5.3700    0.2410    1.3710 C   0  0  0  0  0  0  0  0  0  0  0  0
    2.4210    0.6470    0.3830 C   0  0  0  0  0  0  0  0  0  0  0  0
   -5.5310    0.6190    1.2120 C   0  0  0  0  0  0  0  0  0  0  0  0
  1  2  1  0
  2  3  2  0
  2  4  1  0
  5  4  1  1
  5  6  1  0
  5 31  1  0
  6  7  1  0
  7  8  1  0
  7 31  1  0
  8  9  2  0
  8 10  1  0
 10 11  1  0
 11 12  1  0
 12 13  1  0
 13 14  2  0
 15 13  1  6
 15 16  1  0
 15 30  1  0
 16 17  1  0
 17 18  1  0
 18 19  1  0
 18 30  1  0
 19 20  2  0
 19 21  1  0
 21 22  2  0
 21 29  1  0
 22 23  1  0
 23 24  1  1
 23 25  1  0
 23 27  1  0
 25 26  2  0
 27 28  1  0
 28 29  2  0
M  END
