
     RDKit          3D

 31 33  0  0  0  0  0  0  0  0999 V2000
   -0.3010   -0.9220   -6.2170 O   0  0  0  0  0  0  0  0  0  0  0  0
   -0.1540   -1.2840   -5.0300 C   0  0  0  0  0  0  0  0  0  0  0  0
    1.1200   -1.7680   -4.5310 C   0  0  0  0  0  0  0  0  0  0  0  0
    1.3600   -2.1630   -3.3160 C   0  0  0  0  0  0  0  0  0  0  0  0
    0.4220   -2.1990   -2.2370 C   0  0  0  0  0  0  0  0  0  0  0  0
    0.5440   -2.5540   -1.0040 C   0  0  0  0  0  0  0  0  0  0  0  0
    1.7270   -3.0340   -0.3080 C   0  0  0  0  0  0  0  0  0  0  0  0
    2.9330   -2.6060   -0.1980 C   0  0  0  0  0  0  0  0  0  0  0  0
    3.5400   -1.4100   -0.7590 C   0  0  0  0  0  0  0  0  0  0  0  0
    3.0420   -0.4720   -1.4540 N   0  0  0  0  0  0  0  0  0  0  0  0
    3.9570    0.4770   -1.7840 O   0  0  0  0  0  0  0  0  0  0  0  0
    5.2440   -0.1210   -1.5730 C   0  0  0  0  0  0  0  0  0  0  0  0
    4.9050   -1.0830   -0.5980 O   0  0  0  0  0  0  0  0  0  0  0  0
    1.2050   -4.1070    0.5420 N   0  0  0  0  0  0  0  0  0  0  0  0
   -0.2070   -4.1980    0.3400 C   0  0  0  0  0  0  0  0  0  0  0  0
   -0.9360   -5.1550    0.4190 O   0  0  0  0  0  0  0  0  0  0  0  0
   -0.5690   -2.7700   -0.0070 C   0  0  1  0  0  0  0  0  0  0  0  0
   -0.5240   -1.8640    1.1570 C   0  0  0  0  0  0  0  0  0  0  0  0
   -1.7720   -1.1500    1.1300 N   0  0  0  0  0  0  0  0  0  0  0  0
   -2.1730    0.0330    1.8490 C   0  0  0  0  0  0  0  0  0  0  0  0
   -1.8510    1.2390    1.0500 C   0  0  0  0  0  0  0  0  0  0  0  0
   -1.2960    1.2080   -0.0750 O   0  0  0  0  0  0  0  0  0  0  0  0
   -2.2060    2.5080    1.6140 N   0  0  0  0  0  0  0  0  0  0  0  0
   -1.9420    3.7470    0.9220 C   0  0  0  0  0  0  0  0  0  0  0  0
   -2.4290    4.9080    1.7250 C   0  0  0  0  0  0  0  0  0  0  0  0
   -1.6660    5.0870    3.3810 P   0  0  0  0  0  0  0  0  0  0  0  0
   -0.1640    5.9140    3.3770 O   0  0  0  0  0  0  0  0  0  0  0  0
   -2.7740    5.7250    4.5540 O   0  0  0  0  0  0  0  0  0  0  0  0
   -2.6120   -1.8580    0.2050 C   0  0  0  0  0  0  0  0  0  0  0  0
   -3.8520   -1.7980    0.1640 O   0  0  0  0  0  0  0  0  0  0  0  0
   -1.7750   -2.6210   -0.6350 O   0  0  0  0  0  0  0  0  0  0  0  0
  1  2  2  0
  2  3  1  0
  3  4  2  3
  4  5  1  0
  5  6  2  3
  6  7  1  0
  6 17  1  0
  7  8  2  3
  7 14  1  0
  8  9  1  0
  9 10  2  0
  9 13  1  0
 10 11  1  0
 11 12  1  0
 12 13  1  0
 14 15  1  0
 15 16  2  0
 15 17  1  0
 17 18  1  1
 17 31  1  0
 18 19  1  0
 19 20  1  0
 19 29  1  0
 20 21  1  0
 21 22  2  0
 21 23  1  0
 23 24  1  0
 24 25  1  0
 25 26  1  0
 26 27  1  0
 26 28  1  0
 29 30  2  0
 29 31  1  0
M  END
