
     RDKit          3D

 31 32  0  0  0  0  0  0  0  0999 V2000
    4.8190    1.7450   -3.0840 C   0  0  0  0  0  0  0  0  0  0  0  0
    3.9600    1.2930   -2.0250 C   0  0  0  0  0  0  0  0  0  0  0  0
    4.5200    0.8520   -0.8590 C   0  0  0  0  0  0  0  0  0  0  0  0
    5.9330    0.8850   -0.8090 C   0  0  0  0  0  0  0  0  0  0  0  0
    6.7530    0.5460    0.1220 C   0  0  0  0  0  0  0  0  0  0  0  0
    8.1610    0.6820   -0.0900 O   0  0  0  0  0  0  0  0  0  0  0  0
    9.1180   -0.7880   -0.2300 P   0  0  0  0  0  0  0  0  0  0  0  0
   10.5440   -0.4730   -1.1770 O   0  0  0  0  0  0  0  0  0  0  0  0
    8.1840   -2.0550   -1.0030 O   0  0  0  0  0  0  0  0  0  0  0  0
    3.5020    0.4570    0.0420 C   0  0  0  0  0  0  0  0  0  0  0  0
    2.2600    0.5480   -0.3030 O   0  0  0  0  0  0  0  0  0  0  0  0
    3.6550   -0.0300    1.2780 N   0  0  0  0  0  0  0  0  0  0  0  0
    2.7130   -0.4240    2.1470 C   0  0  0  0  0  0  0  0  0  0  0  0
    3.5580   -0.8180    3.1700 O   0  0  0  0  0  0  0  0  0  0  0  0
    1.5940   -0.6820    2.6770 N   0  0  0  0  0  0  0  0  0  0  0  0
    0.3020   -0.7790    2.8480 C   0  0  0  0  0  0  0  0  0  0  0  0
    0.1010   -1.2680    4.0440 O   0  0  0  0  0  0  0  0  0  0  0  0
   -0.8100   -0.4870    2.0790 C   0  0  0  0  0  0  0  0  0  0  0  0
   -0.8100   -0.0830    0.8990 O   0  0  0  0  0  0  0  0  0  0  0  0
   -2.0500   -0.6500    2.6730 O   0  0  0  0  0  0  0  0  0  0  0  0
   -3.1740   -0.3600    1.9240 C   0  0  0  0  0  0  0  0  0  0  0  0
   -3.3420   -1.2850    0.7610 C   0  0  0  0  0  0  0  0  0  0  0  0
   -4.5420   -0.9460   -0.0200 N   0  0  0  0  0  0  0  0  0  0  0  0
   -5.8170   -1.5300    0.3120 C   0  0  0  0  0  0  0  0  0  0  0  0
   -6.9550   -0.9910   -0.4830 C   0  0  1  0  0  0  0  0  0  0  0  0
   -7.4210    0.3440    0.0780 C   0  0  0  0  0  0  0  0  0  0  0  0
   -6.4050    1.2990   -0.5080 C   0  0  0  0  0  0  0  0  0  0  0  0
   -5.7450    0.5340   -1.6350 C   0  0  2  0  0  0  0  0  0  0  0  0
   -6.6230   -0.6300   -1.8480 N   0  0  0  0  0  0  0  0  0  0  0  0
   -4.4800   -0.0370   -1.1070 C   0  0  0  0  0  0  0  0  0  0  0  0
   -3.3890    0.2910   -1.6250 O   0  0  0  0  0  0  0  0  0  0  0  0
  1  2  1  0
  2  3  2  3
  3  4  1  0
  3 10  1  0
  4  5  2  3
  5  6  1  0
  6  7  1  0
  7  8  1  0
  7  9  1  0
 10 11  2  0
 10 12  1  0
 12 13  1  0
 13 14  2  0
 13 15  1  0
 15 16  1  0
 16 17  2  0
 16 18  1  0
 18 19  2  0
 18 20  1  0
 20 21  1  0
 21 22  1  0
 22 23  1  0
 23 24  1  0
 23 30  1  0
 25 24  1  1
 25 26  1  0
 25 29  1  0
 26 27  1  0
 28 27  1  1
 28 29  1  0
 28 30  1  0
 30 31  2  0
M  END
