
     RDKit          3D

 31 33  0  0  0  0  0  0  0  0999 V2000
   -4.4280    2.7240    0.3080 C   0  0  0  0  0  0  0  0  0  0  0  0
   -4.6860    1.4030   -0.1920 C   0  0  0  0  0  0  0  0  0  0  0  0
   -3.9450    0.3570   -0.4750 C   0  0  0  0  0  0  0  0  0  0  0  0
   -2.5130    0.3100   -0.3230 C   0  0  0  0  0  0  0  0  0  0  0  0
   -1.9650   -0.8200   -0.6590 O   0  0  0  0  0  0  0  0  0  0  0  0
   -1.6300    1.3090    0.1350 N   0  0  0  0  0  0  0  0  0  0  0  0
   -0.2360    1.2330    0.2730 C   0  0  0  0  0  0  0  0  0  0  0  0
    0.5800    0.2380    0.0160 C   0  0  0  0  0  0  0  0  0  0  0  0
    0.4060   -1.0460   -0.4590 O   0  0  0  0  0  0  0  0  0  0  0  0
    1.6570   -1.7570   -0.5470 C   0  0  0  0  0  0  0  0  0  0  0  0
    2.5850   -0.6240   -0.8090 C   0  0  2  0  0  0  0  0  0  0  0  0
    4.0070   -0.8380   -0.7170 C   0  0  0  0  0  0  0  0  0  0  0  0
    4.5260   -1.7690   -1.3860 O   0  0  0  0  0  0  0  0  0  0  0  0
    4.8640   -0.0320    0.1090 N   0  0  0  0  0  0  0  0  0  0  0  0
    6.3050   -0.2430    0.0160 C   0  0  1  0  0  0  0  0  0  0  0  0
    6.8840    1.0550   -0.3830 C   0  0  0  0  0  0  0  0  0  0  0  0
    7.6640    1.4520    0.5440 N   0  0  0  0  0  0  0  0  0  0  0  0
    7.7480    0.5890    1.6250 N   0  0  0  0  0  0  0  0  0  0  0  0
    6.8980   -0.5050    1.3320 C   0  0  0  0  0  0  0  0  0  0  0  0
    6.6710   -1.5220    2.0390 O   0  0  0  0  0  0  0  0  0  0  0  0
    4.2950    0.9310    0.9770 C   0  0  0  0  0  0  0  0  0  0  0  0
    5.0580    1.6180    1.6910 O   0  0  0  0  0  0  0  0  0  0  0  0
    2.8200    1.0720    0.9930 C   0  0  0  0  0  0  0  0  0  0  0  0
    2.0550    0.3480    0.2300 C   0  0  0  0  0  0  0  0  0  0  0  0
   -4.6880   -0.8280   -0.9830 C   0  0  0  0  0  0  0  0  0  0  0  0
   -4.1990   -1.9630   -1.3280 C   0  0  0  0  0  0  0  0  0  0  0  0
   -5.1080   -2.9690   -1.7920 O   0  0  0  0  0  0  0  0  0  0  0  0
   -6.0950   -0.6850   -1.0980 O   0  0  0  0  0  0  0  0  0  0  0  0
   -7.0360   -1.0710    0.3370 P   0  0  0  0  0  0  0  0  0  0  0  0
   -8.6310   -0.3830    0.2370 O   0  0  0  0  0  0  0  0  0  0  0  0
   -6.2420   -0.4770    1.7740 O   0  0  0  0  0  0  0  0  0  0  0  0
  1  2  1  0
  2  3  2  3
  3  4  1  0
  3 25  1  0
  4  5  2  0
  4  6  1  0
  6  7  1  0
  7  8  2  3
  8  9  1  0
  8 24  1  0
  9 10  1  0
 11 10  1  1
 11 12  1  0
 11 24  1  0
 12 13  2  0
 12 14  1  0
 15 14  1  1
 14 21  1  0
 15 16  1  0
 15 19  1  0
 16 17  2  0
 17 18  1  0
 18 19  1  0
 19 20  2  0
 21 22  2  0
 21 23  1  0
 23 24  2  0
 25 26  2  3
 25 28  1  0
 26 27  1  0
 28 29  1  0
 29 30  1  0
 29 31  1  0
M  END
