
     RDKit          3D

 31 33  0  0  0  0  0  0  0  0999 V2000
    8.2500    0.2400   -1.9320 O   0  0  0  0  0  0  0  0  0  0  0  0
    7.5540   -0.5240   -1.2260 C   0  0  0  0  0  0  0  0  0  0  0  0
    8.1610   -1.5640   -0.5550 O   0  0  0  0  0  0  0  0  0  0  0  0
    6.1330   -0.3190   -1.1170 C   0  0  0  0  0  0  0  0  0  0  0  0
    5.3780   -1.1530   -0.3480 C   0  0  0  0  0  0  0  0  0  0  0  0
    4.0040   -0.9550   -0.2420 C   0  0  0  0  0  0  0  0  0  0  0  0
    3.3270    0.0480   -0.8740 C   0  0  0  0  0  0  0  0  0  0  0  0
    1.9440    0.3010   -0.8150 N   0  0  0  0  0  0  0  0  0  0  0  0
    1.0120   -0.5030   -0.1550 C   0  0  0  0  0  0  0  0  0  0  0  0
    1.3320   -1.5430    0.4540 O   0  0  0  0  0  0  0  0  0  0  0  0
   -0.4690   -0.1140   -0.1650 C   0  0  2  0  0  0  0  0  0  0  0  0
   -0.5990    1.2370    0.4890 C   0  0  0  0  0  0  0  0  0  0  0  0
   -2.0090    1.6820    0.5160 C   0  0  0  0  0  0  0  0  0  0  0  0
   -2.2140    3.3790    1.2570 P   0  0  0  0  0  0  0  0  0  0  0  0
   -2.4260    4.5900    0.0540 O   0  0  0  0  0  0  0  0  0  0  0  0
   -0.9300    3.7520    2.3520 O   0  0  0  0  0  0  0  0  0  0  0  0
   -1.1480   -1.1160    0.5800 N   0  0  0  0  0  0  0  0  0  0  0  0
   -2.5550   -1.2570    0.5340 C   0  0  0  0  0  0  0  0  0  0  0  0
   -3.2660   -1.0020   -0.5110 N   0  0  0  0  0  0  0  0  0  0  0  0
   -4.6590   -1.2450   -0.2380 C   0  0  0  0  0  0  0  0  0  0  0  0
   -5.7950   -1.1440   -0.9480 N   0  0  0  0  0  0  0  0  0  0  0  0
   -6.9970   -1.4460   -0.4260 C   0  0  0  0  0  0  0  0  0  0  0  0
   -8.0650   -1.3470   -1.1040 O   0  0  0  0  0  0  0  0  0  0  0  0
   -7.1110   -1.8570    0.8150 O   0  0  0  0  0  0  0  0  0  0  0  0
   -6.0290   -1.9790    1.5710 C   0  0  0  0  0  0  0  0  0  0  0  0
   -6.0820   -2.3680    2.7650 O   0  0  0  0  0  0  0  0  0  0  0  0
   -4.7820   -1.6750    1.0590 C   0  0  0  0  0  0  0  0  0  0  0  0
   -3.4430   -1.7090    1.6300 C   0  0  0  0  0  0  0  0  0  0  0  0
   -3.0670   -2.0360    2.7780 O   0  0  0  0  0  0  0  0  0  0  0  0
    4.1190    0.9020   -1.6640 C   0  0  0  0  0  0  0  0  0  0  0  0
    5.4650    0.7010   -1.7630 C   0  0  0  0  0  0  0  0  0  0  0  0
  1  2  2  0
  2  3  1  0
  2  4  1  0
  4  5  2  0
  4 31  1  0
  5  6  1  0
  6  7  2  0
  7  8  1  0
  7 30  1  0
  8  9  1  0
  9 10  2  0
  9 11  1  0
 11 12  1  1
 11 17  1  0
 12 13  1  0
 13 14  1  0
 14 15  1  0
 14 16  1  0
 17 18  1  0
 18 19  2  0
 18 28  1  0
 19 20  1  0
 20 21  1  0
 20 27  2  0
 21 22  1  0
 22 23  2  0
 22 24  1  0
 24 25  1  0
 25 26  2  0
 25 27  1  0
 27 28  1  0
 28 29  2  0
 30 31  2  0
M  END
