
     RDKit          3D

 31 33  0  0  0  0  0  0  0  0999 V2000
   -5.2210   -2.3100   -1.8610 C   0  0  0  0  0  0  0  0  0  0  0  0
   -4.2200   -1.4180   -1.1990 C   0  0  0  0  0  0  0  0  0  0  0  0
   -4.5360   -0.1440   -0.7890 C   0  0  0  0  0  0  0  0  0  0  0  0
   -3.5940    0.6600   -0.1800 C   0  0  0  0  0  0  0  0  0  0  0  0
   -3.9760    1.9020    0.1980 N   0  0  0  0  0  0  0  0  0  0  0  0
   -3.1000    2.7240    0.7960 C   0  0  0  0  0  0  0  0  0  0  0  0
   -3.4350    4.0030    1.2040 C   0  0  0  0  0  0  0  0  0  0  0  0
   -4.6010    4.4300    1.0160 O   0  0  0  0  0  0  0  0  0  0  0  0
   -2.4840    4.7400    1.7910 N   0  0  0  0  0  0  0  0  0  0  0  0
   -1.2380    4.3230    2.0070 C   0  0  0  0  0  0  0  0  0  0  0  0
   -0.3810    5.0880    2.5760 O   0  0  0  0  0  0  0  0  0  0  0  0
   -0.8560    3.0970    1.6340 N   0  0  0  0  0  0  0  0  0  0  0  0
   -1.7390    2.2780    1.0360 C   0  0  0  0  0  0  0  0  0  0  0  0
   -1.3820    1.0340    0.6490 N   0  0  0  0  0  0  0  0  0  0  0  0
   -0.0480    0.5850    0.8800 C   0  0  0  0  0  0  0  0  0  0  0  0
    0.9200    0.8770   -0.2000 C   0  0  2  0  0  0  0  0  0  0  0  0
    0.6190    0.3190   -1.4390 O   0  0  0  0  0  0  0  0  0  0  0  0
    2.3220    0.4220    0.1540 C   0  0  2  0  0  0  0  0  0  0  0  0
    3.2330    0.9100   -0.8210 O   0  0  0  0  0  0  0  0  0  0  0  0
    2.5150   -1.0620    0.1430 C   0  0  2  0  0  0  0  0  0  0  0  0
    1.7410   -1.7690    1.0440 O   0  0  0  0  0  0  0  0  0  0  0  0
    3.9670   -1.3400    0.4670 C   0  0  0  0  0  0  0  0  0  0  0  0
    4.8050   -0.6530   -0.4100 O   0  0  0  0  0  0  0  0  0  0  0  0
    6.4200   -0.9440   -0.0720 P   0  0  2  0  0  0  0  0  0  0  0  0
    7.0430    0.3230    0.4660 O   0  0  0  0  0  0  0  0  0  0  0  0
    7.2800   -1.3640   -1.4810 O   0  0  0  0  0  0  0  0  0  0  0  0
    6.6140   -2.1560    1.0890 O   0  0  0  0  0  0  0  0  0  0  0  0
   -2.2790    0.2480    0.0590 C   0  0  0  0  0  0  0  0  0  0  0  0
   -1.9810   -1.0440   -0.3630 C   0  0  0  0  0  0  0  0  0  0  0  0
   -2.9300   -1.8390   -0.9710 C   0  0  0  0  0  0  0  0  0  0  0  0
   -2.6000   -3.2350   -1.4250 C   0  0  0  0  0  0  0  0  0  0  0  0
  1  2  1  0
  2  3  2  0
  2 30  1  0
  3  4  1  0
  4  5  1  0
  4 28  2  0
  5  6  2  0
  6  7  1  0
  6 13  1  0
  7  8  2  0
  7  9  1  0
  9 10  1  0
 10 11  2  0
 10 12  1  0
 12 13  2  0
 13 14  1  0
 14 15  1  0
 14 28  1  0
 15 16  1  0
 16 17  1  6
 16 18  1  0
 18 19  1  6
 18 20  1  0
 20 21  1  1
 20 22  1  0
 22 23  1  0
 23 24  1  0
 24 25  2  0
 24 26  1  6
 24 27  1  0
 28 29  1  0
 29 30  2  0
 30 31  1  0
M  END
