
     RDKit          3D

 30 32  0  0  0  0  0  0  0  0999 V2000
   -5.6260    3.2380    0.7030 O   0  0  0  0  0  0  0  0  0  0  0  0
   -4.5680    2.6550    0.4300 C   0  0  0  0  0  0  0  0  0  0  0  0
   -3.6270    3.2730   -0.4520 N   0  0  0  0  0  0  0  0  0  0  0  0
   -2.4250    2.6170   -0.8350 C   0  0  0  0  0  0  0  0  0  0  0  0
   -1.6360    3.0910   -1.6700 O   0  0  0  0  0  0  0  0  0  0  0  0
   -2.1410    1.3290   -0.1960 C   0  0  2  0  0  0  0  0  0  0  0  0
   -1.1100    0.5100   -0.8190 C   0  0  0  0  0  0  0  0  0  0  0  0
   -0.6650    0.7060   -1.9890 O   0  0  0  0  0  0  0  0  0  0  0  0
   -0.5340   -0.5860   -0.1120 N   0  0  0  0  0  0  0  0  0  0  0  0
   -0.9500   -0.8980    1.2620 C   0  0  0  0  0  0  0  0  0  0  0  0
   -1.1250   -2.3580    1.5130 C   0  0  0  0  0  0  0  0  0  0  0  0
   -0.1370   -3.1380    0.9300 O   0  0  0  0  0  0  0  0  0  0  0  0
    0.9380   -2.3510    0.5010 C   0  0  0  0  0  0  0  0  0  0  0  0
    0.4890   -1.4470   -0.6640 C   0  0  1  0  0  0  0  0  0  0  0  0
   -0.0160   -2.3970   -1.7220 C   0  0  0  0  0  0  0  0  0  0  0  0
   -0.9770   -3.2190   -1.1680 O   0  0  0  0  0  0  0  0  0  0  0  0
    1.7290   -0.7230   -1.1010 C   0  0  0  0  0  0  0  0  0  0  0  0
    2.2690   -0.0550    0.0840 N   0  0  0  0  0  0  0  0  0  0  0  0
    3.4660    0.6930   -0.2300 C   0  0  0  0  0  0  0  0  0  0  0  0
    4.5980   -0.2100   -0.5900 C   0  0  0  0  0  0  0  0  0  0  0  0
    5.8210    0.6340   -0.9070 C   0  0  0  0  0  0  0  0  0  0  0  0
    6.2490    1.6260    0.5970 P   0  0  0  0  0  0  0  0  0  0  0  0
    6.7590    3.2160    0.1030 O   0  0  0  0  0  0  0  0  0  0  0  0
    7.4710    0.8350    1.5010 O   0  0  0  0  0  0  0  0  0  0  0  0
   -3.3920    0.6640    0.0890 N   0  0  0  0  0  0  0  0  0  0  0  0
   -4.0010   -0.5260   -0.3630 C   0  0  0  0  0  0  0  0  0  0  0  0
   -3.5050   -1.4940   -0.9900 O   0  0  0  0  0  0  0  0  0  0  0  0
   -5.4590   -0.5080    0.0250 C   0  0  0  0  0  0  0  0  0  0  0  0
   -5.4980    0.4720    1.1550 C   0  0  0  0  0  0  0  0  0  0  0  0
   -4.2790    1.3090    1.0210 C   0  0  2  0  0  0  0  0  0  0  0  0
  1  2  2  0
  2  3  1  0
  2 30  1  0
  3  4  1  0
  4  5  2  0
  4  6  1  0
  6  7  1  6
  6 25  1  0
  7  8  2  0
  7  9  1  0
  9 10  1  0
  9 14  1  0
 10 11  1  0
 11 12  1  0
 12 13  1  0
 13 14  1  0
 14 15  1  6
 14 17  1  0
 15 16  1  0
 17 18  1  0
 18 19  1  0
 19 20  1  0
 20 21  1  0
 21 22  1  0
 22 23  1  0
 22 24  1  0
 25 26  1  0
 25 30  1  0
 26 27  2  0
 26 28  1  0
 28 29  1  0
 30 29  1  6
M  END
