
     RDKit          3D

 25 27  0  0  0  0  0  0  0  0999 V2000
   -5.6270   -0.5640   -1.8550 C   0  0  0  0  0  0  0  0  0  0  0  0
   -4.1610   -0.7540   -1.6980 C   0  0  0  0  0  0  0  0  0  0  0  0
   -3.5120   -0.3210   -0.6150 C   0  0  0  0  0  0  0  0  0  0  0  0
   -4.3740    0.3320    0.3560 C   0  0  0  0  0  0  0  0  0  0  0  0
   -4.1850    0.5190    1.6520 C   0  0  0  0  0  0  0  0  0  0  0  0
   -3.0150    0.0930    2.4400 C   0  0  0  0  0  0  0  0  0  0  0  0
   -1.7570    0.2890    1.6170 C   0  0  0  0  0  0  0  0  0  0  0  0
   -1.5870   -0.9050    0.7370 C   0  0  0  0  0  0  0  0  0  0  0  0
   -2.0520   -0.5990   -0.6350 C   0  0  2  0  0  0  0  0  0  0  0  0
   -1.2860    0.4580   -1.3860 C   0  0  0  0  0  0  0  0  0  0  0  0
    0.0010    0.3180   -1.4910 O   0  0  0  0  0  0  0  0  0  0  0  0
    1.2650    0.2030   -1.2130 C   0  0  0  0  0  0  0  0  0  0  0  0
    2.2720    0.0280   -2.1990 C   0  0  0  0  0  0  0  0  0  0  0  0
    3.5980   -0.0880   -1.8650 C   0  0  0  0  0  0  0  0  0  0  0  0
    3.9830   -0.0370   -0.5510 C   0  0  0  0  0  0  0  0  0  0  0  0
    5.3280   -0.1530   -0.1790 C   0  0  0  0  0  0  0  0  0  0  0  0
    6.2120   -0.3170   -1.2000 O   0  0  0  0  0  0  0  0  0  0  0  0
    5.6170   -0.0900    1.1580 C   0  0  0  0  0  0  0  0  0  0  0  0
    6.9770   -0.2010    1.6190 C   0  0  0  0  0  0  0  0  0  0  0  0
    7.9790   -0.3580    0.8830 O   0  0  0  0  0  0  0  0  0  0  0  0
    4.6870    0.0730    2.0810 O   0  0  0  0  0  0  0  0  0  0  0  0
    3.4290    0.1850    1.7840 C   0  0  0  0  0  0  0  0  0  0  0  0
    2.5070    0.3400    2.6230 O   0  0  0  0  0  0  0  0  0  0  0  0
    3.0600    0.1300    0.4510 C   0  0  0  0  0  0  0  0  0  0  0  0
    1.7250    0.2460    0.0930 C   0  0  0  0  0  0  0  0  0  0  0  0
  1  2  1  0
  2  3  2  3
  3  4  1  0
  3  9  1  0
  4  5  2  0
  5  6  1  0
  6  7  1  0
  7  8  1  0
  8  9  1  0
  9 10  1  1
 10 11  1  0
 11 12  1  0
 12 13  2  0
 12 25  1  0
 13 14  1  0
 14 15  2  0
 15 16  1  0
 15 24  1  0
 16 17  1  0
 16 18  2  0
 18 19  1  0
 18 21  1  0
 19 20  2  0
 21 22  1  0
 22 23  2  0
 22 24  1  0
 24 25  2  0
M  END
