
     RDKit          3D

 25 28  0  0  0  0  0  0  0  0999 V2000
   -5.6900   -2.3400    2.0800 O   0  0  0  0  0  0  0  0  0  0  0  0
   -4.8240   -2.2660    1.1940 C   0  0  0  0  0  0  0  0  0  0  0  0
   -4.2810   -3.4260    0.6730 O   0  0  0  0  0  0  0  0  0  0  0  0
   -4.3780   -0.9850    0.7010 C   0  0  0  0  0  0  0  0  0  0  0  0
   -4.9190    0.1620    1.2200 C   0  0  0  0  0  0  0  0  0  0  0  0
   -4.4890    1.3710    0.7460 C   0  0  0  0  0  0  0  0  0  0  0  0
   -3.5190    1.4330   -0.2470 C   0  0  0  0  0  0  0  0  0  0  0  0
   -2.9560    0.2990   -0.7880 C   0  0  0  0  0  0  0  0  0  0  0  0
   -3.4020   -0.9110   -0.2980 C   0  0  0  0  0  0  0  0  0  0  0  0
   -1.9550    0.6480   -1.8200 C   0  0  2  0  0  0  0  0  0  0  0  0
   -0.5870    0.1620   -1.4610 C   0  0  0  0  0  0  0  0  0  0  0  0
    0.0440   -0.6550   -2.2040 O   0  0  0  0  0  0  0  0  0  0  0  0
    0.0630    0.5690   -0.3150 O   0  0  0  0  0  0  0  0  0  0  0  0
    1.3310    0.1330    0.0400 C   0  0  0  0  0  0  0  0  0  0  0  0
    1.5200   -0.9910    0.8110 C   0  0  0  0  0  0  0  0  0  0  0  0
    2.7980   -1.4250    1.1660 C   0  0  0  0  0  0  0  0  0  0  0  0
    3.8930   -0.7150    0.7370 C   0  0  0  0  0  0  0  0  0  0  0  0
    3.7370    0.4150   -0.0370 C   0  0  0  0  0  0  0  0  0  0  0  0
    2.4550    0.8170   -0.3700 C   0  0  0  0  0  0  0  0  0  0  0  0
    5.0840    0.9720   -0.3500 C   0  0  0  0  0  0  0  0  0  0  0  0
    6.0380   -0.1470   -0.0910 C   0  0  0  0  0  0  0  0  0  0  0  0
    5.3440   -0.9820    0.9860 C   0  0  0  0  0  0  0  0  0  0  0  0
   -2.0190    2.1370   -1.9210 C   0  0  0  0  0  0  0  0  0  0  0  0
   -2.9440    2.6240   -0.8680 C   0  0  0  0  0  0  0  0  0  0  0  0
   -3.1440    3.8180   -0.6170 O   0  0  0  0  0  0  0  0  0  0  0  0
  1  2  2  0
  2  3  1  0
  2  4  1  0
  4  5  2  0
  4  9  1  0
  5  6  1  0
  6  7  2  0
  7  8  1  0
  7 24  1  0
  8  9  2  0
  8 10  1  0
 10 11  1  1
 10 23  1  0
 11 12  2  0
 11 13  1  0
 13 14  1  0
 14 15  2  0
 14 19  1  0
 15 16  1  0
 16 17  2  0
 17 18  1  0
 17 22  1  0
 18 19  2  0
 18 20  1  0
 20 21  1  0
 21 22  1  0
 23 24  1  0
 24 25  2  0
M  END
