
     RDKit          3D

 25 28  0  0  0  0  0  0  0  0999 V2000
    7.8310    0.0070   -2.3410 O   0  0  0  0  0  0  0  0  0  0  0  0
    7.0970    0.3590   -1.2100 C   0  0  0  0  0  0  0  0  0  0  0  0
    7.7670    0.6650   -0.0400 C   0  0  0  0  0  0  0  0  0  0  0  0
    7.0310    1.0120    1.0700 C   0  0  0  0  0  0  0  0  0  0  0  0
    5.6530    1.0550    1.0250 C   0  0  0  0  0  0  0  0  0  0  0  0
    4.9600    0.7560   -0.1250 C   0  0  0  0  0  0  0  0  0  0  0  0
    3.4770    0.7940   -0.2070 C   0  0  0  0  0  0  0  0  0  0  0  0
    2.9020   -0.4520    0.1230 O   0  0  0  0  0  0  0  0  0  0  0  0
    1.5630   -0.7170    0.1350 C   0  0  0  0  0  0  0  0  0  0  0  0
    1.1520   -1.9920    0.4810 C   0  0  0  0  0  0  0  0  0  0  0  0
   -0.1780   -2.3550    0.5210 C   0  0  0  0  0  0  0  0  0  0  0  0
   -0.5860   -3.6460    0.8730 O   0  0  0  0  0  0  0  0  0  0  0  0
   -1.1590   -1.4350    0.2090 C   0  0  0  0  0  0  0  0  0  0  0  0
   -0.7720   -0.1670   -0.1360 C   0  0  0  0  0  0  0  0  0  0  0  0
    0.5820    0.1960   -0.1750 C   0  0  0  0  0  0  0  0  0  0  0  0
   -1.9260    0.5560   -0.4010 O   0  0  0  0  0  0  0  0  0  0  0  0
   -3.0150   -0.2370   -0.0430 C   0  0  1  0  0  0  0  0  0  0  0  0
   -3.6830    0.3600    1.1780 C   0  0  0  0  0  0  0  0  0  0  0  0
   -4.4190    1.5950    0.7220 C   0  0  0  0  0  0  0  0  0  0  0  0
   -5.7710    1.3230    0.1640 C   0  0  0  0  0  0  0  0  0  0  0  0
   -6.1830   -0.1190    0.2120 C   0  0  0  0  0  0  0  0  0  0  0  0
   -5.2670   -1.0310   -0.5290 C   0  0  0  0  0  0  0  0  0  0  0  0
   -4.0730   -0.3140   -1.1260 C   0  0  0  0  0  0  0  0  0  0  0  0
   -2.5360   -1.5350    0.1720 O   0  0  0  0  0  0  0  0  0  0  0  0
    5.7240    0.4070   -1.2400 C   0  0  0  0  0  0  0  0  0  0  0  0
  1  2  1  0
  2  3  2  0
  2 25  1  0
  3  4  1  0
  4  5  2  0
  5  6  1  0
  6  7  1  0
  6 25  2  0
  7  8  1  0
  8  9  1  0
  9 10  2  0
  9 15  1  0
 10 11  1  0
 11 12  1  0
 11 13  2  0
 13 14  1  0
 13 24  1  0
 14 15  2  0
 14 16  1  0
 16 17  1  0
 17 18  1  1
 17 23  1  0
 17 24  1  0
 18 19  1  0
 19 20  1  0
 20 21  1  0
 21 22  1  0
 22 23  1  0
M  END
