
     RDKit          3D

 14 14  0  0  0  0  0  0  0  0999 V2000
    3.5820    1.0980    0.0100 C   0  0  0  0  0  0  0  0  0  0  0  0
    2.4980    0.5920    0.7520 O   0  0  0  0  0  0  0  0  0  0  0  0
    1.4280   -0.0800    0.2240 C   0  0  0  0  0  0  0  0  0  0  0  0
    1.5720   -1.2670   -0.3050 C   0  0  0  0  0  0  0  0  0  0  0  0
    2.8070   -1.9190   -0.3680 O   0  0  0  0  0  0  0  0  0  0  0  0
    0.4390   -2.0170   -0.8820 C   0  0  0  0  0  0  0  0  0  0  0  0
   -0.7530   -1.3170   -0.7890 O   0  0  0  0  0  0  0  0  0  0  0  0
   -0.9370   -0.0540   -0.2310 C   0  0  0  0  0  0  0  0  0  0  0  0
   -2.2900    0.4960   -0.2400 C   0  0  0  0  0  0  0  0  0  0  0  0
   -3.3030   -0.3580   -0.8420 N   0  0  0  0  0  0  0  0  0  0  0  0
   -2.7230    1.5920    0.1900 N   0  0  0  0  0  0  0  0  0  0  0  0
   -4.1050    1.8690    0.0470 O   0  0  0  0  0  0  0  0  0  0  0  0
    0.1020    0.5780    0.2720 C   0  0  0  0  0  0  0  0  0  0  0  0
   -0.0190    2.1780    1.0000 Cl  0  0  0  0  0  0  0  0  0  0  0  0
  1  2  1  0
  2  3  1  0
  3  4  2  0
  3 13  1  0
  4  5  1  0
  4  6  1  0
  6  7  1  0
  7  8  1  0
  8  9  1  0
  8 13  2  0
  9 10  1  0
  9 11  2  3
 11 12  1  0
 13 14  1  0
M  CHG  1  11   1
M  END
