
     RDKit          3D

 25 27  0  0  0  0  0  0  0  0999 V2000
   -2.3520   -1.9860   -2.2610 C   0  0  0  0  0  0  0  0  0  0  0  0
   -3.0200   -1.2420   -1.1620 C   0  0  0  0  0  0  0  0  0  0  0  0
   -4.3210   -1.1160   -1.1230 C   0  0  0  0  0  0  0  0  0  0  0  0
   -5.0040   -0.3920   -0.0580 C   0  0  1  0  0  0  0  0  0  0  0  0
   -5.8250    0.7760   -0.6070 C   0  0  0  0  0  0  0  0  0  0  0  0
   -5.9630   -1.3360    0.6910 C   0  0  0  0  0  0  0  0  0  0  0  0
   -4.1460    0.1340    0.8850 O   0  0  0  0  0  0  0  0  0  0  0  0
   -2.7940    0.0160    0.8650 C   0  0  0  0  0  0  0  0  0  0  0  0
   -2.0250    0.5860    1.8660 C   0  0  0  0  0  0  0  0  0  0  0  0
   -0.6580    0.4390    1.8020 C   0  0  0  0  0  0  0  0  0  0  0  0
   -0.0230   -0.2450    0.7940 C   0  0  0  0  0  0  0  0  0  0  0  0
    1.4240   -0.3590    0.7920 C   0  0  0  0  0  0  0  0  0  0  0  0
    1.9770   -0.9910   -0.1440 O   0  0  0  0  0  0  0  0  0  0  0  0
    2.2360    0.1920    1.7670 O   0  0  0  0  0  0  0  0  0  0  0  0
    3.6180    0.1360    1.8350 C   0  0  0  0  0  0  0  0  0  0  0  0
    4.3760    0.7580    0.7600 C   0  0  0  0  0  0  0  0  0  0  0  0
    3.8040    1.4360   -0.2880 C   0  0  0  0  0  0  0  0  0  0  0  0
    4.5990    2.0270   -1.2820 C   0  0  0  0  0  0  0  0  0  0  0  0
    5.9550    1.9320   -1.2120 C   0  0  0  0  0  0  0  0  0  0  0  0
    6.5520    1.2610   -0.1750 C   0  0  0  0  0  0  0  0  0  0  0  0
    7.9380    1.1950   -0.1540 O   0  0  0  0  0  0  0  0  0  0  0  0
    5.7530    0.6840    0.7950 C   0  0  0  0  0  0  0  0  0  0  0  0
    6.3910    0.0120    1.8310 O   0  0  0  0  0  0  0  0  0  0  0  0
   -0.7930   -0.8080   -0.1950 C   0  0  0  0  0  0  0  0  0  0  0  0
   -2.1600   -0.6680   -0.1440 C   0  0  0  0  0  0  0  0  0  0  0  0
  1  2  1  0
  2  3  2  0
  2 25  1  0
  3  4  1  0
  4  5  1  6
  4  6  1  0
  4  7  1  0
  7  8  1  0
  8  9  2  0
  8 25  1  0
  9 10  1  0
 10 11  2  0
 11 12  1  0
 11 24  1  0
 12 13  2  0
 12 14  1  0
 14 15  1  0
 15 16  1  0
 16 17  2  0
 16 22  1  0
 17 18  1  0
 18 19  2  0
 19 20  1  0
 20 21  1  0
 20 22  2  0
 22 23  1  0
 24 25  2  0
M  END
