
     RDKit          3D

 25 28  0  0  0  0  0  0  0  0999 V2000
   -2.5450   -0.7150    2.7560 O   0  0  0  0  0  0  0  0  0  0  0  0
   -1.7780   -0.4450    1.8080 C   0  0  0  0  0  0  0  0  0  0  0  0
   -0.5000   -0.0140    2.0780 O   0  0  0  0  0  0  0  0  0  0  0  0
   -2.2530   -0.5910    0.4490 C   0  0  0  0  0  0  0  0  0  0  0  0
   -3.5430   -1.0270    0.1770 C   0  0  0  0  0  0  0  0  0  0  0  0
   -3.9620   -1.1560   -1.1170 C   0  0  0  0  0  0  0  0  0  0  0  0
   -3.0980   -0.8520   -2.1540 C   0  0  0  0  0  0  0  0  0  0  0  0
   -1.8260   -0.4220   -1.8890 C   0  0  0  0  0  0  0  0  0  0  0  0
   -1.3920   -0.2880   -0.5950 C   0  0  0  0  0  0  0  0  0  0  0  0
   -0.0460    0.1670   -0.2730 C   0  0  0  0  0  0  0  0  0  0  0  0
    0.2920    1.4930   -0.0940 C   0  0  0  0  0  0  0  0  0  0  0  0
   -0.6730    2.4520   -0.2190 C   0  0  0  0  0  0  0  0  0  0  0  0
   -0.3040    3.7740   -0.0340 C   0  0  0  0  0  0  0  0  0  0  0  0
    0.9880    4.1550    0.2700 C   0  0  0  0  0  0  0  0  0  0  0  0
    1.3040    5.3620    0.4350 O   0  0  0  0  0  0  0  0  0  0  0  0
    2.0150    3.2220    0.4100 C   0  0  0  0  0  0  0  0  0  0  0  0
    1.6660    1.8990    0.2290 C   0  0  0  0  0  0  0  0  0  0  0  0
    2.5700    0.9590    0.3430 O   0  0  0  0  0  0  0  0  0  0  0  0
    2.2640   -0.3160    0.1750 C   0  0  0  0  0  0  0  0  0  0  0  0
    3.3080   -1.2080    0.3220 C   0  0  0  0  0  0  0  0  0  0  0  0
    3.0270   -2.5450    0.1540 C   0  0  0  0  0  0  0  0  0  0  0  0
    4.0270   -3.5080    0.2860 O   0  0  0  0  0  0  0  0  0  0  0  0
    1.7610   -2.9940   -0.1500 C   0  0  0  0  0  0  0  0  0  0  0  0
    0.7160   -2.1090   -0.2980 C   0  0  0  0  0  0  0  0  0  0  0  0
    0.9880   -0.7470   -0.1300 C   0  0  0  0  0  0  0  0  0  0  0  0
  1  2  2  0
  2  3  1  0
  2  4  1  0
  4  5  2  0
  4  9  1  0
  5  6  1  0
  6  7  2  0
  7  8  1  0
  8  9  2  0
  9 10  1  0
 10 11  2  0
 10 25  1  0
 11 12  1  0
 11 17  1  0
 12 13  2  0
 13 14  1  0
 14 15  2  0
 14 16  1  0
 16 17  2  0
 17 18  1  0
 18 19  1  0
 19 20  2  0
 19 25  1  0
 20 21  1  0
 21 22  1  0
 21 23  2  0
 23 24  1  0
 24 25  2  0
M  END
