
     RDKit          3D

 25 28  0  0  0  0  0  0  0  0999 V2000
    1.1350    0.8250    0.9830 O   0  0  0  0  0  0  0  0  0  0  0  0
    1.6520    0.3970   -0.0790 C   0  0  0  0  0  0  0  0  0  0  0  0
    0.8270    0.0700   -1.1170 O   0  0  0  0  0  0  0  0  0  0  0  0
   -0.5670    0.1810   -1.0750 C   0  0  0  0  0  0  0  0  0  0  0  0
   -1.1130    1.3740   -1.4800 C   0  0  0  0  0  0  0  0  0  0  0  0
   -2.4890    1.5180   -1.4520 C   0  0  0  0  0  0  0  0  0  0  0  0
   -3.2760    0.4700   -1.0220 C   0  0  0  0  0  0  0  0  0  0  0  0
   -2.7430   -0.7300   -0.6130 C   0  0  0  0  0  0  0  0  0  0  0  0
   -1.3700   -0.8530   -0.6490 C   0  0  0  0  0  0  0  0  0  0  0  0
   -3.4650   -1.9200   -0.1350 C   0  0  2  0  0  0  0  0  0  0  0  0
   -4.2450   -2.5070   -1.1270 O   0  0  0  0  0  0  0  0  0  0  0  0
   -4.2080   -1.6080    1.1140 C   0  0  1  0  0  0  0  0  0  0  0  0
   -3.2550   -1.4840    2.1500 O   0  0  0  0  0  0  0  0  0  0  0  0
   -5.0140   -0.3570    1.0800 C   0  0  0  0  0  0  0  0  0  0  0  0
   -5.5920   -0.0050   -0.2400 C   0  0  0  0  0  0  0  0  0  0  0  0
   -4.6990    0.8670   -1.0830 C   0  0  0  0  0  0  0  0  0  0  0  0
    3.1050    0.2810   -0.1200 C   0  0  0  0  0  0  0  0  0  0  0  0
    3.7660   -0.1840   -1.2540 C   0  0  0  0  0  0  0  0  0  0  0  0
    5.1410   -0.2800   -1.2550 C   0  0  0  0  0  0  0  0  0  0  0  0
    5.9250    0.0680   -0.1670 C   0  0  0  0  0  0  0  0  0  0  0  0
    5.2750    0.5290    0.9570 C   0  0  0  0  0  0  0  0  0  0  0  0
    3.8860    0.6260    0.9590 C   0  0  0  0  0  0  0  0  0  0  0  0
    6.3150    0.8340    1.9770 C   0  0  0  0  0  0  0  0  0  0  0  0
    7.6050    0.7710    1.2290 C   0  0  0  0  0  0  0  0  0  0  0  0
    7.2960    0.0490    0.0380 O   0  0  0  0  0  0  0  0  0  0  0  0
  1  2  2  0
  2  3  1  0
  2 17  1  0
  3  4  1  0
  4  5  2  0
  4  9  1  0
  5  6  1  0
  6  7  2  0
  7  8  1  0
  7 16  1  0
  8  9  2  0
  8 10  1  0
 10 11  1  6
 10 12  1  0
 12 13  1  1
 12 14  1  0
 14 15  1  0
 15 16  1  0
 17 18  2  0
 17 22  1  0
 18 19  1  0
 19 20  2  0
 20 21  1  0
 20 25  1  0
 21 22  2  0
 21 23  1  0
 23 24  1  0
 24 25  1  0
M  END
