
     RDKit          3D

 41 46  0  0  0  0  0  0  0  0999 V2000
   -0.5390   -5.4110    2.2540 C   0  0  0  0  0  0  0  0  0  0  0  0
   -0.7840   -4.3140    1.4360 O   0  0  0  0  0  0  0  0  0  0  0  0
    0.2470   -3.5030    1.0140 C   0  0  0  0  0  0  0  0  0  0  0  0
    1.5570   -3.7130    1.3570 C   0  0  0  0  0  0  0  0  0  0  0  0
    2.5330   -2.8690    0.9040 C   0  0  0  0  0  0  0  0  0  0  0  0
    2.2450   -1.7600    0.0780 C   0  0  0  0  0  0  0  0  0  0  0  0
    3.3370   -0.9090   -0.3670 C   0  0  0  0  0  0  0  0  0  0  0  0
    4.4670   -0.7150    0.4090 C   0  0  0  0  0  0  0  0  0  0  0  0
    5.5210    0.0770    0.0420 C   0  0  0  0  0  0  0  0  0  0  0  0
    5.5050    0.7570   -1.1850 C   0  0  0  0  0  0  0  0  0  0  0  0
    6.6250    1.6260   -1.6280 C   0  0  0  0  0  0  0  0  0  0  0  0
    7.5600    1.8520   -0.5780 N   0  0  0  0  0  0  0  0  0  0  0  0
    7.1470    2.5260    0.6050 C   0  0  0  0  0  0  0  0  0  0  0  0
    5.6190    3.0690    0.7720 S   0  0  0  0  0  0  0  0  0  0  0  0
    8.0620    2.7610    1.6730 N   0  0  0  0  0  0  0  0  0  0  0  0
    7.6830    3.4110    2.8540 C   0  0  0  0  0  0  0  0  0  0  0  0
    6.6550    4.2040    2.8070 N   0  0  0  0  0  0  0  0  0  0  0  0
    4.3810    0.5630   -1.9530 C   0  0  0  0  0  0  0  0  0  0  0  0
    3.3220   -0.2400   -1.5730 C   0  0  0  0  0  0  0  0  0  0  0  0
    0.9200   -1.5820   -0.2450 C   0  0  0  0  0  0  0  0  0  0  0  0
   -0.0920   -2.3950    0.1820 C   0  0  0  0  0  0  0  0  0  0  0  0
   -1.4110   -2.2810   -0.0950 O   0  0  0  0  0  0  0  0  0  0  0  0
   -2.1440   -1.3680   -0.8680 C   0  0  0  0  0  0  0  0  0  0  0  0
   -3.5750   -1.7230   -0.8590 C   0  0  0  0  0  0  0  0  0  0  0  0
   -3.8580   -2.8170   -0.2250 O   0  0  0  0  0  0  0  0  0  0  0  0
   -4.5930   -1.0070   -1.4720 N   0  0  0  0  0  0  0  0  0  0  0  0
   -5.7630   -1.7680   -1.9400 C   0  0  0  0  0  0  0  0  0  0  0  0
   -6.3560   -1.2260   -3.1880 C   0  0  0  0  0  0  0  0  0  0  0  0
   -5.3340   -0.4330   -3.9700 C   0  0  0  0  0  0  0  0  0  0  0  0
   -4.8950    0.6790   -3.0660 C   0  0  0  0  0  0  0  0  0  0  0  0
   -4.7140    2.4030   -3.1940 S   0  0  0  0  0  0  0  0  0  0  0  0
   -4.1890    2.6830   -1.5220 C   0  0  0  0  0  0  0  0  0  0  0  0
   -3.8850    3.8280   -0.9060 N   0  0  0  0  0  0  0  0  0  0  0  0
   -3.5340    3.8390    0.3910 C   0  0  0  0  0  0  0  0  0  0  0  0
   -3.5180    2.6120    1.0000 C   0  0  0  0  0  0  0  0  0  0  0  0
   -3.8250    1.4170    0.3970 C   0  0  0  0  0  0  0  0  0  0  0  0
   -4.1870    1.4430   -0.9770 C   0  0  0  0  0  0  0  0  0  0  0  0
   -4.5440    0.4130   -1.7630 C   0  0  0  0  0  0  0  0  0  0  0  0
   -3.7560    0.3620    1.4370 C   0  0  0  0  0  0  0  0  0  0  0  0
   -4.0330    1.1680    2.7330 C   0  0  0  0  0  0  0  0  0  0  0  0
   -3.1590    2.3650    2.4460 C   0  0  0  0  0  0  0  0  0  0  0  0
  1  2  1  0
  2  3  1  0
  3  4  2  0
  3 21  1  0
  4  5  1  0
  5  6  2  0
  6  7  1  0
  6 20  1  0
  7  8  2  0
  7 19  1  0
  8  9  1  0
  9 10  2  0
 10 11  1  0
 10 18  1  0
 11 12  1  0
 12 13  1  0
 13 14  2  0
 13 15  1  0
 15 16  1  0
 16 17  2  0
 18 19  2  0
 20 21  2  0
 21 22  1  0
 22 23  1  0
 23 24  1  0
 24 25  2  0
 24 26  1  0
 26 27  1  0
 26 38  1  0
 27 28  1  0
 28 29  1  0
 29 30  1  0
 30 31  1  0
 30 38  2  0
 31 32  1  0
 32 33  2  0
 32 37  1  0
 33 34  1  0
 34 35  2  0
 35 36  1  0
 35 41  1  0
 36 37  2  0
 36 39  1  0
 37 38  1  0
 39 40  1  0
 40 41  1  0
M  CHG  1  33   1
M  END
