
     RDKit          3D

 41 46  0  0  0  0  0  0  0  0999 V2000
   -6.4310   -0.6810    1.9410 C   0  0  0  0  0  0  0  0  0  0  0  0
   -6.0240    0.0270    0.6540 C   0  0  2  0  0  0  0  0  0  0  0  0
   -6.4650   -0.6720   -0.5100 N   0  0  0  0  0  0  0  0  0  0  0  0
   -7.4640   -0.0090   -1.2800 C   0  0  0  0  0  0  0  0  0  0  0  0
   -7.7190    1.4180   -0.7920 C   0  0  0  0  0  0  0  0  0  0  0  0
   -7.0490    2.4650   -1.2310 C   0  0  0  0  0  0  0  0  0  0  0  0
   -7.2880    3.7250   -0.7910 C   0  0  0  0  0  0  0  0  0  0  0  0
   -8.6540    3.4230    0.4200 S   0  0  0  0  0  0  0  0  0  0  0  0
   -8.7400    1.6520    0.1940 C   0  0  0  0  0  0  0  0  0  0  0  0
   -4.5320    0.0510    0.6480 C   0  0  0  0  0  0  0  0  0  0  0  0
   -3.8770    1.2280    0.9400 C   0  0  0  0  0  0  0  0  0  0  0  0
   -2.5030    1.2550    0.9340 C   0  0  0  0  0  0  0  0  0  0  0  0
   -1.8140    0.0930    0.6340 C   0  0  0  0  0  0  0  0  0  0  0  0
   -0.3460    0.1660    0.6380 C   0  0  0  0  0  0  0  0  0  0  0  0
    0.3930   -0.8220    1.2510 C   0  0  0  0  0  0  0  0  0  0  0  0
    1.7480   -0.8050    1.2840 C   0  0  0  0  0  0  0  0  0  0  0  0
    2.4420    0.2360    0.6850 C   0  0  0  0  0  0  0  0  0  0  0  0
    3.8520    0.2770    0.7250 N   0  0  0  0  0  0  0  0  0  0  0  0
    4.7050    1.1010   -0.0120 C   0  0  0  0  0  0  0  0  0  0  0  0
    4.2560    1.9210   -0.8320 O   0  0  0  0  0  0  0  0  0  0  0  0
    6.1690    1.0240    0.1590 C   0  0  0  0  0  0  0  0  0  0  0  0
    6.6740    0.5080    1.3220 C   0  0  0  0  0  0  0  0  0  0  0  0
    8.0080    0.4640    1.4180 N   0  0  0  0  0  0  0  0  0  0  0  0
    8.8140    0.9220    0.3870 C   0  0  0  0  0  0  0  0  0  0  0  0
    8.3620    1.4340   -0.7650 C   0  0  0  0  0  0  0  0  0  0  0  0
    6.9400    1.4620   -0.8280 C   0  0  0  0  0  0  0  0  0  0  0  0
    9.9050    1.7620   -1.4610 S   0  0  0  0  0  0  0  0  0  0  0  0
   10.6730    3.1700   -0.9560 C   0  0  0  0  0  0  0  0  0  0  0  0
   10.7670    0.5160   -2.1800 C   0  0  0  0  0  0  0  0  0  0  0  0
   10.0290    1.1360   -0.1020 N   0  0  0  0  0  0  0  0  0  0  0  0
    1.7250    1.2260    0.0720 C   0  0  0  0  0  0  0  0  0  0  0  0
    0.3210    1.2080    0.0370 C   0  0  0  0  0  0  0  0  0  0  0  0
   -2.4430   -1.0880    0.3410 C   0  0  0  0  0  0  0  0  0  0  0  0
   -1.6610   -2.1960    0.0530 O   0  0  0  0  0  0  0  0  0  0  0  0
   -2.1900   -3.4330   -0.2550 C   0  0  0  0  0  0  0  0  0  0  0  0
   -2.1150   -4.5260    0.4610 C   0  0  0  0  0  0  0  0  0  0  0  0
   -2.8130   -5.6500   -0.2140 C   0  0  0  0  0  0  0  0  0  0  0  0
   -3.3320   -5.1150   -1.4430 N   0  0  0  0  0  0  0  0  0  0  0  0
   -2.9400   -3.7300   -1.4650 C   0  0  0  0  0  0  0  0  0  0  0  0
   -3.2080   -2.9160   -2.3850 O   0  0  0  0  0  0  0  0  0  0  0  0
   -3.8210   -1.1020    0.3500 C   0  0  0  0  0  0  0  0  0  0  0  0
  2  1  1  1
  2  3  1  0
  2 10  1  0
  3  4  1  0
  4  5  1  0
  5  6  1  0
  5  9  2  0
  6  7  2  0
  7  8  1  0
  8  9  1  0
 10 11  2  0
 10 41  1  0
 11 12  1  0
 12 13  2  0
 13 14  1  0
 13 33  1  0
 14 15  2  0
 14 32  1  0
 15 16  1  0
 16 17  2  0
 17 18  1  0
 17 31  1  0
 18 19  1  0
 19 20  2  0
 19 21  1  0
 21 22  2  0
 21 26  1  0
 22 23  1  0
 23 24  2  0
 24 25  1  0
 24 30  1  0
 25 26  2  0
 25 27  1  0
 27 28  1  0
 27 29  1  0
 27 30  2  0
 31 32  2  0
 33 34  1  0
 33 41  2  0
 34 35  1  0
 35 36  2  0
 35 39  1  0
 36 37  1  0
 37 38  1  0
 38 39  1  0
 39 40  2  0
M  CHG  1   3   1
M  END
