
     RDKit          3D

 41 44  0  0  0  0  0  0  0  0999 V2000
   -3.6570   -5.0080    3.0560 C   0  0  0  0  0  0  0  0  0  0  0  0
   -3.4290   -4.1740    2.1350 N   0  0  0  0  0  0  0  0  0  0  0  0
   -3.1190   -3.2200    1.2960 C   0  0  0  0  0  0  0  0  0  0  0  0
   -3.1890   -1.8740    1.4970 C   0  0  0  0  0  0  0  0  0  0  0  0
   -3.7460   -1.3400    2.7960 C   0  0  0  0  0  0  0  0  0  0  0  0
   -2.7510   -0.9520    0.5840 C   0  0  0  0  0  0  0  0  0  0  0  0
   -2.2040   -1.3100   -0.6080 C   0  0  0  0  0  0  0  0  0  0  0  0
   -1.7670   -0.4410   -1.6650 N   0  0  0  0  0  0  0  0  0  0  0  0
   -1.0970    0.7300   -1.4270 C   0  0  0  0  0  0  0  0  0  0  0  0
   -0.8840    0.7700   -0.0830 O   0  0  0  0  0  0  0  0  0  0  0  0
   -0.5920    1.8900   -2.0550 C   0  0  0  0  0  0  0  0  0  0  0  0
   -0.7740    2.2840   -3.2840 C   0  0  0  0  0  0  0  0  0  0  0  0
   -1.6110    1.5200   -4.2190 C   0  0  0  0  0  0  0  0  0  0  0  0
   -2.2020    0.5050   -3.7950 O   0  0  0  0  0  0  0  0  0  0  0  0
   -1.8260    1.8420   -5.5770 N   0  0  0  0  0  0  0  0  0  0  0  0
   -1.1830    3.0120   -6.0730 C   0  0  0  0  0  0  0  0  0  0  0  0
   -1.4190    3.2480   -7.3260 O   0  0  0  0  0  0  0  0  0  0  0  0
   -0.3850    3.7620   -5.2160 C   0  0  0  0  0  0  0  0  0  0  0  0
   -0.1640    3.4730   -3.9190 C   0  0  0  0  0  0  0  0  0  0  0  0
    0.6820    4.4350   -3.1960 C   0  0  0  0  0  0  0  0  0  0  0  0
    1.6720    3.4950   -1.9980 S   0  0  0  0  0  0  0  0  0  0  0  0
    0.4440    2.5510   -1.1250 C   0  0  2  0  0  0  0  0  0  0  0  0
    1.1790    1.4210   -0.4400 C   0  0  0  0  0  0  0  0  0  0  0  0
    1.5670    0.3440   -1.1210 C   0  0  0  0  0  0  0  0  0  0  0  0
    2.2240   -0.7500   -0.5220 C   0  0  0  0  0  0  0  0  0  0  0  0
    2.6340   -1.9210   -1.3220 C   0  0  0  0  0  0  0  0  0  0  0  0
    2.4410   -0.6230    0.8090 C   0  0  0  0  0  0  0  0  0  0  0  0
    3.0840   -1.7560    1.5720 C   0  0  0  0  0  0  0  0  0  0  0  0
    1.9940   -2.7850    1.8740 C   0  0  0  0  0  0  0  0  0  0  0  0
    0.6950   -1.9700    2.8950 S   0  0  0  0  0  0  0  0  0  0  0  0
    2.0400    0.5170    1.5470 C   0  0  0  0  0  0  0  0  0  0  0  0
    1.3900    1.5850    0.9390 C   0  0  0  0  0  0  0  0  0  0  0  0
    0.9760    2.7000    1.6020 O   0  0  0  0  0  0  0  0  0  0  0  0
    1.1440    2.9520    2.9380 C   0  0  0  0  0  0  0  0  0  0  0  0
    2.5560    3.1170    3.4020 C   0  0  0  0  0  0  0  0  0  0  0  0
    3.2310    4.2520    2.7180 N   0  0  0  0  0  0  0  0  0  0  0  0
    4.5850    4.3000    3.1860 C   0  0  0  0  0  0  0  0  0  0  0  0
   -2.1050   -2.6710   -0.8640 C   0  0  0  0  0  0  0  0  0  0  0  0
   -1.5200   -3.1010   -2.0770 N   0  0  0  0  0  0  0  0  0  0  0  0
   -2.5280   -3.5990    0.0150 C   0  0  0  0  0  0  0  0  0  0  0  0
   -2.4270   -5.0500   -0.2460 C   0  0  0  0  0  0  0  0  0  0  0  0
  1  2  2  0
  2  3  1  0
  3  4  2  0
  3 40  1  0
  4  5  1  0
  4  6  1  0
  6  7  2  0
  7  8  1  0
  7 38  1  0
  8  9  1  0
  9 10  2  0
  9 11  1  0
 11 12  2  0
 11 22  1  0
 12 13  1  0
 12 19  1  0
 13 14  2  0
 13 15  1  0
 15 16  1  0
 16 17  2  0
 16 18  1  0
 18 19  2  0
 19 20  1  0
 20 21  1  0
 21 22  1  0
 22 23  1  6
 23 24  2  0
 23 32  1  0
 24 25  1  0
 25 26  1  0
 25 27  2  0
 27 28  1  0
 27 31  1  0
 28 29  1  0
 29 30  1  0
 31 32  2  0
 32 33  1  0
 33 34  1  0
 34 35  1  0
 35 36  1  0
 36 37  1  0
 38 39  1  0
 38 40  2  0
 40 41  1  0
M  CHG  1   2   1
M  END
