
     RDKit          3D

 41 45  0  0  0  0  0  0  0  0999 V2000
   -4.3510    2.2430    3.4200 C   0  0  0  0  0  0  0  0  0  0  0  0
   -4.9880    1.7030    2.1740 C   0  0  0  0  0  0  0  0  0  0  0  0
   -6.2680    1.7850    1.8700 O   0  0  0  0  0  0  0  0  0  0  0  0
   -6.5260    1.2200    0.7130 C   0  0  0  0  0  0  0  0  0  0  0  0
   -7.8240    1.1220    0.0620 C   0  0  0  0  0  0  0  0  0  0  0  0
   -8.9660    1.6370    0.6290 C   0  0  0  0  0  0  0  0  0  0  0  0
  -10.2020    1.5260   -0.0230 C   0  0  0  0  0  0  0  0  0  0  0  0
  -10.2810    0.8900   -1.2540 C   0  0  0  0  0  0  0  0  0  0  0  0
   -9.1290    0.3700   -1.8280 C   0  0  0  0  0  0  0  0  0  0  0  0
   -7.9120    0.4930   -1.1600 C   0  0  0  0  0  0  0  0  0  0  0  0
   -5.3350    0.7560    0.2670 N   0  0  0  0  0  0  0  0  0  0  0  0
   -4.3630    1.0380    1.1470 C   0  0  0  0  0  0  0  0  0  0  0  0
   -2.9090    0.6920    1.0200 C   0  0  0  0  0  0  0  0  0  0  0  0
   -2.6040   -0.4660    1.9070 C   0  0  0  0  0  0  0  0  0  0  0  0
   -1.2820   -0.8360    1.8260 O   0  0  0  0  0  0  0  0  0  0  0  0
   -0.4890   -1.3430    0.8480 C   0  0  0  0  0  0  0  0  0  0  0  0
   -0.9270   -1.6520   -0.4110 C   0  0  0  0  0  0  0  0  0  0  0  0
   -0.0680   -2.1580   -1.3590 C   0  0  0  0  0  0  0  0  0  0  0  0
    1.2560   -2.3600   -1.0410 C   0  0  0  0  0  0  0  0  0  0  0  0
    2.2170   -2.9140   -2.0510 C   0  0  0  0  0  0  0  0  0  0  0  0
    2.8150   -1.7890   -2.8240 C   0  0  2  0  0  0  0  0  0  0  0  0
    3.5320   -0.8860   -1.9360 N   0  0  0  0  0  0  0  0  0  0  0  0
    4.7330   -1.2800   -1.3120 C   0  0  0  0  0  0  0  0  0  0  0  0
    5.3690   -2.4410   -1.7850 C   0  0  0  0  0  0  0  0  0  0  0  0
    6.5850   -2.8590   -1.2960 C   0  0  0  0  0  0  0  0  0  0  0  0
    7.1620   -2.0960   -0.3180 C   0  0  0  0  0  0  0  0  0  0  0  0
    6.5480   -0.9450    0.1640 C   0  0  0  0  0  0  0  0  0  0  0  0
    5.3120   -0.5230   -0.3370 C   0  0  0  0  0  0  0  0  0  0  0  0
    4.6480    0.6000    0.2840 C   0  0  0  0  0  0  0  0  0  0  0  0
    3.3990    0.8520    0.1000 O   0  0  0  0  0  0  0  0  0  0  0  0
    5.2890    1.5700    1.1750 C   0  0  0  0  0  0  0  0  0  0  0  0
    6.5780    1.9840    1.0380 C   0  0  0  0  0  0  0  0  0  0  0  0
    7.1400    2.8690    1.9630 C   0  0  0  0  0  0  0  0  0  0  0  0
    6.4080    3.3410    3.0280 C   0  0  0  0  0  0  0  0  0  0  0  0
    5.1030    2.9180    3.1580 C   0  0  0  0  0  0  0  0  0  0  0  0
    4.5600    2.0480    2.2450 C   0  0  0  0  0  0  0  0  0  0  0  0
    1.7740   -1.0360   -3.5940 C   0  0  0  0  0  0  0  0  0  0  0  0
    1.6310    0.1740   -3.3590 O   0  0  0  0  0  0  0  0  0  0  0  0
    0.9900   -1.6540   -4.5420 O   0  0  0  0  0  0  0  0  0  0  0  0
    1.7030   -2.0540    0.2190 C   0  0  0  0  0  0  0  0  0  0  0  0
    0.8590   -1.5520    1.1630 C   0  0  0  0  0  0  0  0  0  0  0  0
  1  2  1  0
  2  3  1  0
  2 12  2  0
  3  4  1  0
  4  5  1  0
  4 11  2  0
  5  6  2  0
  5 10  1  0
  6  7  1  0
  7  8  2  0
  8  9  1  0
  9 10  2  0
 11 12  1  0
 12 13  1  0
 13 14  1  0
 14 15  1  0
 15 16  1  0
 16 17  2  0
 16 41  1  0
 17 18  1  0
 18 19  2  0
 19 20  1  0
 19 40  1  0
 21 20  1  1
 21 22  1  0
 21 37  1  0
 22 23  1  0
 23 24  2  0
 23 28  1  0
 24 25  1  0
 25 26  2  0
 26 27  1  0
 27 28  2  0
 28 29  1  0
 29 30  2  0
 29 31  1  0
 31 32  2  0
 31 36  1  0
 32 33  1  0
 33 34  2  0
 34 35  1  0
 35 36  2  0
 37 38  2  0
 37 39  1  0
 40 41  2  0
M  END
