
     RDKit          3D

 41 45  0  0  0  0  0  0  0  0999 V2000
    6.8960    4.6280    0.1640 C   0  0  0  0  0  0  0  0  0  0  0  0
    7.5720    3.4810   -0.0530 C   0  0  0  0  0  0  0  0  0  0  0  0
    6.8060    2.2310    0.0090 C   0  0  0  0  0  0  0  0  0  0  0  0
    7.3660    1.0620   -0.1880 C   0  0  0  0  0  0  0  0  0  0  0  0
    6.5960   -0.1740   -0.1240 C   0  0  0  0  0  0  0  0  0  0  0  0
    7.2440   -1.3620   -0.3420 C   0  0  0  0  0  0  0  0  0  0  0  0
    6.4890   -2.5330   -0.2760 C   0  0  0  0  0  0  0  0  0  0  0  0
    5.1530   -2.4880   -0.0040 C   0  0  0  0  0  0  0  0  0  0  0  0
    4.3740   -3.7380    0.0610 C   0  0  0  0  0  0  0  0  0  0  0  0
    4.4600   -1.2840    0.2250 C   0  0  0  0  0  0  0  0  0  0  0  0
    3.0800   -1.3220    0.4990 N   0  0  0  0  0  0  0  0  0  0  0  0
    2.2630   -0.2310    0.7470 C   0  0  0  0  0  0  0  0  0  0  0  0
    2.7070    0.9380    0.7460 O   0  0  0  0  0  0  0  0  0  0  0  0
    0.7960   -0.3280    1.0340 C   0  0  0  0  0  0  0  0  0  0  0  0
    0.2820   -1.6560    1.0340 N   0  0  1  0  0  0  0  0  0  0  0  0
    0.7760   -2.4340    2.1680 C   0  0  0  0  0  0  0  0  0  0  0  0
   -1.1460   -1.7240    1.0230 C   0  0  1  0  0  0  0  0  0  0  0  0
   -1.8720   -0.4560    1.2720 C   0  0  0  0  0  0  0  0  0  0  0  0
   -2.5860   -0.1490   -0.0160 C   0  0  0  0  0  0  0  0  0  0  0  0
   -3.0010   -1.5200   -0.5020 C   0  0  1  0  0  0  0  0  0  0  0  0
   -3.3140   -1.4110   -1.9080 N   0  0  0  0  0  0  0  0  0  0  0  0
   -4.8670   -1.9830   -2.3150 S   0  0  1  0  0  0  0  0  0  0  0  0
   -4.8280   -2.5390   -3.7210 O   0  0  0  0  0  0  0  0  0  0  0  0
   -5.2250   -3.0970   -1.3480 O   0  0  0  0  0  0  0  0  0  0  0  0
   -6.0950   -0.8010   -2.2320 N   0  0  0  0  0  0  0  0  0  0  0  0
   -6.6440   -0.8280   -0.8840 C   0  0  0  0  0  0  0  0  0  0  0  0
   -7.7410    0.1920   -0.7290 C   0  0  0  0  0  0  0  0  0  0  0  0
   -9.0280   -0.2050   -1.0250 C   0  0  0  0  0  0  0  0  0  0  0  0
  -10.0410    0.7450   -0.8790 C   0  0  0  0  0  0  0  0  0  0  0  0
   -9.7000    2.0030   -0.4530 C   0  0  0  0  0  0  0  0  0  0  0  0
   -8.4270    2.4130   -0.1540 C   0  0  0  0  0  0  0  0  0  0  0  0
   -7.4210    1.4440   -0.3080 C   0  0  0  0  0  0  0  0  0  0  0  0
   -8.2820    3.7310    0.2510 N   0  0  0  0  0  0  0  0  0  0  0  0
   -9.4560    4.3270    0.8600 C   0  0  0  0  0  0  0  0  0  0  0  0
  -10.7270    3.4350   -0.1440 S   0  0  0  0  0  0  0  0  0  0  0  0
   -1.6760   -2.2740   -0.3030 C   0  0  0  0  0  0  0  0  0  0  0  0
    5.2180   -0.1530    0.1550 C   0  0  0  0  0  0  0  0  0  0  0  0
    8.7990    1.0580   -0.4740 C   0  0  0  0  0  0  0  0  0  0  0  0
    9.5510    2.1410   -0.5450 C   0  0  0  0  0  0  0  0  0  0  0  0
   10.9240    2.0420   -0.8270 O   0  0  0  0  0  0  0  0  0  0  0  0
    9.0110    3.4950   -0.3390 C   0  0  0  0  0  0  0  0  0  0  0  0
  1  2  2  0
  2  3  1  0
  2 41  1  0
  3  4  2  0
  4  5  1  0
  4 38  1  0
  5  6  2  0
  5 37  1  0
  6  7  1  0
  7  8  2  0
  8  9  1  0
  8 10  1  0
 10 11  1  0
 10 37  2  0
 11 12  1  0
 12 13  2  0
 12 14  1  0
 14 15  1  0
 15 16  1  1
 15 17  1  0
 17 18  1  6
 17 36  1  0
 18 19  1  0
 19 20  1  0
 20 21  1  6
 20 36  1  0
 22 21  1  1
 22 23  2  0
 22 24  2  0
 22 25  1  0
 25 26  1  0
 26 27  1  0
 27 28  2  0
 27 32  1  0
 28 29  1  0
 29 30  2  0
 30 31  1  0
 30 35  1  0
 31 32  2  0
 31 33  1  0
 33 34  1  0
 34 35  1  0
 38 39  2  0
 39 40  1  0
 39 41  1  0
M  CHG  1  15   1
M  END
