
     RDKit          3D

 41 45  0  0  0  0  0  0  0  0999 V2000
   -6.8740   -4.7930   -1.0610 C   0  0  0  0  0  0  0  0  0  0  0  0
   -5.6780   -3.9340   -0.8280 C   0  0  0  0  0  0  0  0  0  0  0  0
   -5.0970   -3.1940   -1.8310 C   0  0  0  0  0  0  0  0  0  0  0  0
   -3.9900   -2.4120   -1.5670 C   0  0  0  0  0  0  0  0  0  0  0  0
   -3.4230   -2.3360   -0.3120 C   0  0  0  0  0  0  0  0  0  0  0  0
   -2.2950   -1.5350   -0.0480 O   0  0  0  0  0  0  0  0  0  0  0  0
   -2.5020   -0.2110    0.4000 C   0  0  0  0  0  0  0  0  0  0  0  0
   -3.7740    0.2690    0.5720 C   0  0  0  0  0  0  0  0  0  0  0  0
   -4.0100    1.5860    1.0180 C   0  0  0  0  0  0  0  0  0  0  0  0
   -5.3540    1.9930    1.1160 N   0  0  0  0  0  0  0  0  0  0  0  0
   -5.8410    2.9760    1.9720 C   0  0  0  0  0  0  0  0  0  0  0  0
   -4.9170    3.7540    3.0440 S   0  0  0  0  0  0  0  0  0  0  0  0
   -7.2250    3.3090    1.9510 N   0  0  0  0  0  0  0  0  0  0  0  0
   -8.1230    2.6430    1.0550 C   0  0  2  0  0  0  0  0  0  0  0  0
   -7.9980    2.6680   -0.4020 C   0  0  0  0  0  0  0  0  0  0  0  0
   -9.0230    3.4620    0.2900 N   0  0  0  0  0  0  0  0  0  0  0  0
   -2.9510    2.3950    1.2820 C   0  0  0  0  0  0  0  0  0  0  0  0
   -1.6460    1.9000    1.1050 C   0  0  0  0  0  0  0  0  0  0  0  0
   -1.4400    0.6110    0.6680 C   0  0  0  0  0  0  0  0  0  0  0  0
   -0.0290    0.1560    0.4690 C   0  0  0  0  0  0  0  0  0  0  0  0
    0.3190    0.1860   -0.9910 C   0  0  0  0  0  0  0  0  0  0  0  0
    1.6480   -0.1920   -1.3210 N   0  0  0  0  0  0  0  0  0  0  0  0
    2.7580    0.5160   -0.8160 C   0  0  0  0  0  0  0  0  0  0  0  0
    2.5400    1.5030   -0.0420 O   0  0  0  0  0  0  0  0  0  0  0  0
    4.1490    0.1800   -1.1360 C   0  0  0  0  0  0  0  0  0  0  0  0
    4.4960   -0.7520   -2.0960 C   0  0  0  0  0  0  0  0  0  0  0  0
    5.8110   -1.0400   -2.3980 C   0  0  0  0  0  0  0  0  0  0  0  0
    6.8460   -0.3810   -1.7250 C   0  0  0  0  0  0  0  0  0  0  0  0
    6.5260    0.5520   -0.7630 C   0  0  0  0  0  0  0  0  0  0  0  0
    7.5740    1.2410   -0.0680 N   0  0  0  0  0  0  0  0  0  0  0  0
    8.9630    1.0010   -0.2490 C   0  0  1  0  0  0  0  0  0  0  0  0
    9.7430    2.0480    0.5340 C   0  0  0  0  0  0  0  0  0  0  0  0
   11.2040    1.7810    0.2250 C   0  0  0  0  0  0  0  0  0  0  0  0
   11.2240   -0.0160    0.1780 S   0  0  1  0  0  0  0  0  0  0  0  0
   11.5900   -0.4980   -1.1810 O   0  0  0  0  0  0  0  0  0  0  0  0
   12.0330   -0.6000    1.2710 O   0  0  0  0  0  0  0  0  0  0  0  0
    9.4540   -0.3010    0.4110 C   0  0  0  0  0  0  0  0  0  0  0  0
    5.2000    0.8060   -0.4960 C   0  0  0  0  0  0  0  0  0  0  0  0
   -3.9970   -3.0750    0.7020 C   0  0  0  0  0  0  0  0  0  0  0  0
   -5.1170   -3.8630    0.4280 C   0  0  0  0  0  0  0  0  0  0  0  0
   -5.7350   -4.6550    1.5190 C   0  0  0  0  0  0  0  0  0  0  0  0
  1  2  1  0
  2  3  2  0
  2 40  1  0
  3  4  1  0
  4  5  2  0
  5  6  1  0
  5 39  1  0
  6  7  1  0
  7  8  2  0
  7 19  1  0
  8  9  1  0
  9 10  1  0
  9 17  2  0
 10 11  1  0
 11 12  2  0
 11 13  1  0
 14 13  1  1
 14 15  1  0
 14 16  1  0
 15 16  1  0
 17 18  1  0
 18 19  2  0
 19 20  1  0
 20 21  1  0
 21 22  1  0
 22 23  1  0
 23 24  2  0
 23 25  1  0
 25 26  2  0
 25 38  1  0
 26 27  1  0
 27 28  2  0
 28 29  1  0
 29 30  1  0
 29 38  2  0
 31 30  1  1
 31 32  1  0
 31 37  1  0
 32 33  1  0
 34 33  1  6
 34 35  2  0
 34 36  2  0
 34 37  1  0
 39 40  2  0
 40 41  1  0
M  CHG  1  16   1
M  END
