
     RDKit          3D

 16 16  0  0  0  0  0  0  0  0999 V2000
    4.1650   -2.0120   -0.4900 N   0  0  0  0  0  0  0  0  0  0  0  0
    2.8830   -1.8750    0.0900 C   0  0  0  0  0  0  0  0  0  0  0  0
    2.2830   -2.8500    0.5910 O   0  0  0  0  0  0  0  0  0  0  0  0
    2.2430   -0.5740    0.1080 C   0  0  0  0  0  0  0  0  0  0  0  0
    2.8620    0.4010   -0.4020 O   0  0  0  0  0  0  0  0  0  0  0  0
    0.9810   -0.3840    0.6670 O   0  0  0  0  0  0  0  0  0  0  0  0
    0.3870    0.8740    0.6720 C   0  0  2  0  0  0  0  0  0  0  0  0
    0.0630    1.3650    2.0320 C   0  0  0  0  0  0  0  0  0  0  0  0
   -0.5490    2.6410    2.1750 N   0  0  0  0  0  0  0  0  0  0  0  0
    0.2950    0.7190    3.0860 O   0  0  0  0  0  0  0  0  0  0  0  0
   -0.8960    0.8590   -0.1480 C   0  0  2  0  0  0  0  0  0  0  0  0
   -1.9460   -0.0300    0.4360 C   0  0  0  0  0  0  0  0  0  0  0  0
   -1.9040   -1.3230   -0.1190 O   0  0  0  0  0  0  0  0  0  0  0  0
   -2.1250   -1.3070   -1.4760 C   0  0  0  0  0  0  0  0  0  0  0  0
   -1.8370    0.0680   -2.0180 C   0  0  0  0  0  0  0  0  0  0  0  0
   -0.6350    0.5040   -1.4670 O   0  0  0  0  0  0  0  0  0  0  0  0
  1  2  1  0
  2  3  2  0
  2  4  1  0
  4  5  2  0
  4  6  1  0
  7  6  1  1
  7  8  1  0
  7 11  1  0
  8  9  1  0
  8 10  2  0
 11 12  1  1
 11 16  1  0
 12 13  1  0
 13 14  1  0
 14 15  1  0
 15 16  1  0
M  END
