
     RDKit          3D

 16 17  0  0  0  0  0  0  0  0999 V2000
    4.0320   -1.9600    0.1970 O   0  0  0  0  0  0  0  0  0  0  0  0
    2.9270   -1.3570    0.1500 C   0  0  0  0  0  0  0  0  0  0  0  0
    2.7070    0.0460    0.2880 N   0  0  0  0  0  0  0  0  0  0  0  0
    1.4450    0.3120   -0.3710 C   0  0  2  0  0  0  0  0  0  0  0  0
    0.8450    1.6120   -0.0340 C   0  0  1  0  0  0  0  0  0  0  0  0
    0.6670    2.3700   -1.2120 O   0  0  0  0  0  0  0  0  0  0  0  0
   -0.4650    1.5710    0.6680 C   0  0  1  0  0  0  0  0  0  0  0  0
   -1.1120    2.8030    0.4190 O   0  0  0  0  0  0  0  0  0  0  0  0
   -1.3400    0.5090    0.0310 C   0  0  2  0  0  0  0  0  0  0  0  0
   -2.5930    0.5950    0.6620 O   0  0  0  0  0  0  0  0  0  0  0  0
   -0.7370   -0.8450    0.2730 C   0  0  1  0  0  0  0  0  0  0  0  0
   -1.4410   -1.8320   -0.6500 C   0  0  0  0  0  0  0  0  0  0  0  0
   -2.8030   -1.8690   -0.3990 O   0  0  0  0  0  0  0  0  0  0  0  0
    0.6690   -0.8450   -0.0280 N   0  0  0  0  0  0  0  0  0  0  0  0
    1.5890   -1.9430   -0.0580 C   0  0  0  0  0  0  0  0  0  0  0  0
    1.3600   -3.1660   -0.2220 O   0  0  0  0  0  0  0  0  0  0  0  0
  1  2  2  0
  2  3  1  0
  2 15  1  0
  4  3  1  1
  4  5  1  0
  4 14  1  0
  5  6  1  6
  5  7  1  0
  7  8  1  6
  7  9  1  0
  9 10  1  1
  9 11  1  0
 11 12  1  6
 11 14  1  0
 12 13  1  0
 14 15  1  0
 15 16  2  0
M  END
