
     RDKit          3D

 16 16  0  0  0  0  0  0  0  0999 V2000
    5.1160    1.2380   -1.2930 C   0  0  0  0  0  0  0  0  0  0  0  0
    4.6270    0.1590   -0.5110 O   0  0  0  0  0  0  0  0  0  0  0  0
    3.3220    0.1560   -0.0490 C   0  0  0  0  0  0  0  0  0  0  0  0
    2.5850    1.1190   -0.3330 O   0  0  0  0  0  0  0  0  0  0  0  0
    2.8590   -1.0040    0.7700 C   0  0  0  0  0  0  0  0  0  0  0  0
    1.4750   -0.7900    1.1370 N   0  0  0  0  0  0  0  0  0  0  0  0
    0.4690   -0.6480    0.1290 C   0  0  0  0  0  0  0  0  0  0  0  0
    0.8000   -0.7120   -1.0600 O   0  0  0  0  0  0  0  0  0  0  0  0
   -0.8810   -0.4400    0.4590 N   0  0  0  0  0  0  0  0  0  0  0  0
   -1.9510   -0.2880   -0.5050 C   0  0  1  0  0  0  0  0  0  0  0  0
   -3.1330   -1.1830   -0.1970 C   0  0  2  0  0  0  0  0  0  0  0  0
   -4.0860   -0.9360   -1.1960 O   0  0  0  0  0  0  0  0  0  0  0  0
   -3.6180   -0.5370    1.0670 C   0  0  0  0  0  0  0  0  0  0  0  0
   -3.3210    0.7980    0.9960 O   0  0  0  0  0  0  0  0  0  0  0  0
   -2.6100    1.0400   -0.1610 C   0  0  1  0  0  0  0  0  0  0  0  0
   -1.6220    1.9820    0.0930 O   0  0  0  0  0  0  0  0  0  0  0  0
  1  2  1  0
  2  3  1  0
  3  4  2  0
  3  5  1  0
  5  6  1  0
  6  7  1  0
  7  8  2  0
  7  9  1  0
 10  9  1  1
 10 11  1  0
 10 15  1  0
 11 12  1  6
 11 13  1  0
 13 14  1  0
 14 15  1  0
 15 16  1  1
M  END
