
     RDKit          3D

 16 16  0  0  0  0  0  0  0  0999 V2000
    5.0630    0.0150    0.2140 C   0  0  0  0  0  0  0  0  0  0  0  0
    3.7870    0.0040   -0.3880 O   0  0  0  0  0  0  0  0  0  0  0  0
    2.6680    0.3560    0.3760 C   0  0  0  0  0  0  0  0  0  0  0  0
    2.7810    0.6830    1.5920 O   0  0  0  0  0  0  0  0  0  0  0  0
    1.3680    0.3570   -0.1920 N   0  0  0  0  0  0  0  0  0  0  0  0
    0.1770    0.7140    0.5600 C   0  0  1  0  0  0  0  0  0  0  0  0
   -0.4550    1.9060   -0.0710 C   0  0  0  0  0  0  0  0  0  0  0  0
   -1.2810    1.6820   -1.1190 O   0  0  0  0  0  0  0  0  0  0  0  0
   -2.0840    0.6060   -1.1150 C   0  0  0  0  0  0  0  0  0  0  0  0
   -1.4830   -0.6780   -0.6340 C   0  0  2  0  0  0  0  0  0  0  0  0
   -0.6690   -1.2430   -1.6140 O   0  0  0  0  0  0  0  0  0  0  0  0
   -2.6010   -1.6180   -0.3460 C   0  0  0  0  0  0  0  0  0  0  0  0
   -3.5980   -1.3000    0.6260 N   0  0  0  0  0  0  0  0  0  0  0  0
   -2.7000   -2.7260   -0.9560 O   0  0  0  0  0  0  0  0  0  0  0  0
   -0.7080   -0.4920    0.6290 C   0  0  2  0  0  0  0  0  0  0  0  0
   -1.5050   -0.4480    1.7490 O   0  0  0  0  0  0  0  0  0  0  0  0
  1  2  1  0
  2  3  1  0
  3  4  2  0
  3  5  1  0
  6  5  1  6
  6  7  1  0
  6 15  1  0
  7  8  1  0
  8  9  1  0
  9 10  1  0
 10 11  1  6
 10 12  1  0
 10 15  1  0
 12 13  1  0
 12 14  2  0
 15 16  1  1
M  END
