
     RDKit          3D

 15 15  0  0  0  0  0  0  0  0999 V2000
    2.9100   -1.8350    0.1690 O   0  0  0  0  0  0  0  0  0  0  0  0
    2.7130   -0.6110   -0.0430 C   0  0  0  0  0  0  0  0  0  0  0  0
    1.4160   -0.1350   -0.3800 N   0  0  0  0  0  0  0  0  0  0  0  0
    0.2730   -1.0200   -0.4930 C   0  0  0  0  0  0  0  0  0  0  0  0
   -0.9330   -0.1830   -0.8610 C   0  0  1  0  0  0  0  0  0  0  0  0
   -0.6600    0.4410   -2.0780 O   0  0  0  0  0  0  0  0  0  0  0  0
   -2.1680   -1.0300   -1.0490 C   0  0  0  0  0  0  0  0  0  0  0  0
   -3.3130   -0.1420   -0.9790 N   0  0  0  0  0  0  0  0  0  0  0  0
   -3.6370    0.1600    0.3810 C   0  0  0  0  0  0  0  0  0  0  0  0
   -2.3420    0.4670    1.1120 C   0  0  0  0  0  0  0  0  0  0  0  0
   -1.2420    0.8770    0.1550 C   0  0  2  0  0  0  0  0  0  0  0  0
   -1.6130    2.0710   -0.4330 O   0  0  0  0  0  0  0  0  0  0  0  0
    3.8110    0.2450    0.0650 O   0  0  0  0  0  0  0  0  0  0  0  0
    5.1030   -0.1920    0.3950 C   0  0  0  0  0  0  0  0  0  0  0  0
    5.9380    0.9240    0.4120 O   0  0  0  0  0  0  0  0  0  0  0  0
  1  2  2  0
  2  3  1  0
  2 13  1  0
  3  4  1  0
  4  5  1  0
  5  6  1  6
  5  7  1  0
  5 11  1  0
  7  8  1  0
  8  9  1  0
  9 10  1  0
 10 11  1  0
 11 12  1  6
 13 14  1  0
 14 15  1  0
M  END
