
     RDKit          3D

 35 38  0  0  0  0  0  0  0  0999 V2000
    4.3300   -0.8270    2.8110 C   0  0  0  0  0  0  0  0  0  0  0  0
    4.9320   -2.1130    2.2950 C   0  0  0  0  0  0  0  0  0  0  0  0
    5.3020   -1.8890    0.9010 N   0  0  0  0  0  0  0  0  0  0  0  0
    4.2570   -1.6980   -0.1110 C   0  0  0  0  0  0  0  0  0  0  0  0
    3.2040   -1.2740    0.1730 N   0  0  0  0  0  0  0  0  0  0  0  0
    1.9380   -0.8130    0.2390 C   0  0  0  0  0  0  0  0  0  0  0  0
    0.8890   -1.8210    0.6180 C   0  0  0  0  0  0  0  0  0  0  0  0
    1.6260    0.4490   -0.0150 C   0  0  0  0  0  0  0  0  0  0  0  0
    2.7530    1.3420   -0.3820 C   0  0  0  0  0  0  0  0  0  0  0  0
    3.9240    0.9040   -0.4320 O   0  0  0  0  0  0  0  0  0  0  0  0
    2.5050    2.7110   -0.6810 N   0  0  0  0  0  0  0  0  0  0  0  0
    1.3000    3.1500   -0.6250 C   0  0  0  0  0  0  0  0  0  0  0  0
    1.0360    4.8790   -1.0090 S   0  0  0  0  0  0  0  0  0  0  0  0
   -0.6700    5.3310   -0.8400 C   0  0  0  0  0  0  0  0  0  0  0  0
   -1.7450    4.6090   -0.4690 N   0  0  0  0  0  0  0  0  0  0  0  0
   -2.8600    5.3490   -0.4800 C   0  0  0  0  0  0  0  0  0  0  0  0
   -2.4680    6.6060   -0.8790 C   0  0  0  0  0  0  0  0  0  0  0  0
   -1.1350    6.5720   -1.0920 N   0  0  0  0  0  0  0  0  0  0  0  0
    0.2300    2.3120   -0.2780 N   0  0  0  0  0  0  0  0  0  0  0  0
    0.3270    1.0310    0.0190 C   0  0  0  0  0  0  0  0  0  0  0  0
   -0.8920    0.3910    0.3440 N   0  0  0  0  0  0  0  0  0  0  0  0
   -1.6200   -0.4030   -0.6060 C   0  0  0  0  0  0  0  0  0  0  0  0
   -2.5000   -1.4470    0.0380 C   0  0  0  0  0  0  0  0  0  0  0  0
   -3.4420   -0.8740    1.0620 C   0  0  2  0  0  0  0  0  0  0  0  0
   -3.5280   -1.8600    2.2230 C   0  0  0  0  0  0  0  0  0  0  0  0
   -4.8360   -0.7740    0.4850 C   0  0  2  0  0  0  0  0  0  0  0  0
   -5.8140   -0.1980    1.4890 C   0  0  0  0  0  0  0  0  0  0  0  0
   -5.3860   -2.0910    0.0240 C   0  0  0  0  0  0  0  0  0  0  0  0
   -2.9940    0.4370    1.6020 C   0  0  0  0  0  0  0  0  0  0  0  0
   -1.5140    0.6120    1.6610 C   0  0  0  0  0  0  0  0  0  0  0  0
    4.6460   -2.0620   -1.4440 N   0  0  0  0  0  0  0  0  0  0  0  0
    3.8120   -1.7670   -2.5930 C   0  0  2  0  0  0  0  0  0  0  0  0
    2.4230   -2.3250   -2.6800 C   0  0  0  0  0  0  0  0  0  0  0  0
    4.5680   -1.8030   -3.9340 C   0  0  0  0  0  0  0  0  0  0  0  0
    4.1650   -0.5180   -3.3440 C   0  0  0  0  0  0  0  0  0  0  0  0
  1  2  1  0
  2  3  1  0
  3  4  1  0
  4  5  2  3
  4 31  1  0
  5  6  1  0
  6  7  1  0
  6  8  2  3
  8  9  1  0
  8 20  1  0
  9 10  2  0
  9 11  1  0
 11 12  2  0
 12 13  1  0
 12 19  1  0
 13 14  1  0
 14 15  1  0
 14 18  2  0
 15 16  1  0
 16 17  2  0
 17 18  1  0
 19 20  2  0
 20 21  1  0
 21 22  1  0
 21 30  1  0
 22 23  1  0
 23 24  1  0
 24 25  1  1
 24 26  1  0
 24 29  1  0
 26 27  1  1
 26 28  1  0
 29 30  1  0
 31 32  1  0
 32 33  1  6
 32 34  1  0
 32 35  1  0
 34 35  1  0
M  CHG  1  18   1
M  END
