
     RDKit          3D

 35 39  0  0  0  0  0  0  0  0999 V2000
    4.6640   -3.1970   -2.1920 C   0  0  0  0  0  0  0  0  0  0  0  0
    3.8760   -3.2350   -0.9170 C   0  0  1  0  0  0  0  0  0  0  0  0
    4.6400   -3.9040    0.2090 C   0  0  0  0  0  0  0  0  0  0  0  0
    3.4110   -1.8750   -0.5070 C   0  0  0  0  0  0  0  0  0  0  0  0
    4.3570   -0.8810   -0.2090 C   0  0  0  0  0  0  0  0  0  0  0  0
    3.9980    0.3830    0.1720 C   0  0  0  0  0  0  0  0  0  0  0  0
    4.8450    1.4540    0.4830 N   0  0  0  0  0  0  0  0  0  0  0  0
    6.2340    1.4500    0.3120 C   0  0  0  0  0  0  0  0  0  0  0  0
    6.8250    0.4520   -0.1490 O   0  0  0  0  0  0  0  0  0  0  0  0
    7.0330    2.6090    0.6660 N   0  0  0  0  0  0  0  0  0  0  0  0
    8.4690    2.5040    0.4500 C   0  0  0  0  0  0  0  0  0  0  0  0
    9.2990    1.8240    0.0850 N   0  0  0  0  0  0  0  0  0  0  0  0
   10.6090    2.0280    0.0030 C   0  0  0  0  0  0  0  0  0  0  0  0
   11.0250    3.2170    0.4140 C   0  0  0  0  0  0  0  0  0  0  0  0
    9.4810    4.0420    0.9230 S   0  0  0  0  0  0  0  0  0  0  0  0
    2.6070    0.6100    0.2420 C   0  0  0  0  0  0  0  0  0  0  0  0
    1.6680   -0.3400   -0.0430 C   0  0  0  0  0  0  0  0  0  0  0  0
    0.2290   -0.1390    0.0190 C   0  0  0  0  0  0  0  0  0  0  0  0
   -0.6570   -1.1530   -0.2830 C   0  0  0  0  0  0  0  0  0  0  0  0
   -2.0360   -0.9420   -0.2190 C   0  0  0  0  0  0  0  0  0  0  0  0
   -2.5260    0.2920    0.1500 C   0  0  0  0  0  0  0  0  0  0  0  0
   -3.9640    0.5430    0.2260 C   0  0  0  0  0  0  0  0  0  0  0  0
   -4.9220   -0.3690   -0.0450 N   0  0  0  0  0  0  0  0  0  0  0  0
   -6.1180    0.2350    0.1360 C   0  0  0  0  0  0  0  0  0  0  0  0
   -5.9100    1.5070    0.5160 N   0  0  0  0  0  0  0  0  0  0  0  0
   -4.6090    1.6630    0.5610 N   0  0  0  0  0  0  0  0  0  0  0  0
   -7.0620    2.3560    0.7700 C   0  0  0  0  0  0  0  0  0  0  0  0
   -7.9940    1.5490    1.5500 N   0  0  0  0  0  0  0  0  0  0  0  0
   -8.5130    0.4510    0.7950 C   0  0  0  0  0  0  0  0  0  0  0  0
   -7.5040   -0.2890   -0.0190 C   0  0  2  0  0  0  0  0  0  0  0  0
   -7.4970   -1.7680    0.3870 C   0  0  0  0  0  0  0  0  0  0  0  0
   -7.9250   -0.2650   -1.4760 C   0  0  0  0  0  0  0  0  0  0  0  0
   -1.6490    1.3020    0.4510 C   0  0  0  0  0  0  0  0  0  0  0  0
   -0.2630    1.0820    0.3840 C   0  0  0  0  0  0  0  0  0  0  0  0
    2.1240   -1.5580   -0.4100 N   0  0  0  0  0  0  0  0  0  0  0  0
  2  1  1  6
  2  3  1  0
  2  4  1  0
  4  5  2  0
  4 35  1  0
  5  6  1  0
  6  7  1  0
  6 16  2  0
  7  8  1  0
  8  9  2  0
  8 10  1  0
 10 11  1  0
 11 12  2  0
 11 15  1  0
 12 13  1  0
 13 14  2  0
 14 15  1  0
 16 17  1  0
 17 18  1  0
 17 35  2  0
 18 19  2  0
 18 34  1  0
 19 20  1  0
 20 21  2  0
 21 22  1  0
 21 33  1  0
 22 23  1  0
 22 26  2  0
 23 24  2  0
 24 25  1  0
 24 30  1  0
 25 26  1  0
 25 27  1  0
 27 28  1  0
 28 29  1  0
 29 30  1  0
 30 31  1  1
 30 32  1  0
 33 34  2  0
M  CHG  1  28   1
M  END
