
     RDKit          3D

 34 38  0  0  0  0  0  0  0  0999 V2000
    3.6720    1.0070    1.6540 C   0  0  0  0  0  0  0  0  0  0  0  0
    4.2250    0.9790    0.1580 S   0  0  1  0  0  0  0  0  0  0  0  0
    3.0150    0.3400   -0.9760 C   0  0  0  0  0  0  0  0  0  0  0  0
    1.7400    1.0250   -0.8880 C   0  0  0  0  0  0  0  0  0  0  0  0
    0.5370    0.7190   -0.5810 C   0  0  0  0  0  0  0  0  0  0  0  0
   -0.0270   -0.5270   -0.1730 C   0  0  0  0  0  0  0  0  0  0  0  0
    0.6520   -1.6740    0.1640 C   0  0  0  0  0  0  0  0  0  0  0  0
    0.0530   -2.8490    0.5020 N   0  0  0  0  0  0  0  0  0  0  0  0
    0.8770   -3.9900    0.8360 C   0  0  0  0  0  0  0  0  0  0  0  0
   -1.2860   -2.8780    0.5070 C   0  0  0  0  0  0  0  0  0  0  0  0
   -1.8610   -3.9430    0.8140 O   0  0  0  0  0  0  0  0  0  0  0  0
   -2.0360   -1.7670    0.1820 C   0  0  0  0  0  0  0  0  0  0  0  0
   -3.4080   -1.5130    0.1040 C   0  0  0  0  0  0  0  0  0  0  0  0
   -3.6090   -0.2360   -0.2670 N   0  0  0  0  0  0  0  0  0  0  0  0
   -4.8830    0.4110   -0.4590 C   0  0  0  0  0  0  0  0  0  0  0  0
   -5.2180    1.0170   -1.6520 C   0  0  0  0  0  0  0  0  0  0  0  0
   -6.4350    1.6410   -1.8510 C   0  0  0  0  0  0  0  0  0  0  0  0
   -7.0070    2.3060   -2.9190 C   0  0  0  0  0  0  0  0  0  0  0  0
   -8.2270    2.7130   -2.5470 N   0  0  0  0  0  0  0  0  0  0  0  0
   -8.4260    2.3230   -1.2870 N   0  0  0  0  0  0  0  0  0  0  0  0
   -7.3580    1.6660   -0.8260 C   0  0  0  0  0  0  0  0  0  0  0  0
   -7.0520    1.0640    0.3910 C   0  0  0  0  0  0  0  0  0  0  0  0
   -5.8280    0.4500    0.5560 C   0  0  0  0  0  0  0  0  0  0  0  0
   -5.5040   -0.1980    1.8730 C   0  0  0  0  0  0  0  0  0  0  0  0
   -2.4100    0.2980   -0.4190 N   0  0  0  0  0  0  0  0  0  0  0  0
   -1.4370   -0.5890   -0.1580 C   0  0  0  0  0  0  0  0  0  0  0  0
    4.4160    2.5690   -0.0670 N   0  0  0  0  0  0  0  0  0  0  0  0
    4.0320    3.3160    1.1010 N   0  0  0  0  0  0  0  0  0  0  0  0
    5.7300    0.1680    0.0510 C   0  0  0  0  0  0  0  0  0  0  0  0
    6.0290   -0.9430    0.8100 C   0  0  0  0  0  0  0  0  0  0  0  0
    7.2690   -1.5730    0.6910 C   0  0  0  0  0  0  0  0  0  0  0  0
    8.2060   -1.1240   -0.1590 N   0  0  0  0  0  0  0  0  0  0  0  0
    7.9190   -0.0420   -0.9000 C   0  0  0  0  0  0  0  0  0  0  0  0
    6.7070    0.6060   -0.8100 C   0  0  0  0  0  0  0  0  0  0  0  0
  1  2  2  0
  2  3  1  6
  2 27  2  0
  2 29  1  0
  3  4  1  0
  4  5  2  3
  5  6  1  0
  6  7  2  0
  6 26  1  0
  7  8  1  0
  8  9  1  0
  8 10  1  0
 10 11  2  0
 10 12  1  0
 12 13  2  0
 12 26  1  0
 13 14  1  0
 14 15  1  0
 14 25  1  0
 15 16  2  0
 15 23  1  0
 16 17  1  0
 17 18  2  0
 17 21  1  0
 18 19  1  0
 19 20  1  0
 20 21  2  0
 21 22  1  0
 22 23  2  0
 23 24  1  0
 25 26  2  0
 27 28  1  0
 29 30  2  0
 29 34  1  0
 30 31  1  0
 31 32  2  0
 32 33  1  0
 33 34  2  0
M  CHG  1  32   1
M  END
