
     RDKit          3D

 34 37  0  0  0  0  0  0  0  0999 V2000
    6.1910    0.1060    3.0480 C   0  0  0  0  0  0  0  0  0  0  0  0
    5.3760    0.3600    2.0400 C   0  0  0  0  0  0  0  0  0  0  0  0
    4.8650   -0.6360    1.1610 C   0  0  0  0  0  0  0  0  0  0  0  0
    5.1770   -1.9040    1.2800 C   0  0  0  0  0  0  0  0  0  0  0  0
    4.7330   -3.0170    0.4530 C   0  0  0  0  0  0  0  0  0  0  0  0
    4.0800    0.0400    0.2850 C   0  0  0  0  0  0  0  0  0  0  0  0
    3.2340   -0.3720   -0.8230 C   0  0  0  0  0  0  0  0  0  0  0  0
    1.8650   -0.8570   -0.4300 C   0  0  0  0  0  0  0  0  0  0  0  0
    1.7100   -1.9730    0.0820 O   0  0  0  0  0  0  0  0  0  0  0  0
    0.7270   -0.0370   -0.6400 N   0  0  0  0  0  0  0  0  0  0  0  0
   -0.5960   -0.3650   -0.3380 C   0  0  0  0  0  0  0  0  0  0  0  0
   -1.0660   -1.6370   -0.0200 C   0  0  0  0  0  0  0  0  0  0  0  0
   -2.3890   -1.9220    0.2300 C   0  0  0  0  0  0  0  0  0  0  0  0
   -2.8760   -3.2330    0.5480 N   0  0  0  0  0  0  0  0  0  0  0  0
   -4.2270   -3.4820    0.9180 C   0  0  0  0  0  0  0  0  0  0  0  0
   -4.4350   -4.9520    1.1630 C   0  0  2  0  0  0  0  0  0  0  0  0
   -5.8890   -5.2500    1.5660 C   0  0  0  0  0  0  0  0  0  0  0  0
   -3.3720   -5.8180    1.7040 C   0  0  0  0  0  0  0  0  0  0  0  0
   -3.7950   -5.9150    0.2260 C   0  0  0  0  0  0  0  0  0  0  0  0
   -3.3070   -0.8850    0.1610 C   0  0  0  0  0  0  0  0  0  0  0  0
   -2.8810    0.3890   -0.1510 C   0  0  0  0  0  0  0  0  0  0  0  0
   -1.5510    0.6560   -0.3980 C   0  0  0  0  0  0  0  0  0  0  0  0
   -1.0980    1.9690   -0.6860 N   0  0  0  0  0  0  0  0  0  0  0  0
   -1.7410    2.6610   -1.5640 C   0  0  0  0  0  0  0  0  0  0  0  0
   -2.8850    2.1650   -2.2630 N   0  0  0  0  0  0  0  0  0  0  0  0
   -1.3690    3.9930   -1.8740 N   0  0  0  0  0  0  0  0  0  0  0  0
   -1.7390    5.0180   -0.9310 C   0  0  0  0  0  0  0  0  0  0  0  0
   -1.4730    6.3850   -1.4320 C   0  0  0  0  0  0  0  0  0  0  0  0
   -0.5410    6.6110   -2.3400 C   0  0  0  0  0  0  0  0  0  0  0  0
    0.2620    5.4910   -2.8790 C   0  0  0  0  0  0  0  0  0  0  0  0
   -0.6570    4.2870   -3.0870 C   0  0  0  0  0  0  0  0  0  0  0  0
    4.1200    1.4210    0.6290 C   0  0  0  0  0  0  0  0  0  0  0  0
    4.9070    1.5540    1.6820 N   0  0  0  0  0  0  0  0  0  0  0  0
    5.2500    2.8020    2.3950 C   0  0  0  0  0  0  0  0  0  0  0  0
  1  2  2  0
  2  3  1  0
  2 33  1  0
  3  4  2  3
  3  6  1  0
  4  5  1  0
  6  7  1  0
  6 32  2  0
  7  8  1  0
  8  9  2  0
  8 10  1  0
 10 11  1  0
 11 12  2  0
 11 22  1  0
 12 13  1  0
 13 14  1  0
 13 20  2  0
 14 15  1  0
 15 16  1  0
 16 17  1  1
 16 18  1  0
 16 19  1  0
 18 19  1  0
 20 21  1  0
 21 22  2  0
 22 23  1  0
 23 24  2  3
 24 25  1  0
 24 26  1  0
 26 27  1  0
 26 31  1  0
 27 28  1  0
 28 29  2  0
 29 30  1  0
 30 31  1  0
 32 33  1  0
 33 34  1  0
M  CHG  1  23   1
M  END
