
     RDKit          3D

 35 39  0  0  0  0  0  0  0  0999 V2000
   -2.6250    2.4520   -2.5030 C   0  0  0  0  0  0  0  0  0  0  0  0
   -3.6090    1.3070   -2.4090 C   0  0  0  0  0  0  0  0  0  0  0  0
   -3.0260    0.2360   -1.5280 N   0  0  0  0  0  0  0  0  0  0  0  0
   -2.2650   -0.7240   -2.2400 C   0  0  0  0  0  0  0  0  0  0  0  0
   -3.2990    0.3200   -0.1840 C   0  0  0  0  0  0  0  0  0  0  0  0
   -4.0750    1.4040    0.0430 O   0  0  0  0  0  0  0  0  0  0  0  0
   -2.9790   -0.4260    0.9940 C   0  0  0  0  0  0  0  0  0  0  0  0
   -3.4820   -0.0090    2.2550 C   0  0  0  0  0  0  0  0  0  0  0  0
   -4.2950    1.0840    2.5550 N   0  0  0  0  0  0  0  0  0  0  0  0
   -3.0120   -0.9000    3.1720 C   0  0  0  0  0  0  0  0  0  0  0  0
   -3.2990   -0.8440    4.6450 C   0  0  0  0  0  0  0  0  0  0  0  0
   -2.2850   -1.7870    2.5370 N   0  0  0  0  0  0  0  0  0  0  0  0
   -2.2540   -1.5100    1.1910 N   0  0  0  0  0  0  0  0  0  0  0  0
   -1.5150   -2.3540    0.3350 C   0  0  0  0  0  0  0  0  0  0  0  0
   -2.1100   -3.4860   -0.2270 C   0  0  0  0  0  0  0  0  0  0  0  0
   -1.4460   -4.3770   -1.0100 C   0  0  0  0  0  0  0  0  0  0  0  0
   -0.1140   -4.1390   -1.2550 C   0  0  0  0  0  0  0  0  0  0  0  0
    0.5110   -3.0220   -0.7130 C   0  0  0  0  0  0  0  0  0  0  0  0
   -0.1570   -2.1140    0.0830 C   0  0  0  0  0  0  0  0  0  0  0  0
    0.4890   -0.9660    0.6110 N   0  0  0  0  0  0  0  0  0  0  0  0
    1.8770   -0.7530    0.4650 C   0  0  2  0  0  0  0  0  0  0  0  0
    2.7420   -1.7140    1.2960 C   0  0  0  0  0  0  0  0  0  0  0  0
    4.1350   -1.3590    0.9670 C   0  0  0  0  0  0  0  0  0  0  0  0
    5.6430   -2.4140    1.0070 S   0  0  0  0  0  0  0  0  0  0  0  0
    6.7230   -0.9690    0.4250 C   0  0  0  0  0  0  0  0  0  0  0  0
    5.9310   -0.1530    0.3320 N   0  0  0  0  0  0  0  0  0  0  0  0
    4.6350   -0.1670    0.5530 C   0  0  0  0  0  0  0  0  0  0  0  0
    3.6830    0.9810    0.3860 C   0  0  1  0  0  0  0  0  0  0  0  0
    3.6770    1.4950   -1.0170 C   0  0  0  0  0  0  0  0  0  0  0  0
    2.7660    2.6010   -1.1920 N   0  0  0  0  0  0  0  0  0  0  0  0
    3.0270    3.9110   -1.0400 C   0  0  0  0  0  0  0  0  0  0  0  0
    1.8630    4.6010   -1.3170 C   0  0  0  0  0  0  0  0  0  0  0  0
    0.9260    3.6840   -1.6320 N   0  0  0  0  0  0  0  0  0  0  0  0
    1.4820    2.4740   -1.5530 C   0  0  0  0  0  0  0  0  0  0  0  0
    2.3410    0.6080    0.8670 C   0  0  0  0  0  0  0  0  0  0  0  0
  1  2  1  0
  2  3  1  0
  3  4  1  0
  3  5  1  0
  5  6  2  0
  5  7  1  0
  7  8  2  0
  7 13  1  0
  8  9  1  0
  8 10  1  0
 10 11  1  0
 10 12  2  0
 12 13  1  0
 13 14  1  0
 14 15  2  0
 14 19  1  0
 15 16  1  0
 16 17  2  0
 17 18  1  0
 18 19  2  0
 19 20  1  0
 21 20  1  1
 21 22  1  0
 21 35  1  0
 22 23  1  0
 23 24  1  0
 23 27  2  0
 24 25  1  0
 25 26  2  0
 26 27  1  0
 27 28  1  0
 28 29  1  6
 28 35  1  0
 29 30  1  0
 30 31  1  0
 30 34  1  0
 31 32  2  0
 32 33  1  0
 33 34  2  0
M  CHG  1  33   1
M  END
