
     RDKit          3D

 35 39  0  0  0  0  0  0  0  0999 V2000
   -7.6210    0.5570    3.2000 N   0  0  0  0  0  0  0  0  0  0  0  0
   -7.1820    0.8220    2.1570 C   0  0  0  0  0  0  0  0  0  0  0  0
   -6.6760    1.1370    0.8950 N   0  0  0  0  0  0  0  0  0  0  0  0
   -7.5410    0.9400   -0.2490 C   0  0  0  0  0  0  0  0  0  0  0  0
   -6.7940    0.9770   -1.4650 N   0  0  0  0  0  0  0  0  0  0  0  0
   -6.0130   -0.2350   -1.6970 C   0  0  0  0  0  0  0  0  0  0  0  0
   -4.7930   -0.1910   -0.8650 C   0  0  0  0  0  0  0  0  0  0  0  0
   -3.8340   -1.0950   -1.2800 C   0  0  0  0  0  0  0  0  0  0  0  0
   -2.6250   -1.2200   -0.6530 C   0  0  0  0  0  0  0  0  0  0  0  0
   -2.2880   -0.4390    0.4440 C   0  0  0  0  0  0  0  0  0  0  0  0
   -1.0270   -0.5830    1.0720 N   0  0  0  0  0  0  0  0  0  0  0  0
   -0.5380    0.1110    2.1950 C   0  0  0  0  0  0  0  0  0  0  0  0
   -1.2440    0.9600    2.7480 O   0  0  0  0  0  0  0  0  0  0  0  0
    0.8430   -0.1690    2.7360 C   0  0  0  0  0  0  0  0  0  0  0  0
    1.5610   -1.1450    1.9660 N   0  0  0  0  0  0  0  0  0  0  0  0
    1.3570   -2.4870    2.1940 C   0  0  0  0  0  0  0  0  0  0  0  0
    2.1160   -3.2400    1.3530 C   0  0  0  0  0  0  0  0  0  0  0  0
    2.8040   -2.3240    0.5890 C   0  0  0  0  0  0  0  0  0  0  0  0
    2.4700   -1.0380    0.9610 C   0  0  0  0  0  0  0  0  0  0  0  0
    3.0730    0.2130    0.4880 C   0  0  0  0  0  0  0  0  0  0  0  0
    2.3420    1.3950    0.4310 C   0  0  0  0  0  0  0  0  0  0  0  0
    2.9210    2.5320    0.0560 N   0  0  0  0  0  0  0  0  0  0  0  0
    4.2060    2.5890   -0.2800 C   0  0  0  0  0  0  0  0  0  0  0  0
    4.9220    1.4660   -0.2300 N   0  0  0  0  0  0  0  0  0  0  0  0
    4.4030    0.2420    0.1520 C   0  0  0  0  0  0  0  0  0  0  0  0
    5.3190   -0.8250    0.2680 N   0  0  0  0  0  0  0  0  0  0  0  0
    6.6750   -0.6310   -0.1990 C   0  0  0  0  0  0  0  0  0  0  0  0
    6.6900   -0.1710   -1.6520 C   0  0  0  0  0  0  0  0  0  0  0  0
    7.0990    1.0370   -2.0230 C   0  0  0  0  0  0  0  0  0  0  0  0
    7.0890    1.4150   -3.3410 C   0  0  0  0  0  0  0  0  0  0  0  0
    6.4520   -0.0370   -4.1550 S   0  0  0  0  0  0  0  0  0  0  0  0
    6.2560   -1.0260   -2.6430 C   0  0  0  0  0  0  0  0  0  0  0  0
   -3.2470    0.4560    0.8480 C   0  0  0  0  0  0  0  0  0  0  0  0
   -4.4840    0.5930    0.2180 C   0  0  0  0  0  0  0  0  0  0  0  0
   -5.3170    1.6330    0.8710 C   0  0  0  0  0  0  0  0  0  0  0  0
  1  2  3  0
  2  3  1  0
  3  4  1  0
  3 35  1  0
  4  5  1  0
  5  6  1  0
  6  7  1  0
  7  8  2  0
  7 34  1  0
  8  9  1  0
  9 10  2  0
 10 11  1  0
 10 33  1  0
 11 12  1  0
 12 13  2  0
 12 14  1  0
 14 15  1  0
 15 16  1  0
 15 19  1  0
 16 17  2  0
 17 18  1  0
 18 19  2  0
 19 20  1  0
 20 21  2  0
 20 25  1  0
 21 22  1  0
 22 23  2  0
 23 24  1  0
 24 25  2  0
 25 26  1  0
 26 27  1  0
 27 28  1  0
 28 29  1  0
 28 32  2  0
 29 30  2  0
 30 31  1  0
 31 32  1  0
 33 34  2  0
 34 35  1  0
M  CHG  1   5   1
M  END
