
     RDKit          3D

 29 31  0  0  0  0  0  0  0  0999 V2000
    3.8010    0.1480   -0.6130 O   0  0  0  0  0  0  0  0  0  0  0  0
    4.1900   -0.8320    0.0600 C   0  0  0  0  0  0  0  0  0  0  0  0
    3.2580   -1.8090    0.5400 N   0  0  0  0  0  0  0  0  0  0  0  0
    1.9160   -1.6790    0.2550 N   0  0  0  0  0  0  0  0  0  0  0  0
    1.1370   -0.6470    0.8040 C   0  0  0  0  0  0  0  0  0  0  0  0
    1.6590    0.1900    1.5690 O   0  0  0  0  0  0  0  0  0  0  0  0
   -0.2760   -0.5710    0.4680 C   0  0  0  0  0  0  0  0  0  0  0  0
   -0.7780   -1.4590   -0.3140 O   0  0  0  0  0  0  0  0  0  0  0  0
   -1.1740    0.4040    0.9290 N   0  0  0  0  0  0  0  0  0  0  0  0
   -2.5840    0.4320    0.5630 C   0  0  0  0  0  0  0  0  0  0  0  0
   -3.0350    1.4780   -0.0910 C   0  0  0  0  0  0  0  0  0  0  0  0
   -4.3920    1.6990   -0.5290 C   0  0  0  0  0  0  0  0  0  0  0  0
   -5.4560    1.7420    0.3800 C   0  0  0  0  0  0  0  0  0  0  0  0
   -6.7500    1.9410   -0.0580 C   0  0  0  0  0  0  0  0  0  0  0  0
   -7.0490    2.1020   -1.3720 N   0  0  0  0  0  0  0  0  0  0  0  0
   -6.0380    2.0630   -2.2620 C   0  0  0  0  0  0  0  0  0  0  0  0
   -4.7380    1.8670   -1.8530 C   0  0  0  0  0  0  0  0  0  0  0  0
   -3.3400   -0.7740    0.8590 C   0  0  0  0  0  0  0  0  0  0  0  0
   -2.8720   -1.7510    1.7520 C   0  0  0  0  0  0  0  0  0  0  0  0
   -3.7870   -2.7700    1.7590 C   0  0  0  0  0  0  0  0  0  0  0  0
   -4.7920   -2.4470    0.9020 C   0  0  0  0  0  0  0  0  0  0  0  0
   -4.4920   -1.2410    0.3770 N   0  0  0  0  0  0  0  0  0  0  0  0
    5.5530   -1.0000    0.3620 N   0  0  0  0  0  0  0  0  0  0  0  0
    6.6180   -0.1560   -0.0130 C   0  0  0  0  0  0  0  0  0  0  0  0
    7.9410   -0.5950    0.1240 C   0  0  0  0  0  0  0  0  0  0  0  0
    9.0360    0.1640   -0.2040 C   0  0  0  0  0  0  0  0  0  0  0  0
    8.8200    1.4310   -0.6960 C   0  0  0  0  0  0  0  0  0  0  0  0
    7.5660    1.8790   -0.8400 N   0  0  0  0  0  0  0  0  0  0  0  0
    6.4780    1.1130   -0.5090 C   0  0  0  0  0  0  0  0  0  0  0  0
  1  2  2  0
  2  3  1  0
  2 23  1  0
  3  4  1  0
  4  5  1  0
  5  6  2  0
  5  7  1  0
  7  8  2  0
  7  9  1  0
  9 10  1  0
 10 11  2  3
 10 18  1  0
 11 12  1  0
 12 13  2  0
 12 17  1  0
 13 14  1  0
 14 15  2  0
 15 16  1  0
 16 17  2  0
 18 19  2  0
 18 22  1  0
 19 20  1  0
 20 21  2  0
 21 22  1  0
 23 24  1  0
 24 25  2  0
 24 29  1  0
 25 26  1  0
 26 27  2  0
 27 28  1  0
 28 29  2  0
M  CHG  1  15   1
M  END
