
     RDKit          3D

 29 32  0  0  0  0  0  0  0  0999 V2000
   -4.2820    3.4290    1.1120 C   0  0  0  0  0  0  0  0  0  0  0  0
   -3.7730    2.1680    0.4890 C   0  0  0  0  0  0  0  0  0  0  0  0
   -3.5550    2.1130   -0.8710 C   0  0  0  0  0  0  0  0  0  0  0  0
   -3.0870    0.9330   -1.3960 C   0  0  0  0  0  0  0  0  0  0  0  0
   -2.8400   -0.1630   -0.6090 C   0  0  0  0  0  0  0  0  0  0  0  0
   -2.3380   -1.4040   -1.2290 C   0  0  1  0  0  0  0  0  0  0  0  0
   -1.2860   -2.0000   -0.3880 C   0  0  0  0  0  0  0  0  0  0  0  0
    0.0040   -1.3680   -0.0690 C   0  0  0  0  0  0  0  0  0  0  0  0
    0.3490   -0.1540   -0.5680 C   0  0  0  0  0  0  0  0  0  0  0  0
    1.5830    0.4200   -0.2380 C   0  0  0  0  0  0  0  0  0  0  0  0
    2.5000   -0.1810    0.5790 C   0  0  0  0  0  0  0  0  0  0  0  0
    3.8210    0.2680    0.9070 C   0  0  0  0  0  0  0  0  0  0  0  0
    4.5800    1.1040    0.3130 C   0  0  0  0  0  0  0  0  0  0  0  0
    4.3240    1.8580   -0.9150 C   0  0  2  0  0  0  0  0  0  0  0  0
    5.6360    1.6240   -1.7590 C   0  0  0  0  0  0  0  0  0  0  0  0
    4.2780    3.3420   -0.5980 C   0  0  0  0  0  0  0  0  0  0  0  0
    2.1170   -1.4480    1.0900 C   0  0  0  0  0  0  0  0  0  0  0  0
    3.0580   -2.1880    1.9990 C   0  0  0  0  0  0  0  0  0  0  0  0
    0.9140   -1.9870    0.7590 C   0  0  0  0  0  0  0  0  0  0  0  0
   -1.7010   -3.2020    0.0300 C   0  0  0  0  0  0  0  0  0  0  0  0
   -3.0290   -3.4760   -0.4980 C   0  0  0  0  0  0  0  0  0  0  0  0
   -3.4240   -2.4550   -1.2310 C   0  0  0  0  0  0  0  0  0  0  0  0
   -4.7510   -2.7030   -1.7730 C   0  0  0  0  0  0  0  0  0  0  0  0
   -5.4600   -1.9660   -2.5160 O   0  0  0  0  0  0  0  0  0  0  0  0
   -5.1060   -3.9700   -1.2910 O   0  0  0  0  0  0  0  0  0  0  0  0
   -4.0920   -4.4890   -0.5070 C   0  0  0  0  0  0  0  0  0  0  0  0
   -4.0890   -5.6040    0.0760 O   0  0  0  0  0  0  0  0  0  0  0  0
   -3.0690   -0.0730    0.7420 C   0  0  0  0  0  0  0  0  0  0  0  0
   -3.5400    1.1020    1.3040 C   0  0  0  0  0  0  0  0  0  0  0  0
  1  2  1  0
  2  3  2  0
  2 29  1  0
  3  4  1  0
  4  5  2  0
  6  5  1  1
  5 28  1  0
  6  7  1  0
  6 22  1  0
  7  8  1  0
  7 20  2  0
  8  9  2  0
  8 19  1  0
  9 10  1  0
 10 11  2  0
 11 12  1  0
 11 17  1  0
 12 13  2  3
 13 14  1  0
 14 15  1  6
 14 16  1  0
 17 18  1  0
 17 19  2  0
 20 21  1  0
 21 22  2  0
 21 26  1  0
 22 23  1  0
 23 24  2  0
 23 25  1  0
 25 26  1  0
 26 27  2  0
 28 29  2  0
M  END
