
     RDKit          3D

 28 31  0  0  0  0  0  0  0  0999 V2000
    9.9200   -0.5390    0.9230 N   0  0  0  0  0  0  0  0  0  0  0  0
    8.8160    0.3070    0.5640 C   0  0  0  0  0  0  0  0  0  0  0  0
    9.0390    1.6080    0.1990 C   0  0  0  0  0  0  0  0  0  0  0  0
    7.9820    2.3840   -0.1150 N   0  0  0  0  0  0  0  0  0  0  0  0
    6.7080    1.9350   -0.0860 C   0  0  0  0  0  0  0  0  0  0  0  0
    6.4880    0.6160    0.2830 C   0  0  0  0  0  0  0  0  0  0  0  0
    5.1750    0.0350    0.3350 C   0  0  0  0  0  0  0  0  0  0  0  0
    5.1010   -1.2250    0.5700 O   0  0  0  0  0  0  0  0  0  0  0  0
    3.9410    0.7160    0.1530 N   0  0  0  0  0  0  0  0  0  0  0  0
    2.7380   -0.0160    0.2170 N   0  0  0  0  0  0  0  0  0  0  0  0
    1.4470    0.5640    0.2540 C   0  0  0  0  0  0  0  0  0  0  0  0
    1.3260    1.7990    0.2350 O   0  0  0  0  0  0  0  0  0  0  0  0
    0.2520   -0.2950    0.3120 C   0  0  0  0  0  0  0  0  0  0  0  0
    0.3560   -1.6150    0.7270 C   0  0  0  0  0  0  0  0  0  0  0  0
   -0.7420   -2.4560    0.7190 C   0  0  0  0  0  0  0  0  0  0  0  0
   -1.9760   -1.9990    0.2950 C   0  0  0  0  0  0  0  0  0  0  0  0
   -3.1770   -2.5730    0.1540 N   0  0  0  0  0  0  0  0  0  0  0  0
   -4.0430   -1.6810   -0.3300 C   0  0  0  0  0  0  0  0  0  0  0  0
   -3.3860   -0.4650   -0.5140 C   0  0  0  0  0  0  0  0  0  0  0  0
   -2.0850   -0.6750   -0.1200 C   0  0  0  0  0  0  0  0  0  0  0  0
   -0.9770    0.1670   -0.1090 C   0  0  0  0  0  0  0  0  0  0  0  0
   -3.9760    0.8010   -1.0150 C   0  0  0  0  0  0  0  0  0  0  0  0
   -5.1160    1.1190   -0.0340 C   0  0  1  0  0  0  0  0  0  0  0  0
   -5.2710    2.5400   -0.0040 N   0  0  0  0  0  0  0  0  0  0  0  0
   -6.3670    0.4080   -0.4390 C   0  0  0  0  0  0  0  0  0  0  0  0
   -6.4240   -1.0230    0.0520 C   0  0  0  0  0  0  0  0  0  0  0  0
   -5.4770   -1.9320   -0.6610 C   0  0  0  0  0  0  0  0  0  0  0  0
    7.5560   -0.1650    0.6000 N   0  0  0  0  0  0  0  0  0  0  0  0
  1  2  1  0
  2  3  2  0
  2 28  1  0
  3  4  1  0
  4  5  2  0
  5  6  1  0
  6  7  1  0
  6 28  2  0
  7  8  2  0
  7  9  1  0
  9 10  1  0
 10 11  1  0
 11 12  2  0
 11 13  1  0
 13 14  2  0
 13 21  1  0
 14 15  1  0
 15 16  2  0
 16 17  1  0
 16 20  1  0
 17 18  1  0
 18 19  2  0
 18 27  1  0
 19 20  1  0
 19 22  1  0
 20 21  2  0
 22 23  1  0
 23 24  1  6
 23 25  1  0
 25 26  1  0
 26 27  1  0
M  CHG  1  24   1
M  END
