
     RDKit          3D

 29 32  0  0  0  0  0  0  0  0999 V2000
    1.8080   -1.0780   -0.0840 O   0  0  0  0  0  0  0  0  0  0  0  0
    2.0260    0.0810   -0.5510 C   0  0  0  0  0  0  0  0  0  0  0  0
    3.3690    0.4160   -0.8190 N   0  0  0  0  0  0  0  0  0  0  0  0
    4.3970   -0.4950   -0.5800 N   0  0  0  0  0  0  0  0  0  0  0  0
    5.7670   -0.2130   -0.7700 C   0  0  0  0  0  0  0  0  0  0  0  0
    6.0890    0.9320   -1.1780 O   0  0  0  0  0  0  0  0  0  0  0  0
    6.8380   -1.2270   -0.5050 C   0  0  2  0  0  0  0  0  0  0  0  0
    6.8200   -1.7220    0.8990 C   0  0  0  0  0  0  0  0  0  0  0  0
    7.9950   -1.0500    1.5250 C   0  0  0  0  0  0  0  0  0  0  0  0
    8.7500   -0.3720    0.4350 C   0  0  0  0  0  0  0  0  0  0  0  0
    8.1220   -0.6830   -0.7880 N   0  0  0  0  0  0  0  0  0  0  0  0
    0.9390    1.0040   -0.7940 C   0  0  0  0  0  0  0  0  0  0  0  0
   -0.4000    0.7470   -0.5260 C   0  0  0  0  0  0  0  0  0  0  0  0
   -1.1260    1.8500   -0.9020 C   0  0  0  0  0  0  0  0  0  0  0  0
   -2.5910    2.0700   -0.8240 C   0  0  0  0  0  0  0  0  0  0  0  0
   -3.0510    3.1460   -1.2380 O   0  0  0  0  0  0  0  0  0  0  0  0
   -3.4100    1.0480   -0.2820 N   0  0  0  0  0  0  0  0  0  0  0  0
   -4.8120    1.1320   -0.1630 C   0  0  0  0  0  0  0  0  0  0  0  0
   -5.5730    2.1310   -0.7080 C   0  0  0  0  0  0  0  0  0  0  0  0
   -6.9740    2.1740   -0.6090 C   0  0  0  0  0  0  0  0  0  0  0  0
   -7.5970    1.1640    0.0670 C   0  0  0  0  0  0  0  0  0  0  0  0
   -6.8580    0.1440    0.6280 C   0  0  0  0  0  0  0  0  0  0  0  0
   -5.4680    0.1080    0.5260 C   0  0  0  0  0  0  0  0  0  0  0  0
   -4.7490   -0.9470    1.1380 N   0  0  0  0  0  0  0  0  0  0  0  0
   -5.5130   -2.1570    1.4660 C   0  0  0  0  0  0  0  0  0  0  0  0
   -6.6850   -1.6390    2.3020 C   0  0  0  0  0  0  0  0  0  0  0  0
   -7.5900   -0.9160    1.3390 C   0  0  0  0  0  0  0  0  0  0  0  0
   -0.2300    2.7340   -1.3780 N   0  0  0  0  0  0  0  0  0  0  0  0
    0.9850    2.2260   -1.3100 N   0  0  0  0  0  0  0  0  0  0  0  0
  1  2  2  0
  2  3  1  0
  2 12  1  0
  3  4  1  0
  4  5  1  0
  5  6  2  0
  7  5  1  1
  7  8  1  0
  7 11  1  0
  8  9  1  0
  9 10  1  0
 10 11  1  0
 12 13  1  0
 12 29  2  0
 13 14  2  0
 14 15  1  0
 14 28  1  0
 15 16  2  0
 15 17  1  0
 17 18  1  0
 18 19  2  0
 18 23  1  0
 19 20  1  0
 20 21  2  0
 21 22  1  0
 22 23  2  0
 22 27  1  0
 23 24  1  0
 24 25  1  0
 25 26  1  0
 26 27  1  0
 28 29  1  0
M  CHG  1  11   1
M  END
