
     RDKit          3D

 29 32  0  0  0  0  0  0  0  0999 V2000
   -2.0400   -2.2530   -3.4590 C   0  0  0  0  0  0  0  0  0  0  0  0
   -3.3000   -1.9710   -2.7990 N   0  0  0  0  0  0  0  0  0  0  0  0
   -3.2510   -1.2700   -1.5620 C   0  0  0  0  0  0  0  0  0  0  0  0
   -2.0490   -0.8620   -0.9910 C   0  0  0  0  0  0  0  0  0  0  0  0
   -1.9480   -0.1880    0.1910 C   0  0  0  0  0  0  0  0  0  0  0  0
   -0.7400    0.2150    0.7940 N   0  0  0  0  0  0  0  0  0  0  0  0
    0.5540    0.0460    0.2340 C   0  0  0  0  0  0  0  0  0  0  0  0
    0.6950   -0.4840   -0.8600 O   0  0  0  0  0  0  0  0  0  0  0  0
    1.7220    0.4860    0.9220 N   0  0  0  0  0  0  0  0  0  0  0  0
    3.0430    0.3770    0.4710 C   0  0  0  0  0  0  0  0  0  0  0  0
    4.0500    0.7460    1.3800 C   0  0  0  0  0  0  0  0  0  0  0  0
    5.3800    0.7070    1.1020 C   0  0  0  0  0  0  0  0  0  0  0  0
    5.7780    0.2820   -0.1440 C   0  0  0  0  0  0  0  0  0  0  0  0
    7.1980    0.2360   -0.4520 C   0  0  0  0  0  0  0  0  0  0  0  0
    7.7060   -0.1580   -1.6250 N   0  0  0  0  0  0  0  0  0  0  0  0
    9.0120   -0.0670   -1.5340 N   0  0  0  0  0  0  0  0  0  0  0  0
    9.3600    0.3800   -0.3220 C   0  0  0  0  0  0  0  0  0  0  0  0
   10.5100    0.6000    0.1500 O   0  0  0  0  0  0  0  0  0  0  0  0
    8.2090    0.5710    0.3610 N   0  0  0  0  0  0  0  0  0  0  0  0
    4.8300   -0.0880   -1.0630 C   0  0  0  0  0  0  0  0  0  0  0  0
    3.4650   -0.0370   -0.7470 C   0  0  0  0  0  0  0  0  0  0  0  0
   -3.1360    0.1230    0.8910 C   0  0  0  0  0  0  0  0  0  0  0  0
   -4.3240   -0.2690    0.3470 C   0  0  0  0  0  0  0  0  0  0  0  0
   -4.3780   -0.9490   -0.8520 C   0  0  0  0  0  0  0  0  0  0  0  0
   -5.5740    0.0440    1.0860 C   0  0  2  0  0  0  0  0  0  0  0  0
   -6.7370   -0.0350    0.2330 N   0  0  0  0  0  0  0  0  0  0  0  0
   -5.4130    1.4190    1.6900 C   0  0  0  0  0  0  0  0  0  0  0  0
   -4.3090    1.3700    2.7260 C   0  0  0  0  0  0  0  0  0  0  0  0
   -3.0220    0.8720    2.1750 C   0  0  0  0  0  0  0  0  0  0  0  0
  1  2  1  0
  2  3  1  0
  3  4  2  0
  3 24  1  0
  4  5  1  0
  5  6  1  0
  5 22  2  0
  6  7  1  0
  7  8  2  0
  7  9  1  0
  9 10  1  0
 10 11  2  0
 10 21  1  0
 11 12  1  0
 12 13  2  0
 13 14  1  0
 13 20  1  0
 14 15  2  0
 14 19  1  0
 15 16  1  0
 16 17  1  0
 17 18  2  0
 17 19  1  0
 20 21  2  0
 22 23  1  0
 22 29  1  0
 23 24  2  0
 23 25  1  0
 25 26  1  6
 25 27  1  0
 27 28  1  0
 28 29  1  0
M  CHG  1  26   1
M  END
