
     RDKit          3D

 29 32  0  0  0  0  0  0  0  0999 V2000
   -3.3780    0.1030   -3.0880 C   0  0  0  0  0  0  0  0  0  0  0  0
   -3.0740    0.4830   -1.8490 C   0  0  0  0  0  0  0  0  0  0  0  0
   -2.2350    1.7190   -1.6480 C   0  0  0  0  0  0  0  0  0  0  0  0
   -3.6020   -0.1930   -0.6800 C   0  0  0  0  0  0  0  0  0  0  0  0
   -5.0000   -0.3990   -0.6880 C   0  0  0  0  0  0  0  0  0  0  0  0
   -5.6770   -0.9140    0.3830 C   0  0  0  0  0  0  0  0  0  0  0  0
   -7.1420   -1.1350    0.3860 C   0  0  0  0  0  0  0  0  0  0  0  0
   -4.9060   -1.2240    1.4840 C   0  0  0  0  0  0  0  0  0  0  0  0
   -5.5700   -1.7930    2.7120 C   0  0  0  0  0  0  0  0  0  0  0  0
   -3.5600   -1.0360    1.5130 C   0  0  0  0  0  0  0  0  0  0  0  0
   -2.8740   -0.5060    0.3960 C   0  0  0  0  0  0  0  0  0  0  0  0
   -1.3910   -0.5460    0.4840 C   0  0  0  0  0  0  0  0  0  0  0  0
   -0.9130   -0.5570    1.6600 O   0  0  0  0  0  0  0  0  0  0  0  0
   -0.5500   -0.5820   -0.6470 C   0  0  0  0  0  0  0  0  0  0  0  0
    0.7130   -0.5980   -0.7880 C   0  0  0  0  0  0  0  0  0  0  0  0
    1.8810   -0.6000    0.0440 C   0  0  0  0  0  0  0  0  0  0  0  0
    1.9770   -0.9710    1.3470 C   0  0  0  0  0  0  0  0  0  0  0  0
    3.1580   -0.8240    2.0980 C   0  0  0  0  0  0  0  0  0  0  0  0
    4.2920   -0.2950    1.5490 C   0  0  0  0  0  0  0  0  0  0  0  0
    5.5010   -0.0490    2.0070 O   0  0  0  0  0  0  0  0  0  0  0  0
    6.2680    0.4760    1.0900 C   0  0  0  0  0  0  0  0  0  0  0  0
    7.6020    0.8990    1.0960 C   0  0  0  0  0  0  0  0  0  0  0  0
    8.1470    1.4220   -0.0480 C   0  0  0  0  0  0  0  0  0  0  0  0
    7.3600    1.5180   -1.1820 C   0  0  0  0  0  0  0  0  0  0  0  0
    7.8980    2.0440   -2.3450 O   0  0  0  0  0  0  0  0  0  0  0  0
    6.0350    1.1010   -1.2030 C   0  0  0  0  0  0  0  0  0  0  0  0
    5.5070    0.5820   -0.0540 C   0  0  0  0  0  0  0  0  0  0  0  0
    4.2300    0.0880    0.2310 C   0  0  0  0  0  0  0  0  0  0  0  0
    3.0830   -0.0540   -0.4960 C   0  0  0  0  0  0  0  0  0  0  0  0
  1  2  2  0
  2  3  1  0
  2  4  1  0
  4  5  2  0
  4 11  1  0
  5  6  1  0
  6  7  1  0
  6  8  2  0
  8  9  1  0
  8 10  1  0
 10 11  2  0
 11 12  1  0
 12 13  2  0
 12 14  1  0
 14 15  2  3
 15 16  1  0
 16 17  2  0
 16 29  1  0
 17 18  1  0
 18 19  2  0
 19 20  1  0
 19 28  1  0
 20 21  1  0
 21 22  2  0
 21 27  1  0
 22 23  1  0
 23 24  2  0
 24 25  1  0
 24 26  1  0
 26 27  2  0
 27 28  1  0
 28 29  2  0
M  END
