
     RDKit          3D

 29 32  0  0  0  0  0  0  0  0999 V2000
    3.6770   -2.2290   -0.1490 C   0  0  0  0  0  0  0  0  0  0  0  0
    2.8800   -0.9740    0.0420 C   0  0  0  0  0  0  0  0  0  0  0  0
    3.5520    0.0920    0.3630 C   0  0  0  0  0  0  0  0  0  0  0  0
    5.0040    0.1510    0.5520 C   0  0  0  0  0  0  0  0  0  0  0  0
    5.8350   -0.6850    1.2420 C   0  0  0  0  0  0  0  0  0  0  0  0
    7.1200   -0.1580    1.0900 C   0  0  0  0  0  0  0  0  0  0  0  0
    6.9950    0.9750    0.3140 C   0  0  0  0  0  0  0  0  0  0  0  0
    8.0830    1.9090   -0.1400 C   0  0  0  0  0  0  0  0  0  0  0  0
    8.6740    1.4490   -1.3270 O   0  0  0  0  0  0  0  0  0  0  0  0
    5.7380    1.0970    0.0350 O   0  0  0  0  0  0  0  0  0  0  0  0
    1.4430   -1.0330   -0.1500 C   0  0  0  0  0  0  0  0  0  0  0  0
    0.8580   -2.2080   -0.4710 C   0  0  0  0  0  0  0  0  0  0  0  0
   -0.5720   -2.3550   -0.6830 C   0  0  0  0  0  0  0  0  0  0  0  0
   -1.4250   -1.3560   -0.5810 C   0  0  0  0  0  0  0  0  0  0  0  0
   -0.9270   -0.0470   -0.2410 C   0  0  0  0  0  0  0  0  0  0  0  0
   -1.6920    1.0220   -0.1060 C   0  0  0  0  0  0  0  0  0  0  0  0
   -3.1220    1.0760   -0.2610 C   0  0  0  0  0  0  0  0  0  0  0  0
   -3.6740    1.8520   -1.2920 C   0  0  0  0  0  0  0  0  0  0  0  0
   -5.0260    1.9650   -1.4920 C   0  0  0  0  0  0  0  0  0  0  0  0
   -5.9060    1.3110   -0.6770 C   0  0  0  0  0  0  0  0  0  0  0  0
   -7.3860    1.3960   -0.8520 C   0  0  0  0  0  0  0  0  0  0  0  0
   -5.3880    0.5310    0.3610 C   0  0  0  0  0  0  0  0  0  0  0  0
   -6.2780   -0.1100    1.1960 C   0  0  0  0  0  0  0  0  0  0  0  0
   -5.8090   -0.8680    2.2420 C   0  0  0  0  0  0  0  0  0  0  0  0
   -4.4530   -0.9700    2.4330 C   0  0  0  0  0  0  0  0  0  0  0  0
   -3.5320   -0.3450    1.6200 C   0  0  0  0  0  0  0  0  0  0  0  0
   -4.0100    0.4150    0.5680 C   0  0  0  0  0  0  0  0  0  0  0  0
    0.5260    0.0870   -0.0300 C   0  0  0  0  0  0  0  0  0  0  0  0
    0.9410    1.2290    0.2630 O   0  0  0  0  0  0  0  0  0  0  0  0
  1  2  1  0
  2  3  2  3
  2 11  1  0
  3  4  1  0
  4  5  2  0
  4 10  1  0
  5  6  1  0
  6  7  2  0
  7  8  1  0
  7 10  1  0
  8  9  1  0
 11 12  2  0
 11 28  1  0
 12 13  1  0
 13 14  2  0
 14 15  1  0
 15 16  2  3
 15 28  1  0
 16 17  1  0
 17 18  2  0
 17 27  1  0
 18 19  1  0
 19 20  2  0
 20 21  1  0
 20 22  1  0
 22 23  2  0
 22 27  1  0
 23 24  1  0
 24 25  2  0
 25 26  1  0
 26 27  2  0
 28 29  2  0
M  END
