
     RDKit          3D

 29 32  0  0  0  0  0  0  0  0999 V2000
   -5.9150    2.1670   -0.2150 O   0  0  0  0  0  0  0  0  0  0  0  0
   -4.6570    2.2370   -0.3900 C   0  0  0  0  0  0  0  0  0  0  0  0
   -3.8740    2.9750    0.4670 O   0  0  0  0  0  0  0  0  0  0  0  0
   -4.0670    1.4850   -1.5490 C   0  0  0  0  0  0  0  0  0  0  0  0
   -3.1650    0.5200   -0.8170 C   0  0  0  0  0  0  0  0  0  0  0  0
   -1.9760    0.9970   -0.3830 N   0  0  0  0  0  0  0  0  0  0  0  0
   -1.1260    0.3950    0.4110 N   0  0  0  0  0  0  0  0  0  0  0  0
   -0.0440    1.1750    0.9390 C   0  0  0  0  0  0  0  0  0  0  0  0
    1.3250    0.8830    0.5680 C   0  0  0  0  0  0  0  0  0  0  0  0
    2.2980    1.0330   -0.0970 N   0  0  0  0  0  0  0  0  0  0  0  0
    3.4940    0.5680   -0.0060 C   0  0  0  0  0  0  0  0  0  0  0  0
    4.6470    0.7980   -0.7880 C   0  0  0  0  0  0  0  0  0  0  0  0
    5.8590    0.2570   -0.5290 C   0  0  0  0  0  0  0  0  0  0  0  0
    7.0630    0.5380   -1.4120 C   0  0  1  0  0  0  0  0  0  0  0  0
    8.1420    0.0330   -0.7620 F   0  0  0  0  0  0  0  0  0  0  0  0
    6.9560   -0.0600   -2.6410 F   0  0  0  0  0  0  0  0  0  0  0  0
    7.2380    1.8980   -1.5840 F   0  0  0  0  0  0  0  0  0  0  0  0
    6.0470   -0.5800    0.5530 C   0  0  0  0  0  0  0  0  0  0  0  0
    4.9690   -0.8390    1.3470 C   0  0  0  0  0  0  0  0  0  0  0  0
    3.7490   -0.2780    1.0570 C   0  0  0  0  0  0  0  0  0  0  0  0
    2.1360   -0.3420    1.8800 S   0  0  0  0  0  0  0  0  0  0  0  0
   -1.4190   -0.8290    0.8680 C   0  0  0  0  0  0  0  0  0  0  0  0
   -0.6390   -1.4210    1.6140 O   0  0  0  0  0  0  0  0  0  0  0  0
   -2.6300   -1.4020    0.4650 C   0  0  0  0  0  0  0  0  0  0  0  0
   -2.9490   -2.6470    0.9020 C   0  0  0  0  0  0  0  0  0  0  0  0
   -4.1250   -3.2660    0.5260 C   0  0  0  0  0  0  0  0  0  0  0  0
   -4.9880   -2.5660   -0.3280 C   0  0  0  0  0  0  0  0  0  0  0  0
   -4.6820   -1.3160   -0.7770 C   0  0  0  0  0  0  0  0  0  0  0  0
   -3.4870   -0.7220   -0.3730 C   0  0  0  0  0  0  0  0  0  0  0  0
  1  2  2  0
  2  3  1  0
  2  4  1  0
  4  5  1  0
  5  6  2  0
  5 29  1  0
  6  7  1  0
  7  8  1  0
  7 22  1  0
  8  9  1  0
  9 10  2  0
  9 21  1  0
 10 11  1  0
 11 12  2  0
 11 20  1  0
 12 13  1  0
 13 14  1  0
 13 18  2  0
 14 15  1  1
 14 16  1  0
 14 17  1  0
 18 19  1  0
 19 20  2  0
 20 21  1  0
 22 23  2  0
 22 24  1  0
 24 25  2  0
 24 29  1  0
 25 26  1  0
 26 27  2  0
 27 28  1  0
 28 29  2  0
M  END
