
     RDKit          3D

 23 24  0  0  0  0  0  0  0  0999 V2000
   -4.4890    2.9950    0.6820 C   0  0  0  0  0  0  0  0  0  0  0  0
   -3.4420    2.5310    0.0550 C   0  0  0  0  0  0  0  0  0  0  0  0
   -3.0380    1.1380    0.0230 C   0  0  0  0  0  0  0  0  0  0  0  0
   -1.6570    0.8280    0.0270 C   0  0  0  0  0  0  0  0  0  0  0  0
   -1.1600   -0.4470   -0.0260 C   0  0  0  0  0  0  0  0  0  0  0  0
    0.2300   -0.7200   -0.0700 N   0  0  0  0  0  0  0  0  0  0  0  0
    1.2610    0.2010    0.2240 C   0  0  0  0  0  0  0  0  0  0  0  0
    0.9680    1.3690    0.5700 O   0  0  0  0  0  0  0  0  0  0  0  0
    2.6530   -0.1640    0.1390 N   0  0  0  0  0  0  0  0  0  0  0  0
    3.5810    0.8130    0.4480 N   0  0  0  0  0  0  0  0  0  0  0  0
    4.9640    0.5720    0.1620 C   0  0  0  0  0  0  0  0  0  0  0  0
    5.2810   -0.5180   -0.3620 O   0  0  0  0  0  0  0  0  0  0  0  0
    5.9590    1.6360    0.5010 C   0  0  0  0  0  0  0  0  0  0  0  0
    7.3410    1.2830    0.0460 C   0  0  0  0  0  0  0  0  0  0  0  0
    8.2730    2.2780    0.3760 O   0  0  0  0  0  0  0  0  0  0  0  0
   -2.0880   -1.5160   -0.0900 C   0  0  0  0  0  0  0  0  0  0  0  0
   -3.4310   -1.2090   -0.0980 C   0  0  0  0  0  0  0  0  0  0  0  0
   -3.9000    0.0860   -0.0420 C   0  0  0  0  0  0  0  0  0  0  0  0
   -5.3090    0.2630   -0.0840 N   0  0  0  0  0  0  0  0  0  0  0  0
   -4.6450   -2.4870   -0.2510 S   0  0  0  0  0  0  0  0  0  0  0  0
   -3.8620   -4.0730   -0.0270 C   0  0  0  0  0  0  0  0  0  0  0  0
   -2.4060   -3.9570   -0.0410 C   0  0  0  0  0  0  0  0  0  0  0  0
   -1.6660   -2.8900   -0.0650 C   0  0  0  0  0  0  0  0  0  0  0  0
  1  2  2  0
  2  3  1  0
  3  4  2  0
  3 18  1  0
  4  5  1  0
  5  6  1  0
  5 16  2  0
  6  7  1  0
  7  8  2  0
  7  9  1  0
  9 10  1  0
 10 11  1  0
 11 12  2  0
 11 13  1  0
 13 14  1  0
 14 15  1  0
 16 17  1  0
 16 23  1  0
 17 18  2  0
 17 20  1  0
 18 19  1  0
 20 21  1  0
 21 22  1  0
 22 23  2  0
M  CHG  1  19   1
M  END
