
     RDKit          3D

 13 13  0  0  0  0  0  0  0  0999 V2000
    2.2810   -0.9770    0.8020 C   0  0  0  0  0  0  0  0  0  0  0  0
    1.8830    0.3570    0.2350 C   0  0  0  0  0  0  0  0  0  0  0  0
    2.4760    1.5110    0.4330 O   0  0  0  0  0  0  0  0  0  0  0  0
    1.8300    2.4240   -0.2290 N   0  0  0  0  0  0  0  0  0  0  0  0
    0.7870    1.8900   -0.8840 C   0  0  0  0  0  0  0  0  0  0  0  0
   -0.0480    2.4810   -1.6190 O   0  0  0  0  0  0  0  0  0  0  0  0
    0.8010    0.5400   -0.5970 C   0  0  0  0  0  0  0  0  0  0  0  0
   -0.1490   -0.4610   -1.0880 C   0  0  0  0  0  0  0  0  0  0  0  0
   -1.1460   -0.8630   -0.0170 C   0  0  2  0  0  0  0  0  0  0  0  0
   -2.0740   -1.8440   -0.5030 N   0  0  0  0  0  0  0  0  0  0  0  0
   -1.8860    0.3050    0.5010 C   0  0  0  0  0  0  0  0  0  0  0  0
   -3.1400    0.2950    0.4540 O   0  0  0  0  0  0  0  0  0  0  0  0
   -1.2470    1.4180    1.0390 O   0  0  0  0  0  0  0  0  0  0  0  0
  1  2  1  0
  2  3  1  0
  2  7  2  0
  3  4  1  0
  4  5  1  0
  5  6  2  0
  5  7  1  0
  7  8  1  0
  8  9  1  0
  9 10  1  6
  9 11  1  0
 11 12  2  0
 11 13  1  0
M  CHG  1  10   1
M  END
