
     RDKit          3D

 23 24  0  0  0  0  0  0  0  0999 V2000
    8.6230   -0.4170    0.3290 N   0  0  0  0  0  0  0  0  0  0  0  0
    7.6800   -1.2060   -0.4800 C   0  0  0  0  0  0  0  0  0  0  0  0
    6.3390   -0.5980   -0.2000 C   0  0  0  0  0  0  0  0  0  0  0  0
    5.1690   -1.1410    0.0910 C   0  0  0  0  0  0  0  0  0  0  0  0
    4.0850   -0.3660    0.3080 C   0  0  0  0  0  0  0  0  0  0  0  0
    4.2680    1.0080    0.2110 C   0  0  0  0  0  0  0  0  0  0  0  0
    3.3640    2.1490    0.3730 C   0  0  0  0  0  0  0  0  0  0  0  0
    2.0150    1.7110    0.6270 N   0  0  0  0  0  0  0  0  0  0  0  0
    1.2410    0.9400   -0.2650 C   0  0  0  0  0  0  0  0  0  0  0  0
    1.7110    0.5880   -1.3670 O   0  0  0  0  0  0  0  0  0  0  0  0
   -0.1090    0.5490    0.0880 C   0  0  0  0  0  0  0  0  0  0  0  0
   -0.6030    0.9110    1.2120 O   0  0  0  0  0  0  0  0  0  0  0  0
   -0.9640   -0.2350   -0.7470 N   0  0  0  0  0  0  0  0  0  0  0  0
   -2.2660   -0.5430   -0.2750 N   0  0  0  0  0  0  0  0  0  0  0  0
   -3.4130    0.0770   -0.8300 C   0  0  0  0  0  0  0  0  0  0  0  0
   -3.2390    0.9300   -1.7840 O   0  0  0  0  0  0  0  0  0  0  0  0
   -4.7850   -0.1690   -0.4100 C   0  0  0  0  0  0  0  0  0  0  0  0
   -5.0080   -1.0280    0.5580 C   0  0  0  0  0  0  0  0  0  0  0  0
   -6.3820   -1.3120    1.0200 C   0  0  0  0  0  0  0  0  0  0  0  0
   -7.4310   -0.6320    0.2260 C   0  0  0  0  0  0  0  0  0  0  0  0
   -6.9910    0.7860   -0.1530 C   0  0  0  0  0  0  0  0  0  0  0  0
   -5.8540    0.5900   -1.1290 C   0  0  0  0  0  0  0  0  0  0  0  0
    6.0310    1.1100   -0.1970 S   0  0  0  0  0  0  0  0  0  0  0  0
  1  2  1  0
  2  3  1  0
  3  4  2  0
  3 23  1  0
  4  5  1  0
  5  6  2  0
  6  7  1  0
  6 23  1  0
  7  8  1  0
  8  9  1  0
  9 10  2  0
  9 11  1  0
 11 12  2  0
 11 13  1  0
 13 14  1  0
 14 15  1  0
 15 16  2  0
 15 17  1  0
 17 18  2  0
 17 22  1  0
 18 19  1  0
 19 20  1  0
 20 21  1  0
 21 22  1  0
M  CHG  1   1   1
M  END
