
     RDKit          3D

 23 25  0  0  0  0  0  0  0  0999 V2000
   -6.4440    1.4340    0.1330 N   0  0  0  0  0  0  0  0  0  0  0  0
   -5.5120    0.5540    0.8240 C   0  0  2  0  0  0  0  0  0  0  0  0
   -4.2320    1.2560    1.1480 C   0  0  0  0  0  0  0  0  0  0  0  0
   -3.2120    0.1770    1.5370 C   0  0  0  0  0  0  0  0  0  0  0  0
   -2.8680   -0.4700    0.2040 C   0  0  0  0  0  0  0  0  0  0  0  0
   -3.9840   -0.8770   -0.4560 C   0  0  0  0  0  0  0  0  0  0  0  0
   -3.3790   -1.5700   -1.9170 S   0  0  0  0  0  0  0  0  0  0  0  0
   -1.6840   -1.3000   -1.6080 C   0  0  0  0  0  0  0  0  0  0  0  0
   -0.5130   -1.5770   -2.3130 N   0  0  0  0  0  0  0  0  0  0  0  0
    0.6930   -1.2490   -1.8180 C   0  0  0  0  0  0  0  0  0  0  0  0
    0.7610   -0.6320   -0.5940 C   0  0  0  0  0  0  0  0  0  0  0  0
    2.0330   -0.3050   -0.0350 N   0  0  0  0  0  0  0  0  0  0  0  0
    3.2680   -0.8290   -0.3840 C   0  0  0  0  0  0  0  0  0  0  0  0
    3.3680   -1.6980   -1.2800 O   0  0  0  0  0  0  0  0  0  0  0  0
    4.4720   -0.3410    0.3250 C   0  0  0  0  0  0  0  0  0  0  0  0
    4.3500    0.5160    1.2010 O   0  0  0  0  0  0  0  0  0  0  0  0
    5.7250   -0.8710   -0.0240 N   0  0  0  0  0  0  0  0  0  0  0  0
    6.9810   -0.5050    0.5470 C   0  0  0  0  0  0  0  0  0  0  0  0
    7.3240    0.9240    0.2690 C   0  0  0  0  0  0  0  0  0  0  0  0
    6.4060    1.7810    0.7810 O   0  0  0  0  0  0  0  0  0  0  0  0
   -0.4010   -0.3610    0.0950 C   0  0  0  0  0  0  0  0  0  0  0  0
   -1.6670   -0.6740   -0.3630 C   0  0  0  0  0  0  0  0  0  0  0  0
   -5.3670   -0.7140    0.0620 C   0  0  0  0  0  0  0  0  0  0  0  0
  2  1  1  6
  2  3  1  0
  2 23  1  0
  3  4  1  0
  4  5  1  0
  5  6  2  0
  5 22  1  0
  6  7  1  0
  6 23  1  0
  7  8  1  0
  8  9  2  0
  8 22  1  0
  9 10  1  0
 10 11  2  0
 11 12  1  0
 11 21  1  0
 12 13  1  0
 13 14  2  0
 13 15  1  0
 15 16  2  0
 15 17  1  0
 17 18  1  0
 18 19  1  0
 19 20  1  0
 21 22  2  0
M  CHG  1   1   1
M  END
