
     RDKit          3D

 22 24  0  0  0  0  0  0  0  0999 V2000
    5.0280   -1.9770   -0.5720 N   0  0  0  0  0  0  0  0  0  0  0  0
    4.2970   -0.9390   -0.4020 C   0  0  0  0  0  0  0  0  0  0  0  0
    4.8700    0.2940   -0.3380 C   0  0  0  0  0  0  0  0  0  0  0  0
    4.0560    1.3800   -0.1550 C   0  0  0  0  0  0  0  0  0  0  0  0
    2.6890    1.2150   -0.0400 C   0  0  0  0  0  0  0  0  0  0  0  0
    1.8760    2.2900    0.1420 C   0  0  0  0  0  0  0  0  0  0  0  0
    2.4170    3.5620    0.2130 O   0  0  0  0  0  0  0  0  0  0  0  0
    0.4770    2.0880    0.2570 C   0  0  0  0  0  0  0  0  0  0  0  0
   -0.2260    3.2290    0.4340 O   0  0  0  0  0  0  0  0  0  0  0  0
   -0.0590    0.8200    0.1860 C   0  0  0  0  0  0  0  0  0  0  0  0
   -1.5240    0.6180    0.3070 C   0  0  0  0  0  0  0  0  0  0  0  0
   -2.2700    1.6070    0.4760 O   0  0  0  0  0  0  0  0  0  0  0  0
   -2.1430   -0.6330    0.2450 N   0  0  0  0  0  0  0  0  0  0  0  0
   -3.5230   -0.9400    0.3550 C   0  0  0  0  0  0  0  0  0  0  0  0
   -4.4660   -0.0750    0.8240 C   0  0  0  0  0  0  0  0  0  0  0  0
   -5.8220   -0.4400    0.8850 C   0  0  0  0  0  0  0  0  0  0  0  0
   -6.1800   -1.6500    0.4780 N   0  0  0  0  0  0  0  0  0  0  0  0
   -5.2700   -2.5200    0.0120 C   0  0  0  0  0  0  0  0  0  0  0  0
   -3.9400   -2.2190   -0.0710 C   0  0  0  0  0  0  0  0  0  0  0  0
    0.7760   -0.2620    0.0010 C   0  0  0  0  0  0  0  0  0  0  0  0
    2.1540   -0.0480   -0.1100 C   0  0  0  0  0  0  0  0  0  0  0  0
    2.9510   -1.0980   -0.2880 N   0  0  0  0  0  0  0  0  0  0  0  0
  1  2  2  0
  2  3  1  0
  2 22  1  0
  3  4  2  0
  4  5  1  0
  5  6  2  0
  5 21  1  0
  6  7  1  0
  6  8  1  0
  8  9  1  0
  8 10  2  0
 10 11  1  0
 10 20  1  0
 11 12  2  0
 11 13  1  0
 13 14  1  0
 14 15  2  0
 14 19  1  0
 15 16  1  0
 16 17  2  0
 17 18  1  0
 18 19  2  0
 20 21  2  0
 21 22  1  0
M  CHG  1   1   1
M  END
