
     RDKit          3D

 23 24  0  0  0  0  0  0  0  0999 V2000
   -7.0690    0.1880   -1.2760 C   0  0  0  0  0  0  0  0  0  0  0  0
   -5.7370    0.3630   -0.6120 C   0  0  0  0  0  0  0  0  0  0  0  0
   -5.1610    1.5450   -0.6850 C   0  0  0  0  0  0  0  0  0  0  0  0
   -3.9330    1.9580   -0.1550 N   0  0  0  0  0  0  0  0  0  0  0  0
   -2.8970    1.3200    0.2000 C   0  0  0  0  0  0  0  0  0  0  0  0
   -1.8190    2.1310    0.7080 N   0  0  0  0  0  0  0  0  0  0  0  0
   -2.5840   -0.1040    0.1930 C   0  0  0  0  0  0  0  0  0  0  0  0
   -1.1110   -0.4180    0.1960 C   0  0  0  0  0  0  0  0  0  0  0  0
   -0.8130   -2.1800    0.1860 S   0  0  0  0  0  0  0  0  0  0  0  0
    0.9230   -2.5030    0.1550 C   0  0  0  0  0  0  0  0  0  0  0  0
    1.3470   -3.6870    0.1700 O   0  0  0  0  0  0  0  0  0  0  0  0
    1.8800   -1.3660    0.1110 C   0  0  0  0  0  0  0  0  0  0  0  0
    1.4440   -0.2070    0.0910 O   0  0  0  0  0  0  0  0  0  0  0  0
    3.2720   -1.6140    0.0910 N   0  0  0  0  0  0  0  0  0  0  0  0
    4.3010   -0.6630    0.0490 C   0  0  0  0  0  0  0  0  0  0  0  0
    4.0560    0.6850    0.0240 C   0  0  0  0  0  0  0  0  0  0  0  0
    5.1060    1.6000   -0.0170 C   0  0  0  0  0  0  0  0  0  0  0  0
    6.4020    1.1430   -0.0330 C   0  0  0  0  0  0  0  0  0  0  0  0
    6.6280   -0.1870   -0.0070 C   0  0  0  0  0  0  0  0  0  0  0  0
    5.6140   -1.1380    0.0340 C   0  0  0  0  0  0  0  0  0  0  0  0
    5.9670   -2.4740    0.0570 O   0  0  0  0  0  0  0  0  0  0  0  0
   -3.3950   -1.1240    0.1850 C   0  0  0  0  0  0  0  0  0  0  0  0
   -5.1870   -1.1590    0.1780 S   0  0  0  0  0  0  0  0  0  0  0  0
  1  2  1  0
  2  3  2  0
  2 23  1  0
  3  4  1  0
  4  5  2  0
  5  6  1  0
  5  7  1  0
  7  8  1  0
  7 22  2  0
  8  9  1  0
  9 10  1  0
 10 11  2  0
 10 12  1  0
 12 13  2  0
 12 14  1  0
 14 15  1  0
 15 16  2  0
 15 20  1  0
 16 17  1  0
 17 18  2  0
 18 19  1  0
 19 20  2  0
 20 21  1  0
 22 23  1  0
M  CHG  1   4   1
M  END
