
     RDKit          3D

 23 24  0  0  0  0  0  0  0  0999 V2000
   -5.9520    2.2220   -1.3020 C   0  0  0  0  0  0  0  0  0  0  0  0
   -4.8670    1.5180   -1.3810 C   0  0  0  0  0  0  0  0  0  0  0  0
   -4.4880    0.4170   -0.5280 C   0  0  0  0  0  0  0  0  0  0  0  0
   -5.3710   -0.4570    0.0920 C   0  0  0  0  0  0  0  0  0  0  0  0
   -6.8130   -0.3440   -0.1620 C   0  0  0  0  0  0  0  0  0  0  0  0
   -4.8420   -1.4000    0.8820 N   0  0  0  0  0  0  0  0  0  0  0  0
   -3.5500   -1.5990    1.1450 C   0  0  0  0  0  0  0  0  0  0  0  0
   -3.2010   -2.5300    1.9110 O   0  0  0  0  0  0  0  0  0  0  0  0
   -2.5900   -0.7390    0.5400 C   0  0  0  0  0  0  0  0  0  0  0  0
   -1.2540   -0.8020    0.6970 C   0  0  0  0  0  0  0  0  0  0  0  0
   -0.4870    0.1220    0.0270 C   0  0  0  0  0  0  0  0  0  0  0  0
    0.9820    0.2770    0.0210 C   0  0  0  0  0  0  0  0  0  0  0  0
    1.4760    1.2020   -0.6710 O   0  0  0  0  0  0  0  0  0  0  0  0
    1.8250   -0.5720    0.7610 N   0  0  0  0  0  0  0  0  0  0  0  0
    3.2500   -0.4220    0.7570 N   0  0  0  0  0  0  0  0  0  0  0  0
    3.8410    0.7680    1.2080 C   0  0  0  0  0  0  0  0  0  0  0  0
    2.9220    1.6480    1.5990 O   0  0  0  0  0  0  0  0  0  0  0  0
    5.2000    1.1550    1.3080 C   0  0  0  0  0  0  0  0  0  0  0  0
    6.3020    0.5700    1.0410 C   0  0  0  0  0  0  0  0  0  0  0  0
    6.5940   -0.7480    0.5220 C   0  0  0  0  0  0  0  0  0  0  0  0
    7.3040   -0.5330   -0.7590 N   0  0  0  0  0  0  0  0  0  0  0  0
   -1.6490    1.0900   -0.8340 S   0  0  0  0  0  0  0  0  0  0  0  0
   -3.0980    0.2310   -0.2700 C   0  0  0  0  0  0  0  0  0  0  0  0
  1  2  2  0
  2  3  1  0
  3  4  2  0
  3 23  1  0
  4  5  1  0
  4  6  1  0
  6  7  1  0
  7  8  2  0
  7  9  1  0
  9 10  1  0
  9 23  2  0
 10 11  2  0
 11 12  1  0
 11 22  1  0
 12 13  2  0
 12 14  1  0
 14 15  1  0
 15 16  1  0
 16 17  2  0
 16 18  1  0
 18 19  2  3
 19 20  1  0
 20 21  1  0
 22 23  1  0
M  CHG  1  21   1
M  END
