
     RDKit          3D

 23 24  0  0  0  0  0  0  0  0999 V2000
    6.2880   -2.4160   -0.4940 C   0  0  0  0  0  0  0  0  0  0  0  0
    6.0080   -0.9620   -0.3380 C   0  0  0  0  0  0  0  0  0  0  0  0
    5.9720   -0.2400   -1.3580 O   0  0  0  0  0  0  0  0  0  0  0  0
    5.7920   -0.4480    0.9680 N   0  0  0  0  0  0  0  0  0  0  0  0
    5.5150    0.9460    1.2010 C   0  0  0  0  0  0  0  0  0  0  0  0
    4.2600    1.3400    0.4850 C   0  0  0  0  0  0  0  0  0  0  0  0
    3.1070    0.5970    0.9070 N   0  0  0  0  0  0  0  0  0  0  0  0
    1.8320    0.8640    0.3100 C   0  0  0  0  0  0  0  0  0  0  0  0
    1.8080    1.7420   -0.5540 O   0  0  0  0  0  0  0  0  0  0  0  0
    0.6670    0.1840    0.6670 N   0  0  0  0  0  0  0  0  0  0  0  0
   -0.6260    0.3890    0.1250 C   0  0  0  0  0  0  0  0  0  0  0  0
   -0.9660    1.2860   -0.8410 C   0  0  0  0  0  0  0  0  0  0  0  0
   -2.2540    1.4330   -1.3240 C   0  0  0  0  0  0  0  0  0  0  0  0
   -3.2850    0.6440   -0.8260 C   0  0  0  0  0  0  0  0  0  0  0  0
   -2.9820   -0.2720    0.1480 C   0  0  0  0  0  0  0  0  0  0  0  0
   -1.6620   -0.3850    0.6070 C   0  0  0  0  0  0  0  0  0  0  0  0
   -3.7600   -1.1210    0.7710 C   0  0  0  0  0  0  0  0  0  0  0  0
   -5.1640   -1.4530    0.7250 C   0  0  0  0  0  0  0  0  0  0  0  0
   -5.5870   -2.4700    1.6060 O   0  0  0  0  0  0  0  0  0  0  0  0
   -6.1110   -0.9410   -0.0250 C   0  0  0  0  0  0  0  0  0  0  0  0
   -6.0510    0.3120   -1.2330 S   0  0  0  0  0  0  0  0  0  0  0  0
   -7.1120    1.4340   -0.9620 N   0  0  0  0  0  0  0  0  0  0  0  0
   -4.4290    0.9580   -1.4340 C   0  0  0  0  0  0  0  0  0  0  0  0
  1  2  1  0
  2  3  2  0
  2  4  1  0
  4  5  1  0
  5  6  1  0
  6  7  1  0
  7  8  1  0
  8  9  2  0
  8 10  1  0
 10 11  1  0
 11 12  1  0
 11 16  2  0
 12 13  2  0
 13 14  1  0
 14 15  1  0
 14 23  2  0
 15 16  1  0
 15 17  2  0
 17 18  1  0
 18 19  1  0
 18 20  2  0
 21 20  1  1
 21 22  2  0
 21 23  1  0
M  CHG  1  22   1
M  END
