
     RDKit          3D

 17 18  0  0  0  0  0  0  0  0999 V2000
   -4.0190    1.4990   -0.7940 C   0  0  0  0  0  0  0  0  0  0  0  0
   -2.8380    0.5990   -0.7210 C   0  0  0  0  0  0  0  0  0  0  0  0
   -2.8020   -0.3900    0.1450 C   0  0  0  0  0  0  0  0  0  0  0  0
   -3.8670   -0.7410    1.1230 C   0  0  0  0  0  0  0  0  0  0  0  0
   -3.1690   -1.6060    2.0370 N   0  0  0  0  0  0  0  0  0  0  0  0
   -1.9680   -2.0170    1.4230 C   0  0  0  0  0  0  0  0  0  0  0  0
   -1.7080   -1.3400    0.3160 C   0  0  0  0  0  0  0  0  0  0  0  0
   -0.3650   -1.4930   -0.7590 S   0  0  1  0  0  0  0  0  0  0  0  0
    0.0760   -2.9440   -0.7370 O   0  0  0  0  0  0  0  0  0  0  0  0
   -0.7570   -1.2210   -2.2050 O   0  0  0  0  0  0  0  0  0  0  0  0
    0.9600   -0.5230   -0.3920 N   0  0  0  0  0  0  0  0  0  0  0  0
    1.5850   -0.7460    0.8620 C   0  0  0  0  0  0  0  0  0  0  0  0
    3.0880   -0.6070    0.6570 C   0  0  0  0  0  0  0  0  0  0  0  0
    3.3410    0.4800   -0.3440 C   0  0  2  0  0  0  0  0  0  0  0  0
    4.5910    1.2040    0.0670 C   0  0  0  0  0  0  0  0  0  0  0  0
    2.2220    1.4930   -0.4070 C   0  0  0  0  0  0  0  0  0  0  0  0
    0.9030    0.8290   -0.8150 C   0  0  0  0  0  0  0  0  0  0  0  0
  1  2  1  0
  2  3  2  3
  3  4  1  0
  3  7  1  0
  4  5  1  0
  5  6  1  0
  6  7  2  0
  7  8  1  0
  8  9  2  0
  8 10  2  0
  8 11  1  1
 11 12  1  0
 11 17  1  0
 12 13  1  0
 13 14  1  0
 14 15  1  1
 14 16  1  0
 16 17  1  0
M  END
