
     RDKit          3D

  9 10  0  0  0  0  0  0  0  0999 V2000
   -2.3900    0.4100   -0.1020 C   0  0  0  0  0  0  0  0  0  0  0  0
   -1.1390    0.0320    0.0630 C   0  0  0  0  0  0  0  0  0  0  0  0
   -0.7220   -1.3420    0.4220 C   0  0  0  0  0  0  0  0  0  0  0  0
    0.6970   -1.4500   -0.0540 C   0  0  0  0  0  0  0  0  0  0  0  0
    1.1920   -0.0570   -0.1120 C   0  0  0  0  0  0  0  0  0  0  0  0
    2.3340    0.7490   -0.2120 C   0  0  0  0  0  0  0  0  0  0  0  0
    1.9040    2.0170   -0.2020 N   0  0  0  0  0  0  0  0  0  0  0  0
    0.5880    2.0440   -0.1040 N   0  0  0  0  0  0  0  0  0  0  0  0
    0.1060    0.7810   -0.0460 C   0  0  0  0  0  0  0  0  0  0  0  0
  1  2  2  0
  2  3  1  0
  2  9  1  0
  3  4  1  0
  4  5  1  0
  5  6  1  0
  5  9  2  0
  6  7  2  0
  7  8  1  0
  8  9  1  0
M  END
