
     RDKit          3D

 17 18  0  0  0  0  0  0  0  0999 V2000
   -1.3110   -1.4310    2.3500 C   0  0  0  0  0  0  0  0  0  0  0  0
   -0.7390   -0.8720    1.0990 C   0  0  0  0  0  0  0  0  0  0  0  0
   -1.3170    0.0670    0.3950 C   0  0  0  0  0  0  0  0  0  0  0  0
   -2.5590    0.5710    0.8660 N   0  0  0  0  0  0  0  0  0  0  0  0
   -3.4990    1.2270   -0.0120 C   0  0  0  0  0  0  0  0  0  0  0  0
   -2.6910    2.0620   -0.9840 C   0  0  0  0  0  0  0  0  0  0  0  0
   -1.7990    1.0930   -1.7420 C   0  0  0  0  0  0  0  0  0  0  0  0
   -0.6830    0.5720   -0.8480 C   0  0  1  0  0  0  0  0  0  0  0  0
    0.3370    1.5170   -0.6120 N   0  0  0  0  0  0  0  0  0  0  0  0
    1.8820    1.1940   -1.1990 S   0  0  2  0  0  0  0  0  0  0  0  0
    2.8410    2.3280   -0.8720 O   0  0  0  0  0  0  0  0  0  0  0  0
    1.8430    0.9640   -2.6900 O   0  0  0  0  0  0  0  0  0  0  0  0
    2.5720   -0.2520   -0.5130 C   0  0  0  0  0  0  0  0  0  0  0  0
    2.5260   -1.4980   -0.9330 C   0  0  0  0  0  0  0  0  0  0  0  0
    3.2600   -2.3930   -0.0250 C   0  0  0  0  0  0  0  0  0  0  0  0
    3.7630   -1.4730    1.0210 C   0  0  0  0  0  0  0  0  0  0  0  0
    3.3520   -0.2670    0.7120 C   0  0  0  0  0  0  0  0  0  0  0  0
  1  2  1  0
  2  3  2  3
  3  4  1  0
  3  8  1  0
  4  5  1  0
  5  6  1  0
  6  7  1  0
  7  8  1  0
  8  9  1  1
 10  9  1  1
 10 11  2  0
 10 12  2  0
 10 13  1  0
 13 14  2  0
 13 17  1  0
 14 15  1  0
 15 16  1  0
 16 17  2  0
M  END
