
     RDKit          3D

 17 18  0  0  0  0  0  0  0  0999 V2000
    5.0650   -0.1860    1.1190 C   0  0  0  0  0  0  0  0  0  0  0  0
    3.8230   -0.8450    1.0440 O   0  0  0  0  0  0  0  0  0  0  0  0
    2.7930   -0.4050    0.2330 C   0  0  0  0  0  0  0  0  0  0  0  0
    2.9400    0.7110   -0.5470 C   0  0  0  0  0  0  0  0  0  0  0  0
    1.8930    1.1230   -1.3450 C   0  0  0  0  0  0  0  0  0  0  0  0
    2.0070    2.2580   -2.1540 O   0  0  0  0  0  0  0  0  0  0  0  0
    0.7340    0.4120   -1.3410 C   0  0  0  0  0  0  0  0  0  0  0  0
    0.5480   -0.7100   -0.5750 C   0  0  0  0  0  0  0  0  0  0  0  0
   -0.6240   -1.4720   -0.5380 N   0  0  0  0  0  0  0  0  0  0  0  0
   -1.7980   -1.0360   -0.2540 C   0  0  0  0  0  0  0  0  0  0  0  0
   -1.9490    0.3410    0.0560 N   0  0  0  0  0  0  0  0  0  0  0  0
   -3.1380    1.0890    0.0540 C   0  0  0  0  0  0  0  0  0  0  0  0
   -4.3780    0.7580    0.3480 C   0  0  0  0  0  0  0  0  0  0  0  0
   -4.9590   -0.4880    0.7760 C   0  0  0  0  0  0  0  0  0  0  0  0
   -4.5370   -1.7140    0.5790 C   0  0  0  0  0  0  0  0  0  0  0  0
   -3.0800   -2.2770   -0.2980 S   0  0  0  0  0  0  0  0  0  0  0  0
    1.6090   -1.1110    0.2210 C   0  0  0  0  0  0  0  0  0  0  0  0
  1  2  1  0
  2  3  1  0
  3  4  2  0
  3 17  1  0
  4  5  1  0
  5  6  1  0
  5  7  2  0
  7  8  1  0
  8  9  1  0
  8 17  2  0
  9 10  2  3
 10 11  1  0
 10 16  1  0
 11 12  1  0
 12 13  2  0
 13 14  1  0
 14 15  2  0
 15 16  1  0
M  END
