
     RDKit          3D

 17 19  0  0  0  0  0  0  0  0999 V2000
    5.8370    0.7340   -0.7140 C   0  0  0  0  0  0  0  0  0  0  0  0
    4.5380    0.1130   -0.2850 C   0  0  0  0  0  0  0  0  0  0  0  0
    4.3230   -1.0080    0.4590 C   0  0  0  0  0  0  0  0  0  0  0  0
    2.9480   -1.1430    0.5670 C   0  0  0  0  0  0  0  0  0  0  0  0
    2.3400   -0.1080   -0.1100 C   0  0  0  0  0  0  0  0  0  0  0  0
    0.8900    0.1390   -0.2540 C   0  0  0  0  0  0  0  0  0  0  0  0
    0.5200    1.1350   -0.9080 O   0  0  0  0  0  0  0  0  0  0  0  0
   -0.0020   -0.7660    0.3570 N   0  0  0  0  0  0  0  0  0  0  0  0
   -1.4180   -0.5990    0.2660 C   0  0  0  0  0  0  0  0  0  0  0  0
   -2.2180    0.3110   -0.3250 C   0  0  0  0  0  0  0  0  0  0  0  0
   -3.5520    0.1830   -0.2220 C   0  0  0  0  0  0  0  0  0  0  0  0
   -4.0940   -0.8550    0.4720 C   0  0  0  0  0  0  0  0  0  0  0  0
   -2.5990   -1.7110    1.0180 S   0  0  0  0  0  0  0  0  0  0  0  0
   -5.4540   -0.8590    0.4930 O   0  0  0  0  0  0  0  0  0  0  0  0
   -5.9040   -0.0570   -0.5630 C   0  0  0  0  0  0  0  0  0  0  0  0
   -4.7830    0.9480   -0.7120 C   0  0  0  0  0  0  0  0  0  0  0  0
    3.3340    0.6300   -0.6110 N   0  0  0  0  0  0  0  0  0  0  0  0
  1  2  1  0
  2  3  2  0
  2 17  1  0
  3  4  1  0
  4  5  2  0
  5  6  1  0
  5 17  1  0
  6  7  2  0
  6  8  1  0
  8  9  1  0
  9 10  2  0
  9 13  1  0
 10 11  1  0
 11 12  2  0
 11 16  1  0
 12 13  1  0
 12 14  1  0
 14 15  1  0
 15 16  1  0
M  END
