
     RDKit          3D

 17 19  0  0  0  0  0  0  0  0999 V2000
   -0.3840    3.1880   -1.3200 C   0  0  0  0  0  0  0  0  0  0  0  0
    0.4050    2.0840   -0.9460 O   0  0  0  0  0  0  0  0  0  0  0  0
   -0.2070    0.9780   -0.3880 C   0  0  0  0  0  0  0  0  0  0  0  0
   -1.6040    0.9920   -0.2110 C   0  0  0  0  0  0  0  0  0  0  0  0
   -2.2450   -0.0640    0.3300 C   0  0  0  0  0  0  0  0  0  0  0  0
   -1.5150   -1.1600    0.7090 C   0  0  0  0  0  0  0  0  0  0  0  0
   -0.1280   -1.1760    0.5340 C   0  0  0  0  0  0  0  0  0  0  0  0
    0.5300   -0.1010   -0.0180 C   0  0  0  0  0  0  0  0  0  0  0  0
    2.0340   -0.1430   -0.1990 C   0  0  0  0  0  0  0  0  0  0  0  0
    2.7310    0.9280   -0.7730 C   0  0  0  0  0  0  0  0  0  0  0  0
    4.4410    0.3780   -0.7580 S   0  0  0  0  0  0  0  0  0  0  0  0
    4.0530   -1.2030    0.0030 C   0  0  0  0  0  0  0  0  0  0  0  0
    4.9390   -2.1070    0.2870 N   0  0  0  0  0  0  0  0  0  0  0  0
    2.7690   -1.1730    0.1630 N   0  0  0  0  0  0  0  0  0  0  0  0
   -2.4750   -2.1470    1.2610 C   0  0  0  0  0  0  0  0  0  0  0  0
   -3.6150   -1.4400    1.5310 O   0  0  0  0  0  0  0  0  0  0  0  0
   -3.6680   -0.3720    0.6500 C   0  0  0  0  0  0  0  0  0  0  0  0
  1  2  1  0
  2  3  1  0
  3  4  2  0
  3  8  1  0
  4  5  1  0
  5  6  2  0
  5 17  1  0
  6  7  1  0
  6 15  1  0
  7  8  2  0
  8  9  1  0
  9 10  2  0
  9 14  1  0
 10 11  1  0
 11 12  1  0
 12 13  2  0
 12 14  1  0
 15 16  1  0
 16 17  1  0
M  END
