
     RDKit          3D

 17 18  0  0  0  0  0  0  0  0999 V2000
   -6.2540    0.7450    0.2670 C   0  0  0  0  0  0  0  0  0  0  0  0
   -5.0180    0.4710    0.6010 C   0  0  0  0  0  0  0  0  0  0  0  0
   -3.5430    0.9380   -0.3310 S   0  0  0  0  0  0  0  0  0  0  0  0
   -2.3910    0.1850    0.8130 C   0  0  0  0  0  0  0  0  0  0  0  0
   -0.9880    0.2140    0.6230 N   0  0  0  0  0  0  0  0  0  0  0  0
   -0.3390   -0.3370   -0.4960 C   0  0  0  0  0  0  0  0  0  0  0  0
   -1.0800   -0.8970   -1.3890 O   0  0  0  0  0  0  0  0  0  0  0  0
    1.0940   -0.3530   -0.7720 C   0  0  0  0  0  0  0  0  0  0  0  0
    2.1210    0.1130   -0.0980 C   0  0  0  0  0  0  0  0  0  0  0  0
    2.0620    0.8250    1.2120 C   0  0  0  0  0  0  0  0  0  0  0  0
    3.3770   -0.1380   -0.7740 N   0  0  0  0  0  0  0  0  0  0  0  0
    4.6330    0.5470   -0.5390 C   0  0  0  0  0  0  0  0  0  0  0  0
    3.0990   -1.2110   -1.7230 C   0  0  0  0  0  0  0  0  0  0  0  0
    1.6590   -0.9930   -2.0430 C   0  0  0  0  0  0  0  0  0  0  0  0
   -3.0550   -0.3560    1.7880 C   0  0  0  0  0  0  0  0  0  0  0  0
   -4.4740   -0.2410    1.7400 C   0  0  0  0  0  0  0  0  0  0  0  0
   -5.2810   -0.7160    2.6180 O   0  0  0  0  0  0  0  0  0  0  0  0
  1  2  2  0
  2  3  1  0
  2 16  1  0
  3  4  1  0
  4  5  1  0
  4 15  2  0
  5  6  1  0
  6  7  2  0
  6  8  1  0
  8  9  2  0
  8 14  1  0
  9 10  1  0
  9 11  1  0
 11 12  1  0
 11 13  1  0
 13 14  1  0
 15 16  1  0
 16 17  2  0
M  END
