
     RDKit          3D

 26 28  0  0  0  0  0  0  0  0999 V2000
    3.4890    3.6310   -0.8200 C   0  0  0  0  0  0  0  0  0  0  0  0
    4.4940    2.6580   -0.2600 C   0  0  0  0  0  0  0  0  0  0  0  0
    4.4330    1.3370   -0.9820 C   0  0  0  0  0  0  0  0  0  0  0  0
    3.0230    0.7900   -0.7940 C   0  0  0  0  0  0  0  0  0  0  0  0
    2.2580    1.4870   -0.1530 O   0  0  0  0  0  0  0  0  0  0  0  0
    2.6850   -0.4510   -1.3490 N   0  0  0  0  0  0  0  0  0  0  0  0
    1.4780   -1.1600   -1.3110 C   0  0  0  0  0  0  0  0  0  0  0  0
    1.3920   -2.3670   -1.9480 C   0  0  0  0  0  0  0  0  0  0  0  0
    2.4980   -3.0010   -2.6940 C   0  0  0  0  0  0  0  0  0  0  0  0
    0.0700   -2.9200   -1.7840 C   0  0  0  0  0  0  0  0  0  0  0  0
   -0.6890   -2.1350   -1.0780 C   0  0  0  0  0  0  0  0  0  0  0  0
    0.1770   -0.9580   -0.7340 C   0  0  0  0  0  0  0  0  0  0  0  0
   -0.2560   -0.0060    0.0350 C   0  0  0  0  0  0  0  0  0  0  0  0
   -1.6500    0.0160    0.5140 C   0  0  0  0  0  0  0  0  0  0  0  0
   -2.7090   -0.0030   -0.3520 C   0  0  0  0  0  0  0  0  0  0  0  0
   -2.4550    0.0160   -1.7120 O   0  0  0  0  0  0  0  0  0  0  0  0
   -4.0280   -0.0360    0.1240 C   0  0  0  0  0  0  0  0  0  0  0  0
   -5.1150   -0.0570   -0.8770 C   0  0  0  0  0  0  0  0  0  0  0  0
   -4.2210   -0.0460    1.4840 C   0  0  0  0  0  0  0  0  0  0  0  0
   -5.8560   -0.0880    2.0850 Cl  0  0  0  0  0  0  0  0  0  0  0  0
   -3.1750   -0.0260    2.3760 C   0  0  0  0  0  0  0  0  0  0  0  0
   -3.3360   -0.0360    3.7390 C   0  0  0  0  0  0  0  0  0  0  0  0
   -2.2690   -0.0160    4.6190 C   0  0  0  0  0  0  0  0  0  0  0  0
   -0.9790    0.0160    4.1300 C   0  0  0  0  0  0  0  0  0  0  0  0
   -0.8010    0.0260    2.7530 C   0  0  0  0  0  0  0  0  0  0  0  0
   -1.8680    0.0060    1.8710 C   0  0  0  0  0  0  0  0  0  0  0  0
  1  2  1  0
  2  3  1  0
  3  4  1  0
  4  5  2  0
  4  6  1  0
  6  7  1  0
  7  8  2  0
  7 12  1  0
  8  9  1  0
  8 10  1  0
 10 11  2  0
 11 12  1  0
 12 13  2  3
 13 14  1  0
 14 15  2  0
 14 26  1  0
 15 16  1  0
 15 17  1  0
 17 18  1  0
 17 19  2  0
 19 20  1  0
 19 21  1  0
 21 22  2  0
 21 26  1  0
 22 23  1  0
 23 24  2  0
 24 25  1  0
 25 26  2  0
M  END
