
     RDKit          3D

 26 28  0  0  0  0  0  0  0  0999 V2000
   -2.7020    3.3040   -0.1730 C   0  0  0  0  0  0  0  0  0  0  0  0
   -3.6350    2.2540   -0.6120 C   0  0  0  0  0  0  0  0  0  0  0  0
   -3.4270    0.9900   -0.4280 C   0  0  0  0  0  0  0  0  0  0  0  0
   -4.3500   -0.0860   -0.8540 C   0  0  0  0  0  0  0  0  0  0  0  0
   -5.3310    0.0790   -1.7230 C   0  0  0  0  0  0  0  0  0  0  0  0
   -6.3830   -1.2710   -2.1710 Cl  0  0  0  0  0  0  0  0  0  0  0  0
   -3.9290   -1.2930   -0.1170 C   0  0  2  0  0  0  0  0  0  0  0  0
   -3.2620   -2.2840   -1.0600 C   0  0  0  0  0  0  0  0  0  0  0  0
   -5.1070   -1.9440    0.5920 C   0  0  0  0  0  0  0  0  0  0  0  0
   -2.9080   -0.7870    0.8670 C   0  0  0  0  0  0  0  0  0  0  0  0
   -2.3060    0.3350    0.1740 N   0  0  0  0  0  0  0  0  0  0  0  0
   -0.9110    0.6760    0.1040 C   0  0  0  0  0  0  0  0  0  0  0  0
   -0.1330   -0.3510   -0.7050 C   0  0  2  0  0  0  0  0  0  0  0  0
   -0.2220   -1.6100   -0.1310 O   0  0  0  0  0  0  0  0  0  0  0  0
    1.2860    0.0260   -0.9030 C   0  0  0  0  0  0  0  0  0  0  0  0
    1.8030    0.6340   -2.0430 C   0  0  0  0  0  0  0  0  0  0  0  0
    3.1450    0.7870   -1.7700 C   0  0  0  0  0  0  0  0  0  0  0  0
    3.4100    0.2850   -0.5120 C   0  0  0  0  0  0  0  0  0  0  0  0
    4.7360    0.2630    0.1470 C   0  0  0  0  0  0  0  0  0  0  0  0
    5.8190    0.7840   -0.5270 C   0  0  0  0  0  0  0  0  0  0  0  0
    7.0900    0.8070   -0.0020 C   0  0  0  0  0  0  0  0  0  0  0  0
    7.2440    0.2660    1.2770 C   0  0  0  0  0  0  0  0  0  0  0  0
    6.1600   -0.2620    1.9680 C   0  0  0  0  0  0  0  0  0  0  0  0
    4.9010   -0.2620    1.3980 C   0  0  0  0  0  0  0  0  0  0  0  0
    3.7330   -0.8180    2.1120 C   0  0  0  0  0  0  0  0  0  0  0  0
    2.2760   -0.1580   -0.0300 O   0  0  0  0  0  0  0  0  0  0  0  0
  1  2  1  0
  2  3  2  3
  3  4  1  0
  3 11  1  0
  4  5  2  3
  4  7  1  0
  5  6  1  0
  7  8  1  6
  7  9  1  0
  7 10  1  0
 10 11  1  0
 11 12  1  0
 12 13  1  0
 13 14  1  1
 13 15  1  0
 15 16  2  0
 15 26  1  0
 16 17  1  0
 17 18  2  0
 18 19  1  0
 18 26  1  0
 19 20  2  0
 19 24  1  0
 20 21  1  0
 21 22  2  0
 22 23  1  0
 23 24  2  0
 24 25  1  0
M  END
