
     RDKit          3D

 10 10  0  0  0  0  0  0  0  0999 V2000
   -3.6620   -0.8900   -0.1000 C   0  0  0  0  0  0  0  0  0  0  0  0
   -2.7280    0.2900    0.0820 C   0  0  0  0  0  0  0  0  0  0  0  0
   -1.5870    0.1000   -0.8840 C   0  0  0  0  0  0  0  0  0  0  0  0
   -0.5900    1.1670   -0.8310 C   0  0  0  0  0  0  0  0  0  0  0  0
    0.6600    0.8670   -0.5210 C   0  0  0  0  0  0  0  0  0  0  0  0
    1.2650   -0.4200   -0.2020 C   0  0  0  0  0  0  0  0  0  0  0  0
    2.5520   -0.2570    0.0470 C   0  0  0  0  0  0  0  0  0  0  0  0
    3.5060   -1.3640    0.4140 C   0  0  0  0  0  0  0  0  0  0  0  0
    2.8280    1.1460   -0.1030 C   0  0  0  0  0  0  0  0  0  0  0  0
    1.7640    1.7990   -0.4250 N   0  0  0  0  0  0  0  0  0  0  0  0
  1  2  1  0
  2  3  1  0
  3  4  1  0
  4  5  2  3
  5  6  1  0
  5 10  1  0
  6  7  2  0
  7  8  1  0
  7  9  1  0
  9 10  2  0
M  CHG  1  10   1
M  END
