
     RDKit          3D

 11 11  0  0  0  0  0  0  0  0999 V2000
   -3.4260    0.8080    0.2040 C   0  0  0  0  0  0  0  0  0  0  0  0
   -2.5120    1.1380   -0.9170 C   0  0  0  0  0  0  0  0  0  0  0  0
   -1.3740    0.3020   -1.0890 N   0  0  0  0  0  0  0  0  0  0  0  0
   -0.9530   -0.4550    0.0390 C   0  0  1  0  0  0  0  0  0  0  0  0
   -1.2050   -1.9230   -0.1910 C   0  0  0  0  0  0  0  0  0  0  0  0
    0.5380   -0.2970    0.2380 C   0  0  0  0  0  0  0  0  0  0  0  0
    1.3880   -1.3080    0.1900 C   0  0  0  0  0  0  0  0  0  0  0  0
    2.8600   -1.2050    0.3790 C   0  0  0  0  0  0  0  0  0  0  0  0
    3.2700    0.1910   -0.0280 C   0  0  0  0  0  0  0  0  0  0  0  0
    2.4880    1.1120    0.9210 C   0  0  0  0  0  0  0  0  0  0  0  0
    1.0490    1.0860    0.4980 C   0  0  0  0  0  0  0  0  0  0  0  0
  1  2  1  0
  2  3  1  0
  3  4  1  0
  4  5  1  6
  4  6  1  0
  6  7  2  0
  6 11  1  0
  7  8  1  0
  8  9  1  0
  9 10  1  0
 10 11  1  0
M  CHG  1   3   1
M  END
