
     RDKit          3D

 11 11  0  0  0  0  0  0  0  0999 V2000
    3.9160    1.2280    0.1600 C   0  0  0  0  0  0  0  0  0  0  0  0
    3.5260   -0.0970    0.7330 C   0  0  0  0  0  0  0  0  0  0  0  0
    2.1260   -0.5240    0.3680 C   0  0  0  0  0  0  0  0  0  0  0  0
    1.1260    0.4100    0.8290 N   0  0  0  0  0  0  0  0  0  0  0  0
   -0.1550   -0.2690    0.7340 C   0  0  2  0  0  0  0  0  0  0  0  0
   -0.1770   -0.9470   -0.6370 C   0  0  0  0  0  0  0  0  0  0  0  0
   -1.6450   -1.2680   -0.7790 C   0  0  0  0  0  0  0  0  0  0  0  0
   -2.2770    0.0580   -0.3460 C   0  0  1  0  0  0  0  0  0  0  0  0
   -2.4310    0.8950   -1.5800 C   0  0  0  0  0  0  0  0  0  0  0  0
   -3.6040   -0.2950    0.2860 C   0  0  0  0  0  0  0  0  0  0  0  0
   -1.3100    0.6690    0.6360 C   0  0  0  0  0  0  0  0  0  0  0  0
  1  2  1  0
  2  3  1  0
  3  4  1  0
  5  4  1  6
  5  6  1  0
  5 11  1  0
  6  7  1  0
  7  8  1  0
  8  9  1  6
  8 10  1  0
  8 11  1  0
M  CHG  1   4   1
M  END
