
     RDKit          3D

 26 28  0  0  0  0  0  0  0  0999 V2000
    5.8230    0.7250    1.3530 C   0  0  0  0  0  0  0  0  0  0  0  0
    4.9450   -0.4500    1.7310 C   0  0  0  0  0  0  0  0  0  0  0  0
    3.8240   -0.6180    0.7540 C   0  0  0  0  0  0  0  0  0  0  0  0
    3.9650   -1.4130   -0.3650 C   0  0  0  0  0  0  0  0  0  0  0  0
    2.9380   -1.5710   -1.2680 C   0  0  0  0  0  0  0  0  0  0  0  0
    3.1100   -2.4300   -2.4630 C   0  0  0  0  0  0  0  0  0  0  0  0
    1.7280   -0.9070   -1.0370 C   0  0  0  0  0  0  0  0  0  0  0  0
    1.5460   -0.1090    0.0600 C   0  0  0  0  0  0  0  0  0  0  0  0
    0.2600    0.5780    0.2870 C   0  0  1  0  0  0  0  0  0  0  0  0
    0.3630    1.9110    0.5820 O   0  0  0  0  0  0  0  0  0  0  0  0
   -0.7470    0.2640   -0.8140 C   0  0  0  0  0  0  0  0  0  0  0  0
   -1.9860    0.9350   -0.6030 N   0  0  0  0  0  0  0  0  0  0  0  0
   -3.0210    0.4360    0.0590 C   0  0  0  0  0  0  0  0  0  0  0  0
   -3.1110   -0.9750    0.4070 C   0  0  0  0  0  0  0  0  0  0  0  0
   -3.6850   -1.4510    1.5300 C   0  0  0  0  0  0  0  0  0  0  0  0
   -3.6330   -2.9170    1.5950 C   0  0  0  0  0  0  0  0  0  0  0  0
   -2.9880   -3.2860    0.3310 C   0  0  0  0  0  0  0  0  0  0  0  0
   -2.7010   -2.1690   -0.3140 C   0  0  0  0  0  0  0  0  0  0  0  0
   -4.1580    1.1980    0.3250 C   0  0  0  0  0  0  0  0  0  0  0  0
   -5.5540    0.5400    1.1400 Cl  0  0  0  0  0  0  0  0  0  0  0  0
   -4.2200    2.5270   -0.1150 C   0  0  0  0  0  0  0  0  0  0  0  0
   -3.1420    3.0310   -0.8030 C   0  0  0  0  0  0  0  0  0  0  0  0
   -3.1590    4.4320   -1.2930 C   0  0  0  0  0  0  0  0  0  0  0  0
   -2.0440    2.2440   -1.0410 C   0  0  0  0  0  0  0  0  0  0  0  0
   -1.0820    2.7510   -1.6760 O   0  0  0  0  0  0  0  0  0  0  0  0
    2.6160    0.0100    0.9300 C   0  0  0  0  0  0  0  0  0  0  0  0
  1  2  1  0
  2  3  1  0
  3  4  2  0
  3 26  1  0
  4  5  1  0
  5  6  1  0
  5  7  2  0
  7  8  1  0
  8  9  1  0
  8 26  2  0
  9 10  1  6
  9 11  1  0
 11 12  1  0
 12 13  1  0
 12 24  1  0
 13 14  1  0
 13 19  2  0
 14 15  2  0
 14 18  1  0
 15 16  1  0
 16 17  1  0
 17 18  2  0
 19 20  1  0
 19 21  1  0
 21 22  2  0
 22 23  1  0
 22 24  1  0
 24 25  2  0
M  END
