
     RDKit          3D

 26 28  0  0  0  0  0  0  0  0999 V2000
    6.9890   -0.1170    2.4890 C   0  0  0  0  0  0  0  0  0  0  0  0
    6.0310    0.3790    1.4750 C   0  0  0  0  0  0  0  0  0  0  0  0
    6.3180    1.5890    0.8790 C   0  0  0  0  0  0  0  0  0  0  0  0
    5.4790    2.1030   -0.0610 C   0  0  0  0  0  0  0  0  0  0  0  0
    4.3430    1.3940   -0.4030 C   0  0  0  0  0  0  0  0  0  0  0  0
    4.0050    0.1930    0.1500 C   0  0  0  0  0  0  0  0  0  0  0  0
    2.8630   -0.5730   -0.1660 N   0  0  0  0  0  0  0  0  0  0  0  0
    1.8900   -0.2870   -1.1390 C   0  0  0  0  0  0  0  0  0  0  0  0
    1.9800    0.7380   -1.8400 O   0  0  0  0  0  0  0  0  0  0  0  0
    0.7080   -1.2020   -1.3730 C   0  0  0  0  0  0  0  0  0  0  0  0
   -0.1590   -0.7010   -2.4250 C   0  0  0  0  0  0  0  0  0  0  0  0
   -1.4200   -0.3910   -2.2680 C   0  0  0  0  0  0  0  0  0  0  0  0
   -2.1580   -0.4990   -1.0110 C   0  0  0  0  0  0  0  0  0  0  0  0
   -3.4320   -0.1620   -0.9510 C   0  0  0  0  0  0  0  0  0  0  0  0
   -4.1860    0.3300   -2.0940 C   0  0  0  0  0  0  0  0  0  0  0  0
   -5.4700    0.6750   -2.0580 C   0  0  0  0  0  0  0  0  0  0  0  0
   -6.2830    1.2530   -3.4810 Cl  0  0  0  0  0  0  0  0  0  0  0  0
   -6.1680    0.5560   -0.8000 C   0  0  0  0  0  0  0  0  0  0  0  0
   -7.3880    0.8740   -0.7210 O   0  0  0  0  0  0  0  0  0  0  0  0
   -5.5130    0.0770    0.4020 C   0  0  0  0  0  0  0  0  0  0  0  0
   -6.2150   -0.0200    1.5780 C   0  0  0  0  0  0  0  0  0  0  0  0
   -5.5890   -0.4770    2.7240 C   0  0  0  0  0  0  0  0  0  0  0  0
   -4.2620   -0.8280    2.6580 C   0  0  0  0  0  0  0  0  0  0  0  0
   -3.5460   -0.7270    1.4550 C   0  0  0  0  0  0  0  0  0  0  0  0
   -4.1650   -0.2750    0.3210 C   0  0  0  0  0  0  0  0  0  0  0  0
    4.8940   -0.3050    1.1160 C   0  0  0  0  0  0  0  0  0  0  0  0
  1  2  1  0
  2  3  2  0
  2 26  1  0
  3  4  1  0
  4  5  2  0
  5  6  1  0
  6  7  1  0
  6 26  2  0
  7  8  1  0
  8  9  2  0
  8 10  1  0
 10 11  1  0
 11 12  2  3
 12 13  1  0
 13 14  2  3
 14 15  1  0
 14 25  1  0
 15 16  2  0
 16 17  1  0
 16 18  1  0
 18 19  2  0
 18 20  1  0
 20 21  2  0
 20 25  1  0
 21 22  1  0
 22 23  2  0
 23 24  1  0
 24 25  2  0
M  END
