
     RDKit          3D

 23 25  0  0  0  0  0  0  0  0999 V2000
    5.4140   -1.6170    0.3970 N   0  0  0  0  0  0  0  0  0  0  0  0
    5.1100   -0.0620    1.1120 S   0  0  2  0  0  0  0  0  0  0  0  0
    6.2170    0.8720    0.7320 O   0  0  0  0  0  0  0  0  0  0  0  0
    5.0680   -0.2690    2.6030 O   0  0  0  0  0  0  0  0  0  0  0  0
    3.5770    0.5320    0.5160 C   0  0  0  0  0  0  0  0  0  0  0  0
    2.4070    0.2390    1.1930 C   0  0  0  0  0  0  0  0  0  0  0  0
    1.1790    0.6970    0.7430 C   0  0  0  0  0  0  0  0  0  0  0  0
    1.0710    1.4640   -0.3980 C   0  0  0  0  0  0  0  0  0  0  0  0
   -0.1870    1.9440   -0.8760 N   0  0  0  0  0  0  0  0  0  0  0  0
   -1.3870    1.6660   -0.2150 N   0  0  0  0  0  0  0  0  0  0  0  0
   -1.9330    0.5150   -0.3570 C   0  0  0  0  0  0  0  0  0  0  0  0
   -1.4130   -0.5610   -1.1620 C   0  0  0  0  0  0  0  0  0  0  0  0
   -0.3460   -0.5390   -1.8480 O   0  0  0  0  0  0  0  0  0  0  0  0
   -2.3140   -1.6530   -1.0480 N   0  0  0  0  0  0  0  0  0  0  0  0
   -3.3870   -1.2870   -0.1910 C   0  0  0  0  0  0  0  0  0  0  0  0
   -4.5150   -1.9780    0.2460 C   0  0  0  0  0  0  0  0  0  0  0  0
   -5.4110   -1.3530    1.1000 C   0  0  0  0  0  0  0  0  0  0  0  0
   -5.2010   -0.0560    1.5230 C   0  0  0  0  0  0  0  0  0  0  0  0
   -6.4380    0.7800    2.6910 Br  0  0  0  0  0  0  0  0  0  0  0  0
   -4.0740    0.6460    1.0940 C   0  0  0  0  0  0  0  0  0  0  0  0
   -3.1780    0.0060    0.2330 C   0  0  0  0  0  0  0  0  0  0  0  0
    2.2460    1.7490   -1.0630 C   0  0  0  0  0  0  0  0  0  0  0  0
    3.4720    1.2980   -0.6240 C   0  0  0  0  0  0  0  0  0  0  0  0
  2  1  1  6
  2  3  2  0
  2  4  2  0
  2  5  1  0
  5  6  2  0
  5 23  1  0
  6  7  1  0
  7  8  2  0
  8  9  1  0
  8 22  1  0
  9 10  1  0
 10 11  2  3
 11 12  1  0
 11 21  1  0
 12 13  2  0
 12 14  1  0
 14 15  1  0
 15 16  2  0
 15 21  1  0
 16 17  1  0
 17 18  2  0
 18 19  1  0
 18 20  1  0
 20 21  2  0
 22 23  2  0
M  END
