
     RDKit          3D

 21 21  0  0  0  0  0  0  0  0999 V2000
   -5.1840    0.6250    1.0960 C   0  0  0  0  0  0  0  0  0  0  0  0
   -4.8150    1.0330   -0.3110 C   0  0  1  0  0  0  0  0  0  0  0  0
   -3.7690    2.5500   -0.2100 P   0  0  0  0  0  0  0  0  0  0  0  0
   -4.1570    0.0220   -1.0240 O   0  0  0  0  0  0  0  0  0  0  0  0
   -2.9510   -0.5470   -0.6320 C   0  0  0  0  0  0  0  0  0  0  0  0
   -2.9790   -1.7750   -0.1390 C   0  0  0  0  0  0  0  0  0  0  0  0
   -4.1750   -2.4780   -0.0140 O   0  0  0  0  0  0  0  0  0  0  0  0
   -1.7820   -2.4180    0.2820 N   0  0  0  0  0  0  0  0  0  0  0  0
   -0.5800   -1.7190    0.1610 N   0  0  0  0  0  0  0  0  0  0  0  0
   -0.5410   -0.4020   -0.3670 C   0  0  0  0  0  0  0  0  0  0  0  0
    0.6640    0.2750   -0.4790 O   0  0  0  0  0  0  0  0  0  0  0  0
    2.0730   -0.2880    0.4450 P   0  0  0  0  0  0  0  0  0  0  0  0
    3.5080    0.4590    0.3070 N   0  0  0  0  0  0  0  0  0  0  0  0
    4.6180    0.0050    1.0440 C   0  0  0  0  0  0  0  0  0  0  0  0
    5.8150    0.0230    0.5100 C   0  0  0  0  0  0  0  0  0  0  0  0
    6.9890   -0.4500    1.2720 C   0  0  0  0  0  0  0  0  0  0  0  0
    6.8720   -0.8740    2.4290 O   0  0  0  0  0  0  0  0  0  0  0  0
    5.9850    0.5120   -0.8380 C   0  0  0  0  0  0  0  0  0  0  0  0
    4.8650    0.9640   -1.5650 N   0  0  0  0  0  0  0  0  0  0  0  0
    7.1230    0.5310   -1.3490 O   0  0  0  0  0  0  0  0  0  0  0  0
   -1.6840    0.1440   -0.7410 C   0  0  0  0  0  0  0  0  0  0  0  0
  2  1  1  1
  2  3  1  0
  2  4  1  0
  4  5  1  0
  5  6  2  0
  5 21  1  0
  6  7  1  0
  6  8  1  0
  8  9  1  0
  9 10  1  0
 10 11  1  0
 10 21  2  0
 11 12  1  0
 12 13  2  3
 13 14  1  0
 14 15  2  3
 15 16  1  0
 15 18  1  0
 16 17  2  0
 18 19  1  0
 18 20  2  0
M  END
