
     RDKit          3D

 21 23  0  0  0  0  0  0  0  0999 V2000
    4.9980    1.5950    0.3100 C   0  0  0  0  0  0  0  0  0  0  0  0
    4.9850    0.4020   -0.6110 C   0  0  2  0  0  0  0  0  0  0  0  0
    5.6270    0.7250   -1.7830 O   0  0  0  0  0  0  0  0  0  0  0  0
    3.5730   -0.0060   -0.8470 C   0  0  0  0  0  0  0  0  0  0  0  0
    2.5720    0.6250   -0.3030 C   0  0  0  0  0  0  0  0  0  0  0  0
    1.4210    0.0110   -0.3030 C   0  0  0  0  0  0  0  0  0  0  0  0
    0.2850    0.6590    0.3320 C   0  0  0  0  0  0  0  0  0  0  0  0
   -0.9280   -0.1690    0.5100 C   0  0  1  0  0  0  0  0  0  0  0  0
   -1.9330    0.2250   -0.3740 O   0  0  0  0  0  0  0  0  0  0  0  0
   -3.3320    0.8470    0.4450 P   0  0  0  0  0  0  0  0  0  0  0  0
   -3.9020   -0.3980    1.6760 C   0  0  0  0  0  0  0  0  0  0  0  0
   -3.2130   -0.8910    2.5740 O   0  0  0  0  0  0  0  0  0  0  0  0
   -5.2210   -0.6570    1.3950 O   0  0  0  0  0  0  0  0  0  0  0  0
   -5.5100   -1.0720    0.1420 N   0  0  0  0  0  0  0  0  0  0  0  0
   -5.0640    0.3560   -0.9180 P   0  0  0  0  0  0  0  0  0  0  0  0
   -6.2880    1.6350   -0.6180 N   0  0  0  0  0  0  0  0  0  0  0  0
   -0.7170   -1.6510    0.4330 C   0  0  0  0  0  0  0  0  0  0  0  0
    0.1940   -2.0450   -0.5650 O   0  0  0  0  0  0  0  0  0  0  0  0
    1.2850   -1.3030   -0.9310 C   0  0  0  0  0  0  0  0  0  0  0  0
    2.1960   -1.6670   -1.7790 C   0  0  0  0  0  0  0  0  0  0  0  0
    3.3700   -1.1410   -1.7130 N   0  0  0  0  0  0  0  0  0  0  0  0
  2  1  1  1
  2  3  1  0
  2  4  1  0
  4  5  2  0
  4 21  1  0
  5  6  2  0
  6  7  1  0
  6 19  1  0
  7  8  1  0
  8  9  1  6
  8 17  1  0
  9 10  1  0
 10 11  1  0
 10 15  1  0
 11 12  2  0
 11 13  1  0
 13 14  1  0
 14 15  1  0
 15 16  1  0
 17 18  1  0
 18 19  1  0
 19 20  2  0
 20 21  2  0
M  END
