
     RDKit          3D

 28 30  0  0  0  0  0  0  0  0999 V2000
   -5.0750   -1.5770   -1.9720 N   0  0  0  0  0  0  0  0  0  0  0  0
   -4.6800   -0.2700   -1.5340 C   0  0  0  0  0  0  0  0  0  0  0  0
   -3.8120   -0.1150   -0.5190 N   0  0  0  0  0  0  0  0  0  0  0  0
   -3.4870    1.1380   -0.1600 C   0  0  0  0  0  0  0  0  0  0  0  0
   -4.0190    2.2180   -0.8050 C   0  0  0  0  0  0  0  0  0  0  0  0
   -3.5010    3.3100   -0.2190 N   0  0  0  0  0  0  0  0  0  0  0  0
   -2.6750    2.8990    0.7590 C   0  0  0  0  0  0  0  0  0  0  0  0
   -2.6650    1.5550    0.7960 N   0  0  0  0  0  0  0  0  0  0  0  0
   -1.8700    0.8160    1.7440 C   0  0  2  0  0  0  0  0  0  0  0  0
   -0.5580    0.8310    1.3280 O   0  0  0  0  0  0  0  0  0  0  0  0
   -0.0210   -0.4290    1.4370 C   0  0  2  0  0  0  0  0  0  0  0  0
    1.0850   -0.6770    0.4560 C   0  0  0  0  0  0  0  0  0  0  0  0
    2.1200    0.1770    0.6090 O   0  0  0  0  0  0  0  0  0  0  0  0
    3.4270    0.1140   -0.3280 P   0  0  0  0  0  0  0  0  0  0  0  0
    3.7940    1.5900   -0.0990 O   0  0  0  0  0  0  0  0  0  0  0  0
    3.2820    0.2690   -1.9730 O   0  0  0  0  0  0  0  0  0  0  0  0
    4.9300   -0.2750    0.3330 O   0  0  0  0  0  0  0  0  0  0  0  0
    6.0150   -0.7250   -0.6470 P   0  0  0  0  0  0  0  0  0  0  0  0
    5.9810    0.7430   -1.4040 O   0  0  0  0  0  0  0  0  0  0  0  0
    7.1310   -1.0490    0.4770 O   0  0  0  0  0  0  0  0  0  0  0  0
    4.9540   -1.9110   -1.1700 O   0  0  0  0  0  0  0  0  0  0  0  0
   -1.2020   -1.3490    1.1970 C   0  0  1  0  0  0  0  0  0  0  0  0
   -0.9940   -2.5830    1.8180 O   0  0  0  0  0  0  0  0  0  0  0  0
   -2.2890   -0.5840    1.9650 C   0  0  1  0  0  0  0  0  0  0  0  0
   -2.0750   -0.9200    3.3210 O   0  0  0  0  0  0  0  0  0  0  0  0
   -4.9210    2.0370   -1.8600 C   0  0  0  0  0  0  0  0  0  0  0  0
   -5.3950    3.0500   -2.4360 O   0  0  0  0  0  0  0  0  0  0  0  0
   -5.2270    0.7740   -2.1960 N   0  0  0  0  0  0  0  0  0  0  0  0
  1  2  1  0
  2  3  2  0
  2 28  1  0
  3  4  1  0
  4  5  2  0
  4  8  1  0
  5  6  1  0
  5 26  1  0
  6  7  2  0
  7  8  1  0
  9  8  1  6
  9 10  1  0
  9 24  1  0
 10 11  1  0
 11 12  1  6
 11 22  1  0
 12 13  1  0
 13 14  1  0
 14 15  1  0
 14 16  1  0
 14 17  1  0
 17 18  1  0
 18 19  1  0
 18 20  1  0
 18 21  1  0
 22 23  1  1
 22 24  1  0
 24 25  1  1
 26 27  2  0
 26 28  1  0
M  END
