
     RDKit          3D

 21 22  0  0  0  0  0  0  0  0999 V2000
    4.7050    0.1210   -0.7480 C   0  0  0  0  0  0  0  0  0  0  0  0
    3.7260   -0.4480    0.2500 C   0  0  0  0  0  0  0  0  0  0  0  0
    2.3270   -0.2620   -0.1850 C   0  0  0  0  0  0  0  0  0  0  0  0
    1.5290    0.4600    0.6110 C   0  0  0  0  0  0  0  0  0  0  0  0
    0.1620    0.7100    0.3010 N   0  0  0  0  0  0  0  0  0  0  0  0
   -0.3550    2.0320    0.3510 N   0  0  0  0  0  0  0  0  0  0  0  0
   -1.4390    2.3160   -0.3400 C   0  0  0  0  0  0  0  0  0  0  0  0
   -1.9740    3.5920   -0.3270 O   0  0  0  0  0  0  0  0  0  0  0  0
   -1.1010    4.7310   -0.1730 C   0  0  0  0  0  0  0  0  0  0  0  0
   -1.9810    1.2750   -1.0540 O   0  0  0  0  0  0  0  0  0  0  0  0
   -2.0320    0.0460   -0.3850 N   0  0  0  0  0  0  0  0  0  0  0  0
   -2.9540    0.2160    0.6590 C   0  0  0  0  0  0  0  0  0  0  0  0
   -3.4700   -0.8900    1.4630 C   0  0  0  0  0  0  0  0  0  0  0  0
   -0.7060   -0.3430   -0.1230 C   0  0  2  0  0  0  0  0  0  0  0  0
   -0.5880   -1.6660    0.5890 C   0  0  2  0  0  0  0  0  0  0  0  0
    0.7080   -2.0370    0.9110 O   0  0  0  0  0  0  0  0  0  0  0  0
   -0.9860   -2.6940   -0.4560 C   0  0  0  0  0  0  0  0  0  0  0  0
   -0.1290   -3.7880   -0.8060 N   0  0  0  0  0  0  0  0  0  0  0  0
   -2.0700   -2.6580   -1.0730 O   0  0  0  0  0  0  0  0  0  0  0  0
    0.1400   -0.7470   -1.8050 P   0  0  0  0  0  0  0  0  0  0  0  0
    1.8430   -0.8080   -1.3690 O   0  0  0  0  0  0  0  0  0  0  0  0
  1  2  1  0
  2  3  1  0
  3  4  2  0
  3 21  1  0
  4  5  1  0
  5  6  1  0
  5 14  1  0
  6  7  2  0
  7  8  1  0
  7 10  1  0
  8  9  1  0
 10 11  1  0
 11 12  1  0
 11 14  1  0
 12 13  1  0
 14 15  1  0
 14 20  1  6
 15 16  1  6
 15 17  1  0
 17 18  1  0
 17 19  2  0
 20 21  1  0
M  END
