
     RDKit          3D

 21 22  0  0  0  0  0  0  0  0999 V2000
   -4.4130    2.9290   -0.4230 C   0  0  0  0  0  0  0  0  0  0  0  0
   -3.3480    1.9030   -0.1500 C   0  0  0  0  0  0  0  0  0  0  0  0
   -3.1330    1.4370    1.0710 C   0  0  0  0  0  0  0  0  0  0  0  0
   -3.9220    1.8920    2.2430 C   0  0  0  0  0  0  0  0  0  0  0  0
   -2.0710    0.4270    1.2860 C   0  0  0  0  0  0  0  0  0  0  0  0
   -1.2720    0.0600   -0.3180 P   0  0  0  0  0  0  0  0  0  0  0  0
   -1.5600   -1.5880   -1.1210 C   0  0  1  0  0  0  0  0  0  0  0  0
   -1.8270   -1.6240   -2.5370 N   0  0  0  0  0  0  0  0  0  0  0  0
   -0.1950   -1.3500   -0.5890 C   0  0  2  0  0  0  0  0  0  0  0  0
    0.1830   -2.2550    0.5900 C   0  0  0  0  0  0  0  0  0  0  0  0
    1.0710   -3.3520    0.0560 C   0  0  0  0  0  0  0  0  0  0  0  0
    0.9540   -1.0610   -1.4880 C   0  0  0  0  0  0  0  0  0  0  0  0
    0.8080   -0.3530   -2.5180 O   0  0  0  0  0  0  0  0  0  0  0  0
    2.2270   -1.5390   -1.2550 O   0  0  0  0  0  0  0  0  0  0  0  0
    3.2280   -1.2680   -2.0640 O   0  0  0  0  0  0  0  0  0  0  0  0
    4.6130   -0.6150   -1.2700 P   0  0  0  0  0  0  0  0  0  0  0  0
    4.7830   -1.2650    0.3520 O   0  0  0  0  0  0  0  0  0  0  0  0
    5.3780   -0.2670    1.0750 N   0  0  0  0  0  0  0  0  0  0  0  0
    4.5070    0.6680    1.4700 O   0  0  0  0  0  0  0  0  0  0  0  0
    4.7100    1.9020    0.8210 C   0  0  0  0  0  0  0  0  0  0  0  0
    4.4090    1.5810   -1.0060 P   0  0  0  0  0  0  0  0  0  0  0  0
  1  2  1  0
  2  3  2  3
  3  4  1  0
  3  5  1  0
  5  6  1  0
  6  7  1  0
  6  9  1  0
  7  8  1  6
  7  9  1  0
  9 10  1  1
  9 12  1  0
 10 11  1  0
 12 13  2  0
 12 14  1  0
 14 15  1  0
 15 16  1  0
 16 17  1  0
 16 21  1  0
 17 18  1  0
 18 19  1  0
 19 20  1  0
 20 21  1  0
M  END
