
     RDKit          3D

 21 23  0  0  0  0  0  0  0  0999 V2000
   -2.4760   -2.3810    0.2780 C   0  0  0  0  0  0  0  0  0  0  0  0
   -2.1220   -1.1940   -0.2290 C   0  0  0  0  0  0  0  0  0  0  0  0
   -1.9960   -1.1310   -1.5970 O   0  0  0  0  0  0  0  0  0  0  0  0
   -0.4790   -0.3990   -2.3790 P   0  0  0  0  0  0  0  0  0  0  0  0
    0.5210   -1.7220   -2.8700 O   0  0  0  0  0  0  0  0  0  0  0  0
    0.0870    0.4410   -0.9540 N   0  0  0  0  0  0  0  0  0  0  0  0
    1.3100    0.0990   -0.4450 C   0  0  0  0  0  0  0  0  0  0  0  0
    1.5440   -0.1660    0.8950 C   0  0  0  0  0  0  0  0  0  0  0  0
    2.9940   -0.3600    1.0360 C   0  0  0  0  0  0  0  0  0  0  0  0
    3.5900    0.1150   -0.2530 C   0  0  0  0  0  0  0  0  0  0  0  0
    2.4910   -0.0850   -1.2610 C   0  0  0  0  0  0  0  0  0  0  0  0
    0.5440   -0.2410    1.9180 N   0  0  0  0  0  0  0  0  0  0  0  0
   -0.8540   -0.4720    1.7680 C   0  0  0  0  0  0  0  0  0  0  0  0
   -1.3460   -1.1790    2.7290 O   0  0  0  0  0  0  0  0  0  0  0  0
   -1.9230   -0.1210    0.8020 C   0  0  2  0  0  0  0  0  0  0  0  0
   -3.1520    0.2400    1.3360 N   0  0  0  0  0  0  0  0  0  0  0  0
   -3.5290    0.1320    2.4440 O   0  0  0  0  0  0  0  0  0  0  0  0
   -1.1940    1.4240   -0.1190 P   0  0  0  0  0  0  0  0  0  0  0  0
   -2.3750    2.0810   -1.2280 N   0  0  0  0  0  0  0  0  0  0  0  0
   -2.6730    3.3200   -1.1700 C   0  0  0  0  0  0  0  0  0  0  0  0
   -2.9720    4.9430   -1.0560 P   0  0  0  0  0  0  0  0  0  0  0  0
  1  2  2  0
  2  3  1  0
  2 15  1  0
  3  4  1  0
  4  5  1  0
  4  6  1  0
  6  7  1  0
  6 18  1  0
  7  8  2  0
  7 11  1  0
  8  9  1  0
  8 12  1  0
  9 10  1  0
 10 11  1  0
 12 13  1  0
 13 14  2  0
 13 15  1  0
 15 16  1  1
 15 18  1  0
 16 17  2  0
 18 19  1  0
 19 20  2  0
 20 21  2  0
M  END
