
     RDKit          3D

 17 19  0  0  0  0  0  0  0  0999 V2000
   -1.0530   -0.4970   -2.6380 C   0  0  0  0  0  0  0  0  0  0  0  0
   -2.1280    0.2120   -2.3800 C   0  0  0  0  0  0  0  0  0  0  0  0
   -2.5170    0.5530   -1.0160 C   0  0  1  0  0  0  0  0  0  0  0  0
   -3.9220    0.3340   -0.7200 N   0  0  0  0  0  0  0  0  0  0  0  0
   -4.2360    0.2820    0.6690 C   0  0  0  0  0  0  0  0  0  0  0  0
   -3.2060    0.8890    1.5660 C   0  0  0  0  0  0  0  0  0  0  0  0
   -1.9290    0.1230    1.3040 C   0  0  0  0  0  0  0  0  0  0  0  0
   -1.6320   -0.0160   -0.0130 C   0  0  0  0  0  0  0  0  0  0  0  0
   -0.4500   -0.7680   -0.3590 C   0  0  0  0  0  0  0  0  0  0  0  0
    0.3920   -1.2380    0.6550 O   0  0  0  0  0  0  0  0  0  0  0  0
    1.3690   -0.5050    1.3110 C   0  0  0  0  0  0  0  0  0  0  0  0
    2.4690    0.0220    0.4550 C   0  0  2  0  0  0  0  0  0  0  0  0
    3.2790   -1.0310   -0.2550 C   0  0  0  0  0  0  0  0  0  0  0  0
    4.6230   -0.2940   -0.3860 C   0  0  0  0  0  0  0  0  0  0  0  0
    4.7590    0.4220    0.7730 O   0  0  0  0  0  0  0  0  0  0  0  0
    3.5230    0.7570    1.2440 C   0  0  0  0  0  0  0  0  0  0  0  0
   -0.1460   -1.0230   -1.6210 C   0  0  0  0  0  0  0  0  0  0  0  0
  1  2  2  0
  1 17  1  0
  2  3  1  0
  3  4  1  1
  3  8  1  0
  4  5  1  0
  5  6  1  0
  6  7  1  0
  7  8  2  0
  8  9  1  0
  9 10  1  0
  9 17  2  0
 10 11  1  0
 12 11  1  1
 12 13  1  0
 12 16  1  0
 13 14  1  0
 14 15  1  0
 15 16  1  0
M  END
