
     RDKit          3D

 17 18  0  0  0  0  0  0  0  0999 V2000
   -2.6700    0.1010    2.2520 C   0  0  0  0  0  0  0  0  0  0  0  0
   -2.8370    0.1550    0.7180 C   0  0  0  0  0  0  0  0  0  0  0  0
   -1.5420    0.3870    0.0840 C   0  0  0  0  0  0  0  0  0  0  0  0
   -0.8980   -0.4100   -0.7460 C   0  0  0  0  0  0  0  0  0  0  0  0
   -1.4500   -1.6920   -1.1530 C   0  0  0  0  0  0  0  0  0  0  0  0
   -0.7390   -2.5710   -2.1190 C   0  0  0  0  0  0  0  0  0  0  0  0
   -2.5510   -2.1640   -0.7430 O   0  0  0  0  0  0  0  0  0  0  0  0
    0.4510   -0.0420   -1.2410 C   0  0  2  0  0  0  0  0  0  0  0  0
    1.5330   -0.5270   -0.3240 C   0  0  0  0  0  0  0  0  0  0  0  0
    2.4980    0.2160    0.1730 C   0  0  0  0  0  0  0  0  0  0  0  0
    3.3980   -0.5740    1.0380 C   0  0  0  0  0  0  0  0  0  0  0  0
    2.8170   -1.9220    0.9680 C   0  0  0  0  0  0  0  0  0  0  0  0
    1.7620   -1.8690    0.1930 C   0  0  0  0  0  0  0  0  0  0  0  0
    0.6640    1.3000   -1.4370 O   0  0  0  0  0  0  0  0  0  0  0  0
   -0.0910    2.1750   -0.7560 C   0  0  2  0  0  0  0  0  0  0  0  0
    0.7330    3.3210   -0.2430 C   0  0  0  0  0  0  0  0  0  0  0  0
   -0.8680    1.6370    0.3220 N   0  0  0  0  0  0  0  0  0  0  0  0
  1  2  1  0
  2  3  1  0
  3  4  2  0
  3 17  1  0
  4  5  1  0
  4  8  1  0
  5  6  1  0
  5  7  2  0
  8  9  1  1
  8 14  1  0
  9 10  2  0
  9 13  1  0
 10 11  1  0
 11 12  1  0
 12 13  2  0
 14 15  1  0
 15 16  1  1
 15 17  1  0
M  END
