
     RDKit          3D

 17 19  0  0  0  0  0  0  0  0999 V2000
    1.2610    2.1020   -0.5300 C   0  0  0  0  0  0  0  0  0  0  0  0
    1.5610    0.6430   -0.3870 C   0  0  0  0  0  0  0  0  0  0  0  0
    0.7360   -0.3540   -0.6540 C   0  0  0  0  0  0  0  0  0  0  0  0
   -0.5630   -0.2230   -1.1180 O   0  0  0  0  0  0  0  0  0  0  0  0
   -1.6040    0.3800   -0.3970 C   0  0  1  0  0  0  0  0  0  0  0  0
   -2.8500    0.3160   -1.2590 C   0  0  0  0  0  0  0  0  0  0  0  0
   -3.9870    0.9630   -0.5170 C   0  0  0  0  0  0  0  0  0  0  0  0
   -4.3780    0.0970    0.6590 C   0  0  0  0  0  0  0  0  0  0  0  0
   -3.2260   -0.5430    1.2620 N   0  0  0  0  0  0  0  0  0  0  0  0
   -1.9000   -0.2970    0.8750 C   0  0  0  0  0  0  0  0  0  0  0  0
   -0.9680   -0.6610    1.6270 O   0  0  0  0  0  0  0  0  0  0  0  0
    1.3820   -1.6600   -0.3920 C   0  0  0  0  0  0  0  0  0  0  0  0
    2.7520   -1.3220    0.0850 C   0  0  0  0  0  0  0  0  0  0  0  0
    3.8460   -1.9050    0.4880 C   0  0  0  0  0  0  0  0  0  0  0  0
    4.8260   -0.8430    0.8090 C   0  0  0  0  0  0  0  0  0  0  0  0
    4.0650    0.3940    0.5070 C   0  0  0  0  0  0  0  0  0  0  0  0
    2.8460    0.1120    0.0820 C   0  0  0  0  0  0  0  0  0  0  0  0
  1  2  1  0
  2  3  2  0
  2 17  1  0
  3  4  1  0
  3 12  1  0
  5  4  1  6
  5  6  1  0
  5 10  1  0
  6  7  1  0
  7  8  1  0
  8  9  1  0
  9 10  1  0
 10 11  2  0
 12 13  1  0
 13 14  2  0
 13 17  1  0
 14 15  1  0
 15 16  1  0
 16 17  2  0
M  END
