
     RDKit          3D

 17 19  0  0  0  0  0  0  0  0999 V2000
   -0.5560   -2.3320   -0.8080 C   0  0  0  0  0  0  0  0  0  0  0  0
   -0.6620   -1.1560    0.1860 C   0  0  2  0  0  0  0  0  0  0  0  0
   -0.2590   -1.7580    1.5190 C   0  0  0  0  0  0  0  0  0  0  0  0
   -2.0890   -0.7700    0.2810 C   0  0  0  0  0  0  0  0  0  0  0  0
   -2.4030    0.6060   -0.1170 C   0  0  0  0  0  0  0  0  0  0  0  0
   -1.5480    1.4870   -0.5450 C   0  0  0  0  0  0  0  0  0  0  0  0
   -0.1540    1.1050   -0.6490 C   0  0  0  0  0  0  0  0  0  0  0  0
    0.2600   -0.1270   -0.3100 C   0  0  0  0  0  0  0  0  0  0  0  0
    1.7040   -0.3980   -0.4760 C   0  0  2  0  0  0  0  0  0  0  0  0
    2.4020   -0.6470    0.8110 C   0  0  0  0  0  0  0  0  0  0  0  0
    3.6500    0.2550    0.7510 C   0  0  0  0  0  0  0  0  0  0  0  0
    3.6330    0.6940   -0.6740 C   0  0  0  0  0  0  0  0  0  0  0  0
    2.3060    0.6860   -1.0870 O   0  0  0  0  0  0  0  0  0  0  0  0
   -2.1820    2.7960   -0.8710 C   0  0  0  0  0  0  0  0  0  0  0  0
   -3.5530    2.5910   -0.5750 N   0  0  0  0  0  0  0  0  0  0  0  0
   -3.7140    1.2650   -0.1150 C   0  0  0  0  0  0  0  0  0  0  0  0
   -4.8260    0.7820    0.2260 O   0  0  0  0  0  0  0  0  0  0  0  0
  2  1  1  6
  2  3  1  0
  2  4  1  0
  2  8  1  0
  4  5  1  0
  5  6  2  0
  5 16  1  0
  6  7  1  0
  6 14  1  0
  7  8  2  0
  9  8  1  1
  9 10  1  0
  9 13  1  0
 10 11  1  0
 11 12  1  0
 12 13  1  0
 14 15  1  0
 15 16  1  0
 16 17  2  0
M  END
