
     RDKit          3D

 17 19  0  0  0  0  0  0  0  0999 V2000
   -2.2750    2.2160    0.0570 C   0  0  0  0  0  0  0  0  0  0  0  0
   -2.7270    0.8720   -0.2890 C   0  0  0  0  0  0  0  0  0  0  0  0
   -2.2650   -0.2860    0.1590 C   0  0  0  0  0  0  0  0  0  0  0  0
   -3.0360   -1.3670   -0.4750 C   0  0  0  0  0  0  0  0  0  0  0  0
   -3.9270   -0.8900   -1.2730 N   0  0  0  0  0  0  0  0  0  0  0  0
   -3.8190    0.5350   -1.2340 C   0  0  0  0  0  0  0  0  0  0  0  0
   -2.5320   -2.6610    0.0320 C   0  0  0  0  0  0  0  0  0  0  0  0
   -1.1190   -2.3110    0.4090 C   0  0  0  0  0  0  0  0  0  0  0  0
   -1.2920   -0.9240    1.0400 C   0  0  1  0  0  0  0  0  0  0  0  0
    0.0500   -0.2400    1.1200 C   0  0  0  0  0  0  0  0  0  0  0  0
    0.7980   -0.1530   -0.1610 C   0  0  1  0  0  0  0  0  0  0  0  0
    0.1440    0.5290   -1.1510 O   0  0  0  0  0  0  0  0  0  0  0  0
    2.0920    0.6130    0.1290 C   0  0  2  0  0  0  0  0  0  0  0  0
    3.0400    0.5560   -1.0330 C   0  0  0  0  0  0  0  0  0  0  0  0
    4.4050    0.6500   -0.4030 C   0  0  0  0  0  0  0  0  0  0  0  0
    4.0940    0.4390    1.0600 C   0  0  0  0  0  0  0  0  0  0  0  0
    2.8060   -0.0380    1.1370 O   0  0  0  0  0  0  0  0  0  0  0  0
  1  2  1  0
  2  3  2  0
  2  6  1  0
  3  4  1  0
  3  9  1  0
  4  5  2  0
  4  7  1  0
  5  6  1  0
  7  8  1  0
  8  9  1  0
  9 10  1  6
 10 11  1  0
 11 12  1  6
 11 13  1  0
 13 14  1  6
 13 17  1  0
 14 15  1  0
 15 16  1  0
 16 17  1  0
M  END
