
     RDKit          3D

 17 19  0  0  0  0  0  0  0  0999 V2000
   -1.4810    1.3120    1.5460 C   0  0  0  0  0  0  0  0  0  0  0  0
   -1.9600   -0.0530    1.9120 C   0  0  1  0  0  0  0  0  0  0  0  0
   -3.3790   -0.0510    1.6560 O   0  0  0  0  0  0  0  0  0  0  0  0
   -3.4680   -0.0450    0.2470 C   0  0  0  0  0  0  0  0  0  0  0  0
   -4.2390    0.3670   -0.7190 C   0  0  0  0  0  0  0  0  0  0  0  0
   -3.5930   -0.0440   -1.9770 C   0  0  0  0  0  0  0  0  0  0  0  0
   -2.3770   -0.7300   -1.5710 C   0  0  0  0  0  0  0  0  0  0  0  0
   -2.2950   -0.7350   -0.2620 C   0  0  0  0  0  0  0  0  0  0  0  0
   -1.5330   -1.1360    0.9540 C   0  0  1  0  0  0  0  0  0  0  0  0
   -0.1050   -1.2580    0.7290 C   0  0  0  0  0  0  0  0  0  0  0  0
    0.4870   -2.3210    1.1280 O   0  0  0  0  0  0  0  0  0  0  0  0
    0.7450   -0.3160    0.1020 N   0  0  0  0  0  0  0  0  0  0  0  0
    2.1610   -0.5330   -0.0700 C   0  0  2  0  0  0  0  0  0  0  0  0
    3.0210    0.4820    0.5910 C   0  0  0  0  0  0  0  0  0  0  0  0
    3.7190    1.1930   -0.5660 C   0  0  0  0  0  0  0  0  0  0  0  0
    3.9250    0.0400   -1.5350 C   0  0  0  0  0  0  0  0  0  0  0  0
    2.5540   -0.6020   -1.5280 C   0  0  0  0  0  0  0  0  0  0  0  0
  2  1  1  6
  2  3  1  0
  2  9  1  0
  3  4  1  0
  4  5  2  0
  4  8  1  0
  5  6  1  0
  6  7  1  0
  7  8  2  0
  8  9  1  0
  9 10  1  6
 10 11  2  0
 10 12  1  0
 13 12  1  6
 13 14  1  0
 13 17  1  0
 14 15  1  0
 15 16  1  0
 16 17  1  0
M  END
