
     RDKit          3D

 25 26  0  0  0  0  0  0  0  0999 V2000
   -6.3930   -1.7760    0.1790 C   0  0  0  0  0  0  0  0  0  0  0  0
   -5.0540   -1.1840    0.5480 C   0  0  2  0  0  0  0  0  0  0  0  0
   -5.3500    0.0210    1.4380 C   0  0  0  0  0  0  0  0  0  0  0  0
   -4.0420    0.4520    2.0350 C   0  0  0  0  0  0  0  0  0  0  0  0
   -3.1420    0.9460    0.9400 C   0  0  0  0  0  0  0  0  0  0  0  0
   -3.2160    0.1960   -0.2710 N   0  0  0  0  0  0  0  0  0  0  0  0
   -2.1410    0.2840   -1.2140 C   0  0  0  0  0  0  0  0  0  0  0  0
   -2.1940   -0.3860   -2.2970 O   0  0  0  0  0  0  0  0  0  0  0  0
   -1.0010    1.1470   -0.9110 C   0  0  1  0  0  0  0  0  0  0  0  0
    0.1110    0.9580   -1.9540 C   0  0  0  0  0  0  0  0  0  0  0  0
    0.6000   -0.4110   -1.9550 C   0  0  0  0  0  0  0  0  0  0  0  0
    1.8430   -0.7630   -1.7040 C   0  0  0  0  0  0  0  0  0  0  0  0
    2.9500    0.1520   -1.3800 C   0  0  0  0  0  0  0  0  0  0  0  0
    3.5500   -0.1490    0.0030 C   0  0  0  0  0  0  0  0  0  0  0  0
    4.0920   -1.5380    0.0760 C   0  0  0  0  0  0  0  0  0  0  0  0
    4.6550   -1.7600    1.4600 C   0  0  0  0  0  0  0  0  0  0  0  0
    5.7090   -0.7960    1.6840 N   0  0  0  0  0  0  0  0  0  0  0  0
    7.0140   -0.9910    1.3800 C   0  0  0  0  0  0  0  0  0  0  0  0
    7.6960    0.1340    1.7420 C   0  0  0  0  0  0  0  0  0  0  0  0
    6.8200    1.0010    2.2590 N   0  0  0  0  0  0  0  0  0  0  0  0
    5.6130    0.4270    2.2200 C   0  0  0  0  0  0  0  0  0  0  0  0
   -1.3430    2.5850   -0.9560 C   0  0  0  0  0  0  0  0  0  0  0  0
   -1.8580    3.1610   -2.1390 N   0  0  0  0  0  0  0  0  0  0  0  0
   -1.1800    3.3060    0.0500 O   0  0  0  0  0  0  0  0  0  0  0  0
   -4.3180   -0.6680   -0.6480 C   0  0  0  0  0  0  0  0  0  0  0  0
  2  1  1  6
  2  3  1  0
  2 25  1  0
  3  4  1  0
  4  5  1  0
  5  6  1  0
  6  7  1  0
  6 25  1  0
  7  8  2  0
  7  9  1  0
  9 10  1  6
  9 22  1  0
 10 11  1  0
 11 12  2  3
 12 13  1  0
 13 14  1  0
 14 15  1  0
 15 16  1  0
 16 17  1  0
 17 18  1  0
 17 21  1  0
 18 19  2  0
 19 20  1  0
 20 21  2  0
 22 23  1  0
 22 24  2  0
M  END
