
     RDKit          3D

 25 25  0  0  0  0  0  0  0  0999 V2000
   -5.1530   -2.0470   -1.3560 C   0  0  0  0  0  0  0  0  0  0  0  0
   -5.7590   -0.8950   -1.2860 C   0  0  0  0  0  0  0  0  0  0  0  0
   -5.3220    0.0720   -0.1870 C   0  0  0  0  0  0  0  0  0  0  0  0
   -6.0450    1.1310   -0.0870 C   0  0  0  0  0  0  0  0  0  0  0  0
   -6.2670    2.3480    0.6100 C   0  0  0  0  0  0  0  0  0  0  0  0
   -4.0610   -0.2040    0.5140 C   0  0  2  0  0  0  0  0  0  0  0  0
   -3.8480    1.0410    1.3800 C   0  0  0  0  0  0  0  0  0  0  0  0
   -2.5990    1.1870    2.1480 C   0  0  0  0  0  0  0  0  0  0  0  0
   -2.8180   -0.3240   -0.4180 C   0  0  0  0  0  0  0  0  0  0  0  0
   -1.7740   -0.8370    0.4330 C   0  0  0  0  0  0  0  0  0  0  0  0
   -0.8920   -1.2750    1.1440 C   0  0  0  0  0  0  0  0  0  0  0  0
    0.2060   -1.7900    2.0200 C   0  0  0  0  0  0  0  0  0  0  0  0
    1.4890   -1.3540    1.8310 N   0  0  0  0  0  0  0  0  0  0  0  0
    2.2870   -1.5780    0.6350 C   0  0  0  0  0  0  0  0  0  0  0  0
    1.7710   -2.1680   -0.3140 O   0  0  0  0  0  0  0  0  0  0  0  0
    3.6620   -1.1120    0.6240 C   0  0  0  0  0  0  0  0  0  0  0  0
    3.9670    0.1150    0.0460 N   0  0  0  0  0  0  0  0  0  0  0  0
    4.5350    0.4010   -1.1450 C   0  0  0  0  0  0  0  0  0  0  0  0
    5.0340   -0.5610   -2.1420 C   0  0  0  0  0  0  0  0  0  0  0  0
    6.4630   -0.9280   -1.7640 C   0  0  0  0  0  0  0  0  0  0  0  0
    7.3250    0.3240   -1.7830 C   0  0  0  0  0  0  0  0  0  0  0  0
    4.6130    1.7600   -1.2770 N   0  0  0  0  0  0  0  0  0  0  0  0
    4.1100    2.3060   -0.1830 N   0  0  0  0  0  0  0  0  0  0  0  0
    3.7130    1.3170    0.6230 C   0  0  0  0  0  0  0  0  0  0  0  0
    3.1850    1.5440    1.7470 O   0  0  0  0  0  0  0  0  0  0  0  0
  1  2  2  0
  2  3  1  0
  3  4  2  3
  3  6  1  0
  4  5  1  0
  6  7  1  1
  6  9  1  0
  7  8  1  0
  9 10  1  0
 10 11  3  0
 11 12  1  0
 12 13  1  0
 13 14  1  0
 14 15  2  0
 14 16  1  0
 16 17  1  0
 17 18  1  0
 17 24  1  0
 18 19  1  0
 18 22  2  0
 19 20  1  0
 20 21  1  0
 22 23  1  0
 23 24  1  0
 24 25  2  0
M  END
