
     RDKit          3D

 25 26  0  0  0  0  0  0  0  0999 V2000
    7.0860    0.6940   -0.2130 C   0  0  0  0  0  0  0  0  0  0  0  0
    5.9880   -0.2560   -0.7010 C   0  0  0  0  0  0  0  0  0  0  0  0
    4.6490    0.3990   -0.4640 C   0  0  0  0  0  0  0  0  0  0  0  0
    3.5890   -0.4310   -0.8940 N   0  0  0  0  0  0  0  0  0  0  0  0
    3.3260   -1.6230   -0.1960 C   0  0  0  0  0  0  0  0  0  0  0  0
    2.4210   -1.3270    0.9710 C   0  0  0  0  0  0  0  0  0  0  0  0
    1.4110   -0.2800    0.7590 C   0  0  0  0  0  0  0  0  0  0  0  0
    1.2430    0.2930   -0.6010 C   0  0  2  0  0  0  0  0  0  0  0  0
    0.0850   -0.2900   -1.3590 C   0  0  0  0  0  0  0  0  0  0  0  0
   -1.2000   -0.0680   -0.6490 N   0  0  0  0  0  0  0  0  0  0  0  0
   -1.5620    1.2910   -0.6850 C   0  0  0  0  0  0  0  0  0  0  0  0
   -2.7680    1.8890   -0.1340 C   0  0  0  0  0  0  0  0  0  0  0  0
   -2.6100    3.4090   -0.5040 C   0  0  0  0  0  0  0  0  0  0  0  0
   -3.7010    4.0920   -0.0350 O   0  0  0  0  0  0  0  0  0  0  0  0
   -3.5280    5.4310   -0.3970 C   0  0  0  0  0  0  0  0  0  0  0  0
   -1.8340   -1.1920   -0.0890 C   0  0  0  0  0  0  0  0  0  0  0  0
   -3.0480   -1.1050    0.5590 C   0  0  0  0  0  0  0  0  0  0  0  0
   -3.6750   -2.2130    1.0890 C   0  0  0  0  0  0  0  0  0  0  0  0
   -5.0020   -2.1170    1.7950 C   0  0  0  0  0  0  0  0  0  0  0  0
   -5.4160   -3.5010    2.2210 C   0  0  0  0  0  0  0  0  0  0  0  0
   -3.0670   -3.4060    0.9590 N   0  0  0  0  0  0  0  0  0  0  0  0
   -1.8840   -3.5170    0.3320 C   0  0  0  0  0  0  0  0  0  0  0  0
   -1.3000   -4.6360    0.2020 O   0  0  0  0  0  0  0  0  0  0  0  0
   -1.2660   -2.4390   -0.1870 N   0  0  0  0  0  0  0  0  0  0  0  0
    2.4620    0.1860   -1.4840 C   0  0  0  0  0  0  0  0  0  0  0  0
  1  2  1  0
  2  3  1  0
  3  4  1  0
  4  5  1  0
  4 25  1  0
  5  6  1  0
  6  7  1  0
  7  8  1  0
  8  9  1  6
  8 25  1  0
  9 10  1  0
 10 11  1  0
 10 16  1  0
 11 12  1  0
 12 13  1  0
 13 14  1  0
 14 15  1  0
 16 17  2  0
 16 24  1  0
 17 18  1  0
 18 19  1  0
 18 21  2  0
 19 20  1  0
 21 22  1  0
 22 23  2  0
 22 24  1  0
M  END
