
     RDKit          3D

 25 25  0  0  0  0  0  0  0  0999 V2000
    6.2510    1.5880   -1.6410 C   0  0  0  0  0  0  0  0  0  0  0  0
    6.4320    1.1970   -0.3930 C   0  0  0  0  0  0  0  0  0  0  0  0
    6.8780   -0.2080   -0.0680 C   0  0  0  0  0  0  0  0  0  0  0  0
    5.8300   -0.7750    0.7520 N   0  0  0  0  0  0  0  0  0  0  0  0
    4.5160   -0.8810    0.2390 C   0  0  0  0  0  0  0  0  0  0  0  0
    4.2480   -0.4860   -0.9310 O   0  0  0  0  0  0  0  0  0  0  0  0
    3.4340   -1.4260    0.9820 N   0  0  0  0  0  0  0  0  0  0  0  0
    2.0970   -1.5260    0.4380 C   0  0  0  0  0  0  0  0  0  0  0  0
    1.5420   -0.1670    0.0600 C   0  0  2  0  0  0  0  0  0  0  0  0
    1.4560    0.7300    1.1240 N   0  0  0  0  0  0  0  0  0  0  0  0
    0.2420    1.0200    1.3690 C   0  0  0  0  0  0  0  0  0  0  0  0
   -0.1870    1.9460    2.4390 C   0  0  0  0  0  0  0  0  0  0  0  0
   -0.6730    0.2980    0.4210 C   0  0  0  0  0  0  0  0  0  0  0  0
   -2.0980    0.4470    0.4820 C   0  0  0  0  0  0  0  0  0  0  0  0
   -2.4500    1.2970    1.4710 O   0  0  0  0  0  0  0  0  0  0  0  0
   -3.2340   -0.0110   -0.1560 N   0  0  0  0  0  0  0  0  0  0  0  0
   -3.4140   -0.9180   -1.2410 C   0  0  0  0  0  0  0  0  0  0  0  0
   -3.4930   -2.3820   -0.9190 C   0  0  0  0  0  0  0  0  0  0  0  0
   -4.4800    0.6630    0.2760 C   0  0  0  0  0  0  0  0  0  0  0  0
   -5.4470    0.0230    1.0690 C   0  0  0  0  0  0  0  0  0  0  0  0
   -5.4550   -1.1780    1.5650 C   0  0  0  0  0  0  0  0  0  0  0  0
   -4.6090    1.9080   -0.1210 C   0  0  0  0  0  0  0  0  0  0  0  0
   -3.5670    2.5500   -0.9350 C   0  0  0  0  0  0  0  0  0  0  0  0
    0.1070   -0.4100   -0.3640 C   0  0  0  0  0  0  0  0  0  0  0  0
   -0.2660   -1.2890   -1.4820 C   0  0  0  0  0  0  0  0  0  0  0  0
  1  2  2  0
  2  3  1  0
  3  4  1  0
  4  5  1  0
  5  6  2  0
  5  7  1  0
  7  8  1  0
  9  8  1  1
  9 10  1  0
  9 24  1  0
 10 11  2  0
 11 12  1  0
 11 13  1  0
 13 14  1  0
 13 24  2  0
 14 15  2  0
 14 16  1  0
 16 17  1  0
 16 19  1  0
 17 18  1  0
 19 20  1  0
 19 22  2  3
 20 21  2  0
 22 23  1  0
 24 25  1  0
M  END
