
     RDKit          3D

 23 22  0  0  0  0  0  0  0  0999 V2000
    3.9100   -2.7550    0.7710 C   0  0  0  0  0  0  0  0  0  0  0  0
    3.7560   -1.8930   -0.4540 C   0  0  0  0  0  0  0  0  0  0  0  0
    2.7240   -0.7920   -0.2350 C   0  0  0  0  0  0  0  0  0  0  0  0
    2.5700    0.0610   -1.4420 C   0  0  0  0  0  0  0  0  0  0  0  0
    1.6130    1.1870   -1.3620 C   0  0  2  0  0  0  0  0  0  0  0  0
    1.9780    2.1850   -0.2660 C   0  0  0  0  0  0  0  0  0  0  0  0
    3.2870    2.7290   -0.5340 N   0  0  0  0  0  0  0  0  0  0  0  0
    4.4100    2.1640   -0.0620 O   0  0  0  0  0  0  0  0  0  0  0  0
    3.3750    3.8990   -1.3230 C   0  0  0  0  0  0  0  0  0  0  0  0
    2.3440    4.4610   -1.7840 O   0  0  0  0  0  0  0  0  0  0  0  0
    0.2030    0.8730   -1.2200 C   0  0  0  0  0  0  0  0  0  0  0  0
   -0.5770    1.0970   -2.1790 O   0  0  0  0  0  0  0  0  0  0  0  0
   -0.3640    0.3230   -0.0580 N   0  0  0  0  0  0  0  0  0  0  0  0
   -1.8230    0.0300    0.0060 C   0  0  2  0  0  0  0  0  0  0  0  0
   -2.4010    0.7120    1.1670 C   0  0  0  0  0  0  0  0  0  0  0  0
   -1.6240    0.9450    2.1450 O   0  0  0  0  0  0  0  0  0  0  0  0
   -3.7410    1.1260    1.2770 N   0  0  0  0  0  0  0  0  0  0  0  0
   -4.7550    0.9830    0.2500 C   0  0  0  0  0  0  0  0  0  0  0  0
   -4.1840    1.7540    2.5170 C   0  0  0  0  0  0  0  0  0  0  0  0
   -1.9260   -1.4820    0.0610 C   0  0  2  0  0  0  0  0  0  0  0  0
   -3.3510   -1.9140    0.1260 C   0  0  0  0  0  0  0  0  0  0  0  0
   -1.1930   -2.0640    1.2390 C   0  0  0  0  0  0  0  0  0  0  0  0
   -1.3210   -2.0110   -1.2400 C   0  0  0  0  0  0  0  0  0  0  0  0
  1  2  1  0
  2  3  1  0
  3  4  1  0
  5  4  1  1
  5  6  1  0
  5 11  1  0
  6  7  1  0
  7  8  1  0
  7  9  1  0
  9 10  2  0
 11 12  2  0
 11 13  1  0
 14 13  1  1
 14 15  1  0
 14 20  1  0
 15 16  2  0
 15 17  1  0
 17 18  1  0
 17 19  1  0
 20 21  1  1
 20 22  1  0
 20 23  1  0
M  END
