
     RDKit          3D

 25 26  0  0  0  0  0  0  0  0999 V2000
    4.2370   -3.5130    1.2110 C   0  0  0  0  0  0  0  0  0  0  0  0
    4.6680   -2.2920    0.9960 C   0  0  0  0  0  0  0  0  0  0  0  0
    3.8210   -1.3460    0.2890 C   0  0  0  0  0  0  0  0  0  0  0  0
    4.2690   -0.1260    0.0810 C   0  0  0  0  0  0  0  0  0  0  0  0
    2.4800   -1.8270   -0.1350 C   0  0  0  0  0  0  0  0  0  0  0  0
    1.6630   -0.8270   -0.7460 N   0  0  0  0  0  0  0  0  0  0  0  0
    1.2000    0.3500   -0.0710 C   0  0  0  0  0  0  0  0  0  0  0  0
    1.5440    0.4690    1.1310 O   0  0  0  0  0  0  0  0  0  0  0  0
    0.3640    1.3390   -0.8000 C   0  0  2  0  0  0  0  0  0  0  0  0
   -0.0150    2.5240    0.0200 C   0  0  0  0  0  0  0  0  0  0  0  0
    1.1630    3.3300    0.5210 C   0  0  0  0  0  0  0  0  0  0  0  0
    0.6990    4.4990    1.3300 C   0  0  0  0  0  0  0  0  0  0  0  0
    1.6480    5.3830    1.8930 N   0  0  0  0  0  0  0  0  0  0  0  0
   -0.5250    4.6590    1.4830 O   0  0  0  0  0  0  0  0  0  0  0  0
   -0.7200    0.7270   -1.5000 N   0  0  0  0  0  0  0  0  0  0  0  0
   -0.9720    0.8510   -2.8090 C   0  0  0  0  0  0  0  0  0  0  0  0
   -2.0820    0.1290   -3.1210 C   0  0  0  0  0  0  0  0  0  0  0  0
   -2.4780   -0.4190   -1.9780 N   0  0  0  0  0  0  0  0  0  0  0  0
   -1.6610   -0.0660   -0.9860 C   0  0  0  0  0  0  0  0  0  0  0  0
   -1.8580   -0.5230    0.4020 C   0  0  1  0  0  0  0  0  0  0  0  0
   -3.2290   -0.1290    0.8420 C   0  0  0  0  0  0  0  0  0  0  0  0
   -4.3310   -0.8150    0.0950 C   0  0  0  0  0  0  0  0  0  0  0  0
   -4.0970   -2.2380   -0.2300 C   0  0  0  0  0  0  0  0  0  0  0  0
   -2.6980   -2.6880   -0.3430 C   0  0  0  0  0  0  0  0  0  0  0  0
   -1.7400   -2.0200    0.5780 C   0  0  0  0  0  0  0  0  0  0  0  0
  1  2  2  0
  2  3  1  0
  3  4  2  0
  3  5  1  0
  5  6  1  0
  6  7  1  0
  7  8  2  0
  7  9  1  0
  9 10  1  1
  9 15  1  0
 10 11  1  0
 11 12  1  0
 12 13  1  0
 12 14  2  0
 15 16  1  0
 15 19  1  0
 16 17  2  0
 17 18  1  0
 18 19  2  0
 20 19  1  6
 20 21  1  0
 20 25  1  0
 21 22  1  0
 22 23  1  0
 23 24  1  0
 24 25  1  0
M  END
