
     RDKit          3D

 25 26  0  0  0  0  0  0  0  0999 V2000
   -4.1710   -2.5750   -0.0900 C   0  0  0  0  0  0  0  0  0  0  0  0
   -4.5340   -1.5370   -1.1060 C   0  0  1  0  0  0  0  0  0  0  0  0
   -6.0120   -1.5000   -1.3470 C   0  0  0  0  0  0  0  0  0  0  0  0
   -3.9890   -0.1910   -0.8490 C   0  0  0  0  0  0  0  0  0  0  0  0
   -4.3230    0.4990    0.4110 C   0  0  2  0  0  0  0  0  0  0  0  0
   -5.7780    0.7670    0.6680 C   0  0  0  0  0  0  0  0  0  0  0  0
   -3.6820    1.8970    0.3020 C   0  0  0  0  0  0  0  0  0  0  0  0
   -2.2580    1.8250    0.1340 N   0  0  0  0  0  0  0  0  0  0  0  0
   -1.3870    1.2480    1.0760 C   0  0  0  0  0  0  0  0  0  0  0  0
   -1.8090    0.7540    2.1450 O   0  0  0  0  0  0  0  0  0  0  0  0
    0.0020    1.2150    0.8310 N   0  0  0  0  0  0  0  0  0  0  0  0
    0.8990    0.6320    1.7970 C   0  0  2  0  0  0  0  0  0  0  0  0
    1.8190    1.7520    2.2490 C   0  0  0  0  0  0  0  0  0  0  0  0
    2.6550    2.2640    1.0940 C   0  0  0  0  0  0  0  0  0  0  0  0
    3.5450    1.1260    0.6650 C   0  0  0  0  0  0  0  0  0  0  0  0
    2.7300    0.0200    0.2530 N   0  0  0  0  0  0  0  0  0  0  0  0
    2.9490   -0.6100   -0.9880 C   0  0  0  0  0  0  0  0  0  0  0  0
    2.2080   -1.6000   -1.2990 O   0  0  0  0  0  0  0  0  0  0  0  0
    4.0080   -0.1520   -1.9240 C   0  0  0  0  0  0  0  0  0  0  0  0
    5.2990   -0.7730   -1.5000 C   0  0  0  0  0  0  0  0  0  0  0  0
    6.4040   -0.1270   -1.1520 C   0  0  0  0  0  0  0  0  0  0  0  0
    7.4270   -1.1230   -0.8100 C   0  0  0  0  0  0  0  0  0  0  0  0
    6.7170   -2.4260   -1.0210 C   0  0  0  0  0  0  0  0  0  0  0  0
    5.5050   -2.1770   -1.4150 N   0  0  0  0  0  0  0  0  0  0  0  0
    1.6770   -0.4670    1.1100 C   0  0  0  0  0  0  0  0  0  0  0  0
  2  1  1  1
  2  3  1  0
  2  4  1  0
  4  5  1  0
  5  6  1  6
  5  7  1  0
  7  8  1  0
  8  9  1  0
  9 10  2  0
  9 11  1  0
 12 11  1  6
 12 13  1  0
 12 25  1  0
 13 14  1  0
 14 15  1  0
 15 16  1  0
 16 17  1  0
 16 25  1  0
 17 18  2  0
 17 19  1  0
 19 20  1  0
 20 21  2  0
 20 24  1  0
 21 22  1  0
 22 23  1  0
 23 24  2  0
M  END
