
     RDKit          3D

 45 49  0  0  0  0  0  0  0  0999 V2000
   -6.0510    3.1430   -1.2010 C   0  0  0  0  0  0  0  0  0  0  0  0
   -4.5300    2.3250   -0.6110 S   0  0  0  0  0  0  0  0  0  0  0  0
   -3.3370    3.2440   -0.8820 O   0  0  0  0  0  0  0  0  0  0  0  0
   -4.3640    0.7810   -1.5080 C   0  0  1  0  0  0  0  0  0  0  0  0
   -4.2610    0.9400   -2.9540 C   0  0  0  0  0  0  0  0  0  0  0  0
   -3.2110    1.1700   -3.5720 O   0  0  0  0  0  0  0  0  0  0  0  0
   -5.3740    0.8340   -3.7860 N   0  0  0  0  0  0  0  0  0  0  0  0
   -5.2640    0.9570   -5.1450 C   0  0  0  0  0  0  0  0  0  0  0  0
   -6.4650    0.7300   -5.6120 N   0  0  0  0  0  0  0  0  0  0  0  0
   -3.1680    0.0380   -1.0730 C   0  0  1  0  0  0  0  0  0  0  0  0
   -3.2050   -0.3350    0.3090 N   0  0  0  0  0  0  0  0  0  0  0  0
   -2.5300    0.3700    1.3310 C   0  0  0  0  0  0  0  0  0  0  0  0
   -1.8680    1.3950    1.0470 O   0  0  0  0  0  0  0  0  0  0  0  0
   -2.5980   -0.0950    2.7270 C   0  0  0  0  0  0  0  0  0  0  0  0
   -1.8140    0.8280    3.5720 C   0  0  0  0  0  0  0  0  0  0  0  0
   -2.4710    1.6370    4.4660 C   0  0  0  0  0  0  0  0  0  0  0  0
   -1.8020    2.4960    5.3030 C   0  0  0  0  0  0  0  0  0  0  0  0
   -2.4720    3.3000    6.1920 F   0  0  0  0  0  0  0  0  0  0  0  0
   -0.4350    2.5150    5.2100 C   0  0  0  0  0  0  0  0  0  0  0  0
    0.2390    1.6830    4.2910 C   0  0  0  0  0  0  0  0  0  0  0  0
   -0.4360    0.8330    3.4620 C   0  0  0  0  0  0  0  0  0  0  0  0
    0.1600   -0.0050    2.5090 N   0  0  0  0  0  0  0  0  0  0  0  0
    1.5350   -0.0660    2.1440 C   0  0  0  0  0  0  0  0  0  0  0  0
    2.3320    0.6860    2.7250 O   0  0  0  0  0  0  0  0  0  0  0  0
    2.0140   -0.9520    1.1350 N   0  0  0  0  0  0  0  0  0  0  0  0
    3.3660   -1.0640    0.7060 C   0  0  0  0  0  0  0  0  0  0  0  0
    4.4330   -0.4330    1.2500 C   0  0  0  0  0  0  0  0  0  0  0  0
    5.7230   -0.5880    0.7690 C   0  0  0  0  0  0  0  0  0  0  0  0
    5.8530   -1.4380   -0.3150 C   0  0  0  0  0  0  0  0  0  0  0  0
    4.8110   -2.1040   -0.9000 C   0  0  0  0  0  0  0  0  0  0  0  0
    3.5580   -1.9210   -0.3930 C   0  0  0  0  0  0  0  0  0  0  0  0
    2.5050   -2.5810   -0.9740 F   0  0  0  0  0  0  0  0  0  0  0  0
    5.3550   -2.9450   -1.9650 C   0  0  0  0  0  0  0  0  0  0  0  0
    4.6520   -3.6780   -2.6950 O   0  0  0  0  0  0  0  0  0  0  0  0
    6.7330   -2.7360   -1.9530 O   0  0  0  0  0  0  0  0  0  0  0  0
    7.1020   -1.7390   -1.0740 C   0  0  2  0  0  0  0  0  0  0  0  0
    8.1760   -2.0630   -0.1140 C   0  0  0  0  0  0  0  0  0  0  0  0
    8.5610   -1.3690    0.9420 C   0  0  0  0  0  0  0  0  0  0  0  0
    8.0860   -0.1120    1.4950 C   0  0  0  0  0  0  0  0  0  0  0  0
    6.6970    0.1270    1.4410 O   0  0  0  0  0  0  0  0  0  0  0  0
   -2.6850   -1.0500   -1.9440 C   0  0  0  0  0  0  0  0  0  0  0  0
   -3.2980   -1.6960   -2.9870 C   0  0  0  0  0  0  0  0  0  0  0  0
   -2.4340   -2.6590   -3.5090 C   0  0  0  0  0  0  0  0  0  0  0  0
   -1.3390   -2.5400   -2.7460 N   0  0  0  0  0  0  0  0  0  0  0  0
   -1.4800   -1.6330   -1.8640 O   0  0  0  0  0  0  0  0  0  0  0  0
  2  1  1  6
  2  3  2  0
  2  4  1  0
  4  5  1  6
  4 10  1  0
  5  6  2  0
  5  7  1  0
  7  8  1  0
  8  9  2  0
 10 11  1  1
 10 41  1  0
 11 12  1  0
 12 13  2  0
 12 14  1  0
 14 15  1  0
 15 16  2  0
 15 21  1  0
 16 17  1  0
 17 18  1  0
 17 19  2  0
 19 20  1  0
 20 21  2  0
 21 22  1  0
 22 23  1  0
 23 24  2  0
 23 25  1  0
 25 26  1  0
 26 27  2  0
 26 31  1  0
 27 28  1  0
 28 29  2  0
 28 40  1  0
 29 30  1  0
 29 36  1  0
 30 31  2  0
 30 33  1  0
 31 32  1  0
 33 34  2  0
 33 35  1  0
 36 35  1  6
 36 37  1  0
 37 38  2  0
 38 39  1  0
 39 40  1  0
 41 42  2  0
 41 45  1  0
 42 43  1  0
 43 44  2  0
 44 45  1  0
M  END
