
     RDKit          3D

 45 49  0  0  0  0  0  0  0  0999 V2000
    5.1590   -2.3830   -4.5100 C   0  0  0  0  0  0  0  0  0  0  0  0
    4.2630   -2.2770   -3.3800 N   0  0  0  0  0  0  0  0  0  0  0  0
    4.7510   -2.4650   -2.0620 C   0  0  0  0  0  0  0  0  0  0  0  0
    5.9660   -2.7230   -1.8990 O   0  0  0  0  0  0  0  0  0  0  0  0
    3.9050   -2.3730   -0.8880 C   0  0  0  0  0  0  0  0  0  0  0  0
    2.5360   -2.0940   -0.8830 C   0  0  0  0  0  0  0  0  0  0  0  0
    2.1270   -2.1000    0.4340 C   0  0  0  0  0  0  0  0  0  0  0  0
    0.8040   -1.8640    0.9360 C   0  0  1  0  0  0  0  0  0  0  0  0
    0.6330   -1.8980    2.4470 C   0  0  0  0  0  0  0  0  0  0  0  0
   -0.8680   -1.9060    2.7110 C   0  0  2  0  0  0  0  0  0  0  0  0
   -1.5810   -0.6800    2.2120 C   0  0  0  0  0  0  0  0  0  0  0  0
   -1.2670   -0.6380    0.7000 C   0  0  1  0  0  0  0  0  0  0  0  0
   -2.0850    0.2640   -0.0600 C   0  0  0  0  0  0  0  0  0  0  0  0
   -3.0200    1.1410    0.5060 C   0  0  0  0  0  0  0  0  0  0  0  0
   -3.7720    1.9490   -0.3000 C   0  0  0  0  0  0  0  0  0  0  0  0
   -4.6810    2.7970    0.3190 O   0  0  0  0  0  0  0  0  0  0  0  0
   -5.4930    3.6590   -0.4260 C   0  0  0  0  0  0  0  0  0  0  0  0
   -3.6710    1.9600   -1.6700 C   0  0  0  0  0  0  0  0  0  0  0  0
   -2.7540    1.1010   -2.2370 C   0  0  0  0  0  0  0  0  0  0  0  0
   -1.9820    0.2750   -1.4450 C   0  0  0  0  0  0  0  0  0  0  0  0
   -1.0510   -0.5970   -2.0280 O   0  0  0  0  0  0  0  0  0  0  0  0
   -0.8660   -0.6670   -3.4230 C   0  0  0  0  0  0  0  0  0  0  0  0
    0.1710   -0.5790    0.5570 N   0  0  0  0  0  0  0  0  0  0  0  0
    0.9680    0.5000    0.2010 C   0  0  0  0  0  0  0  0  0  0  0  0
    2.2360    0.3150    0.1080 O   0  0  0  0  0  0  0  0  0  0  0  0
    0.5580    1.8170   -0.0790 N   0  0  0  0  0  0  0  0  0  0  0  0
    1.5040    2.8770   -0.4520 C   0  0  1  0  0  0  0  0  0  0  0  0
    1.2840    3.3280   -1.8190 C   0  0  0  0  0  0  0  0  0  0  0  0
    1.2780    2.4450   -2.7710 O   0  0  0  0  0  0  0  0  0  0  0  0
    1.0780    4.6790   -2.1560 N   0  0  0  0  0  0  0  0  0  0  0  0
    1.0760    5.6800   -1.1530 C   0  0  0  0  0  0  0  0  0  0  0  0
    0.8960    6.8760   -1.4260 O   0  0  0  0  0  0  0  0  0  0  0  0
    1.2970    5.2140    0.2090 C   0  0  0  0  0  0  0  0  0  0  0  0
    1.4890    3.9610    0.5290 C   0  0  0  0  0  0  0  0  0  0  0  0
    1.7070    3.6240    2.0080 C   0  0  2  0  0  0  0  0  0  0  0  0
    0.7110    2.7680    2.3670 F   0  0  0  0  0  0  0  0  0  0  0  0
    1.6750    4.7550    2.7670 F   0  0  0  0  0  0  0  0  0  0  0  0
   -1.1940   -2.2680    4.0520 N   0  0  0  0  0  0  0  0  0  0  0  0
   -2.2620   -3.1630    4.1660 C   0  0  0  0  0  0  0  0  0  0  0  0
   -3.2030   -3.0900    5.0030 O   0  0  0  0  0  0  0  0  0  0  0  0
   -2.1880   -4.2620    3.1660 C   0  0  2  0  0  0  0  0  0  0  0  0
   -1.1630   -5.2950    3.5120 C   0  0  0  0  0  0  0  0  0  0  0  0
   -1.5250   -3.3180    1.7340 S   0  0  0  0  0  0  0  0  0  0  0  0
    3.1860   -2.3650    1.1590 O   0  0  0  0  0  0  0  0  0  0  0  0
    4.2220   -2.5260    0.4070 N   0  0  0  0  0  0  0  0  0  0  0  0
  1  2  1  0
  2  3  1  0
  3  4  2  0
  3  5  1  0
  5  6  1  0
  5 45  2  0
  6  7  2  0
  8  7  1  1
  7 44  1  0
  8  9  1  0
  8 23  1  0
 10  9  1  1
 10 11  1  0
 10 38  1  0
 10 43  1  0
 11 12  1  0
 12 13  1  1
 12 23  1  0
 13 14  2  0
 13 20  1  0
 14 15  1  0
 15 16  1  0
 15 18  2  0
 16 17  1  0
 18 19  1  0
 19 20  2  0
 20 21  1  0
 21 22  1  0
 23 24  1  0
 24 25  2  0
 24 26  1  0
 27 26  1  1
 27 28  1  0
 27 34  1  0
 28 29  2  0
 28 30  1  0
 30 31  1  0
 31 32  2  0
 31 33  1  0
 33 34  2  0
 34 35  1  0
 35 36  1  1
 35 37  1  0
 38 39  1  0
 39 40  2  0
 39 41  1  0
 41 42  1  1
 41 43  1  0
 44 45  1  0
M  END
