
     RDKit          3D

 44 48  0  0  0  0  0  0  0  0999 V2000
    1.8410    0.0100    1.8480 C   0  0  0  0  0  0  0  0  0  0  0  0
    1.1350   -1.3090    1.7080 C   0  0  2  0  0  0  0  0  0  0  0  0
    1.7630   -2.0630    0.7100 O   0  0  0  0  0  0  0  0  0  0  0  0
    2.2860   -3.3050    1.0330 C   0  0  0  0  0  0  0  0  0  0  0  0
    2.2370   -3.8290    2.1700 O   0  0  0  0  0  0  0  0  0  0  0  0
    2.9680   -4.1010   -0.0470 C   0  0  1  0  0  0  0  0  0  0  0  0
    3.0660   -3.3190   -1.2410 N   0  0  0  0  0  0  0  0  0  0  0  0
    4.2620   -4.6250    0.4950 C   0  0  0  0  0  0  0  0  0  0  0  0
    5.1420   -3.6070    0.9530 N   0  0  0  0  0  0  0  0  0  0  0  0
    5.7110   -2.5850    0.1960 C   0  0  0  0  0  0  0  0  0  0  0  0
    5.4600   -2.5180   -1.0160 O   0  0  0  0  0  0  0  0  0  0  0  0
    6.5850   -1.6020    0.7820 N   0  0  0  0  0  0  0  0  0  0  0  0
    7.1830   -0.5440    0.1180 C   0  0  0  0  0  0  0  0  0  0  0  0
    8.1750    0.1710    0.7880 C   0  0  0  0  0  0  0  0  0  0  0  0
    8.8160    1.2430    0.2280 C   0  0  0  0  0  0  0  0  0  0  0  0
    8.4940    1.6510   -1.0310 C   0  0  0  0  0  0  0  0  0  0  0  0
    7.5210    0.9720   -1.7270 C   0  0  0  0  0  0  0  0  0  0  0  0
    6.8740   -0.1250   -1.1360 C   0  0  0  0  0  0  0  0  0  0  0  0
    7.1940    1.4020   -3.0430 N   0  0  0  0  0  0  0  0  0  0  0  0
    7.8720    2.5210   -3.6180 C   0  0  0  0  0  0  0  0  0  0  0  0
    7.8890    2.6140   -4.8730 O   0  0  0  0  0  0  0  0  0  0  0  0
    8.5040    3.4870   -2.6900 C   0  0  0  0  0  0  0  0  0  0  0  0
    9.1160    2.7400   -1.6530 O   0  0  0  0  0  0  0  0  0  0  0  0
   -0.2960   -1.1610    1.2780 C   0  0  0  0  0  0  0  0  0  0  0  0
   -0.7630   -1.7000    0.2410 O   0  0  0  0  0  0  0  0  0  0  0  0
   -1.1300   -0.4120    2.0420 O   0  0  0  0  0  0  0  0  0  0  0  0
   -2.4730   -0.2100    1.7570 C   0  0  0  0  0  0  0  0  0  0  0  0
   -2.9130    0.6490    0.7760 C   0  0  0  0  0  0  0  0  0  0  0  0
   -4.2580    0.8330    0.5080 C   0  0  0  0  0  0  0  0  0  0  0  0
   -5.2390    0.1640    1.2150 C   0  0  0  0  0  0  0  0  0  0  0  0
   -4.8090   -0.6940    2.1960 C   0  0  0  0  0  0  0  0  0  0  0  0
   -3.4660   -0.8890    2.4740 C   0  0  0  0  0  0  0  0  0  0  0  0
   -3.0770   -1.7490    3.4510 F   0  0  0  0  0  0  0  0  0  0  0  0
   -6.6770    0.2820    1.0250 C   0  0  0  0  0  0  0  0  0  0  0  0
   -7.3090   -0.6510    1.5970 O   0  0  0  0  0  0  0  0  0  0  0  0
   -7.4700    1.2420    0.3250 N   0  0  0  0  0  0  0  0  0  0  0  0
   -8.7660    0.8270    0.7560 C   0  0  0  0  0  0  0  0  0  0  0  0
   -9.9070    1.7060    0.4090 C   0  0  0  0  0  0  0  0  0  0  0  0
  -10.2870    1.6070   -1.3670 S   0  0  0  0  0  0  0  0  0  0  0  0
   -8.7190    1.8830   -2.2420 C   0  0  0  0  0  0  0  0  0  0  0  0
   -7.9170    2.9040   -1.4620 C   0  0  0  0  0  0  0  0  0  0  0  0
   -6.9250    2.2710   -0.5290 C   0  0  2  0  0  0  0  0  0  0  0  0
   -5.7380    1.8460   -1.3340 C   0  0  0  0  0  0  0  0  0  0  0  0
   -4.5020    1.7640   -0.5690 N   0  0  0  0  0  0  0  0  0  0  0  0
  2  1  1  6
  2  3  1  0
  2 24  1  0
  3  4  1  0
  4  5  2  0
  4  6  1  0
  6  7  1  6
  6  8  1  0
  8  9  1  0
  9 10  1  0
 10 11  2  0
 10 12  1  0
 12 13  1  0
 13 14  2  0
 13 18  1  0
 14 15  1  0
 15 16  2  0
 16 17  1  0
 16 23  1  0
 17 18  2  0
 17 19  1  0
 19 20  1  0
 20 21  2  0
 20 22  1  0
 22 23  1  0
 24 25  2  0
 24 26  1  0
 26 27  1  0
 27 28  2  0
 27 32  1  0
 28 29  1  0
 29 30  2  0
 29 44  1  0
 30 31  1  0
 30 34  1  0
 31 32  2  0
 32 33  1  0
 34 35  2  0
 34 36  1  0
 36 37  1  0
 36 42  1  0
 37 38  1  0
 38 39  1  0
 39 40  1  0
 40 41  1  0
 42 41  1  6
 42 43  1  0
 43 44  1  0
M  END
