
     RDKit          3D

 44 48  0  0  0  0  0  0  0  0999 V2000
    0.3390   -2.9270    0.8000 C   0  0  0  0  0  0  0  0  0  0  0  0
   -0.6780   -1.8210    0.9890 C   0  0  1  0  0  0  0  0  0  0  0  0
   -0.1820   -0.4600    0.9100 C   0  0  0  0  0  0  0  0  0  0  0  0
   -0.5220    0.4060   -0.1290 C   0  0  0  0  0  0  0  0  0  0  0  0
   -0.1720    1.7530   -0.1190 C   0  0  0  0  0  0  0  0  0  0  0  0
   -0.6410    2.6330   -1.1930 C   0  0  0  0  0  0  0  0  0  0  0  0
    0.0290    2.9230   -2.1970 O   0  0  0  0  0  0  0  0  0  0  0  0
   -1.9470    3.1700   -1.0430 N   0  0  0  0  0  0  0  0  0  0  0  0
   -2.5860    4.0520   -2.0030 C   0  0  1  0  0  0  0  0  0  0  0  0
   -3.9480    3.4670   -2.2520 C   0  0  0  0  0  0  0  0  0  0  0  0
   -4.8380    4.4460   -2.9280 C   0  0  0  0  0  0  0  0  0  0  0  0
   -4.1880    6.0410   -2.3660 S   0  0  0  0  0  0  0  0  0  0  0  0
   -2.7950    5.4340   -1.3650 C   0  0  0  0  0  0  0  0  0  0  0  0
    0.4980    2.2160    0.8900 N   0  0  0  0  0  0  0  0  0  0  0  0
    0.8840    1.4440    1.9660 C   0  0  0  0  0  0  0  0  0  0  0  0
    1.6070    2.1530    2.8940 C   0  0  0  0  0  0  0  0  0  0  0  0
    0.9600    3.1760    3.3750 O   0  0  0  0  0  0  0  0  0  0  0  0
    2.8170    1.9920    3.3800 N   0  0  0  0  0  0  0  0  0  0  0  0
    4.0160    1.8480    2.8430 C   0  0  0  0  0  0  0  0  0  0  0  0
    5.0200    1.6580    3.6620 O   0  0  0  0  0  0  0  0  0  0  0  0
    4.4270    1.8570    1.5800 N   0  0  0  0  0  0  0  0  0  0  0  0
    3.9720    1.2250    0.4970 C   0  0  0  0  0  0  0  0  0  0  0  0
    3.9720    2.0010   -0.6730 C   0  0  0  0  0  0  0  0  0  0  0  0
    3.5290    1.4930   -1.8730 C   0  0  0  0  0  0  0  0  0  0  0  0
    3.5310    2.2370   -3.0090 F   0  0  0  0  0  0  0  0  0  0  0  0
    3.0720    0.1990   -1.9550 C   0  0  0  0  0  0  0  0  0  0  0  0
    3.0810   -0.5410   -0.8020 C   0  0  0  0  0  0  0  0  0  0  0  0
    3.5160   -0.0810    0.4340 C   0  0  0  0  0  0  0  0  0  0  0  0
    3.4620   -0.9030    1.4000 O   0  0  0  0  0  0  0  0  0  0  0  0
    3.9050   -1.2040    2.5350 C   0  0  0  0  0  0  0  0  0  0  0  0
    5.1000   -1.6720    2.8050 O   0  0  0  0  0  0  0  0  0  0  0  0
    3.1840   -1.0840    3.6700 N   0  0  0  0  0  0  0  0  0  0  0  0
    1.8840   -0.8440    3.8240 C   0  0  0  0  0  0  0  0  0  0  0  0
    1.5230   -0.6900    5.0810 O   0  0  0  0  0  0  0  0  0  0  0  0
    0.8620   -0.7220    3.0100 N   0  0  0  0  0  0  0  0  0  0  0  0
    0.5480    0.0930    1.9950 C   0  0  0  0  0  0  0  0  0  0  0  0
   -1.8310   -2.1290   -0.0140 C   0  0  2  0  0  0  0  0  0  0  0  0
   -2.4080   -3.4350    0.5030 C   0  0  0  0  0  0  0  0  0  0  0  0
   -3.0840   -4.2510   -0.5820 C   0  0  0  0  0  0  0  0  0  0  0  0
   -1.8630   -4.7490   -1.3920 C   0  0  1  0  0  0  0  0  0  0  0  0
   -2.2750   -5.7460   -2.2670 O   0  0  0  0  0  0  0  0  0  0  0  0
   -1.3840   -3.5510   -2.1320 C   0  0  2  0  0  0  0  0  0  0  0  0
   -0.1420   -3.8820   -2.7320 O   0  0  0  0  0  0  0  0  0  0  0  0
   -1.3590   -2.2490   -1.4220 C   0  0  0  0  0  0  0  0  0  0  0  0
  2  1  1  6
  2  3  1  0
  2 37  1  0
  3  4  2  0
  3 36  1  0
  4  5  1  0
  5  6  1  0
  5 14  2  0
  6  7  2  0
  6  8  1  0
  9  8  1  1
  9 10  1  0
  9 13  1  0
 10 11  1  0
 11 12  1  0
 12 13  1  0
 14 15  1  0
 15 16  1  0
 15 36  2  0
 16 17  2  0
 16 18  1  0
 18 19  1  0
 19 20  2  0
 19 21  1  0
 21 22  1  0
 22 23  2  0
 22 28  1  0
 23 24  1  0
 24 25  1  0
 24 26  2  0
 26 27  1  0
 27 28  2  0
 28 29  1  0
 29 30  1  0
 30 31  2  0
 30 32  1  0
 32 33  1  0
 33 34  2  0
 33 35  1  0
 35 36  1  0
 37 38  1  1
 37 44  1  0
 38 39  1  0
 39 40  1  0
 40 41  1  6
 40 42  1  0
 42 43  1  1
 42 44  1  0
M  END
