
     RDKit          3D

 45 49  0  0  0  0  0  0  0  0999 V2000
    1.1160   -5.6980    2.3310 C   0  0  0  0  0  0  0  0  0  0  0  0
    0.0190   -4.9080    1.9990 O   0  0  0  0  0  0  0  0  0  0  0  0
   -0.9460   -4.4420    2.8600 C   0  0  0  0  0  0  0  0  0  0  0  0
   -0.8300   -4.7600    4.0740 O   0  0  0  0  0  0  0  0  0  0  0  0
   -2.0480   -3.6150    2.3490 C   0  0  0  0  0  0  0  0  0  0  0  0
   -1.8560   -3.3150    0.6030 S   0  0  0  0  0  0  0  0  0  0  0  0
   -0.4930   -2.2820    0.1550 C   0  0  0  0  0  0  0  0  0  0  0  0
    0.7430   -2.7670   -0.2070 C   0  0  0  0  0  0  0  0  0  0  0  0
    1.8110   -1.9200   -0.5370 C   0  0  0  0  0  0  0  0  0  0  0  0
    1.6940   -0.5590   -0.5210 C   0  0  0  0  0  0  0  0  0  0  0  0
    2.7010    0.3790   -0.8350 N   0  0  0  0  0  0  0  0  0  0  0  0
    4.0220    0.0700   -1.1850 C   0  0  0  0  0  0  0  0  0  0  0  0
    4.3810   -1.1220   -1.2360 O   0  0  0  0  0  0  0  0  0  0  0  0
    4.9700    1.1030   -1.4900 N   0  0  0  0  0  0  0  0  0  0  0  0
    6.3100    0.9000   -1.8610 C   0  0  0  0  0  0  0  0  0  0  0  0
    6.8480   -0.2960   -2.2410 C   0  0  0  0  0  0  0  0  0  0  0  0
    8.1910   -0.3620   -2.5710 C   0  0  0  0  0  0  0  0  0  0  0  0
    9.0360    0.7220   -2.5410 C   0  0  0  0  0  0  0  0  0  0  0  0
    8.4770    1.9470   -2.1500 C   0  0  0  0  0  0  0  0  0  0  0  0
    9.3590    3.0100   -2.1340 O   0  0  0  0  0  0  0  0  0  0  0  0
    9.1090    4.3260   -1.7870 C   0  0  1  0  0  0  0  0  0  0  0  0
   10.0410    4.7890   -0.8460 F   0  0  0  0  0  0  0  0  0  0  0  0
    9.2550    5.1400   -2.9100 F   0  0  0  0  0  0  0  0  0  0  0  0
    7.1570    2.0200   -1.8240 C   0  0  0  0  0  0  0  0  0  0  0  0
    0.4200   -0.0880   -0.1490 C   0  0  0  0  0  0  0  0  0  0  0  0
   -0.6230   -0.9210    0.1740 C   0  0  0  0  0  0  0  0  0  0  0  0
   -1.9030   -0.2320    0.5220 C   0  0  0  0  0  0  0  0  0  0  0  0
   -1.9520   -0.0460    1.7650 O   0  0  0  0  0  0  0  0  0  0  0  0
   -2.8550    0.1240   -0.4350 N   0  0  0  0  0  0  0  0  0  0  0  0
   -2.4140   -0.2980   -1.8120 C   0  0  0  0  0  0  0  0  0  0  0  0
   -3.6440   -0.5880   -2.5800 N   0  0  0  0  0  0  0  0  0  0  0  0
   -4.4900   -1.3590   -1.6820 C   0  0  0  0  0  0  0  0  0  0  0  0
   -5.0780   -0.4490   -0.6220 C   0  0  2  0  0  0  0  0  0  0  0  0
   -6.4130    0.0290   -0.9930 C   0  0  0  0  0  0  0  0  0  0  0  0
   -7.0130   -0.5330   -1.9400 O   0  0  0  0  0  0  0  0  0  0  0  0
   -6.9250    1.1040   -0.2380 N   0  0  0  0  0  0  0  0  0  0  0  0
   -6.0700    1.7800    0.6560 C   0  0  0  0  0  0  0  0  0  0  0  0
   -4.5920    1.8290    0.3380 C   0  0  1  0  0  0  0  0  0  0  0  0
   -3.8160    2.3470    1.5180 C   0  0  1  0  0  0  0  0  0  0  0  0
   -4.2310    3.8020    1.8370 C   0  0  0  0  0  0  0  0  0  0  0  0
   -3.6570    3.9270    3.1300 O   0  0  0  0  0  0  0  0  0  0  0  0
   -3.9450    2.7150    3.7640 C   0  0  0  0  0  0  0  0  0  0  0  0
   -3.9910    2.5540    5.0180 O   0  0  0  0  0  0  0  0  0  0  0  0
   -4.1680    1.7320    2.7600 N   0  0  0  0  0  0  0  0  0  0  0  0
   -4.1070    0.7480   -0.4650 C   0  0  1  0  0  0  0  0  0  0  0  0
  1  2  1  0
  2  3  1  0
  3  4  2  0
  3  5  1  0
  5  6  1  0
  6  7  1  0
  7  8  2  0
  7 26  1  0
  8  9  1  0
  9 10  2  0
 10 11  1  0
 10 25  1  0
 11 12  1  0
 12 13  2  0
 12 14  1  0
 14 15  1  0
 15 16  2  0
 15 24  1  0
 16 17  1  0
 17 18  2  0
 18 19  1  0
 19 20  1  0
 19 24  2  0
 20 21  1  0
 21 22  1  1
 21 23  1  0
 25 26  2  0
 26 27  1  0
 27 28  2  0
 27 29  1  0
 29 30  1  0
 45 29  1  1
 30 31  1  0
 31 32  1  0
 33 32  1  6
 33 34  1  0
 33 45  1  0
 34 35  2  0
 34 36  1  0
 36 37  1  0
 38 37  1  1
 38 39  1  0
 38 45  1  0
 39 40  1  1
 39 44  1  0
 40 41  1  0
 41 42  1  0
 42 43  2  0
 42 44  1  0
M  END
