
     RDKit          3D

 44 48  0  0  0  0  0  0  0  0999 V2000
    4.6260   -0.7080   -2.9790 C   0  0  0  0  0  0  0  0  0  0  0  0
    5.5210   -0.2810   -1.9030 C   0  0  0  0  0  0  0  0  0  0  0  0
    6.8300   -0.6760   -1.9260 N   0  0  0  0  0  0  0  0  0  0  0  0
    7.6670   -0.3100   -0.9730 C   0  0  0  0  0  0  0  0  0  0  0  0
    9.4390   -0.6770   -0.7620 S   0  0  0  0  0  0  0  0  0  0  0  0
    9.6070    0.2770    0.8030 C   0  0  0  0  0  0  0  0  0  0  0  0
   10.8150    0.4030    1.5260 C   0  0  0  0  0  0  0  0  0  0  0  0
   11.9850   -0.2430    1.0630 N   0  0  0  0  0  0  0  0  0  0  0  0
   10.8660    1.0770    2.5690 O   0  0  0  0  0  0  0  0  0  0  0  0
    8.3500    0.7280    0.9500 C   0  0  0  0  0  0  0  0  0  0  0  0
    7.4050    0.4490    0.0950 N   0  0  0  0  0  0  0  0  0  0  0  0
    6.0770    0.8520    0.1230 C   0  0  0  0  0  0  0  0  0  0  0  0
    5.6320    1.5820    1.0630 O   0  0  0  0  0  0  0  0  0  0  0  0
    5.1640    0.5080   -0.8330 C   0  0  0  0  0  0  0  0  0  0  0  0
    3.7580    0.9980   -0.7760 C   0  0  0  0  0  0  0  0  0  0  0  0
    2.7890   -0.0440   -0.3650 C   0  0  0  0  0  0  0  0  0  0  0  0
    3.1700   -1.2100   -0.0950 O   0  0  0  0  0  0  0  0  0  0  0  0
    1.4180    0.2960   -0.2830 N   0  0  0  0  0  0  0  0  0  0  0  0
    0.3520   -0.6590    0.1160 C   0  0  2  0  0  0  0  0  0  0  0  0
   -0.4730   -0.8040   -1.0540 C   0  0  0  0  0  0  0  0  0  0  0  0
    0.2150   -1.3760   -2.0250 O   0  0  0  0  0  0  0  0  0  0  0  0
   -1.7560   -0.5250   -1.4620 N   0  0  0  0  0  0  0  0  0  0  0  0
   -3.0650   -0.9190   -0.9950 C   0  0  0  0  0  0  0  0  0  0  0  0
   -3.2280   -2.3880   -0.7760 C   0  0  0  0  0  0  0  0  0  0  0  0
   -3.9500   -2.9540    0.1490 C   0  0  0  0  0  0  0  0  0  0  0  0
   -4.7770   -2.3380    1.2010 C   0  0  0  0  0  0  0  0  0  0  0  0
   -5.5860   -1.1610    0.7550 C   0  0  0  0  0  0  0  0  0  0  0  0
   -5.6240    0.0120    1.3730 C   0  0  0  0  0  0  0  0  0  0  0  0
   -4.8160    0.2300    2.6110 C   0  0  0  0  0  0  0  0  0  0  0  0
   -5.5360    0.7760    3.5280 O   0  0  0  0  0  0  0  0  0  0  0  0
   -3.5380   -0.0670    2.8130 O   0  0  0  0  0  0  0  0  0  0  0  0
   -2.2700    0.4250    2.5420 C   0  0  2  0  0  0  0  0  0  0  0  0
   -1.7500    0.9730    3.7360 F   0  0  0  0  0  0  0  0  0  0  0  0
   -2.3860    1.5160    1.7080 F   0  0  0  0  0  0  0  0  0  0  0  0
   -1.3170   -0.6290    2.0920 C   0  0  0  0  0  0  0  0  0  0  0  0
   -0.0620   -0.3050    1.4590 C   0  0  2  0  0  0  0  0  0  0  0  0
    0.2190    1.1960    1.6910 C   0  0  0  0  0  0  0  0  0  0  0  0
   -6.5640    0.8830    0.6410 C   0  0  1  0  0  0  0  0  0  0  0  0
   -6.0180    2.2520    0.3190 C   0  0  0  0  0  0  0  0  0  0  0  0
   -4.9220    2.0860   -0.5490 O   0  0  0  0  0  0  0  0  0  0  0  0
   -5.4310    1.8510   -1.8010 C   0  0  0  0  0  0  0  0  0  0  0  0
   -6.4430    0.7810   -1.8760 C   0  0  0  0  0  0  0  0  0  0  0  0
   -6.9340    0.1700   -0.6060 C   0  0  1  0  0  0  0  0  0  0  0  0
   -6.4130   -1.1660   -0.3950 N   0  0  0  0  0  0  0  0  0  0  0  0
  1  2  1  0
  2  3  1  0
  2 14  2  0
  3  4  2  0
  4  5  1  0
  4 11  1  0
  5  6  1  0
  6  7  1  0
  6 10  2  0
  7  8  1  0
  7  9  2  0
 10 11  1  0
 11 12  1  0
 12 13  2  0
 12 14  1  0
 14 15  1  0
 15 16  1  0
 16 17  2  0
 16 18  1  0
 19 18  1  6
 19 20  1  0
 19 36  1  0
 20 21  2  0
 20 22  1  0
 22 23  1  0
 23 24  1  0
 24 25  2  0
 25 26  1  0
 26 27  1  0
 27 28  2  0
 27 44  1  0
 28 29  1  0
 28 38  1  0
 29 30  2  0
 29 31  1  0
 31 32  1  0
 32 33  1  1
 32 34  1  0
 32 35  1  0
 35 36  1  0
 36 37  1  6
 38 39  1  6
 38 43  1  0
 39 40  1  0
 40 41  1  0
 41 42  1  0
 43 42  1  6
 43 44  1  0
M  END
