
     RDKit          3D

 39 43  0  0  0  0  0  0  0  0999 V2000
   -5.0670    5.4930   -0.5030 C   0  0  0  0  0  0  0  0  0  0  0  0
   -4.0460    4.4310   -0.8440 C   0  0  0  0  0  0  0  0  0  0  0  0
   -4.5230    3.1470   -0.4890 O   0  0  0  0  0  0  0  0  0  0  0  0
   -3.7250    2.0410   -0.7250 C   0  0  0  0  0  0  0  0  0  0  0  0
   -2.5820    2.2540   -1.2590 O   0  0  0  0  0  0  0  0  0  0  0  0
   -4.0920    0.6690   -0.4100 C   0  0  0  0  0  0  0  0  0  0  0  0
   -5.2860    0.3060    0.1590 C   0  0  0  0  0  0  0  0  0  0  0  0
   -6.2210    1.2370    0.5250 O   0  0  0  0  0  0  0  0  0  0  0  0
   -5.6230   -1.0450    0.4040 C   0  0  0  0  0  0  0  0  0  0  0  0
   -6.9230   -1.3460    1.0110 C   0  0  0  0  0  0  0  0  0  0  0  0
   -7.1390   -2.6890    1.1930 O   0  0  0  0  0  0  0  0  0  0  0  0
   -4.7150   -2.0090    0.0540 C   0  0  0  0  0  0  0  0  0  0  0  0
   -3.5130   -1.6500   -0.5170 C   0  0  0  0  0  0  0  0  0  0  0  0
   -3.1850   -0.3290   -0.7530 C   0  0  0  0  0  0  0  0  0  0  0  0
   -1.9400   -0.0350   -1.3240 O   0  0  0  0  0  0  0  0  0  0  0  0
   -0.7730   -0.1990   -0.5750 C   0  0  0  0  0  0  0  0  0  0  0  0
   -0.3440    0.6760    0.3780 C   0  0  0  0  0  0  0  0  0  0  0  0
    0.8400    0.4150    1.0660 C   0  0  0  0  0  0  0  0  0  0  0  0
    1.6190   -0.6880    0.8420 C   0  0  0  0  0  0  0  0  0  0  0  0
    1.1710   -1.5710   -0.1320 C   0  0  0  0  0  0  0  0  0  0  0  0
    0.0080   -1.3440   -0.8280 C   0  0  0  0  0  0  0  0  0  0  0  0
    1.8880   -2.7170   -0.4320 O   0  0  0  0  0  0  0  0  0  0  0  0
    2.9170   -3.2450    0.3320 C   0  0  0  0  0  0  0  0  0  0  0  0
    3.1920   -2.4720    1.5550 C   0  0  0  0  0  0  0  0  0  0  0  0
    2.8540   -1.0020    1.5470 C   0  0  1  0  0  0  0  0  0  0  0  0
    4.0240   -0.1230    1.3310 C   0  0  0  0  0  0  0  0  0  0  0  0
    4.6020    0.0470   -0.0030 C   0  0  1  0  0  0  0  0  0  0  0  0
    5.0640   -1.1190   -0.6050 O   0  0  0  0  0  0  0  0  0  0  0  0
    3.8110    0.8220   -1.0130 C   0  0  0  0  0  0  0  0  0  0  0  0
    4.3490    0.4990   -2.2810 O   0  0  0  0  0  0  0  0  0  0  0  0
    5.7180    0.6590   -2.3020 C   0  0  0  0  0  0  0  0  0  0  0  0
    6.2310    1.4820   -1.1540 C   0  0  2  0  0  0  0  0  0  0  0  0
    7.6240    1.5690   -1.3100 O   0  0  0  0  0  0  0  0  0  0  0  0
    5.8870    0.9000    0.1940 C   0  0  1  0  0  0  0  0  0  0  0  0
    5.6180    2.0120    1.0870 N   0  0  0  0  0  0  0  0  0  0  0  0
   -2.8030   -2.8260   -0.7640 O   0  0  0  0  0  0  0  0  0  0  0  0
   -3.3190   -3.8840    0.0070 C   0  0  0  0  0  0  0  0  0  0  0  0
   -4.7640   -3.5090    0.1850 C   0  0  2  0  0  0  0  0  0  0  0  0
   -5.4970   -4.0570   -0.8550 O   0  0  0  0  0  0  0  0  0  0  0  0
  1  2  1  0
  2  3  1  0
  3  4  1  0
  4  5  2  0
  4  6  1  0
  6  7  2  0
  6 14  1  0
  7  8  1  0
  7  9  1  0
  9 10  1  0
  9 12  2  0
 10 11  1  0
 12 13  1  0
 12 38  1  0
 13 14  2  0
 13 36  1  0
 14 15  1  0
 15 16  1  0
 16 17  2  0
 16 21  1  0
 17 18  1  0
 18 19  2  0
 19 20  1  0
 19 25  1  0
 20 21  2  0
 20 22  1  0
 22 23  1  0
 23 24  1  0
 24 25  1  0
 25 26  1  6
 26 27  1  0
 27 28  1  6
 27 29  1  0
 27 34  1  0
 29 30  1  0
 30 31  1  0
 31 32  1  0
 32 33  1  6
 32 34  1  0
 34 35  1  1
 36 37  1  0
 37 38  1  0
 38 39  1  6
M  CHG  1  35   1
M  END
