
     RDKit          3D

 39 42  0  0  0  0  0  0  0  0999 V2000
   -2.2650    4.6080   -0.6960 C   0  0  0  0  0  0  0  0  0  0  0  0
   -1.0440    4.2550    0.1520 C   0  0  0  0  0  0  0  0  0  0  0  0
   -1.5470    3.5580    1.3910 C   0  0  0  0  0  0  0  0  0  0  0  0
   -2.3140    2.3250    1.2440 C   0  0  0  0  0  0  0  0  0  0  0  0
   -1.8290    1.0010    0.8880 C   0  0  2  0  0  0  0  0  0  0  0  0
   -1.1140    0.7480   -0.3840 C   0  0  0  0  0  0  0  0  0  0  0  0
   -0.1150   -0.2220   -0.2570 O   0  0  0  0  0  0  0  0  0  0  0  0
    0.7290   -0.3940   -1.2610 C   0  0  1  0  0  0  0  0  0  0  0  0
    2.1910   -0.2120   -1.0940 C   0  0  0  0  0  0  0  0  0  0  0  0
    2.7690    1.1380   -0.8170 C   0  0  1  0  0  0  0  0  0  0  0  0
    2.1960    1.6630    0.3710 O   0  0  0  0  0  0  0  0  0  0  0  0
    4.2300    0.9550   -0.4510 C   0  0  0  0  0  0  0  0  0  0  0  0
    4.4500    0.2630    0.7080 C   0  0  0  0  0  0  0  0  0  0  0  0
    5.7780    0.1670    1.1760 C   0  0  0  0  0  0  0  0  0  0  0  0
    6.7780    0.7570    0.4530 C   0  0  0  0  0  0  0  0  0  0  0  0
    6.5310    1.4490   -0.7210 C   0  0  0  0  0  0  0  0  0  0  0  0
    5.2130    1.5610   -1.1940 C   0  0  0  0  0  0  0  0  0  0  0  0
    5.2400    2.3140   -2.4060 O   0  0  0  0  0  0  0  0  0  0  0  0
    6.5510    1.9230   -2.9070 C   0  0  0  0  0  0  0  0  0  0  0  0
    7.3130    2.1300   -1.6770 O   0  0  0  0  0  0  0  0  0  0  0  0
    7.9880    0.5210    1.0980 O   0  0  0  0  0  0  0  0  0  0  0  0
    7.6820   -0.0380    2.3470 C   0  0  0  0  0  0  0  0  0  0  0  0
    6.3360   -0.4300    2.2820 O   0  0  0  0  0  0  0  0  0  0  0  0
    0.5050   -1.4540   -2.3110 C   0  0  0  0  0  0  0  0  0  0  0  0
    0.8890   -2.8280   -1.9700 C   0  0  0  0  0  0  0  0  0  0  0  0
    2.0640   -2.9760   -1.4860 O   0  0  0  0  0  0  0  0  0  0  0  0
    0.1060   -3.9000   -2.1430 O   0  0  0  0  0  0  0  0  0  0  0  0
   -1.0500   -4.3740   -1.5060 C   0  0  0  0  0  0  0  0  0  0  0  0
   -1.5960   -3.3050   -0.6160 C   0  0  0  0  0  0  0  0  0  0  0  0
   -2.9240   -3.5600   -0.0290 C   0  0  2  0  0  0  0  0  0  0  0  0
   -3.7770   -4.3440   -0.7920 O   0  0  0  0  0  0  0  0  0  0  0  0
   -3.6330   -2.2320    0.3840 C   0  0  1  0  0  0  0  0  0  0  0  0
   -4.4720   -2.6320    1.5310 C   0  0  0  0  0  0  0  0  0  0  0  0
   -5.3540   -3.6210    0.9680 O   0  0  0  0  0  0  0  0  0  0  0  0
   -2.6380   -1.2330    0.4920 N   0  0  0  0  0  0  0  0  0  0  0  0
   -3.0080   -0.0050    1.1440 C   0  0  1  0  0  0  0  0  0  0  0  0
   -3.0770   -0.1510    2.6290 C   0  0  0  0  0  0  0  0  0  0  0  0
   -4.2650    0.4750    0.4760 C   0  0  0  0  0  0  0  0  0  0  0  0
   -4.8570    1.5980    0.9300 O   0  0  0  0  0  0  0  0  0  0  0  0
  1  2  1  0
  2  3  1  0
  3  4  1  0
  5  4  1  6
  5  6  1  0
  5 36  1  0
  6  7  1  0
  7  8  1  0
  8  9  1  1
  8 24  1  0
  9 10  1  0
 10 11  1  1
 10 12  1  0
 12 13  2  0
 12 17  1  0
 13 14  1  0
 14 15  2  0
 14 23  1  0
 15 16  1  0
 15 21  1  0
 16 17  2  0
 16 20  1  0
 17 18  1  0
 18 19  1  0
 19 20  1  0
 21 22  1  0
 22 23  1  0
 24 25  1  0
 25 26  2  0
 25 27  1  0
 27 28  1  0
 28 29  1  0
 29 30  1  0
 30 31  1  6
 30 32  1  0
 32 33  1  1
 32 35  1  0
 33 34  1  0
 35 36  1  0
 36 37  1  1
 36 38  1  0
 38 39  1  0
M  CHG  1  35   1
M  END
