
     RDKit          3D

 39 42  0  0  0  0  0  0  0  0999 V2000
    2.3890   -3.5080    0.1670 C   0  0  0  0  0  0  0  0  0  0  0  0
    2.4700   -2.1190    0.3460 O   0  0  0  0  0  0  0  0  0  0  0  0
    1.7520   -1.3760    1.2880 C   0  0  0  0  0  0  0  0  0  0  0  0
    0.9830   -2.0080    2.0400 O   0  0  0  0  0  0  0  0  0  0  0  0
    1.9300    0.1240    1.3540 C   0  0  1  0  0  0  0  0  0  0  0  0
    3.1580    0.3440    2.2370 C   0  0  0  0  0  0  0  0  0  0  0  0
    4.3110   -0.3600    1.6850 C   0  0  0  0  0  0  0  0  0  0  0  0
    4.3740   -1.6590    1.8150 O   0  0  0  0  0  0  0  0  0  0  0  0
    5.3480    0.2120    1.0190 O   0  0  0  0  0  0  0  0  0  0  0  0
    6.3870   -0.6300    0.5080 C   0  0  1  0  0  0  0  0  0  0  0  0
    6.4790   -0.4820   -0.9750 C   0  0  0  0  0  0  0  0  0  0  0  0
    7.6500   -0.5040    1.2730 C   0  0  0  0  0  0  0  0  0  0  0  0
    8.3230    0.8200    1.3350 C   0  0  0  0  0  0  0  0  0  0  0  0
    8.7700    1.3270    0.0540 N   0  0  0  0  0  0  0  0  0  0  0  0
    2.0260    0.6780   -0.0120 C   0  0  0  0  0  0  0  0  0  0  0  0
    0.6400    0.4050   -0.6470 C   0  0  1  0  0  0  0  0  0  0  0  0
    0.4030   -0.8850   -0.4660 O   0  0  0  0  0  0  0  0  0  0  0  0
   -0.8150   -1.4460   -0.4810 C   0  0  0  0  0  0  0  0  0  0  0  0
   -1.7470   -0.7130   -1.3970 C   0  0  0  0  0  0  0  0  0  0  0  0
   -2.4510    0.4380   -0.8310 C   0  0  2  0  0  0  0  0  0  0  0  0
   -3.0990    0.1840    0.3660 O   0  0  0  0  0  0  0  0  0  0  0  0
   -3.4800    0.9750   -1.7710 C   0  0  2  0  0  0  0  0  0  0  0  0
   -3.8880    2.2100   -1.0360 O   0  0  0  0  0  0  0  0  0  0  0  0
   -4.7570    0.3210   -2.0520 C   0  0  1  0  0  0  0  0  0  0  0  0
   -4.4790   -0.7550   -3.0400 O   0  0  0  0  0  0  0  0  0  0  0  0
   -5.4360   -0.4000   -0.9440 C   0  0  0  0  0  0  0  0  0  0  0  0
   -5.0780   -1.5050   -0.2320 C   0  0  0  0  0  0  0  0  0  0  0  0
   -6.1240   -1.8500    0.5210 O   0  0  0  0  0  0  0  0  0  0  0  0
   -7.1320   -1.0300    0.3320 C   0  0  0  0  0  0  0  0  0  0  0  0
   -8.4030   -0.9180    0.8480 C   0  0  0  0  0  0  0  0  0  0  0  0
   -9.2510    0.0980    0.4530 C   0  0  0  0  0  0  0  0  0  0  0  0
   -8.8610    1.0520   -0.4770 C   0  0  0  0  0  0  0  0  0  0  0  0
   -9.7060    2.0710   -0.8670 O   0  0  0  0  0  0  0  0  0  0  0  0
   -7.5860    0.9340   -0.9930 C   0  0  0  0  0  0  0  0  0  0  0  0
   -6.7400   -0.1090   -0.5820 C   0  0  0  0  0  0  0  0  0  0  0  0
   -1.5490    1.6370   -0.5450 C   0  0  0  0  0  0  0  0  0  0  0  0
   -0.2390    1.4030    0.0430 C   0  0  1  0  0  0  0  0  0  0  0  0
   -0.1090    1.3120    1.5120 C   0  0  0  0  0  0  0  0  0  0  0  0
    0.8210    0.5450    2.0810 O   0  0  0  0  0  0  0  0  0  0  0  0
  1  2  1  0
  2  3  1  0
  3  4  2  0
  3  5  1  0
  5  6  1  1
  5 15  1  0
  5 39  1  0
  6  7  1  0
  7  8  2  0
  7  9  1  0
  9 10  1  0
 10 11  1  6
 10 12  1  0
 12 13  1  0
 13 14  1  0
 16 15  1  1
 16 17  1  0
 16 37  1  0
 17 18  1  0
 18 19  1  0
 19 20  1  0
 20 21  1  1
 20 22  1  0
 20 36  1  0
 22 23  1  1
 22 24  1  0
 24 25  1  6
 24 26  1  0
 26 27  2  0
 26 35  1  0
 27 28  1  0
 28 29  1  0
 29 30  2  0
 29 35  1  0
 30 31  1  0
 31 32  2  0
 32 33  1  0
 32 34  1  0
 34 35  2  0
 37 36  1  1
 37 38  1  0
 38 39  1  0
M  CHG  1  14   1
M  END
