
     RDKit          3D

 39 42  0  0  0  0  0  0  0  0999 V2000
    2.6080    5.3270   -2.6700 C   0  0  0  0  0  0  0  0  0  0  0  0
    1.6550    5.9390   -1.6850 C   0  0  0  0  0  0  0  0  0  0  0  0
    0.6060    5.0820   -1.2860 O   0  0  0  0  0  0  0  0  0  0  0  0
    0.8500    3.8670   -0.6410 C   0  0  0  0  0  0  0  0  0  0  0  0
    2.0550    3.6100   -0.4480 O   0  0  0  0  0  0  0  0  0  0  0  0
   -0.2650    2.9850   -0.2360 C   0  0  0  0  0  0  0  0  0  0  0  0
    0.0990    1.6190    0.2300 C   0  0  1  0  0  0  0  0  0  0  0  0
   -1.0940    0.9220    0.6570 N   0  0  0  0  0  0  0  0  0  0  0  0
   -2.1370    0.7950   -0.3220 C   0  0  0  0  0  0  0  0  0  0  0  0
   -3.3600    0.1670    0.3180 C   0  0  0  0  0  0  0  0  0  0  0  0
   -3.6240   -1.2060    0.2400 C   0  0  0  0  0  0  0  0  0  0  0  0
   -4.7730   -1.6130    0.9490 C   0  0  0  0  0  0  0  0  0  0  0  0
   -5.5780   -0.7530    1.6590 C   0  0  0  0  0  0  0  0  0  0  0  0
   -6.6980   -1.2030    2.3390 O   0  0  0  0  0  0  0  0  0  0  0  0
   -7.0000   -2.5840    2.2880 C   0  0  0  0  0  0  0  0  0  0  0  0
   -5.2890    0.5770    1.7080 C   0  0  0  0  0  0  0  0  0  0  0  0
   -6.0510    1.5050    2.4000 O   0  0  0  0  0  0  0  0  0  0  0  0
   -4.1570    1.0310    1.0210 C   0  0  0  0  0  0  0  0  0  0  0  0
   -3.9060    2.3990    1.1020 O   0  0  0  0  0  0  0  0  0  0  0  0
   -2.8290   -2.0670   -0.4690 O   0  0  0  0  0  0  0  0  0  0  0  0
   -2.6760   -2.2800   -1.8440 C   0  0  0  0  0  0  0  0  0  0  0  0
   -1.4410   -3.0820   -2.1760 C   0  0  2  0  0  0  0  0  0  0  0  0
   -1.7560   -4.1740   -3.0360 O   0  0  0  0  0  0  0  0  0  0  0  0
   -0.7440   -3.6880   -1.0090 C   0  0  0  0  0  0  0  0  0  0  0  0
    0.6440   -3.4500   -1.1380 O   0  0  0  0  0  0  0  0  0  0  0  0
    0.7970   -2.1040   -1.3250 C   0  0  0  0  0  0  0  0  0  0  0  0
    1.8500   -1.4770   -0.4660 C   0  0  0  0  0  0  0  0  0  0  0  0
    2.7930   -2.3440    0.0680 C   0  0  0  0  0  0  0  0  0  0  0  0
    3.7820   -1.8300    0.8760 C   0  0  0  0  0  0  0  0  0  0  0  0
    3.8270   -0.4760    1.1450 C   0  0  0  0  0  0  0  0  0  0  0  0
    2.8500    0.3600    0.5820 C   0  0  0  0  0  0  0  0  0  0  0  0
    1.8480   -0.1150   -0.2300 C   0  0  0  0  0  0  0  0  0  0  0  0
    0.8470    0.8280   -0.8090 C   0  0  2  0  0  0  0  0  0  0  0  0
    1.3800    1.6880   -1.7540 O   0  0  0  0  0  0  0  0  0  0  0  0
    4.7390    0.1960    1.9260 O   0  0  0  0  0  0  0  0  0  0  0  0
    6.1140   -0.0700    2.1330 C   0  0  0  0  0  0  0  0  0  0  0  0
    6.5440   -1.2340    1.2740 C   0  0  0  0  0  0  0  0  0  0  0  0
    6.0170   -2.5420    1.7660 C   0  0  0  0  0  0  0  0  0  0  0  0
    4.6780   -2.7760    1.3610 O   0  0  0  0  0  0  0  0  0  0  0  0
  1  2  1  0
  2  3  1  0
  3  4  1  0
  4  5  2  0
  4  6  1  0
  7  6  1  6
  7  8  1  0
  7 33  1  0
  8  9  1  0
  9 10  1  0
 10 11  2  0
 10 18  1  0
 11 12  1  0
 11 20  1  0
 12 13  2  0
 13 14  1  0
 13 16  1  0
 14 15  1  0
 16 17  1  0
 16 18  2  0
 18 19  1  0
 20 21  1  0
 21 22  1  0
 22 23  1  6
 22 24  1  0
 24 25  1  0
 25 26  1  0
 26 27  1  0
 27 28  2  0
 27 32  1  0
 28 29  1  0
 29 30  2  0
 29 39  1  0
 30 31  1  0
 30 35  1  0
 31 32  2  0
 32 33  1  0
 33 34  1  6
 35 36  1  0
 36 37  1  0
 37 38  1  0
 38 39  1  0
M  CHG  1   8   1
M  END
