
     RDKit          3D

 39 42  0  0  0  0  0  0  0  0999 V2000
   -5.6020    1.2030    2.0020 C   0  0  0  0  0  0  0  0  0  0  0  0
   -5.5960    0.0560    1.0160 C   0  0  1  0  0  0  0  0  0  0  0  0
   -6.7320    0.3850    0.0780 C   0  0  0  0  0  0  0  0  0  0  0  0
   -4.3060   -0.3380    0.4570 C   0  0  0  0  0  0  0  0  0  0  0  0
   -3.9700   -1.7160    0.6360 C   0  0  0  0  0  0  0  0  0  0  0  0
   -4.9110   -2.5450    1.1520 O   0  0  0  0  0  0  0  0  0  0  0  0
   -2.7560   -2.2080    0.3020 C   0  0  0  0  0  0  0  0  0  0  0  0
   -1.7490   -1.4480   -0.2320 C   0  0  0  0  0  0  0  0  0  0  0  0
   -2.0230   -0.0940   -0.4550 C   0  0  0  0  0  0  0  0  0  0  0  0
   -1.1520    0.7400   -1.0960 C   0  0  0  0  0  0  0  0  0  0  0  0
   -1.5420    2.0590   -1.3780 C   0  0  0  0  0  0  0  0  0  0  0  0
   -2.7550    2.5740   -1.0590 C   0  0  0  0  0  0  0  0  0  0  0  0
   -3.1250    3.9760   -1.4320 C   0  0  0  0  0  0  0  0  0  0  0  0
   -2.0860    4.6340   -2.0400 O   0  0  0  0  0  0  0  0  0  0  0  0
   -3.6350    1.7220   -0.4130 C   0  0  0  0  0  0  0  0  0  0  0  0
   -4.8360    2.2790   -0.1480 O   0  0  0  0  0  0  0  0  0  0  0  0
   -3.3130    0.4270   -0.0980 C   0  0  0  0  0  0  0  0  0  0  0  0
    0.1890    0.4240   -1.6750 C   0  0  0  0  0  0  0  0  0  0  0  0
    1.2030    1.0990   -1.0760 O   0  0  0  0  0  0  0  0  0  0  0  0
    2.3230    0.7140   -0.4300 C   0  0  0  0  0  0  0  0  0  0  0  0
    2.2570    0.6470    0.8620 O   0  0  0  0  0  0  0  0  0  0  0  0
    3.5800    0.3830   -1.1190 C   0  0  1  0  0  0  0  0  0  0  0  0
    4.1930    1.6910   -1.6760 C   0  0  0  0  0  0  0  0  0  0  0  0
    5.4580    1.6960   -0.8010 C   0  0  2  0  0  0  0  0  0  0  0  0
    6.4270    2.6670   -1.3610 C   0  0  0  0  0  0  0  0  0  0  0  0
    5.9360    3.9750   -1.1210 O   0  0  0  0  0  0  0  0  0  0  0  0
    5.8240    0.3450   -0.9710 O   0  0  0  0  0  0  0  0  0  0  0  0
    4.6620   -0.2900   -0.4150 C   0  0  1  0  0  0  0  0  0  0  0  0
    4.7900   -0.2410    1.0480 C   0  0  2  0  0  0  0  0  0  0  0  0
    6.1710    0.0580    1.3280 O   0  0  0  0  0  0  0  0  0  0  0  0
    4.4650   -1.5050    1.7530 C   0  0  0  0  0  0  0  0  0  0  0  0
    5.4700   -2.0940    2.2970 O   0  0  0  0  0  0  0  0  0  0  0  0
    3.2470   -2.0210    1.8410 O   0  0  0  0  0  0  0  0  0  0  0  0
    2.3230   -2.6320    1.0140 C   0  0  0  0  0  0  0  0  0  0  0  0
    1.0000   -2.6050    1.7240 C   0  0  2  0  0  0  0  0  0  0  0  0
    1.1050   -3.6040    2.7300 O   0  0  0  0  0  0  0  0  0  0  0  0
   -0.2050   -2.9730    0.9230 C   0  0  2  0  0  0  0  0  0  0  0  0
   -0.0900   -4.3420    0.5450 N   0  0  0  0  0  0  0  0  0  0  0  0
   -0.4230   -2.1080   -0.3150 C   0  0  0  0  0  0  0  0  0  0  0  0
  2  1  1  6
  2  3  1  0
  2  4  1  0
  4  5  2  0
  4 17  1  0
  5  6  1  0
  5  7  1  0
  7  8  2  0
  8  9  1  0
  8 39  1  0
  9 10  2  0
  9 17  1  0
 10 11  1  0
 10 18  1  0
 11 12  2  0
 12 13  1  0
 12 15  1  0
 13 14  1  0
 15 16  1  0
 15 17  2  0
 18 19  1  0
 19 20  1  0
 20 21  2  0
 20 22  1  0
 22 23  1  1
 22 28  1  0
 23 24  1  0
 24 25  1  6
 24 27  1  0
 25 26  1  0
 28 27  1  6
 28 29  1  0
 29 30  1  6
 29 31  1  0
 31 32  2  0
 31 33  1  0
 33 34  1  0
 34 35  1  0
 35 36  1  1
 35 37  1  0
 37 38  1  6
 37 39  1  0
M  CHG  1  38   1
M  END
