
     RDKit          3D

 39 41  0  0  0  0  0  0  0  0999 V2000
    7.7850   -2.8890    0.0870 C   0  0  0  0  0  0  0  0  0  0  0  0
    6.7730   -2.1480    0.6990 O   0  0  0  0  0  0  0  0  0  0  0  0
    5.6790   -1.6130    0.0000 C   0  0  0  0  0  0  0  0  0  0  0  0
    5.6350   -1.8530   -1.3540 C   0  0  0  0  0  0  0  0  0  0  0  0
    4.5800   -1.3460   -2.0730 C   0  0  0  0  0  0  0  0  0  0  0  0
    3.6140   -0.6200   -1.4020 C   0  0  0  0  0  0  0  0  0  0  0  0
    3.6140   -0.3560   -0.0550 C   0  0  0  0  0  0  0  0  0  0  0  0
    2.6730    0.3590    0.6410 O   0  0  0  0  0  0  0  0  0  0  0  0
    1.5470    0.9190    0.0570 C   0  0  2  0  0  0  0  0  0  0  0  0
    1.7010    2.3060    0.1860 O   0  0  0  0  0  0  0  0  0  0  0  0
    1.4010    2.9860   -0.9780 C   0  0  0  0  0  0  0  0  0  0  0  0
    1.2700    4.4330   -0.6870 C   0  0  0  0  0  0  0  0  0  0  0  0
    2.3620    5.0340   -0.5370 O   0  0  0  0  0  0  0  0  0  0  0  0
    0.0440    4.9910   -0.6060 O   0  0  0  0  0  0  0  0  0  0  0  0
   -1.0270    4.7700    0.2400 C   0  0  0  0  0  0  0  0  0  0  0  0
   -2.2190    4.0920   -0.3430 C   0  0  0  0  0  0  0  0  0  0  0  0
   -2.8600    3.1860    0.6840 C   0  0  0  0  0  0  0  0  0  0  0  0
   -3.4660    1.9400    0.0030 C   0  0  2  0  0  0  0  0  0  0  0  0
   -4.2180    2.5400   -1.0530 O   0  0  0  0  0  0  0  0  0  0  0  0
   -4.4890    1.4630    0.9630 C   0  0  0  0  0  0  0  0  0  0  0  0
   -5.2110    2.6210    1.3750 O   0  0  0  0  0  0  0  0  0  0  0  0
   -2.4950    1.0480   -0.5860 C   0  0  0  0  0  0  0  0  0  0  0  0
   -2.0570   -0.2260    0.0690 C   0  0  2  0  0  0  0  0  0  0  0  0
   -0.5840   -0.3700   -0.2080 C   0  0  2  0  0  0  0  0  0  0  0  0
   -0.0090   -1.7030   -0.3530 C   0  0  1  0  0  0  0  0  0  0  0  0
    0.3240   -2.3960    0.7690 O   0  0  0  0  0  0  0  0  0  0  0  0
   -0.9320   -2.5480   -1.2070 C   0  0  0  0  0  0  0  0  0  0  0  0
   -2.1470   -2.7230   -0.3300 C   0  0  2  0  0  0  0  0  0  0  0  0
   -1.7220   -3.0220    1.0020 O   0  0  0  0  0  0  0  0  0  0  0  0
   -2.8950   -3.8780   -0.8310 C   0  0  0  0  0  0  0  0  0  0  0  0
   -3.3520   -3.7840   -2.1380 O   0  0  0  0  0  0  0  0  0  0  0  0
   -2.8960   -1.4250   -0.1890 C   0  0  2  0  0  0  0  0  0  0  0  0
   -3.7980   -1.2930   -1.4000 C   0  0  0  0  0  0  0  0  0  0  0  0
   -3.8080   -1.7010    1.0320 C   0  0  0  0  0  0  0  0  0  0  0  0
    0.2550    0.5020    0.7310 C   0  0  1  0  0  0  0  0  0  0  0  0
    0.4230   -0.0470    2.0200 N   0  0  0  0  0  0  0  0  0  0  0  0
    4.7140   -0.8930    0.6500 C   0  0  0  0  0  0  0  0  0  0  0  0
    4.8010   -0.6740    2.0360 O   0  0  0  0  0  0  0  0  0  0  0  0
    5.4940    0.4890    2.4810 C   0  0  0  0  0  0  0  0  0  0  0  0
  1  2  1  0
  2  3  1  0
  3  4  2  0
  3 37  1  0
  4  5  1  0
  5  6  2  0
  6  7  1  0
  7  8  1  0
  7 37  2  0
  9  8  1  1
  9 10  1  0
  9 35  1  0
 10 11  1  0
 11 12  1  0
 12 13  2  0
 12 14  1  0
 14 15  1  0
 15 16  1  0
 16 17  1  0
 17 18  1  0
 18 19  1  6
 18 20  1  0
 18 22  1  0
 20 21  1  0
 23 22  1  6
 23 24  1  0
 23 32  1  0
 24 25  1  1
 24 35  1  0
 25 26  1  1
 25 27  1  0
 27 28  1  0
 28 29  1  1
 28 30  1  0
 28 32  1  0
 30 31  1  0
 32 33  1  6
 32 34  1  0
 35 36  1  1
 37 38  1  0
 38 39  1  0
M  CHG  1  36   1
M  END
