
     RDKit          3D

 39 42  0  0  0  0  0  0  0  0999 V2000
   -5.8590    2.7710    2.6700 C   0  0  0  0  0  0  0  0  0  0  0  0
   -4.9620    3.2020    1.6720 O   0  0  0  0  0  0  0  0  0  0  0  0
   -4.9100    2.5800    0.4010 C   0  0  0  0  0  0  0  0  0  0  0  0
   -5.7660    3.1590   -0.5190 C   0  0  0  0  0  0  0  0  0  0  0  0
   -6.5810    4.2540   -0.1700 O   0  0  0  0  0  0  0  0  0  0  0  0
   -5.8150    2.6510   -1.7900 C   0  0  0  0  0  0  0  0  0  0  0  0
   -6.6680    3.2290   -2.7160 O   0  0  0  0  0  0  0  0  0  0  0  0
   -4.9960    1.5780   -2.0680 C   0  0  0  0  0  0  0  0  0  0  0  0
   -4.1300    0.9700   -1.1750 C   0  0  0  0  0  0  0  0  0  0  0  0
   -4.0910    1.5110    0.1220 C   0  0  0  0  0  0  0  0  0  0  0  0
   -3.2460    0.9970    1.1050 O   0  0  0  0  0  0  0  0  0  0  0  0
   -1.8250    0.9190    0.9890 C   0  0  0  0  0  0  0  0  0  0  0  0
   -1.2860    0.2050    2.1650 C   0  0  0  0  0  0  0  0  0  0  0  0
    0.0590   -0.1420    2.1170 O   0  0  0  0  0  0  0  0  0  0  0  0
    0.9740   -0.2870    1.1060 C   0  0  0  0  0  0  0  0  0  0  0  0
    2.0340    0.6080    0.9950 C   0  0  0  0  0  0  0  0  0  0  0  0
    3.0050    0.5410    0.0050 C   0  0  0  0  0  0  0  0  0  0  0  0
    2.9410   -0.4580   -0.9350 C   0  0  0  0  0  0  0  0  0  0  0  0
    3.8510   -0.5840   -1.9270 O   0  0  0  0  0  0  0  0  0  0  0  0
    4.9710    0.1350   -2.2670 C   0  0  0  0  0  0  0  0  0  0  0  0
    6.0570    0.2220   -1.2840 C   0  0  0  0  0  0  0  0  0  0  0  0
    6.5650    1.2940   -0.7380 C   0  0  0  0  0  0  0  0  0  0  0  0
    6.1970    2.6950   -0.9580 C   0  0  2  0  0  0  0  0  0  0  0  0
    6.0510    3.0320   -2.3060 O   0  0  0  0  0  0  0  0  0  0  0  0
    7.3140    3.5960   -0.4290 C   0  0  0  0  0  0  0  0  0  0  0  0
    7.5730    3.3750    0.9050 O   0  0  0  0  0  0  0  0  0  0  0  0
    1.8680   -1.3580   -0.8140 C   0  0  0  0  0  0  0  0  0  0  0  0
    0.9110   -1.2930    0.1610 C   0  0  0  0  0  0  0  0  0  0  0  0
   -0.1210   -2.3840    0.1270 C   0  0  2  0  0  0  0  0  0  0  0  0
   -1.1550   -2.1820   -0.9490 C   0  0  0  0  0  0  0  0  0  0  0  0
   -2.5460   -2.1900   -0.4100 C   0  0  0  0  0  0  0  0  0  0  0  0
   -3.5050   -1.4860   -1.3070 C   0  0  0  0  0  0  0  0  0  0  0  0
   -3.3340   -0.1140   -1.4970 O   0  0  0  0  0  0  0  0  0  0  0  0
   -0.5390   -2.9560    1.4260 C   0  0  2  0  0  0  0  0  0  0  0  0
    0.3260   -2.7370    2.4970 O   0  0  0  0  0  0  0  0  0  0  0  0
   -0.2890   -4.3800    0.9030 C   0  0  2  0  0  0  0  0  0  0  0  0
    0.3730   -5.2270    1.8450 N   0  0  0  0  0  0  0  0  0  0  0  0
    0.5630   -3.7540   -0.1450 C   0  0  2  0  0  0  0  0  0  0  0  0
    1.9220   -3.7320    0.1490 O   0  0  0  0  0  0  0  0  0  0  0  0
  1  2  1  0
  2  3  1  0
  3  4  2  0
  3 10  1  0
  4  5  1  0
  4  6  1  0
  6  7  1  0
  6  8  2  0
  8  9  1  0
  9 10  2  0
  9 33  1  0
 10 11  1  0
 11 12  1  0
 12 13  1  0
 13 14  1  0
 14 15  1  0
 15 16  2  0
 15 28  1  0
 16 17  1  0
 17 18  2  0
 18 19  1  0
 18 27  1  0
 19 20  1  0
 20 21  1  0
 21 22  2  3
 22 23  1  0
 23 24  1  6
 23 25  1  0
 25 26  1  0
 27 28  2  0
 28 29  1  0
 29 30  1  6
 29 34  1  0
 29 38  1  0
 30 31  1  0
 31 32  1  0
 32 33  1  0
 34 35  1  1
 34 36  1  0
 36 37  1  1
 36 38  1  0
 38 39  1  1
M  CHG  1  37   1
M  END
