
     RDKit          3D

 13 13  0  0  0  0  0  0  0  0999 V2000
    3.5380   -0.6570   -0.1310 C   0  0  0  0  0  0  0  0  0  0  0  0
    2.2550   -1.2360    0.3980 C   0  0  0  0  0  0  0  0  0  0  0  0
    1.0750   -0.3930    0.0140 C   0  0  0  0  0  0  0  0  0  0  0  0
    1.0620    0.7690   -0.7190 C   0  0  0  0  0  0  0  0  0  0  0  0
   -0.2700    1.1890   -0.8150 C   0  0  0  0  0  0  0  0  0  0  0  0
   -0.7740    2.3310   -1.4730 N   0  0  0  0  0  0  0  0  0  0  0  0
   -0.1810    2.8200   -2.4330 O   0  0  0  0  0  0  0  0  0  0  0  0
   -1.9300    2.8980   -1.0390 O   0  0  0  0  0  0  0  0  0  0  0  0
   -0.9800    0.2290   -0.1180 C   0  0  0  0  0  0  0  0  0  0  0  0
   -2.4540    0.2380    0.0640 C   0  0  0  0  0  0  0  0  0  0  0  0
   -2.9080   -0.9620    0.8800 C   0  0  0  0  0  0  0  0  0  0  0  0
   -2.3180   -0.9550    2.1430 O   0  0  0  0  0  0  0  0  0  0  0  0
   -0.1580   -0.6660    0.3430 O   0  0  0  0  0  0  0  0  0  0  0  0
  1  2  1  0
  2  3  1  0
  3  4  2  0
  3 13  1  0
  4  5  1  0
  5  6  1  0
  5  9  2  0
  6  7  2  0
  6  8  1  0
  9 10  1  0
  9 13  1  0
 10 11  1  0
 11 12  1  0
M  CHG  2   6   1   8  -1
M  END
