
     RDKit          3D

 19 21  0  0  0  0  0  0  0  0999 V2000
    5.4130   -0.0600    0.9830 O   0  0  0  0  0  0  0  0  0  0  0  0
    4.3120   -0.4730    0.5260 C   0  0  0  0  0  0  0  0  0  0  0  0
    4.1600   -1.6250   -0.1660 N   0  0  0  0  0  0  0  0  0  0  0  0
    2.9820   -2.0570   -0.6540 C   0  0  0  0  0  0  0  0  0  0  0  0
    1.8750   -1.3430   -0.4680 N   0  0  0  0  0  0  0  0  0  0  0  0
    1.9610   -0.1850    0.2160 C   0  0  0  0  0  0  0  0  0  0  0  0
    0.9620    0.7520    0.4360 C   0  0  0  0  0  0  0  0  0  0  0  0
   -0.4510    0.5800    0.2500 C   0  0  2  0  0  0  0  0  0  0  0  0
   -1.0040   -0.6990    0.0180 N   0  0  0  0  0  0  0  0  0  0  0  0
   -2.4410   -0.3940   -0.1100 C   0  0  2  0  0  0  0  0  0  0  0  0
   -3.1340   -1.4660   -0.8740 C   0  0  0  0  0  0  0  0  0  0  0  0
   -2.9410   -2.6770   -0.1430 O   0  0  0  0  0  0  0  0  0  0  0  0
   -2.5430    0.9780   -0.6840 C   0  0  1  0  0  0  0  0  0  0  0  0
   -3.2420    1.8120    0.1890 O   0  0  0  0  0  0  0  0  0  0  0  0
   -1.1460    1.4700   -0.7310 C   0  0  1  0  0  0  0  0  0  0  0  0
   -0.9130    2.8050   -0.6690 O   0  0  0  0  0  0  0  0  0  0  0  0
    1.5760    1.7930    1.0910 C   0  0  0  0  0  0  0  0  0  0  0  0
    2.8980    1.4680    1.2470 N   0  0  0  0  0  0  0  0  0  0  0  0
    3.1750    0.2800    0.7240 C   0  0  0  0  0  0  0  0  0  0  0  0
  1  2  2  0
  2  3  1  0
  2 19  1  0
  3  4  1  0
  4  5  2  0
  5  6  1  0
  6  7  1  0
  6 19  2  0
  8  7  1  6
  7 17  2  0
  8  9  1  0
  8 15  1  0
  9 10  1  0
 10 11  1  6
 10 13  1  0
 11 12  1  0
 13 14  1  1
 13 15  1  0
 15 16  1  1
 17 18  1  0
 18 19  1  0
M  CHG  1   9   1
M  END
