
     RDKit          3D

 13 13  0  0  0  0  0  0  0  0999 V2000
    3.5920   -0.5990   -0.4540 C   0  0  0  0  0  0  0  0  0  0  0  0
    2.2690   -1.0410   -0.3690 O   0  0  0  0  0  0  0  0  0  0  0  0
    1.1940   -0.1890   -0.1480 C   0  0  0  0  0  0  0  0  0  0  0  0
    1.4050    1.1500   -0.0030 C   0  0  0  0  0  0  0  0  0  0  0  0
    0.3100    1.9710    0.2160 C   0  0  0  0  0  0  0  0  0  0  0  0
   -0.9720    1.4750    0.2900 C   0  0  0  0  0  0  0  0  0  0  0  0
   -2.0580    2.3100    0.5100 O   0  0  0  0  0  0  0  0  0  0  0  0
   -1.1480    0.1020    0.1370 C   0  0  0  0  0  0  0  0  0  0  0  0
   -2.5060   -0.4880    0.2160 C   0  0  0  0  0  0  0  0  0  0  0  0
   -2.5260   -1.9130    0.0220 N   0  0  0  0  0  0  0  0  0  0  0  0
   -2.8990   -2.6320    0.9690 O   0  0  0  0  0  0  0  0  0  0  0  0
   -2.1470   -2.5080   -1.1700 O   0  0  0  0  0  0  0  0  0  0  0  0
   -0.0850   -0.7370   -0.0810 C   0  0  0  0  0  0  0  0  0  0  0  0
  1  2  1  0
  2  3  1  0
  3  4  2  0
  3 13  1  0
  4  5  1  0
  5  6  2  0
  6  7  1  0
  6  8  1  0
  8  9  1  0
  8 13  2  0
  9 10  1  0
 10 11  2  0
 10 12  1  0
M  CHG  2  10   1  12  -1
M  END
