
     RDKit          3D

 13 13  0  0  0  0  0  0  0  0999 V2000
    2.5260   -0.9420   -1.6350 O   0  0  0  0  0  0  0  0  0  0  0  0
    2.7360   -0.3220   -0.5540 N   0  0  0  0  0  0  0  0  0  0  0  0
    3.5380    0.7780   -0.6670 O   0  0  0  0  0  0  0  0  0  0  0  0
    2.1600   -0.7720    0.6660 C   0  0  0  0  0  0  0  0  0  0  0  0
    1.0570    0.0210    1.2770 C   0  0  0  0  0  0  0  0  0  0  0  0
   -0.1590    0.1590    0.4690 C   0  0  0  0  0  0  0  0  0  0  0  0
   -1.2080   -0.7750    0.5900 C   0  0  0  0  0  0  0  0  0  0  0  0
   -2.3380   -0.7360   -0.1890 C   0  0  0  0  0  0  0  0  0  0  0  0
   -3.3610   -1.6570   -0.0630 O   0  0  0  0  0  0  0  0  0  0  0  0
   -2.4300    0.2730   -1.1260 C   0  0  0  0  0  0  0  0  0  0  0  0
   -1.4150    1.1970   -1.2590 C   0  0  0  0  0  0  0  0  0  0  0  0
   -0.2670    1.1510   -0.4600 C   0  0  0  0  0  0  0  0  0  0  0  0
    0.6530    2.1500   -0.7030 O   0  0  0  0  0  0  0  0  0  0  0  0
  1  2  2  0
  2  3  1  0
  2  4  1  0
  4  5  1  0
  5  6  1  0
  6  7  2  0
  6 12  1  0
  7  8  1  0
  8  9  1  0
  8 10  2  0
 10 11  1  0
 11 12  2  0
 12 13  1  0
M  CHG  2   2   1   3  -1
M  END
