
     RDKit          3D

 13 13  0  0  0  0  0  0  0  0999 V2000
    3.3450   -0.1910    0.2260 C   0  0  0  0  0  0  0  0  0  0  0  0
    2.3430    0.7800    0.0980 O   0  0  0  0  0  0  0  0  0  0  0  0
    0.9950    0.3730    0.0450 C   0  0  0  0  0  0  0  0  0  0  0  0
    0.5990   -0.9260    0.1150 C   0  0  0  0  0  0  0  0  0  0  0  0
   -0.7290   -1.3080    0.0610 C   0  0  0  0  0  0  0  0  0  0  0  0
   -1.1190   -2.6510    0.1330 O   0  0  0  0  0  0  0  0  0  0  0  0
   -1.7020   -0.3420   -0.0680 C   0  0  0  0  0  0  0  0  0  0  0  0
   -3.1430   -0.6850   -0.1310 C   0  0  0  0  0  0  0  0  0  0  0  0
   -1.3070    0.9840   -0.1390 C   0  0  0  0  0  0  0  0  0  0  0  0
    0.0200    1.3530   -0.0840 C   0  0  0  0  0  0  0  0  0  0  0  0
    0.4040    2.7130   -0.1580 N   0  0  0  0  0  0  0  0  0  0  0  0
    1.4030    3.1830    0.4140 O   0  0  0  0  0  0  0  0  0  0  0  0
   -0.3660    3.5700   -0.9070 O   0  0  0  0  0  0  0  0  0  0  0  0
  1  2  1  0
  2  3  1  0
  3  4  2  0
  3 10  1  0
  4  5  1  0
  5  6  1  0
  5  7  2  0
  7  8  1  0
  7  9  1  0
  9 10  2  0
 10 11  1  0
 11 12  2  0
 11 13  1  0
M  CHG  2  11   1  13  -1
M  END
