
     RDKit          3D

 39 42  0  0  0  0  0  0  0  0999 V2000
    6.2630    1.2760    0.4550 C   0  0  0  0  0  0  0  0  0  0  0  0
    5.5570    0.4390   -0.5400 C   0  0  1  0  0  0  0  0  0  0  0  0
    6.4680   -0.6240   -1.0630 C   0  0  0  0  0  0  0  0  0  0  0  0
    4.2050   -0.0380   -0.3140 C   0  0  0  0  0  0  0  0  0  0  0  0
    3.9470   -1.4230   -0.3440 C   0  0  0  0  0  0  0  0  0  0  0  0
    5.0280   -2.2800   -0.4790 O   0  0  0  0  0  0  0  0  0  0  0  0
    2.7130   -1.9600   -0.2390 C   0  0  0  0  0  0  0  0  0  0  0  0
    1.5630   -1.1650   -0.0860 C   0  0  0  0  0  0  0  0  0  0  0  0
    1.7560    0.2010   -0.0580 C   0  0  0  0  0  0  0  0  0  0  0  0
    0.7070    1.1000    0.0150 C   0  0  0  0  0  0  0  0  0  0  0  0
    0.9470    2.4750   -0.0200 C   0  0  0  0  0  0  0  0  0  0  0  0
    2.1670    3.0120   -0.1300 C   0  0  0  0  0  0  0  0  0  0  0  0
    2.4210    4.4800   -0.1740 C   0  0  0  0  0  0  0  0  0  0  0  0
    1.2140    5.1770   -0.0850 O   0  0  0  0  0  0  0  0  0  0  0  0
    3.2450    2.1200   -0.2090 C   0  0  0  0  0  0  0  0  0  0  0  0
    4.4780    2.7250   -0.3420 O   0  0  0  0  0  0  0  0  0  0  0  0
    3.0640    0.7580   -0.1710 C   0  0  0  0  0  0  0  0  0  0  0  0
   -0.7440    0.7810    0.0560 C   0  0  0  0  0  0  0  0  0  0  0  0
   -1.1740    0.7790    1.3670 O   0  0  0  0  0  0  0  0  0  0  0  0
   -2.2750    0.2060    1.9260 C   0  0  0  0  0  0  0  0  0  0  0  0
   -2.2710   -0.7830    2.7410 O   0  0  0  0  0  0  0  0  0  0  0  0
   -3.5990    0.7020    1.6240 C   0  0  1  0  0  0  0  0  0  0  0  0
   -3.8070    1.5850    0.4480 C   0  0  0  0  0  0  0  0  0  0  0  0
   -5.3480    1.6790    0.5200 C   0  0  2  0  0  0  0  0  0  0  0  0
   -5.6220    3.0260    1.1790 C   0  0  0  0  0  0  0  0  0  0  0  0
   -5.2020    4.0370    0.3030 O   0  0  0  0  0  0  0  0  0  0  0  0
   -5.7620    0.6680    1.4020 O   0  0  0  0  0  0  0  0  0  0  0  0
   -4.6900   -0.2860    1.4190 C   0  0  1  0  0  0  0  0  0  0  0  0
   -4.7950   -1.0280    0.1600 C   0  0  2  0  0  0  0  0  0  0  0  0
   -5.5080   -2.2270    0.4560 O   0  0  0  0  0  0  0  0  0  0  0  0
   -3.5970   -1.4630   -0.5480 C   0  0  0  0  0  0  0  0  0  0  0  0
   -3.5630   -1.1510   -1.8190 O   0  0  0  0  0  0  0  0  0  0  0  0
   -2.5380   -2.1320   -0.0700 O   0  0  0  0  0  0  0  0  0  0  0  0
   -2.2510   -3.4390    0.2480 C   0  0  0  0  0  0  0  0  0  0  0  0
   -1.0190   -3.8670   -0.5300 C   0  0  2  0  0  0  0  0  0  0  0  0
   -0.2260   -4.7360    0.2190 O   0  0  0  0  0  0  0  0  0  0  0  0
   -0.2160   -2.6810   -1.0510 C   0  0  2  0  0  0  0  0  0  0  0  0
    0.7310   -3.1480   -2.0220 N   0  0  0  0  0  0  0  0  0  0  0  0
    0.3510   -1.9560    0.1130 C   0  0  0  0  0  0  0  0  0  0  0  0
  2  1  1  1
  2  3  1  0
  2  4  1  0
  4  5  2  0
  4 17  1  0
  5  6  1  0
  5  7  1  0
  7  8  2  0
  8  9  1  0
  8 39  1  0
  9 10  2  0
  9 17  1  0
 10 11  1  0
 10 18  1  0
 11 12  2  0
 12 13  1  0
 12 15  1  0
 13 14  1  0
 15 16  1  0
 15 17  2  0
 18 19  1  0
 19 20  1  0
 20 21  2  0
 20 22  1  0
 22 23  1  6
 22 28  1  0
 23 24  1  0
 24 25  1  1
 24 27  1  0
 25 26  1  0
 28 27  1  6
 28 29  1  0
 29 30  1  1
 29 31  1  0
 31 32  2  0
 31 33  1  0
 33 34  1  0
 34 35  1  0
 35 36  1  1
 35 37  1  0
 37 38  1  6
 37 39  1  0
M  CHG  1  38   1
M  END
