
     RDKit          3D

 39 42  0  0  0  0  0  0  0  0999 V2000
    5.5100    1.5530   -0.9180 C   0  0  0  0  0  0  0  0  0  0  0  0
    5.1620    0.2760   -0.4770 O   0  0  0  0  0  0  0  0  0  0  0  0
    4.8210   -0.0320    0.8200 C   0  0  0  0  0  0  0  0  0  0  0  0
    5.7850   -0.4060    1.7090 C   0  0  0  0  0  0  0  0  0  0  0  0
    7.0990   -0.4780    1.3160 O   0  0  0  0  0  0  0  0  0  0  0  0
    5.4190   -0.7090    3.0000 C   0  0  0  0  0  0  0  0  0  0  0  0
    4.0970   -0.6300    3.3690 C   0  0  0  0  0  0  0  0  0  0  0  0
    3.7100   -0.9300    4.6640 O   0  0  0  0  0  0  0  0  0  0  0  0
    3.1030   -0.2510    2.4790 C   0  0  0  0  0  0  0  0  0  0  0  0
    3.4800    0.0510    1.1870 C   0  0  0  0  0  0  0  0  0  0  0  0
    2.5890    0.4330    0.2320 O   0  0  0  0  0  0  0  0  0  0  0  0
    1.2090    0.5940    0.3290 C   0  0  1  0  0  0  0  0  0  0  0  0
    0.9090    2.0950    0.1750 C   0  0  0  0  0  0  0  0  0  0  0  0
    0.0620    2.3780   -1.0450 C   0  0  2  0  0  0  0  0  0  0  0  0
    0.7800    3.2150   -1.9350 O   0  0  0  0  0  0  0  0  0  0  0  0
   -1.1650    3.0890   -0.6190 C   0  0  0  0  0  0  0  0  0  0  0  0
   -1.1690    4.3650   -0.7230 O   0  0  0  0  0  0  0  0  0  0  0  0
   -2.2890    2.4670   -0.1230 O   0  0  0  0  0  0  0  0  0  0  0  0
   -2.9270    1.3530   -0.7240 C   0  0  2  0  0  0  0  0  0  0  0  0
   -3.8000    1.7130   -1.8620 C   0  0  0  0  0  0  0  0  0  0  0  0
   -4.8790    2.6780   -1.4760 C   0  0  0  0  0  0  0  0  0  0  0  0
   -5.6740    2.9860   -2.5910 O   0  0  0  0  0  0  0  0  0  0  0  0
   -3.3550    0.2850    0.2030 C   0  0  2  0  0  0  0  0  0  0  0  0
   -4.5910    0.4650    0.9940 C   0  0  0  0  0  0  0  0  0  0  0  0
   -4.5970    1.6040    1.8790 N   0  0  0  0  0  0  0  0  0  0  0  0
   -2.1620   -0.0690    1.1100 C   0  0  0  0  0  0  0  0  0  0  0  0
   -1.6820   -1.4490    0.8660 C   0  0  0  0  0  0  0  0  0  0  0  0
   -1.9720   -2.4910    1.6840 C   0  0  0  0  0  0  0  0  0  0  0  0
   -1.3350   -3.7110    1.1320 C   0  0  0  0  0  0  0  0  0  0  0  0
   -1.3360   -3.3570   -0.3870 C   0  0  2  0  0  0  0  0  0  0  0  0
   -0.4300   -4.1580   -1.0120 O   0  0  0  0  0  0  0  0  0  0  0  0
   -0.8810   -1.9140   -0.2360 C   0  0  0  0  0  0  0  0  0  0  0  0
    0.0800   -1.3180   -0.9280 C   0  0  0  0  0  0  0  0  0  0  0  0
    0.7100   -2.1060   -2.0500 C   0  0  0  0  0  0  0  0  0  0  0  0
    2.0220   -2.3440   -2.3310 C   0  0  0  0  0  0  0  0  0  0  0  0
    2.1130   -3.1090   -3.4600 C   0  0  0  0  0  0  0  0  0  0  0  0
    0.8170   -3.3270   -3.8550 C   0  0  0  0  0  0  0  0  0  0  0  0
    0.0400   -2.7210   -2.9980 O   0  0  0  0  0  0  0  0  0  0  0  0
    0.5200   -0.0490   -0.6830 O   0  0  0  0  0  0  0  0  0  0  0  0
  1  2  1  0
  2  3  1  0
  3  4  2  0
  3 10  1  0
  4  5  1  0
  4  6  1  0
  6  7  2  0
  7  8  1  0
  7  9  1  0
  9 10  2  0
 10 11  1  0
 12 11  1  6
 12 13  1  0
 12 39  1  0
 13 14  1  0
 14 15  1  6
 14 16  1  0
 16 17  2  0
 16 18  1  0
 18 19  1  0
 19 20  1  1
 19 23  1  0
 20 21  1  0
 21 22  1  0
 23 24  1  1
 23 26  1  0
 24 25  1  0
 26 27  1  0
 27 28  2  0
 27 32  1  0
 28 29  1  0
 29 30  1  0
 30 31  1  6
 30 32  1  0
 32 33  2  0
 33 34  1  0
 33 39  1  0
 34 35  2  0
 34 38  1  0
 35 36  1  0
 36 37  2  0
 37 38  1  0
M  CHG  1  25   1
M  END
