
     RDKit          3D

 39 42  0  0  0  0  0  0  0  0999 V2000
    3.0600   -3.1870   -4.1500 C   0  0  0  0  0  0  0  0  0  0  0  0
    2.6130   -3.0760   -2.8130 O   0  0  0  0  0  0  0  0  0  0  0  0
    3.0770   -2.0590   -1.9590 C   0  0  0  0  0  0  0  0  0  0  0  0
    3.9110   -1.2560   -2.4560 O   0  0  0  0  0  0  0  0  0  0  0  0
    2.5580   -2.0240   -0.5890 C   0  0  1  0  0  0  0  0  0  0  0  0
    3.7000   -2.2460    0.3770 C   0  0  0  0  0  0  0  0  0  0  0  0
    4.7510   -1.2170    0.2700 C   0  0  0  0  0  0  0  0  0  0  0  0
    5.6850   -1.2480   -0.5850 O   0  0  0  0  0  0  0  0  0  0  0  0
    4.7920   -0.1100    1.1270 O   0  0  0  0  0  0  0  0  0  0  0  0
    5.7780    0.8900    1.0560 C   0  0  1  0  0  0  0  0  0  0  0  0
    5.2100    2.2550    0.8050 C   0  0  0  0  0  0  0  0  0  0  0  0
    6.6490    0.9120    2.3010 C   0  0  0  0  0  0  0  0  0  0  0  0
    7.6680    2.0230    2.1090 C   0  0  0  0  0  0  0  0  0  0  0  0
    8.4970    1.8000    0.9390 N   0  0  0  0  0  0  0  0  0  0  0  0
    1.8720   -0.7040   -0.2750 C   0  0  0  0  0  0  0  0  0  0  0  0
    0.7290   -0.9730    0.6420 C   0  0  1  0  0  0  0  0  0  0  0  0
    0.1690    0.1900    1.1640 O   0  0  0  0  0  0  0  0  0  0  0  0
   -0.7490   -0.1870    2.1380 C   0  0  0  0  0  0  0  0  0  0  0  0
   -2.0810   -0.6220    1.5740 C   0  0  0  0  0  0  0  0  0  0  0  0
   -2.1850   -0.1620    0.1580 C   0  0  2  0  0  0  0  0  0  0  0  0
   -1.8230    1.1880    0.0400 O   0  0  0  0  0  0  0  0  0  0  0  0
   -3.6350   -0.2340   -0.3370 C   0  0  2  0  0  0  0  0  0  0  0  0
   -3.6670    0.1940   -1.6690 O   0  0  0  0  0  0  0  0  0  0  0  0
   -4.5630    0.6460    0.4260 C   0  0  1  0  0  0  0  0  0  0  0  0
   -4.2440    1.9780    0.3900 O   0  0  0  0  0  0  0  0  0  0  0  0
   -5.9440    0.4520   -0.1390 C   0  0  0  0  0  0  0  0  0  0  0  0
   -6.3100   -0.4320   -1.1560 C   0  0  0  0  0  0  0  0  0  0  0  0
   -7.5990   -0.3210   -1.3710 O   0  0  0  0  0  0  0  0  0  0  0  0
   -8.1310    0.5620   -0.5860 C   0  0  0  0  0  0  0  0  0  0  0  0
   -9.3880    1.0800   -0.3670 C   0  0  0  0  0  0  0  0  0  0  0  0
   -9.6680    2.0500    0.5740 C   0  0  0  0  0  0  0  0  0  0  0  0
   -8.6220    2.5280    1.3420 C   0  0  0  0  0  0  0  0  0  0  0  0
   -8.8570    3.5120    2.3100 O   0  0  0  0  0  0  0  0  0  0  0  0
   -7.3550    2.0390    1.1560 C   0  0  0  0  0  0  0  0  0  0  0  0
   -7.1150    1.0830    0.2190 C   0  0  0  0  0  0  0  0  0  0  0  0
   -1.3290   -0.9720   -0.7830 C   0  0  0  0  0  0  0  0  0  0  0  0
   -0.3050   -1.8060   -0.0870 C   0  0  1  0  0  0  0  0  0  0  0  0
    0.4750   -2.5990   -1.1420 C   0  0  0  0  0  0  0  0  0  0  0  0
    1.6080   -3.0600   -0.4530 O   0  0  0  0  0  0  0  0  0  0  0  0
  1  2  1  0
  2  3  1  0
  3  4  2  0
  3  5  1  0
  5  6  1  1
  5 15  1  0
  5 39  1  0
  6  7  1  0
  7  8  2  0
  7  9  1  0
  9 10  1  0
 10 11  1  1
 10 12  1  0
 12 13  1  0
 13 14  1  0
 16 15  1  6
 16 17  1  0
 16 37  1  0
 17 18  1  0
 18 19  1  0
 19 20  1  0
 20 21  1  1
 20 22  1  0
 20 36  1  0
 22 23  1  6
 22 24  1  0
 24 25  1  6
 24 26  1  0
 26 27  2  0
 26 35  1  0
 27 28  1  0
 28 29  1  0
 29 30  2  0
 29 35  1  0
 30 31  1  0
 31 32  2  0
 32 33  1  0
 32 34  1  0
 34 35  2  0
 37 36  1  6
 37 38  1  0
 38 39  1  0
M  CHG  1  14   1
M  END
