
     RDKit          3D

 38 41  0  0  0  0  0  0  0  0999 V2000
   -3.8030    4.5930    3.1590 C   0  0  0  0  0  0  0  0  0  0  0  0
   -2.9090    3.9140    2.1850 C   0  0  0  0  0  0  0  0  0  0  0  0
   -1.6590    4.3030    2.0420 C   0  0  0  0  0  0  0  0  0  0  0  0
   -0.8060    3.6270    1.0860 C   0  0  0  0  0  0  0  0  0  0  0  0
   -1.2100    2.5910    0.3040 C   0  0  0  0  0  0  0  0  0  0  0  0
   -2.5670    2.1580    0.4490 C   0  0  0  0  0  0  0  0  0  0  0  0
   -3.2610    1.2140   -0.1390 C   0  0  0  0  0  0  0  0  0  0  0  0
   -3.0030    0.2140   -1.1570 C   0  0  1  0  0  0  0  0  0  0  0  0
   -2.9180    0.5970   -2.5100 O   0  0  0  0  0  0  0  0  0  0  0  0
   -2.5280   -1.1000   -0.6480 C   0  0  1  0  0  0  0  0  0  0  0  0
   -2.2210   -1.0350    0.8300 C   0  0  0  0  0  0  0  0  0  0  0  0
   -1.4970   -2.2260    1.3900 C   0  0  2  0  0  0  0  0  0  0  0  0
   -0.6940   -2.8800    0.3200 C   0  0  0  0  0  0  0  0  0  0  0  0
   -2.4720   -3.1480    1.8890 O   0  0  0  0  0  0  0  0  0  0  0  0
   -0.6760   -1.7340    2.5350 C   0  0  0  0  0  0  0  0  0  0  0  0
    0.7780   -2.0470    2.5150 C   0  0  0  0  0  0  0  0  0  0  0  0
    1.2190   -2.0940    3.7460 O   0  0  0  0  0  0  0  0  0  0  0  0
    1.4320   -2.2320    1.3880 O   0  0  0  0  0  0  0  0  0  0  0  0
    2.5570   -1.9160    0.7030 C   0  0  0  0  0  0  0  0  0  0  0  0
    3.2200   -2.9220   -0.0190 C   0  0  0  0  0  0  0  0  0  0  0  0
    4.3640   -2.7240   -0.7390 C   0  0  0  0  0  0  0  0  0  0  0  0
    5.0010   -3.7460   -1.4480 O   0  0  0  0  0  0  0  0  0  0  0  0
    4.9140   -1.4650   -0.7680 C   0  0  0  0  0  0  0  0  0  0  0  0
    4.2800   -0.4330   -0.0620 C   0  0  0  0  0  0  0  0  0  0  0  0
    4.8690    0.7930   -0.1290 O   0  0  0  0  0  0  0  0  0  0  0  0
    5.9680    1.2430   -0.8070 C   0  0  0  0  0  0  0  0  0  0  0  0
    5.9030    1.2420   -2.2960 C   0  0  0  0  0  0  0  0  0  0  0  0
    7.1270    1.7350   -2.8050 O   0  0  0  0  0  0  0  0  0  0  0  0
    3.1220   -0.6540    0.6590 C   0  0  0  0  0  0  0  0  0  0  0  0
    2.5490    0.4370    1.3320 O   0  0  0  0  0  0  0  0  0  0  0  0
    1.2340    0.9310    1.0850 C   0  0  0  0  0  0  0  0  0  0  0  0
    1.2450    2.0310    0.0550 C   0  0  0  0  0  0  0  0  0  0  0  0
   -0.1320    2.1100   -0.5710 C   0  0  1  0  0  0  0  0  0  0  0  0
   -0.3720    0.9750   -1.2990 O   0  0  0  0  0  0  0  0  0  0  0  0
   -3.9230   -1.0730   -1.0880 C   0  0  2  0  0  0  0  0  0  0  0  0
   -4.3070   -1.7160   -2.3760 C   0  0  0  0  0  0  0  0  0  0  0  0
   -5.1310   -2.8550   -2.1340 N   0  0  0  0  0  0  0  0  0  0  0  0
   -3.3420    2.8930    1.4270 O   0  0  0  0  0  0  0  0  0  0  0  0
  1  2  1  0
  2  3  2  0
  2 38  1  0
  3  4  1  0
  4  5  2  0
  5  6  1  0
  5 33  1  0
  6  7  2  0
  6 38  1  0
  7  8  1  0
  8  9  1  6
  8 10  1  0
  8 35  1  0
 10 11  1  1
 10 35  1  0
 11 12  1  0
 12 13  1  6
 12 14  1  0
 12 15  1  0
 15 16  1  0
 16 17  2  0
 16 18  1  0
 18 19  1  0
 19 20  2  0
 19 29  1  0
 20 21  1  0
 21 22  1  0
 21 23  2  0
 23 24  1  0
 24 25  1  0
 24 29  2  0
 25 26  1  0
 26 27  1  0
 27 28  1  0
 29 30  1  0
 30 31  1  0
 31 32  1  0
 32 33  1  0
 33 34  1  1
 35 36  1  6
 36 37  1  0
M  CHG  1  37   1
M  END
