
     RDKit          3D

 39 43  0  0  0  0  0  0  0  0999 V2000
    1.6940    3.7790   -0.2960 C   0  0  0  0  0  0  0  0  0  0  0  0
    3.1420    3.7140   -0.6940 C   0  0  0  0  0  0  0  0  0  0  0  0
    3.5240    2.4030   -1.1090 O   0  0  0  0  0  0  0  0  0  0  0  0
    3.4100    1.3480   -0.2310 C   0  0  0  0  0  0  0  0  0  0  0  0
    2.9720    1.5600    0.9200 O   0  0  0  0  0  0  0  0  0  0  0  0
    3.8070   -0.0040   -0.6680 C   0  0  0  0  0  0  0  0  0  0  0  0
    3.5600   -0.9160    0.4090 O   0  0  0  0  0  0  0  0  0  0  0  0
    3.8930   -2.2070    0.2120 N   0  0  0  0  0  0  0  0  0  0  0  0
    3.0290   -3.0990   -0.1810 C   0  0  0  0  0  0  0  0  0  0  0  0
    3.5120   -4.4430   -0.3570 C   0  0  0  0  0  0  0  0  0  0  0  0
    4.8470   -4.7680   -0.0690 C   0  0  0  0  0  0  0  0  0  0  0  0
    5.3110   -6.0490   -0.2540 C   0  0  0  0  0  0  0  0  0  0  0  0
    4.4530   -7.0300   -0.7290 C   0  0  0  0  0  0  0  0  0  0  0  0
    3.1640   -6.6740   -0.9960 C   0  0  0  0  0  0  0  0  0  0  0  0
    2.7590   -5.4250   -0.8020 N   0  0  0  0  0  0  0  0  0  0  0  0
    1.6650   -2.6670   -0.4060 C   0  0  1  0  0  0  0  0  0  0  0  0
    1.1300   -1.5300    0.4520 C   0  0  0  0  0  0  0  0  0  0  0  0
    1.3360   -1.5420    1.8150 C   0  0  0  0  0  0  0  0  0  0  0  0
    0.8560   -0.5480    2.6420 C   0  0  0  0  0  0  0  0  0  0  0  0
    0.1450    0.5030    2.1270 C   0  0  0  0  0  0  0  0  0  0  0  0
   -0.0670    0.5260    0.7650 C   0  0  0  0  0  0  0  0  0  0  0  0
    0.4180   -0.4820   -0.0800 C   0  0  0  0  0  0  0  0  0  0  0  0
   -0.7780    1.6450    0.5370 N   0  0  0  0  0  0  0  0  0  0  0  0
   -0.9980    2.2870    1.6970 C   0  0  0  0  0  0  0  0  0  0  0  0
   -1.7490    3.5770    1.9030 C   0  0  0  0  0  0  0  0  0  0  0  0
   -2.3380    4.0370    0.6860 N   0  0  0  0  0  0  0  0  0  0  0  0
   -3.3290    3.3090   -0.0320 C   0  0  0  0  0  0  0  0  0  0  0  0
   -3.8010    2.1360    0.5070 C   0  0  0  0  0  0  0  0  0  0  0  0
   -4.7450    1.4250   -0.1680 C   0  0  0  0  0  0  0  0  0  0  0  0
   -5.2830    1.8120   -1.4040 C   0  0  0  0  0  0  0  0  0  0  0  0
   -6.2860    1.0020   -2.0610 C   0  0  0  0  0  0  0  0  0  0  0  0
   -6.7210   -0.1970   -1.4340 N   0  0  0  0  0  0  0  0  0  0  0  0
   -6.7780    1.3390   -3.1750 N   0  0  0  0  0  0  0  0  0  0  0  0
   -4.7910    2.9850   -1.9140 C   0  0  0  0  0  0  0  0  0  0  0  0
   -3.8220    3.7350   -1.2410 C   0  0  0  0  0  0  0  0  0  0  0  0
   -0.4280    1.5870    2.6950 N   0  0  0  0  0  0  0  0  0  0  0  0
   -0.4270    1.9300    4.1240 C   0  0  0  0  0  0  0  0  0  0  0  0
    1.1480   -2.8560   -1.7850 C   0  0  0  0  0  0  0  0  0  0  0  0
    0.5460   -3.6760   -0.7060 C   0  0  0  0  0  0  0  0  0  0  0  0
  1  2  1  0
  2  3  1  0
  3  4  1  0
  4  5  2  0
  4  6  1  0
  6  7  1  0
  7  8  1  0
  8  9  2  3
  9 10  1  0
 16  9  1  6
 10 11  2  0
 10 15  1  0
 11 12  1  0
 12 13  2  0
 13 14  1  0
 14 15  2  0
 16 17  1  0
 16 38  1  0
 16 39  1  0
 17 18  2  0
 17 22  1  0
 18 19  1  0
 19 20  2  0
 20 21  1  0
 20 36  1  0
 21 22  2  0
 21 23  1  0
 23 24  2  0
 24 25  1  0
 24 36  1  0
 25 26  1  0
 26 27  1  0
 27 28  2  0
 27 35  1  0
 28 29  1  0
 29 30  2  0
 30 31  1  0
 30 34  1  0
 31 32  1  0
 31 33  2  0
 34 35  2  0
 36 37  1  0
 38 39  1  0
M  CHG  1  33   1
M  END
