
     RDKit          3D

 39 42  0  0  0  0  0  0  0  0999 V2000
    1.6210    6.7400    1.4710 C   0  0  0  0  0  0  0  0  0  0  0  0
    1.8210    5.3970    2.0930 C   0  0  0  0  0  0  0  0  0  0  0  0
    0.8390    4.4670    1.6060 O   0  0  0  0  0  0  0  0  0  0  0  0
    0.7810    4.1890    0.2580 C   0  0  0  0  0  0  0  0  0  0  0  0
    1.6230    4.7900   -0.4970 O   0  0  0  0  0  0  0  0  0  0  0  0
   -0.1640    3.2690   -0.3390 C   0  0  0  0  0  0  0  0  0  0  0  0
    0.0610    1.7810    0.0420 C   0  0  1  0  0  0  0  0  0  0  0  0
   -1.0130    1.0990   -0.7000 N   0  0  0  0  0  0  0  0  0  0  0  0
   -2.1570    1.0530    0.1230 C   0  0  0  0  0  0  0  0  0  0  0  0
   -3.3210    0.2800   -0.3700 C   0  0  0  0  0  0  0  0  0  0  0  0
   -3.9230   -0.7720    0.3300 C   0  0  0  0  0  0  0  0  0  0  0  0
   -5.0360   -1.3850   -0.2700 C   0  0  0  0  0  0  0  0  0  0  0  0
   -5.5640   -1.0240   -1.4840 C   0  0  0  0  0  0  0  0  0  0  0  0
   -6.6770   -1.6860   -2.0180 O   0  0  0  0  0  0  0  0  0  0  0  0
   -7.2800   -2.7460   -1.3130 C   0  0  0  0  0  0  0  0  0  0  0  0
   -4.9610    0.0060   -2.1520 C   0  0  0  0  0  0  0  0  0  0  0  0
   -5.4670    0.3970   -3.3780 O   0  0  0  0  0  0  0  0  0  0  0  0
   -3.8590    0.6310   -1.5820 C   0  0  0  0  0  0  0  0  0  0  0  0
   -3.3160    1.6650   -2.3300 O   0  0  0  0  0  0  0  0  0  0  0  0
   -3.4920   -1.2070    1.5280 O   0  0  0  0  0  0  0  0  0  0  0  0
   -2.3790   -1.8050    2.0770 C   0  0  0  0  0  0  0  0  0  0  0  0
   -1.6870   -2.7910    1.1720 C   0  0  2  0  0  0  0  0  0  0  0  0
   -2.4440   -3.9990    1.1550 O   0  0  0  0  0  0  0  0  0  0  0  0
   -0.3230   -3.2000    1.6070 C   0  0  0  0  0  0  0  0  0  0  0  0
    0.4690   -2.2230    2.1500 O   0  0  0  0  0  0  0  0  0  0  0  0
    0.4870   -1.0540    1.3940 C   0  0  0  0  0  0  0  0  0  0  0  0
    1.7410   -0.8830    0.5950 C   0  0  0  0  0  0  0  0  0  0  0  0
    2.5880   -2.0010    0.6570 C   0  0  0  0  0  0  0  0  0  0  0  0
    3.7900   -2.0390   -0.0110 C   0  0  0  0  0  0  0  0  0  0  0  0
    4.1580   -0.9440   -0.7590 C   0  0  0  0  0  0  0  0  0  0  0  0
    3.3260    0.1220   -0.8040 C   0  0  0  0  0  0  0  0  0  0  0  0
    2.0810    0.2080   -0.1330 C   0  0  0  0  0  0  0  0  0  0  0  0
    1.4180    1.4820   -0.3390 C   0  0  2  0  0  0  0  0  0  0  0  0
    2.2380    2.4700    0.3060 O   0  0  0  0  0  0  0  0  0  0  0  0
    5.3350   -0.8200   -1.4930 O   0  0  0  0  0  0  0  0  0  0  0  0
    6.6130   -1.3800   -1.2470 C   0  0  0  0  0  0  0  0  0  0  0  0
    6.4520   -2.8780   -1.2580 C   0  0  0  0  0  0  0  0  0  0  0  0
    5.9030   -3.4310    0.0210 C   0  0  0  0  0  0  0  0  0  0  0  0
    4.5100   -3.2170    0.1550 O   0  0  0  0  0  0  0  0  0  0  0  0
  1  2  1  0
  2  3  1  0
  3  4  1  0
  4  5  2  0
  4  6  1  0
  7  6  1  6
  7  8  1  0
  7 33  1  0
  8  9  1  0
  9 10  1  0
 10 11  2  0
 10 18  1  0
 11 12  1  0
 11 20  1  0
 12 13  2  0
 13 14  1  0
 13 16  1  0
 14 15  1  0
 16 17  1  0
 16 18  2  0
 18 19  1  0
 20 21  1  0
 21 22  1  0
 22 23  1  1
 22 24  1  0
 24 25  1  0
 25 26  1  0
 26 27  1  0
 27 28  2  0
 27 32  1  0
 28 29  1  0
 29 30  2  0
 29 39  1  0
 30 31  1  0
 30 35  1  0
 31 32  2  0
 32 33  1  0
 33 34  1  1
 35 36  1  0
 36 37  1  0
 37 38  1  0
 38 39  1  0
M  CHG  1   8   1
M  END
