
     RDKit          3D

 39 42  0  0  0  0  0  0  0  0999 V2000
   -0.2510    5.3060    1.2470 C   0  0  0  0  0  0  0  0  0  0  0  0
   -0.1460    3.8780    1.7210 C   0  0  0  0  0  0  0  0  0  0  0  0
   -0.9460    2.9570    0.7750 C   0  0  0  0  0  0  0  0  0  0  0  0
   -0.8540    1.5470    1.2300 C   0  0  0  0  0  0  0  0  0  0  0  0
   -1.5840    0.5230    0.4180 C   0  0  2  0  0  0  0  0  0  0  0  0
   -1.0380    0.5440   -0.9620 C   0  0  0  0  0  0  0  0  0  0  0  0
   -0.2790   -0.6340   -1.1670 O   0  0  0  0  0  0  0  0  0  0  0  0
    0.6060   -0.4470   -2.2230 C   0  0  1  0  0  0  0  0  0  0  0  0
    1.8780    0.1820   -1.7610 C   0  0  0  0  0  0  0  0  0  0  0  0
    2.5830   -0.6360   -0.7240 C   0  0  1  0  0  0  0  0  0  0  0  0
    2.9460   -1.9040   -1.1500 O   0  0  0  0  0  0  0  0  0  0  0  0
    3.7360    0.0780   -0.1200 C   0  0  0  0  0  0  0  0  0  0  0  0
    4.0880    1.3100   -0.6070 C   0  0  0  0  0  0  0  0  0  0  0  0
    5.1790    1.9750   -0.0300 C   0  0  0  0  0  0  0  0  0  0  0  0
    5.8530    1.3500    1.0100 C   0  0  0  0  0  0  0  0  0  0  0  0
    5.4720    0.1190    1.4700 C   0  0  0  0  0  0  0  0  0  0  0  0
    4.3990   -0.5540    0.9150 C   0  0  0  0  0  0  0  0  0  0  0  0
    4.2300   -1.7680    1.5610 O   0  0  0  0  0  0  0  0  0  0  0  0
    5.3900   -1.9740    2.3510 C   0  0  0  0  0  0  0  0  0  0  0  0
    5.9820   -0.6870    2.4770 O   0  0  0  0  0  0  0  0  0  0  0  0
    6.8700    2.2100    1.3900 O   0  0  0  0  0  0  0  0  0  0  0  0
    7.0340    3.1750    0.3650 C   0  0  0  0  0  0  0  0  0  0  0  0
    5.7660    3.2050   -0.2970 O   0  0  0  0  0  0  0  0  0  0  0  0
    0.7180   -1.5930   -3.1530 C   0  0  0  0  0  0  0  0  0  0  0  0
    0.8600   -2.9330   -2.5680 C   0  0  0  0  0  0  0  0  0  0  0  0
    1.6450   -3.7140   -3.2410 O   0  0  0  0  0  0  0  0  0  0  0  0
    0.2680   -3.4040   -1.4340 O   0  0  0  0  0  0  0  0  0  0  0  0
   -1.1210   -3.5310   -1.1750 C   0  0  0  0  0  0  0  0  0  0  0  0
   -1.3950   -3.3390    0.2880 C   0  0  0  0  0  0  0  0  0  0  0  0
   -2.7890   -3.0000    0.6600 C   0  0  2  0  0  0  0  0  0  0  0  0
   -3.5730   -4.1660    0.5820 O   0  0  0  0  0  0  0  0  0  0  0  0
   -3.4060   -1.8290   -0.0460 C   0  0  1  0  0  0  0  0  0  0  0  0
   -4.7600   -2.3480   -0.5690 C   0  0  0  0  0  0  0  0  0  0  0  0
   -5.5410   -2.8110    0.4640 O   0  0  0  0  0  0  0  0  0  0  0  0
   -3.6420   -0.7690    0.8700 N   0  0  0  0  0  0  0  0  0  0  0  0
   -3.0770    0.5280    0.5230 C   0  0  1  0  0  0  0  0  0  0  0  0
   -3.6260    1.4740    1.5750 C   0  0  0  0  0  0  0  0  0  0  0  0
   -3.7730    0.9440   -0.7730 C   0  0  0  0  0  0  0  0  0  0  0  0
   -5.1630    1.0490   -0.5560 O   0  0  0  0  0  0  0  0  0  0  0  0
  1  2  1  0
  2  3  1  0
  3  4  1  0
  5  4  1  1
  5  6  1  0
  5 36  1  0
  6  7  1  0
  7  8  1  0
  8  9  1  1
  8 24  1  0
  9 10  1  0
 10 11  1  6
 10 12  1  0
 12 13  2  0
 12 17  1  0
 13 14  1  0
 14 15  2  0
 14 23  1  0
 15 16  1  0
 15 21  1  0
 16 17  2  0
 16 20  1  0
 17 18  1  0
 18 19  1  0
 19 20  1  0
 21 22  1  0
 22 23  1  0
 24 25  1  0
 25 26  2  0
 25 27  1  0
 27 28  1  0
 28 29  1  0
 29 30  1  0
 30 31  1  6
 30 32  1  0
 32 33  1  1
 32 35  1  0
 33 34  1  0
 35 36  1  0
 36 37  1  1
 36 38  1  0
 38 39  1  0
M  CHG  1  35   1
M  END
