
     RDKit          3D

 39 41  0  0  0  0  0  0  0  0999 V2000
    6.8950   -1.2570   -3.0900 C   0  0  0  0  0  0  0  0  0  0  0  0
    5.8680   -1.5500   -2.1810 O   0  0  0  0  0  0  0  0  0  0  0  0
    5.0510   -0.5990   -1.5810 C   0  0  0  0  0  0  0  0  0  0  0  0
    5.2100    0.7380   -1.8590 C   0  0  0  0  0  0  0  0  0  0  0  0
    4.3860    1.6500   -1.2510 C   0  0  0  0  0  0  0  0  0  0  0  0
    3.3910    1.2350   -0.3540 C   0  0  0  0  0  0  0  0  0  0  0  0
    3.2210   -0.0990   -0.0670 C   0  0  0  0  0  0  0  0  0  0  0  0
    2.2870   -0.6270    0.7900 O   0  0  0  0  0  0  0  0  0  0  0  0
    1.3160    0.0960    1.5110 C   0  0  2  0  0  0  0  0  0  0  0  0
    1.7100   -0.0030    2.8560 O   0  0  0  0  0  0  0  0  0  0  0  0
    0.9160    0.7470    3.7030 C   0  0  0  0  0  0  0  0  0  0  0  0
    1.0150    2.2110    3.4470 C   0  0  0  0  0  0  0  0  0  0  0  0
    2.2060    2.6090    3.2360 O   0  0  0  0  0  0  0  0  0  0  0  0
   -0.0040    2.9930    3.4410 O   0  0  0  0  0  0  0  0  0  0  0  0
   -1.2040    3.5000    3.3410 C   0  0  0  0  0  0  0  0  0  0  0  0
   -2.4370    2.7110    3.1260 C   0  0  0  0  0  0  0  0  0  0  0  0
   -2.7700    2.1040    1.8520 C   0  0  0  0  0  0  0  0  0  0  0  0
   -2.0170    2.3870    0.6260 C   0  0  2  0  0  0  0  0  0  0  0  0
   -0.7210    2.9090    0.8540 O   0  0  0  0  0  0  0  0  0  0  0  0
   -2.7150    3.6390    0.0150 C   0  0  0  0  0  0  0  0  0  0  0  0
   -4.0380    3.3620   -0.2960 O   0  0  0  0  0  0  0  0  0  0  0  0
   -1.9010    1.3780   -0.4240 C   0  0  0  0  0  0  0  0  0  0  0  0
   -1.9100   -0.0800   -0.1960 C   0  0  2  0  0  0  0  0  0  0  0  0
   -0.5470   -0.7170   -0.0020 C   0  0  2  0  0  0  0  0  0  0  0  0
   -0.3600   -2.0830   -0.5210 C   0  0  1  0  0  0  0  0  0  0  0  0
   -0.8340   -3.1200    0.2800 O   0  0  0  0  0  0  0  0  0  0  0  0
   -1.0040   -2.3630   -1.8650 C   0  0  0  0  0  0  0  0  0  0  0  0
   -2.4790   -2.1200   -1.5720 C   0  0  2  0  0  0  0  0  0  0  0  0
   -2.8220   -2.7410   -0.3790 O   0  0  0  0  0  0  0  0  0  0  0  0
   -3.3760   -2.6440   -2.6250 C   0  0  0  0  0  0  0  0  0  0  0  0
   -3.1770   -4.0460   -2.7070 O   0  0  0  0  0  0  0  0  0  0  0  0
   -2.5970   -0.6540   -1.4250 C   0  0  2  0  0  0  0  0  0  0  0  0
   -2.0210   -0.0100   -2.6820 C   0  0  0  0  0  0  0  0  0  0  0  0
   -4.0710   -0.3090   -1.4110 C   0  0  0  0  0  0  0  0  0  0  0  0
   -0.0020   -0.6520    1.3770 C   0  0  1  0  0  0  0  0  0  0  0  0
    0.2400   -1.9110    2.0550 N   0  0  0  0  0  0  0  0  0  0  0  0
    4.0600   -1.0120   -0.6890 C   0  0  0  0  0  0  0  0  0  0  0  0
    3.9310   -2.3700   -0.4350 O   0  0  0  0  0  0  0  0  0  0  0  0
    4.6770   -2.9050    0.6440 C   0  0  0  0  0  0  0  0  0  0  0  0
  1  2  1  0
  2  3  1  0
  3  4  2  0
  3 37  1  0
  4  5  1  0
  5  6  2  0
  6  7  1  0
  7  8  1  0
  7 37  2  0
  9  8  1  6
  9 10  1  0
  9 35  1  0
 10 11  1  0
 11 12  1  0
 12 13  2  0
 12 14  1  0
 14 15  1  0
 15 16  1  0
 16 17  1  0
 17 18  1  0
 18 19  1  1
 18 20  1  0
 18 22  1  0
 20 21  1  0
 23 22  1  6
 23 24  1  0
 23 32  1  0
 24 25  1  1
 24 35  1  0
 25 26  1  1
 25 27  1  0
 27 28  1  0
 28 29  1  1
 28 30  1  0
 28 32  1  0
 30 31  1  0
 32 33  1  6
 32 34  1  0
 35 36  1  6
 37 38  1  0
 38 39  1  0
M  CHG  1  36   1
M  END
