
     RDKit          3D

 39 43  0  0  0  0  0  0  0  0999 V2000
   -3.7330    4.1480    1.2770 C   0  0  0  0  0  0  0  0  0  0  0  0
   -5.0860    3.6570    0.8330 C   0  0  0  0  0  0  0  0  0  0  0  0
   -5.1530    2.2560    0.7490 O   0  0  0  0  0  0  0  0  0  0  0  0
   -4.3790    1.4670   -0.0500 C   0  0  0  0  0  0  0  0  0  0  0  0
   -3.5210    2.0130   -0.7910 O   0  0  0  0  0  0  0  0  0  0  0  0
   -4.4890    0.0070   -0.0990 C   0  0  0  0  0  0  0  0  0  0  0  0
   -5.4200   -0.6530    0.6970 C   0  0  0  0  0  0  0  0  0  0  0  0
   -6.2350    0.1230    1.5300 O   0  0  0  0  0  0  0  0  0  0  0  0
   -5.5730   -2.0230    0.7010 C   0  0  0  0  0  0  0  0  0  0  0  0
   -6.5830   -2.6860    1.5630 C   0  0  0  0  0  0  0  0  0  0  0  0
   -6.6300   -4.0450    1.4630 O   0  0  0  0  0  0  0  0  0  0  0  0
   -4.7410   -2.7570   -0.1430 C   0  0  0  0  0  0  0  0  0  0  0  0
   -3.8080   -2.1360   -0.9450 C   0  0  0  0  0  0  0  0  0  0  0  0
   -3.6920   -0.7580   -0.9150 C   0  0  0  0  0  0  0  0  0  0  0  0
   -2.7550   -0.1350   -1.7210 O   0  0  0  0  0  0  0  0  0  0  0  0
   -1.4770    0.0830   -1.2270 C   0  0  0  0  0  0  0  0  0  0  0  0
   -0.5120    0.6930   -1.9850 C   0  0  0  0  0  0  0  0  0  0  0  0
    0.7750    0.9040   -1.4650 C   0  0  0  0  0  0  0  0  0  0  0  0
    1.1090    0.5170   -0.2100 C   0  0  0  0  0  0  0  0  0  0  0  0
    0.1400   -0.0980    0.5540 C   0  0  0  0  0  0  0  0  0  0  0  0
   -1.1480   -0.3110    0.0400 C   0  0  0  0  0  0  0  0  0  0  0  0
    0.4500   -0.5050    1.8430 O   0  0  0  0  0  0  0  0  0  0  0  0
    1.6410   -0.0670    2.4740 C   0  0  0  0  0  0  0  0  0  0  0  0
    2.7950   -0.1220    1.4510 C   0  0  0  0  0  0  0  0  0  0  0  0
    2.4960    0.7690    0.2910 C   0  0  1  0  0  0  0  0  0  0  0  0
    3.5200    0.7100   -0.7530 C   0  0  0  0  0  0  0  0  0  0  0  0
    4.9300    0.9760   -0.3230 C   0  0  1  0  0  0  0  0  0  0  0  0
    5.0290    2.2490    0.2910 O   0  0  0  0  0  0  0  0  0  0  0  0
    5.5950   -0.1210    0.4030 C   0  0  0  0  0  0  0  0  0  0  0  0
    6.8060   -0.5410   -0.2480 O   0  0  0  0  0  0  0  0  0  0  0  0
    7.6950    0.5470   -0.1610 C   0  0  0  0  0  0  0  0  0  0  0  0
    7.1560    1.5930   -1.1260 C   0  0  2  0  0  0  0  0  0  0  0  0
    7.0780    2.8120   -0.4410 O   0  0  0  0  0  0  0  0  0  0  0  0
    5.7910    1.2010   -1.6110 C   0  0  1  0  0  0  0  0  0  0  0  0
    5.8760    0.0100   -2.3920 N   0  0  0  0  0  0  0  0  0  0  0  0
   -3.1130   -3.1140   -1.6890 O   0  0  0  0  0  0  0  0  0  0  0  0
   -3.2910   -4.3600   -1.0570 C   0  0  0  0  0  0  0  0  0  0  0  0
   -4.6240   -4.2100   -0.3900 C   0  0  2  0  0  0  0  0  0  0  0  0
   -5.6220   -4.6140   -1.2990 O   0  0  0  0  0  0  0  0  0  0  0  0
  1  2  1  0
  2  3  1  0
  3  4  1  0
  4  5  2  0
  4  6  1  0
  6  7  2  0
  6 14  1  0
  7  8  1  0
  7  9  1  0
  9 10  1  0
  9 12  2  0
 10 11  1  0
 12 13  1  0
 12 38  1  0
 13 14  2  0
 13 36  1  0
 14 15  1  0
 15 16  1  0
 16 17  2  0
 16 21  1  0
 17 18  1  0
 18 19  2  0
 19 20  1  0
 19 25  1  0
 20 21  2  0
 20 22  1  0
 22 23  1  0
 23 24  1  0
 24 25  1  0
 25 26  1  6
 26 27  1  0
 27 28  1  1
 27 29  1  0
 27 34  1  0
 29 30  1  0
 30 31  1  0
 31 32  1  0
 32 33  1  1
 32 34  1  0
 34 35  1  1
 36 37  1  0
 37 38  1  0
 38 39  1  6
M  CHG  1  35   1
M  END
