
     RDKit          3D

 32 36  0  0  0  0  0  0  0  0999 V2000
   -5.0790   -1.5950    2.1910 C   0  0  0  0  0  0  0  0  0  0  0  0
   -5.7370   -0.4950    1.4440 C   0  0  0  0  0  0  0  0  0  0  0  0
   -6.6310    0.3890    1.9670 N   0  0  0  0  0  0  0  0  0  0  0  0
   -7.0460    1.2540    1.0530 C   0  0  0  0  0  0  0  0  0  0  0  0
   -7.9340    2.3130    1.1070 C   0  0  0  0  0  0  0  0  0  0  0  0
   -8.1750    3.0590   -0.0410 C   0  0  0  0  0  0  0  0  0  0  0  0
   -7.5400    2.7480   -1.2160 C   0  0  0  0  0  0  0  0  0  0  0  0
   -6.6560    1.6780   -1.2300 C   0  0  0  0  0  0  0  0  0  0  0  0
   -6.3850    0.9110   -0.1200 C   0  0  0  0  0  0  0  0  0  0  0  0
   -5.5870   -0.1620    0.1360 N   0  0  0  0  0  0  0  0  0  0  0  0
   -4.7310   -0.8310   -0.8200 C   0  0  0  0  0  0  0  0  0  0  0  0
   -3.3640   -0.2740   -0.8840 C   0  0  0  0  0  0  0  0  0  0  0  0
   -3.0410    0.7640   -1.7250 C   0  0  0  0  0  0  0  0  0  0  0  0
   -1.7430    1.2250   -1.7300 C   0  0  0  0  0  0  0  0  0  0  0  0
   -0.7940    0.6550   -0.9070 C   0  0  0  0  0  0  0  0  0  0  0  0
   -1.1020   -0.3920   -0.0530 C   0  0  0  0  0  0  0  0  0  0  0  0
   -2.4010   -0.8460   -0.0550 C   0  0  0  0  0  0  0  0  0  0  0  0
    0.0290   -0.7200    0.6030 N   0  0  0  0  0  0  0  0  0  0  0  0
    1.0280    0.0720    0.2010 C   0  0  0  0  0  0  0  0  0  0  0  0
    2.4340    0.0080    0.6950 C   0  0  0  0  0  0  0  0  0  0  0  0
    3.2670   -0.7180   -0.2390 N   0  0  0  0  0  0  0  0  0  0  0  0
    4.6460   -0.9090    0.0080 C   0  0  0  0  0  0  0  0  0  0  0  0
    5.4260   -1.5580   -0.9060 C   0  0  0  0  0  0  0  0  0  0  0  0
    6.7670   -1.7430   -0.6660 C   0  0  0  0  0  0  0  0  0  0  0  0
    7.3680   -1.2750    0.5130 C   0  0  0  0  0  0  0  0  0  0  0  0
    8.7840   -1.4910    0.7220 C   0  0  0  0  0  0  0  0  0  0  0  0
    9.5330   -2.1790   -0.2940 N   0  0  0  0  0  0  0  0  0  0  0  0
    9.4200   -1.1070    1.7570 N   0  0  0  0  0  0  0  0  0  0  0  0
    6.5710   -0.6250    1.4210 C   0  0  0  0  0  0  0  0  0  0  0  0
    5.2120   -0.4440    1.1660 C   0  0  0  0  0  0  0  0  0  0  0  0
    0.5230    0.9030   -0.7140 N   0  0  0  0  0  0  0  0  0  0  0  0
    1.2820    1.9270   -1.4020 C   0  0  0  0  0  0  0  0  0  0  0  0
  1  2  1  0
  2  3  2  0
  2 10  1  0
  3  4  1  0
  4  5  2  0
  4  9  1  0
  5  6  1  0
  6  7  2  0
  7  8  1  0
  8  9  2  0
  9 10  1  0
 10 11  1  0
 11 12  1  0
 12 13  2  0
 12 17  1  0
 13 14  1  0
 14 15  2  0
 15 16  1  0
 15 31  1  0
 16 17  2  0
 16 18  1  0
 18 19  2  0
 19 20  1  0
 19 31  1  0
 20 21  1  0
 21 22  1  0
 22 23  2  0
 22 30  1  0
 23 24  1  0
 24 25  2  0
 25 26  1  0
 25 29  1  0
 26 27  1  0
 26 28  2  0
 29 30  2  0
 31 32  1  0
M  CHG  1  28   1
M  END
