
     RDKit          3D

 32 35  0  0  0  0  0  0  0  0999 V2000
    8.7340   -1.1400    3.2370 C   0  0  0  0  0  0  0  0  0  0  0  0
    7.6890   -0.7750    2.2450 C   0  0  0  0  0  0  0  0  0  0  0  0
    7.7960   -1.2230    0.9320 C   0  0  0  0  0  0  0  0  0  0  0  0
    6.8360   -0.8910    0.0150 C   0  0  0  0  0  0  0  0  0  0  0  0
    5.7240   -0.1010    0.3380 C   0  0  0  0  0  0  0  0  0  0  0  0
    4.7710    0.2040   -0.6650 N   0  0  0  0  0  0  0  0  0  0  0  0
    3.5840    0.9130   -0.5460 C   0  0  0  0  0  0  0  0  0  0  0  0
    3.2390    1.3710    0.5540 O   0  0  0  0  0  0  0  0  0  0  0  0
    2.6950    1.1590   -1.6540 N   0  0  0  0  0  0  0  0  0  0  0  0
    1.4780    1.9070   -1.4390 C   0  0  0  0  0  0  0  0  0  0  0  0
    0.7310    2.0170   -2.7690 C   0  0  0  0  0  0  0  0  0  0  0  0
    0.3790    0.6610   -3.3030 C   0  0  0  0  0  0  0  0  0  0  0  0
   -0.4540   -0.0240   -2.3460 N   0  0  0  0  0  0  0  0  0  0  0  0
   -1.7050    0.5110   -1.9780 C   0  0  0  0  0  0  0  0  0  0  0  0
   -2.1400    1.5840   -2.4600 O   0  0  0  0  0  0  0  0  0  0  0  0
   -2.5290   -0.2060   -1.0010 N   0  0  0  0  0  0  0  0  0  0  0  0
   -3.7660    0.3670   -0.6690 C   0  0  0  0  0  0  0  0  0  0  0  0
   -4.1700    1.4760   -1.3570 N   0  0  0  0  0  0  0  0  0  0  0  0
   -5.3460    2.0670   -1.1720 C   0  0  0  0  0  0  0  0  0  0  0  0
   -5.7300    3.2800   -1.9590 C   0  0  0  0  0  0  0  0  0  0  0  0
   -6.1840    1.5650   -0.2740 N   0  0  0  0  0  0  0  0  0  0  0  0
   -5.8880    0.4740    0.4640 C   0  0  0  0  0  0  0  0  0  0  0  0
   -4.6420   -0.1300    0.2520 C   0  0  0  0  0  0  0  0  0  0  0  0
   -4.3130   -1.3020    1.0690 C   0  0  0  0  0  0  0  0  0  0  0  0
   -5.1910   -1.7280    1.9450 C   0  0  0  0  0  0  0  0  0  0  0  0
   -6.4980   -1.0910    2.1590 C   0  0  0  0  0  0  0  0  0  0  0  0
   -6.7980    0.0030    1.3760 O   0  0  0  0  0  0  0  0  0  0  0  0
   -4.7070   -2.9010    2.6370 N   0  0  0  0  0  0  0  0  0  0  0  0
   -3.3120   -2.9910    2.3760 C   0  0  0  0  0  0  0  0  0  0  0  0
   -3.0950   -2.1370    1.1440 C   0  0  0  0  0  0  0  0  0  0  0  0
    5.6650    0.3140    1.6410 C   0  0  0  0  0  0  0  0  0  0  0  0
    6.6250   -0.0230    2.5450 N   0  0  0  0  0  0  0  0  0  0  0  0
  1  2  1  0
  2  3  2  0
  2 32  1  0
  3  4  1  0
  4  5  2  0
  5  6  1  0
  5 31  1  0
  6  7  1  0
  7  8  2  0
  7  9  1  0
  9 10  1  0
 10 11  1  0
 11 12  1  0
 12 13  1  0
 13 14  1  0
 14 15  2  0
 14 16  1  0
 16 17  1  0
 17 18  2  0
 17 23  1  0
 18 19  1  0
 19 20  1  0
 19 21  2  0
 21 22  1  0
 22 23  2  0
 22 27  1  0
 23 24  1  0
 24 25  2  0
 24 30  1  0
 25 26  1  0
 25 28  1  0
 26 27  1  0
 28 29  1  0
 29 30  1  0
 31 32  2  0
M  END
