
     RDKit          3D

 33 34  0  0  0  0  0  0  0  0999 V2000
   -5.3830    3.5220    0.6260 C   0  0  0  0  0  0  0  0  0  0  0  0
   -5.5350    2.3870   -0.1120 C   0  0  0  0  0  0  0  0  0  0  0  0
   -4.7000    1.2700    0.2380 C   0  0  0  0  0  0  0  0  0  0  0  0
   -4.6870    0.1120   -0.3560 C   0  0  0  0  0  0  0  0  0  0  0  0
   -5.6640   -0.0190   -1.5090 C   0  0  0  0  0  0  0  0  0  0  0  0
   -3.6990   -0.9120   -0.1620 C   0  0  0  0  0  0  0  0  0  0  0  0
   -3.7810   -2.1600   -0.6290 C   0  0  0  0  0  0  0  0  0  0  0  0
   -4.7850   -2.7740   -1.3700 C   0  0  0  0  0  0  0  0  0  0  0  0
   -4.4840   -3.4120   -2.5650 C   0  0  0  0  0  0  0  0  0  0  0  0
   -5.4160   -4.0920   -3.2720 C   0  0  0  0  0  0  0  0  0  0  0  0
   -6.7130   -4.1680   -2.8120 C   0  0  0  0  0  0  0  0  0  0  0  0
   -7.0320   -3.5420   -1.6290 C   0  0  0  0  0  0  0  0  0  0  0  0
   -6.1050   -2.8600   -0.9150 C   0  0  0  0  0  0  0  0  0  0  0  0
   -2.4230   -0.6520    0.5410 C   0  0  0  0  0  0  0  0  0  0  0  0
   -1.7130   -1.7430    0.7020 O   0  0  0  0  0  0  0  0  0  0  0  0
   -1.9040    0.5410    1.0130 N   0  0  0  0  0  0  0  0  0  0  0  0
   -0.6210    0.5650    1.7070 C   0  0  0  0  0  0  0  0  0  0  0  0
    0.5230    0.0780    0.8540 C   0  0  1  0  0  0  0  0  0  0  0  0
    0.5830    0.9350   -0.2650 O   0  0  0  0  0  0  0  0  0  0  0  0
    1.7870    0.2990    1.6600 C   0  0  0  0  0  0  0  0  0  0  0  0
    2.9720   -0.0080    0.8570 N   0  0  0  0  0  0  0  0  0  0  0  0
    4.2510    0.1300    1.4150 C   0  0  0  0  0  0  0  0  0  0  0  0
    4.3770    0.5240    2.6240 O   0  0  0  0  0  0  0  0  0  0  0  0
    5.4580   -0.1390    0.7290 N   0  0  0  0  0  0  0  0  0  0  0  0
    6.7830    0.0160    1.3450 C   0  0  1  0  0  0  0  0  0  0  0  0
    7.5710   -1.2480    1.2870 C   0  0  0  0  0  0  0  0  0  0  0  0
    8.9290   -0.9370    1.2840 O   0  0  0  0  0  0  0  0  0  0  0  0
    9.2150    0.1950    2.0300 C   0  0  0  0  0  0  0  0  0  0  0  0
    8.7590    1.4470    1.3160 C   0  0  0  0  0  0  0  0  0  0  0  0
    7.4690    1.1430    0.6030 C   0  0  1  0  0  0  0  0  0  0  0  0
    7.7140    0.6600   -0.8170 C   0  0  0  0  0  0  0  0  0  0  0  0
   -6.4670    2.4580   -1.0870 O   0  0  0  0  0  0  0  0  0  0  0  0
   -6.7910    3.5910   -1.8660 C   0  0  0  0  0  0  0  0  0  0  0  0
  1  2  2  0
  2  3  1  0
  2 32  1  0
  3  4  2  3
  4  5  1  0
  4  6  1  0
  6  7  2  3
  6 14  1  0
  7  8  1  0
  8  9  2  0
  8 13  1  0
  9 10  1  0
 10 11  2  0
 11 12  1  0
 12 13  2  0
 14 15  2  0
 14 16  1  0
 16 17  1  0
 17 18  1  0
 18 19  1  6
 18 20  1  0
 20 21  1  0
 21 22  1  0
 22 23  2  0
 22 24  1  0
 25 24  1  6
 25 26  1  0
 25 30  1  0
 26 27  1  0
 27 28  1  0
 28 29  1  0
 29 30  1  0
 30 31  1  6
 32 33  1  0
M  END
