
     RDKit          3D

 32 35  0  0  0  0  0  0  0  0999 V2000
   -1.1760    2.6490    1.0210 C   0  0  0  0  0  0  0  0  0  0  0  0
   -1.7950    1.4000    0.5070 C   0  0  0  0  0  0  0  0  0  0  0  0
   -3.0740    1.3870   -0.0140 C   0  0  0  0  0  0  0  0  0  0  0  0
   -3.6480    0.2210   -0.4910 C   0  0  0  0  0  0  0  0  0  0  0  0
   -2.9230   -0.9530   -0.4440 C   0  0  0  0  0  0  0  0  0  0  0  0
   -1.6430   -0.9790    0.0690 C   0  0  0  0  0  0  0  0  0  0  0  0
   -1.0790    0.2080    0.5470 C   0  0  0  0  0  0  0  0  0  0  0  0
    0.2340    0.2290    1.0830 N   0  0  0  0  0  0  0  0  0  0  0  0
    1.3300    0.4610    0.2390 N   0  0  0  0  0  0  0  0  0  0  0  0
    1.1130    0.6760   -1.1470 C   0  0  0  0  0  0  0  0  0  0  0  0
   -0.1060    0.6530   -1.5440 O   0  0  0  0  0  0  0  0  0  0  0  0
    2.2000    0.9220   -2.1130 C   0  0  0  0  0  0  0  0  0  0  0  0
    3.5120    0.8630   -1.5350 N   0  0  0  0  0  0  0  0  0  0  0  0
    4.0270   -0.3260   -0.9610 C   0  0  0  0  0  0  0  0  0  0  0  0
    3.3270   -1.3670   -0.9620 O   0  0  0  0  0  0  0  0  0  0  0  0
    5.3730   -0.3290   -0.3720 C   0  0  0  0  0  0  0  0  0  0  0  0
    6.0150   -1.3580    0.2090 N   0  0  0  0  0  0  0  0  0  0  0  0
    7.2340   -0.9950    0.6360 C   0  0  0  0  0  0  0  0  0  0  0  0
    8.2810   -1.6170    1.2750 C   0  0  0  0  0  0  0  0  0  0  0  0
    9.3970   -0.9300    1.5620 N   0  0  0  0  0  0  0  0  0  0  0  0
    9.5190    0.3590    1.2390 N   0  0  0  0  0  0  0  0  0  0  0  0
    8.5180    0.9810    0.6200 C   0  0  0  0  0  0  0  0  0  0  0  0
    8.6420    2.1910    0.3200 O   0  0  0  0  0  0  0  0  0  0  0  0
    7.3510    0.3550    0.2930 C   0  0  0  0  0  0  0  0  0  0  0  0
    6.2060    0.7240   -0.3160 N   0  0  0  0  0  0  0  0  0  0  0  0
   -3.2070   -2.3530   -0.8530 C   0  0  0  0  0  0  0  0  0  0  0  0
   -4.6760   -2.6790   -0.6590 C   0  0  0  0  0  0  0  0  0  0  0  0
   -5.2360   -1.9480    0.5400 C   0  0  0  0  0  0  0  0  0  0  0  0
   -6.3620   -1.0730    0.1030 C   0  0  0  0  0  0  0  0  0  0  0  0
   -6.0390    0.3110   -0.0270 N   0  0  0  0  0  0  0  0  0  0  0  0
   -5.9990    1.0450    1.1960 C   0  0  0  0  0  0  0  0  0  0  0  0
   -4.9990    0.6120   -0.9560 C   0  0  0  0  0  0  0  0  0  0  0  0
  1  2  1  0
  2  3  2  0
  2  7  1  0
  3  4  1  0
  4  5  2  0
  4 32  1  0
  5  6  1  0
  5 26  1  0
  6  7  2  0
  7  8  1  0
  8  9  1  0
  9 10  1  0
 10 11  2  0
 10 12  1  0
 12 13  1  0
 13 14  1  0
 14 15  2  0
 14 16  1  0
 16 17  2  0
 16 25  1  0
 17 18  1  0
 18 19  1  0
 18 24  2  0
 19 20  2  0
 20 21  1  0
 21 22  1  0
 22 23  2  0
 22 24  1  0
 24 25  1  0
 26 27  1  0
 27 28  1  0
 28 29  1  0
 29 30  1  0
 30 31  1  0
 30 32  1  0
M  END
