
     RDKit          3D

 32 35  0  0  0  0  0  0  0  0999 V2000
   10.4720    0.5620    0.7940 C   0  0  0  0  0  0  0  0  0  0  0  0
    9.3150    0.0260    1.4930 C   0  0  0  0  0  0  0  0  0  0  0  0
    8.0830    0.0790    1.1880 C   0  0  0  0  0  0  0  0  0  0  0  0
    7.4150    0.6710    0.0760 C   0  0  0  0  0  0  0  0  0  0  0  0
    8.0120    1.3490   -0.9560 C   0  0  0  0  0  0  0  0  0  0  0  0
    7.2990    1.9010   -2.0090 C   0  0  0  0  0  0  0  0  0  0  0  0
    5.9430    1.7730   -2.0350 C   0  0  0  0  0  0  0  0  0  0  0  0
    5.3400    1.0970   -1.0060 C   0  0  0  0  0  0  0  0  0  0  0  0
    4.0360    0.7930   -0.7280 N   0  0  0  0  0  0  0  0  0  0  0  0
    3.9460    0.1030    0.4160 C   0  0  0  0  0  0  0  0  0  0  0  0
    2.7690   -0.4040    1.0570 N   0  0  0  0  0  0  0  0  0  0  0  0
    1.4950   -0.2110    0.5090 C   0  0  0  0  0  0  0  0  0  0  0  0
    1.4190    0.4340   -0.5870 O   0  0  0  0  0  0  0  0  0  0  0  0
    0.2930   -0.6910    1.1000 N   0  0  0  0  0  0  0  0  0  0  0  0
   -1.0150   -0.4780    0.5120 C   0  0  1  0  0  0  0  0  0  0  0  0
   -1.6160   -1.8420    0.2550 C   0  0  0  0  0  0  0  0  0  0  0  0
   -3.0260   -1.8280   -0.2100 C   0  0  0  0  0  0  0  0  0  0  0  0
   -3.6300   -0.4740   -0.0420 C   0  0  1  0  0  0  0  0  0  0  0  0
   -5.0890   -0.4860   -0.1410 N   0  0  0  0  0  0  0  0  0  0  0  0
   -5.8000    0.2570   -1.0970 C   0  0  0  0  0  0  0  0  0  0  0  0
   -5.0580    0.9510   -1.8800 O   0  0  0  0  0  0  0  0  0  0  0  0
   -7.2410    0.2990   -1.2600 C   0  0  0  0  0  0  0  0  0  0  0  0
   -7.8580    1.0410   -2.2060 N   0  0  0  0  0  0  0  0  0  0  0  0
   -9.1730    0.9150   -2.1550 C   0  0  0  0  0  0  0  0  0  0  0  0
  -10.0080    1.4790   -2.9030 O   0  0  0  0  0  0  0  0  0  0  0  0
   -9.4320    0.0680   -1.1510 N   0  0  0  0  0  0  0  0  0  0  0  0
   -8.2570   -0.3230   -0.5860 C   0  0  0  0  0  0  0  0  0  0  0  0
   -8.1220   -1.2470    0.5420 C   0  0  0  0  0  0  0  0  0  0  0  0
   -3.3120    0.0510    1.3480 C   0  0  0  0  0  0  0  0  0  0  0  0
   -1.8320    0.3140    1.5090 C   0  0  0  0  0  0  0  0  0  0  0  0
    5.2110   -0.0200    0.8450 N   0  0  0  0  0  0  0  0  0  0  0  0
    6.0430    0.5670    0.0080 N   0  0  0  0  0  0  0  0  0  0  0  0
  1  2  1  0
  2  3  2  3
  3  4  1  0
  4  5  2  0
  4 32  1  0
  5  6  1  0
  6  7  2  0
  7  8  1  0
  8  9  2  0
  8 32  1  0
  9 10  1  0
 10 11  1  0
 10 31  2  0
 11 12  1  0
 12 13  2  0
 12 14  1  0
 15 14  1  1
 15 16  1  0
 15 30  1  0
 16 17  1  0
 17 18  1  0
 18 19  1  1
 18 29  1  0
 19 20  1  0
 20 21  2  0
 20 22  1  0
 22 23  1  0
 22 27  2  0
 23 24  1  0
 24 25  2  0
 24 26  1  0
 26 27  1  0
 27 28  1  0
 29 30  1  0
 31 32  1  0
M  END
