
     RDKit          3D

 32 33  0  0  0  0  0  0  0  0999 V2000
   -4.7030   -1.7810   -2.2820 C   0  0  0  0  0  0  0  0  0  0  0  0
   -3.9640   -2.7400   -1.4120 C   0  0  0  0  0  0  0  0  0  0  0  0
   -2.8280   -2.0700   -0.7330 C   0  0  0  0  0  0  0  0  0  0  0  0
   -1.5650   -2.1980   -1.3180 C   0  0  0  0  0  0  0  0  0  0  0  0
   -0.4900   -1.5850   -0.7370 C   0  0  0  0  0  0  0  0  0  0  0  0
   -0.6260   -0.8330    0.4280 C   0  0  0  0  0  0  0  0  0  0  0  0
    0.5300   -0.2230    0.9320 N   0  0  0  0  0  0  0  0  0  0  0  0
    0.7050    0.2550    2.2510 C   0  0  0  0  0  0  0  0  0  0  0  0
   -0.2330    0.1530    3.0880 O   0  0  0  0  0  0  0  0  0  0  0  0
    1.9470    0.8970    2.7500 C   0  0  0  0  0  0  0  0  0  0  0  0
    3.0200    0.7410    1.9350 O   0  0  0  0  0  0  0  0  0  0  0  0
    3.5460   -0.5170    1.8110 C   0  0  0  0  0  0  0  0  0  0  0  0
    4.6670   -0.4620    0.8240 C   0  0  0  0  0  0  0  0  0  0  0  0
    5.3330   -1.4910    0.5270 O   0  0  0  0  0  0  0  0  0  0  0  0
    5.0170    0.7550    0.1880 N   0  0  0  0  0  0  0  0  0  0  0  0
    6.0560    0.9510   -0.7610 C   0  0  2  0  0  0  0  0  0  0  0  0
    5.7740    0.4460   -2.1340 C   0  0  0  0  0  0  0  0  0  0  0  0
    7.3910    0.4120   -0.3250 C   0  0  0  0  0  0  0  0  0  0  0  0
    7.4700   -0.1070    0.8060 O   0  0  0  0  0  0  0  0  0  0  0  0
    8.5230    0.4890   -1.1660 N   0  0  0  0  0  0  0  0  0  0  0  0
    9.8270   -0.0150   -0.7920 C   0  0  0  0  0  0  0  0  0  0  0  0
   -1.8540   -0.7300    0.9650 C   0  0  0  0  0  0  0  0  0  0  0  0
   -2.9870   -1.3480    0.3940 C   0  0  0  0  0  0  0  0  0  0  0  0
   -4.2730   -1.1540    1.1110 C   0  0  1  0  0  0  0  0  0  0  0  0
   -3.9610   -0.8490    2.4620 O   0  0  0  0  0  0  0  0  0  0  0  0
   -4.9770    0.0240    0.5940 C   0  0  0  0  0  0  0  0  0  0  0  0
   -4.4530    1.2760    0.6050 C   0  0  0  0  0  0  0  0  0  0  0  0
   -5.1480    2.3770    0.1450 C   0  0  0  0  0  0  0  0  0  0  0  0
   -6.4200    2.1850   -0.3400 C   0  0  0  0  0  0  0  0  0  0  0  0
   -7.2260    3.3320   -0.8530 C   0  0  0  0  0  0  0  0  0  0  0  0
   -6.9720    0.9180   -0.3600 C   0  0  0  0  0  0  0  0  0  0  0  0
   -6.2640   -0.1470    0.0990 C   0  0  0  0  0  0  0  0  0  0  0  0
  1  2  1  0
  2  3  1  0
  3  4  2  0
  3 23  1  0
  4  5  1  0
  5  6  2  0
  6  7  1  0
  6 22  1  0
  7  8  1  0
  8  9  2  0
  8 10  1  0
 10 11  1  0
 11 12  1  0
 12 13  1  0
 13 14  2  0
 13 15  1  0
 15 16  1  0
 16 17  1  6
 16 18  1  0
 18 19  2  0
 18 20  1  0
 20 21  1  0
 22 23  2  0
 23 24  1  0
 24 25  1  1
 24 26  1  0
 26 27  2  0
 26 32  1  0
 27 28  1  0
 28 29  2  0
 29 30  1  0
 29 31  1  0
 31 32  2  0
M  END
