
     RDKit          3D

 32 35  0  0  0  0  0  0  0  0999 V2000
   -2.5120   -3.3870   -0.5480 C   0  0  0  0  0  0  0  0  0  0  0  0
   -2.6540   -1.9130   -0.2850 C   0  0  0  0  0  0  0  0  0  0  0  0
   -1.5640   -1.1390   -0.1630 N   0  0  0  0  0  0  0  0  0  0  0  0
   -1.5910    0.1760    0.0710 C   0  0  0  0  0  0  0  0  0  0  0  0
   -0.4230    0.9730    0.1950 N   0  0  0  0  0  0  0  0  0  0  0  0
    0.8530    0.3790    0.0720 C   0  0  0  0  0  0  0  0  0  0  0  0
    0.9120   -0.8620   -0.1480 O   0  0  0  0  0  0  0  0  0  0  0  0
    2.0640    1.1130    0.1850 N   0  0  0  0  0  0  0  0  0  0  0  0
    3.3110    0.4000    0.0410 C   0  0  1  0  0  0  0  0  0  0  0  0
    4.0870    0.9130   -1.1530 C   0  0  0  0  0  0  0  0  0  0  0  0
    5.3210    0.0850   -1.2460 C   0  0  0  0  0  0  0  0  0  0  0  0
    5.7150   -0.5210   -2.3820 N   0  0  0  0  0  0  0  0  0  0  0  0
    6.8370   -1.2640   -2.4360 C   0  0  0  0  0  0  0  0  0  0  0  0
    7.2490   -1.9020   -3.6400 N   0  0  0  0  0  0  0  0  0  0  0  0
    7.5500   -1.3790   -1.3110 N   0  0  0  0  0  0  0  0  0  0  0  0
    7.1980   -0.7890   -0.1390 C   0  0  0  0  0  0  0  0  0  0  0  0
    7.8900   -0.9190    0.8930 O   0  0  0  0  0  0  0  0  0  0  0  0
    6.0620   -0.0360   -0.0830 C   0  0  0  0  0  0  0  0  0  0  0  0
    5.5650    0.6610    1.1330 C   0  0  2  0  0  0  0  0  0  0  0  0
    5.8800    2.1480    1.0790 C   0  0  0  0  0  0  0  0  0  0  0  0
    6.2240    0.1280    2.3970 C   0  0  0  0  0  0  0  0  0  0  0  0
    4.0820    0.5250    1.3230 C   0  0  0  0  0  0  0  0  0  0  0  0
   -2.8100    0.7480    0.1880 N   0  0  0  0  0  0  0  0  0  0  0  0
   -3.9270    0.0080    0.0720 C   0  0  0  0  0  0  0  0  0  0  0  0
   -5.1320    0.6650    0.2050 O   0  0  0  0  0  0  0  0  0  0  0  0
   -6.3990    0.0450    0.1130 C   0  0  2  0  0  0  0  0  0  0  0  0
   -7.1050    0.6300   -1.0780 C   0  0  0  0  0  0  0  0  0  0  0  0
   -8.5470    0.1070   -1.0390 C   0  0  0  0  0  0  0  0  0  0  0  0
   -9.2700    0.9010    0.0310 C   0  0  0  0  0  0  0  0  0  0  0  0
   -8.3430    1.2480    1.1780 C   0  0  0  0  0  0  0  0  0  0  0  0
   -7.2360    0.2390    1.3310 C   0  0  0  0  0  0  0  0  0  0  0  0
   -3.8530   -1.3290   -0.1650 N   0  0  0  0  0  0  0  0  0  0  0  0
  1  2  1  0
  2  3  2  0
  2 32  1  0
  3  4  1  0
  4  5  1  0
  4 23  2  0
  5  6  1  0
  6  7  2  0
  6  8  1  0
  9  8  1  1
  9 10  1  0
  9 22  1  0
 10 11  1  0
 11 12  1  0
 11 18  2  0
 12 13  2  0
 13 14  1  0
 13 15  1  0
 15 16  1  0
 16 17  2  0
 16 18  1  0
 18 19  1  0
 19 20  1  6
 19 21  1  0
 19 22  1  0
 23 24  1  0
 24 25  1  0
 24 32  2  0
 26 25  1  1
 26 27  1  0
 26 31  1  0
 27 28  1  0
 28 29  1  0
 29 30  1  0
 30 31  1  0
M  END
