
     RDKit          3D

 32 35  0  0  0  0  0  0  0  0999 V2000
    5.3930   -2.7760   -1.3570 C   0  0  0  0  0  0  0  0  0  0  0  0
    5.6380   -1.9420   -0.0760 C   0  0  1  0  0  0  0  0  0  0  0  0
    7.0970   -1.7450    0.0950 C   0  0  0  0  0  0  0  0  0  0  0  0
    4.9170   -0.6920   -0.2240 N   0  0  0  0  0  0  0  0  0  0  0  0
    3.5490   -0.5280    0.0790 C   0  0  0  0  0  0  0  0  0  0  0  0
    2.9530   -1.5400    0.5200 O   0  0  0  0  0  0  0  0  0  0  0  0
    2.8800    0.7770   -0.1370 C   0  0  1  0  0  0  0  0  0  0  0  0
    1.5030    0.5870   -0.4800 N   0  0  0  0  0  0  0  0  0  0  0  0
    0.4920    1.2120   -0.0870 C   0  0  0  0  0  0  0  0  0  0  0  0
   -0.8710    0.8940   -0.5510 C   0  0  0  0  0  0  0  0  0  0  0  0
   -0.9990   -0.0450   -1.3850 O   0  0  0  0  0  0  0  0  0  0  0  0
   -2.0160    1.5810   -0.1210 N   0  0  0  0  0  0  0  0  0  0  0  0
   -3.3180    1.2770   -0.6310 C   0  0  0  0  0  0  0  0  0  0  0  0
   -3.7640    2.0920   -1.6830 C   0  0  0  0  0  0  0  0  0  0  0  0
   -2.9350    3.1320   -2.1670 C   0  0  0  0  0  0  0  0  0  0  0  0
   -2.2250    4.0020   -2.5580 N   0  0  0  0  0  0  0  0  0  0  0  0
   -5.0210    1.8040   -2.1830 C   0  0  0  0  0  0  0  0  0  0  0  0
   -5.7440    0.7990   -1.6720 N   0  0  0  0  0  0  0  0  0  0  0  0
   -5.3150    0.0480   -0.6930 C   0  0  0  0  0  0  0  0  0  0  0  0
   -4.0650    0.2590   -0.1260 C   0  0  0  0  0  0  0  0  0  0  0  0
   -3.4180   -0.5070    0.9460 C   0  0  0  0  0  0  0  0  0  0  0  0
   -3.3580   -1.9820    0.5060 C   0  0  0  0  0  0  0  0  0  0  0  0
   -4.7030   -2.6240    0.6990 C   0  0  0  0  0  0  0  0  0  0  0  0
   -5.5830   -2.3290   -0.5210 C   0  0  0  0  0  0  0  0  0  0  0  0
   -6.2620   -1.0240   -0.2270 C   0  0  0  0  0  0  0  0  0  0  0  0
    0.6190    2.2350    0.8980 N   0  0  0  0  0  0  0  0  0  0  0  0
    1.9480    2.4690    1.3740 C   0  0  0  0  0  0  0  0  0  0  0  0
    2.3600    3.3290    2.3290 N   0  0  0  0  0  0  0  0  0  0  0  0
    3.6590    3.1780    2.4750 N   0  0  0  0  0  0  0  0  0  0  0  0
    4.1410    2.2410    1.6460 C   0  0  0  0  0  0  0  0  0  0  0  0
    5.3530    1.8850    1.5650 O   0  0  0  0  0  0  0  0  0  0  0  0
    3.0420    1.7690    0.9210 C   0  0  0  0  0  0  0  0  0  0  0  0
  2  1  1  6
  2  3  1  0
  2  4  1  0
  4  5  1  0
  5  6  2  0
  7  5  1  1
  7  8  1  0
  7 32  1  0
  8  9  2  0
  9 10  1  0
  9 26  1  0
 10 11  2  0
 10 12  1  0
 12 13  1  0
 13 14  2  0
 13 20  1  0
 14 15  1  0
 14 17  1  0
 15 16  3  0
 17 18  2  0
 18 19  1  0
 19 20  2  0
 19 25  1  0
 20 21  1  0
 21 22  1  0
 22 23  1  0
 23 24  1  0
 24 25  1  0
 26 27  1  0
 27 28  1  0
 27 32  2  0
 28 29  1  0
 29 30  1  0
 30 31  2  0
 30 32  1  0
M  END
