
     RDKit          3D

 42 45  0  0  0  0  0  0  0  0999 V2000
   -4.7790    0.4370   -2.3740 C   0  0  0  0  0  0  0  0  0  0  0  0
   -3.6820    0.9880   -3.2450 C   0  0  0  0  0  0  0  0  0  0  0  0
   -3.1140    2.2600   -2.8300 C   0  0  0  0  0  0  0  0  0  0  0  0
   -3.8820    3.7970   -3.4970 S   0  0  0  0  0  0  0  0  0  0  0  0
   -2.7960    4.9020   -2.5870 C   0  0  0  0  0  0  0  0  0  0  0  0
   -2.8550    6.3890   -2.6510 C   0  0  0  0  0  0  0  0  0  0  0  0
   -2.0050    4.0800   -1.9090 C   0  0  0  0  0  0  0  0  0  0  0  0
   -2.1490    2.7300   -2.0180 C   0  0  0  0  0  0  0  0  0  0  0  0
   -1.2260    1.8350   -1.2360 C   0  0  0  0  0  0  0  0  0  0  0  0
   -0.0390    2.2090   -1.0550 O   0  0  0  0  0  0  0  0  0  0  0  0
   -1.6140    0.5950   -0.6860 N   0  0  0  0  0  0  0  0  0  0  0  0
   -0.7750   -0.3040    0.0280 C   0  0  0  0  0  0  0  0  0  0  0  0
    0.5950   -0.3000   -0.2000 C   0  0  0  0  0  0  0  0  0  0  0  0
    1.4550   -1.2370    0.3660 C   0  0  0  0  0  0  0  0  0  0  0  0
    2.8740   -1.1900    0.0420 C   0  0  0  0  0  0  0  0  0  0  0  0
    3.6310   -2.0180    0.5610 O   0  0  0  0  0  0  0  0  0  0  0  0
    3.4010   -0.1710   -0.8970 C   0  0  0  0  0  0  0  0  0  0  0  0
    4.7630   -0.4410   -1.1300 O   0  0  0  0  0  0  0  0  0  0  0  0
    5.6430   -0.3740   -0.0490 C   0  0  0  0  0  0  0  0  0  0  0  0
    5.2930   -0.0670    1.1050 O   0  0  0  0  0  0  0  0  0  0  0  0
    7.1040   -0.6910   -0.2690 C   0  0  0  0  0  0  0  0  0  0  0  0
    7.8840    0.7670   -0.9860 S   0  0  0  0  0  0  0  0  0  0  0  0
    7.9300    2.1030    0.1830 C   0  0  0  0  0  0  0  0  0  0  0  0
    7.4790    2.0740    1.4470 N   0  0  0  0  0  0  0  0  0  0  0  0
    7.6910    3.2610    2.0230 N   0  0  0  0  0  0  0  0  0  0  0  0
    8.2840    4.0570    1.1200 C   0  0  0  0  0  0  0  0  0  0  0  0
    8.6450    5.2540    1.2790 O   0  0  0  0  0  0  0  0  0  0  0  0
    8.4320    3.3500   -0.0120 N   0  0  0  0  0  0  0  0  0  0  0  0
    0.9190   -2.1900    1.1740 C   0  0  0  0  0  0  0  0  0  0  0  0
   -0.4370   -2.2150    1.4190 C   0  0  0  0  0  0  0  0  0  0  0  0
   -1.2980   -1.2610    0.8400 C   0  0  0  0  0  0  0  0  0  0  0  0
   -2.6650   -1.3070    1.2280 C   0  0  0  0  0  0  0  0  0  0  0  0
   -3.5270   -0.4140    0.9390 O   0  0  0  0  0  0  0  0  0  0  0  0
   -3.2540   -2.3990    2.0130 C   0  0  0  0  0  0  0  0  0  0  0  0
   -3.8010   -2.1060    3.2300 C   0  0  0  0  0  0  0  0  0  0  0  0
   -4.3770   -3.1080    4.0250 C   0  0  0  0  0  0  0  0  0  0  0  0
   -4.9430   -2.8630    5.2610 O   0  0  0  0  0  0  0  0  0  0  0  0
   -4.3530   -4.3830    3.5010 C   0  0  0  0  0  0  0  0  0  0  0  0
   -3.7920   -4.6820    2.2560 C   0  0  0  0  0  0  0  0  0  0  0  0
   -3.2390   -3.6630    1.5160 C   0  0  0  0  0  0  0  0  0  0  0  0
   -2.6830   -3.9990    0.2660 O   0  0  0  0  0  0  0  0  0  0  0  0
   -2.6670   -5.2950   -0.2380 C   0  0  0  0  0  0  0  0  0  0  0  0
  1  2  1  0
  2  3  1  0
  3  4  1  0
  3  8  2  0
  4  5  1  0
  5  6  1  0
  5  7  2  0
  7  8  1  0
  8  9  1  0
  9 10  2  0
  9 11  1  0
 11 12  1  0
 12 13  2  0
 12 31  1  0
 13 14  1  0
 14 15  1  0
 14 29  2  0
 15 16  2  0
 15 17  1  0
 17 18  1  0
 18 19  1  0
 19 20  2  0
 19 21  1  0
 21 22  1  0
 22 23  1  0
 23 24  2  0
 23 28  1  0
 24 25  1  0
 25 26  1  0
 26 27  2  0
 26 28  1  0
 29 30  1  0
 30 31  2  0
 31 32  1  0
 32 33  2  0
 32 34  1  0
 34 35  2  0
 34 40  1  0
 35 36  1  0
 36 37  1  0
 36 38  2  0
 38 39  1  0
 39 40  2  0
 40 41  1  0
 41 42  1  0
M  END
