
     RDKit          3D

 42 45  0  0  0  0  0  0  0  0999 V2000
   -6.6770   -0.6610   -3.0080 C   0  0  0  0  0  0  0  0  0  0  0  0
   -6.8300   -1.7400   -1.9870 C   0  0  0  0  0  0  0  0  0  0  0  0
   -5.7500   -1.6340   -0.9900 N   0  0  0  0  0  0  0  0  0  0  0  0
   -5.6470   -2.5430    0.0830 C   0  0  0  0  0  0  0  0  0  0  0  0
   -6.5540   -3.4470    0.1150 O   0  0  0  0  0  0  0  0  0  0  0  0
   -4.6310   -2.5290    1.1140 C   0  0  1  0  0  0  0  0  0  0  0  0
   -3.3030   -2.8740    0.5770 C   0  0  0  0  0  0  0  0  0  0  0  0
   -2.8100   -4.0290    0.8180 O   0  0  0  0  0  0  0  0  0  0  0  0
   -2.4710   -1.9990   -0.2260 C   0  0  0  0  0  0  0  0  0  0  0  0
   -1.2850   -2.3820   -0.6810 C   0  0  0  0  0  0  0  0  0  0  0  0
   -0.4890   -1.5540   -1.4470 O   0  0  0  0  0  0  0  0  0  0  0  0
    0.4160   -2.1280   -2.3230 C   0  0  0  0  0  0  0  0  0  0  0  0
    1.6290   -2.3930   -1.8980 C   0  0  0  0  0  0  0  0  0  0  0  0
    2.0390   -2.0890   -0.5120 C   0  0  0  0  0  0  0  0  0  0  0  0
    3.1890   -1.1130   -0.5210 C   0  0  0  0  0  0  0  0  0  0  0  0
    3.6150   -0.7320   -1.6220 O   0  0  0  0  0  0  0  0  0  0  0  0
    3.6930   -0.7060    0.7350 N   0  0  0  0  0  0  0  0  0  0  0  0
    4.7590    0.1940    0.8810 C   0  0  0  0  0  0  0  0  0  0  0  0
    5.5890    0.5390   -0.1350 C   0  0  0  0  0  0  0  0  0  0  0  0
    6.6090    1.4650    0.0950 C   0  0  0  0  0  0  0  0  0  0  0  0
    7.4370    1.7980   -0.9510 O   0  0  0  0  0  0  0  0  0  0  0  0
    7.2660    1.2220   -2.2180 C   0  0  0  0  0  0  0  0  0  0  0  0
    6.7710    2.0230    1.3410 C   0  0  0  0  0  0  0  0  0  0  0  0
    5.9420    1.6860    2.3800 C   0  0  0  0  0  0  0  0  0  0  0  0
    4.9520    0.7770    2.1270 C   0  0  0  0  0  0  0  0  0  0  0  0
    6.1120    2.2480    3.6270 O   0  0  0  0  0  0  0  0  0  0  0  0
    7.0280    3.2900    3.8640 C   0  0  0  0  0  0  0  0  0  0  0  0
    7.4600    3.9420    2.5750 C   0  0  0  0  0  0  0  0  0  0  0  0
    7.7740    2.9460    1.5930 O   0  0  0  0  0  0  0  0  0  0  0  0
    0.0620   -2.4490   -3.7060 C   0  0  0  0  0  0  0  0  0  0  0  0
    1.0110   -3.0400   -4.5870 N   0  0  0  0  0  0  0  0  0  0  0  0
   -1.0870   -2.1940   -4.0930 O   0  0  0  0  0  0  0  0  0  0  0  0
   -4.5950   -1.2250    1.9070 C   0  0  0  0  0  0  0  0  0  0  0  0
   -4.3480   -1.2490    3.2390 C   0  0  0  0  0  0  0  0  0  0  0  0
   -4.4650    0.5300    3.6520 S   0  0  0  0  0  0  0  0  0  0  0  0
   -4.8360    1.0280    1.9310 C   0  0  0  0  0  0  0  0  0  0  0  0
   -5.0640    2.4120    1.6390 C   0  0  0  0  0  0  0  0  0  0  0  0
   -5.3300    3.0700    0.4940 C   0  0  0  0  0  0  0  0  0  0  0  0
   -5.5350    4.3860    0.4700 C   0  0  0  0  0  0  0  0  0  0  0  0
   -5.4850    5.1480    1.6230 C   0  0  0  0  0  0  0  0  0  0  0  0
   -5.0980    3.7940    2.8530 S   0  0  0  0  0  0  0  0  0  0  0  0
   -4.8190   -0.0620    1.3750 N   0  0  0  0  0  0  0  0  0  0  0  0
  1  2  1  0
  2  3  1  0
  3  4  1  0
  4  5  2  0
  6  4  1  6
  6  7  1  0
  6 33  1  0
  7  8  2  0
  7  9  1  0
  9 10  2  3
 10 11  1  0
 11 12  1  0
 12 13  2  3
 12 30  1  0
 13 14  1  0
 14 15  1  0
 15 16  2  0
 15 17  1  0
 17 18  1  0
 18 19  2  0
 18 25  1  0
 19 20  1  0
 20 21  1  0
 20 23  2  0
 21 22  1  0
 23 24  1  0
 23 29  1  0
 24 25  2  0
 24 26  1  0
 26 27  1  0
 27 28  1  0
 28 29  1  0
 30 31  1  0
 30 32  2  0
 33 34  2  0
 33 42  1  0
 34 35  1  0
 35 36  1  0
 36 37  1  0
 36 42  2  0
 37 38  2  0
 37 41  1  0
 38 39  1  0
 39 40  2  0
 40 41  1  0
M  END
