
     RDKit          3D

 42 45  0  0  0  0  0  0  0  0999 V2000
  -11.2200   -1.6770   -0.2920 C   0  0  0  0  0  0  0  0  0  0  0  0
  -10.1130   -0.6850   -0.2540 C   0  0  0  0  0  0  0  0  0  0  0  0
   -9.3660   -0.2240    0.7520 C   0  0  0  0  0  0  0  0  0  0  0  0
   -8.4100    0.6890    0.5260 C   0  0  0  0  0  0  0  0  0  0  0  0
   -8.2420    1.1200   -0.7830 C   0  0  0  0  0  0  0  0  0  0  0  0
   -7.3010    2.0670   -1.3450 C   0  0  0  0  0  0  0  0  0  0  0  0
   -5.9820    1.9170   -1.1800 C   0  0  0  0  0  0  0  0  0  0  0  0
   -5.4940    0.8260   -0.4620 N   0  0  0  0  0  0  0  0  0  0  0  0
   -4.1810    0.4390   -0.1340 C   0  0  0  0  0  0  0  0  0  0  0  0
   -3.2620    1.1570   -0.5240 O   0  0  0  0  0  0  0  0  0  0  0  0
   -3.8440   -0.7670    0.6450 C   0  0  0  0  0  0  0  0  0  0  0  0
   -4.8720   -1.6580    0.9400 C   0  0  0  0  0  0  0  0  0  0  0  0
   -4.6270   -2.8620    1.5940 C   0  0  0  0  0  0  0  0  0  0  0  0
   -3.3350   -3.1470    1.9420 C   0  0  0  0  0  0  0  0  0  0  0  0
   -2.2920   -2.2890    1.6690 C   0  0  0  0  0  0  0  0  0  0  0  0
   -2.5610   -1.0780    1.0080 C   0  0  0  0  0  0  0  0  0  0  0  0
   -1.5200   -0.1540    0.8280 N   0  0  0  0  0  0  0  0  0  0  0  0
   -0.1550   -0.4500    0.8450 C   0  0  0  0  0  0  0  0  0  0  0  0
    0.2890   -1.5990    1.0140 O   0  0  0  0  0  0  0  0  0  0  0  0
    0.8940    0.6100    0.6560 C   0  0  0  0  0  0  0  0  0  0  0  0
    2.1940    0.1140    0.7130 O   0  0  0  0  0  0  0  0  0  0  0  0
    2.7630   -0.5320    1.7720 C   0  0  0  0  0  0  0  0  0  0  0  0
    2.0740   -0.7120    2.8070 O   0  0  0  0  0  0  0  0  0  0  0  0
    4.1670   -1.0250    1.7360 C   0  0  0  0  0  0  0  0  0  0  0  0
    5.0830   -0.9610    0.7880 C   0  0  0  0  0  0  0  0  0  0  0  0
    6.3110   -1.4840    0.9720 C   0  0  0  0  0  0  0  0  0  0  0  0
    7.4400   -1.4530   -0.0790 C   0  0  0  0  0  0  0  0  0  0  0  0
    8.2190   -0.1780    0.1570 C   0  0  0  0  0  0  0  0  0  0  0  0
    9.3450   -0.0500   -0.8140 C   0  0  0  0  0  0  0  0  0  0  0  0
    9.5000   -0.9500   -1.6490 O   0  0  0  0  0  0  0  0  0  0  0  0
   10.2110    1.0560   -0.7890 N   0  0  0  0  0  0  0  0  0  0  0  0
   11.3150    1.2870   -1.6480 C   0  0  0  0  0  0  0  0  0  0  0  0
   12.4310    0.3010   -1.6100 C   0  0  0  0  0  0  0  0  0  0  0  0
   12.0110   -0.9520   -1.9500 O   0  0  0  0  0  0  0  0  0  0  0  0
    6.5350   -2.0870    2.2160 C   0  0  0  0  0  0  0  0  0  0  0  0
    4.9290   -1.8430    3.0270 S   0  0  0  0  0  0  0  0  0  0  0  0
   -5.1760    2.9460   -1.7990 C   0  0  0  0  0  0  0  0  0  0  0  0
   -3.9320    2.9310   -1.7240 O   0  0  0  0  0  0  0  0  0  0  0  0
   -5.7980    4.0420   -2.5340 N   0  0  0  0  0  0  0  0  0  0  0  0
   -7.1500    4.3830   -2.1450 C   0  0  0  0  0  0  0  0  0  0  0  0
   -7.8550    3.1350   -2.0620 O   0  0  0  0  0  0  0  0  0  0  0  0
   -9.4630    0.2010   -1.6500 S   0  0  0  0  0  0  0  0  0  0  0  0
  1  2  1  0
  2  3  2  0
  2 42  1  0
  3  4  1  0
  4  5  2  0
  5  6  1  0
  5 42  1  0
  6  7  2  0
  6 41  1  0
  7  8  1  0
  7 37  1  0
  8  9  1  0
  9 10  2  0
  9 11  1  0
 11 12  2  0
 11 16  1  0
 12 13  1  0
 13 14  2  0
 14 15  1  0
 15 16  2  0
 16 17  1  0
 17 18  1  0
 18 19  2  0
 18 20  1  0
 20 21  1  0
 21 22  1  0
 22 23  2  0
 22 24  1  0
 24 25  2  0
 24 36  1  0
 25 26  1  0
 26 27  1  0
 26 35  2  0
 27 28  1  0
 28 29  1  0
 29 30  2  0
 29 31  1  0
 31 32  1  0
 32 33  1  0
 33 34  1  0
 35 36  1  0
 37 38  2  0
 37 39  1  0
 39 40  1  0
 40 41  1  0
M  END
