
     RDKit          3D

 41 44  0  0  0  0  0  0  0  0999 V2000
    0.8300   -3.6100   -1.6900 C   0  0  0  0  0  0  0  0  0  0  0  0
    0.2820   -2.3390   -1.4200 O   0  0  0  0  0  0  0  0  0  0  0  0
   -0.7020   -2.1620   -0.4330 C   0  0  0  0  0  0  0  0  0  0  0  0
   -1.1340   -3.2720    0.2780 C   0  0  0  0  0  0  0  0  0  0  0  0
   -2.0950   -3.1750    1.2520 C   0  0  0  0  0  0  0  0  0  0  0  0
   -2.6730   -1.9800    1.5700 C   0  0  0  0  0  0  0  0  0  0  0  0
   -3.6860   -1.8940    2.6650 C   0  0  0  0  0  0  0  0  0  0  0  0
   -2.2510   -0.8300    0.8580 C   0  0  0  0  0  0  0  0  0  0  0  0
   -2.8680    0.3000    1.2270 O   0  0  0  0  0  0  0  0  0  0  0  0
   -3.8360    1.1180    0.7990 C   0  0  0  0  0  0  0  0  0  0  0  0
   -3.5960    2.4870    0.7120 C   0  0  0  0  0  0  0  0  0  0  0  0
   -4.5500    3.3640    0.2780 C   0  0  0  0  0  0  0  0  0  0  0  0
   -5.8100    2.9600   -0.1020 C   0  0  0  0  0  0  0  0  0  0  0  0
   -6.0690    1.6130   -0.0250 C   0  0  0  0  0  0  0  0  0  0  0  0
   -5.0860    0.7100    0.4210 C   0  0  0  0  0  0  0  0  0  0  0  0
   -5.4570   -0.6250    0.4550 O   0  0  0  0  0  0  0  0  0  0  0  0
   -5.2320   -1.4070   -0.6980 C   0  0  0  0  0  0  0  0  0  0  0  0
   -7.3730    1.3980   -0.4440 O   0  0  0  0  0  0  0  0  0  0  0  0
   -8.0460    2.6180   -0.6480 C   0  0  0  0  0  0  0  0  0  0  0  0
   -7.0140    3.6980   -0.6040 C   0  0  0  0  0  0  0  0  0  0  0  0
   -1.2670   -0.9430   -0.1350 C   0  0  0  0  0  0  0  0  0  0  0  0
   -0.7630    0.2190   -0.8390 C   0  0  0  0  0  0  0  0  0  0  0  0
   -1.5410    1.1990   -1.0440 O   0  0  0  0  0  0  0  0  0  0  0  0
    0.5700    0.2960   -1.3010 N   0  0  0  0  0  0  0  0  0  0  0  0
    1.0560    1.4530   -2.0090 C   0  0  0  0  0  0  0  0  0  0  0  0
   -0.0340    2.6710   -2.2460 S   0  0  0  0  0  0  0  0  0  0  0  0
    2.7010    1.6190   -2.5970 S   0  0  0  0  0  0  0  0  0  0  0  0
    3.8180    0.2960   -2.1660 C   0  0  0  0  0  0  0  0  0  0  0  0
    4.0930    0.2950   -0.7150 C   0  0  0  0  0  0  0  0  0  0  0  0
    3.8090   -0.7510    0.0310 C   0  0  0  0  0  0  0  0  0  0  0  0
    4.0650   -0.7910    1.4610 C   0  0  0  0  0  0  0  0  0  0  0  0
    4.6400    0.3020    2.1460 N   0  0  0  0  0  0  0  0  0  0  0  0
    3.7680   -1.8210    2.1040 O   0  0  0  0  0  0  0  0  0  0  0  0
    4.6590    1.4200   -0.1430 O   0  0  0  0  0  0  0  0  0  0  0  0
    5.9400    1.8990   -0.5350 C   0  0  0  0  0  0  0  0  0  0  0  0
    6.9900    0.8660   -0.2940 C   0  0  0  0  0  0  0  0  0  0  0  0
    7.7190    0.7180    0.8570 C   0  0  0  0  0  0  0  0  0  0  0  0
    8.5510   -0.3160    0.6740 N   0  0  0  0  0  0  0  0  0  0  0  0
    8.3740   -0.8320   -0.5590 C   0  0  0  0  0  0  0  0  0  0  0  0
    8.9880   -1.8150   -1.0710 O   0  0  0  0  0  0  0  0  0  0  0  0
    7.4120   -0.0940   -1.1400 N   0  0  0  0  0  0  0  0  0  0  0  0
  1  2  1  0
  2  3  1  0
  3  4  2  0
  3 21  1  0
  4  5  1  0
  5  6  2  0
  6  7  1  0
  6  8  1  0
  8  9  1  0
  8 21  2  0
  9 10  1  0
 10 11  2  0
 10 15  1  0
 11 12  1  0
 12 13  2  0
 13 14  1  0
 13 20  1  0
 14 15  2  0
 14 18  1  0
 15 16  1  0
 16 17  1  0
 18 19  1  0
 19 20  1  0
 21 22  1  0
 22 23  2  0
 22 24  1  0
 24 25  1  0
 25 26  2  0
 25 27  1  0
 27 28  1  0
 28 29  1  0
 29 30  2  3
 29 34  1  0
 30 31  1  0
 31 32  1  0
 31 33  2  0
 34 35  1  0
 35 36  1  0
 36 37  2  0
 36 41  1  0
 37 38  1  0
 38 39  1  0
 39 40  2  0
 39 41  1  0
M  END
