
     RDKit          3D

 42 45  0  0  0  0  0  0  0  0999 V2000
   -8.8860    1.4290    0.7080 C   0  0  0  0  0  0  0  0  0  0  0  0
   -8.8510    2.8890    1.0370 C   0  0  0  0  0  0  0  0  0  0  0  0
   -7.9890    3.7200    0.1440 C   0  0  2  0  0  0  0  0  0  0  0  0
   -8.4450    3.6240   -1.3170 C   0  0  0  0  0  0  0  0  0  0  0  0
   -6.2400    3.5920    0.3730 S   0  0  0  0  0  0  0  0  0  0  0  0
   -5.4500    2.1150    0.0360 C   0  0  0  0  0  0  0  0  0  0  0  0
   -4.8860    1.4360   -0.9750 C   0  0  0  0  0  0  0  0  0  0  0  0
   -4.3200    0.2340   -0.7960 C   0  0  0  0  0  0  0  0  0  0  0  0
   -4.3030   -0.3310    0.4200 C   0  0  0  0  0  0  0  0  0  0  0  0
   -3.8360   -1.5660    0.9560 C   0  0  0  0  0  0  0  0  0  0  0  0
   -3.0140   -2.3300    0.1460 C   0  0  0  0  0  0  0  0  0  0  0  0
   -2.0510   -1.6040   -0.5710 N   0  0  0  0  0  0  0  0  0  0  0  0
   -1.1010   -2.1510   -1.4570 C   0  0  0  0  0  0  0  0  0  0  0  0
   -1.0490   -3.3890   -1.6630 O   0  0  0  0  0  0  0  0  0  0  0  0
   -0.1600   -1.2920   -2.1550 N   0  0  0  0  0  0  0  0  0  0  0  0
    0.8050   -1.8270   -3.0560 C   0  0  0  0  0  0  0  0  0  0  0  0
    1.7470   -2.8110   -2.4080 C   0  0  0  0  0  0  0  0  0  0  0  0
    2.5110   -2.2090   -1.3020 C   0  0  0  0  0  0  0  0  0  0  0  0
    2.3370   -1.0130   -1.0040 O   0  0  0  0  0  0  0  0  0  0  0  0
    3.4140   -2.9740   -0.6040 O   0  0  0  0  0  0  0  0  0  0  0  0
    4.1930   -2.5160    0.4610 C   0  0  0  0  0  0  0  0  0  0  0  0
    5.0570   -1.3880   -0.0350 C   0  0  0  0  0  0  0  0  0  0  0  0
    4.9560   -1.0430   -1.2130 O   0  0  0  0  0  0  0  0  0  0  0  0
    5.9630   -0.7480    0.8430 N   0  0  0  0  0  0  0  0  0  0  0  0
    6.8080    0.3120    0.4820 C   0  0  0  0  0  0  0  0  0  0  0  0
    6.7970    1.0360   -0.6720 C   0  0  0  0  0  0  0  0  0  0  0  0
    7.6800    2.0630   -0.9620 C   0  0  0  0  0  0  0  0  0  0  0  0
    8.6430    2.3800   -0.0180 C   0  0  0  0  0  0  0  0  0  0  0  0
    8.6960    1.6750    1.1690 C   0  0  0  0  0  0  0  0  0  0  0  0
    7.7990    0.6650    1.4130 C   0  0  0  0  0  0  0  0  0  0  0  0
    9.6890    2.0350    2.0920 O   0  0  0  0  0  0  0  0  0  0  0  0
   10.8810    2.6180    1.5490 C   0  0  0  0  0  0  0  0  0  0  0  0
   10.5740    3.7000    0.5620 C   0  0  0  0  0  0  0  0  0  0  0  0
    9.5130    3.3940   -0.3080 O   0  0  0  0  0  0  0  0  0  0  0  0
   -3.0690   -3.7300    0.0140 C   0  0  0  0  0  0  0  0  0  0  0  0
   -3.3220   -4.6030    1.0410 C   0  0  0  0  0  0  0  0  0  0  0  0
   -3.9780   -4.3160    2.2470 C   0  0  0  0  0  0  0  0  0  0  0  0
   -4.3120   -5.3190    2.9240 O   0  0  0  0  0  0  0  0  0  0  0  0
   -4.3080   -3.1430    2.7980 N   0  0  0  0  0  0  0  0  0  0  0  0
   -4.2760   -1.9150    2.2130 C   0  0  0  0  0  0  0  0  0  0  0  0
   -4.7030   -0.9610    2.9030 O   0  0  0  0  0  0  0  0  0  0  0  0
   -5.1610    0.9290    1.4300 S   0  0  0  0  0  0  0  0  0  0  0  0
  1  2  1  0
  2  3  1  0
  3  4  1  6
  3  5  1  0
  5  6  1  0
  6  7  2  0
  6 42  1  0
  7  8  1  0
  8  9  2  0
  9 10  1  0
  9 42  1  0
 10 11  2  0
 10 40  1  0
 11 12  1  0
 11 35  1  0
 12 13  1  0
 13 14  2  0
 13 15  1  0
 15 16  1  0
 16 17  1  0
 17 18  1  0
 18 19  2  0
 18 20  1  0
 20 21  1  0
 21 22  1  0
 22 23  2  0
 22 24  1  0
 24 25  1  0
 25 26  2  0
 25 30  1  0
 26 27  1  0
 27 28  2  0
 28 29  1  0
 28 34  1  0
 29 30  2  0
 29 31  1  0
 31 32  1  0
 32 33  1  0
 33 34  1  0
 35 36  2  0
 36 37  1  0
 37 38  2  0
 37 39  1  0
 39 40  1  0
 40 41  2  0
M  END
