
     RDKit          3D

 42 45  0  0  0  0  0  0  0  0999 V2000
   -9.1730    3.8100    0.4670 C   0  0  0  0  0  0  0  0  0  0  0  0
   -7.6780    3.8000    0.2500 C   0  0  0  0  0  0  0  0  0  0  0  0
   -6.8460    4.5510    1.6330 S   0  0  2  0  0  0  0  0  0  0  0  0
   -7.1870    3.7740    2.8740 O   0  0  0  0  0  0  0  0  0  0  0  0
   -7.2790    5.9750    1.7990 O   0  0  0  0  0  0  0  0  0  0  0  0
   -5.1370    4.5490    1.4020 N   0  0  0  0  0  0  0  0  0  0  0  0
   -4.6820    3.1670    1.3030 C   0  0  0  0  0  0  0  0  0  0  0  0
   -3.2190    3.0960    1.1040 C   0  0  0  0  0  0  0  0  0  0  0  0
   -2.3210    4.1590    1.0100 C   0  0  0  0  0  0  0  0  0  0  0  0
   -1.0920    3.5410    0.8300 C   0  0  0  0  0  0  0  0  0  0  0  0
   -1.2950    2.1690    0.8230 C   0  0  0  0  0  0  0  0  0  0  0  0
   -0.2480    1.1690    0.6570 C   0  0  0  0  0  0  0  0  0  0  0  0
    1.0430    1.4330    0.4880 O   0  0  0  0  0  0  0  0  0  0  0  0
    1.7490    0.3610    0.3670 C   0  0  0  0  0  0  0  0  0  0  0  0
    3.2110    0.2420    0.1660 C   0  0  0  0  0  0  0  0  0  0  0  0
    3.7490   -0.9410    0.0670 C   0  0  0  0  0  0  0  0  0  0  0  0
    5.1790   -1.1010   -0.1310 C   0  0  0  0  0  0  0  0  0  0  0  0
    5.6300   -2.2870   -0.2180 O   0  0  0  0  0  0  0  0  0  0  0  0
    6.0620   -0.0070   -0.2290 N   0  0  0  0  0  0  0  0  0  0  0  0
    7.4540   -0.1200   -0.4150 C   0  0  0  0  0  0  0  0  0  0  0  0
    8.2000   -1.2490   -0.2880 C   0  0  0  0  0  0  0  0  0  0  0  0
    9.5840   -1.2480   -0.5160 C   0  0  0  0  0  0  0  0  0  0  0  0
   10.2450   -0.1020   -0.8780 C   0  0  0  0  0  0  0  0  0  0  0  0
   11.7180   -0.1120   -1.1180 C   0  0  0  0  0  0  0  0  0  0  0  0
    9.5140    1.0390   -1.0100 C   0  0  0  0  0  0  0  0  0  0  0  0
    8.1720    1.0300   -0.7870 C   0  0  0  0  0  0  0  0  0  0  0  0
    0.8790   -0.7090    0.4610 C   0  0  0  0  0  0  0  0  0  0  0  0
   -0.3860   -0.1950    0.6440 C   0  0  0  0  0  0  0  0  0  0  0  0
   -1.6430   -0.9740    0.7980 C   0  0  0  0  0  0  0  0  0  0  0  0
   -2.4720   -0.5720    1.5970 O   0  0  0  0  0  0  0  0  0  0  0  0
   -1.7860   -2.1140    0.0130 N   0  0  0  0  0  0  0  0  0  0  0  0
   -2.8590   -3.0090   -0.0330 C   0  0  0  0  0  0  0  0  0  0  0  0
   -2.7550   -4.0470   -0.8860 C   0  0  0  0  0  0  0  0  0  0  0  0
   -1.6120   -4.2660   -1.7310 C   0  0  0  0  0  0  0  0  0  0  0  0
   -1.6350   -5.3490   -2.5450 C   0  0  0  0  0  0  0  0  0  0  0  0
   -0.2580   -5.6910   -3.6230 S   0  0  0  0  0  0  0  0  0  0  0  0
   -3.8390   -4.9460   -0.9290 O   0  0  0  0  0  0  0  0  0  0  0  0
   -4.6750   -5.1230    0.1920 C   0  0  0  0  0  0  0  0  0  0  0  0
   -5.1050   -3.8260    0.6810 N   0  0  0  0  0  0  0  0  0  0  0  0
   -4.0360   -2.8490    0.7900 C   0  0  0  0  0  0  0  0  0  0  0  0
   -4.2090   -1.9150    1.6030 O   0  0  0  0  0  0  0  0  0  0  0  0
   -2.5610    1.9700    0.9880 O   0  0  0  0  0  0  0  0  0  0  0  0
  1  2  1  0
  3  2  1  6
  3  4  2  0
  3  5  2  0
  3  6  1  0
  6  7  1  0
  7  8  1  0
  8  9  2  0
  8 42  1  0
  9 10  1  0
 10 11  2  0
 11 12  1  0
 11 42  1  0
 12 13  1  0
 12 28  2  0
 13 14  1  0
 14 15  1  0
 14 27  2  0
 15 16  2  3
 16 17  1  0
 17 18  2  0
 17 19  1  0
 19 20  1  0
 20 21  2  0
 20 26  1  0
 21 22  1  0
 22 23  2  0
 23 24  1  0
 23 25  1  0
 25 26  2  0
 27 28  1  0
 28 29  1  0
 29 30  2  0
 29 31  1  0
 31 32  1  0
 32 33  2  0
 32 40  1  0
 33 34  1  0
 33 37  1  0
 34 35  2  3
 35 36  1  0
 37 38  1  0
 38 39  1  0
 39 40  1  0
 40 41  2  0
M  END
