
     RDKit          3D

 32 36  0  0  0  0  0  0  0  0999 V2000
   -4.5520    0.6160   -3.4290 C   0  0  0  0  0  0  0  0  0  0  0  0
   -5.4200    0.6420   -2.2220 C   0  0  0  0  0  0  0  0  0  0  0  0
   -6.3180    1.6230   -1.9620 N   0  0  0  0  0  0  0  0  0  0  0  0
   -6.9220    1.3260   -0.8090 C   0  0  0  0  0  0  0  0  0  0  0  0
   -7.9010    1.9330   -0.0600 C   0  0  0  0  0  0  0  0  0  0  0  0
   -8.3600    1.3960    1.1230 C   0  0  0  0  0  0  0  0  0  0  0  0
   -7.7940    0.2050    1.5430 C   0  0  0  0  0  0  0  0  0  0  0  0
   -6.8120   -0.4280    0.8170 C   0  0  0  0  0  0  0  0  0  0  0  0
   -6.3660    0.1250   -0.3630 C   0  0  0  0  0  0  0  0  0  0  0  0
   -5.4270   -0.2900   -1.2580 N   0  0  0  0  0  0  0  0  0  0  0  0
   -4.6060   -1.4710   -1.1820 C   0  0  0  0  0  0  0  0  0  0  0  0
   -3.3280   -1.1450   -0.4890 C   0  0  0  0  0  0  0  0  0  0  0  0
   -3.2410   -1.2560    0.8850 C   0  0  0  0  0  0  0  0  0  0  0  0
   -2.0820   -0.9690    1.5800 C   0  0  0  0  0  0  0  0  0  0  0  0
   -0.9670   -0.5590    0.9100 C   0  0  0  0  0  0  0  0  0  0  0  0
   -1.0600   -0.4490   -0.4770 C   0  0  0  0  0  0  0  0  0  0  0  0
   -2.2090   -0.7320   -1.1750 C   0  0  0  0  0  0  0  0  0  0  0  0
    0.1740   -0.0290   -0.8640 N   0  0  0  0  0  0  0  0  0  0  0  0
    0.9490    0.1020    0.2220 C   0  0  0  0  0  0  0  0  0  0  0  0
    2.3650    0.5440    0.1720 C   0  0  0  0  0  0  0  0  0  0  0  0
    3.2830   -0.5910    0.2240 N   0  0  0  0  0  0  0  0  0  0  0  0
    4.6860   -0.4160    0.1810 C   0  0  0  0  0  0  0  0  0  0  0  0
    5.1910    0.8540    0.0420 C   0  0  0  0  0  0  0  0  0  0  0  0
    6.5330    1.0770   -0.0020 C   0  0  0  0  0  0  0  0  0  0  0  0
    7.4490    0.0410    0.0890 C   0  0  0  0  0  0  0  0  0  0  0  0
    8.8760    0.3510    0.0310 C   0  0  0  0  0  0  0  0  0  0  0  0
    9.2850    1.7130   -0.1230 N   0  0  0  0  0  0  0  0  0  0  0  0
    9.7740   -0.5410    0.1100 N   0  0  0  0  0  0  0  0  0  0  0  0
    6.9640   -1.2210    0.2270 C   0  0  0  0  0  0  0  0  0  0  0  0
    5.5770   -1.4550    0.2740 C   0  0  0  0  0  0  0  0  0  0  0  0
    0.2700   -0.2190    1.3290 N   0  0  0  0  0  0  0  0  0  0  0  0
    0.7610   -0.2100    2.7060 C   0  0  0  0  0  0  0  0  0  0  0  0
  1  2  1  0
  2  3  2  0
  2 10  1  0
  3  4  1  0
  4  5  2  0
  4  9  1  0
  5  6  1  0
  6  7  2  0
  7  8  1  0
  8  9  2  0
  9 10  1  0
 10 11  1  0
 11 12  1  0
 12 13  2  0
 12 17  1  0
 13 14  1  0
 14 15  2  0
 15 16  1  0
 15 31  1  0
 16 17  2  0
 16 18  1  0
 18 19  2  0
 19 20  1  0
 19 31  1  0
 20 21  1  0
 21 22  1  0
 22 23  2  0
 22 30  1  0
 23 24  1  0
 24 25  2  0
 25 26  1  0
 25 29  1  0
 26 27  1  0
 26 28  2  0
 29 30  2  0
 31 32  1  0
M  CHG  1  28   1
M  END
