
     RDKit          3D

 32 35  0  0  0  0  0  0  0  0999 V2000
    6.4130   -3.1860    0.9590 C   0  0  0  0  0  0  0  0  0  0  0  0
    5.2720   -2.3740    1.4770 C   0  0  1  0  0  0  0  0  0  0  0  0
    5.5640   -1.8530    2.8780 C   0  0  0  0  0  0  0  0  0  0  0  0
    4.9530   -1.2490    0.5940 N   0  0  0  0  0  0  0  0  0  0  0  0
    3.6070   -0.9620    0.2760 C   0  0  0  0  0  0  0  0  0  0  0  0
    2.7360   -1.7360    0.7900 O   0  0  0  0  0  0  0  0  0  0  0  0
    3.1110    0.1310   -0.5920 C   0  0  1  0  0  0  0  0  0  0  0  0
    1.7670   -0.1450   -0.9760 N   0  0  0  0  0  0  0  0  0  0  0  0
    0.7860    0.6320   -1.0260 C   0  0  0  0  0  0  0  0  0  0  0  0
   -0.5210    0.1030   -1.4570 C   0  0  0  0  0  0  0  0  0  0  0  0
   -0.6210   -1.1130   -1.7430 O   0  0  0  0  0  0  0  0  0  0  0  0
   -1.6600    0.9190   -1.5510 N   0  0  0  0  0  0  0  0  0  0  0  0
   -2.9740    0.4390   -1.9160 C   0  0  0  0  0  0  0  0  0  0  0  0
   -3.3790    0.1750   -3.1700 C   0  0  0  0  0  0  0  0  0  0  0  0
   -2.4970    0.3000   -4.3200 C   0  0  0  0  0  0  0  0  0  0  0  0
   -1.8160    0.4040   -5.1790 N   0  0  0  0  0  0  0  0  0  0  0  0
   -4.6840   -0.2310   -3.4260 C   0  0  0  0  0  0  0  0  0  0  0  0
   -5.5450   -0.3630   -2.4560 N   0  0  0  0  0  0  0  0  0  0  0  0
   -5.2160   -0.1150   -1.1480 C   0  0  0  0  0  0  0  0  0  0  0  0
   -3.9290    0.2860   -0.8760 C   0  0  0  0  0  0  0  0  0  0  0  0
   -3.2750    0.6320    0.3870 C   0  0  0  0  0  0  0  0  0  0  0  0
   -3.8250   -0.1310    1.5510 C   0  0  0  0  0  0  0  0  0  0  0  0
   -5.2740    0.1990    1.8260 C   0  0  0  0  0  0  0  0  0  0  0  0
   -6.1750   -0.7770    1.0730 C   0  0  0  0  0  0  0  0  0  0  0  0
   -6.4160   -0.2960   -0.3000 C   0  0  0  0  0  0  0  0  0  0  0  0
    0.9080    1.9820   -0.5940 N   0  0  0  0  0  0  0  0  0  0  0  0
    2.1980    2.3690   -0.1090 C   0  0  0  0  0  0  0  0  0  0  0  0
    2.6350    3.5420    0.4140 N   0  0  0  0  0  0  0  0  0  0  0  0
    3.8850    3.4290    0.7680 N   0  0  0  0  0  0  0  0  0  0  0  0
    4.3310    2.1930    0.5000 C   0  0  0  0  0  0  0  0  0  0  0  0
    5.5110    1.7750    0.7320 O   0  0  0  0  0  0  0  0  0  0  0  0
    3.2570    1.4960   -0.0660 C   0  0  0  0  0  0  0  0  0  0  0  0
  2  1  1  6
  2  3  1  0
  2  4  1  0
  4  5  1  0
  5  6  2  0
  7  5  1  1
  7  8  1  0
  7 32  1  0
  8  9  2  0
  9 10  1  0
  9 26  1  0
 10 11  2  0
 10 12  1  0
 12 13  1  0
 13 14  2  0
 13 20  1  0
 14 15  1  0
 14 17  1  0
 15 16  3  0
 17 18  2  0
 18 19  1  0
 19 20  2  0
 19 25  1  0
 20 21  1  0
 21 22  1  0
 22 23  1  0
 23 24  1  0
 24 25  1  0
 26 27  1  0
 27 28  1  0
 27 32  2  0
 28 29  1  0
 29 30  1  0
 30 31  2  0
 30 32  1  0
M  END
