
     RDKit          3D

 32 35  0  0  0  0  0  0  0  0999 V2000
    0.1800   -1.5880    1.4290 C   0  0  0  0  0  0  0  0  0  0  0  0
   -0.5370   -0.6210    0.5890 C   0  0  0  0  0  0  0  0  0  0  0  0
   -1.8610   -0.6970    0.5790 N   0  0  0  0  0  0  0  0  0  0  0  0
   -2.5680   -1.6670    1.3430 C   0  0  0  0  0  0  0  0  0  0  0  0
   -4.0500   -1.4000    1.3390 C   0  0  0  0  0  0  0  0  0  0  0  0
   -4.8090   -2.1720    1.9670 O   0  0  0  0  0  0  0  0  0  0  0  0
   -4.6060   -0.3040    0.6490 N   0  0  0  0  0  0  0  0  0  0  0  0
   -5.9560    0.0510    0.5680 C   0  0  0  0  0  0  0  0  0  0  0  0
   -6.9930   -0.6130    1.1540 C   0  0  0  0  0  0  0  0  0  0  0  0
   -8.3260   -0.1810    1.0170 C   0  0  0  0  0  0  0  0  0  0  0  0
   -8.6300    0.9070    0.3020 N   0  0  0  0  0  0  0  0  0  0  0  0
   -7.6330    1.5780   -0.2840 C   0  0  0  0  0  0  0  0  0  0  0  0
   -6.3180    1.1830   -0.1710 C   0  0  0  0  0  0  0  0  0  0  0  0
   -5.2800    1.9180   -0.8060 N   0  0  0  0  0  0  0  0  0  0  0  0
    0.0430    0.3580   -0.2790 C   0  0  0  0  0  0  0  0  0  0  0  0
   -0.8580    1.0610   -1.1010 C   0  0  0  0  0  0  0  0  0  0  0  0
   -0.4050    1.9760   -1.9540 N   0  0  0  0  0  0  0  0  0  0  0  0
    0.8950    2.2340   -2.0390 C   0  0  0  0  0  0  0  0  0  0  0  0
    1.8290    1.5840   -1.2630 C   0  0  0  0  0  0  0  0  0  0  0  0
    1.4130    0.6350   -0.3660 C   0  0  0  0  0  0  0  0  0  0  0  0
    2.3850   -0.0150    0.5400 C   0  0  0  0  0  0  0  0  0  0  0  0
    3.6230    0.9250    0.6270 C   0  0  0  0  0  0  0  0  0  0  0  0
    4.1050    1.0320   -0.7130 N   0  0  0  0  0  0  0  0  0  0  0  0
    5.1610    0.3900   -1.3320 C   0  0  0  0  0  0  0  0  0  0  0  0
    5.3750    0.7370   -2.5720 O   0  0  0  0  0  0  0  0  0  0  0  0
    6.0650   -0.6140   -0.8050 C   0  0  0  0  0  0  0  0  0  0  0  0
    7.1590   -1.1590   -1.5200 C   0  0  0  0  0  0  0  0  0  0  0  0
    7.7780   -2.0360   -0.7280 N   0  0  0  0  0  0  0  0  0  0  0  0
    7.1620   -2.0960    0.4450 C   0  0  0  0  0  0  0  0  0  0  0  0
    7.4990   -2.8280    1.4110 O   0  0  0  0  0  0  0  0  0  0  0  0
    6.1270   -1.2270    0.3760 N   0  0  0  0  0  0  0  0  0  0  0  0
    3.2630    1.9670   -1.5270 C   0  0  0  0  0  0  0  0  0  0  0  0
  1  2  1  0
  2  3  2  3
  2 15  1  0
  3  4  1  0
  4  5  1  0
  5  6  2  0
  5  7  1  0
  7  8  1  0
  8  9  2  0
  8 13  1  0
  9 10  1  0
 10 11  2  0
 11 12  1  0
 12 13  2  0
 13 14  1  0
 15 16  2  0
 15 20  1  0
 16 17  1  0
 17 18  2  0
 18 19  1  0
 19 20  2  0
 19 32  1  0
 20 21  1  0
 21 22  1  0
 22 23  1  0
 23 24  1  0
 23 32  1  0
 24 25  2  0
 24 26  1  0
 26 27  2  0
 26 31  1  0
 27 28  1  0
 28 29  1  0
 29 30  2  0
 29 31  1  0
M  END
