
     RDKit          3D

 33 34  0  0  0  0  0  0  0  0999 V2000
   -8.0570    0.7870    2.8070 C   0  0  0  0  0  0  0  0  0  0  0  0
   -6.8570    0.3660    1.9430 C   0  0  0  0  0  0  0  0  0  0  0  0
   -5.9390   -0.4980    2.7470 C   0  0  0  0  0  0  0  0  0  0  0  0
   -4.6790   -0.9370    2.0160 C   0  0  0  0  0  0  0  0  0  0  0  0
   -4.9320   -1.7390    0.7750 C   0  0  1  0  0  0  0  0  0  0  0  0
   -5.6920   -0.9970   -0.1120 O   0  0  0  0  0  0  0  0  0  0  0  0
   -3.8020   -2.4800    0.2700 C   0  0  0  0  0  0  0  0  0  0  0  0
   -2.6380   -1.8380   -0.4540 N   0  0  0  0  0  0  0  0  0  0  0  0
   -1.6230   -1.4940    0.4090 C   0  0  0  0  0  0  0  0  0  0  0  0
   -1.9330   -1.5120    1.7120 O   0  0  0  0  0  0  0  0  0  0  0  0
   -0.2290   -1.1130    0.2800 C   0  0  0  0  0  0  0  0  0  0  0  0
    0.4360   -0.3730    1.2950 C   0  0  0  0  0  0  0  0  0  0  0  0
    1.6860   -0.0600    0.8590 C   0  0  0  0  0  0  0  0  0  0  0  0
    2.7350    0.6970    1.5540 C   0  0  0  0  0  0  0  0  0  0  0  0
    2.4950    1.1370    2.7220 O   0  0  0  0  0  0  0  0  0  0  0  0
    3.9610    0.9520    1.0060 O   0  0  0  0  0  0  0  0  0  0  0  0
    4.9140    1.6920    1.7470 C   0  0  0  0  0  0  0  0  0  0  0  0
    6.1510    1.8290    0.9380 C   0  0  0  0  0  0  0  0  0  0  0  0
    6.3600    1.1490   -0.2440 C   0  0  0  0  0  0  0  0  0  0  0  0
    7.5140    1.2940   -0.9850 C   0  0  0  0  0  0  0  0  0  0  0  0
    8.5250    2.1380   -0.5720 C   0  0  0  0  0  0  0  0  0  0  0  0
    9.7770    2.2990   -1.3730 C   0  0  0  0  0  0  0  0  0  0  0  0
    8.3320    2.8250    0.6070 C   0  0  0  0  0  0  0  0  0  0  0  0
    7.1760    2.6760    1.3440 C   0  0  0  0  0  0  0  0  0  0  0  0
    1.7970   -0.5910   -0.3930 C   0  0  0  0  0  0  0  0  0  0  0  0
    2.9700   -0.5300   -1.3130 C   0  0  0  0  0  0  0  0  0  0  0  0
    0.6500   -1.2140   -0.7170 N   0  0  0  0  0  0  0  0  0  0  0  0
   -2.9130   -1.6280   -1.8100 C   0  0  1  0  0  0  0  0  0  0  0  0
   -3.7440   -0.2440   -1.9020 C   0  0  0  0  0  0  0  0  0  0  0  0
   -2.0150   -1.4930   -2.9340 C   0  0  0  0  0  0  0  0  0  0  0  0
   -1.1760   -0.2930   -2.9680 C   0  0  0  0  0  0  0  0  0  0  0  0
   -0.2140   -0.1710   -4.0410 N   0  0  0  0  0  0  0  0  0  0  0  0
   -1.2270    0.6290   -2.1450 O   0  0  0  0  0  0  0  0  0  0  0  0
  1  2  1  0
  2  3  1  0
  3  4  1  0
  4  5  1  0
  5  6  1  6
  5  7  1  0
  7  8  1  0
  8  9  1  0
  8 28  1  0
  9 10  2  0
  9 11  1  0
 11 12  2  0
 11 27  1  0
 12 13  1  0
 13 14  1  0
 13 25  2  0
 14 15  2  0
 14 16  1  0
 16 17  1  0
 17 18  1  0
 18 19  2  0
 18 24  1  0
 19 20  1  0
 20 21  2  0
 21 22  1  0
 21 23  1  0
 23 24  2  0
 25 26  1  0
 25 27  1  0
 28 29  1  1
 28 30  1  0
 30 31  1  0
 31 32  1  0
 31 33  2  0
M  END
