
     RDKit          3D

 32 35  0  0  0  0  0  0  0  0999 V2000
   -0.5800    1.6070   -0.9500 C   0  0  0  0  0  0  0  0  0  0  0  0
   -1.7660    1.0860   -0.2410 C   0  0  0  0  0  0  0  0  0  0  0  0
   -3.0410    1.5380   -0.5490 C   0  0  0  0  0  0  0  0  0  0  0  0
   -4.1470    1.0320    0.1120 C   0  0  0  0  0  0  0  0  0  0  0  0
   -3.9820    0.0720    1.0820 C   0  0  0  0  0  0  0  0  0  0  0  0
   -2.6890   -0.3480    1.3550 C   0  0  0  0  0  0  0  0  0  0  0  0
   -1.5670    0.1250    0.7280 C   0  0  0  0  0  0  0  0  0  0  0  0
   -0.2710   -0.2870    1.0350 N   0  0  0  0  0  0  0  0  0  0  0  0
    0.5800   -1.0280    0.2480 N   0  0  0  0  0  0  0  0  0  0  0  0
    1.9820   -0.8460    0.3300 C   0  0  0  0  0  0  0  0  0  0  0  0
    2.5410   -0.0430    1.0870 O   0  0  0  0  0  0  0  0  0  0  0  0
    2.8500   -1.6780   -0.5550 C   0  0  0  0  0  0  0  0  0  0  0  0
    4.2440   -1.4530   -0.3630 N   0  0  0  0  0  0  0  0  0  0  0  0
    4.9230   -0.2190   -0.5450 C   0  0  0  0  0  0  0  0  0  0  0  0
    4.2810    0.7630   -0.9110 O   0  0  0  0  0  0  0  0  0  0  0  0
    6.3800   -0.1940   -0.2790 C   0  0  0  0  0  0  0  0  0  0  0  0
    7.1340   -1.2140    0.2030 N   0  0  0  0  0  0  0  0  0  0  0  0
    8.4210   -0.8510    0.3260 C   0  0  0  0  0  0  0  0  0  0  0  0
    9.5840   -1.4560    0.7490 C   0  0  0  0  0  0  0  0  0  0  0  0
   10.7590   -0.8180    0.7650 N   0  0  0  0  0  0  0  0  0  0  0  0
   10.8330    0.4460    0.3610 N   0  0  0  0  0  0  0  0  0  0  0  0
    9.7260    1.0800   -0.0640 C   0  0  0  0  0  0  0  0  0  0  0  0
    9.8360    2.2750   -0.4410 O   0  0  0  0  0  0  0  0  0  0  0  0
    8.4870    0.4830   -0.1040 C   0  0  0  0  0  0  0  0  0  0  0  0
    7.2310    0.8290   -0.4580 N   0  0  0  0  0  0  0  0  0  0  0  0
   -4.8750   -0.7000    1.9880 C   0  0  0  0  0  0  0  0  0  0  0  0
   -5.6420   -1.7870    1.2970 C   0  0  0  0  0  0  0  0  0  0  0  0
   -6.3730   -1.3790    0.0760 C   0  0  0  0  0  0  0  0  0  0  0  0
   -6.8450    0.0250    0.0180 C   0  0  0  0  0  0  0  0  0  0  0  0
   -6.1850    0.7550   -1.0640 N   0  0  0  0  0  0  0  0  0  0  0  0
   -7.0910    1.4440   -1.9340 C   0  0  0  0  0  0  0  0  0  0  0  0
   -5.3310    1.7460   -0.4520 C   0  0  0  0  0  0  0  0  0  0  0  0
  1  2  1  0
  2  3  2  0
  2  7  1  0
  3  4  1  0
  4  5  2  0
  4 32  1  0
  5  6  1  0
  5 26  1  0
  6  7  2  0
  7  8  1  0
  8  9  1  0
  9 10  1  0
 10 11  2  0
 10 12  1  0
 12 13  1  0
 13 14  1  0
 14 15  2  0
 14 16  1  0
 16 17  2  0
 16 25  1  0
 17 18  1  0
 18 19  1  0
 18 24  2  0
 19 20  2  0
 20 21  1  0
 21 22  1  0
 22 23  2  0
 22 24  1  0
 24 25  1  0
 26 27  1  0
 27 28  1  0
 28 29  1  0
 29 30  1  0
 30 31  1  0
 30 32  1  0
M  END
