
     RDKit          3D

 32 35  0  0  0  0  0  0  0  0999 V2000
    9.9280    0.2440    3.1990 C   0  0  0  0  0  0  0  0  0  0  0  0
    9.4290    0.3420    1.8010 C   0  0  0  0  0  0  0  0  0  0  0  0
    8.1510    0.2900    1.5780 C   0  0  0  0  0  0  0  0  0  0  0  0
    7.6200    0.3810    0.2240 C   0  0  0  0  0  0  0  0  0  0  0  0
    8.4550    0.5310   -0.8490 C   0  0  0  0  0  0  0  0  0  0  0  0
    7.8800    0.6080   -2.1190 C   0  0  0  0  0  0  0  0  0  0  0  0
    6.5210    0.5350   -2.2650 C   0  0  0  0  0  0  0  0  0  0  0  0
    5.7350    0.3820   -1.1150 C   0  0  0  0  0  0  0  0  0  0  0  0
    4.3860    0.2810   -0.9500 N   0  0  0  0  0  0  0  0  0  0  0  0
    4.0950    0.1470    0.3480 C   0  0  0  0  0  0  0  0  0  0  0  0
    2.8110    0.0110    0.9670 N   0  0  0  0  0  0  0  0  0  0  0  0
    1.6310    0.0120    0.1770 C   0  0  0  0  0  0  0  0  0  0  0  0
    1.7380    0.1420   -1.0680 O   0  0  0  0  0  0  0  0  0  0  0  0
    0.3120   -0.1250    0.7130 N   0  0  0  0  0  0  0  0  0  0  0  0
   -0.8590   -0.1140   -0.1410 C   0  0  1  0  0  0  0  0  0  0  0  0
   -1.5110   -1.4810   -0.0980 C   0  0  0  0  0  0  0  0  0  0  0  0
   -2.8670   -1.5260   -0.7080 C   0  0  0  0  0  0  0  0  0  0  0  0
   -3.7110   -0.3610   -0.3320 C   0  0  1  0  0  0  0  0  0  0  0  0
   -5.0980   -0.6750   -0.1400 N   0  0  0  0  0  0  0  0  0  0  0  0
   -6.1530    0.0030   -0.8020 C   0  0  0  0  0  0  0  0  0  0  0  0
   -5.8270    0.9270   -1.5890 O   0  0  0  0  0  0  0  0  0  0  0  0
   -7.5570   -0.3180   -0.6130 C   0  0  0  0  0  0  0  0  0  0  0  0
   -8.0740   -1.2980    0.1370 N   0  0  0  0  0  0  0  0  0  0  0  0
   -9.4100   -1.2970    0.0810 C   0  0  0  0  0  0  0  0  0  0  0  0
  -10.2250   -2.0660    0.6530 O   0  0  0  0  0  0  0  0  0  0  0  0
   -9.7570   -0.2800   -0.7340 N   0  0  0  0  0  0  0  0  0  0  0  0
   -8.6330    0.3410   -1.1750 C   0  0  0  0  0  0  0  0  0  0  0  0
   -8.5720    1.5290   -2.0800 C   0  0  0  0  0  0  0  0  0  0  0  0
   -3.0940    0.3220    0.8700 C   0  0  0  0  0  0  0  0  0  0  0  0
   -1.8040    0.9510    0.3620 C   0  0  0  0  0  0  0  0  0  0  0  0
    5.2730    0.1630    0.9950 N   0  0  0  0  0  0  0  0  0  0  0  0
    6.2690    0.3060    0.1000 N   0  0  0  0  0  0  0  0  0  0  0  0
  1  2  1  0
  2  3  2  3
  3  4  1  0
  4  5  2  0
  4 32  1  0
  5  6  1  0
  6  7  2  0
  7  8  1  0
  8  9  2  0
  8 32  1  0
  9 10  1  0
 10 11  1  0
 10 31  2  0
 11 12  1  0
 12 13  2  0
 12 14  1  0
 15 14  1  1
 15 16  1  0
 15 30  1  0
 16 17  1  0
 17 18  1  0
 18 19  1  1
 18 29  1  0
 19 20  1  0
 20 21  2  0
 20 22  1  0
 22 23  1  0
 22 27  2  0
 23 24  1  0
 24 25  2  0
 24 26  1  0
 26 27  1  0
 27 28  1  0
 29 30  1  0
 31 32  1  0
M  END
