
     RDKit          3D

 32 33  0  0  0  0  0  0  0  0999 V2000
   -4.8810    2.7900   -2.9690 C   0  0  0  0  0  0  0  0  0  0  0  0
   -3.5920    2.3690   -3.5950 C   0  0  0  0  0  0  0  0  0  0  0  0
   -2.6200    1.9750   -2.5400 C   0  0  0  0  0  0  0  0  0  0  0  0
   -1.6430    2.8720   -2.2300 C   0  0  0  0  0  0  0  0  0  0  0  0
   -0.7100    2.5630   -1.2560 C   0  0  0  0  0  0  0  0  0  0  0  0
   -0.7070    1.3870   -0.5690 C   0  0  0  0  0  0  0  0  0  0  0  0
    0.2140    1.0240    0.4450 N   0  0  0  0  0  0  0  0  0  0  0  0
    1.1460    1.8540    1.0840 C   0  0  0  0  0  0  0  0  0  0  0  0
    1.2160    3.0670    0.7710 O   0  0  0  0  0  0  0  0  0  0  0  0
    2.0760    1.3140    2.1510 C   0  0  0  0  0  0  0  0  0  0  0  0
    1.8210   -0.0310    2.2920 O   0  0  0  0  0  0  0  0  0  0  0  0
    2.5890   -0.6950    3.1950 C   0  0  0  0  0  0  0  0  0  0  0  0
    4.0200   -0.8150    2.9140 C   0  0  0  0  0  0  0  0  0  0  0  0
    4.7930   -1.2600    3.8390 O   0  0  0  0  0  0  0  0  0  0  0  0
    4.6820   -0.4950    1.7110 N   0  0  0  0  0  0  0  0  0  0  0  0
    6.1130   -0.6420    1.5370 C   0  0  2  0  0  0  0  0  0  0  0  0
    6.7890    0.6860    1.2880 C   0  0  0  0  0  0  0  0  0  0  0  0
    6.4320   -1.6250    0.4720 C   0  0  0  0  0  0  0  0  0  0  0  0
    5.5270   -2.2280   -0.1600 O   0  0  0  0  0  0  0  0  0  0  0  0
    7.7820   -1.9010    0.1470 N   0  0  0  0  0  0  0  0  0  0  0  0
    8.0680   -2.8640   -0.8960 C   0  0  0  0  0  0  0  0  0  0  0  0
   -1.7270    0.4800   -0.9090 C   0  0  0  0  0  0  0  0  0  0  0  0
   -2.6650    0.7640   -1.8730 C   0  0  0  0  0  0  0  0  0  0  0  0
   -3.7220   -0.1880   -2.2190 C   0  0  1  0  0  0  0  0  0  0  0  0
   -3.1840   -1.2170   -3.0000 O   0  0  0  0  0  0  0  0  0  0  0  0
   -4.4630   -0.7470   -1.0690 C   0  0  0  0  0  0  0  0  0  0  0  0
   -5.6620   -0.1720   -0.6480 C   0  0  0  0  0  0  0  0  0  0  0  0
   -6.3980   -0.6610    0.4110 C   0  0  0  0  0  0  0  0  0  0  0  0
   -5.9300   -1.7590    1.0770 C   0  0  0  0  0  0  0  0  0  0  0  0
   -6.7260   -2.2850    2.2210 C   0  0  0  0  0  0  0  0  0  0  0  0
   -4.7680   -2.3660    0.7150 C   0  0  0  0  0  0  0  0  0  0  0  0
   -4.0460   -1.8490   -0.3600 C   0  0  0  0  0  0  0  0  0  0  0  0
  1  2  1  0
  2  3  1  0
  3  4  2  0
  3 23  1  0
  4  5  1  0
  5  6  2  0
  6  7  1  0
  6 22  1  0
  7  8  1  0
  8  9  2  0
  8 10  1  0
 10 11  1  0
 11 12  1  0
 12 13  1  0
 13 14  2  0
 13 15  1  0
 15 16  1  0
 16 17  1  6
 16 18  1  0
 18 19  2  0
 18 20  1  0
 20 21  1  0
 22 23  2  0
 23 24  1  0
 24 25  1  1
 24 26  1  0
 26 27  2  0
 26 32  1  0
 27 28  1  0
 28 29  2  0
 29 30  1  0
 29 31  1  0
 31 32  2  0
M  END
