
     RDKit          3D

 32 35  0  0  0  0  0  0  0  0999 V2000
   10.3250    1.8910   -0.1200 C   0  0  0  0  0  0  0  0  0  0  0  0
    8.8870    1.8070   -0.4210 C   0  0  0  0  0  0  0  0  0  0  0  0
    8.4420    2.1540   -1.6860 C   0  0  0  0  0  0  0  0  0  0  0  0
    7.0980    2.0550   -1.9060 C   0  0  0  0  0  0  0  0  0  0  0  0
    6.1770    1.6310   -0.9380 C   0  0  0  0  0  0  0  0  0  0  0  0
    4.8230    1.5760   -1.2460 N   0  0  0  0  0  0  0  0  0  0  0  0
    3.8440    0.9500   -0.4480 C   0  0  0  0  0  0  0  0  0  0  0  0
    4.1140    0.3720    0.6200 O   0  0  0  0  0  0  0  0  0  0  0  0
    2.4650    0.9650   -0.8630 N   0  0  0  0  0  0  0  0  0  0  0  0
    1.4440    0.2940   -0.0270 C   0  0  0  0  0  0  0  0  0  0  0  0
    1.7190   -1.1610    0.0320 C   0  0  0  0  0  0  0  0  0  0  0  0
    0.8560   -2.0210    0.8640 C   0  0  0  0  0  0  0  0  0  0  0  0
   -0.5240   -2.0560    0.5700 N   0  0  0  0  0  0  0  0  0  0  0  0
   -1.4320   -1.0120    0.7830 C   0  0  0  0  0  0  0  0  0  0  0  0
   -1.1420    0.0880    1.2910 O   0  0  0  0  0  0  0  0  0  0  0  0
   -2.8190   -1.2520    0.3710 N   0  0  0  0  0  0  0  0  0  0  0  0
   -3.7330   -0.2090    0.5780 C   0  0  0  0  0  0  0  0  0  0  0  0
   -3.2790    1.0160    0.9920 N   0  0  0  0  0  0  0  0  0  0  0  0
   -4.0310    2.0970    1.1430 C   0  0  0  0  0  0  0  0  0  0  0  0
   -3.4390    3.3990    1.6030 C   0  0  0  0  0  0  0  0  0  0  0  0
   -5.3360    1.9850    0.8690 N   0  0  0  0  0  0  0  0  0  0  0  0
   -5.8430    0.7960    0.4570 C   0  0  0  0  0  0  0  0  0  0  0  0
   -5.0580   -0.3450    0.2980 C   0  0  0  0  0  0  0  0  0  0  0  0
   -5.6540   -1.6250   -0.1240 C   0  0  0  0  0  0  0  0  0  0  0  0
   -6.9530   -1.6290   -0.3470 C   0  0  0  0  0  0  0  0  0  0  0  0
   -7.8510   -0.4470   -0.2040 C   0  0  0  0  0  0  0  0  0  0  0  0
   -7.1840    0.7000    0.1800 O   0  0  0  0  0  0  0  0  0  0  0  0
   -7.4050   -2.9270   -0.7700 N   0  0  0  0  0  0  0  0  0  0  0  0
   -6.3850   -3.8490   -0.3940 C   0  0  0  0  0  0  0  0  0  0  0  0
   -5.1360   -2.9640   -0.3240 C   0  0  0  0  0  0  0  0  0  0  0  0
    6.6940    1.3090    0.2780 C   0  0  0  0  0  0  0  0  0  0  0  0
    8.0270    1.3980    0.5230 N   0  0  0  0  0  0  0  0  0  0  0  0
  1  2  1  0
  2  3  2  0
  2 32  1  0
  3  4  1  0
  4  5  2  0
  5  6  1  0
  5 31  1  0
  6  7  1  0
  7  8  2  0
  7  9  1  0
  9 10  1  0
 10 11  1  0
 11 12  1  0
 12 13  1  0
 13 14  1  0
 14 15  2  0
 14 16  1  0
 16 17  1  0
 17 18  2  0
 17 23  1  0
 18 19  1  0
 19 20  1  0
 19 21  2  0
 21 22  1  0
 22 23  2  0
 22 27  1  0
 23 24  1  0
 24 25  2  0
 24 30  1  0
 25 26  1  0
 25 28  1  0
 26 27  1  0
 28 29  1  0
 29 30  1  0
 31 32  2  0
M  END
