
     RDKit          3D

 17 18  0  0  0  0  0  0  0  0999 V2000
   -3.1950    0.5480    1.6430 N   0  0  0  0  0  0  0  0  0  0  0  0
   -2.9780   -0.5240    0.7550 C   0  0  0  0  0  0  0  0  0  0  0  0
   -3.7310   -1.5020    0.7170 O   0  0  0  0  0  0  0  0  0  0  0  0
   -1.7950   -0.4530   -0.1580 C   0  0  1  0  0  0  0  0  0  0  0  0
   -1.8430   -1.6990   -0.9470 N   0  0  0  0  0  0  0  0  0  0  0  0
   -2.0000    0.7040   -1.0290 C   0  0  0  0  0  0  0  0  0  0  0  0
   -1.1500    1.6820   -1.1570 C   0  0  0  0  0  0  0  0  0  0  0  0
    0.0940    1.6780   -0.4170 C   0  0  0  0  0  0  0  0  0  0  0  0
    0.3900    0.6980    0.3920 C   0  0  0  0  0  0  0  0  0  0  0  0
    1.6130    0.6920    1.1220 N   0  0  0  0  0  0  0  0  0  0  0  0
    2.7130    0.2390    0.6290 C   0  0  0  0  0  0  0  0  0  0  0  0
    3.9820    0.2170    1.3440 C   0  0  0  0  0  0  0  0  0  0  0  0
    4.9200   -0.3190    0.5440 C   0  0  0  0  0  0  0  0  0  0  0  0
    4.3570   -0.6630   -0.6770 O   0  0  0  0  0  0  0  0  0  0  0  0
    2.9870   -0.3380   -0.6800 C   0  0  0  0  0  0  0  0  0  0  0  0
    2.1390   -0.4850   -1.5710 O   0  0  0  0  0  0  0  0  0  0  0  0
   -0.5210   -0.4340    0.5780 C   0  0  0  0  0  0  0  0  0  0  0  0
  1  2  1  0
  2  3  2  0
  2  4  1  0
  4  5  1  6
  4  6  1  0
  4 17  1  0
  6  7  2  0
  7  8  1  0
  8  9  2  0
  9 10  1  0
  9 17  1  0
 10 11  2  3
 11 12  1  0
 11 15  1  0
 12 13  2  0
 13 14  1  0
 14 15  1  0
 15 16  2  0
M  CHG  1   5   1
M  END
