
     RDKit          3D

 17 17  0  0  0  0  0  0  0  0999 V2000
   -1.3430   -0.2870    2.2410 C   0  0  0  0  0  0  0  0  0  0  0  0
   -1.3740   -0.2440    0.7560 C   0  0  0  0  0  0  0  0  0  0  0  0
   -2.5010   -0.2480    0.0630 C   0  0  0  0  0  0  0  0  0  0  0  0
   -3.9160   -0.2880    0.3960 C   0  0  0  0  0  0  0  0  0  0  0  0
   -4.2870   -0.3440    1.7650 N   0  0  0  0  0  0  0  0  0  0  0  0
   -2.0420   -0.1970   -1.3530 C   0  0  1  0  0  0  0  0  0  0  0  0
   -2.6350    0.9720   -2.1040 C   0  0  0  0  0  0  0  0  0  0  0  0
   -0.6140   -0.1700   -1.3240 N   0  0  0  0  0  0  0  0  0  0  0  0
   -0.2070   -0.1980   -0.0930 C   0  0  0  0  0  0  0  0  0  0  0  0
    1.2180   -0.1850    0.3000 C   0  0  0  0  0  0  0  0  0  0  0  0
    1.5620   -0.2150    1.4920 O   0  0  0  0  0  0  0  0  0  0  0  0
    2.2110   -0.1390   -0.6570 O   0  0  0  0  0  0  0  0  0  0  0  0
    3.5870   -0.1260   -0.3390 C   0  0  1  0  0  0  0  0  0  0  0  0
    4.3360   -1.3000   -0.8750 C   0  0  0  0  0  0  0  0  0  0  0  0
    4.2140    1.1780   -0.7440 C   0  0  0  0  0  0  0  0  0  0  0  0
    5.5950    1.4320   -0.5260 N   0  0  0  0  0  0  0  0  0  0  0  0
    3.5420    2.0910   -1.2900 O   0  0  0  0  0  0  0  0  0  0  0  0
  1  2  1  0
  2  3  2  0
  2  9  1  0
  3  4  1  0
  3  6  1  0
  4  5  1  0
  6  7  1  1
  6  8  1  0
  8  9  2  0
  9 10  1  0
 10 11  2  0
 10 12  1  0
 12 13  1  0
 13 14  1  6
 13 15  1  0
 15 16  1  0
 15 17  2  0
M  CHG  1   5   1
M  END
