
     RDKit          3D

 17 17  0  0  0  0  0  0  0  0999 V2000
   -3.3440    2.6590   -0.0060 C   0  0  0  0  0  0  0  0  0  0  0  0
   -2.4960    1.6050    0.6820 C   0  0  0  0  0  0  0  0  0  0  0  0
   -2.3230    0.3760   -0.1200 C   0  0  0  0  0  0  0  0  0  0  0  0
   -1.1890   -0.0900   -0.6110 C   0  0  0  0  0  0  0  0  0  0  0  0
    0.1590    0.4640   -0.5000 C   0  0  0  0  0  0  0  0  0  0  0  0
    0.4440    1.5310    0.1170 O   0  0  0  0  0  0  0  0  0  0  0  0
    1.2880   -0.1770   -1.0970 N   0  0  0  0  0  0  0  0  0  0  0  0
    2.5730    0.3420   -0.9980 N   0  0  0  0  0  0  0  0  0  0  0  0
    3.3800   -0.5310   -0.2090 C   0  0  0  0  0  0  0  0  0  0  0  0
    4.7620   -0.0210   -0.0280 C   0  0  0  0  0  0  0  0  0  0  0  0
    5.1410    1.0610   -0.5360 O   0  0  0  0  0  0  0  0  0  0  0  0
    5.6450   -0.7610    0.7190 O   0  0  0  0  0  0  0  0  0  0  0  0
    6.9930   -0.3460    0.9480 C   0  0  0  0  0  0  0  0  0  0  0  0
   -1.4420   -1.3610   -1.3780 C   0  0  0  0  0  0  0  0  0  0  0  0
   -2.7740   -1.8520   -0.9360 C   0  0  0  0  0  0  0  0  0  0  0  0
   -3.4340   -0.5520   -0.4860 C   0  0  1  0  0  0  0  0  0  0  0  0
   -4.2820   -0.8730    0.6160 N   0  0  0  0  0  0  0  0  0  0  0  0
  1  2  1  0
  2  3  1  0
  3  4  2  0
  3 16  1  0
  4  5  1  0
  4 14  1  0
  5  6  2  0
  5  7  1  0
  7  8  1  0
  8  9  1  0
  9 10  1  0
 10 11  2  0
 10 12  1  0
 12 13  1  0
 14 15  1  0
 15 16  1  0
 16 17  1  1
M  CHG  1  17   1
M  END
