
     RDKit          3D

 17 17  0  0  0  0  0  0  0  0999 V2000
    5.2170   -1.7980    0.6510 C   0  0  0  0  0  0  0  0  0  0  0  0
    4.2270   -1.3890   -0.2970 N   0  0  0  0  0  0  0  0  0  0  0  0
    3.0830   -0.6370    0.1530 C   0  0  0  0  0  0  0  0  0  0  0  0
    3.0080   -0.3730    1.3650 O   0  0  0  0  0  0  0  0  0  0  0  0
    2.0750   -0.2220   -0.8200 C   0  0  0  0  0  0  0  0  0  0  0  0
    0.9840    0.6120   -0.1980 C   0  0  0  0  0  0  0  0  0  0  0  0
   -0.2620    0.1720   -0.2380 C   0  0  0  0  0  0  0  0  0  0  0  0
   -1.3580    0.9220    0.3390 C   0  0  0  0  0  0  0  0  0  0  0  0
   -2.6020    0.4110    0.2600 C   0  0  0  0  0  0  0  0  0  0  0  0
   -3.8020    0.9870    0.7600 N   0  0  0  0  0  0  0  0  0  0  0  0
   -4.8560    0.1090    0.4520 C   0  0  0  0  0  0  0  0  0  0  0  0
   -6.0790    0.3580    0.5260 O   0  0  0  0  0  0  0  0  0  0  0  0
   -4.2600   -1.1680    0.0230 C   0  0  1  0  0  0  0  0  0  0  0  0
   -4.9830   -1.7870   -1.1530 C   0  0  0  0  0  0  0  0  0  0  0  0
   -2.9450   -0.7930   -0.3370 O   0  0  0  0  0  0  0  0  0  0  0  0
    1.4140    1.8870    0.3940 C   0  0  0  0  0  0  0  0  0  0  0  0
    2.0470    2.6730   -0.6590 N   0  0  0  0  0  0  0  0  0  0  0  0
  1  2  1  0
  2  3  1  0
  3  4  2  0
  3  5  1  0
  5  6  1  0
  6  7  2  3
  6 16  1  0
  7  8  1  0
  8  9  2  3
  9 10  1  0
  9 15  1  0
 10 11  1  0
 11 12  2  0
 11 13  1  0
 13 14  1  6
 13 15  1  0
 16 17  1  0
M  CHG  1  17   1
M  END
