
     RDKit          3D

 17 17  0  0  0  0  0  0  0  0999 V2000
    3.6030    1.6870    0.1160 C   0  0  0  0  0  0  0  0  0  0  0  0
    3.3070    1.0970   -1.2130 C   0  0  0  0  0  0  0  0  0  0  0  0
    2.2260    0.3320   -1.4300 C   0  0  0  0  0  0  0  0  0  0  0  0
    2.0910   -0.1520   -2.7500 N   0  0  0  0  0  0  0  0  0  0  0  0
    1.3010    0.0490   -0.3440 C   0  0  0  0  0  0  0  0  0  0  0  0
    0.2180   -0.6590   -0.3760 C   0  0  0  0  0  0  0  0  0  0  0  0
   -0.2450   -1.3030   -1.5750 C   0  0  0  0  0  0  0  0  0  0  0  0
   -1.1030   -2.3440   -1.5240 C   0  0  0  0  0  0  0  0  0  0  0  0
   -1.5790   -2.8370   -0.2440 C   0  0  0  0  0  0  0  0  0  0  0  0
   -2.3800   -3.8110   -0.1930 O   0  0  0  0  0  0  0  0  0  0  0  0
   -1.1180   -2.1920    0.9350 N   0  0  0  0  0  0  0  0  0  0  0  0
   -0.5900   -0.8430    0.8680 C   0  0  2  0  0  0  0  0  0  0  0  0
   -1.6740    0.0790    0.9640 N   0  0  0  0  0  0  0  0  0  0  0  0
   -1.7970    0.9960    2.0430 C   0  0  0  0  0  0  0  0  0  0  0  0
   -0.9090    0.9690    2.9220 O   0  0  0  0  0  0  0  0  0  0  0  0
   -2.9530    1.9600    2.1210 C   0  0  0  0  0  0  0  0  0  0  0  0
   -3.7810    1.7690    1.0180 O   0  0  0  0  0  0  0  0  0  0  0  0
  1  2  1  0
  2  3  2  3
  3  4  1  0
  3  5  1  0
  5  6  2  3
  6  7  1  0
  6 12  1  0
  7  8  2  0
  8  9  1  0
  9 10  2  0
  9 11  1  0
 11 12  1  0
 12 13  1  6
 13 14  1  0
 14 15  2  0
 14 16  1  0
 16 17  1  0
M  END
