
     RDKit          3D

 17 17  0  0  0  0  0  0  0  0999 V2000
   -3.6190    2.5440   -0.9420 N   0  0  0  0  0  0  0  0  0  0  0  0
   -2.9610    1.4790   -0.2180 C   0  0  0  0  0  0  0  0  0  0  0  0
   -3.4490    1.1340    0.8690 O   0  0  0  0  0  0  0  0  0  0  0  0
   -1.7610    0.8620   -0.7980 C   0  0  0  0  0  0  0  0  0  0  0  0
   -1.1970   -0.3070   -0.0270 C   0  0  2  0  0  0  0  0  0  0  0  0
   -2.2030   -1.3950    0.0370 C   0  0  0  0  0  0  0  0  0  0  0  0
   -1.7610   -2.5690    0.7540 N   0  0  0  0  0  0  0  0  0  0  0  0
   -0.9140    0.2340    1.3840 C   0  0  0  0  0  0  0  0  0  0  0  0
    0.2100   -0.3780    2.0120 N   0  0  0  0  0  0  0  0  0  0  0  0
    1.4550    0.0880    1.4220 C   0  0  0  0  0  0  0  0  0  0  0  0
    1.3650   -0.2680   -0.0470 C   0  0  0  0  0  0  0  0  0  0  0  0
    2.4560   -0.1360   -0.7800 C   0  0  0  0  0  0  0  0  0  0  0  0
    3.7040    0.3330   -0.2050 C   0  0  0  0  0  0  0  0  0  0  0  0
    4.7960    0.4680   -0.9230 C   0  0  0  0  0  0  0  0  0  0  0  0
    5.9820    0.9100   -0.3960 O   0  0  0  0  0  0  0  0  0  0  0  0
    0.1020   -0.7350   -0.5880 C   0  0  0  0  0  0  0  0  0  0  0  0
    0.1170   -1.5200   -1.5540 O   0  0  0  0  0  0  0  0  0  0  0  0
  1  2  1  0
  2  3  2  0
  2  4  1  0
  5  4  1  6
  5  6  1  0
  5  8  1  0
  5 16  1  0
  6  7  1  0
  8  9  1  0
  9 10  1  0
 10 11  1  0
 11 12  2  3
 11 16  1  0
 12 13  1  0
 13 14  2  3
 14 15  1  0
 16 17  2  0
M  CHG  1   7   1
M  END
