
     RDKit          3D

 17 17  0  0  0  0  0  0  0  0999 V2000
    3.6930   -2.8410   -0.2300 C   0  0  0  0  0  0  0  0  0  0  0  0
    3.2480   -1.6140   -0.0530 C   0  0  0  0  0  0  0  0  0  0  0  0
    4.0200   -0.3560   -0.1000 C   0  0  0  0  0  0  0  0  0  0  0  0
    3.0440    0.7110    0.1620 C   0  0  0  0  0  0  0  0  0  0  0  0
    1.8350    0.1470    0.3460 C   0  0  0  0  0  0  0  0  0  0  0  0
    0.6490    0.9440    0.6270 C   0  0  0  0  0  0  0  0  0  0  0  0
   -0.5230    0.4110    0.8110 C   0  0  0  0  0  0  0  0  0  0  0  0
   -1.6270    1.3180    1.0800 N   0  0  0  0  0  0  0  0  0  0  0  0
   -1.8170    2.3450    0.3560 C   0  0  0  0  0  0  0  0  0  0  0  0
   -2.9150    3.2230    0.6470 N   0  0  0  0  0  0  0  0  0  0  0  0
   -0.9890    2.6740   -0.7490 N   0  0  0  0  0  0  0  0  0  0  0  0
   -0.8280   -1.0220    0.7820 C   0  0  1  0  0  0  0  0  0  0  0  0
   -1.7940   -1.3260    1.7640 O   0  0  0  0  0  0  0  0  0  0  0  0
   -1.1930   -1.5000   -0.5690 C   0  0  0  0  0  0  0  0  0  0  0  0
   -2.3830   -0.8820   -1.2110 C   0  0  0  0  0  0  0  0  0  0  0  0
   -2.5180   -1.5180   -2.4740 O   0  0  0  0  0  0  0  0  0  0  0  0
    1.9530   -1.2210    0.2200 O   0  0  0  0  0  0  0  0  0  0  0  0
  1  2  2  0
  2  3  1  0
  2 17  1  0
  3  4  1  0
  4  5  2  0
  5  6  1  0
  5 17  1  0
  6  7  2  3
  7  8  1  0
  7 12  1  0
  8  9  2  3
  9 10  1  0
  9 11  1  0
 12 13  1  1
 12 14  1  0
 14 15  1  0
 15 16  1  0
M  CHG  1   8   1
M  END
