
     RDKit          3D

 17 17  0  0  0  0  0  0  0  0999 V2000
   -2.5940   -1.1340   -1.6020 C   0  0  0  0  0  0  0  0  0  0  0  0
   -3.5930   -0.5130   -1.0210 C   0  0  0  0  0  0  0  0  0  0  0  0
   -3.4350    0.5300   -0.0270 C   0  0  0  0  0  0  0  0  0  0  0  0
   -4.4730    1.1480    0.5500 C   0  0  0  0  0  0  0  0  0  0  0  0
   -5.9030    0.8790    0.2790 C   0  0  0  0  0  0  0  0  0  0  0  0
   -4.0120    2.0960    1.4570 O   0  0  0  0  0  0  0  0  0  0  0  0
   -2.7250    1.6150    1.8920 C   0  0  0  0  0  0  0  0  0  0  0  0
   -2.2250    1.1240    0.5410 C   0  0  1  0  0  0  0  0  0  0  0  0
   -1.0890    0.2710    0.6620 N   0  0  0  0  0  0  0  0  0  0  0  0
    0.2360    0.5920    0.2320 C   0  0  0  0  0  0  0  0  0  0  0  0
    0.4110    1.7040   -0.2890 O   0  0  0  0  0  0  0  0  0  0  0  0
    1.3220   -0.3120    0.3860 N   0  0  0  0  0  0  0  0  0  0  0  0
    2.6150    0.1180   -0.0850 C   0  0  0  0  0  0  0  0  0  0  0  0
    3.6910   -0.9020    0.1220 C   0  0  1  0  0  0  0  0  0  0  0  0
    3.4560   -2.0980   -0.5220 O   0  0  0  0  0  0  0  0  0  0  0  0
    4.9760   -0.3250   -0.4480 C   0  0  0  0  0  0  0  0  0  0  0  0
    6.0790   -1.2390   -0.2220 N   0  0  0  0  0  0  0  0  0  0  0  0
  1  2  2  0
  2  3  1  0
  3  4  2  0
  3  8  1  0
  4  5  1  0
  4  6  1  0
  6  7  1  0
  7  8  1  0
  8  9  1  1
  9 10  1  0
 10 11  2  0
 10 12  1  0
 12 13  1  0
 13 14  1  0
 14 15  1  6
 14 16  1  0
 16 17  1  0
M  CHG  1  17   1
M  END
