
     RDKit          3D

 17 17  0  0  0  0  0  0  0  0999 V2000
    6.1250    1.0830    0.0900 C   0  0  0  0  0  0  0  0  0  0  0  0
    4.6640    1.2490   -0.2070 C   0  0  0  0  0  0  0  0  0  0  0  0
    3.9760   -0.0770    0.0480 C   0  0  1  0  0  0  0  0  0  0  0  0
    4.1530   -0.4740    1.4240 N   0  0  0  0  0  0  0  0  0  0  0  0
    2.5330    0.0220   -0.2940 C   0  0  0  0  0  0  0  0  0  0  0  0
    2.1200    0.2740   -1.4320 O   0  0  0  0  0  0  0  0  0  0  0  0
    1.5940   -0.1630    0.6560 N   0  0  0  0  0  0  0  0  0  0  0  0
    0.2300   -0.1540    0.7720 C   0  0  0  0  0  0  0  0  0  0  0  0
   -0.0330   -0.4040    2.0300 O   0  0  0  0  0  0  0  0  0  0  0  0
   -0.9170    0.0190    0.0500 N   0  0  0  0  0  0  0  0  0  0  0  0
   -2.2040   -0.0960    0.7510 C   0  0  0  0  0  0  0  0  0  0  0  0
   -3.3020    0.0830   -0.2210 C   0  0  1  0  0  0  0  0  0  0  0  0
   -3.3190    1.3050   -0.8510 O   0  0  0  0  0  0  0  0  0  0  0  0
   -3.1910   -0.9560   -1.3670 C   0  0  0  0  0  0  0  0  0  0  0  0
   -4.5450   -0.7350   -2.0200 C   0  0  0  0  0  0  0  0  0  0  0  0
   -5.4700   -0.5060   -0.8580 C   0  0  0  0  0  0  0  0  0  0  0  0
   -4.6340   -0.2890    0.3660 C   0  0  0  0  0  0  0  0  0  0  0  0
  1  2  1  0
  2  3  1  0
  3  4  1  1
  3  5  1  0
  5  6  2  0
  5  7  1  0
  7  8  1  0
  8  9  2  0
  8 10  1  0
 10 11  1  0
 11 12  1  0
 12 13  1  6
 12 14  1  0
 12 17  1  0
 14 15  1  0
 15 16  1  0
 16 17  1  0
M  CHG  1   4   1
M  END
