
     RDKit          3D

 17 17  0  0  0  0  0  0  0  0999 V2000
   -0.9300   -0.8940    2.1600 C   0  0  0  0  0  0  0  0  0  0  0  0
   -1.4280   -0.9510    0.7400 C   0  0  2  0  0  0  0  0  0  0  0  0
   -2.6620   -1.9520    0.8750 C   0  0  0  0  0  0  0  0  0  0  0  0
   -0.5140   -1.6640   -0.1660 C   0  0  0  0  0  0  0  0  0  0  0  0
    0.8450   -1.3220   -0.2680 N   0  0  0  0  0  0  0  0  0  0  0  0
    1.5370   -0.1630   -0.6190 C   0  0  0  0  0  0  0  0  0  0  0  0
    0.9330    0.8600   -0.9280 O   0  0  0  0  0  0  0  0  0  0  0  0
    2.9600   -0.1160   -0.6340 O   0  0  0  0  0  0  0  0  0  0  0  0
    3.5890    1.1220   -1.0090 C   0  0  0  0  0  0  0  0  0  0  0  0
    5.0460    1.0000   -0.9730 C   0  0  0  0  0  0  0  0  0  0  0  0
    5.6270   -0.2270   -0.6020 N   0  0  0  0  0  0  0  0  0  0  0  0
    5.7370    2.0160   -1.2810 O   0  0  0  0  0  0  0  0  0  0  0  0
   -2.0520    0.3030    0.3260 C   0  0  0  0  0  0  0  0  0  0  0  0
   -2.0650    0.9200   -0.8370 C   0  0  0  0  0  0  0  0  0  0  0  0
   -2.8010    2.1160   -0.7980 N   0  0  0  0  0  0  0  0  0  0  0  0
   -3.3080    2.1920    0.5000 C   0  0  0  0  0  0  0  0  0  0  0  0
   -2.8930    1.1650    1.1880 C   0  0  0  0  0  0  0  0  0  0  0  0
  2  1  1  1
  2  3  1  0
  2  4  1  0
  2 13  1  0
  4  5  1  0
  5  6  1  0
  6  7  2  0
  6  8  1  0
  8  9  1  0
  9 10  1  0
 10 11  1  0
 10 12  2  0
 13 14  2  0
 13 17  1  0
 14 15  1  0
 15 16  1  0
 16 17  2  0
M  CHG  1  15   1
M  END
