
     RDKit          3D

 17 17  0  0  0  0  0  0  0  0999 V2000
    4.0720   -1.9140   -0.8170 C   0  0  0  0  0  0  0  0  0  0  0  0
    3.5720   -0.9000    0.1890 C   0  0  2  0  0  0  0  0  0  0  0  0
    2.1350   -0.8740    0.1410 N   0  0  0  0  0  0  0  0  0  0  0  0
    1.5150    0.0780    0.7690 C   0  0  0  0  0  0  0  0  0  0  0  0
    0.0680    0.1580    0.7580 C   0  0  0  0  0  0  0  0  0  0  0  0
   -0.6550   -0.8020    0.0620 C   0  0  0  0  0  0  0  0  0  0  0  0
   -2.0110   -0.7880    0.0100 C   0  0  0  0  0  0  0  0  0  0  0  0
   -2.7150    0.2180    0.6700 C   0  0  0  0  0  0  0  0  0  0  0  0
   -4.1680    0.2260    0.6090 C   0  0  0  0  0  0  0  0  0  0  0  0
   -4.8180   -0.8010   -0.1290 N   0  0  0  0  0  0  0  0  0  0  0  0
   -4.8780    1.1110    1.1860 N   0  0  0  0  0  0  0  0  0  0  0  0
   -2.0100    1.1590    1.3520 C   0  0  0  0  0  0  0  0  0  0  0  0
   -0.6250    1.1340    1.3980 C   0  0  0  0  0  0  0  0  0  0  0  0
    0.0230    2.1150    2.1040 O   0  0  0  0  0  0  0  0  0  0  0  0
    4.0990    0.4220   -0.2130 C   0  0  0  0  0  0  0  0  0  0  0  0
    5.3650    0.5460   -0.2160 O   0  0  0  0  0  0  0  0  0  0  0  0
    3.3210    1.4990   -0.5730 O   0  0  0  0  0  0  0  0  0  0  0  0
  2  1  1  6
  2  3  1  0
  2 15  1  0
  3  4  2  3
  4  5  1  0
  5  6  2  0
  5 13  1  0
  6  7  1  0
  7  8  2  0
  8  9  1  0
  8 12  1  0
  9 10  1  0
  9 11  2  0
 12 13  2  0
 13 14  1  0
 15 16  2  0
 15 17  1  0
M  CHG  1  11   1
M  END
