
     RDKit          3D

 17 17  0  0  0  0  0  0  0  0999 V2000
   -3.2810    1.5050   -0.4670 C   0  0  0  0  0  0  0  0  0  0  0  0
   -1.8400    1.3270   -0.1800 C   0  0  0  0  0  0  0  0  0  0  0  0
   -1.4350   -0.0780    0.1930 C   0  0  2  0  0  0  0  0  0  0  0  0
    0.0320   -0.0020    0.4300 C   0  0  0  0  0  0  0  0  0  0  0  0
    0.4730   -0.3690    1.5760 O   0  0  0  0  0  0  0  0  0  0  0  0
    0.9400    0.4530   -0.5480 N   0  0  0  0  0  0  0  0  0  0  0  0
    2.3610    0.4800   -0.1890 C   0  0  0  0  0  0  0  0  0  0  0  0
    3.1600   -0.2410   -0.9100 C   0  0  0  0  0  0  0  0  0  0  0  0
    4.6020   -0.4070   -0.7870 C   0  0  0  0  0  0  0  0  0  0  0  0
    4.8670   -1.7680   -0.5560 O   0  0  0  0  0  0  0  0  0  0  0  0
    2.7390    1.2840    0.9150 C   0  0  0  0  0  0  0  0  0  0  0  0
    4.0280    1.4570    1.4350 N   0  0  0  0  0  0  0  0  0  0  0  0
    1.8190    1.9450    1.5350 O   0  0  0  0  0  0  0  0  0  0  0  0
   -1.8060   -1.0380   -0.8930 C   0  0  0  0  0  0  0  0  0  0  0  0
   -3.1800   -1.5730   -0.4880 C   0  0  0  0  0  0  0  0  0  0  0  0
   -3.1700   -1.4090    1.0030 C   0  0  0  0  0  0  0  0  0  0  0  0
   -2.0740   -0.5720    1.3610 N   0  0  0  0  0  0  0  0  0  0  0  0
  1  2  1  0
  3  2  1  6
  3  4  1  0
  3 14  1  0
  3 17  1  0
  4  5  2  0
  4  6  1  0
  6  7  1  0
  7  8  2  3
  7 11  1  0
  8  9  1  0
  9 10  1  0
 11 12  1  0
 11 13  2  0
 14 15  1  0
 15 16  1  0
 16 17  1  0
M  CHG  1  17   1
M  END
