
     RDKit          3D

 17 17  0  0  0  0  0  0  0  0999 V2000
    1.3220   -1.2480   -0.3500 O   0  0  0  0  0  0  0  0  0  0  0  0
    0.9610   -0.6190    0.6860 C   0  0  0  0  0  0  0  0  0  0  0  0
   -0.4370   -0.2350    0.7950 C   0  0  0  0  0  0  0  0  0  0  0  0
   -1.3150   -0.5200   -0.1390 C   0  0  0  0  0  0  0  0  0  0  0  0
   -2.7280   -0.1680   -0.0970 C   0  0  0  0  0  0  0  0  0  0  0  0
   -3.5620   -0.4860   -1.0730 C   0  0  0  0  0  0  0  0  0  0  0  0
   -4.9890   -0.1670   -1.1010 C   0  0  0  0  0  0  0  0  0  0  0  0
   -5.5240    0.5370    0.0010 N   0  0  0  0  0  0  0  0  0  0  0  0
   -4.6110    0.8530    1.0070 C   0  0  0  0  0  0  0  0  0  0  0  0
   -3.3450    0.5580    1.0080 C   0  0  0  0  0  0  0  0  0  0  0  0
    1.8820   -0.2930    1.7150 N   0  0  0  0  0  0  0  0  0  0  0  0
    3.2580   -0.7050    1.5420 C   0  0  0  0  0  0  0  0  0  0  0  0
    3.8100   -0.0850    0.3320 C   0  0  0  0  0  0  0  0  0  0  0  0
    3.1050    0.6800   -0.3810 O   0  0  0  0  0  0  0  0  0  0  0  0
    5.1560   -0.3210   -0.0850 N   0  0  0  0  0  0  0  0  0  0  0  0
    5.6460    0.3060   -1.2720 C   0  0  0  0  0  0  0  0  0  0  0  0
    5.5980    1.6950   -1.2000 O   0  0  0  0  0  0  0  0  0  0  0  0
  1  2  2  0
  2  3  1  0
  2 11  1  0
  3  4  2  3
  4  5  1  0
  5  6  2  0
  5 10  1  0
  6  7  1  0
  7  8  1  0
  8  9  1  0
  9 10  2  0
 11 12  1  0
 12 13  1  0
 13 14  2  0
 13 15  1  0
 15 16  1  0
 16 17  1  0
M  CHG  1   8   1
M  END
