
     RDKit          3D

 17 17  0  0  0  0  0  0  0  0999 V2000
    4.6950   -2.0590   -0.1940 C   0  0  0  0  0  0  0  0  0  0  0  0
    3.4350   -1.6960    0.1160 C   0  0  0  0  0  0  0  0  0  0  0  0
    2.8670   -0.4930   -0.4390 C   0  0  0  0  0  0  0  0  0  0  0  0
    1.6510   -0.0140   -0.2240 C   0  0  0  0  0  0  0  0  0  0  0  0
    1.3270    1.2670   -0.9390 C   0  0  0  0  0  0  0  0  0  0  0  0
    0.9530    2.2960   -0.0250 N   0  0  0  0  0  0  0  0  0  0  0  0
    0.7160   -0.6990    0.6900 C   0  0  0  0  0  0  0  0  0  0  0  0
   -0.5640   -1.1650    0.0970 C   0  0  2  0  0  0  0  0  0  0  0  0
   -0.4130   -2.0230   -0.9820 O   0  0  0  0  0  0  0  0  0  0  0  0
   -1.5990   -0.1320   -0.0120 C   0  0  1  0  0  0  0  0  0  0  0  0
   -2.8940   -0.6400   -0.6420 C   0  0  0  0  0  0  0  0  0  0  0  0
   -3.7820    0.5780   -0.7010 C   0  0  0  0  0  0  0  0  0  0  0  0
   -4.4730    0.8050   -1.7260 O   0  0  0  0  0  0  0  0  0  0  0  0
   -3.8440    1.4790    0.4030 N   0  0  0  0  0  0  0  0  0  0  0  0
   -2.9510    1.3240    1.4690 N   0  0  0  0  0  0  0  0  0  0  0  0
   -2.0140    0.2560    1.3900 C   0  0  0  0  0  0  0  0  0  0  0  0
   -1.5650   -0.3220    2.4120 O   0  0  0  0  0  0  0  0  0  0  0  0
  1  2  2  0
  2  3  1  0
  3  4  2  3
  4  5  1  0
  4  7  1  0
  5  6  1  0
  7  8  1  0
  8  9  1  6
  8 10  1  0
 10 11  1  6
 10 16  1  0
 11 12  1  0
 12 13  2  0
 12 14  1  0
 14 15  1  0
 15 16  1  0
 16 17  2  0
M  CHG  1   6   1
M  END
