
     RDKit          3D

 17 17  0  0  0  0  0  0  0  0999 V2000
   -4.0960   -2.4870   -0.2370 C   0  0  0  0  0  0  0  0  0  0  0  0
   -3.1180   -1.6050   -0.1600 C   0  0  0  0  0  0  0  0  0  0  0  0
   -1.8480   -1.8200    0.1790 N   0  0  0  0  0  0  0  0  0  0  0  0
   -1.1390   -0.6750    0.1470 C   0  0  0  0  0  0  0  0  0  0  0  0
    0.3120   -0.5780    0.4740 C   0  0  0  0  0  0  0  0  0  0  0  0
    0.8910   -1.6800    0.8040 O   0  0  0  0  0  0  0  0  0  0  0  0
    1.0640    0.5050    0.4630 O   0  0  0  0  0  0  0  0  0  0  0  0
    2.3530    0.8170    0.7000 C   0  0  0  0  0  0  0  0  0  0  0  0
    3.4580    0.3450   -0.1610 C   0  0  1  0  0  0  0  0  0  0  0  0
    4.7540    0.8960    0.4780 C   0  0  0  0  0  0  0  0  0  0  0  0
    3.5940   -1.0680   -0.2040 N   0  0  0  0  0  0  0  0  0  0  0  0
   -2.0230    0.3090   -0.2350 C   0  0  0  0  0  0  0  0  0  0  0  0
   -1.6890    1.7060   -0.4000 C   0  0  0  0  0  0  0  0  0  0  0  0
   -2.6850    2.6360   -0.7990 N   0  0  0  0  0  0  0  0  0  0  0  0
   -0.5490    2.2120   -0.2190 O   0  0  0  0  0  0  0  0  0  0  0  0
   -3.2810   -0.2380   -0.4380 C   0  0  0  0  0  0  0  0  0  0  0  0
   -4.4190    0.3160   -0.8050 C   0  0  0  0  0  0  0  0  0  0  0  0
  1  2  2  0
  2  3  1  0
  2 16  1  0
  3  4  1  0
  4  5  1  0
  4 12  2  0
  5  6  2  0
  5  7  1  0
  7  8  1  0
  8  9  1  0
  9 10  1  1
  9 11  1  0
 12 13  1  0
 12 16  1  0
 13 14  1  0
 13 15  2  0
 16 17  2  0
M  CHG  1  11   1
M  END
