
     RDKit          3D

 17 17  0  0  0  0  0  0  0  0999 V2000
   -3.1040   -1.3040   -0.1740 C   0  0  0  0  0  0  0  0  0  0  0  0
   -2.7100    0.1010    0.1490 C   0  0  1  0  0  0  0  0  0  0  0  0
   -3.0570    0.3590    1.6070 C   0  0  0  0  0  0  0  0  0  0  0  0
   -1.3100    0.3670   -0.1140 N   0  0  0  0  0  0  0  0  0  0  0  0
   -0.2670   -0.3400    0.5420 C   0  0  0  0  0  0  0  0  0  0  0  0
   -0.5860   -1.2170    1.3700 O   0  0  0  0  0  0  0  0  0  0  0  0
    1.1430   -0.0050    0.2110 C   0  0  0  0  0  0  0  0  0  0  0  0
    2.0530   -0.7830    0.9340 O   0  0  0  0  0  0  0  0  0  0  0  0
    3.4070   -0.5660    0.7170 C   0  0  0  0  0  0  0  0  0  0  0  0
    4.1430    0.2160    1.4780 C   0  0  0  0  0  0  0  0  0  0  0  0
    5.5190    0.2060    0.9510 C   0  0  0  0  0  0  0  0  0  0  0  0
    5.4610   -0.6920   -0.2170 C   0  0  0  0  0  0  0  0  0  0  0  0
    4.2240   -1.1350   -0.3410 C   0  0  0  0  0  0  0  0  0  0  0  0
    3.7930   -2.0170   -1.3490 O   0  0  0  0  0  0  0  0  0  0  0  0
   -3.5140    1.0280   -0.6970 C   0  0  0  0  0  0  0  0  0  0  0  0
   -3.3460    2.4470   -0.5760 N   0  0  0  0  0  0  0  0  0  0  0  0
   -4.3700    0.5750   -1.5480 N   0  0  0  0  0  0  0  0  0  0  0  0
  2  1  1  6
  2  3  1  0
  2  4  1  0
  2 15  1  0
  4  5  1  0
  5  6  2  0
  5  7  1  0
  7  8  1  0
  8  9  1  0
  9 10  2  0
  9 13  1  0
 10 11  1  0
 11 12  1  0
 12 13  2  0
 13 14  1  0
 15 16  1  0
 15 17  2  0
M  CHG  1  17   1
M  END
