
     RDKit          3D

 17 17  0  0  0  0  0  0  0  0999 V2000
    3.8120    1.7690   -0.2620 N   0  0  0  0  0  0  0  0  0  0  0  0
    4.5790    1.1150    0.7300 C   0  0  0  0  0  0  0  0  0  0  0  0
    5.8290    1.2470    0.6720 O   0  0  0  0  0  0  0  0  0  0  0  0
    4.0280    0.2960    1.8190 C   0  0  0  0  0  0  0  0  0  0  0  0
    2.6410    0.1970    1.8160 O   0  0  0  0  0  0  0  0  0  0  0  0
    1.9400   -0.3340    0.7610 C   0  0  0  0  0  0  0  0  0  0  0  0
    2.5780   -0.7470   -0.2420 O   0  0  0  0  0  0  0  0  0  0  0  0
    0.5270   -0.4570    0.7090 N   0  0  0  0  0  0  0  0  0  0  0  0
   -0.1800   -1.0180   -0.4100 C   0  0  0  0  0  0  0  0  0  0  0  0
   -1.6540   -1.0010   -0.1450 C   0  0  2  0  0  0  0  0  0  0  0  0
   -2.4630   -1.5730   -1.2720 C   0  0  0  0  0  0  0  0  0  0  0  0
   -2.3120   -0.8960   -2.5200 N   0  0  0  0  0  0  0  0  0  0  0  0
   -2.1560    0.3240    0.2570 C   0  0  0  0  0  0  0  0  0  0  0  0
   -2.6150    0.6890    1.4410 C   0  0  0  0  0  0  0  0  0  0  0  0
   -3.0110    2.0920    1.4130 C   0  0  0  0  0  0  0  0  0  0  0  0
   -2.9040    2.4270    0.1400 C   0  0  0  0  0  0  0  0  0  0  0  0
   -2.2510    1.5290   -0.5810 C   0  0  0  0  0  0  0  0  0  0  0  0
  1  2  1  0
  2  3  2  0
  2  4  1  0
  4  5  1  0
  5  6  1  0
  6  7  2  0
  6  8  1  0
  8  9  1  0
 10  9  1  6
 10 11  1  0
 10 13  1  0
 11 12  1  0
 13 14  2  0
 13 17  1  0
 14 15  1  0
 15 16  2  0
 16 17  2  0
M  CHG  1  12   1
M  END
