
     RDKit          3D

 20 20  0  0  0  0  0  0  0  0999 V2000
    4.7510   -0.0410    2.0370 C   0  0  0  0  0  0  0  0  0  0  0  0
    4.2260   -0.4270    0.7700 O   0  0  0  0  0  0  0  0  0  0  0  0
    2.9070   -0.1430    0.4080 C   0  0  0  0  0  0  0  0  0  0  0  0
    2.2000    0.4670    1.2450 O   0  0  0  0  0  0  0  0  0  0  0  0
    2.3720   -0.5190   -0.8450 N   0  0  0  0  0  0  0  0  0  0  0  0
    3.1980   -1.2180   -1.7920 C   0  0  0  0  0  0  0  0  0  0  0  0
    1.0250   -0.1920   -1.1310 C   0  0  0  0  0  0  0  0  0  0  0  0
    0.5540   -0.5260   -2.2420 O   0  0  0  0  0  0  0  0  0  0  0  0
    0.2260    0.4820   -0.2200 O   0  0  0  0  0  0  0  0  0  0  0  0
   -1.1080    0.7820   -0.5560 C   0  0  0  0  0  0  0  0  0  0  0  0
   -1.5770    0.4500   -1.6590 O   0  0  0  0  0  0  0  0  0  0  0  0
   -1.8460    1.4380    0.3600 O   0  0  0  0  0  0  0  0  0  0  0  0
   -3.1640    1.8370    0.2940 C   0  0  0  0  0  0  0  0  0  0  0  0
   -4.1530    0.7380    0.2660 C   0  0  2  0  0  0  0  0  0  0  0  0
   -4.0290   -0.0690    1.4220 O   0  0  0  0  0  0  0  0  0  0  0  0
   -3.5000   -1.2880    1.0550 C   0  0  0  0  0  0  0  0  0  0  0  0
   -3.0380   -2.1750    1.8580 O   0  0  0  0  0  0  0  0  0  0  0  0
   -3.5580   -1.3830   -0.3300 O   0  0  0  0  0  0  0  0  0  0  0  0
   -4.1240   -0.2180   -0.8290 C   0  0  0  0  0  0  0  0  0  0  0  0
   -4.5100   -0.1220   -2.0390 O   0  0  0  0  0  0  0  0  0  0  0  0
  1  2  1  0
  2  3  1  0
  3  4  2  0
  3  5  1  0
  5  6  1  0
  5  7  1  0
  7  8  2  0
  7  9  1  0
  9 10  1  0
 10 11  2  0
 10 12  1  0
 12 13  1  0
 14 13  1  6
 14 15  1  0
 14 19  1  0
 15 16  1  0
 16 17  2  0
 16 18  1  0
 18 19  1  0
 19 20  2  0
M  END
