
     RDKit          3D

 25 26  0  0  0  0  0  0  0  0999 V2000
   -0.1000    1.1500   -0.5850 O   0  0  0  0  0  0  0  0  0  0  0  0
   -0.0390   -0.0690   -0.6620 C   0  0  0  0  0  0  0  0  0  0  0  0
    1.2240   -0.6080   -1.1890 N   0  0  0  0  0  0  0  0  0  0  0  0
    2.0140    0.4920   -1.7510 C   0  0  0  0  0  0  0  0  0  0  0  0
    3.4270    0.2400   -2.1230 C   0  0  0  0  0  0  0  0  0  0  0  0
    4.1470    0.2880   -0.8600 C   0  0  0  0  0  0  0  0  0  0  0  0
    5.6850    0.2080   -0.9970 C   0  0  0  0  0  0  0  0  0  0  0  0
    6.0040    0.4000    0.3650 O   0  0  0  0  0  0  0  0  0  0  0  0
    6.8310   -0.6500    0.7050 O   0  0  0  0  0  0  0  0  0  0  0  0
    7.0610   -0.2550    2.0360 O   0  0  0  0  0  0  0  0  0  0  0  0
    8.1360    0.5870    1.7850 O   0  0  0  0  0  0  0  0  0  0  0  0
   -1.0250   -0.9030   -0.3120 O   0  0  0  0  0  0  0  0  0  0  0  0
   -2.3430   -0.5310    0.2180 C   0  0  2  0  0  0  0  0  0  0  0  0
   -2.4020   -0.1570    1.5490 O   0  0  0  0  0  0  0  0  0  0  0  0
   -3.7310   -0.0310    2.0640 C   0  0  0  0  0  0  0  0  0  0  0  0
   -4.4060   -1.0470    2.6110 C   0  0  0  0  0  0  0  0  0  0  0  0
   -5.7120   -0.4800    2.9960 N   0  0  0  0  0  0  0  0  0  0  0  0
   -5.8380    0.6520    2.3520 O   0  0  0  0  0  0  0  0  0  0  0  0
   -4.5430    1.1500    2.1000 C   0  0  0  0  0  0  0  0  0  0  0  0
   -3.3240   -1.5050   -0.2280 C   0  0  0  0  0  0  0  0  0  0  0  0
   -4.6240   -1.0160   -0.4690 O   0  0  0  0  0  0  0  0  0  0  0  0
   -4.7730    0.1230   -1.2880 C   0  0  0  0  0  0  0  0  0  0  0  0
   -5.8120    0.3800   -1.9510 O   0  0  0  0  0  0  0  0  0  0  0  0
   -3.6530    0.9190   -1.3320 O   0  0  0  0  0  0  0  0  0  0  0  0
   -2.5190    0.8580   -0.5860 C   0  0  0  0  0  0  0  0  0  0  0  0
  1  2  2  0
  2  3  1  0
  2 12  1  0
  3  4  1  0
  4  5  1  0
  5  6  1  0
  6  7  1  0
  7  8  1  0
  8  9  1  0
  9 10  1  0
 10 11  1  0
 13 12  1  1
 13 14  1  0
 13 20  1  0
 13 25  1  0
 14 15  1  0
 15 16  2  0
 15 19  1  0
 16 17  1  0
 17 18  1  0
 18 19  1  0
 20 21  1  0
 21 22  1  0
 22 23  2  0
 22 24  1  0
 24 25  1  0
M  END
