
     RDKit          3D

 25 26  0  0  0  0  0  0  0  0999 V2000
   -0.1560    0.6420    2.2660 O   0  0  0  0  0  0  0  0  0  0  0  0
   -0.3580   -0.2250    1.3900 C   0  0  0  0  0  0  0  0  0  0  0  0
   -1.4120   -1.0670    1.5110 O   0  0  0  0  0  0  0  0  0  0  0  0
   -1.6670   -2.1660    0.8440 O   0  0  0  0  0  0  0  0  0  0  0  0
   -2.3060   -1.9920   -0.3400 C   0  0  1  0  0  0  0  0  0  0  0  0
   -2.7880   -3.2720   -0.9840 C   0  0  0  0  0  0  0  0  0  0  0  0
   -3.6960   -2.6460   -1.9330 O   0  0  0  0  0  0  0  0  0  0  0  0
   -4.2830   -1.6320   -1.2520 N   0  0  0  0  0  0  0  0  0  0  0  0
   -3.5380   -1.1700   -0.2800 C   0  0  0  0  0  0  0  0  0  0  0  0
   -3.6330   -0.2020    0.6980 N   0  0  0  0  0  0  0  0  0  0  0  0
   -3.4610    1.0260    0.8310 C   0  0  0  0  0  0  0  0  0  0  0  0
   -3.7490    1.4440    2.1780 O   0  0  0  0  0  0  0  0  0  0  0  0
   -3.0450    2.0520   -0.0820 C   0  0  0  0  0  0  0  0  0  0  0  0
   -1.8450    2.3180   -0.5900 C   0  0  0  0  0  0  0  0  0  0  0  0
   -1.8720    3.4550   -1.4840 O   0  0  0  0  0  0  0  0  0  0  0  0
   -1.8210    4.6530   -0.8680 O   0  0  0  0  0  0  0  0  0  0  0  0
   -0.6840    1.6860   -0.3740 O   0  0  0  0  0  0  0  0  0  0  0  0
    0.1540    0.7220   -0.8340 C   0  0  0  0  0  0  0  0  0  0  0  0
    0.5910   -0.2790    0.2450 C   0  0  1  0  0  0  0  0  0  0  0  0
    1.9920   -0.0620    0.6850 C   0  0  0  0  0  0  0  0  0  0  0  0
    3.0020   -0.1360   -0.4110 C   0  0  0  0  0  0  0  0  0  0  0  0
    4.4070    0.0910    0.1820 C   0  0  0  0  0  0  0  0  0  0  0  0
    5.2880    0.0070   -0.8940 O   0  0  0  0  0  0  0  0  0  0  0  0
    6.5330    0.1820   -0.5330 O   0  0  0  0  0  0  0  0  0  0  0  0
    7.0910   -0.8600   -0.0060 O   0  0  0  0  0  0  0  0  0  0  0  0
  1  2  2  0
  2  3  1  0
  2 19  1  0
  3  4  1  0
  4  5  1  0
  5  6  1  1
  5  9  1  0
  6  7  1  0
  7  8  1  0
  8  9  2  0
  9 10  1  0
 10 11  2  0
 11 12  1  0
 11 13  1  0
 13 14  2  0
 14 15  1  0
 14 17  1  0
 15 16  1  0
 17 18  1  0
 18 19  1  0
 19 20  1  1
 20 21  1  0
 21 22  1  0
 22 23  1  0
 23 24  1  0
 24 25  1  0
M  END
