
     RDKit          3D

 25 26  0  0  0  0  0  0  0  0999 V2000
    3.0510   -0.7070   -2.0210 O   0  0  0  0  0  0  0  0  0  0  0  0
    2.8880    0.1180   -1.0830 C   0  0  0  0  0  0  0  0  0  0  0  0
    3.1690    1.4380   -1.3220 O   0  0  0  0  0  0  0  0  0  0  0  0
    2.4870    2.5260   -0.8670 C   0  0  0  0  0  0  0  0  0  0  0  0
    1.1440    2.5700   -0.7810 C   0  0  0  0  0  0  0  0  0  0  0  0
    0.3430    1.4810   -1.1600 N   0  0  0  0  0  0  0  0  0  0  0  0
   -0.8780    1.7680   -0.9850 C   0  0  0  0  0  0  0  0  0  0  0  0
   -1.0030    3.2410   -0.9560 C   0  0  0  0  0  0  0  0  0  0  0  0
    0.2660    3.5680   -0.3510 O   0  0  0  0  0  0  0  0  0  0  0  0
   -1.7560    0.6890   -0.8700 O   0  0  0  0  0  0  0  0  0  0  0  0
   -1.4230   -0.4970   -0.1980 C   0  0  1  0  0  0  0  0  0  0  0  0
   -2.6570   -1.1720    0.2290 C   0  0  0  0  0  0  0  0  0  0  0  0
   -2.5890   -2.2510    0.8470 O   0  0  0  0  0  0  0  0  0  0  0  0
   -3.9130   -0.6020   -0.0590 N   0  0  0  0  0  0  0  0  0  0  0  0
   -5.1110   -1.2940    0.3770 C   0  0  0  0  0  0  0  0  0  0  0  0
   -6.2290   -0.5380   -0.0220 O   0  0  0  0  0  0  0  0  0  0  0  0
   -6.1640    0.6450    0.5310 O   0  0  0  0  0  0  0  0  0  0  0  0
   -0.6730   -1.4720   -1.1040 C   0  0  0  0  0  0  0  0  0  0  0  0
    0.6600   -1.1700   -1.1570 O   0  0  0  0  0  0  0  0  0  0  0  0
    1.4040   -1.5280   -0.0670 C   0  0  0  0  0  0  0  0  0  0  0  0
    2.3990   -0.4190    0.2140 C   0  0  1  0  0  0  0  0  0  0  0  0
    3.5230   -1.0360    1.0200 C   0  0  0  0  0  0  0  0  0  0  0  0
    4.5150   -0.0740    1.2950 O   0  0  0  0  0  0  0  0  0  0  0  0
    5.4890   -0.5900    1.9890 O   0  0  0  0  0  0  0  0  0  0  0  0
    6.4000   -1.1510    1.2290 O   0  0  0  0  0  0  0  0  0  0  0  0
  1  2  2  0
  2  3  1  0
  2 21  1  0
  3  4  1  0
  4  5  2  0
  5  6  1  0
  5  9  1  0
  6  7  2  0
  7  8  1  0
  7 10  1  0
  8  9  1  0
 10 11  1  0
 11 12  1  6
 11 18  1  0
 12 13  2  0
 12 14  1  0
 14 15  1  0
 15 16  1  0
 16 17  1  0
 18 19  1  0
 19 20  1  0
 20 21  1  0
 21 22  1  1
 22 23  1  0
 23 24  1  0
 24 25  1  0
M  END
