
     RDKit          3D

 20 21  0  0  0  0  0  0  0  0999 V2000
    1.2900   -1.6370    1.4620 C   0  0  0  0  0  0  0  0  0  0  0  0
    0.7590   -1.0710    0.1780 C   0  0  1  0  0  0  0  0  0  0  0  0
    1.8990   -0.7280   -0.6610 N   0  0  0  0  0  0  0  0  0  0  0  0
    2.8490    0.2090   -0.2140 C   0  0  0  0  0  0  0  0  0  0  0  0
    2.7430    0.7680    0.9010 O   0  0  0  0  0  0  0  0  0  0  0  0
    3.9660    0.5760   -0.9810 O   0  0  0  0  0  0  0  0  0  0  0  0
    4.8650    1.4680   -0.5510 O   0  0  0  0  0  0  0  0  0  0  0  0
    5.8980    0.7480   -0.1070 O   0  0  0  0  0  0  0  0  0  0  0  0
    6.9260    1.0810   -0.8590 O   0  0  0  0  0  0  0  0  0  0  0  0
    7.1990    2.3490   -0.5810 O   0  0  0  0  0  0  0  0  0  0  0  0
   -0.1810   -2.0050   -0.5300 C   0  0  0  0  0  0  0  0  0  0  0  0
   -1.4310   -1.5580   -0.1630 O   0  0  0  0  0  0  0  0  0  0  0  0
   -1.2450   -0.5570    0.7870 C   0  0  2  0  0  0  0  0  0  0  0  0
   -2.3350    0.4860    0.6530 C   0  0  2  0  0  0  0  0  0  0  0  0
   -3.6560   -0.2290    0.8820 C   0  0  0  0  0  0  0  0  0  0  0  0
   -4.7470    0.5700    0.6230 O   0  0  0  0  0  0  0  0  0  0  0  0
   -4.5220    1.5140   -0.3580 C   0  0  0  0  0  0  0  0  0  0  0  0
   -3.4580    1.0080   -1.2930 C   0  0  0  0  0  0  0  0  0  0  0  0
   -2.2480    1.0130   -0.6240 O   0  0  0  0  0  0  0  0  0  0  0  0
   -0.0200    0.0600    0.4520 O   0  0  0  0  0  0  0  0  0  0  0  0
  2  1  1  1
  2  3  1  0
  2 11  1  0
  2 20  1  0
  3  4  1  0
  4  5  2  0
  4  6  1  0
  6  7  1  0
  7  8  1  0
  8  9  1  0
  9 10  1  0
 11 12  1  0
 13 12  1  6
 13 14  1  0
 13 20  1  0
 14 15  1  6
 14 19  1  0
 15 16  1  0
 16 17  1  0
 17 18  1  0
 18 19  1  0
M  END
