
     RDKit          3D

 25 25  0  0  0  0  0  0  0  0999 V2000
    3.0930   -0.0820   -1.5350 C   0  0  0  0  0  0  0  0  0  0  0  0
    3.1580    0.8180   -0.3350 C   0  0  0  0  0  0  0  0  0  0  0  0
    4.1430    1.7310   -0.3480 C   0  0  0  0  0  0  0  0  0  0  0  0
    4.2270    2.5750    0.7450 O   0  0  0  0  0  0  0  0  0  0  0  0
    2.2360    0.7290    0.7780 C   0  0  0  0  0  0  0  0  0  0  0  0
    1.2660   -0.1640    0.7960 C   0  0  0  0  0  0  0  0  0  0  0  0
    1.0400   -1.0770   -0.2210 N   0  0  0  0  0  0  0  0  0  0  0  0
   -0.0200   -1.3230   -0.9170 C   0  0  0  0  0  0  0  0  0  0  0  0
    0.0750   -2.3650   -1.9270 C   0  0  0  0  0  0  0  0  0  0  0  0
    1.1720   -3.0060   -2.1120 O   0  0  0  0  0  0  0  0  0  0  0  0
   -1.0200   -2.6810   -2.7030 O   0  0  0  0  0  0  0  0  0  0  0  0
   -1.2100   -0.6610   -0.7550 O   0  0  0  0  0  0  0  0  0  0  0  0
   -1.3880    0.6930   -0.4260 C   0  0  0  0  0  0  0  0  0  0  0  0
   -2.3700    0.9230    0.6610 C   0  0  1  0  0  0  0  0  0  0  0  0
   -3.5620    1.7150    0.1800 C   0  0  0  0  0  0  0  0  0  0  0  0
   -3.3930    2.7690   -0.4830 O   0  0  0  0  0  0  0  0  0  0  0  0
   -4.8650    1.3230    0.4420 O   0  0  0  0  0  0  0  0  0  0  0  0
   -2.8540   -0.1620    1.3480 O   0  0  0  0  0  0  0  0  0  0  0  0
   -3.0560   -1.4590    1.0720 C   0  0  0  0  0  0  0  0  0  0  0  0
   -4.1450   -1.9870    0.6330 O   0  0  0  0  0  0  0  0  0  0  0  0
   -2.0530   -2.3910    1.2480 O   0  0  0  0  0  0  0  0  0  0  0  0
   -0.8800   -2.2770    1.8350 O   0  0  0  0  0  0  0  0  0  0  0  0
   -0.2560   -1.2690    2.5190 C   0  0  0  0  0  0  0  0  0  0  0  0
   -0.2720   -1.3170    3.8190 O   0  0  0  0  0  0  0  0  0  0  0  0
    0.4220   -0.1540    1.9760 N   0  0  0  0  0  0  0  0  0  0  0  0
  1  2  1  0
  2  3  2  3
  2  5  1  0
  3  4  1  0
  5  6  2  3
  6  7  1  0
  6 25  1  0
  7  8  2  0
  8  9  1  0
  8 12  1  0
  9 10  2  0
  9 11  1  0
 12 13  1  0
 13 14  1  0
 14 15  1  6
 14 18  1  0
 15 16  2  0
 15 17  1  0
 18 19  1  0
 19 20  2  0
 19 21  1  0
 21 22  1  0
 22 23  1  0
 23 24  2  0
 23 25  1  0
M  END
