
     RDKit          3D

 17 19  0  0  0  0  0  0  0  0999 V2000
   -1.5970    2.4790    0.9160 C   0  0  0  0  0  0  0  0  0  0  0  0
   -2.4870    1.3160    0.6940 C   0  0  0  0  0  0  0  0  0  0  0  0
   -2.2170    0.0080    0.6620 C   0  0  0  0  0  0  0  0  0  0  0  0
   -3.4440   -0.7260    0.4110 C   0  0  0  0  0  0  0  0  0  0  0  0
   -4.4050    0.1160    0.2970 N   0  0  0  0  0  0  0  0  0  0  0  0
   -3.9300    1.4640    0.4550 C   0  0  0  0  0  0  0  0  0  0  0  0
   -3.1180   -2.2050    0.3850 C   0  0  0  0  0  0  0  0  0  0  0  0
   -1.6930   -2.1100   -0.1290 C   0  0  0  0  0  0  0  0  0  0  0  0
   -1.1850   -0.9760    0.7960 C   0  0  1  0  0  0  0  0  0  0  0  0
    0.2220   -0.6900    0.5720 C   0  0  0  0  0  0  0  0  0  0  0  0
    0.7690   -0.2470   -0.7070 C   0  0  1  0  0  0  0  0  0  0  0  0
    0.2080    0.9360   -1.1260 O   0  0  0  0  0  0  0  0  0  0  0  0
    2.2520    0.1000   -0.4490 C   0  0  2  0  0  0  0  0  0  0  0  0
    2.9060    0.3840   -1.7860 C   0  0  0  0  0  0  0  0  0  0  0  0
    4.3760    0.2390   -1.3890 C   0  0  0  0  0  0  0  0  0  0  0  0
    4.2760   -0.6000   -0.1540 C   0  0  0  0  0  0  0  0  0  0  0  0
    2.9550   -0.9990   -0.0170 O   0  0  0  0  0  0  0  0  0  0  0  0
  1  2  1  0
  2  3  2  0
  2  6  1  0
  3  4  1  0
  3  9  1  0
  4  5  2  0
  4  7  1  0
  5  6  1  0
  7  8  1  0
  8  9  1  0
  9 10  1  6
 10 11  1  0
 11 12  1  1
 11 13  1  0
 13 14  1  6
 13 17  1  0
 14 15  1  0
 15 16  1  0
 16 17  1  0
M  END
