
     RDKit          3D

 17 18  0  0  0  0  0  0  0  0999 V2000
    1.3360    2.3000   -0.0610 C   0  0  0  0  0  0  0  0  0  0  0  0
    0.7600    1.1220   -0.1130 C   0  0  0  0  0  0  0  0  0  0  0  0
   -0.6500    1.1150    0.1330 N   0  0  0  0  0  0  0  0  0  0  0  0
   -1.5550    0.0570   -0.2950 C   0  0  1  0  0  0  0  0  0  0  0  0
   -2.9750    0.5130   -0.3250 C   0  0  2  0  0  0  0  0  0  0  0  0
   -3.3700    0.9510    1.0700 C   0  0  0  0  0  0  0  0  0  0  0  0
   -4.2200   -0.2150    1.5300 C   0  0  0  0  0  0  0  0  0  0  0  0
   -4.9300   -0.5280    0.3730 O   0  0  0  0  0  0  0  0  0  0  0  0
   -3.8910   -0.6440   -0.5690 C   0  0  0  0  0  0  0  0  0  0  0  0
   -1.1260   -0.5800   -1.5900 C   0  0  0  0  0  0  0  0  0  0  0  0
   -0.1100   -1.6520   -1.2900 C   0  0  0  0  0  0  0  0  0  0  0  0
    1.2210   -1.1150   -1.1830 O   0  0  0  0  0  0  0  0  0  0  0  0
    1.6390   -0.0130   -0.4090 C   0  0  0  0  0  0  0  0  0  0  0  0
    2.8590    0.0110    0.0720 C   0  0  0  0  0  0  0  0  0  0  0  0
    3.7850   -1.0740   -0.1800 C   0  0  0  0  0  0  0  0  0  0  0  0
    5.0060   -1.0570    0.2980 C   0  0  0  0  0  0  0  0  0  0  0  0
    5.4350    0.1050    1.1140 C   0  0  0  0  0  0  0  0  0  0  0  0
  1  2  2  0
  2  3  1  0
  2 13  1  0
  3  4  1  0
  4  5  1  0
  4 10  1  6
  5  6  1  1
  5  9  1  0
  6  7  1  0
  7  8  1  0
  8  9  1  0
 10 11  1  0
 11 12  1  0
 12 13  1  0
 13 14  2  3
 14 15  1  0
 15 16  2  3
 16 17  1  0
M  END
