
     RDKit          3D

 21 22  0  0  0  0  0  0  0  0999 V2000
    6.1640    0.9660    0.6340 N   0  0  0  0  0  0  0  0  0  0  0  0
    5.7380    0.3890   -0.9740 S   0  0  2  0  0  0  0  0  0  0  0  0
    6.5750   -0.8260   -1.2390 O   0  0  0  0  0  0  0  0  0  0  0  0
    6.0290    1.4980   -1.9530 O   0  0  0  0  0  0  0  0  0  0  0  0
    4.0330    0.0290   -0.9640 C   0  0  0  0  0  0  0  0  0  0  0  0
    3.1480    0.2450   -1.9660 C   0  0  0  0  0  0  0  0  0  0  0  0
    1.7890   -0.0510   -1.8780 C   0  0  0  0  0  0  0  0  0  0  0  0
    1.3110   -0.5990   -0.7020 C   0  0  0  0  0  0  0  0  0  0  0  0
   -0.0360   -1.0270   -0.5410 C   0  0  0  0  0  0  0  0  0  0  0  0
   -0.2810   -2.2680   -0.8960 O   0  0  0  0  0  0  0  0  0  0  0  0
   -1.1650   -0.3250   -0.0490 N   0  0  0  0  0  0  0  0  0  0  0  0
   -2.4710   -0.9620    0.0100 C   0  0  0  0  0  0  0  0  0  0  0  0
   -3.5720   -0.1740    0.5350 C   0  0  0  0  0  0  0  0  0  0  0  0
   -4.3760   -0.6960    1.5570 C   0  0  0  0  0  0  0  0  0  0  0  0
   -5.5460   -0.1050    1.9570 C   0  0  0  0  0  0  0  0  0  0  0  0
   -5.9890    1.0540    1.3480 C   0  0  0  0  0  0  0  0  0  0  0  0
   -5.1900    1.5570    0.3490 C   0  0  0  0  0  0  0  0  0  0  0  0
   -4.0350    0.9880   -0.0610 C   0  0  0  0  0  0  0  0  0  0  0  0
   -3.2340    1.4930   -1.0210 F   0  0  0  0  0  0  0  0  0  0  0  0
    2.2300   -0.8170    0.3190 C   0  0  0  0  0  0  0  0  0  0  0  0
    3.5560   -0.5280    0.2370 C   0  0  0  0  0  0  0  0  0  0  0  0
  2  1  1  1
  2  3  2  0
  2  4  2  0
  2  5  1  0
  5  6  2  0
  5 21  1  0
  6  7  1  0
  7  8  2  0
  8  9  1  0
  8 20  1  0
  9 10  2  0
  9 11  1  0
 11 12  1  0
 12 13  1  0
 13 14  2  0
 13 18  1  0
 14 15  1  0
 15 16  2  0
 16 17  1  0
 17 18  2  0
 18 19  1  0
 20 21  2  0
M  END
