
     RDKit          3D

 17 19  0  0  0  0  0  0  0  0999 V2000
    1.2630   -1.7960    1.6200 C   0  0  0  0  0  0  0  0  0  0  0  0
    1.4880   -0.5390    0.8510 C   0  0  0  0  0  0  0  0  0  0  0  0
    0.5460    0.3340    0.5820 C   0  0  0  0  0  0  0  0  0  0  0  0
   -0.8020    0.1850    0.9920 O   0  0  0  0  0  0  0  0  0  0  0  0
   -1.6700   -0.7070    0.3310 C   0  0  1  0  0  0  0  0  0  0  0  0
   -3.0080   -0.6450    0.9830 C   0  0  0  0  0  0  0  0  0  0  0  0
   -3.9260    0.3880    0.3810 C   0  0  0  0  0  0  0  0  0  0  0  0
   -4.0170    0.2700   -1.1180 C   0  0  0  0  0  0  0  0  0  0  0  0
   -2.7140    0.3020   -1.7280 N   0  0  0  0  0  0  0  0  0  0  0  0
   -1.6650   -0.4190   -1.1010 C   0  0  0  0  0  0  0  0  0  0  0  0
   -0.6840   -0.8350   -1.7850 O   0  0  0  0  0  0  0  0  0  0  0  0
    1.1040    1.4550   -0.1910 C   0  0  0  0  0  0  0  0  0  0  0  0
    2.5330    1.1290   -0.3500 C   0  0  0  0  0  0  0  0  0  0  0  0
    3.6630    1.5990   -0.8910 C   0  0  0  0  0  0  0  0  0  0  0  0
    4.7440    0.6270   -0.5990 C   0  0  0  0  0  0  0  0  0  0  0  0
    4.0690   -0.4350    0.1680 C   0  0  0  0  0  0  0  0  0  0  0  0
    2.7870   -0.1380    0.3090 C   0  0  0  0  0  0  0  0  0  0  0  0
  1  2  1  0
  2  3  2  0
  2 17  1  0
  3  4  1  0
  3 12  1  0
  5  4  1  1
  5  6  1  0
  5 10  1  0
  6  7  1  0
  7  8  1  0
  8  9  1  0
  9 10  1  0
 10 11  2  0
 12 13  1  0
 13 14  2  0
 13 17  1  0
 14 15  1  0
 15 16  1  0
 16 17  2  0
M  END
