
     RDKit          3D

 17 19  0  0  0  0  0  0  0  0999 V2000
   -1.5980    2.9620   -0.5170 C   0  0  0  0  0  0  0  0  0  0  0  0
   -2.7430    2.3560   -0.4760 C   0  0  0  0  0  0  0  0  0  0  0  0
   -2.9490    0.9830   -0.1280 C   0  0  1  0  0  0  0  0  0  0  0  0
   -3.5900    0.1470   -1.1490 N   0  0  0  0  0  0  0  0  0  0  0  0
   -4.1030   -1.0100   -0.4470 C   0  0  0  0  0  0  0  0  0  0  0  0
   -3.0790   -1.7180    0.3900 C   0  0  0  0  0  0  0  0  0  0  0  0
   -1.7630   -1.0460    0.4050 C   0  0  0  0  0  0  0  0  0  0  0  0
   -1.6630    0.2770    0.1540 C   0  0  0  0  0  0  0  0  0  0  0  0
   -0.4000    0.9700    0.1230 C   0  0  0  0  0  0  0  0  0  0  0  0
    0.7450    0.2490    0.4390 O   0  0  0  0  0  0  0  0  0  0  0  0
    1.5310   -0.4050   -0.5420 C   0  0  0  0  0  0  0  0  0  0  0  0
    2.6760   -1.0720    0.1970 C   0  0  2  0  0  0  0  0  0  0  0  0
    3.4480    0.0230    0.9050 C   0  0  0  0  0  0  0  0  0  0  0  0
    4.5380    0.3190   -0.1290 C   0  0  0  0  0  0  0  0  0  0  0  0
    4.8510   -0.9330   -0.6210 O   0  0  0  0  0  0  0  0  0  0  0  0
    3.6770   -1.6280   -0.7800 C   0  0  0  0  0  0  0  0  0  0  0  0
   -0.3620    2.2470   -0.2000 C   0  0  0  0  0  0  0  0  0  0  0  0
  1  2  2  0
  1 17  1  0
  2  3  1  0
  3  4  1  6
  3  8  1  0
  4  5  1  0
  5  6  1  0
  6  7  1  0
  7  8  2  0
  8  9  1  0
  9 10  1  0
  9 17  2  0
 10 11  1  0
 12 11  1  6
 12 13  1  0
 12 16  1  0
 13 14  1  0
 14 15  1  0
 15 16  1  0
M  END
