
     RDKit          3D

 18 20  0  0  0  0  0  0  0  0999 V2000
   -2.2940   -1.7780   -1.5500 C   0  0  0  0  0  0  0  0  0  0  0  0
   -2.6410   -0.6620   -0.6280 C   0  0  0  0  0  0  0  0  0  0  0  0
   -3.8180   -0.0880   -0.6310 C   0  0  0  0  0  0  0  0  0  0  0  0
   -4.1700    0.9420    0.2040 O   0  0  0  0  0  0  0  0  0  0  0  0
   -3.3210    1.5120    1.1370 C   0  0  0  0  0  0  0  0  0  0  0  0
   -1.9930    0.8240    1.1190 C   0  0  0  0  0  0  0  0  0  0  0  0
   -1.6370   -0.1490    0.3450 C   0  0  0  0  0  0  0  0  0  0  0  0
   -0.3100   -0.7280    0.2550 C   0  0  0  0  0  0  0  0  0  0  0  0
   -0.1170   -2.0480   -0.1210 N   0  0  0  0  0  0  0  0  0  0  0  0
    1.1450   -2.3140   -0.1810 N   0  0  0  0  0  0  0  0  0  0  0  0
    1.8890   -1.2290    0.1360 C   0  0  0  0  0  0  0  0  0  0  0  0
    3.2210   -1.0320    0.1820 N   0  0  0  0  0  0  0  0  0  0  0  0
    3.6660    0.1880    0.4990 C   0  0  0  0  0  0  0  0  0  0  0  0
    5.1330    0.4880    0.5730 C   0  0  0  0  0  0  0  0  0  0  0  0
    2.8290    1.1810    0.7610 N   0  0  0  0  0  0  0  0  0  0  0  0
    1.4860    0.9980    0.7200 C   0  0  0  0  0  0  0  0  0  0  0  0
    0.6320    2.1070    0.9150 N   0  0  0  0  0  0  0  0  0  0  0  0
    0.9540   -0.2250    0.4090 C   0  0  0  0  0  0  0  0  0  0  0  0
  1  2  1  0
  2  3  2  0
  2  7  1  0
  3  4  1  0
  4  5  1  0
  5  6  1  0
  6  7  2  0
  7  8  1  0
  8  9  2  0
  8 18  1  0
  9 10  1  0
 10 11  1  0
 11 12  2  0
 11 18  1  0
 12 13  1  0
 13 14  1  0
 13 15  2  0
 15 16  1  0
 16 17  1  0
 16 18  2  0
M  END
