
     RDKit          3D

 18 20  0  0  0  0  0  0  0  0999 V2000
   -5.5480    0.2700    1.1270 C   0  0  0  0  0  0  0  0  0  0  0  0
   -4.2170    0.0740    0.4780 C   0  0  0  0  0  0  0  0  0  0  0  0
   -4.1240   -0.3070   -0.8450 C   0  0  0  0  0  0  0  0  0  0  0  0
   -2.8740   -0.4830   -1.4290 C   0  0  0  0  0  0  0  0  0  0  0  0
   -1.7280   -0.2810   -0.7000 C   0  0  0  0  0  0  0  0  0  0  0  0
   -0.3790   -0.3770   -1.0040 C   0  0  0  0  0  0  0  0  0  0  0  0
    0.3000   -0.0490    0.1490 C   0  0  0  0  0  0  0  0  0  0  0  0
    1.7510   -0.0270    0.2600 C   0  0  0  0  0  0  0  0  0  0  0  0
    2.6780   -0.3140   -0.7190 C   0  0  0  0  0  0  0  0  0  0  0  0
    3.9630   -0.1740   -0.2020 C   0  0  0  0  0  0  0  0  0  0  0  0
    5.2120   -0.3880   -0.9180 C   0  0  0  0  0  0  0  0  0  0  0  0
    6.4440   -0.2030   -0.2460 N   0  0  0  0  0  0  0  0  0  0  0  0
    5.2360   -0.7350   -2.1230 O   0  0  0  0  0  0  0  0  0  0  0  0
    3.7720    0.1950    1.0760 N   0  0  0  0  0  0  0  0  0  0  0  0
    2.4810    0.2830    1.3520 N   0  0  0  0  0  0  0  0  0  0  0  0
   -0.6100    0.2290    1.0960 N   0  0  0  0  0  0  0  0  0  0  0  0
   -1.8580    0.1000    0.6180 C   0  0  0  0  0  0  0  0  0  0  0  0
   -3.0900    0.2700    1.1810 N   0  0  0  0  0  0  0  0  0  0  0  0
  1  2  1  0
  2  3  2  0
  2 18  1  0
  3  4  1  0
  4  5  2  0
  5  6  1  0
  5 17  1  0
  6  7  2  0
  7  8  1  0
  7 16  1  0
  8  9  2  0
  8 15  1  0
  9 10  1  0
 10 11  1  0
 10 14  2  0
 11 12  1  0
 11 13  2  0
 14 15  1  0
 16 17  1  0
 17 18  2  0
M  END
