
     RDKit          3D

 18 20  0  0  0  0  0  0  0  0999 V2000
    4.8290   -0.6850    0.6670 N   0  0  0  0  0  0  0  0  0  0  0  0
    4.3110   -0.2940   -0.6470 C   0  0  0  0  0  0  0  0  0  0  0  0
    3.0970    0.5130   -0.4800 C   0  0  0  0  0  0  0  0  0  0  0  0
    1.8240    0.0170   -0.4220 C   0  0  0  0  0  0  0  0  0  0  0  0
    0.7230    0.8610   -0.2610 C   0  0  0  0  0  0  0  0  0  0  0  0
   -0.6160    0.2740   -0.2050 C   0  0  0  0  0  0  0  0  0  0  0  0
   -0.9110   -1.0540   -0.2970 N   0  0  0  0  0  0  0  0  0  0  0  0
   -2.2330   -1.2470   -0.2090 C   0  0  0  0  0  0  0  0  0  0  0  0
   -3.0630   -2.3550   -0.2390 C   0  0  0  0  0  0  0  0  0  0  0  0
   -4.4320   -2.2610   -0.1220 C   0  0  0  0  0  0  0  0  0  0  0  0
   -4.9810   -1.0180    0.0300 C   0  0  0  0  0  0  0  0  0  0  0  0
   -4.1730    0.0990    0.0620 C   0  0  0  0  0  0  0  0  0  0  0  0
   -2.8050   -0.0090   -0.0560 C   0  0  0  0  0  0  0  0  0  0  0  0
   -1.7740    0.8950   -0.0600 N   0  0  0  0  0  0  0  0  0  0  0  0
    0.9650    2.2060   -0.1640 C   0  0  0  0  0  0  0  0  0  0  0  0
   -0.0200    3.0220   -0.0150 O   0  0  0  0  0  0  0  0  0  0  0  0
    2.2130    2.6580   -0.2240 N   0  0  0  0  0  0  0  0  0  0  0  0
    3.2360    1.8610   -0.3740 N   0  0  0  0  0  0  0  0  0  0  0  0
  1  2  1  0
  2  3  1  0
  3  4  1  0
  3 18  2  0
  4  5  2  0
  5  6  1  0
  5 15  1  0
  6  7  2  0
  6 14  1  0
  7  8  1  0
  8  9  2  0
  8 13  1  0
  9 10  1  0
 10 11  2  0
 11 12  1  0
 12 13  2  0
 13 14  1  0
 15 16  2  0
 15 17  1  0
 17 18  1  0
M  END
