
     RDKit          3D

 18 19  0  0  0  0  0  0  0  0999 V2000
   -4.8420    1.6220   -0.3570 C   0  0  0  0  0  0  0  0  0  0  0  0
   -3.8660    0.7710   -0.2040 C   0  0  0  0  0  0  0  0  0  0  0  0
   -2.4870    1.3040   -0.2480 C   0  0  0  0  0  0  0  0  0  0  0  0
   -1.4650    0.3000   -0.0710 N   0  0  0  0  0  0  0  0  0  0  0  0
   -1.7420   -1.0680    0.1260 C   0  0  0  0  0  0  0  0  0  0  0  0
   -2.9340   -1.5380    0.1660 N   0  0  0  0  0  0  0  0  0  0  0  0
   -4.0520   -0.6530    0.0040 C   0  0  0  0  0  0  0  0  0  0  0  0
   -5.2690   -1.1460    0.0460 C   0  0  0  0  0  0  0  0  0  0  0  0
   -0.6460   -1.9780    0.2910 N   0  0  0  0  0  0  0  0  0  0  0  0
    0.7300   -1.5690    0.2660 C   0  0  0  0  0  0  0  0  0  0  0  0
    0.9100   -0.1150    0.0530 C   0  0  0  0  0  0  0  0  0  0  0  0
    2.2760    0.4580    0.0020 C   0  0  0  0  0  0  0  0  0  0  0  0
    2.4590    1.6880   -0.1770 O   0  0  0  0  0  0  0  0  0  0  0  0
    3.4240   -0.3610    0.1550 N   0  0  0  0  0  0  0  0  0  0  0  0
    4.7640    0.1970    0.1060 C   0  0  0  0  0  0  0  0  0  0  0  0
    5.8220   -0.8400    0.2890 C   0  0  0  0  0  0  0  0  0  0  0  0
   -0.1030    0.7090   -0.0970 C   0  0  0  0  0  0  0  0  0  0  0  0
    0.1690    2.0820   -0.2960 N   0  0  0  0  0  0  0  0  0  0  0  0
  1  2  2  0
  2  3  1  0
  2  7  1  0
  3  4  1  0
  4  5  1  0
  4 17  1  0
  5  6  2  0
  5  9  1  0
  6  7  1  0
  7  8  2  0
  9 10  1  0
 10 11  1  0
 11 12  1  0
 11 17  2  0
 12 13  2  0
 12 14  1  0
 14 15  1  0
 15 16  1  0
 17 18  1  0
M  END
