
     RDKit          3D

 18 19  0  0  0  0  0  0  0  0999 V2000
   -2.7800    2.4010   -0.5440 C   0  0  0  0  0  0  0  0  0  0  0  0
   -3.0900    1.0370   -0.0530 C   0  0  0  0  0  0  0  0  0  0  0  0
   -2.0400    0.1240    0.0770 C   0  0  0  0  0  0  0  0  0  0  0  0
   -0.7430    0.5670   -0.2580 N   0  0  0  0  0  0  0  0  0  0  0  0
    0.4200   -0.2640   -0.2450 C   0  0  0  0  0  0  0  0  0  0  0  0
    0.2690   -1.4640   -0.7340 N   0  0  0  0  0  0  0  0  0  0  0  0
    1.2970   -2.4150   -0.8030 C   0  0  0  0  0  0  0  0  0  0  0  0
    2.4800   -2.0590   -0.3440 C   0  0  0  0  0  0  0  0  0  0  0  0
    2.7290   -0.7760    0.2020 N   0  0  0  0  0  0  0  0  0  0  0  0
    4.0640   -0.5030    0.6780 C   0  0  0  0  0  0  0  0  0  0  0  0
    4.7850    0.4310    0.1350 C   0  0  0  0  0  0  0  0  0  0  0  0
    4.2610    1.1940   -0.9360 N   0  0  0  0  0  0  0  0  0  0  0  0
    1.7110    0.2180    0.2830 C   0  0  0  0  0  0  0  0  0  0  0  0
   -2.2860   -1.1470    0.5280 C   0  0  0  0  0  0  0  0  0  0  0  0
   -3.6010   -1.5100    0.8530 C   0  0  0  0  0  0  0  0  0  0  0  0
   -4.5920   -0.6140    0.7190 N   0  0  0  0  0  0  0  0  0  0  0  0
   -4.3670    0.6370    0.2780 C   0  0  0  0  0  0  0  0  0  0  0  0
   -5.3370    1.4420    0.1700 O   0  0  0  0  0  0  0  0  0  0  0  0
  1  2  1  0
  2  3  2  0
  2 17  1  0
  3  4  1  0
  3 14  1  0
  4  5  1  0
  5  6  2  0
  5 13  1  0
  6  7  1  0
  7  8  2  0
  8  9  1  0
  9 10  1  0
  9 13  1  0
 10 11  2  3
 11 12  1  0
 14 15  2  0
 15 16  1  0
 16 17  1  0
 17 18  2  0
M  END
