
     RDKit          3D

 18 20  0  0  0  0  0  0  0  0999 V2000
    6.4570    1.6850   -0.6700 O   0  0  0  0  0  0  0  0  0  0  0  0
    5.5660    0.8470   -0.3540 C   0  0  0  0  0  0  0  0  0  0  0  0
    5.7410   -0.4540   -0.0280 N   0  0  0  0  0  0  0  0  0  0  0  0
    4.5560   -1.0000    0.2420 N   0  0  0  0  0  0  0  0  0  0  0  0
    3.6300   -0.0680    0.0920 C   0  0  0  0  0  0  0  0  0  0  0  0
    2.1820   -0.2450    0.2910 C   0  0  0  0  0  0  0  0  0  0  0  0
    1.3010    0.7980    0.1070 C   0  0  0  0  0  0  0  0  0  0  0  0
   -0.0630    0.6610    0.2870 C   0  0  0  0  0  0  0  0  0  0  0  0
   -0.5970   -0.5500    0.6630 C   0  0  0  0  0  0  0  0  0  0  0  0
   -1.9870   -0.7570    0.8580 N   0  0  0  0  0  0  0  0  0  0  0  0
   -2.9950    0.2410    0.5820 C   0  0  2  0  0  0  0  0  0  0  0  0
   -4.3490   -0.2520    0.9690 C   0  0  0  0  0  0  0  0  0  0  0  0
   -5.2000    0.0320    0.0120 C   0  0  0  0  0  0  0  0  0  0  0  0
   -4.5600    0.7030   -1.0570 N   0  0  0  0  0  0  0  0  0  0  0  0
   -3.1450    0.3830   -0.9350 C   0  0  0  0  0  0  0  0  0  0  0  0
    0.2840   -1.5950    0.8480 C   0  0  0  0  0  0  0  0  0  0  0  0
    1.6540   -1.4610    0.6690 C   0  0  0  0  0  0  0  0  0  0  0  0
    4.2560    1.0640   -0.2740 N   0  0  0  0  0  0  0  0  0  0  0  0
  1  2  2  0
  2  3  1  0
  2 18  1  0
  3  4  1  0
  4  5  2  0
  5  6  1  0
  5 18  1  0
  6  7  2  0
  6 17  1  0
  7  8  1  0
  8  9  2  0
  9 10  1  0
  9 16  1  0
 11 10  1  6
 11 12  1  0
 11 15  1  0
 12 13  2  0
 13 14  1  0
 14 15  1  0
 16 17  2  0
M  END
