
     RDKit          3D

 18 20  0  0  0  0  0  0  0  0999 V2000
    2.1220   -2.7280   -0.4750 C   0  0  0  0  0  0  0  0  0  0  0  0
    1.2600   -1.5450   -0.2100 C   0  0  0  0  0  0  0  0  0  0  0  0
   -0.1270   -1.6720   -0.2180 C   0  0  0  0  0  0  0  0  0  0  0  0
   -0.9320   -0.5760    0.0280 C   0  0  0  0  0  0  0  0  0  0  0  0
   -0.3630    0.6580    0.2840 C   0  0  0  0  0  0  0  0  0  0  0  0
    0.9760    0.7590    0.2860 N   0  0  0  0  0  0  0  0  0  0  0  0
    1.7860   -0.2890    0.0510 C   0  0  0  0  0  0  0  0  0  0  0  0
    3.2680   -0.1740    0.0550 C   0  0  0  0  0  0  0  0  0  0  0  0
    3.6560    1.2800    0.3600 C   0  0  0  0  0  0  0  0  0  0  0  0
    3.1130    2.0750   -0.6220 O   0  0  0  0  0  0  0  0  0  0  0  0
   -1.3920    1.5010    0.4780 N   0  0  0  0  0  0  0  0  0  0  0  0
   -2.5700    0.8510    0.3560 C   0  0  0  0  0  0  0  0  0  0  0  0
   -3.8710    1.2930    0.4690 C   0  0  0  0  0  0  0  0  0  0  0  0
   -4.2000    2.6430    0.7620 N   0  0  0  0  0  0  0  0  0  0  0  0
   -4.8460    0.3780    0.2870 N   0  0  0  0  0  0  0  0  0  0  0  0
   -4.5940   -0.8990    0.0100 N   0  0  0  0  0  0  0  0  0  0  0  0
   -3.3440   -1.3660   -0.1070 C   0  0  0  0  0  0  0  0  0  0  0  0
   -2.3090   -0.4720    0.0690 C   0  0  0  0  0  0  0  0  0  0  0  0
  1  2  1  0
  2  3  2  0
  2  7  1  0
  3  4  1  0
  4  5  2  0
  4 18  1  0
  5  6  1  0
  5 11  1  0
  6  7  2  0
  7  8  1  0
  8  9  1  0
  9 10  1  0
 11 12  1  0
 12 13  2  0
 12 18  1  0
 13 14  1  0
 13 15  1  0
 15 16  2  0
 16 17  1  0
 17 18  2  0
M  END
