
     RDKit          3D

 18 20  0  0  0  0  0  0  0  0999 V2000
   -1.3040   -1.4820   -0.2810 N   0  0  0  0  0  0  0  0  0  0  0  0
   -1.1020   -0.0780   -0.1400 C   0  0  0  0  0  0  0  0  0  0  0  0
   -2.1800    0.6580   -0.0810 C   0  0  0  0  0  0  0  0  0  0  0  0
   -3.5320    0.1250   -0.1560 C   0  0  0  0  0  0  0  0  0  0  0  0
   -4.5860    0.5450    0.6630 C   0  0  0  0  0  0  0  0  0  0  0  0
   -5.7120   -0.1620    0.3110 C   0  0  0  0  0  0  0  0  0  0  0  0
   -5.4050   -1.0040   -0.6910 N   0  0  0  0  0  0  0  0  0  0  0  0
   -4.0850   -0.8310   -0.9750 C   0  0  0  0  0  0  0  0  0  0  0  0
    0.2680    0.4140   -0.0880 C   0  0  0  0  0  0  0  0  0  0  0  0
    0.5560    1.7500   -0.0130 C   0  0  0  0  0  0  0  0  0  0  0  0
    1.8620    2.1460    0.0390 N   0  0  0  0  0  0  0  0  0  0  0  0
    2.8920    1.2620    0.0180 C   0  0  0  0  0  0  0  0  0  0  0  0
    2.5910   -0.0860   -0.0590 C   0  0  0  0  0  0  0  0  0  0  0  0
    1.3080   -0.4580   -0.1090 N   0  0  0  0  0  0  0  0  0  0  0  0
    3.6630   -1.0370   -0.0800 N   0  0  0  0  0  0  0  0  0  0  0  0
    5.0350   -0.6250   -0.1720 C   0  0  0  0  0  0  0  0  0  0  0  0
    5.2550    0.7580    0.3530 C   0  0  0  0  0  0  0  0  0  0  0  0
    4.2150    1.6360    0.0670 O   0  0  0  0  0  0  0  0  0  0  0  0
  1  2  1  0
  2  3  2  3
  2  9  1  0
  3  4  1  0
  4  5  1  0
  4  8  2  0
  5  6  2  0
  6  7  1  0
  7  8  1  0
  9 10  2  0
  9 14  1  0
 10 11  1  0
 11 12  2  0
 12 13  1  0
 12 18  1  0
 13 14  2  0
 13 15  1  0
 15 16  1  0
 16 17  1  0
 17 18  1  0
M  END
