
     RDKit          3D

 18 19  0  0  0  0  0  0  0  0999 V2000
    4.7860    1.4190    0.6590 N   0  0  0  0  0  0  0  0  0  0  0  0
    5.2700    0.2520    0.0290 C   0  0  0  0  0  0  0  0  0  0  0  0
    6.6530   -0.0080   -0.1070 N   0  0  0  0  0  0  0  0  0  0  0  0
    4.4030   -0.6210   -0.4470 C   0  0  0  0  0  0  0  0  0  0  0  0
    2.9680   -0.3920   -0.3280 C   0  0  0  0  0  0  0  0  0  0  0  0
    2.1230   -1.2320   -0.7860 N   0  0  0  0  0  0  0  0  0  0  0  0
    0.7320   -0.9760   -0.6520 C   0  0  0  0  0  0  0  0  0  0  0  0
   -0.1800   -1.9320   -0.2930 C   0  0  0  0  0  0  0  0  0  0  0  0
   -1.4760   -1.6050   -0.1900 N   0  0  0  0  0  0  0  0  0  0  0  0
   -1.9410   -0.3390   -0.4290 C   0  0  0  0  0  0  0  0  0  0  0  0
   -3.3510   -0.0430   -0.3020 C   0  0  0  0  0  0  0  0  0  0  0  0
   -3.8220    1.1510   -0.5230 C   0  0  0  0  0  0  0  0  0  0  0  0
   -5.2710    1.4790   -0.3980 C   0  0  0  0  0  0  0  0  0  0  0  0
   -6.0400    0.3830   -0.0260 O   0  0  0  0  0  0  0  0  0  0  0  0
   -5.5360   -0.8780    0.2070 C   0  0  0  0  0  0  0  0  0  0  0  0
   -4.2480   -1.1220    0.0840 C   0  0  0  0  0  0  0  0  0  0  0  0
   -1.0010    0.5910   -0.7850 C   0  0  0  0  0  0  0  0  0  0  0  0
    0.2980    0.2610   -0.8880 N   0  0  0  0  0  0  0  0  0  0  0  0
  1  2  1  0
  2  3  1  0
  2  4  2  3
  4  5  1  0
  5  6  2  3
  6  7  1  0
  7  8  2  0
  7 18  1  0
  8  9  1  0
  9 10  2  0
 10 11  1  0
 10 17  1  0
 11 12  2  0
 11 16  1  0
 12 13  1  0
 13 14  1  0
 14 15  1  0
 15 16  2  0
 17 18  2  0
M  END
