
     RDKit          3D

 22 23  0  0  0  0  0  0  0  0999 V2000
    6.8280    0.0410   -0.5140 N   0  0  0  0  0  0  0  0  0  0  0  0
    5.7620   -1.0180    0.2020 S   0  0  1  0  0  0  0  0  0  0  0  0
    5.4960   -2.2030   -0.7600 O   0  0  0  0  0  0  0  0  0  0  0  0
    6.1910   -1.5890    1.5170 O   0  0  0  0  0  0  0  0  0  0  0  0
    4.1210   -0.3630    0.4310 C   0  0  0  0  0  0  0  0  0  0  0  0
    3.3920    0.0120   -0.6790 C   0  0  0  0  0  0  0  0  0  0  0  0
    2.0100    0.1860   -0.5650 C   0  0  0  0  0  0  0  0  0  0  0  0
    1.4220   -0.0120    0.6300 C   0  0  0  0  0  0  0  0  0  0  0  0
   -0.0120    0.0180    0.7580 C   0  0  0  0  0  0  0  0  0  0  0  0
   -0.5660   -0.4520    1.7560 O   0  0  0  0  0  0  0  0  0  0  0  0
   -0.9220    0.5740   -0.2830 N   0  0  0  0  0  0  0  0  0  0  0  0
   -2.2070    0.5050    0.0620 C   0  0  0  0  0  0  0  0  0  0  0  0
   -3.5530    0.5240   -0.2910 C   0  0  0  0  0  0  0  0  0  0  0  0
   -4.4570    1.4830   -0.4930 C   0  0  0  0  0  0  0  0  0  0  0  0
   -5.8400    1.2400   -0.4480 C   0  0  0  0  0  0  0  0  0  0  0  0
   -6.2710   -0.0520   -0.1760 C   0  0  0  0  0  0  0  0  0  0  0  0
   -5.4070   -1.0740    0.0120 C   0  0  0  0  0  0  0  0  0  0  0  0
   -5.8190   -2.3730    0.2320 F   0  0  0  0  0  0  0  0  0  0  0  0
   -4.1020   -0.8110   -0.0500 C   0  0  0  0  0  0  0  0  0  0  0  0
   -3.1300   -1.7770    0.0390 F   0  0  0  0  0  0  0  0  0  0  0  0
    2.1360   -0.3650    1.7470 C   0  0  0  0  0  0  0  0  0  0  0  0
    3.5080   -0.5400    1.6470 C   0  0  0  0  0  0  0  0  0  0  0  0
  2  1  1  6
  2  3  2  0
  2  4  2  0
  2  5  1  0
  5  6  2  0
  5 22  1  0
  6  7  1  0
  7  8  2  0
  8  9  1  0
  8 21  1  0
  9 10  2  0
  9 11  1  0
 11 12  1  0
 12 13  1  0
 13 14  2  0
 13 19  1  0
 14 15  1  0
 15 16  2  0
 16 17  1  0
 17 18  1  0
 17 19  2  0
 19 20  1  0
 21 22  2  0
M  END
