
     RDKit          3D

 22 23  0  0  0  0  0  0  0  0999 V2000
   -2.5940   -3.2160   -1.0980 C   0  0  0  0  0  0  0  0  0  0  0  0
   -2.4260   -1.8690   -0.6610 O   0  0  0  0  0  0  0  0  0  0  0  0
   -1.1730   -1.2930   -0.5620 C   0  0  0  0  0  0  0  0  0  0  0  0
   -0.2080   -1.9960   -0.8680 O   0  0  0  0  0  0  0  0  0  0  0  0
   -0.9770    0.1260   -0.1030 C   0  0  0  0  0  0  0  0  0  0  0  0
   -2.1340    0.8190    0.1600 C   0  0  0  0  0  0  0  0  0  0  0  0
   -3.4960    0.5030    0.2180 N   0  0  0  0  0  0  0  0  0  0  0  0
   -4.4180    1.5610    0.5330 C   0  0  0  0  0  0  0  0  0  0  0  0
   -5.8110    1.3250    0.6110 N   0  0  0  0  0  0  0  0  0  0  0  0
   -4.0220    2.7320    0.7510 O   0  0  0  0  0  0  0  0  0  0  0  0
   -1.4730    2.4960    0.4840 S   0  0  0  0  0  0  0  0  0  0  0  0
    0.2140    2.0980    0.2450 C   0  0  0  0  0  0  0  0  0  0  0  0
    1.2390    3.1250    0.3980 C   0  0  0  0  0  0  0  0  0  0  0  0
    0.2050    0.7550   -0.0580 C   0  0  0  0  0  0  0  0  0  0  0  0
    1.5260    0.0560   -0.0780 C   0  0  0  0  0  0  0  0  0  0  0  0
    1.6800   -1.0580    0.6190 C   0  0  0  0  0  0  0  0  0  0  0  0
    2.9480   -1.7780    0.6190 C   0  0  0  0  0  0  0  0  0  0  0  0
    4.1770   -1.0070    0.3190 C   0  0  0  0  0  0  0  0  0  0  0  0
    3.9050    0.4520   -0.0010 C   0  0  0  0  0  0  0  0  0  0  0  0
    2.6670    0.4910   -0.8830 C   0  0  1  0  0  0  0  0  0  0  0  0
    2.8860   -0.5720   -1.8050 F   0  0  0  0  0  0  0  0  0  0  0  0
    2.5090    1.6320   -1.5900 F   0  0  0  0  0  0  0  0  0  0  0  0
  1  2  1  0
  2  3  1  0
  3  4  2  0
  3  5  1  0
  5  6  2  0
  5 14  1  0
  6  7  1  0
  6 11  1  0
  7  8  1  0
  8  9  1  0
  8 10  2  0
 11 12  1  0
 12 13  1  0
 12 14  2  0
 14 15  1  0
 15 16  2  0
 15 20  1  0
 16 17  1  0
 17 18  1  0
 18 19  1  0
 19 20  1  0
 20 21  1  6
 20 22  1  0
M  END
