
     RDKit          3D

 22 23  0  0  0  0  0  0  0  0999 V2000
    1.9310   -2.9820    0.2400 C   0  0  0  0  0  0  0  0  0  0  0  0
    2.6170   -1.8450   -0.4700 C   0  0  0  0  0  0  0  0  0  0  0  0
    1.4900   -0.8730   -1.4970 S   0  0  0  0  0  0  0  0  0  0  0  0
    0.3030   -0.0600   -0.4500 C   0  0  0  0  0  0  0  0  0  0  0  0
   -0.9080   -0.7430   -0.2020 C   0  0  0  0  0  0  0  0  0  0  0  0
   -1.1390   -2.0040   -0.8690 C   0  0  0  0  0  0  0  0  0  0  0  0
   -0.4030   -2.1960   -2.1070 N   0  0  0  0  0  0  0  0  0  0  0  0
   -1.8670   -2.9540   -0.5620 O   0  0  0  0  0  0  0  0  0  0  0  0
   -1.8210   -0.1460    0.6360 C   0  0  0  0  0  0  0  0  0  0  0  0
   -3.0380   -0.7090    0.9370 C   0  0  0  0  0  0  0  0  0  0  0  0
   -3.4150   -1.8820    0.4130 F   0  0  0  0  0  0  0  0  0  0  0  0
   -3.8990   -0.0390    1.7760 C   0  0  0  0  0  0  0  0  0  0  0  0
   -5.1220   -0.5930    2.0860 F   0  0  0  0  0  0  0  0  0  0  0  0
   -3.5670    1.1800    2.3150 C   0  0  0  0  0  0  0  0  0  0  0  0
   -2.3520    1.7440    2.0130 C   0  0  0  0  0  0  0  0  0  0  0  0
   -1.4630    1.0980    1.1740 C   0  0  0  0  0  0  0  0  0  0  0  0
   -0.2710    1.7400    0.9110 C   0  0  0  0  0  0  0  0  0  0  0  0
   -0.0130    2.8650    1.4330 O   0  0  0  0  0  0  0  0  0  0  0  0
    0.5910    1.1230    0.0880 N   0  0  0  0  0  0  0  0  0  0  0  0
    1.8400    1.7760   -0.2010 C   0  0  0  0  0  0  0  0  0  0  0  0
    1.7520    2.6780   -1.4120 C   0  0  0  0  0  0  0  0  0  0  0  0
    3.0210    3.2490   -1.5850 O   0  0  0  0  0  0  0  0  0  0  0  0
  1  2  1  0
  2  3  1  0
  3  4  1  0
  4  5  2  0
  4 19  1  0
  5  6  1  0
  5  9  1  0
  6  7  1  0
  6  8  2  0
  9 10  2  0
  9 16  1  0
 10 11  1  0
 10 12  1  0
 12 13  1  0
 12 14  2  0
 14 15  1  0
 15 16  2  0
 16 17  1  0
 17 18  2  0
 17 19  1  0
 19 20  1  0
 20 21  1  0
 21 22  1  0
M  END
