
     RDKit          3D

 22 23  0  0  0  0  0  0  0  0999 V2000
   -3.1950   -0.9290    2.9030 C   0  0  0  0  0  0  0  0  0  0  0  0
   -3.7210   -0.6930    1.7220 C   0  0  0  0  0  0  0  0  0  0  0  0
   -5.0110   -1.2120    1.4720 O   0  0  0  0  0  0  0  0  0  0  0  0
   -3.1040    0.0510    0.6480 C   0  0  0  0  0  0  0  0  0  0  0  0
   -3.7280    0.2160   -0.4940 C   0  0  0  0  0  0  0  0  0  0  0  0
   -3.2180    0.9510   -1.6670 C   0  0  1  0  0  0  0  0  0  0  0  0
   -3.8660    0.4690   -2.8130 F   0  0  0  0  0  0  0  0  0  0  0  0
   -3.4990    2.3050   -1.5040 F   0  0  0  0  0  0  0  0  0  0  0  0
   -1.5340    0.7760    0.8760 S   0  0  1  0  0  0  0  0  0  0  0  0
   -1.4020    1.9950   -0.0200 O   0  0  0  0  0  0  0  0  0  0  0  0
   -1.5030    1.3450    2.2910 O   0  0  0  0  0  0  0  0  0  0  0  0
   -0.2410   -0.3060    0.6530 N   0  0  0  0  0  0  0  0  0  0  0  0
   -0.1330   -0.8650   -0.6240 C   0  0  0  0  0  0  0  0  0  0  0  0
    1.1760   -1.6770   -0.7770 C   0  0  0  0  0  0  0  0  0  0  0  0
    2.2330   -0.6530   -0.5700 C   0  0  0  0  0  0  0  0  0  0  0  0
    3.3300   -0.5910   -1.4250 C   0  0  0  0  0  0  0  0  0  0  0  0
    4.2630    0.3860   -1.1850 C   0  0  0  0  0  0  0  0  0  0  0  0
    5.4020    0.4910   -2.0300 N   0  0  0  0  0  0  0  0  0  0  0  0
    4.1100    1.2660   -0.1360 C   0  0  0  0  0  0  0  0  0  0  0  0
    3.0400    1.2180    0.7120 C   0  0  0  0  0  0  0  0  0  0  0  0
    2.0780    0.2200    0.4740 C   0  0  0  0  0  0  0  0  0  0  0  0
    0.9030    0.0990    1.3570 C   0  0  0  0  0  0  0  0  0  0  0  0
  1  2  2  0
  2  3  1  0
  2  4  1  0
  4  5  2  3
  4  9  1  0
  5  6  1  0
  6  7  1  6
  6  8  1  0
  9 10  2  0
  9 11  2  0
  9 12  1  1
 12 13  1  0
 12 22  1  0
 13 14  1  0
 14 15  1  0
 15 16  2  0
 15 21  1  0
 16 17  1  0
 17 18  1  0
 17 19  2  0
 19 20  1  0
 20 21  2  0
 21 22  1  0
M  END
