
     RDKit          3D

 22 23  0  0  0  0  0  0  0  0999 V2000
   -2.0040    2.4880   -1.8000 C   0  0  0  0  0  0  0  0  0  0  0  0
   -2.7690    1.5350   -0.9370 C   0  0  0  0  0  0  0  0  0  0  0  0
   -4.5330    1.4240   -0.8010 S   0  0  0  0  0  0  0  0  0  0  0  0
   -4.5670    0.1010    0.3760 C   0  0  0  0  0  0  0  0  0  0  0  0
   -5.7760   -0.5280    0.9600 C   0  0  2  0  0  0  0  0  0  0  0  0
   -6.4920   -1.1310   -0.0340 F   0  0  0  0  0  0  0  0  0  0  0  0
   -6.5500    0.3820    1.6420 F   0  0  0  0  0  0  0  0  0  0  0  0
   -3.2490   -0.1560    0.5750 C   0  0  0  0  0  0  0  0  0  0  0  0
   -2.8680   -1.2150    1.5080 N   0  0  0  0  0  0  0  0  0  0  0  0
   -2.3350    0.5590   -0.0790 C   0  0  0  0  0  0  0  0  0  0  0  0
   -0.8820    0.3740    0.0530 N   0  0  0  0  0  0  0  0  0  0  0  0
   -0.2600   -0.5440   -0.8300 C   0  0  0  0  0  0  0  0  0  0  0  0
   -0.9680   -1.1490   -1.6730 O   0  0  0  0  0  0  0  0  0  0  0  0
    1.1500   -0.7960   -0.7840 C   0  0  0  0  0  0  0  0  0  0  0  0
    1.9650   -0.2120    0.0600 C   0  0  0  0  0  0  0  0  0  0  0  0
    3.3940   -0.4940    0.0780 C   0  0  0  0  0  0  0  0  0  0  0  0
    4.0220   -1.3650   -0.7510 C   0  0  0  0  0  0  0  0  0  0  0  0
    5.3510   -1.3490   -0.4230 C   0  0  0  0  0  0  0  0  0  0  0  0
    5.4950   -0.4540    0.6130 C   0  0  0  0  0  0  0  0  0  0  0  0
    6.7590   -0.1020    1.3020 C   0  0  0  0  0  0  0  0  0  0  0  0
    7.8350   -0.6350    0.9570 O   0  0  0  0  0  0  0  0  0  0  0  0
    4.3070    0.0190    0.8670 O   0  0  0  0  0  0  0  0  0  0  0  0
  1  2  1  0
  2  3  1  0
  2 10  2  0
  3  4  1  0
  4  5  1  0
  4  8  2  0
  5  6  1  6
  5  7  1  0
  8  9  1  0
  8 10  1  0
 10 11  1  0
 11 12  1  0
 12 13  2  0
 12 14  1  0
 14 15  2  3
 15 16  1  0
 16 17  2  0
 16 22  1  0
 17 18  1  0
 18 19  2  0
 19 20  1  0
 19 22  1  0
 20 21  2  0
M  END
