
     RDKit          3D

 22 23  0  0  0  0  0  0  0  0999 V2000
    0.3100    1.7090   -1.7970 C   0  0  0  0  0  0  0  0  0  0  0  0
   -0.4880    0.8380   -0.8710 C   0  0  0  0  0  0  0  0  0  0  0  0
   -1.8510    0.8800   -0.8670 C   0  0  0  0  0  0  0  0  0  0  0  0
   -2.6460    0.0970   -0.0330 C   0  0  0  0  0  0  0  0  0  0  0  0
   -4.0530    0.2090   -0.1000 N   0  0  0  0  0  0  0  0  0  0  0  0
   -5.0060   -0.4790    0.6530 C   0  0  0  0  0  0  0  0  0  0  0  0
   -4.6590   -1.3030    1.5040 O   0  0  0  0  0  0  0  0  0  0  0  0
   -6.4730   -0.2240    0.4370 C   0  0  2  0  0  0  0  0  0  0  0  0
   -6.7950   -0.5280   -0.8730 F   0  0  0  0  0  0  0  0  0  0  0  0
   -6.7420    1.1280    0.6390 F   0  0  0  0  0  0  0  0  0  0  0  0
   -1.9650   -0.7360    0.8040 C   0  0  0  0  0  0  0  0  0  0  0  0
   -0.5550   -0.7990    0.8210 C   0  0  0  0  0  0  0  0  0  0  0  0
    0.1930   -0.0260   -0.0020 C   0  0  0  0  0  0  0  0  0  0  0  0
    1.6050   -0.0060   -0.0710 N   0  0  0  0  0  0  0  0  0  0  0  0
    2.5120   -0.7750    0.6900 C   0  0  0  0  0  0  0  0  0  0  0  0
    2.0460   -1.5760    1.5320 O   0  0  0  0  0  0  0  0  0  0  0  0
    3.9940   -0.6630    0.5250 C   0  0  0  0  0  0  0  0  0  0  0  0
    4.5560    0.1310   -0.3100 C   0  0  0  0  0  0  0  0  0  0  0  0
    6.0320    0.1510   -0.3800 C   0  0  0  0  0  0  0  0  0  0  0  0
    6.4510   -1.3990    0.4690 S   0  0  0  0  0  0  0  0  0  0  0  0
    4.8620   -1.4930    1.3450 C   0  0  0  0  0  0  0  0  0  0  0  0
    4.6520   -2.1320    2.3840 O   0  0  0  0  0  0  0  0  0  0  0  0
  1  2  1  0
  2  3  2  0
  2 13  1  0
  3  4  1  0
  4  5  1  0
  4 11  2  0
  5  6  1  0
  6  7  2  0
  6  8  1  0
  8  9  1  6
  8 10  1  0
 11 12  1  0
 12 13  2  0
 13 14  1  0
 14 15  1  0
 15 16  2  0
 15 17  1  0
 17 18  2  0
 17 21  1  0
 18 19  1  0
 19 20  1  0
 20 21  1  0
 21 22  2  0
M  END
