
     RDKit          3D

 22 23  0  0  0  0  0  0  0  0999 V2000
    3.5340    2.5510    0.4250 C   0  0  0  0  0  0  0  0  0  0  0  0
    2.9210    1.2180    0.6250 N   0  0  0  0  0  0  0  0  0  0  0  0
    3.5500    0.0790    0.0970 C   0  0  0  0  0  0  0  0  0  0  0  0
    4.6400    0.3190   -0.5320 O   0  0  0  0  0  0  0  0  0  0  0  0
    3.0480   -1.3190    0.2220 C   0  0  0  0  0  0  0  0  0  0  0  0
    1.9890   -1.7350    0.8090 C   0  0  0  0  0  0  0  0  0  0  0  0
    1.0150   -0.8900    1.5070 N   0  0  0  0  0  0  0  0  0  0  0  0
   -0.1950   -0.5490    0.8500 C   0  0  0  0  0  0  0  0  0  0  0  0
   -1.1410    0.2370    1.4580 C   0  0  0  0  0  0  0  0  0  0  0  0
   -2.3270    0.5550    0.7790 C   0  0  0  0  0  0  0  0  0  0  0  0
   -2.5960    0.1100   -0.4910 C   0  0  0  0  0  0  0  0  0  0  0  0
   -3.7290    0.3920   -1.1920 O   0  0  0  0  0  0  0  0  0  0  0  0
   -4.8380    1.1420   -0.9170 C   0  0  0  0  0  0  0  0  0  0  0  0
   -4.6710    2.6040   -0.6990 C   0  0  2  0  0  0  0  0  0  0  0  0
   -5.9490    3.1260   -0.4390 F   0  0  0  0  0  0  0  0  0  0  0  0
   -4.2470    3.1840   -1.8840 F   0  0  0  0  0  0  0  0  0  0  0  0
   -1.6140   -0.6950   -1.0970 C   0  0  0  0  0  0  0  0  0  0  0  0
   -1.8230   -1.1710   -2.3630 O   0  0  0  0  0  0  0  0  0  0  0  0
   -0.4510   -1.0040   -0.4240 C   0  0  0  0  0  0  0  0  0  0  0  0
    1.6970   -3.2000    0.7970 C   0  0  0  0  0  0  0  0  0  0  0  0
    2.6600   -3.6740   -0.6910 S   0  0  0  0  0  0  0  0  0  0  0  0
    3.9090   -2.3800   -0.4320 C   0  0  0  0  0  0  0  0  0  0  0  0
  1  2  1  0
  2  3  1  0
  3  4  2  0
  3  5  1  0
  5  6  2  0
  5 22  1  0
  6  7  1  0
  6 20  1  0
  7  8  1  0
  8  9  2  0
  8 19  1  0
  9 10  1  0
 10 11  2  0
 11 12  1  0
 11 17  1  0
 12 13  1  0
 13 14  1  0
 14 15  1  6
 14 16  1  0
 17 18  1  0
 17 19  2  0
 20 21  1  0
 21 22  1  0
M  END
