
     RDKit          3D

 22 23  0  0  0  0  0  0  0  0999 V2000
    5.8080    1.9900    0.7700 N   0  0  0  0  0  0  0  0  0  0  0  0
    5.7110    0.2550    0.9060 S   0  0  2  0  0  0  0  0  0  0  0  0
    6.0200   -0.0530    2.3500 O   0  0  0  0  0  0  0  0  0  0  0  0
    6.7120   -0.3970    0.0020 O   0  0  0  0  0  0  0  0  0  0  0  0
    4.0880   -0.1810    0.4940 C   0  0  0  0  0  0  0  0  0  0  0  0
    3.4070    0.5910   -0.3960 C   0  0  0  0  0  0  0  0  0  0  0  0
    2.1720    0.3200   -0.7890 C   0  0  0  0  0  0  0  0  0  0  0  0
    1.4290   -0.8200   -0.3170 C   0  0  0  0  0  0  0  0  0  0  0  0
    0.1140   -0.9060   -0.9050 C   0  0  0  0  0  0  0  0  0  0  0  0
    0.0650   -1.2990   -2.1110 O   0  0  0  0  0  0  0  0  0  0  0  0
   -1.1290   -0.5610   -0.2700 N   0  0  0  0  0  0  0  0  0  0  0  0
   -2.3410   -0.5610   -1.1030 C   0  0  0  0  0  0  0  0  0  0  0  0
   -3.4630   -0.1680   -0.2530 C   0  0  0  0  0  0  0  0  0  0  0  0
   -4.0750    1.0780   -0.4870 C   0  0  0  0  0  0  0  0  0  0  0  0
   -3.4830    1.9910   -1.3460 F   0  0  0  0  0  0  0  0  0  0  0  0
   -5.2080    1.5140    0.0910 C   0  0  0  0  0  0  0  0  0  0  0  0
   -5.8590    0.6990    1.0050 C   0  0  0  0  0  0  0  0  0  0  0  0
   -5.2910   -0.5450    1.2670 C   0  0  0  0  0  0  0  0  0  0  0  0
   -4.1100   -0.9670    0.6480 C   0  0  0  0  0  0  0  0  0  0  0  0
   -3.6130   -2.2110    0.9280 F   0  0  0  0  0  0  0  0  0  0  0  0
    2.0830   -1.5920    0.5570 C   0  0  0  0  0  0  0  0  0  0  0  0
    3.4050   -1.2950    0.9760 C   0  0  0  0  0  0  0  0  0  0  0  0
  2  1  1  1
  2  3  2  0
  2  4  2  0
  2  5  1  0
  5  6  2  0
  5 22  1  0
  6  7  1  0
  7  8  2  0
  8  9  1  0
  8 21  1  0
  9 10  2  0
  9 11  1  0
 11 12  1  0
 12 13  1  0
 13 14  2  0
 13 19  1  0
 14 15  1  0
 14 16  1  0
 16 17  2  0
 17 18  1  0
 18 19  2  0
 19 20  1  0
 21 22  2  0
M  END
