
     RDKit          3D

 21 22  0  0  0  0  0  0  0  0999 V2000
    6.1630    1.8540    0.1930 C   0  0  0  0  0  0  0  0  0  0  0  0
    5.0210    0.9290   -0.1550 C   0  0  0  0  0  0  0  0  0  0  0  0
    5.2350    0.0110   -0.9690 O   0  0  0  0  0  0  0  0  0  0  0  0
    3.7510    1.0840    0.4110 N   0  0  0  0  0  0  0  0  0  0  0  0
    2.6010    0.2880    0.1680 C   0  0  0  0  0  0  0  0  0  0  0  0
    1.4270    0.5850    0.8800 C   0  0  0  0  0  0  0  0  0  0  0  0
    0.2710   -0.1320    0.7040 C   0  0  0  0  0  0  0  0  0  0  0  0
    0.1860   -1.1830   -0.1760 C   0  0  0  0  0  0  0  0  0  0  0  0
   -0.9970   -1.9300   -0.4020 N   0  0  0  0  0  0  0  0  0  0  0  0
   -2.3120   -1.4970   -0.1850 C   0  0  0  0  0  0  0  0  0  0  0  0
   -3.3090   -2.4230    0.0890 C   0  0  0  0  0  0  0  0  0  0  0  0
   -4.5850   -1.9510    0.2620 C   0  0  0  0  0  0  0  0  0  0  0  0
   -5.5710   -2.8400    0.5300 F   0  0  0  0  0  0  0  0  0  0  0  0
   -4.8990   -0.6190    0.1750 C   0  0  0  0  0  0  0  0  0  0  0  0
   -3.9250    0.3010   -0.0950 C   0  0  0  0  0  0  0  0  0  0  0  0
   -4.2400    2.0140   -0.2220 S   0  0  2  0  0  0  0  0  0  0  0  0
   -3.1880    2.6040   -1.1170 O   0  0  0  0  0  0  0  0  0  0  0  0
   -4.0740    2.6520    1.1360 O   0  0  0  0  0  0  0  0  0  0  0  0
   -2.6230   -0.1640   -0.2740 C   0  0  0  0  0  0  0  0  0  0  0  0
    1.3310   -1.4850   -0.8790 C   0  0  0  0  0  0  0  0  0  0  0  0
    2.5140   -0.7550   -0.7030 C   0  0  0  0  0  0  0  0  0  0  0  0
  1  2  1  0
  2  3  2  0
  2  4  1  0
  4  5  1  0
  5  6  2  0
  5 21  1  0
  6  7  1  0
  7  8  2  0
  8  9  1  0
  8 20  1  0
  9 10  1  0
 10 11  2  0
 10 19  1  0
 11 12  1  0
 12 13  1  0
 12 14  2  0
 14 15  1  0
 16 15  1  1
 15 19  2  0
 16 17  2  0
 16 18  2  0
 20 21  2  0
M  END
