
     RDKit          3D

 20 21  0  0  0  0  0  0  0  0999 V2000
    1.6770   -1.8270    0.6210 O   0  0  0  0  0  0  0  0  0  0  0  0
    1.3190   -0.6700    0.3380 C   0  0  0  0  0  0  0  0  0  0  0  0
   -0.1550   -0.2940    0.3890 C   0  0  0  0  0  0  0  0  0  0  0  0
   -0.9170   -1.5240    0.8010 C   0  0  0  0  0  0  0  0  0  0  0  0
   -2.6660   -1.2440    0.9750 S   0  0  0  0  0  0  0  0  0  0  0  0
   -3.5550   -0.8250   -0.5240 C   0  0  1  0  0  0  0  0  0  0  0  0
   -5.0580   -0.9460   -0.1740 C   0  0  0  0  0  0  0  0  0  0  0  0
   -5.8770    0.0340   -1.0180 C   0  0  0  0  0  0  0  0  0  0  0  0
   -5.6660    1.3850   -0.5200 N   0  0  0  0  0  0  0  0  0  0  0  0
   -4.2980    1.5330   -0.0330 C   0  0  0  0  0  0  0  0  0  0  0  0
   -3.4050    0.6490   -0.8920 C   0  0  0  0  0  0  0  0  0  0  0  0
    2.2580    0.3240   -0.0360 N   0  0  0  0  0  0  0  0  0  0  0  0
    3.6510    0.1440   -0.1280 C   0  0  0  0  0  0  0  0  0  0  0  0
    4.3210   -0.9690    0.2720 C   0  0  0  0  0  0  0  0  0  0  0  0
    5.7130   -1.0720    0.1390 C   0  0  0  0  0  0  0  0  0  0  0  0
    6.4490   -0.0520   -0.4020 C   0  0  0  0  0  0  0  0  0  0  0  0
    7.8140   -0.1540   -0.5330 O   0  0  0  0  0  0  0  0  0  0  0  0
    5.7850    1.0720   -0.8070 C   0  0  0  0  0  0  0  0  0  0  0  0
    6.5130    2.1090   -1.3540 O   0  0  0  0  0  0  0  0  0  0  0  0
    4.4130    1.1650   -0.6720 C   0  0  0  0  0  0  0  0  0  0  0  0
  1  2  2  0
  2  3  1  0
  2 12  1  0
  3  4  1  0
  4  5  1  0
  6  5  1  1
  6  7  1  0
  6 11  1  0
  7  8  1  0
  8  9  1  0
  9 10  1  0
 10 11  1  0
 12 13  1  0
 13 14  2  0
 13 20  1  0
 14 15  1  0
 15 16  2  0
 16 17  1  0
 16 18  1  0
 18 19  1  0
 18 20  2  0
M  END
