
     RDKit          3D

 20 21  0  0  0  0  0  0  0  0999 V2000
    6.3480   -1.3640    0.5190 C   0  0  0  0  0  0  0  0  0  0  0  0
    4.9690   -0.8530    0.3480 C   0  0  0  0  0  0  0  0  0  0  0  0
    4.4810   -0.5640   -0.9150 C   0  0  0  0  0  0  0  0  0  0  0  0
    3.1880   -0.0920   -0.9990 C   0  0  0  0  0  0  0  0  0  0  0  0
    2.3700    0.1050    0.0820 C   0  0  0  0  0  0  0  0  0  0  0  0
    0.7340    0.7050   -0.0540 S   0  0  1  0  0  0  0  0  0  0  0  0
    0.4400    1.4800    1.1990 O   0  0  0  0  0  0  0  0  0  0  0  0
    0.6500    1.6650   -1.2020 O   0  0  0  0  0  0  0  0  0  0  0  0
   -0.4160   -0.6370   -0.2430 C   0  0  0  0  0  0  0  0  0  0  0  0
   -1.8040   -0.1540   -0.3600 C   0  0  0  0  0  0  0  0  0  0  0  0
   -2.3510    0.1420   -1.5980 C   0  0  0  0  0  0  0  0  0  0  0  0
   -3.6480    0.5940   -1.7240 C   0  0  0  0  0  0  0  0  0  0  0  0
   -4.1610    0.8670   -2.8320 O   0  0  0  0  0  0  0  0  0  0  0  0
   -4.4110    0.7540   -0.5890 C   0  0  0  0  0  0  0  0  0  0  0  0
   -5.7580    1.2180   -0.6500 N   0  0  0  0  0  0  0  0  0  0  0  0
   -3.8330    0.4500    0.6310 C   0  0  0  0  0  0  0  0  0  0  0  0
   -4.6650    0.6250    1.8570 C   0  0  0  0  0  0  0  0  0  0  0  0
   -2.5650    0.0090    0.7320 N   0  0  0  0  0  0  0  0  0  0  0  0
    2.9030   -0.1990    1.3310 C   0  0  0  0  0  0  0  0  0  0  0  0
    4.1900   -0.6740    1.4710 C   0  0  0  0  0  0  0  0  0  0  0  0
  1  2  1  0
  2  3  2  0
  2 20  1  0
  3  4  1  0
  4  5  2  0
  5  6  1  0
  5 19  1  0
  6  7  2  0
  6  8  2  0
  6  9  1  6
  9 10  1  0
 10 11  2  0
 10 18  1  0
 11 12  1  0
 12 13  2  0
 12 14  1  0
 14 15  1  0
 14 16  2  0
 16 17  1  0
 16 18  1  0
 19 20  2  0
M  END
