
     RDKit          3D

 20 21  0  0  0  0  0  0  0  0999 V2000
    6.4370   -0.2510    0.0440 N   0  0  0  0  0  0  0  0  0  0  0  0
    5.3770    1.0090   -0.4790 S   0  0  2  0  0  0  0  0  0  0  0  0
    5.6090    1.3330   -1.9280 O   0  0  0  0  0  0  0  0  0  0  0  0
    5.5410    2.2570    0.3390 O   0  0  0  0  0  0  0  0  0  0  0  0
    3.7300    0.4160   -0.3040 C   0  0  0  0  0  0  0  0  0  0  0  0
    3.1220   -0.2520   -1.3490 C   0  0  0  0  0  0  0  0  0  0  0  0
    1.8360   -0.7090   -1.1990 C   0  0  0  0  0  0  0  0  0  0  0  0
    1.1080   -0.5280   -0.0270 C   0  0  0  0  0  0  0  0  0  0  0  0
   -0.2420   -1.0580   -0.0010 C   0  0  0  0  0  0  0  0  0  0  0  0
   -0.7430   -1.6240   -1.0110 O   0  0  0  0  0  0  0  0  0  0  0  0
   -1.0920   -0.9810    1.1440 N   0  0  0  0  0  0  0  0  0  0  0  0
   -2.4410   -1.5080    1.1690 C   0  0  0  0  0  0  0  0  0  0  0  0
   -3.4050   -0.6300    0.4530 C   0  0  0  0  0  0  0  0  0  0  0  0
   -3.9090    0.5060    1.0810 C   0  0  0  0  0  0  0  0  0  0  0  0
   -4.8090    1.3470    0.4510 C   0  0  0  0  0  0  0  0  0  0  0  0
   -5.2400    1.0790   -0.8430 C   0  0  0  0  0  0  0  0  0  0  0  0
   -4.7330   -0.0550   -1.4610 C   0  0  0  0  0  0  0  0  0  0  0  0
   -3.8280   -0.9030   -0.8270 C   0  0  0  0  0  0  0  0  0  0  0  0
    1.7030    0.1270    1.0010 C   0  0  0  0  0  0  0  0  0  0  0  0
    3.0120    0.5920    0.8490 C   0  0  0  0  0  0  0  0  0  0  0  0
  2  1  1  1
  2  3  2  0
  2  4  2  0
  2  5  1  0
  5  6  2  0
  5 20  1  0
  6  7  1  0
  7  8  2  0
  8  9  1  0
  8 19  1  0
  9 10  2  0
  9 11  1  0
 11 12  1  0
 12 13  1  0
 13 14  2  0
 13 18  1  0
 14 15  1  0
 15 16  2  0
 16 17  1  0
 17 18  2  0
 19 20  2  0
M  END
