
     RDKit          3D

 20 21  0  0  0  0  0  0  0  0999 V2000
   -5.2470    2.6030   -0.4710 C   0  0  0  0  0  0  0  0  0  0  0  0
   -3.8640    2.3360   -0.3770 O   0  0  0  0  0  0  0  0  0  0  0  0
   -3.4170    1.0230   -0.2820 C   0  0  0  0  0  0  0  0  0  0  0  0
   -4.2570   -0.0650   -0.2740 C   0  0  0  0  0  0  0  0  0  0  0  0
   -3.8160   -1.3670   -0.1800 C   0  0  0  0  0  0  0  0  0  0  0  0
   -2.4320   -1.5700   -0.0900 C   0  0  0  0  0  0  0  0  0  0  0  0
   -1.9150   -2.8890    0.0100 N   0  0  0  0  0  0  0  0  0  0  0  0
   -1.5410   -0.5250   -0.0930 C   0  0  0  0  0  0  0  0  0  0  0  0
   -0.1190   -0.8150    0.0040 C   0  0  0  0  0  0  0  0  0  0  0  0
    0.2460   -2.0150    0.0880 O   0  0  0  0  0  0  0  0  0  0  0  0
    0.8890    0.1790    0.0100 N   0  0  0  0  0  0  0  0  0  0  0  0
    2.2850   -0.0130    0.1010 C   0  0  0  0  0  0  0  0  0  0  0  0
    2.9580   -1.1930    0.1860 C   0  0  0  0  0  0  0  0  0  0  0  0
    4.3600   -1.2110    0.2720 C   0  0  0  0  0  0  0  0  0  0  0  0
    5.1220   -0.0690    0.2740 C   0  0  0  0  0  0  0  0  0  0  0  0
    6.8890   -0.1460    0.3830 S   0  0  0  0  0  0  0  0  0  0  0  0
    7.4500    0.9500   -0.5180 O   0  0  0  0  0  0  0  0  0  0  0  0
    4.4440    1.1230    0.1870 C   0  0  0  0  0  0  0  0  0  0  0  0
    3.0790    1.1420    0.1040 C   0  0  0  0  0  0  0  0  0  0  0  0
   -2.0460    0.7490   -0.1890 C   0  0  0  0  0  0  0  0  0  0  0  0
  1  2  1  0
  2  3  1  0
  3  4  2  0
  3 20  1  0
  4  5  1  0
  5  6  2  0
  6  7  1  0
  6  8  1  0
  8  9  1  0
  8 20  2  0
  9 10  2  0
  9 11  1  0
 11 12  1  0
 12 13  2  0
 12 19  1  0
 13 14  1  0
 14 15  2  0
 15 16  1  0
 15 18  1  0
 16 17  2  0
 18 19  2  0
M  END
