
     RDKit          3D

 20 21  0  0  0  0  0  0  0  0999 V2000
   -2.6550   -2.0250    0.6960 C   0  0  0  0  0  0  0  0  0  0  0  0
   -3.4640   -1.0440    0.4450 C   0  0  0  0  0  0  0  0  0  0  0  0
   -5.0160   -1.4010   -0.3500 S   0  0  0  0  0  0  0  0  0  0  0  0
   -5.8660    0.1660   -0.4610 C   0  0  0  0  0  0  0  0  0  0  0  0
   -5.2400    1.2300    0.0070 C   0  0  0  0  0  0  0  0  0  0  0  0
   -3.9570    1.3150    0.6050 C   0  0  0  0  0  0  0  0  0  0  0  0
   -3.1240    0.3180    0.8180 C   0  0  0  0  0  0  0  0  0  0  0  0
   -1.8440    0.6010    1.4380 N   0  0  0  0  0  0  0  0  0  0  0  0
   -0.6140    0.3920    0.7380 C   0  0  0  0  0  0  0  0  0  0  0  0
   -0.6980   -0.0340   -0.4170 O   0  0  0  0  0  0  0  0  0  0  0  0
    0.6190    0.6590    1.3360 N   0  0  0  0  0  0  0  0  0  0  0  0
    1.8880    0.4850    0.7470 C   0  0  0  0  0  0  0  0  0  0  0  0
    3.0110    0.9610    1.4400 C   0  0  0  0  0  0  0  0  0  0  0  0
    4.2910    0.8520    0.9890 C   0  0  0  0  0  0  0  0  0  0  0  0
    4.4830    0.2280   -0.2350 C   0  0  0  0  0  0  0  0  0  0  0  0
    5.7700    0.1060   -0.7110 O   0  0  0  0  0  0  0  0  0  0  0  0
    3.4380   -0.2610   -0.9680 C   0  0  0  0  0  0  0  0  0  0  0  0
    3.6200   -0.8800   -2.1820 O   0  0  0  0  0  0  0  0  0  0  0  0
    2.5680   -1.3880   -2.9480 C   0  0  0  0  0  0  0  0  0  0  0  0
    2.1430   -0.1200   -0.4540 C   0  0  0  0  0  0  0  0  0  0  0  0
  1  2  2  0
  2  3  1  0
  2  7  1  0
  3  4  1  0
  4  5  2  0
  5  6  1  0
  6  7  2  0
  7  8  1  0
  8  9  1  0
  9 10  2  0
  9 11  1  0
 11 12  1  0
 12 13  2  0
 12 20  1  0
 13 14  1  0
 14 15  2  0
 15 16  1  0
 15 17  1  0
 17 18  1  0
 17 20  2  0
 18 19  1  0
M  END
