
     RDKit          3D

 19 20  0  0  0  0  0  0  0  0999 V2000
    6.6800   -1.0090    0.1250 C   0  0  0  0  0  0  0  0  0  0  0  0
    5.2720   -0.4800    0.0310 C   0  0  0  0  0  0  0  0  0  0  0  0
    4.1330   -1.2500   -0.0150 C   0  0  0  0  0  0  0  0  0  0  0  0
    3.0590   -0.4010   -0.0980 C   0  0  0  0  0  0  0  0  0  0  0  0
    1.7070   -0.6060   -0.1710 C   0  0  0  0  0  0  0  0  0  0  0  0
    0.7900    0.4580   -0.2500 C   0  0  0  0  0  0  0  0  0  0  0  0
   -0.5890    0.1570   -0.3130 N   0  0  0  0  0  0  0  0  0  0  0  0
   -1.6150    1.0710   -0.5250 C   0  0  0  0  0  0  0  0  0  0  0  0
   -1.3850    2.2840   -0.6860 O   0  0  0  0  0  0  0  0  0  0  0  0
   -3.0620    0.6910   -0.5790 C   0  0  0  0  0  0  0  0  0  0  0  0
   -3.2790   -1.0870   -0.3350 S   0  0  0  0  0  0  0  0  0  0  0  0
   -5.0590   -1.4390   -0.4180 C   0  0  0  0  0  0  0  0  0  0  0  0
   -5.7340   -0.7970    0.7370 C   0  0  0  0  0  0  0  0  0  0  0  0
   -6.2480    0.5230    0.6840 N   0  0  0  0  0  0  0  0  0  0  0  0
   -5.8620   -1.4330    1.8070 O   0  0  0  0  0  0  0  0  0  0  0  0
    1.3440    1.7030   -0.2480 C   0  0  0  0  0  0  0  0  0  0  0  0
    2.7120    1.9320   -0.1750 C   0  0  0  0  0  0  0  0  0  0  0  0
    3.5900    0.8780   -0.0990 C   0  0  0  0  0  0  0  0  0  0  0  0
    4.8960    0.7680   -0.0210 O   0  0  0  0  0  0  0  0  0  0  0  0
  1  2  1  0
  2  3  2  0
  2 19  1  0
  3  4  1  0
  4  5  2  0
  4 18  1  0
  5  6  1  0
  6  7  1  0
  6 16  2  0
  7  8  1  0
  8  9  2  0
  8 10  1  0
 10 11  1  0
 11 12  1  0
 12 13  1  0
 13 14  1  0
 13 15  2  0
 16 17  1  0
 17 18  2  0
 18 19  1  0
M  END
