
     RDKit          3D

 20 21  0  0  0  0  0  0  0  0999 V2000
   -2.9240   -0.6570   -2.6700 C   0  0  0  0  0  0  0  0  0  0  0  0
   -3.8470   -0.1490   -1.5550 C   0  0  0  0  0  0  0  0  0  0  0  0
   -3.4690   -0.7650   -0.2430 C   0  0  0  0  0  0  0  0  0  0  0  0
   -2.1040   -0.4560    0.1730 N   0  0  0  0  0  0  0  0  0  0  0  0
   -1.7780    0.8470    0.5880 C   0  0  0  0  0  0  0  0  0  0  0  0
   -2.7920    1.7800    0.8060 C   0  0  0  0  0  0  0  0  0  0  0  0
   -2.5280    3.0580    1.2530 C   0  0  0  0  0  0  0  0  0  0  0  0
   -1.2310    3.4120    1.4870 C   0  0  0  0  0  0  0  0  0  0  0  0
   -0.2310    2.4770    1.2670 C   0  0  0  0  0  0  0  0  0  0  0  0
   -0.4530    1.1970    0.8230 C   0  0  0  0  0  0  0  0  0  0  0  0
    0.5950    0.2650    0.5810 N   0  0  0  0  0  0  0  0  0  0  0  0
    1.9690    0.4330    0.8340 C   0  0  0  0  0  0  0  0  0  0  0  0
    2.3660    1.5080    1.3300 O   0  0  0  0  0  0  0  0  0  0  0  0
    2.9850   -0.6300    0.5310 C   0  0  0  0  0  0  0  0  0  0  0  0
    2.6680   -1.7680    0.0190 C   0  0  0  0  0  0  0  0  0  0  0  0
    3.7570   -2.7350   -0.2350 C   0  0  0  0  0  0  0  0  0  0  0  0
    5.1760   -1.6590   -0.2090 S   0  0  2  0  0  0  0  0  0  0  0  0
    5.5240   -1.1370   -1.5520 O   0  0  0  0  0  0  0  0  0  0  0  0
    6.3230   -2.3080    0.4990 O   0  0  0  0  0  0  0  0  0  0  0  0
    4.4170   -0.3910    0.8190 C   0  0  0  0  0  0  0  0  0  0  0  0
  1  2  1  0
  2  3  1  0
  3  4  1  0
  4  5  1  0
  5  6  2  0
  5 10  1  0
  6  7  1  0
  7  8  2  0
  8  9  1  0
  9 10  2  0
 10 11  1  0
 11 12  1  0
 12 13  2  0
 12 14  1  0
 14 15  2  0
 14 20  1  0
 15 16  1  0
 17 16  1  6
 17 18  2  0
 17 19  2  0
 17 20  1  0
M  END
