
     RDKit          3D

 20 21  0  0  0  0  0  0  0  0999 V2000
   -3.8760    2.4370    0.6330 C   0  0  0  0  0  0  0  0  0  0  0  0
   -3.1520    1.2770    0.0390 C   0  0  0  0  0  0  0  0  0  0  0  0
   -3.6450   -0.0180    0.1080 C   0  0  0  0  0  0  0  0  0  0  0  0
   -2.9680   -1.0830   -0.4430 C   0  0  0  0  0  0  0  0  0  0  0  0
   -3.4990   -2.3970   -0.3560 N   0  0  0  0  0  0  0  0  0  0  0  0
   -1.7700   -0.8960   -1.0870 C   0  0  0  0  0  0  0  0  0  0  0  0
   -1.0670   -1.9410   -1.6510 O   0  0  0  0  0  0  0  0  0  0  0  0
   -1.2430    0.3960   -1.1750 C   0  0  0  0  0  0  0  0  0  0  0  0
    0.0270    0.5790   -1.8890 C   0  0  0  0  0  0  0  0  0  0  0  0
    1.2210    0.0360   -1.1490 C   0  0  0  0  0  0  0  0  0  0  0  0
    1.4320    0.6530    0.1480 C   0  0  0  0  0  0  0  0  0  0  0  0
    0.5530    1.5010    0.5550 O   0  0  0  0  0  0  0  0  0  0  0  0
    2.5350    0.4380    1.0760 C   0  0  0  0  0  0  0  0  0  0  0  0
    2.6500    1.2600    2.6720 S   0  0  0  0  0  0  0  0  0  0  0  0
    4.2190    0.4790    3.1150 C   0  0  0  0  0  0  0  0  0  0  0  0
    4.8630    0.6740    4.2130 O   0  0  0  0  0  0  0  0  0  0  0  0
    4.4890   -0.2970    2.0500 N   0  0  0  0  0  0  0  0  0  0  0  0
    3.6640   -0.3190    1.0480 C   0  0  0  0  0  0  0  0  0  0  0  0
    3.9350   -1.1760   -0.1860 C   0  0  0  0  0  0  0  0  0  0  0  0
   -1.9480    1.4550   -0.6100 C   0  0  0  0  0  0  0  0  0  0  0  0
  1  2  1  0
  2  3  2  0
  2 20  1  0
  3  4  1  0
  4  5  1  0
  4  6  2  0
  6  7  1  0
  6  8  1  0
  8  9  1  0
  8 20  2  0
  9 10  1  0
 10 11  1  0
 11 12  2  0
 11 13  1  0
 13 14  1  0
 13 18  2  0
 14 15  1  0
 15 16  2  0
 15 17  1  0
 17 18  1  0
 18 19  1  0
M  END
