
     RDKit          3D

 19 20  0  0  0  0  0  0  0  0999 V2000
   -2.8450   -2.2360    1.0720 C   0  0  0  0  0  0  0  0  0  0  0  0
   -3.3820   -0.9560    0.4920 C   0  0  0  0  0  0  0  0  0  0  0  0
   -2.6170   -0.0080    0.0700 C   0  0  0  0  0  0  0  0  0  0  0  0
   -1.1740    0.0960    0.0300 C   0  0  0  0  0  0  0  0  0  0  0  0
   -0.3260   -0.8500   -0.4990 C   0  0  0  0  0  0  0  0  0  0  0  0
    1.0500   -0.6890   -0.4800 C   0  0  0  0  0  0  0  0  0  0  0  0
    1.6520    0.4150    0.0620 C   0  0  0  0  0  0  0  0  0  0  0  0
    3.0530    0.6130    0.0830 N   0  0  0  0  0  0  0  0  0  0  0  0
    3.9040   -0.3240   -0.6270 C   0  0  0  0  0  0  0  0  0  0  0  0
    5.3450    0.0450   -0.4880 C   0  0  0  0  0  0  0  0  0  0  0  0
    5.7080    1.2010    0.2880 N   0  0  0  0  0  0  0  0  0  0  0  0
    6.2570   -0.6190   -1.0270 O   0  0  0  0  0  0  0  0  0  0  0  0
    0.8080    1.3680    0.5940 C   0  0  0  0  0  0  0  0  0  0  0  0
   -0.5570    1.2400    0.5910 C   0  0  0  0  0  0  0  0  0  0  0  0
   -3.6750    1.2630   -0.5040 S   0  0  1  0  0  0  0  0  0  0  0  0
   -3.5100    2.5230    0.2870 O   0  0  0  0  0  0  0  0  0  0  0  0
   -3.5280    1.4950   -1.9750 O   0  0  0  0  0  0  0  0  0  0  0  0
   -5.1670    0.4290   -0.1270 C   0  0  0  0  0  0  0  0  0  0  0  0
   -4.7880   -0.7210    0.3870 C   0  0  0  0  0  0  0  0  0  0  0  0
  1  2  1  0
  2  3  2  0
  2 19  1  0
  3  4  1  0
  3 15  1  0
  4  5  2  0
  4 14  1  0
  5  6  1  0
  6  7  2  0
  7  8  1  0
  7 13  1  0
  8  9  1  0
  9 10  1  0
 10 11  1  0
 10 12  2  0
 13 14  2  0
 15 16  2  0
 15 17  2  0
 15 18  1  6
 18 19  2  0
M  END
