
     RDKit          3D

 18 20  0  0  0  0  0  0  0  0999 V2000
    3.9720    0.3020    1.4280 N   0  0  0  0  0  0  0  0  0  0  0  0
    4.3310    0.1530    0.0390 C   0  0  0  0  0  0  0  0  0  0  0  0
    3.1310    0.0200   -0.8260 C   0  0  0  0  0  0  0  0  0  0  0  0
    1.8820    0.0520   -0.2380 C   0  0  0  0  0  0  0  0  0  0  0  0
    0.7960   -0.0730   -1.0720 C   0  0  0  0  0  0  0  0  0  0  0  0
   -0.5420   -0.0440   -0.4890 C   0  0  0  0  0  0  0  0  0  0  0  0
   -1.7180   -0.1540   -1.1580 N   0  0  0  0  0  0  0  0  0  0  0  0
   -2.7570   -0.0860   -0.3080 C   0  0  0  0  0  0  0  0  0  0  0  0
   -4.1300   -0.1380   -0.4290 C   0  0  0  0  0  0  0  0  0  0  0  0
   -4.9680   -0.0360    0.6640 C   0  0  0  0  0  0  0  0  0  0  0  0
   -4.4440    0.1230    1.9300 C   0  0  0  0  0  0  0  0  0  0  0  0
   -3.0740    0.1760    2.0580 C   0  0  0  0  0  0  0  0  0  0  0  0
   -2.2270    0.0740    0.9560 C   0  0  0  0  0  0  0  0  0  0  0  0
   -0.8900    0.0930    0.8000 N   0  0  0  0  0  0  0  0  0  0  0  0
    1.0330   -0.2210   -2.4170 C   0  0  0  0  0  0  0  0  0  0  0  0
    0.0500   -0.3360   -3.1880 O   0  0  0  0  0  0  0  0  0  0  0  0
    2.2600   -0.2480   -2.9530 N   0  0  0  0  0  0  0  0  0  0  0  0
    3.2840   -0.1260   -2.1430 N   0  0  0  0  0  0  0  0  0  0  0  0
  1  2  1  0
  2  3  1  0
  3  4  1  0
  3 18  2  0
  4  5  2  0
  5  6  1  0
  5 15  1  0
  6  7  2  0
  6 14  1  0
  7  8  1  0
  8  9  2  0
  8 13  1  0
  9 10  1  0
 10 11  2  0
 11 12  1  0
 12 13  2  0
 13 14  1  0
 15 16  2  0
 15 17  1  0
 17 18  1  0
M  END
