
     RDKit          3D

 18 20  0  0  0  0  0  0  0  0999 V2000
   -2.3940   -2.0420   -1.2530 C   0  0  0  0  0  0  0  0  0  0  0  0
   -1.3720   -1.1790   -0.7160 C   0  0  0  0  0  0  0  0  0  0  0  0
   -0.0400   -1.4960   -0.8880 C   0  0  0  0  0  0  0  0  0  0  0  0
    0.9230   -0.6410   -0.3570 C   0  0  0  0  0  0  0  0  0  0  0  0
    0.5170    0.4910    0.3210 C   0  0  0  0  0  0  0  0  0  0  0  0
   -0.8050    0.7960    0.4860 N   0  0  0  0  0  0  0  0  0  0  0  0
   -1.7330   -0.0410   -0.0340 C   0  0  0  0  0  0  0  0  0  0  0  0
   -3.1520    0.2500    0.1220 C   0  0  0  0  0  0  0  0  0  0  0  0
   -3.4150    1.5250    0.8900 C   0  0  0  0  0  0  0  0  0  0  0  0
   -4.7910    1.7160    0.9850 O   0  0  0  0  0  0  0  0  0  0  0  0
    1.6510    1.1030    0.7080 N   0  0  0  0  0  0  0  0  0  0  0  0
    2.7340    0.4160    0.3080 C   0  0  0  0  0  0  0  0  0  0  0  0
    4.0860    0.5840    0.4300 C   0  0  0  0  0  0  0  0  0  0  0  0
    4.5870    1.7130    1.1200 N   0  0  0  0  0  0  0  0  0  0  0  0
    4.9580   -0.2950   -0.0890 N   0  0  0  0  0  0  0  0  0  0  0  0
    4.5630   -1.3900   -0.7570 N   0  0  0  0  0  0  0  0  0  0  0  0
    3.2410   -1.5800   -0.8910 C   0  0  0  0  0  0  0  0  0  0  0  0
    2.2970   -0.7170   -0.3830 C   0  0  0  0  0  0  0  0  0  0  0  0
  1  2  1  0
  2  3  2  0
  2  7  1  0
  3  4  1  0
  4  5  2  0
  4 18  1  0
  5  6  1  0
  5 11  1  0
  6  7  2  0
  7  8  1  0
  8  9  1  0
  9 10  1  0
 11 12  1  0
 12 13  2  0
 12 18  1  0
 13 14  1  0
 13 15  1  0
 15 16  2  0
 16 17  1  0
 17 18  2  0
M  END
