
     RDKit          3D

 18 20  0  0  0  0  0  0  0  0999 V2000
   -2.6680   -1.8780    0.9050 C   0  0  0  0  0  0  0  0  0  0  0  0
   -2.7620   -0.5480    0.2340 C   0  0  0  0  0  0  0  0  0  0  0  0
   -3.8810   -0.2010   -0.3650 C   0  0  0  0  0  0  0  0  0  0  0  0
   -4.0460    1.0070   -1.0050 O   0  0  0  0  0  0  0  0  0  0  0  0
   -3.0050    1.9220   -1.0730 C   0  0  0  0  0  0  0  0  0  0  0  0
   -1.7600    1.4930   -0.3710 C   0  0  0  0  0  0  0  0  0  0  0  0
   -1.5820    0.3630    0.2470 C   0  0  0  0  0  0  0  0  0  0  0  0
   -0.3830   -0.1650    0.8430 C   0  0  0  0  0  0  0  0  0  0  0  0
   -0.4030   -1.0540    1.9150 N   0  0  0  0  0  0  0  0  0  0  0  0
    0.8030   -1.4170    2.2320 N   0  0  0  0  0  0  0  0  0  0  0  0
    1.6990   -0.8310    1.4320 C   0  0  0  0  0  0  0  0  0  0  0  0
    3.0200   -0.8660    1.3040 N   0  0  0  0  0  0  0  0  0  0  0  0
    3.7040   -0.1890    0.3710 C   0  0  0  0  0  0  0  0  0  0  0  0
    5.2100   -0.2900    0.3040 C   0  0  0  0  0  0  0  0  0  0  0  0
    3.0270    0.5650   -0.4860 N   0  0  0  0  0  0  0  0  0  0  0  0
    1.6620    0.6420   -0.4030 C   0  0  0  0  0  0  0  0  0  0  0  0
    0.9810    1.3890   -1.3990 N   0  0  0  0  0  0  0  0  0  0  0  0
    0.9460   -0.0360    0.5460 C   0  0  0  0  0  0  0  0  0  0  0  0
  1  2  1  0
  2  3  2  0
  2  7  1  0
  3  4  1  0
  4  5  1  0
  5  6  1  0
  6  7  2  0
  7  8  1  0
  8  9  2  0
  8 18  1  0
  9 10  1  0
 10 11  1  0
 11 12  2  0
 11 18  1  0
 12 13  1  0
 13 14  1  0
 13 15  2  0
 15 16  1  0
 16 17  1  0
 16 18  2  0
M  END
