
     RDKit          3D

 18 20  0  0  0  0  0  0  0  0999 V2000
    5.7180   -0.3070    0.7240 N   0  0  0  0  0  0  0  0  0  0  0  0
    4.3550   -0.5710    0.4200 C   0  0  0  0  0  0  0  0  0  0  0  0
    4.0580   -1.7580    0.0360 N   0  0  0  0  0  0  0  0  0  0  0  0
    2.8400   -2.3810   -0.3440 C   0  0  0  0  0  0  0  0  0  0  0  0
    1.6430   -1.7960   -0.4300 C   0  0  0  0  0  0  0  0  0  0  0  0
    1.2540   -0.4090   -0.1700 C   0  0  0  0  0  0  0  0  0  0  0  0
   -0.0440   -0.1630   -0.4100 N   0  0  0  0  0  0  0  0  0  0  0  0
   -0.6000    1.0470   -0.2330 C   0  0  0  0  0  0  0  0  0  0  0  0
   -1.9790    1.2310   -0.5070 N   0  0  0  0  0  0  0  0  0  0  0  0
   -2.8390    0.1740   -0.9730 C   0  0  1  0  0  0  0  0  0  0  0  0
   -2.9080   -0.9900    0.0090 C   0  0  0  0  0  0  0  0  0  0  0  0
   -4.0510   -0.5360    0.8950 C   0  0  0  0  0  0  0  0  0  0  0  0
   -4.8880    0.2350    0.1410 O   0  0  0  0  0  0  0  0  0  0  0  0
   -4.2500    0.6480   -0.9910 C   0  0  0  0  0  0  0  0  0  0  0  0
    0.1580    2.0970    0.2080 C   0  0  0  0  0  0  0  0  0  0  0  0
    1.5040    1.8610    0.4610 C   0  0  0  0  0  0  0  0  0  0  0  0
    2.0640    0.6130    0.2760 C   0  0  0  0  0  0  0  0  0  0  0  0
    3.4510    0.5370    0.5790 N   0  0  0  0  0  0  0  0  0  0  0  0
  1  2  1  0
  2  3  2  0
  2 18  1  0
  3  4  1  0
  4  5  2  0
  5  6  1  0
  6  7  2  0
  6 17  1  0
  7  8  1  0
  8  9  1  0
  8 15  2  0
 10  9  1  1
 10 11  1  0
 10 14  1  0
 11 12  1  0
 12 13  1  0
 13 14  1  0
 15 16  1  0
 16 17  2  0
 17 18  1  0
M  END
