
     RDKit          3D

 18 19  0  0  0  0  0  0  0  0999 V2000
    4.1330    2.0570   -0.0730 N   0  0  0  0  0  0  0  0  0  0  0  0
    4.2730    0.6280   -0.0330 C   0  0  0  0  0  0  0  0  0  0  0  0
    5.5600    0.0380   -0.0370 N   0  0  0  0  0  0  0  0  0  0  0  0
    3.1870   -0.1160    0.0060 C   0  0  0  0  0  0  0  0  0  0  0  0
    3.3040   -1.5540    0.0460 C   0  0  0  0  0  0  0  0  0  0  0  0
    2.2610   -2.2920    0.0850 N   0  0  0  0  0  0  0  0  0  0  0  0
    0.9570   -1.6870    0.0880 C   0  0  0  0  0  0  0  0  0  0  0  0
    0.0950   -1.8470   -0.9770 C   0  0  0  0  0  0  0  0  0  0  0  0
   -1.1240   -1.3090   -1.0260 N   0  0  0  0  0  0  0  0  0  0  0  0
   -1.5640   -0.5530    0.0280 C   0  0  0  0  0  0  0  0  0  0  0  0
   -2.9140    0.0290   -0.0520 C   0  0  0  0  0  0  0  0  0  0  0  0
   -3.3890    0.7560    0.9160 C   0  0  0  0  0  0  0  0  0  0  0  0
   -4.7480    1.3540    0.8590 C   0  0  0  0  0  0  0  0  0  0  0  0
   -5.4590    1.0770   -0.2960 O   0  0  0  0  0  0  0  0  0  0  0  0
   -4.9650    0.3040   -1.3340 C   0  0  0  0  0  0  0  0  0  0  0  0
   -3.7470   -0.2050   -1.2330 C   0  0  0  0  0  0  0  0  0  0  0  0
   -0.7180   -0.3910    1.0830 C   0  0  0  0  0  0  0  0  0  0  0  0
    0.5270   -0.9490    1.1150 N   0  0  0  0  0  0  0  0  0  0  0  0
  1  2  1  0
  2  3  1  0
  2  4  2  3
  4  5  1  0
  5  6  2  3
  6  7  1  0
  7  8  2  0
  7 18  1  0
  8  9  1  0
  9 10  2  0
 10 11  1  0
 10 17  1  0
 11 12  2  0
 11 16  1  0
 12 13  1  0
 13 14  1  0
 14 15  1  0
 15 16  2  0
 17 18  2  0
M  END
