
     RDKit          3D

 22 23  0  0  0  0  0  0  0  0999 V2000
    2.7390    1.0320    3.1250 C   0  0  0  0  0  0  0  0  0  0  0  0
    2.4190    0.1680    2.0480 O   0  0  0  0  0  0  0  0  0  0  0  0
    1.3180    0.3590    1.2410 C   0  0  0  0  0  0  0  0  0  0  0  0
    0.6100    1.3350    1.5050 O   0  0  0  0  0  0  0  0  0  0  0  0
    0.9980   -0.5730    0.0740 C   0  0  0  0  0  0  0  0  0  0  0  0
    1.8240   -1.5890   -0.0630 C   0  0  0  0  0  0  0  0  0  0  0  0
    2.6450   -2.4500    0.6320 N   0  0  0  0  0  0  0  0  0  0  0  0
    2.5920   -2.7800    1.9790 C   0  0  0  0  0  0  0  0  0  0  0  0
    3.5450   -3.6700    2.6010 N   0  0  0  0  0  0  0  0  0  0  0  0
    1.7190   -2.3270    2.7240 O   0  0  0  0  0  0  0  0  0  0  0  0
    1.4390   -2.1340   -1.8130 S   0  0  0  0  0  0  0  0  0  0  0  0
    0.1880   -0.9010   -2.1040 C   0  0  0  0  0  0  0  0  0  0  0  0
   -0.6120   -0.7490   -3.3150 C   0  0  0  0  0  0  0  0  0  0  0  0
    0.1380   -0.1490   -0.8620 C   0  0  0  0  0  0  0  0  0  0  0  0
   -0.9910    0.8240   -0.7270 C   0  0  0  0  0  0  0  0  0  0  0  0
   -1.3110    1.6280   -1.7540 C   0  0  0  0  0  0  0  0  0  0  0  0
   -2.4380    2.5950   -1.6260 C   0  0  0  0  0  0  0  0  0  0  0  0
   -3.6270    2.0850   -0.9090 C   0  0  0  0  0  0  0  0  0  0  0  0
   -3.3390    0.7270   -0.3200 C   0  0  0  0  0  0  0  0  0  0  0  0
   -1.9360    0.8970    0.3950 C   0  0  1  0  0  0  0  0  0  0  0  0
   -1.8430   -0.0830    1.3320 F   0  0  0  0  0  0  0  0  0  0  0  0
   -2.0600    2.1330    0.9830 F   0  0  0  0  0  0  0  0  0  0  0  0
  1  2  1  0
  2  3  1  0
  3  4  2  0
  3  5  1  0
  5  6  2  0
  5 14  1  0
  6  7  1  0
  6 11  1  0
  7  8  1  0
  8  9  1  0
  8 10  2  0
 11 12  1  0
 12 13  1  0
 12 14  2  0
 14 15  1  0
 15 16  2  0
 15 20  1  0
 16 17  1  0
 17 18  1  0
 18 19  1  0
 19 20  1  0
 20 21  1  1
 20 22  1  0
M  END
