
     RDKit          3D

 22 23  0  0  0  0  0  0  0  0999 V2000
    2.9520   -0.4660   -2.3160 C   0  0  0  0  0  0  0  0  0  0  0  0
    3.5520   -0.3950   -1.1310 C   0  0  0  0  0  0  0  0  0  0  0  0
    4.7400   -1.1440   -1.0680 O   0  0  0  0  0  0  0  0  0  0  0  0
    3.0400    0.3720   -0.0180 C   0  0  0  0  0  0  0  0  0  0  0  0
    3.6850    0.3880    1.1260 C   0  0  0  0  0  0  0  0  0  0  0  0
    4.9250   -0.2940    1.4790 C   0  0  1  0  0  0  0  0  0  0  0  0
    4.6920   -1.6740    1.4100 F   0  0  0  0  0  0  0  0  0  0  0  0
    6.0170    0.0880    0.7340 F   0  0  0  0  0  0  0  0  0  0  0  0
    1.5680    1.3130   -0.1500 S   0  0  1  0  0  0  0  0  0  0  0  0
    1.6410    2.4080    0.9210 O   0  0  0  0  0  0  0  0  0  0  0  0
    1.5650    2.0280   -1.4370 O   0  0  0  0  0  0  0  0  0  0  0  0
    0.2340    0.3640    0.2170 N   0  0  0  0  0  0  0  0  0  0  0  0
   -0.0220   -0.7590   -0.5970 C   0  0  0  0  0  0  0  0  0  0  0  0
   -1.2900   -1.4980   -0.2380 C   0  0  0  0  0  0  0  0  0  0  0  0
   -2.4440   -0.5690   -0.1090 C   0  0  0  0  0  0  0  0  0  0  0  0
   -3.6890   -0.9160   -0.5540 C   0  0  0  0  0  0  0  0  0  0  0  0
   -4.7470   -0.0360   -0.4250 C   0  0  0  0  0  0  0  0  0  0  0  0
   -6.0500   -0.3830   -0.8830 N   0  0  0  0  0  0  0  0  0  0  0  0
   -4.4990    1.1950    0.1650 C   0  0  0  0  0  0  0  0  0  0  0  0
   -3.2490    1.5340    0.6080 C   0  0  0  0  0  0  0  0  0  0  0  0
   -2.1890    0.6520    0.4790 C   0  0  0  0  0  0  0  0  0  0  0  0
   -0.8320    0.9490    0.9300 C   0  0  0  0  0  0  0  0  0  0  0  0
  1  2  2  0
  2  3  1  0
  2  4  1  0
  4  5  2  3
  4  9  1  0
  5  6  1  0
  6  7  1  6
  6  8  1  0
  9 10  2  0
  9 11  2  0
  9 12  1  1
 12 13  1  0
 12 22  1  0
 13 14  1  0
 14 15  1  0
 15 16  2  0
 15 21  1  0
 16 17  1  0
 17 18  1  0
 17 19  2  0
 19 20  1  0
 20 21  2  0
 21 22  1  0
M  END
