
     RDKit          3D

 21 22  0  0  0  0  0  0  0  0999 V2000
    6.0210    1.5810    0.0310 C   0  0  0  0  0  0  0  0  0  0  0  0
    4.5560    1.2600    0.1890 C   0  0  0  0  0  0  0  0  0  0  0  0
    3.7900    2.1990    0.4880 O   0  0  0  0  0  0  0  0  0  0  0  0
    4.0650   -0.0390    0.0080 N   0  0  0  0  0  0  0  0  0  0  0  0
    2.7170   -0.4340    0.1370 C   0  0  0  0  0  0  0  0  0  0  0  0
    1.6910    0.3300    0.6210 C   0  0  0  0  0  0  0  0  0  0  0  0
    0.3660   -0.1350    0.7070 C   0  0  0  0  0  0  0  0  0  0  0  0
    0.0570   -1.4050    0.2950 C   0  0  0  0  0  0  0  0  0  0  0  0
   -1.2400   -1.9550    0.3170 N   0  0  0  0  0  0  0  0  0  0  0  0
   -2.4390   -1.1960    0.2800 C   0  0  0  0  0  0  0  0  0  0  0  0
   -3.6180   -1.7360    0.8170 C   0  0  0  0  0  0  0  0  0  0  0  0
   -4.7870   -1.0170    0.7560 C   0  0  0  0  0  0  0  0  0  0  0  0
   -5.9010   -1.6010    1.2990 F   0  0  0  0  0  0  0  0  0  0  0  0
   -4.8310    0.2360    0.1730 C   0  0  0  0  0  0  0  0  0  0  0  0
   -3.6970    0.7950   -0.3630 C   0  0  0  0  0  0  0  0  0  0  0  0
   -3.7150    2.3920   -1.1150 S   0  0  1  0  0  0  0  0  0  0  0  0
   -2.4390    2.6040   -1.8440 O   0  0  0  0  0  0  0  0  0  0  0  0
   -4.9000    2.5580   -2.0110 O   0  0  0  0  0  0  0  0  0  0  0  0
   -2.5210    0.0510   -0.2920 C   0  0  0  0  0  0  0  0  0  0  0  0
    1.0920   -2.1800   -0.1930 C   0  0  0  0  0  0  0  0  0  0  0  0
    2.3680   -1.7400   -0.2780 C   0  0  0  0  0  0  0  0  0  0  0  0
  1  2  1  0
  2  3  2  0
  2  4  1  0
  4  5  1  0
  5  6  2  0
  5 21  1  0
  6  7  1  0
  7  8  2  0
  8  9  1  0
  8 20  1  0
  9 10  1  0
 10 11  2  0
 10 19  1  0
 11 12  1  0
 12 13  1  0
 12 14  2  0
 14 15  1  0
 16 15  1  6
 15 19  2  0
 16 17  2  0
 16 18  2  0
 20 21  2  0
M  END
