
     RDKit          3D

 22 23  0  0  0  0  0  0  0  0999 V2000
    0.0410   -0.3450    2.0120 C   0  0  0  0  0  0  0  0  0  0  0  0
   -0.5870   -0.1490    0.7000 C   0  0  0  0  0  0  0  0  0  0  0  0
   -1.9740   -0.0770    0.5860 C   0  0  0  0  0  0  0  0  0  0  0  0
   -2.5930    0.1070   -0.6260 C   0  0  0  0  0  0  0  0  0  0  0  0
   -3.9930    0.1980   -0.7260 N   0  0  0  0  0  0  0  0  0  0  0  0
   -4.8720    0.4770    0.3230 C   0  0  0  0  0  0  0  0  0  0  0  0
   -4.4500    0.6810    1.4780 O   0  0  0  0  0  0  0  0  0  0  0  0
   -6.3740    0.5350    0.0640 C   0  0  2  0  0  0  0  0  0  0  0  0
   -6.8110   -0.6810   -0.4210 F   0  0  0  0  0  0  0  0  0  0  0  0
   -6.6860    1.5390   -0.7990 F   0  0  0  0  0  0  0  0  0  0  0  0
   -1.7950    0.2210   -1.7570 C   0  0  0  0  0  0  0  0  0  0  0  0
   -0.4260    0.1490   -1.6380 C   0  0  0  0  0  0  0  0  0  0  0  0
    0.2000   -0.0340   -0.4280 C   0  0  0  0  0  0  0  0  0  0  0  0
    1.6020   -0.1130   -0.2600 N   0  0  0  0  0  0  0  0  0  0  0  0
    2.5840   -0.0230   -1.2580 C   0  0  0  0  0  0  0  0  0  0  0  0
    2.2530    0.1460   -2.4480 O   0  0  0  0  0  0  0  0  0  0  0  0
    4.0300   -0.1300   -0.8940 C   0  0  0  0  0  0  0  0  0  0  0  0
    4.4520   -0.3020    0.3050 C   0  0  0  0  0  0  0  0  0  0  0  0
    5.9110   -0.3920    0.5380 C   0  0  0  0  0  0  0  0  0  0  0  0
    6.5080   -0.7470   -1.1430 S   0  0  0  0  0  0  0  0  0  0  0  0
    5.0530   -0.0360   -1.9430 C   0  0  0  0  0  0  0  0  0  0  0  0
    4.9890    0.4070   -3.0970 O   0  0  0  0  0  0  0  0  0  0  0  0
  1  2  1  0
  2  3  2  0
  2 13  1  0
  3  4  1  0
  4  5  1  0
  4 11  2  0
  5  6  1  0
  6  7  2  0
  6  8  1  0
  8  9  1  6
  8 10  1  0
 11 12  1  0
 12 13  2  0
 13 14  1  0
 14 15  1  0
 15 16  2  0
 15 17  1  0
 17 18  2  0
 17 21  1  0
 18 19  1  0
 19 20  1  0
 20 21  1  0
 21 22  2  0
M  END
