
     RDKit          3D

 22 23  0  0  0  0  0  0  0  0999 V2000
   -1.7960   -1.9700   -0.3290 O   0  0  0  0  0  0  0  0  0  0  0  0
   -1.5440   -0.7480   -0.2190 C   0  0  0  0  0  0  0  0  0  0  0  0
   -0.2340   -0.3660    0.1000 N   0  0  0  0  0  0  0  0  0  0  0  0
    0.8580   -1.2460    0.3240 C   0  0  0  0  0  0  0  0  0  0  0  0
    0.7120   -2.5930    0.4970 C   0  0  0  0  0  0  0  0  0  0  0  0
    1.7570   -3.4790    0.7770 C   0  0  0  0  0  0  0  0  0  0  0  0
    3.0060   -2.9600    0.8840 C   0  0  0  0  0  0  0  0  0  0  0  0
    3.2120   -1.6040    0.7190 C   0  0  0  0  0  0  0  0  0  0  0  0
    2.1800   -0.7330    0.4420 C   0  0  0  0  0  0  0  0  0  0  0  0
    2.3810    0.6500    0.2140 N   0  0  0  0  0  0  0  0  0  0  0  0
    3.5750    1.3610    0.4530 C   0  0  0  0  0  0  0  0  0  0  0  0
    4.5710    0.7980    0.9050 O   0  0  0  0  0  0  0  0  0  0  0  0
    3.6490    2.8470    0.1530 C   0  0  1  0  0  0  0  0  0  0  0  0
    2.7090    3.5030    0.9080 F   0  0  0  0  0  0  0  0  0  0  0  0
    4.9150    3.2660    0.4820 F   0  0  0  0  0  0  0  0  0  0  0  0
   -2.6420    0.2460   -0.4330 C   0  0  0  0  0  0  0  0  0  0  0  0
   -2.4520    1.5380   -0.3360 C   0  0  0  0  0  0  0  0  0  0  0  0
   -3.3830    2.6510   -0.5050 C   0  0  0  0  0  0  0  0  0  0  0  0
   -5.0380    2.1310   -0.9100 S   0  0  0  0  0  0  0  0  0  0  0  0
   -5.0200    0.3500   -0.9790 C   0  0  0  0  0  0  0  0  0  0  0  0
   -3.9430   -0.3700   -0.7590 C   0  0  0  0  0  0  0  0  0  0  0  0
   -4.0910   -1.7740   -0.8510 O   0  0  0  0  0  0  0  0  0  0  0  0
  1  2  2  0
  2  3  1  0
  2 16  1  0
  3  4  1  0
  4  5  2  0
  4  9  1  0
  5  6  1  0
  6  7  2  0
  7  8  1  0
  8  9  2  0
  9 10  1  0
 10 11  1  0
 11 12  2  0
 11 13  1  0
 13 14  1  1
 13 15  1  0
 16 17  2  0
 16 21  1  0
 17 18  1  0
 18 19  1  0
 19 20  1  0
 20 21  2  0
 21 22  1  0
M  END
