
     RDKit          3D

 22 23  0  0  0  0  0  0  0  0999 V2000
    6.8150    1.0020   -0.7520 C   0  0  0  0  0  0  0  0  0  0  0  0
    5.4790    0.5610   -0.2740 C   0  0  0  0  0  0  0  0  0  0  0  0
    5.0520   -0.2290    0.7220 C   0  0  0  0  0  0  0  0  0  0  0  0
    3.7240   -0.4450    0.9080 C   0  0  0  0  0  0  0  0  0  0  0  0
    3.2540   -1.3460    2.0530 C   0  0  1  0  0  0  0  0  0  0  0  0
    2.5680   -0.6580    2.9950 F   0  0  0  0  0  0  0  0  0  0  0  0
    2.7240   -2.4920    1.5570 F   0  0  0  0  0  0  0  0  0  0  0  0
    2.8410    0.1330    0.0940 C   0  0  0  0  0  0  0  0  0  0  0  0
    1.4810    0.2410   -0.1540 N   0  0  0  0  0  0  0  0  0  0  0  0
    0.3540   -0.2950    0.4220 C   0  0  0  0  0  0  0  0  0  0  0  0
    0.3780   -1.0620    1.3800 O   0  0  0  0  0  0  0  0  0  0  0  0
   -1.0130    0.0370   -0.1020 C   0  0  0  0  0  0  0  0  0  0  0  0
   -1.3040    0.8660   -1.1600 C   0  0  0  0  0  0  0  0  0  0  0  0
   -2.6730    0.8750   -1.2820 C   0  0  0  0  0  0  0  0  0  0  0  0
   -3.1810    0.0500   -0.2950 C   0  0  0  0  0  0  0  0  0  0  0  0
   -4.6030   -0.2380   -0.0530 C   0  0  0  0  0  0  0  0  0  0  0  0
   -5.5410    0.3020   -0.8010 C   0  0  0  0  0  0  0  0  0  0  0  0
   -6.9310   -0.0180   -0.5160 C   0  0  0  0  0  0  0  0  0  0  0  0
   -7.2800   -0.8890    0.5410 N   0  0  0  0  0  0  0  0  0  0  0  0
   -7.8210    0.5050   -1.2400 O   0  0  0  0  0  0  0  0  0  0  0  0
   -2.1490   -0.4080    0.3590 O   0  0  0  0  0  0  0  0  0  0  0  0
    3.9810    1.0810   -1.0570 S   0  0  0  0  0  0  0  0  0  0  0  0
  1  2  1  0
  2  3  2  0
  2 22  1  0
  3  4  1  0
  4  5  1  0
  4  8  2  0
  5  6  1  6
  5  7  1  0
  8  9  1  0
  8 22  1  0
  9 10  1  0
 10 11  2  0
 10 12  1  0
 12 13  2  0
 12 21  1  0
 13 14  1  0
 14 15  2  0
 15 16  1  0
 15 21  1  0
 16 17  2  3
 17 18  1  0
 18 19  1  0
 18 20  2  0
M  END
