
     RDKit          3D

 12 12  0  0  0  0  0  0  0  0999 V2000
    3.6180   -0.1150    0.2870 O   0  0  0  0  0  0  0  0  0  0  0  0
    3.1600   -0.3740   -1.0250 C   0  0  0  0  0  0  0  0  0  0  0  0
    1.9390    0.2450   -1.2590 O   0  0  0  0  0  0  0  0  0  0  0  0
    1.0010   -0.2310   -0.3600 C   0  0  2  0  0  0  0  0  0  0  0  0
   -0.2380   -0.7630   -1.0500 C   0  0  0  0  0  0  0  0  0  0  0  0
   -1.3430   -0.0910   -0.2860 C   0  0  2  0  0  0  0  0  0  0  0  0
   -2.3190   -0.9860    0.1090 O   0  0  0  0  0  0  0  0  0  0  0  0
   -1.9050    1.0860   -1.0550 C   0  0  0  0  0  0  0  0  0  0  0  0
   -2.8090    1.7890   -0.2960 O   0  0  0  0  0  0  0  0  0  0  0  0
   -0.6240    0.3830    0.9600 C   0  0  1  0  0  0  0  0  0  0  0  0
   -0.3680   -0.7440    1.7650 O   0  0  0  0  0  0  0  0  0  0  0  0
    0.5870    0.8340    0.4360 O   0  0  0  0  0  0  0  0  0  0  0  0
  1  2  1  0
  2  3  1  0
  4  3  1  6
  4  5  1  0
  4 12  1  0
  5  6  1  0
  6  7  1  1
  6  8  1  0
  6 10  1  0
  8  9  1  0
 10 11  1  1
 10 12  1  0
M  END
