
     RDKit          3D

 22 23  0  0  0  0  0  0  0  0999 V2000
    5.9890    1.3020   -0.0100 N   0  0  0  0  0  0  0  0  0  0  0  0
    5.5550   -0.3030    0.4120 S   0  0  1  0  0  0  0  0  0  0  0  0
    6.2020   -1.2280   -0.5830 O   0  0  0  0  0  0  0  0  0  0  0  0
    6.1180   -0.5970    1.7730 O   0  0  0  0  0  0  0  0  0  0  0  0
    3.8140   -0.4760    0.3890 C   0  0  0  0  0  0  0  0  0  0  0  0
    3.0560   -0.2340    1.5220 C   0  0  0  0  0  0  0  0  0  0  0  0
    1.6860   -0.3760    1.4870 C   0  0  0  0  0  0  0  0  0  0  0  0
    1.0000   -0.7560    0.3540 C   0  0  0  0  0  0  0  0  0  0  0  0
   -0.4640   -0.8880    0.3870 C   0  0  0  0  0  0  0  0  0  0  0  0
   -1.0800   -0.6310    1.4790 O   0  0  0  0  0  0  0  0  0  0  0  0
   -1.2500   -1.2820   -0.7130 N   0  0  0  0  0  0  0  0  0  0  0  0
   -2.6770   -1.3890   -0.6450 C   0  0  0  0  0  0  0  0  0  0  0  0
   -3.4340   -0.1430   -0.5210 C   0  0  0  0  0  0  0  0  0  0  0  0
   -4.8350   -0.2160   -0.3730 C   0  0  0  0  0  0  0  0  0  0  0  0
   -5.3990   -1.4650   -0.3200 F   0  0  0  0  0  0  0  0  0  0  0  0
   -5.5660    0.9250   -0.2910 C   0  0  0  0  0  0  0  0  0  0  0  0
   -4.9600    2.1770   -0.3490 C   0  0  0  0  0  0  0  0  0  0  0  0
   -3.5970    2.2910   -0.4930 C   0  0  0  0  0  0  0  0  0  0  0  0
   -2.8630    1.0980   -0.5770 C   0  0  0  0  0  0  0  0  0  0  0  0
   -1.5230    1.2370   -0.7590 F   0  0  0  0  0  0  0  0  0  0  0  0
    1.7450   -0.9990   -0.7760 C   0  0  0  0  0  0  0  0  0  0  0  0
    3.1310   -0.8570   -0.7460 C   0  0  0  0  0  0  0  0  0  0  0  0
  2  1  1  6
  2  3  2  0
  2  4  2  0
  2  5  1  0
  5  6  2  0
  5 22  1  0
  6  7  1  0
  7  8  2  0
  8  9  1  0
  8 21  1  0
  9 10  2  0
  9 11  1  0
 11 12  1  0
 12 13  1  0
 13 14  2  0
 13 19  1  0
 14 15  1  0
 14 16  1  0
 16 17  2  0
 17 18  1  0
 18 19  2  0
 19 20  1  0
 21 22  2  0
M  END
