
     RDKit          3D

 18 19  0  0  0  0  0  0  0  0999 V2000
   -5.2090    3.0160   -0.1150 O   0  0  0  0  0  0  0  0  0  0  0  0
   -4.4750    2.0390   -0.2310 C   0  0  0  0  0  0  0  0  0  0  0  0
   -3.1030    1.9990   -0.2010 O   0  0  0  0  0  0  0  0  0  0  0  0
   -2.5780    0.8000    0.2700 C   0  0  2  0  0  0  0  0  0  0  0  0
   -1.1220    0.7700   -0.0690 C   0  0  0  0  0  0  0  0  0  0  0  0
   -0.5640    1.6950   -0.6670 O   0  0  0  0  0  0  0  0  0  0  0  0
   -0.4040   -0.3870    0.3350 N   0  0  0  0  0  0  0  0  0  0  0  0
    0.9700   -0.6350    0.1250 C   0  0  0  0  0  0  0  0  0  0  0  0
    1.8310    0.2200   -0.5120 C   0  0  0  0  0  0  0  0  0  0  0  0
    3.1840   -0.0510   -0.7060 C   0  0  0  0  0  0  0  0  0  0  0  0
    4.2460    1.0930   -1.5350 S   0  0  0  0  0  0  0  0  0  0  0  0
    3.3870    2.4990   -2.0290 O   0  0  0  0  0  0  0  0  0  0  0  0
    3.6830   -1.2250   -0.2400 C   0  0  0  0  0  0  0  0  0  0  0  0
    2.8690   -2.1170    0.4030 C   0  0  0  0  0  0  0  0  0  0  0  0
    1.5080   -1.8280    0.5900 C   0  0  0  0  0  0  0  0  0  0  0  0
    0.8010   -2.7950    1.2450 O   0  0  0  0  0  0  0  0  0  0  0  0
   -3.2730   -0.3530   -0.4710 C   0  0  0  0  0  0  0  0  0  0  0  0
   -4.9820    0.3500   -0.4750 S   0  0  0  0  0  0  0  0  0  0  0  0
  1  2  2  0
  2  3  1  0
  2 18  1  0
  3  4  1  0
  4  5  1  6
  4 17  1  0
  5  6  2  0
  5  7  1  0
  7  8  1  0
  8  9  2  0
  8 15  1  0
  9 10  1  0
 10 11  1  0
 10 13  2  0
 11 12  1  0
 13 14  1  0
 14 15  2  0
 15 16  1  0
 17 18  1  0
M  END
