
     RDKit          3D

 18 18  0  0  0  0  0  0  0  0999 V2000
    4.9040    1.8020    0.4330 C   0  0  0  0  0  0  0  0  0  0  0  0
    4.2550    0.6850    0.0470 C   0  0  0  0  0  0  0  0  0  0  0  0
    2.8510    0.4990    0.1750 C   0  0  0  0  0  0  0  0  0  0  0  0
    2.3300   -0.6320   -0.2360 C   0  0  0  0  0  0  0  0  0  0  0  0
    0.9220   -1.0410   -0.2030 C   0  0  0  0  0  0  0  0  0  0  0  0
    0.6440   -2.1780   -0.6530 O   0  0  0  0  0  0  0  0  0  0  0  0
   -0.0710   -0.2200    0.2990 O   0  0  0  0  0  0  0  0  0  0  0  0
   -1.3940   -0.6850    0.2950 C   0  0  1  0  0  0  0  0  0  0  0  0
   -1.8450   -0.7460    1.7180 C   0  0  0  0  0  0  0  0  0  0  0  0
   -3.1640   -1.1910    1.9960 N   0  0  0  0  0  0  0  0  0  0  0  0
   -1.1130   -0.4230    2.6750 O   0  0  0  0  0  0  0  0  0  0  0  0
   -2.3170    0.2690   -0.3860 C   0  0  0  0  0  0  0  0  0  0  0  0
   -1.9280    1.3530   -0.8860 O   0  0  0  0  0  0  0  0  0  0  0  0
   -3.6570   -0.0490   -0.4710 O   0  0  0  0  0  0  0  0  0  0  0  0
   -4.6180    0.7830   -1.0940 C   0  0  0  0  0  0  0  0  0  0  0  0
    3.6830   -1.6220   -0.8650 S   0  0  0  0  0  0  0  0  0  0  0  0
    4.9660   -0.4330   -0.5420 C   0  0  0  0  0  0  0  0  0  0  0  0
    6.5370   -0.5960   -0.8460 S   0  0  0  0  0  0  0  0  0  0  0  0
  1  2  2  0
  2  3  1  0
  2 17  1  0
  3  4  2  0
  4  5  1  0
  4 16  1  0
  5  6  2  0
  5  7  1  0
  8  7  1  1
  8  9  1  0
  8 12  1  0
  9 10  1  0
  9 11  2  0
 12 13  2  0
 12 14  1  0
 14 15  1  0
 16 17  1  0
 17 18  2  0
M  END
