
     RDKit          3D

 19 21  0  0  0  0  0  0  0  0999 V2000
   -5.7170    1.6090    0.2830 N   0  0  0  0  0  0  0  0  0  0  0  0
   -4.9210    0.5120   -0.1350 C   0  0  0  0  0  0  0  0  0  0  0  0
   -3.5430    0.5950   -0.0510 C   0  0  0  0  0  0  0  0  0  0  0  0
   -2.7830   -0.4770   -0.4600 C   0  0  0  0  0  0  0  0  0  0  0  0
   -1.3240   -0.4980   -0.4150 C   0  0  0  0  0  0  0  0  0  0  0  0
   -0.7480    0.6790    0.0860 O   0  0  0  0  0  0  0  0  0  0  0  0
    0.6460    0.7330    0.1600 C   0  0  0  0  0  0  0  0  0  0  0  0
    1.2970    1.8630    0.6440 C   0  0  0  0  0  0  0  0  0  0  0  0
    2.6720    1.9290    0.7220 C   0  0  0  0  0  0  0  0  0  0  0  0
    3.4240    0.8450    0.3080 C   0  0  0  0  0  0  0  0  0  0  0  0
    2.8230   -0.2960   -0.1800 C   0  0  0  0  0  0  0  0  0  0  0  0
    1.4480   -0.3160   -0.2380 C   0  0  0  0  0  0  0  0  0  0  0  0
    3.6010   -1.3440   -0.5790 O   0  0  0  0  0  0  0  0  0  0  0  0
    4.9620   -1.5070   -0.3530 C   0  0  0  0  0  0  0  0  0  0  0  0
    5.6370   -0.3430    0.2890 C   0  0  0  0  0  0  0  0  0  0  0  0
    4.8460    0.8440    0.3590 N   0  0  0  0  0  0  0  0  0  0  0  0
   -3.4550   -1.5810   -0.9350 C   0  0  0  0  0  0  0  0  0  0  0  0
   -4.8250   -1.6230   -1.0020 C   0  0  0  0  0  0  0  0  0  0  0  0
   -5.5570   -0.5800   -0.6040 N   0  0  0  0  0  0  0  0  0  0  0  0
  1  2  1  0
  2  3  2  0
  2 19  1  0
  3  4  1  0
  4  5  1  0
  4 17  2  0
  5  6  1  0
  6  7  1  0
  7  8  2  0
  7 12  1  0
  8  9  1  0
  9 10  2  0
 10 11  1  0
 10 16  1  0
 11 12  2  0
 11 13  1  0
 13 14  1  0
 14 15  1  0
 15 16  1  0
 17 18  1  0
 18 19  2  0
M  CHG  1  19   1
M  END
