
     RDKit          3D

 18 20  0  0  0  0  0  0  0  0999 V2000
    1.6990   -0.5520   -1.8250 C   0  0  0  0  0  0  0  0  0  0  0  0
    2.4160    0.0770   -0.9310 C   0  0  0  0  0  0  0  0  0  0  0  0
    3.6560    0.7760   -1.4380 C   0  0  0  0  0  0  0  0  0  0  0  0
    4.8000    0.3860   -0.5310 C   0  0  0  0  0  0  0  0  0  0  0  0
    5.8840    0.0610   -1.0240 O   0  0  0  0  0  0  0  0  0  0  0  0
    4.5490    0.4220    0.8720 N   0  0  0  0  0  0  0  0  0  0  0  0
    3.2420    0.2950    1.3940 C   0  0  0  0  0  0  0  0  0  0  0  0
    3.1030    0.3390    2.6430 O   0  0  0  0  0  0  0  0  0  0  0  0
    2.0690    0.1140    0.4760 C   0  0  0  0  0  0  0  0  0  0  0  0
    0.9020    0.0380    1.0010 C   0  0  0  0  0  0  0  0  0  0  0  0
   -0.4620   -0.1050    0.5580 C   0  0  0  0  0  0  0  0  0  0  0  0
   -1.1380   -1.1280   -0.0330 C   0  0  0  0  0  0  0  0  0  0  0  0
   -2.4600   -0.7810   -0.2610 C   0  0  0  0  0  0  0  0  0  0  0  0
   -2.5860    0.5010    0.2120 C   0  0  0  0  0  0  0  0  0  0  0  0
   -1.4080    0.8870    0.6880 N   0  0  0  0  0  0  0  0  0  0  0  0
   -4.0240    0.8850   -0.0210 C   0  0  0  0  0  0  0  0  0  0  0  0
   -4.6890   -0.4130   -0.0190 N   0  0  0  0  0  0  0  0  0  0  0  0
   -3.7740   -1.2150   -0.7990 C   0  0  0  0  0  0  0  0  0  0  0  0
  1  2  2  0
  2  3  1  0
  2  9  1  0
  3  4  1  0
  4  5  2  0
  4  6  1  0
  6  7  1  0
  7  8  2  0
  7  9  1  0
  9 10  2  3
 10 11  1  0
 11 12  2  0
 11 15  1  0
 12 13  1  0
 13 14  2  0
 13 18  1  0
 14 15  1  0
 14 16  1  0
 16 17  1  0
 17 18  1  0
M  CHG  1  17   1
M  END
