
     RDKit          3D

 19 21  0  0  0  0  0  0  0  0999 V2000
    5.3900    2.3220   -0.4990 O   0  0  0  0  0  0  0  0  0  0  0  0
    4.6070    1.3490   -0.6390 C   0  0  0  0  0  0  0  0  0  0  0  0
    4.7580    0.1800    0.2440 C   0  0  0  0  0  0  0  0  0  0  0  0
    3.5180   -0.5810    0.5290 C   0  0  0  0  0  0  0  0  0  0  0  0
    2.3730   -0.3840   -0.4790 C   0  0  1  0  0  0  0  0  0  0  0  0
    1.3350    0.3440    0.1240 N   0  0  0  0  0  0  0  0  0  0  0  0
    0.0220    0.3500   -0.4200 C   0  0  0  0  0  0  0  0  0  0  0  0
   -0.8980   -0.3580    0.5470 C   0  0  0  0  0  0  0  0  0  0  0  0
   -0.4010   -1.0890    1.6480 C   0  0  0  0  0  0  0  0  0  0  0  0
   -1.4410   -1.6720    2.2150 N   0  0  0  0  0  0  0  0  0  0  0  0
   -2.5590   -1.3490    1.5420 C   0  0  0  0  0  0  0  0  0  0  0  0
   -2.2320   -0.4940    0.4590 C   0  0  0  0  0  0  0  0  0  0  0  0
   -3.2390    0.0820   -0.4460 C   0  0  0  0  0  0  0  0  0  0  0  0
   -3.1240    0.8400   -1.4820 C   0  0  0  0  0  0  0  0  0  0  0  0
   -4.4080    1.1630   -2.0540 N   0  0  0  0  0  0  0  0  0  0  0  0
   -5.3540    0.5100   -1.2350 C   0  0  0  0  0  0  0  0  0  0  0  0
   -4.6870   -0.1270   -0.2920 C   0  0  0  0  0  0  0  0  0  0  0  0
    2.9670    0.0530   -1.7710 C   0  0  0  0  0  0  0  0  0  0  0  0
    3.6030    1.3310   -1.5940 O   0  0  0  0  0  0  0  0  0  0  0  0
  1  2  2  0
  2  3  1  0
  2 19  1  0
  3  4  1  0
  4  5  1  0
  5  6  1  1
  5 18  1  0
  6  7  1  0
  7  8  1  0
  8  9  2  0
  8 12  1  0
  9 10  1  0
 10 11  1  0
 11 12  2  0
 12 13  1  0
 13 14  2  0
 13 17  1  0
 14 15  1  0
 15 16  1  0
 16 17  2  0
 18 19  1  0
M  CHG  1  15   1
M  END
