
     RDKit          3D

 18 18  0  0  0  0  0  0  0  0999 V2000
    5.4830    0.5690   -0.9080 N   0  0  0  0  0  0  0  0  0  0  0  0
    5.6430   -0.2710    0.2260 C   0  0  0  0  0  0  0  0  0  0  0  0
    6.7180   -0.9340    0.3740 O   0  0  0  0  0  0  0  0  0  0  0  0
    4.3360   -0.3830    1.4240 S   0  0  0  0  0  0  0  0  0  0  0  0
    2.9570    0.6660    0.8990 C   0  0  0  0  0  0  0  0  0  0  0  0
    2.3720    0.0600   -0.3550 C   0  0  0  0  0  0  0  0  0  0  0  0
    1.7640   -1.6250   -0.0340 S   0  0  0  0  0  0  0  0  0  0  0  0
    0.3520   -1.5840    1.1050 C   0  0  0  0  0  0  0  0  0  0  0  0
   -0.7960   -0.8940    0.4150 C   0  0  0  0  0  0  0  0  0  0  0  0
   -0.6810   -0.4740   -0.7630 O   0  0  0  0  0  0  0  0  0  0  0  0
   -2.0000   -0.7080    1.0630 O   0  0  0  0  0  0  0  0  0  0  0  0
   -3.0250   -0.0670    0.3820 C   0  0  0  0  0  0  0  0  0  0  0  0
   -3.1000    1.2510    0.4730 C   0  0  0  0  0  0  0  0  0  0  0  0
   -4.1680    1.9590   -0.2330 C   0  0  0  0  0  0  0  0  0  0  0  0
   -5.0320    1.1390   -0.9550 O   0  0  0  0  0  0  0  0  0  0  0  0
   -4.9480   -0.2280   -1.0450 C   0  0  0  0  0  0  0  0  0  0  0  0
   -3.9770   -0.8430   -0.4020 C   0  0  0  0  0  0  0  0  0  0  0  0
   -3.8870   -2.2360   -0.4910 O   0  0  0  0  0  0  0  0  0  0  0  0
  1  2  1  0
  2  3  2  0
  2  4  1  0
  4  5  1  0
  5  6  1  0
  6  7  1  0
  7  8  1  0
  8  9  1  0
  9 10  2  0
  9 11  1  0
 11 12  1  0
 12 13  2  0
 12 17  1  0
 13 14  1  0
 14 15  1  0
 15 16  1  0
 16 17  2  0
 17 18  1  0
M  END
