
     RDKit          3D

 18 18  0  0  0  0  0  0  0  0999 V2000
    1.8760   -0.4570   -0.6110 O   0  0  0  0  0  0  0  0  0  0  0  0
    1.9000   -0.0990    0.5920 C   0  0  0  0  0  0  0  0  0  0  0  0
    3.1980    0.0880    1.2860 C   0  0  0  0  0  0  0  0  0  0  0  0
    4.2860   -0.1820    0.4340 O   0  0  0  0  0  0  0  0  0  0  0  0
    4.5310    0.5020   -0.7420 C   0  0  0  0  0  0  0  0  0  0  0  0
    3.7130    1.4160   -1.0410 O   0  0  0  0  0  0  0  0  0  0  0  0
    5.6880    0.1660   -1.5840 C   0  0  0  0  0  0  0  0  0  0  0  0
    6.3940   -0.8620   -1.0090 O   0  0  0  0  0  0  0  0  0  0  0  0
    0.6790    0.1280    1.2950 N   0  0  0  0  0  0  0  0  0  0  0  0
   -0.5620   -0.0570    0.6110 C   0  0  0  0  0  0  0  0  0  0  0  0
   -0.5200   -0.5170   -0.9350 S   0  0  0  0  0  0  0  0  0  0  0  0
   -2.0400    0.2260    1.4870 S   0  0  0  0  0  0  0  0  0  0  0  0
   -3.5660    0.0050    0.6650 C   0  0  0  0  0  0  0  0  0  0  0  0
   -4.6830    0.2280    1.3580 C   0  0  0  0  0  0  0  0  0  0  0  0
   -6.0110    0.0830    0.8020 C   0  0  0  0  0  0  0  0  0  0  0  0
   -6.0620   -0.3130   -0.5340 O   0  0  0  0  0  0  0  0  0  0  0  0
   -4.9330   -0.5500   -1.2720 C   0  0  0  0  0  0  0  0  0  0  0  0
   -3.7240   -0.4030   -0.7160 C   0  0  0  0  0  0  0  0  0  0  0  0
  1  2  2  0
  2  3  1  0
  2  9  1  0
  3  4  1  0
  4  5  1  0
  5  6  2  0
  5  7  1  0
  7  8  1  0
  9 10  1  0
 10 11  2  0
 10 12  1  0
 12 13  1  0
 13 14  2  0
 13 18  1  0
 14 15  1  0
 15 16  1  0
 16 17  1  0
 17 18  2  0
M  END
