
     RDKit          3D

 20 20  0  0  0  0  0  0  0  0999 V2000
    4.4140   -1.9500    2.6490 C   0  0  0  0  0  0  0  0  0  0  0  0
    4.5780   -0.7870    2.1110 C   0  0  0  0  0  0  0  0  0  0  0  0
    3.6000   -0.3240    1.0510 C   0  0  0  0  0  0  0  0  0  0  0  0
    3.8510    0.8420    0.5710 C   0  0  0  0  0  0  0  0  0  0  0  0
    3.2320    1.6930   -0.4330 C   0  0  0  0  0  0  0  0  0  0  0  0
    2.5340   -1.2580    0.7980 C   0  0  0  0  0  0  0  0  0  0  0  0
    1.4030   -0.9590   -0.0890 C   0  0  0  0  0  0  0  0  0  0  0  0
    0.4520    0.1100    0.3760 C   0  0  0  0  0  0  0  0  0  0  0  0
   -0.6480    0.3720   -0.6460 C   0  0  2  0  0  0  0  0  0  0  0  0
   -1.5510    1.4170   -0.1570 C   0  0  0  0  0  0  0  0  0  0  0  0
   -2.7500    1.2060    0.0670 O   0  0  0  0  0  0  0  0  0  0  0  0
   -1.0430    2.6900    0.0640 O   0  0  0  0  0  0  0  0  0  0  0  0
   -1.9250    3.6980    0.5400 C   0  0  0  0  0  0  0  0  0  0  0  0
   -1.2270    5.0060    0.7260 C   0  0  0  0  0  0  0  0  0  0  0  0
   -1.3500   -0.8630   -1.0570 C   0  0  2  0  0  0  0  0  0  0  0  0
   -2.4400   -0.5510   -2.0770 C   0  0  0  0  0  0  0  0  0  0  0  0
   -2.7330   -1.9210   -2.7280 C   0  0  0  0  0  0  0  0  0  0  0  0
   -3.4640   -2.7150   -1.6450 C   0  0  0  0  0  0  0  0  0  0  0  0
   -2.5060   -2.9410   -0.5010 C   0  0  0  0  0  0  0  0  0  0  0  0
   -2.0390   -1.6050    0.0640 C   0  0  0  0  0  0  0  0  0  0  0  0
  1  2  2  0
  2  3  1  0
  3  4  2  3
  3  6  1  0
  4  5  1  0
  6  7  1  0
  7  8  1  0
  9  8  1  1
  9 10  1  0
  9 15  1  0
 10 11  2  0
 10 12  1  0
 12 13  1  0
 13 14  1  0
 15 16  1  6
 15 20  1  0
 16 17  1  0
 17 18  1  0
 18 19  1  0
 19 20  1  0
M  END
