
     RDKit          3D

 20 20  0  0  0  0  0  0  0  0999 V2000
    6.9270    1.2900    1.0590 C   0  0  0  0  0  0  0  0  0  0  0  0
    5.9100    0.6050    0.5510 C   0  0  0  0  0  0  0  0  0  0  0  0
    4.5590    1.1940    0.5930 C   0  0  0  0  0  0  0  0  0  0  0  0
    4.0610    1.3300   -0.8330 C   0  0  0  0  0  0  0  0  0  0  0  0
    3.9860    0.0200   -1.5470 C   0  0  0  0  0  0  0  0  0  0  0  0
    3.0700   -0.9620   -0.8850 C   0  0  0  0  0  0  0  0  0  0  0  0
    1.6640   -0.4160   -0.8240 C   0  0  0  0  0  0  0  0  0  0  0  0
    0.8450   -1.3640   -0.2050 O   0  0  0  0  0  0  0  0  0  0  0  0
   -0.5030   -1.1240   -0.0170 C   0  0  0  0  0  0  0  0  0  0  0  0
   -1.0220    0.0740   -0.4540 C   0  0  0  0  0  0  0  0  0  0  0  0
   -2.3640    0.3190   -0.2700 C   0  0  0  0  0  0  0  0  0  0  0  0
   -3.1770   -0.6310    0.3490 C   0  0  0  0  0  0  0  0  0  0  0  0
   -4.6060   -0.3720    0.5280 C   0  0  2  0  0  0  0  0  0  0  0  0
   -5.4160   -1.3180   -0.0950 O   0  0  0  0  0  0  0  0  0  0  0  0
   -5.0400    1.0320    0.2180 C   0  0  0  0  0  0  0  0  0  0  0  0
   -4.4110    2.0670    1.0620 C   0  0  0  0  0  0  0  0  0  0  0  0
   -3.6230    1.7370    2.0650 C   0  0  0  0  0  0  0  0  0  0  0  0
   -2.6660   -1.8440    0.7940 C   0  0  0  0  0  0  0  0  0  0  0  0
   -3.5670   -2.8040    1.4360 C   0  0  0  0  0  0  0  0  0  0  0  0
   -1.3180   -2.0640    0.5970 C   0  0  0  0  0  0  0  0  0  0  0  0
  1  2  2  0
  2  3  1  0
  3  4  1  0
  4  5  1  0
  5  6  1  0
  6  7  1  0
  7  8  1  0
  8  9  1  0
  9 10  2  0
  9 20  1  0
 10 11  1  0
 11 12  2  0
 12 13  1  0
 12 18  1  0
 13 14  1  6
 13 15  1  0
 15 16  1  0
 16 17  2  0
 18 19  1  0
 18 20  2  0
M  END
