
     RDKit          3D

 20 20  0  0  0  0  0  0  0  0999 V2000
   -1.3240   -3.2590   -0.7510 C   0  0  0  0  0  0  0  0  0  0  0  0
   -1.1500   -1.9560   -1.0830 O   0  0  0  0  0  0  0  0  0  0  0  0
   -2.0180   -1.0450   -0.4250 C   0  0  1  0  0  0  0  0  0  0  0  0
   -3.4100   -1.4140   -0.7620 C   0  0  0  0  0  0  0  0  0  0  0  0
   -1.7270   -1.3760    1.0620 C   0  0  0  0  0  0  0  0  0  0  0  0
   -1.5690    0.2780   -0.8050 C   0  0  2  0  0  0  0  0  0  0  0  0
   -1.4850    0.1620   -2.2800 O   0  0  0  0  0  0  0  0  0  0  0  0
   -0.1600    0.5860   -0.4060 C   0  0  0  0  0  0  0  0  0  0  0  0
    0.8910   -0.2870   -0.9780 C   0  0  0  0  0  0  0  0  0  0  0  0
    2.2930    0.1610   -0.5600 C   0  0  0  0  0  0  0  0  0  0  0  0
    2.5000    0.1450    0.9220 C   0  0  0  0  0  0  0  0  0  0  0  0
    3.8880    0.5790    1.3190 C   0  0  0  0  0  0  0  0  0  0  0  0
    4.9730   -0.2790    0.7570 C   0  0  2  0  0  0  0  0  0  0  0  0
    4.9270   -1.7040    1.1450 C   0  0  0  0  0  0  0  0  0  0  0  0
    6.3000    0.3080    1.1910 C   0  0  0  0  0  0  0  0  0  0  0  0
   -2.3920    1.5020   -0.6960 C   0  0  1  0  0  0  0  0  0  0  0  0
   -3.6080    1.5860   -1.5450 C   0  0  0  0  0  0  0  0  0  0  0  0
   -4.7310    2.1620   -0.6980 C   0  0  0  0  0  0  0  0  0  0  0  0
   -3.9170    2.9580    0.3170 C   0  0  0  0  0  0  0  0  0  0  0  0
   -2.8860    1.8570    0.6710 C   0  0  0  0  0  0  0  0  0  0  0  0
  1  2  1  0
  2  3  1  0
  3  4  1  6
  3  5  1  0
  3  6  1  0
  6  7  1  6
  6  8  1  0
  6 16  1  0
  8  9  1  0
  9 10  1  0
 10 11  1  0
 11 12  1  0
 12 13  1  0
 13 14  1  1
 13 15  1  0
 16 17  1  6
 16 20  1  0
 17 18  1  0
 18 19  1  0
 19 20  1  0
M  END
