
     RDKit          3D

 20 20  0  0  0  0  0  0  0  0999 V2000
   -2.1450    4.7640   -0.8970 C   0  0  0  0  0  0  0  0  0  0  0  0
   -1.5920    3.3540   -1.1020 C   0  0  0  0  0  0  0  0  0  0  0  0
   -1.2490    2.8110    0.2470 C   0  0  0  0  0  0  0  0  0  0  0  0
   -0.7030    1.4600    0.2830 C   0  0  0  0  0  0  0  0  0  0  0  0
   -1.5290    0.3930    0.6320 C   0  0  0  0  0  0  0  0  0  0  0  0
   -1.0810   -0.9010    0.6740 C   0  0  0  0  0  0  0  0  0  0  0  0
   -1.9410   -2.0610    1.0310 C   0  0  0  0  0  0  0  0  0  0  0  0
   -2.5070   -2.7030   -0.2110 C   0  0  0  0  0  0  0  0  0  0  0  0
   -3.3160   -1.9020   -0.9620 O   0  0  0  0  0  0  0  0  0  0  0  0
   -4.4760   -1.4730   -0.3360 C   0  0  0  0  0  0  0  0  0  0  0  0
   -5.3510   -2.6530    0.0650 C   0  0  0  0  0  0  0  0  0  0  0  0
    0.2250   -1.1640    0.3610 C   0  0  0  0  0  0  0  0  0  0  0  0
    1.0910   -0.1350    0.0070 C   0  0  0  0  0  0  0  0  0  0  0  0
    2.4860   -0.4920   -0.3130 C   0  0  0  0  0  0  0  0  0  0  0  0
    3.4300   -0.1820    0.8090 C   0  0  0  0  0  0  0  0  0  0  0  0
    4.8600   -0.5400    0.5070 C   0  0  2  0  0  0  0  0  0  0  0  0
    5.4220    0.1830   -0.6930 C   0  0  0  0  0  0  0  0  0  0  0  0
    5.0590   -2.0220    0.3110 C   0  0  0  0  0  0  0  0  0  0  0  0
    0.6000    1.1740   -0.0260 C   0  0  0  0  0  0  0  0  0  0  0  0
    1.4820    2.1810   -0.3840 O   0  0  0  0  0  0  0  0  0  0  0  0
  1  2  1  0
  2  3  1  0
  3  4  1  0
  4  5  2  0
  4 19  1  0
  5  6  1  0
  6  7  1  0
  6 12  2  0
  7  8  1  0
  8  9  1  0
  9 10  1  0
 10 11  1  0
 12 13  1  0
 13 14  1  0
 13 19  2  0
 14 15  1  0
 15 16  1  0
 16 17  1  6
 16 18  1  0
 19 20  1  0
M  END
