
     RDKit          3D

 20 20  0  0  0  0  0  0  0  0999 V2000
   -3.4560   -0.0500   -2.8100 C   0  0  0  0  0  0  0  0  0  0  0  0
   -3.9180    0.1770   -1.4150 C   0  0  0  0  0  0  0  0  0  0  0  0
   -2.8430    0.4350   -0.4230 C   0  0  0  0  0  0  0  0  0  0  0  0
   -2.8770    1.6760    0.0950 C   0  0  0  0  0  0  0  0  0  0  0  0
   -1.8620    2.0860    1.1120 C   0  0  0  0  0  0  0  0  0  0  0  0
   -3.8460    2.7290   -0.2490 C   0  0  0  0  0  0  0  0  0  0  0  0
   -3.1580    3.8590   -0.7760 O   0  0  0  0  0  0  0  0  0  0  0  0
   -1.8030   -0.5090   -0.0450 C   0  0  0  0  0  0  0  0  0  0  0  0
   -0.8630   -0.0100    0.8180 O   0  0  0  0  0  0  0  0  0  0  0  0
    0.4800   -0.0670    0.9770 C   0  0  0  0  0  0  0  0  0  0  0  0
    1.3170    0.4080   -0.1820 C   0  0  0  0  0  0  0  0  0  0  0  0
    2.8010    0.2990    0.0360 C   0  0  1  0  0  0  0  0  0  0  0  0
    3.2980    1.0750    1.1760 C   0  0  0  0  0  0  0  0  0  0  0  0
    4.6640    0.6700    1.6770 C   0  0  0  0  0  0  0  0  0  0  0  0
    4.7630   -0.8420    1.8260 C   0  0  0  0  0  0  0  0  0  0  0  0
    4.6200   -1.3920    0.4350 C   0  0  0  0  0  0  0  0  0  0  0  0
    3.2060   -1.1410   -0.0250 C   0  0  0  0  0  0  0  0  0  0  0  0
   -1.7220   -1.7440   -0.4720 C   0  0  0  0  0  0  0  0  0  0  0  0
   -2.5570   -2.5310   -1.3860 C   0  0  0  0  0  0  0  0  0  0  0  0
   -0.5490   -2.5970    0.0820 C   0  0  0  0  0  0  0  0  0  0  0  0
  1  2  1  0
  2  3  1  0
  3  4  2  3
  3  8  1  0
  4  5  1  0
  4  6  1  0
  6  7  1  0
  8  9  1  0
  8 18  2  3
  9 10  1  0
 10 11  1  0
 12 11  1  1
 12 13  1  0
 12 17  1  0
 13 14  1  0
 14 15  1  0
 15 16  1  0
 16 17  1  0
 18 19  1  0
 18 20  1  0
M  END
