
     RDKit          3D

 39 43  0  0  0  0  0  0  0  0999 V2000
   -5.3440    4.6630   -0.6580 C   0  0  0  0  0  0  0  0  0  0  0  0
   -6.4210    3.6830   -0.7770 C   0  0  0  0  0  0  0  0  0  0  0  0
   -7.8310    4.0810   -0.9850 C   0  0  0  0  0  0  0  0  0  0  0  0
   -6.1360    2.3720   -0.6980 C   0  0  0  0  0  0  0  0  0  0  0  0
   -4.7790    2.0080   -0.4990 C   0  0  0  0  0  0  0  0  0  0  0  0
   -4.2600    0.7680   -0.3930 C   0  0  0  0  0  0  0  0  0  0  0  0
   -5.1760   -0.3480   -0.4910 C   0  0  0  0  0  0  0  0  0  0  0  0
   -5.3870   -1.1510    0.6720 N   0  0  1  0  0  0  0  0  0  0  0  0
   -5.4010   -2.5520    0.3040 C   0  0  0  0  0  0  0  0  0  0  0  0
   -4.5340   -0.9330    1.7860 C   0  0  0  0  0  0  0  0  0  0  0  0
   -2.8450    0.7330   -0.2030 N   0  0  0  0  0  0  0  0  0  0  0  0
   -2.1190    1.8420    0.1050 N   0  0  0  0  0  0  0  0  0  0  0  0
   -0.8350    1.5810    0.1700 C   0  0  0  0  0  0  0  0  0  0  0  0
   -0.6480    0.2480   -0.1000 C   0  0  0  0  0  0  0  0  0  0  0  0
    0.6470   -0.4600   -0.1620 C   0  0  1  0  0  0  0  0  0  0  0  0
    0.5920   -1.5630    0.8300 C   0  0  0  0  0  0  0  0  0  0  0  0
   -0.3090   -1.5480    1.8680 C   0  0  0  0  0  0  0  0  0  0  0  0
   -0.3210   -2.5650    2.7350 N   0  0  0  0  0  0  0  0  0  0  0  0
    0.5050   -3.6220    2.6580 C   0  0  0  0  0  0  0  0  0  0  0  0
    1.3750   -3.6100    1.6330 N   0  0  0  0  0  0  0  0  0  0  0  0
    1.4480   -2.6290    0.7250 C   0  0  0  0  0  0  0  0  0  0  0  0
    2.4110   -2.6190   -0.4070 C   0  0  0  0  0  0  0  0  0  0  0  0
    1.6880   -2.0930   -1.6070 C   0  0  0  0  0  0  0  0  0  0  0  0
    1.0950   -0.8080   -1.4680 N   0  0  2  0  0  0  0  0  0  0  0  0
    1.8730    0.2820   -2.0600 C   0  0  0  0  0  0  0  0  0  0  0  0
    3.3180    0.1430   -1.9480 C   0  0  0  0  0  0  0  0  0  0  0  0
    4.0860   -0.3910   -2.9590 C   0  0  0  0  0  0  0  0  0  0  0  0
    5.4470   -0.4770   -2.7550 C   0  0  0  0  0  0  0  0  0  0  0  0
    5.9780   -0.0470   -1.5990 N   0  0  0  0  0  0  0  0  0  0  0  0
    5.2360    0.4800   -0.5960 C   0  0  0  0  0  0  0  0  0  0  0  0
    5.8530    0.9180    0.6060 N   0  0  0  0  0  0  0  0  0  0  0  0
    7.2690    0.8230    0.8080 C   0  0  1  0  0  0  0  0  0  0  0  0
    7.6960    1.3470    2.1620 C   0  0  0  0  0  0  0  0  0  0  0  0
    8.9200    0.5160    2.4420 C   0  0  0  0  0  0  0  0  0  0  0  0
    8.8300   -0.6480    1.7390 O   0  0  0  0  0  0  0  0  0  0  0  0
    7.7520   -0.6170    0.9000 C   0  0  0  0  0  0  0  0  0  0  0  0
    3.9210    0.5520   -0.8190 N   0  0  0  0  0  0  0  0  0  0  0  0
   -1.9400   -0.2470   -0.3290 C   0  0  0  0  0  0  0  0  0  0  0  0
   -2.2420   -1.6570   -0.6890 C   0  0  0  0  0  0  0  0  0  0  0  0
  1  2  1  0
  2  3  1  0
  2  4  2  3
  4  5  1  0
  5  6  2  3
  6  7  1  0
  6 11  1  0
  7  8  1  0
  8  9  1  6
  8 10  1  0
 11 12  1  0
 11 38  1  0
 12 13  2  0
 13 14  1  0
 15 14  1  6
 14 38  2  0
 15 16  1  0
 15 24  1  0
 16 17  2  0
 16 21  1  0
 17 18  1  0
 18 19  2  0
 19 20  1  0
 20 21  2  0
 21 22  1  0
 22 23  1  0
 23 24  1  0
 24 25  1  1
 25 26  1  0
 26 27  2  0
 26 37  1  0
 27 28  1  0
 28 29  2  0
 29 30  1  0
 30 31  1  0
 30 37  2  0
 32 31  1  1
 32 33  1  0
 32 36  1  0
 33 34  1  0
 34 35  1  0
 35 36  1  0
 38 39  1  0
M  CHG  2   8   1  24   1
M  END
