
     RDKit          3D

 38 43  0  0  0  0  0  0  0  0999 V2000
    8.3140    2.7480   -0.4780 C   0  0  0  0  0  0  0  0  0  0  0  0
    8.6220    1.4180    0.1030 C   0  0  0  0  0  0  0  0  0  0  0  0
    7.9300    1.2370    1.3900 C   0  0  0  0  0  0  0  0  0  0  0  0
    8.5100    1.3770    2.6320 N   0  0  0  0  0  0  0  0  0  0  0  0
    7.6140    1.1360    3.5630 N   0  0  0  0  0  0  0  0  0  0  0  0
    6.4440    0.8370    2.9620 C   0  0  0  0  0  0  0  0  0  0  0  0
    6.6270    0.8980    1.5740 C   0  0  0  0  0  0  0  0  0  0  0  0
    5.5410    0.6350    0.6570 C   0  0  0  0  0  0  0  0  0  0  0  0
    4.8820   -0.6130    0.7030 C   0  0  0  0  0  0  0  0  0  0  0  0
    3.8340   -0.8750   -0.1360 C   0  0  0  0  0  0  0  0  0  0  0  0
    3.3600    0.0320   -1.0570 C   0  0  0  0  0  0  0  0  0  0  0  0
    2.2550   -0.2940   -1.9110 N   0  0  0  0  0  0  0  0  0  0  0  0
    2.3400   -0.9360   -3.0810 C   0  0  0  0  0  0  0  0  0  0  0  0
    1.0690   -1.0550   -3.5820 C   0  0  0  0  0  0  0  0  0  0  0  0
    0.2230   -0.4630   -2.6740 C   0  0  0  0  0  0  0  0  0  0  0  0
   -1.2490   -0.3970   -2.8820 C   0  0  0  0  0  0  0  0  0  0  0  0
   -1.8680   -1.6250   -2.4030 N   0  0  0  0  0  0  0  0  0  0  0  0
   -2.0190   -2.6830   -3.2300 C   0  0  0  0  0  0  0  0  0  0  0  0
   -2.6170   -3.6520   -2.4920 C   0  0  0  0  0  0  0  0  0  0  0  0
   -2.8050   -3.1670   -1.2760 N   0  0  0  0  0  0  0  0  0  0  0  0
   -2.3520   -1.9040   -1.1790 C   0  0  0  0  0  0  0  0  0  0  0  0
   -2.3450   -0.9750   -0.0340 C   0  0  2  0  0  0  0  0  0  0  0  0
   -1.2350   -1.2250    0.9370 C   0  0  0  0  0  0  0  0  0  0  0  0
   -1.4340   -2.5760    1.5720 C   0  0  0  0  0  0  0  0  0  0  0  0
   -2.8070   -2.7200    2.1690 C   0  0  0  0  0  0  0  0  0  0  0  0
   -3.7150   -1.5800    1.8930 C   0  0  0  0  0  0  0  0  0  0  0  0
   -3.5690   -0.8570    0.6920 N   0  0  2  0  0  0  0  0  0  0  0  0
   -4.7070   -0.9440   -0.2150 C   0  0  0  0  0  0  0  0  0  0  0  0
   -6.0100   -0.5310    0.3650 C   0  0  0  0  0  0  0  0  0  0  0  0
   -6.0810    0.8580    0.8530 C   0  0  0  0  0  0  0  0  0  0  0  0
   -5.7810    1.2540    2.1270 C   0  0  0  0  0  0  0  0  0  0  0  0
   -5.9720    2.5780    2.1620 N   0  0  0  0  0  0  0  0  0  0  0  0
   -6.3690    3.0170    0.9940 N   0  0  0  0  0  0  0  0  0  0  0  0
   -6.6810    4.3860    0.6330 C   0  0  0  0  0  0  0  0  0  0  0  0
   -6.4470    1.9750    0.1540 C   0  0  0  0  0  0  0  0  0  0  0  0
    0.9740   -0.0150   -1.6790 N   0  0  0  0  0  0  0  0  0  0  0  0
    4.0080    1.2450   -1.0940 C   0  0  0  0  0  0  0  0  0  0  0  0
    5.0800    1.5490   -0.2550 C   0  0  0  0  0  0  0  0  0  0  0  0
  1  2  1  0
  2  3  1  0
  3  4  2  0
  3  7  1  0
  4  5  1  0
  5  6  1  0
  6  7  2  0
  7  8  1  0
  8  9  2  0
  8 38  1  0
  9 10  1  0
 10 11  2  0
 11 12  1  0
 11 37  1  0
 12 13  1  0
 12 36  1  0
 13 14  2  0
 14 15  1  0
 15 16  1  0
 15 36  2  0
 16 17  1  0
 17 18  1  0
 17 21  1  0
 18 19  2  0
 19 20  1  0
 20 21  2  0
 22 21  1  6
 22 23  1  0
 22 27  1  0
 23 24  1  0
 24 25  1  0
 25 26  1  0
 26 27  1  0
 27 28  1  6
 28 29  1  0
 29 30  1  0
 30 31  1  0
 30 35  2  0
 31 32  2  0
 32 33  1  0
 33 34  1  0
 33 35  1  0
 37 38  2  0
M  CHG  2  20   1  27   1
M  END
