
     RDKit          3D

 39 44  0  0  0  0  0  0  0  0999 V2000
   -5.1370   -2.1280   -1.5650 C   0  0  0  0  0  0  0  0  0  0  0  0
   -5.2610   -0.9040   -2.0550 C   0  0  0  0  0  0  0  0  0  0  0  0
   -6.4600   -0.1310   -1.7390 C   0  0  0  0  0  0  0  0  0  0  0  0
   -6.2940    1.0510   -0.9610 N   0  0  0  0  0  0  0  0  0  0  0  0
   -7.4370    1.9050   -0.7100 C   0  0  0  0  0  0  0  0  0  0  0  0
   -7.6130    1.8510    0.7980 C   0  0  0  0  0  0  0  0  0  0  0  0
   -6.4440    2.1260    1.5540 N   0  0  1  0  0  0  0  0  0  0  0  0
   -6.6230    1.3630    2.8150 C   0  0  0  0  0  0  0  0  0  0  0  0
   -5.2000    1.8330    1.0160 C   0  0  0  0  0  0  0  0  0  0  0  0
   -4.0490    2.0000    1.7280 C   0  0  0  0  0  0  0  0  0  0  0  0
   -2.8070    1.7170    1.1210 C   0  0  0  0  0  0  0  0  0  0  0  0
   -2.7650    1.2870   -0.1630 C   0  0  0  0  0  0  0  0  0  0  0  0
   -1.5220    0.7370   -0.7120 N   0  0  0  0  0  0  0  0  0  0  0  0
   -0.7770   -0.0850    0.1820 C   0  0  0  0  0  0  0  0  0  0  0  0
    0.5530   -0.5990   -0.1070 C   0  0  0  0  0  0  0  0  0  0  0  0
    1.6990    0.0210    0.2310 N   0  0  0  0  0  0  0  0  0  0  0  0
    2.9210   -0.5910    0.2850 C   0  0  0  0  0  0  0  0  0  0  0  0
    4.0950    0.0120    0.7890 N   0  0  0  0  0  0  0  0  0  0  0  0
    4.7380   -0.7670    1.8680 C   0  0  0  0  0  0  0  0  0  0  0  0
    4.9420   -2.1530    1.4390 C   0  0  0  0  0  0  0  0  0  0  0  0
    5.7770   -2.5960    0.4540 C   0  0  0  0  0  0  0  0  0  0  0  0
    5.6460   -3.9230    0.4260 N   0  0  0  0  0  0  0  0  0  0  0  0
    4.8200   -4.3000    1.2970 O   0  0  0  0  0  0  0  0  0  0  0  0
    4.3230   -3.2780    1.9800 C   0  0  0  0  0  0  0  0  0  0  0  0
    4.5850    1.2860    0.4890 C   0  0  0  0  0  0  0  0  0  0  0  0
    5.9720    1.4670   -0.0080 C   0  0  2  0  0  0  0  0  0  0  0  0
    6.1750    2.9770   -0.1840 C   0  0  0  0  0  0  0  0  0  0  0  0
    7.0570    3.1660   -1.3720 C   0  0  0  0  0  0  0  0  0  0  0  0
    7.3520    1.8210   -1.9340 C   0  0  0  0  0  0  0  0  0  0  0  0
    6.2660    0.8840   -1.3400 C   0  0  0  0  0  0  0  0  0  0  0  0
    2.8990   -1.9010   -0.0430 N   0  0  0  0  0  0  0  0  0  0  0  0
    1.8450   -2.6100   -0.3890 C   0  0  0  0  0  0  0  0  0  0  0  0
    1.9090   -3.9450   -0.7510 C   0  0  0  0  0  0  0  0  0  0  0  0
    0.6990   -4.5480   -1.1460 C   0  0  0  0  0  0  0  0  0  0  0  0
   -0.4560   -3.9390   -1.1860 N   0  0  0  0  0  0  0  0  0  0  0  0
   -0.5220   -2.6220   -0.8250 C   0  0  0  0  0  0  0  0  0  0  0  0
    0.6000   -1.9600   -0.4380 C   0  0  0  0  0  0  0  0  0  0  0  0
   -3.9180    1.1130   -0.9090 N   0  0  0  0  0  0  0  0  0  0  0  0
   -5.0850    1.3820   -0.3110 C   0  0  0  0  0  0  0  0  0  0  0  0
  1  2  2  0
  2  3  1  0
  3  4  1  0
  4  5  1  0
  4 39  1  0
  5  6  1  0
  6  7  1  0
  7  8  1  1
  7  9  1  0
  9 10  2  0
  9 39  1  0
 10 11  1  0
 11 12  2  0
 12 13  1  0
 12 38  1  0
 13 14  1  0
 14 15  1  0
 15 16  2  0
 15 37  1  0
 16 17  1  0
 17 18  1  0
 17 31  2  0
 18 19  1  0
 18 25  1  0
 19 20  1  0
 20 21  1  0
 20 24  2  0
 21 22  2  0
 22 23  1  0
 23 24  1  0
 26 25  1  6
 26 27  1  0
 26 30  1  0
 27 28  1  0
 28 29  1  0
 29 30  1  0
 31 32  1  0
 32 33  2  0
 32 37  1  0
 33 34  1  0
 34 35  2  0
 35 36  1  0
 36 37  2  0
 38 39  2  0
M  CHG  2   7   1  35   1
M  END
