
     RDKit          3D

 39 43  0  0  0  0  0  0  0  0999 V2000
   10.2970    0.9620   -0.6600 C   0  0  0  0  0  0  0  0  0  0  0  0
    9.4170    0.7880    0.5150 C   0  0  0  0  0  0  0  0  0  0  0  0
    8.9100   -0.3860    0.7910 C   0  0  0  0  0  0  0  0  0  0  0  0
    9.2170   -1.5470   -0.0740 C   0  0  0  0  0  0  0  0  0  0  0  0
    8.0280   -0.5820    1.9660 C   0  0  0  0  0  0  0  0  0  0  0  0
    6.6450   -1.0750    1.5900 C   0  0  0  0  0  0  0  0  0  0  0  0
    5.9700   -0.1500    0.7290 N   0  0  1  0  0  0  0  0  0  0  0  0
    5.9860   -0.5240   -0.6710 C   0  0  0  0  0  0  0  0  0  0  0  0
    4.6740   -0.1630   -1.3140 C   0  0  0  0  0  0  0  0  0  0  0  0
    3.6520   -1.0140   -0.7300 N   0  0  2  0  0  0  0  0  0  0  0  0
    2.4030   -0.9220   -1.4270 C   0  0  0  0  0  0  0  0  0  0  0  0
    1.5140    0.1550   -0.9850 C   0  0  0  0  0  0  0  0  0  0  0  0
    1.6890    1.4770   -1.3280 C   0  0  0  0  0  0  0  0  0  0  0  0
    0.6930    2.1470   -0.7510 N   0  0  0  0  0  0  0  0  0  0  0  0
   -0.0980    1.3100   -0.0650 N   0  0  0  0  0  0  0  0  0  0  0  0
   -1.2630    1.7800    0.6630 C   0  0  0  0  0  0  0  0  0  0  0  0
   -2.4360    1.7520   -0.2600 C   0  0  0  0  0  0  0  0  0  0  0  0
   -2.7540    0.4500   -0.7520 N   0  0  0  0  0  0  0  0  0  0  0  0
   -3.8340    0.5780   -1.7140 C   0  0  0  0  0  0  0  0  0  0  0  0
   -5.1110   -0.1160   -1.2030 C   0  0  0  0  0  0  0  0  0  0  0  0
   -5.3170    0.3310    0.1910 N   0  0  0  0  0  0  0  0  0  0  0  0
   -6.3870    1.2230    0.3940 C   0  0  0  0  0  0  0  0  0  0  0  0
   -6.0590    2.5330    0.6390 N   0  0  0  0  0  0  0  0  0  0  0  0
   -6.9470    3.4950    0.6460 C   0  0  0  0  0  0  0  0  0  0  0  0
   -8.2240    3.2300    0.4110 N   0  0  0  0  0  0  0  0  0  0  0  0
   -8.6360    1.9730    0.1650 C   0  0  0  0  0  0  0  0  0  0  0  0
   -7.6970    0.9130    0.1570 C   0  0  0  0  0  0  0  0  0  0  0  0
   -8.3640   -0.3360   -0.1430 C   0  0  0  0  0  0  0  0  0  0  0  0
   -7.9820   -1.5780   -0.0060 C   0  0  0  0  0  0  0  0  0  0  0  0
   -8.9850   -2.6380   -0.4750 C   0  0  0  0  0  0  0  0  0  0  0  0
   -6.8470   -2.1700    0.7030 C   0  0  0  0  0  0  0  0  0  0  0  0
   -9.7730    0.0380   -0.3380 N   0  0  0  0  0  0  0  0  0  0  0  0
   -9.9420    1.4190   -0.1530 C   0  0  0  0  0  0  0  0  0  0  0  0
  -11.0130    2.0870   -0.2380 O   0  0  0  0  0  0  0  0  0  0  0  0
   -4.3080   -0.0690    1.1140 C   0  0  0  0  0  0  0  0  0  0  0  0
   -3.0940   -0.4930    0.2660 C   0  0  0  0  0  0  0  0  0  0  0  0
    0.3930    0.0790   -0.1970 C   0  0  0  0  0  0  0  0  0  0  0  0
    3.5660   -0.7260    0.6670 C   0  0  0  0  0  0  0  0  0  0  0  0
    4.6490    0.1580    1.1950 C   0  0  0  0  0  0  0  0  0  0  0  0
  1  2  1  0
  2  3  2  3
  3  4  1  0
  3  5  1  0
  5  6  1  0
  7  6  1  1
  7  8  1  0
  7 39  1  0
  8  9  1  0
  9 10  1  0
 10 11  1  6
 10 38  1  0
 11 12  1  0
 12 13  1  0
 12 37  2  0
 13 14  2  0
 14 15  1  0
 15 16  1  0
 15 37  1  0
 16 17  1  0
 17 18  1  0
 18 19  1  0
 18 36  1  0
 19 20  1  0
 20 21  1  0
 21 22  1  0
 21 35  1  0
 22 23  2  0
 22 27  1  0
 23 24  1  0
 24 25  2  0
 25 26  1  0
 26 27  2  0
 26 33  1  0
 27 28  1  0
 28 29  2  3
 28 32  1  0
 29 30  1  0
 29 31  1  0
 32 33  1  0
 33 34  2  0
 35 36  1  0
 38 39  1  0
M  CHG  2   7   1  10   1
M  END
