
     RDKit          3D

 39 40  0  0  0  0  0  0  0  0999 V2000
    0.1040    8.3940   -0.3850 C   0  0  0  0  0  0  0  0  0  0  0  0
   -0.3730    7.0350   -0.8610 C   0  0  0  0  0  0  0  0  0  0  0  0
   -0.4840    6.1600    0.3730 C   0  0  0  0  0  0  0  0  0  0  0  0
   -0.9600    4.7560    0.0120 C   0  0  0  0  0  0  0  0  0  0  0  0
   -1.0310    3.9890    1.2970 C   0  0  0  0  0  0  0  0  0  0  0  0
   -1.4820    2.6450    1.0200 N   0  0  0  0  0  0  0  0  0  0  0  0
   -0.7810    1.7430    0.1820 C   0  0  0  0  0  0  0  0  0  0  0  0
    0.2940    2.0940   -0.3640 O   0  0  0  0  0  0  0  0  0  0  0  0
   -1.3510    0.3830   -0.0290 C   0  0  2  0  0  0  0  0  0  0  0  0
   -1.6730   -0.3400    1.2330 C   0  0  0  0  0  0  0  0  0  0  0  0
   -2.2370   -1.6740    0.9040 C   0  0  0  0  0  0  0  0  0  0  0  0
   -3.5820   -1.8300    0.7230 C   0  0  0  0  0  0  0  0  0  0  0  0
   -4.1510   -3.0720    0.4160 C   0  0  0  0  0  0  0  0  0  0  0  0
   -3.3680   -4.1970    0.2810 C   0  0  0  0  0  0  0  0  0  0  0  0
   -3.8250   -5.4590   -0.0180 O   0  0  0  0  0  0  0  0  0  0  0  0
   -5.1760   -5.7200   -0.2160 C   0  0  1  0  0  0  0  0  0  0  0  0
   -6.0400   -5.4640    0.9620 C   0  0  0  0  0  0  0  0  0  0  0  0
   -5.6110   -5.0970    2.0840 O   0  0  0  0  0  0  0  0  0  0  0  0
   -7.4090   -5.6460    0.8060 O   0  0  0  0  0  0  0  0  0  0  0  0
   -5.6500   -4.9860   -1.4140 C   0  0  0  0  0  0  0  0  0  0  0  0
   -4.8610   -4.3120   -2.1110 O   0  0  0  0  0  0  0  0  0  0  0  0
   -6.9810   -5.0280   -1.7930 O   0  0  0  0  0  0  0  0  0  0  0  0
   -1.9890   -4.0020    0.4730 C   0  0  0  0  0  0  0  0  0  0  0  0
   -1.4440   -2.7780    0.7740 C   0  0  0  0  0  0  0  0  0  0  0  0
   -0.4400   -0.3430   -0.8790 N   0  0  0  0  0  0  0  0  0  0  0  0
    0.9330   -0.5120   -0.5130 C   0  0  0  0  0  0  0  0  0  0  0  0
    1.4020   -0.0410    0.5750 O   0  0  0  0  0  0  0  0  0  0  0  0
    1.8480   -1.2160   -1.3460 N   0  0  0  0  0  0  0  0  0  0  0  0
    3.2410   -1.3840   -0.9570 C   0  0  1  0  0  0  0  0  0  0  0  0
    4.0060   -0.1200   -1.0290 C   0  0  0  0  0  0  0  0  0  0  0  0
    5.4090   -0.2920   -0.6350 C   0  0  0  0  0  0  0  0  0  0  0  0
    6.3520   -0.7010   -1.5840 C   0  0  0  0  0  0  0  0  0  0  0  0
    7.6880   -0.8550   -1.2930 C   0  0  0  0  0  0  0  0  0  0  0  0
    8.0900   -0.5880   -0.0000 C   0  0  0  0  0  0  0  0  0  0  0  0
    7.1990   -0.1820    0.9710 C   0  0  0  0  0  0  0  0  0  0  0  0
    5.8670   -0.0350    0.6570 C   0  0  0  0  0  0  0  0  0  0  0  0
    3.3830   -2.0750    0.3240 C   0  0  0  0  0  0  0  0  0  0  0  0
    2.3710   -2.4140    0.9800 O   0  0  0  0  0  0  0  0  0  0  0  0
    4.6190   -2.3740    0.8430 O   0  0  0  0  0  0  0  0  0  0  0  0
  1  2  1  0
  2  3  1  0
  3  4  1  0
  4  5  1  0
  5  6  1  0
  6  7  1  0
  7  8  2  0
  7  9  1  0
  9 10  1  1
  9 25  1  0
 10 11  1  0
 11 12  2  0
 11 24  1  0
 12 13  1  0
 13 14  2  0
 14 15  1  0
 14 23  1  0
 16 15  1  1
 16 17  1  0
 16 20  1  0
 17 18  2  0
 17 19  1  0
 20 21  2  0
 20 22  1  0
 23 24  2  0
 25 26  1  0
 26 27  2  0
 26 28  1  0
 28 29  1  0
 29 30  1  1
 29 37  1  0
 30 31  1  0
 31 32  2  0
 31 36  1  0
 32 33  1  0
 33 34  2  0
 34 35  1  0
 35 36  2  0
 37 38  2  0
 37 39  1  0
M  END
