
     RDKit          3D

 39 44  0  0  0  0  0  0  0  0999 V2000
    8.7750   -1.0410   -1.4410 C   0  0  0  0  0  0  0  0  0  0  0  0
    7.8910   -0.3970   -2.3800 C   0  0  0  0  0  0  0  0  0  0  0  0
    8.3700   -0.0150   -3.6550 C   0  0  0  0  0  0  0  0  0  0  0  0
    7.6340    0.5590   -4.5860 C   0  0  0  0  0  0  0  0  0  0  0  0
    6.3770    0.7750   -4.2590 N   0  0  0  0  0  0  0  0  0  0  0  0
    5.7060    0.5260   -3.1680 C   0  0  0  0  0  0  0  0  0  0  0  0
    4.3700    0.7900   -2.9400 N   0  0  0  0  0  0  0  0  0  0  0  0
    3.7560    0.9070   -1.6700 C   0  0  0  0  0  0  0  0  0  0  0  0
    2.3760    1.4330   -1.6830 C   0  0  0  0  0  0  0  0  0  0  0  0
    1.4850    0.9120   -2.7570 N   0  0  2  0  0  0  0  0  0  0  0  0
    0.3900    0.3860   -2.0450 C   0  0  0  0  0  0  0  0  0  0  0  0
   -0.6540   -0.4210   -2.6240 C   0  0  0  0  0  0  0  0  0  0  0  0
   -0.9970   -0.9150   -3.8290 C   0  0  0  0  0  0  0  0  0  0  0  0
   -2.1200   -1.6120   -3.7920 N   0  0  0  0  0  0  0  0  0  0  0  0
   -2.5570   -1.5980   -2.5360 C   0  0  0  0  0  0  0  0  0  0  0  0
   -3.6260   -2.1320   -1.8980 N   0  0  0  0  0  0  0  0  0  0  0  0
   -3.8660   -2.0080   -0.6730 N   0  0  0  0  0  0  0  0  0  0  0  0
   -3.0500   -1.2730    0.2580 C   0  0  0  0  0  0  0  0  0  0  0  0
   -3.4860   -1.3040    1.6290 C   0  0  0  0  0  0  0  0  0  0  0  0
   -2.7800   -0.7890    2.7130 N   0  0  2  0  0  0  0  0  0  0  0  0
   -2.5240   -1.8280    3.7240 C   0  0  0  0  0  0  0  0  0  0  0  0
   -3.6140   -2.5220    4.3930 C   0  0  0  0  0  0  0  0  0  0  0  0
   -4.5330   -3.2970    3.4960 C   0  0  0  0  0  0  0  0  0  0  0  0
   -5.3090   -3.9330    2.7450 N   0  0  0  0  0  0  0  0  0  0  0  0
   -2.9870    0.4690    3.2960 C   0  0  1  0  0  0  0  0  0  0  0  0
   -2.1810    1.6220    2.5780 C   0  0  0  0  0  0  0  0  0  0  0  0
   -2.9110    2.1830    1.4110 C   0  0  0  0  0  0  0  0  0  0  0  0
   -4.4030    2.1510    1.4580 C   0  0  0  0  0  0  0  0  0  0  0  0
   -4.8980    2.0160    2.8700 C   0  0  0  0  0  0  0  0  0  0  0  0
   -5.8580    2.5230    3.5030 N   0  0  0  0  0  0  0  0  0  0  0  0
   -5.9000    2.0420    4.7020 O   0  0  0  0  0  0  0  0  0  0  0  0
   -4.9490    1.1920    4.8910 C   0  0  0  0  0  0  0  0  0  0  0  0
   -4.7990    0.5180    6.1960 C   0  0  0  0  0  0  0  0  0  0  0  0
   -4.1740    1.0780    3.6870 C   0  0  0  0  0  0  0  0  0  0  0  0
   -1.9850   -0.7510   -0.4060 C   0  0  0  0  0  0  0  0  0  0  0  0
   -1.7130   -0.8810   -1.7260 C   0  0  0  0  0  0  0  0  0  0  0  0
    2.2130    0.1430   -3.6730 C   0  0  0  0  0  0  0  0  0  0  0  0
    3.4760    0.9460   -4.0980 C   0  0  0  0  0  0  0  0  0  0  0  0
    6.5390   -0.1130   -2.1550 C   0  0  0  0  0  0  0  0  0  0  0  0
  1  2  1  0
  2  3  2  0
  2 39  1  0
  3  4  1  0
  4  5  2  0
  5  6  1  0
  6  7  1  0
  6 39  2  0
  7  8  1  0
  7 38  1  0
  8  9  1  0
  9 10  1  0
 10 11  1  1
 10 37  1  0
 11 12  1  0
 12 13  2  0
 12 36  1  0
 13 14  1  0
 14 15  1  0
 15 16  2  0
 15 36  1  0
 16 17  1  0
 17 18  2  0
 18 19  1  0
 18 35  1  0
 20 19  1  1
 20 21  1  0
 20 25  1  0
 21 22  1  0
 22 23  1  0
 23 24  3  0
 25 26  1  6
 25 34  1  0
 26 27  1  0
 27 28  1  0
 28 29  1  0
 29 30  2  0
 29 34  1  0
 30 31  1  0
 31 32  1  0
 32 33  1  0
 32 34  2  0
 35 36  2  0
 37 38  1  0
M  CHG  2  10   1  20   1
M  END
