
     RDKit          3D

 39 43  0  0  0  0  0  0  0  0999 V2000
   -9.5180    2.2550   -1.0630 C   0  0  0  0  0  0  0  0  0  0  0  0
   -8.8150    1.8650   -0.0300 C   0  0  0  0  0  0  0  0  0  0  0  0
   -7.7130    0.8610   -0.3300 C   0  0  0  0  0  0  0  0  0  0  0  0
   -6.5350    1.0330    0.2580 C   0  0  0  0  0  0  0  0  0  0  0  0
   -6.0610    2.2250    0.9810 C   0  0  0  0  0  0  0  0  0  0  0  0
   -5.4840    0.0540    0.0640 C   0  0  0  0  0  0  0  0  0  0  0  0
   -4.4320    0.2150    1.0570 C   0  0  0  0  0  0  0  0  0  0  0  0
   -3.0980    0.2600    0.9720 N   0  0  1  0  0  0  0  0  0  0  0  0
   -2.7370    1.0250    2.2590 C   0  0  0  0  0  0  0  0  0  0  0  0
   -2.2720    2.3880    1.9940 C   0  0  0  0  0  0  0  0  0  0  0  0
   -2.1840   -0.8160    0.9100 C   0  0  2  0  0  0  0  0  0  0  0  0
   -0.7560   -0.2900    1.1170 C   0  0  0  0  0  0  0  0  0  0  0  0
   -0.1560    0.1770   -0.1450 C   0  0  0  0  0  0  0  0  0  0  0  0
   -0.1750   -0.8220   -1.2420 N   0  0  1  0  0  0  0  0  0  0  0  0
    1.2130   -0.9370   -1.6900 C   0  0  0  0  0  0  0  0  0  0  0  0
    2.0250   -1.5820   -0.5860 C   0  0  0  0  0  0  0  0  0  0  0  0
    3.4050   -1.4290   -0.6090 N   0  0  0  0  0  0  0  0  0  0  0  0
    4.1140   -1.8810    0.5230 C   0  0  0  0  0  0  0  0  0  0  0  0
    5.5940   -2.1550    0.1470 C   0  0  0  0  0  0  0  0  0  0  0  0
    6.1080   -0.9340   -0.3110 N   0  0  0  0  0  0  0  0  0  0  0  0
    7.3780   -0.3920   -0.1200 C   0  0  0  0  0  0  0  0  0  0  0  0
    7.4180    0.9090   -0.4080 O   0  0  0  0  0  0  0  0  0  0  0  0
    8.6320   -0.8750    0.2830 N   0  0  0  0  0  0  0  0  0  0  0  0
    9.8840   -0.2290    0.4030 C   0  0  0  0  0  0  0  0  0  0  0  0
    9.7150    1.2050    0.6170 N   0  0  0  0  0  0  0  0  0  0  0  0
    9.6080    2.0950   -0.4440 C   0  0  0  0  0  0  0  0  0  0  0  0
    9.3160    3.3260    0.1370 N   0  0  0  0  0  0  0  0  0  0  0  0
    9.2490    3.1750    1.4240 C   0  0  0  0  0  0  0  0  0  0  0  0
    9.4990    1.8420    1.7040 N   0  0  0  0  0  0  0  0  0  0  0  0
    5.2670   -0.1930   -1.2930 C   0  0  0  0  0  0  0  0  0  0  0  0
    4.1490   -1.1090   -1.7270 C   0  0  0  0  0  0  0  0  0  0  0  0
   -0.8160   -1.9870   -0.7840 C   0  0  0  0  0  0  0  0  0  0  0  0
   -2.2350   -1.5770   -0.3830 C   0  0  0  0  0  0  0  0  0  0  0  0
   -5.8130   -0.9880   -0.7380 C   0  0  0  0  0  0  0  0  0  0  0  0
   -7.0260   -1.1540   -1.3540 C   0  0  0  0  0  0  0  0  0  0  0  0
   -8.0260   -0.1880   -1.1430 C   0  0  0  0  0  0  0  0  0  0  0  0
   -9.2380   -0.6320   -1.7920 C   0  0  0  0  0  0  0  0  0  0  0  0
   -8.8370   -1.6630   -2.5080 C   0  0  0  0  0  0  0  0  0  0  0  0
   -7.6630   -2.0820   -2.2360 N   0  0  0  0  0  0  0  0  0  0  0  0
  1  2  2  0
  2  3  1  0
  3  4  2  0
  3 36  1  0
  4  5  1  0
  4  6  1  0
  6  7  1  0
  6 34  2  0
  8  7  1  1
  8  9  1  0
  8 11  1  0
  9 10  1  0
 11 12  1  6
 11 33  1  0
 12 13  1  0
 13 14  1  0
 14 15  1  1
 14 32  1  0
 15 16  1  0
 16 17  1  0
 17 18  1  0
 17 31  1  0
 18 19  1  0
 19 20  1  0
 20 21  1  0
 20 30  1  0
 21 22  2  0
 21 23  1  0
 23 24  1  0
 24 25  1  0
 25 26  1  0
 25 29  1  0
 26 27  2  0
 27 28  1  0
 28 29  2  0
 30 31  1  0
 32 33  1  0
 34 35  1  0
 35 36  2  0
 35 39  1  0
 36 37  1  0
 37 38  2  0
 38 39  2  0
M  CHG  2   8   1  14   1
M  END
