
     RDKit          3D

 43 45  0  0  0  0  0  0  0  0999 V2000
    0.1160    5.7590    1.6080 C   0  0  0  0  0  0  0  0  0  0  0  0
    0.4380    4.4610    0.9270 C   0  0  0  0  0  0  0  0  0  0  0  0
   -0.8690    3.6330    0.8360 C   0  0  1  0  0  0  0  0  0  0  0  0
   -1.7510    4.3850    0.1020 O   0  0  0  0  0  0  0  0  0  0  0  0
   -0.6300    2.2740    0.2710 C   0  0  0  0  0  0  0  0  0  0  0  0
   -1.4500    1.2260    0.4670 C   0  0  0  0  0  0  0  0  0  0  0  0
   -2.6250    1.3120    1.2470 C   0  0  0  0  0  0  0  0  0  0  0  0
   -3.2720    0.1910    1.4380 O   0  0  0  0  0  0  0  0  0  0  0  0
   -3.3160    2.3320    1.8970 N   0  0  0  0  0  0  0  0  0  0  0  0
   -4.5710    2.0540    2.6670 C   0  0  0  0  0  0  0  0  0  0  0  0
   -1.1240    0.0160   -0.3600 C   0  0  0  0  0  0  0  0  0  0  0  0
   -1.6850   -1.2580   -0.1100 N   0  0  2  0  0  0  0  0  0  0  0  0
   -2.9130   -1.4230   -0.7530 C   0  0  2  0  0  0  0  0  0  0  0  0
   -4.0490   -2.1850   -0.2220 C   0  0  0  0  0  0  0  0  0  0  0  0
   -4.6690   -3.1960   -1.1670 C   0  0  0  0  0  0  0  0  0  0  0  0
   -5.1600   -2.4350   -2.3780 C   0  0  0  0  0  0  0  0  0  0  0  0
   -4.0260   -1.6390   -2.9800 C   0  0  1  0  0  0  0  0  0  0  0  0
   -4.3020   -0.1580   -3.0440 C   0  0  0  0  0  0  0  0  0  0  0  0
   -2.7250   -1.8980   -2.2400 C   0  0  0  0  0  0  0  0  0  0  0  0
   -1.2500   -1.8450    1.0850 C   0  0  0  0  0  0  0  0  0  0  0  0
   -0.4140   -3.0420    1.1200 C   0  0  2  0  0  0  0  0  0  0  0  0
   -0.8780   -4.1000    0.0820 C   0  0  0  0  0  0  0  0  0  0  0  0
   -0.8340   -3.7570    2.4640 C   0  0  0  0  0  0  0  0  0  0  0  0
   -2.2490   -4.1500    2.5090 C   0  0  0  0  0  0  0  0  0  0  0  0
    1.0350   -3.1150    1.1200 C   0  0  0  0  0  0  0  0  0  0  0  0
    2.1870   -2.6670    0.9760 C   0  0  0  0  0  0  0  0  0  0  0  0
    3.0690   -1.5460    0.6450 C   0  0  0  0  0  0  0  0  0  0  0  0
    4.1260   -1.7580   -0.1790 C   0  0  0  0  0  0  0  0  0  0  0  0
    5.1050   -0.8310   -0.6190 C   0  0  0  0  0  0  0  0  0  0  0  0
    6.0000   -1.2830   -1.4430 O   0  0  0  0  0  0  0  0  0  0  0  0
    5.2540    0.5130   -0.2910 N   0  0  0  0  0  0  0  0  0  0  0  0
    6.2660    1.3810   -0.7630 C   0  0  0  0  0  0  0  0  0  0  0  0
    6.0370    2.7750   -0.7470 C   0  0  0  0  0  0  0  0  0  0  0  0
    7.0040    3.6570   -1.1620 C   0  0  0  0  0  0  0  0  0  0  0  0
    8.2370    3.2460   -1.6120 C   0  0  0  0  0  0  0  0  0  0  0  0
    9.1960    4.1680   -2.0260 O   0  0  0  0  0  0  0  0  0  0  0  0
    8.4790    1.8950   -1.6340 C   0  0  0  0  0  0  0  0  0  0  0  0
    7.4950    0.9800   -1.2110 C   0  0  0  0  0  0  0  0  0  0  0  0
    2.9260   -0.2800    1.0970 O   0  0  0  0  0  0  0  0  0  0  0  0
    1.9610    0.6810    1.1230 C   0  0  0  0  0  0  0  0  0  0  0  0
    1.6440    1.2270   -0.2450 C   0  0  0  0  0  0  0  0  0  0  0  0
    2.3430    0.8220   -1.2010 O   0  0  0  0  0  0  0  0  0  0  0  0
    0.6060    2.1630   -0.4800 N   0  0  0  0  0  0  0  0  0  0  0  0
  1  2  1  0
  2  3  1  0
  3  4  1  6
  3  5  1  0
  5  6  2  0
  5 43  1  0
  6  7  1  0
  6 11  1  0
  7  8  2  0
  7  9  1  0
  9 10  1  0
 12 11  1  1
 12 13  1  0
 12 20  1  0
 13 14  1  1
 13 19  1  0
 14 15  1  0
 15 16  1  0
 16 17  1  0
 17 18  1  1
 17 19  1  0
 20 21  1  0
 21 22  1  6
 21 23  1  0
 21 25  1  0
 23 24  1  0
 25 26  2  0
 26 27  1  0
 27 28  2  3
 27 39  1  0
 28 29  1  0
 29 30  2  0
 29 31  1  0
 31 32  1  0
 32 33  2  0
 32 38  1  0
 33 34  1  0
 34 35  2  0
 35 36  1  0
 35 37  1  0
 37 38  2  0
 39 40  1  0
 40 41  1  0
 41 42  2  0
 41 43  1  0
M  CHG  1  12   1
M  END
