
     RDKit          3D

 43 46  0  0  0  0  0  0  0  0999 V2000
    7.5430   -0.3660   -4.4260 C   0  0  0  0  0  0  0  0  0  0  0  0
    7.8830   -0.2940   -2.9370 C   0  0  0  0  0  0  0  0  0  0  0  0
    6.9240   -1.1590   -2.1730 C   0  0  0  0  0  0  0  0  0  0  0  0
    7.2030   -2.4750   -1.9360 C   0  0  0  0  0  0  0  0  0  0  0  0
    6.3250   -3.2630   -1.2390 C   0  0  0  0  0  0  0  0  0  0  0  0
    5.1500   -2.6830   -0.7820 C   0  0  0  0  0  0  0  0  0  0  0  0
    4.2920   -3.5180   -0.0710 O   0  0  0  0  0  0  0  0  0  0  0  0
    4.5510   -4.8630    0.1870 C   0  0  0  0  0  0  0  0  0  0  0  0
    4.8260   -1.3630   -0.9970 C   0  0  0  0  0  0  0  0  0  0  0  0
    3.4900   -0.8410   -0.6060 C   0  0  0  0  0  0  0  0  0  0  0  0
    2.3100   -1.5790   -0.6470 C   0  0  0  0  0  0  0  0  0  0  0  0
    2.2670   -2.8430   -1.1750 O   0  0  0  0  0  0  0  0  0  0  0  0
    1.2950   -0.8280   -0.0990 C   0  0  0  0  0  0  0  0  0  0  0  0
   -0.0750   -1.3120    0.0050 C   0  0  0  0  0  0  0  0  0  0  0  0
   -0.3220   -2.4880   -0.4290 O   0  0  0  0  0  0  0  0  0  0  0  0
   -1.1900   -0.6300    0.5360 N   0  0  0  0  0  0  0  0  0  0  0  0
   -2.5220   -1.2270    0.5860 C   0  0  1  0  0  0  0  0  0  0  0  0
   -2.8920   -1.3890    2.0520 C   0  0  0  0  0  0  0  0  0  0  0  0
   -4.3550   -1.7500    2.1110 C   0  0  0  0  0  0  0  0  0  0  0  0
   -5.1540   -0.4860    1.8790 C   0  0  2  0  0  0  0  0  0  0  0  0
   -6.5510   -0.8980    1.5960 C   0  0  0  0  0  0  0  0  0  0  0  0
   -7.0310   -1.6110    2.7270 O   0  0  0  0  0  0  0  0  0  0  0  0
   -4.4590    0.3660    0.8980 C   0  0  2  0  0  0  0  0  0  0  0  0
   -5.2140    1.3540    0.2200 N   0  0  0  0  0  0  0  0  0  0  0  0
   -5.5480    1.1390   -1.1520 C   0  0  2  0  0  0  0  0  0  0  0  0
   -5.7470    2.5030   -1.8050 C   0  0  0  0  0  0  0  0  0  0  0  0
   -7.1110    2.7130   -2.3670 C   0  0  0  0  0  0  0  0  0  0  0  0
   -8.1720    2.3740   -1.3060 C   0  0  0  0  0  0  0  0  0  0  0  0
   -8.0540    0.9390   -1.1560 N   0  0  0  0  0  0  0  0  0  0  0  0
   -9.2000    0.1510   -0.7860 C   0  0  0  0  0  0  0  0  0  0  0  0
   -6.7840    0.3590   -1.3910 C   0  0  0  0  0  0  0  0  0  0  0  0
   -6.7360   -0.8470   -1.8100 O   0  0  0  0  0  0  0  0  0  0  0  0
   -3.5710   -0.3990   -0.0770 C   0  0  0  0  0  0  0  0  0  0  0  0
    1.8550    0.3580    0.2720 C   0  0  0  0  0  0  0  0  0  0  0  0
    1.1510    1.4730    0.9290 C   0  0  0  0  0  0  0  0  0  0  0  0
    3.2020    0.3340   -0.0450 N   0  0  0  0  0  0  0  0  0  0  0  0
    4.0840    1.4470    0.2710 C   0  0  0  0  0  0  0  0  0  0  0  0
    4.6320    1.2820    1.6910 C   0  0  1  0  0  0  0  0  0  0  0  0
    5.3420    0.0890    1.7660 O   0  0  0  0  0  0  0  0  0  0  0  0
    5.5500    2.4070    2.0560 C   0  0  1  0  0  0  0  0  0  0  0  0
    4.8760    3.7530    2.0070 C   0  0  0  0  0  0  0  0  0  0  0  0
    5.9730    2.1840    3.5040 C   0  0  0  0  0  0  0  0  0  0  0  0
    5.7290   -0.6040   -1.7000 C   0  0  0  0  0  0  0  0  0  0  0  0
  1  2  1  0
  2  3  1  0
  3  4  2  0
  3 43  1  0
  4  5  1  0
  5  6  2  0
  6  7  1  0
  6  9  1  0
  7  8  1  0
  9 10  1  0
  9 43  2  0
 10 11  2  0
 10 36  1  0
 11 12  1  0
 11 13  1  0
 13 14  1  0
 13 34  2  0
 14 15  2  0
 14 16  1  0
 17 16  1  1
 17 18  1  0
 17 33  1  0
 18 19  1  0
 19 20  1  0
 20 21  1  6
 20 23  1  0
 21 22  1  0
 23 24  1  6
 23 33  1  0
 25 24  1  1
 25 26  1  0
 25 31  1  0
 26 27  1  0
 27 28  1  0
 28 29  1  0
 29 30  1  0
 29 31  1  0
 31 32  2  0
 34 35  1  0
 34 36  1  0
 36 37  1  0
 37 38  1  0
 38 39  1  6
 38 40  1  0
 40 41  1  1
 40 42  1  0
M  CHG  1  24   1
M  END
