
     RDKit          3D

 42 45  0  0  0  0  0  0  0  0999 V2000
   -3.4130   -1.5860   -3.0260 C   0  0  0  0  0  0  0  0  0  0  0  0
   -4.2470   -2.1600   -1.9510 C   0  0  0  0  0  0  0  0  0  0  0  0
   -4.8860   -1.2900   -0.9600 C   0  0  0  0  0  0  0  0  0  0  0  0
   -4.0440   -0.4120   -0.0940 C   0  0  1  0  0  0  0  0  0  0  0  0
   -3.0290   -1.1780    0.7090 C   0  0  0  0  0  0  0  0  0  0  0  0
   -3.2990   -1.1870    2.1250 N   0  0  0  0  0  0  0  0  0  0  0  0
   -2.3550   -1.1840    3.1780 C   0  0  0  0  0  0  0  0  0  0  0  0
   -2.9350   -1.0720    4.3570 O   0  0  0  0  0  0  0  0  0  0  0  0
   -0.9700   -1.2830    3.1100 N   0  0  0  0  0  0  0  0  0  0  0  0
    0.0220   -0.7940    2.1690 C   0  0  0  0  0  0  0  0  0  0  0  0
    1.0310   -1.8220    1.7820 C   0  0  0  0  0  0  0  0  0  0  0  0
    2.3520   -1.6500    2.1550 C   0  0  0  0  0  0  0  0  0  0  0  0
    3.3370   -2.5610    1.8600 C   0  0  0  0  0  0  0  0  0  0  0  0
    3.0180   -3.6900    1.1690 C   0  0  0  0  0  0  0  0  0  0  0  0
    1.7090   -3.8980    0.7780 C   0  0  0  0  0  0  0  0  0  0  0  0
    0.7540   -2.9680    1.0900 C   0  0  0  0  0  0  0  0  0  0  0  0
   -0.5670   -3.2280    0.6690 O   0  0  0  0  0  0  0  0  0  0  0  0
    0.1580    0.4860    1.8520 C   0  0  0  0  0  0  0  0  0  0  0  0
    1.1370    0.9820    0.8950 C   0  0  0  0  0  0  0  0  0  0  0  0
    1.9210    0.2310    0.0430 N   0  0  0  0  0  0  0  0  0  0  0  0
    2.9370    0.9090   -0.7620 C   0  0  0  0  0  0  0  0  0  0  0  0
    3.0180    2.1530   -0.6160 O   0  0  0  0  0  0  0  0  0  0  0  0
    3.8010    0.1710   -1.6770 C   0  0  2  0  0  0  0  0  0  0  0  0
    4.7480   -0.7940   -0.9960 C   0  0  0  0  0  0  0  0  0  0  0  0
    5.6910   -1.0660   -2.1820 C   0  0  0  0  0  0  0  0  0  0  0  0
    5.7380    0.3180   -2.8060 C   0  0  2  0  0  0  0  0  0  0  0  0
    7.0730    0.9150   -2.4600 C   0  0  0  0  0  0  0  0  0  0  0  0
    7.1800    2.1900   -2.9640 O   0  0  0  0  0  0  0  0  0  0  0  0
    8.4140    2.7730   -2.6580 C   0  0  0  0  0  0  0  0  0  0  0  0
    4.6810    1.0460   -2.2870 O   0  0  0  0  0  0  0  0  0  0  0  0
   -0.6360    1.5680    2.5160 C   0  0  0  0  0  0  0  0  0  0  0  0
    0.0630    2.5320    3.0560 O   0  0  0  0  0  0  0  0  0  0  0  0
   -2.0650    1.7750    2.6910 C   0  0  0  0  0  0  0  0  0  0  0  0
   -2.5160    2.0660    3.9970 C   0  0  0  0  0  0  0  0  0  0  0  0
   -3.8270    2.3250    4.3110 C   0  0  0  0  0  0  0  0  0  0  0  0
   -4.7390    2.2970    3.2920 C   0  0  0  0  0  0  0  0  0  0  0  0
   -4.3130    2.0140    2.0020 C   0  0  0  0  0  0  0  0  0  0  0  0
   -3.0150    1.7500    1.6530 C   0  0  0  0  0  0  0  0  0  0  0  0
   -2.6810    1.4850    0.2420 C   0  0  0  0  0  0  0  0  0  0  0  0
   -3.5350    0.7800   -0.6090 N   0  0  2  0  0  0  0  0  0  0  0  0
   -4.5180    1.5990   -1.3070 C   0  0  0  0  0  0  0  0  0  0  0  0
   -4.1450    3.0380   -1.3530 C   0  0  0  0  0  0  0  0  0  0  0  0
  1  2  1  0
  2  3  1  0
  4  3  1  6
  4  5  1  0
  4 40  1  0
  5  6  1  0
  6  7  1  0
  7  8  2  0
  7  9  1  0
  9 10  1  0
 10 11  1  0
 10 18  2  0
 11 12  2  0
 11 16  1  0
 12 13  1  0
 13 14  2  0
 14 15  1  0
 15 16  2  0
 16 17  1  0
 18 19  1  0
 18 31  1  0
 19 20  1  0
 20 21  1  0
 21 22  2  0
 23 21  1  1
 23 24  1  0
 23 30  1  0
 24 25  1  0
 25 26  1  0
 26 27  1  1
 26 30  1  0
 27 28  1  0
 28 29  1  0
 31 32  2  0
 31 33  1  0
 33 34  2  0
 33 38  1  0
 34 35  1  0
 35 36  2  0
 36 37  1  0
 37 38  2  0
 38 39  1  0
 39 40  1  0
 40 41  1  1
 41 42  1  0
M  CHG  1  40   1
M  END
