
     RDKit          3D

 43 46  0  0  0  0  0  0  0  0999 V2000
   11.0350    2.8670    0.8140 C   0  0  0  0  0  0  0  0  0  0  0  0
    9.6340    3.1760    0.2750 C   0  0  0  0  0  0  0  0  0  0  0  0
    9.2420    2.1310   -0.6080 O   0  0  0  0  0  0  0  0  0  0  0  0
    9.1390    0.8140   -0.1760 C   0  0  0  0  0  0  0  0  0  0  0  0
    9.4090    0.6070    1.0390 O   0  0  0  0  0  0  0  0  0  0  0  0
    8.7310   -0.2480   -1.1250 C   0  0  1  0  0  0  0  0  0  0  0  0
    8.6770   -1.5850   -0.4430 C   0  0  0  0  0  0  0  0  0  0  0  0
    7.5730   -2.4490   -1.0540 C   0  0  0  0  0  0  0  0  0  0  0  0
    6.2930   -1.7780   -0.8090 N   0  0  0  0  0  0  0  0  0  0  0  0
    5.1500   -2.6080   -0.4880 C   0  0  0  0  0  0  0  0  0  0  0  0
    5.3720   -3.8330   -0.4830 O   0  0  0  0  0  0  0  0  0  0  0  0
    3.8880   -2.0120   -0.2070 C   0  0  0  0  0  0  0  0  0  0  0  0
    2.7310   -2.4720    0.1040 C   0  0  0  0  0  0  0  0  0  0  0  0
    2.2360   -3.8160    0.2910 C   0  0  0  0  0  0  0  0  0  0  0  0
    3.1230   -4.9650    0.5320 C   0  0  0  0  0  0  0  0  0  0  0  0
    1.7120   -1.4230    0.5190 C   0  0  0  0  0  0  0  0  0  0  0  0
    2.0680   -0.2400    1.0950 C   0  0  0  0  0  0  0  0  0  0  0  0
    3.4040    0.0950    1.6260 C   0  0  0  0  0  0  0  0  0  0  0  0
    1.1060    0.7230    1.3190 N   0  0  0  0  0  0  0  0  0  0  0  0
   -0.1760    0.5060    0.9810 C   0  0  0  0  0  0  0  0  0  0  0  0
   -1.1600    1.4480    1.1950 C   0  0  0  0  0  0  0  0  0  0  0  0
   -2.4910    1.2120    0.8400 C   0  0  0  0  0  0  0  0  0  0  0  0
   -2.8810    0.0500    0.2720 C   0  0  0  0  0  0  0  0  0  0  0  0
   -4.1950   -0.2660   -0.0950 N   0  0  0  0  0  0  0  0  0  0  0  0
   -5.3430    0.4240    0.3370 C   0  0  0  0  0  0  0  0  0  0  0  0
   -5.2240    1.4270    1.1530 O   0  0  0  0  0  0  0  0  0  0  0  0
   -6.7410    0.1410   -0.0320 C   0  0  2  0  0  0  0  0  0  0  0  0
   -7.6330    0.6870    0.9440 N   0  0  0  0  0  0  0  0  0  0  0  0
   -8.6080    1.6210    0.4160 C   0  0  1  0  0  0  0  0  0  0  0  0
   -9.1000    2.7290    1.3520 C   0  0  1  0  0  0  0  0  0  0  0  0
   -8.4540    2.7360    2.6030 O   0  0  0  0  0  0  0  0  0  0  0  0
   -8.2670    3.0190    0.1250 C   0  0  2  0  0  0  0  0  0  0  0  0
   -8.9310    3.6630   -1.0680 C   0  0  0  0  0  0  0  0  0  0  0  0
   -8.5760    2.8970   -2.3320 C   0  0  0  0  0  0  0  0  0  0  0  0
   -7.0780   -1.1610   -0.6220 C   0  0  1  0  0  0  0  0  0  0  0  0
   -8.5760   -1.3160   -0.8840 C   0  0  0  0  0  0  0  0  0  0  0  0
   -6.4780   -1.3360   -2.0340 C   0  0  0  0  0  0  0  0  0  0  0  0
   -1.8860   -0.9240    0.0470 C   0  0  0  0  0  0  0  0  0  0  0  0
   -0.5900   -0.6720    0.4010 C   0  0  0  0  0  0  0  0  0  0  0  0
    0.3960   -1.6300    0.1810 C   0  0  0  0  0  0  0  0  0  0  0  0
    0.0240   -2.7020   -0.3470 O   0  0  0  0  0  0  0  0  0  0  0  0
    6.2780   -0.3620   -0.9110 C   0  0  0  0  0  0  0  0  0  0  0  0
    7.4480    0.0540   -1.8240 C   0  0  0  0  0  0  0  0  0  0  0  0
  1  2  1  0
  2  3  1  0
  3  4  1  0
  4  5  2  0
  6  4  1  1
  6  7  1  0
  6 43  1  0
  7  8  1  0
  8  9  1  0
  9 10  1  0
  9 42  1  0
 10 11  2  0
 10 12  1  0
 12 13  2  3
 13 14  1  0
 13 16  1  0
 14 15  1  0
 16 17  2  0
 16 40  1  0
 17 18  1  0
 17 19  1  0
 19 20  1  0
 20 21  2  0
 20 39  1  0
 21 22  1  0
 22 23  2  0
 23 24  1  0
 23 38  1  0
 24 25  1  0
 25 26  2  0
 25 27  1  0
 27 28  1  1
 27 35  1  0
 29 28  1  1
 29 30  1  0
 29 32  1  0
 30 31  1  1
 30 32  1  0
 32 33  1  6
 33 34  1  0
 35 36  1  6
 35 37  1  0
 38 39  2  0
 39 40  1  0
 40 41  2  0
 42 43  1  0
M  CHG  1  28   1
M  END
