
     RDKit          3D

 43 46  0  0  0  0  0  0  0  0999 V2000
    3.8720    1.2440   -4.6220 C   0  0  0  0  0  0  0  0  0  0  0  0
    3.2120    0.9360   -3.3230 C   0  0  0  0  0  0  0  0  0  0  0  0
    1.8730    1.1530   -3.1210 C   0  0  0  0  0  0  0  0  0  0  0  0
    1.2580    0.8650   -1.9110 C   0  0  0  0  0  0  0  0  0  0  0  0
    1.9780    0.3460   -0.8660 C   0  0  0  0  0  0  0  0  0  0  0  0
    1.4560    0.0390    0.3560 O   0  0  0  0  0  0  0  0  0  0  0  0
    0.1250    0.1750    0.7540 C   0  0  0  0  0  0  0  0  0  0  0  0
   -0.8000   -0.6770   -0.0240 C   0  0  0  0  0  0  0  0  0  0  0  0
   -0.2740   -1.7570   -0.7460 C   0  0  0  0  0  0  0  0  0  0  0  0
   -1.1260   -2.5640   -1.4410 C   0  0  0  0  0  0  0  0  0  0  0  0
   -2.4560   -2.2890   -1.4060 C   0  0  0  0  0  0  0  0  0  0  0  0
   -3.0120   -1.2300   -0.7030 C   0  0  0  0  0  0  0  0  0  0  0  0
   -4.4960   -1.0230   -0.7100 C   0  0  2  0  0  0  0  0  0  0  0  0
   -4.8830    0.2290   -0.1880 C   0  0  0  0  0  0  0  0  0  0  0  0
   -5.2020    1.2110    0.2340 C   0  0  0  0  0  0  0  0  0  0  0  0
   -5.6150    2.4400    0.7780 C   0  0  0  0  0  0  0  0  0  0  0  0
   -6.8940    2.8270    0.1530 N   0  0  0  0  0  0  0  0  0  0  0  0
   -8.1340    2.2680    0.5140 C   0  0  0  0  0  0  0  0  0  0  0  0
   -9.2150    2.8450    0.1660 O   0  0  0  0  0  0  0  0  0  0  0  0
   -8.2880    1.0130    1.2980 C   0  0  1  0  0  0  0  0  0  0  0  0
   -8.8130    1.4310    2.6760 C   0  0  0  0  0  0  0  0  0  0  0  0
   -9.2420    0.1620    0.7240 O   0  0  0  0  0  0  0  0  0  0  0  0
   -8.9910   -0.9810   -0.0090 C   0  0  0  0  0  0  0  0  0  0  0  0
   -9.4740   -2.1030    0.2930 O   0  0  0  0  0  0  0  0  0  0  0  0
   -8.1150   -0.9800   -1.2370 C   0  0  0  0  0  0  0  0  0  0  0  0
   -7.4000   -2.2030   -1.4190 N   0  0  0  0  0  0  0  0  0  0  0  0
   -6.3800   -2.7440   -0.5990 C   0  0  0  0  0  0  0  0  0  0  0  0
   -6.5810   -3.9740   -0.2290 O   0  0  0  0  0  0  0  0  0  0  0  0
   -5.2090   -2.1420   -0.1430 N   0  0  0  0  0  0  0  0  0  0  0  0
   -2.1520   -0.4150   -0.0020 C   0  0  0  0  0  0  0  0  0  0  0  0
    3.3410    0.1170   -1.0550 C   0  0  0  0  0  0  0  0  0  0  0  0
    4.0930   -0.4160   -0.0170 C   0  0  0  0  0  0  0  0  0  0  0  0
    5.4170   -0.6530   -0.1840 C   0  0  0  0  0  0  0  0  0  0  0  0
    6.2450   -1.2180    0.8500 N   0  0  0  0  0  0  0  0  0  0  0  0
    7.3930   -0.3820    1.1540 C   0  0  2  0  0  0  0  0  0  0  0  0
    8.6160   -1.2640    1.2640 C   0  0  0  0  0  0  0  0  0  0  0  0
    9.7830   -0.5760    1.5430 O   0  0  0  0  0  0  0  0  0  0  0  0
    7.1980    0.3960    2.4220 C   0  0  1  0  0  0  0  0  0  0  0  0
    8.4220    1.2400    2.6730 C   0  0  0  0  0  0  0  0  0  0  0  0
    6.0290    1.3530    2.3360 C   0  0  0  0  0  0  0  0  0  0  0  0
    6.0170   -0.3630   -1.3840 C   0  0  0  0  0  0  0  0  0  0  0  0
    5.2820    0.1640   -2.4170 C   0  0  0  0  0  0  0  0  0  0  0  0
    3.9250    0.4120   -2.2640 C   0  0  0  0  0  0  0  0  0  0  0  0
  1  2  1  0
  2  3  2  0
  2 43  1  0
  3  4  1  0
  4  5  2  0
  5  6  1  0
  5 31  1  0
  6  7  1  0
  7  8  1  0
  8  9  2  0
  8 30  1  0
  9 10  1  0
 10 11  2  0
 11 12  1  0
 13 12  1  1
 12 30  2  0
 13 14  1  0
 13 29  1  0
 14 15  3  0
 15 16  1  0
 16 17  1  0
 17 18  1  0
 18 19  2  0
 18 20  1  0
 20 21  1  1
 20 22  1  0
 22 23  1  0
 23 24  2  0
 23 25  1  0
 25 26  1  0
 26 27  1  0
 27 28  2  0
 27 29  1  0
 31 32  2  0
 31 43  1  0
 32 33  1  0
 33 34  1  0
 33 41  2  0
 34 35  1  0
 35 36  1  1
 35 38  1  0
 36 37  1  0
 38 39  1  6
 38 40  1  0
 41 42  1  0
 42 43  2  0
M  CHG  1  34   1
M  END
