
     RDKit          3D

 43 46  0  0  0  0  0  0  0  0999 V2000
    8.5580    1.8090    0.2150 C   0  0  0  0  0  0  0  0  0  0  0  0
    7.6480    0.7990    0.5540 O   0  0  0  0  0  0  0  0  0  0  0  0
    6.2590    1.0130    0.3930 C   0  0  0  0  0  0  0  0  0  0  0  0
    5.8210    2.2040   -0.0890 C   0  0  0  0  0  0  0  0  0  0  0  0
    4.4730    2.3700   -0.2250 C   0  0  0  0  0  0  0  0  0  0  0  0
    3.4760    1.4090    0.0960 C   0  0  0  0  0  0  0  0  0  0  0  0
    3.9250    0.2040    0.5760 C   0  0  0  0  0  0  0  0  0  0  0  0
    5.3180    0.0440    0.7130 C   0  0  0  0  0  0  0  0  0  0  0  0
    5.9350   -1.1190    1.1650 C   0  0  0  0  0  0  0  0  0  0  0  0
    7.2030   -1.2230    1.2810 O   0  0  0  0  0  0  0  0  0  0  0  0
    5.1660   -2.1520    1.4850 N   0  0  0  0  0  0  0  0  0  0  0  0
    5.7990   -3.3660    1.9600 C   0  0  0  0  0  0  0  0  0  0  0  0
    3.8620   -1.9960    1.3460 C   0  0  0  0  0  0  0  0  0  0  0  0
    3.1980   -3.0630    1.6840 O   0  0  0  0  0  0  0  0  0  0  0  0
    3.2090   -0.8940    0.9130 N   0  0  0  0  0  0  0  0  0  0  0  0
    1.7860   -1.1440    0.7720 C   0  0  0  0  0  0  0  0  0  0  0  0
    1.4550   -1.9130   -0.4780 C   0  0  2  0  0  0  0  0  0  0  0  0
    1.9860   -1.3510   -1.7390 C   0  0  0  0  0  0  0  0  0  0  0  0
    1.6640   -2.1280   -2.9970 C   0  0  0  0  0  0  0  0  0  0  0  0
    2.1820   -3.4200   -2.8720 O   0  0  0  0  0  0  0  0  0  0  0  0
    0.2850   -2.7910   -0.4780 C   0  0  0  0  0  0  0  0  0  0  0  0
   -1.1250   -2.2970   -0.5750 C   0  0  2  0  0  0  0  0  0  0  0  0
   -1.8190   -2.6210   -1.8600 C   0  0  0  0  0  0  0  0  0  0  0  0
   -1.0600   -0.9040   -0.1600 C   0  0  0  0  0  0  0  0  0  0  0  0
   -1.9270    0.2010   -0.5160 C   0  0  1  0  0  0  0  0  0  0  0  0
   -2.8800    0.6010    0.5110 C   0  0  0  0  0  0  0  0  0  0  0  0
   -3.8820   -0.4620    0.9330 C   0  0  1  0  0  0  0  0  0  0  0  0
   -4.7070    0.2130    2.0070 C   0  0  0  0  0  0  0  0  0  0  0  0
   -5.7200   -0.6840    2.6430 C   0  0  0  0  0  0  0  0  0  0  0  0
   -7.1050   -0.0840    2.5890 C   0  0  0  0  0  0  0  0  0  0  0  0
   -7.4450    0.4810    1.2350 C   0  0  0  0  0  0  0  0  0  0  0  0
   -7.1280   -0.4490    0.0970 C   0  0  2  0  0  0  0  0  0  0  0  0
   -7.1000   -1.7790    0.4500 O   0  0  0  0  0  0  0  0  0  0  0  0
   -5.8600    0.0340   -0.5680 C   0  0  0  0  0  0  0  0  0  0  0  0
   -4.7360   -0.8930   -0.2370 C   0  0  0  0  0  0  0  0  0  0  0  0
   -0.9110    1.3980   -0.6830 C   0  0  1  0  0  0  0  0  0  0  0  0
   -1.6060    2.4570   -1.3760 N   0  0  0  0  0  0  0  0  0  0  0  0
   -0.3040    1.8200    0.5650 C   0  0  0  0  0  0  0  0  0  0  0  0
    1.0850    2.1750    0.7880 C   0  0  0  0  0  0  0  0  0  0  0  0
    2.1860    2.0220   -0.0970 N   0  0  0  0  0  0  0  0  0  0  0  0
    1.9370    2.7240   -1.3970 C   0  0  0  0  0  0  0  0  0  0  0  0
    1.7940    4.2090   -1.1340 C   0  0  0  0  0  0  0  0  0  0  0  0
    1.5630    4.8280   -2.3890 O   0  0  0  0  0  0  0  0  0  0  0  0
  1  2  1  0
  2  3  1  0
  3  4  2  0
  3  8  1  0
  4  5  1  0
  5  6  2  0
  6  7  1  0
  6 40  1  0
  7  8  2  0
  7 15  1  0
  8  9  1  0
  9 10  2  0
  9 11  1  0
 11 12  1  0
 11 13  1  0
 13 14  2  0
 13 15  1  0
 15 16  1  0
 16 17  1  0
 17 18  1  6
 17 21  1  0
 18 19  1  0
 19 20  1  0
 21 22  1  0
 22 23  1  6
 22 24  1  0
 24 25  1  0
 25 26  1  1
 25 36  1  0
 27 26  1  6
 27 28  1  0
 27 35  1  0
 28 29  1  0
 29 30  1  0
 30 31  1  0
 31 32  1  0
 32 33  1  1
 32 34  1  0
 34 35  1  0
 36 37  1  1
 36 38  1  0
 38 39  1  0
 39 40  1  0
 40 41  1  0
 41 42  1  0
 42 43  1  0
M  CHG  1  37   1
M  END
