
     RDKit          3D

 43 46  0  0  0  0  0  0  0  0999 V2000
    8.8110   -3.0950    0.0190 C   0  0  0  0  0  0  0  0  0  0  0  0
    8.5800   -1.7520    0.4300 O   0  0  0  0  0  0  0  0  0  0  0  0
    7.3300   -1.2300    0.6200 C   0  0  0  0  0  0  0  0  0  0  0  0
    6.3380   -1.9770    0.4210 O   0  0  0  0  0  0  0  0  0  0  0  0
    7.2170    0.1940    1.0510 C   0  0  0  0  0  0  0  0  0  0  0  0
    5.8790    0.6490    1.2280 N   0  0  0  0  0  0  0  0  0  0  0  0
    5.2380    0.5420    2.5010 C   0  0  0  0  0  0  0  0  0  0  0  0
    5.8740   -0.2390    3.2770 O   0  0  0  0  0  0  0  0  0  0  0  0
    4.0480    1.1100    3.1010 C   0  0  0  0  0  0  0  0  0  0  0  0
    3.4400    2.3060    2.4440 C   0  0  0  0  0  0  0  0  0  0  0  0
    3.0410    1.9910    1.0550 N   0  0  0  0  0  0  0  0  0  0  0  0
    1.6910    1.7350    0.7800 C   0  0  0  0  0  0  0  0  0  0  0  0
    0.8000    2.3240    1.5380 O   0  0  0  0  0  0  0  0  0  0  0  0
    1.2150    0.8510   -0.2710 C   0  0  2  0  0  0  0  0  0  0  0  0
   -0.2610    0.8230   -0.3010 N   0  0  0  0  0  0  0  0  0  0  0  0
   -0.9930    1.0210   -1.4880 C   0  0  0  0  0  0  0  0  0  0  0  0
   -0.2390    1.2040   -2.5200 O   0  0  0  0  0  0  0  0  0  0  0  0
   -2.4420    1.0420   -1.6350 C   0  0  2  0  0  0  0  0  0  0  0  0
   -2.9850    2.2410   -0.9030 C   0  0  0  0  0  0  0  0  0  0  0  0
   -3.3590    2.0440    0.5060 C   0  0  0  0  0  0  0  0  0  0  0  0
   -4.2170    0.7980    0.7320 C   0  0  2  0  0  0  0  0  0  0  0  0
   -5.5890    1.1980    0.4440 N   0  0  0  0  0  0  0  0  0  0  0  0
   -4.1250    0.5510    2.2110 C   0  0  0  0  0  0  0  0  0  0  0  0
   -4.8170   -0.6230    2.7670 C   0  0  0  0  0  0  0  0  0  0  0  0
   -6.3030   -0.7230    2.6290 C   0  0  0  0  0  0  0  0  0  0  0  0
   -6.6360   -1.9590    3.2860 O   0  0  0  0  0  0  0  0  0  0  0  0
   -3.7340   -0.3880    0.0050 C   0  0  0  0  0  0  0  0  0  0  0  0
   -3.2170   -0.1990   -1.3960 C   0  0  1  0  0  0  0  0  0  0  0  0
   -4.4980   -0.0490   -2.2490 C   0  0  0  0  0  0  0  0  0  0  0  0
   -4.2550   -0.3660   -3.7030 C   0  0  0  0  0  0  0  0  0  0  0  0
   -4.0850   -1.8460   -3.8270 C   0  0  0  0  0  0  0  0  0  0  0  0
   -3.6370   -2.3610   -2.4940 C   0  0  0  0  0  0  0  0  0  0  0  0
   -2.5770   -1.4570   -1.8400 C   0  0  2  0  0  0  0  0  0  0  0  0
   -1.9690   -2.3110   -0.7660 C   0  0  0  0  0  0  0  0  0  0  0  0
    1.7480   -0.5470    0.0590 C   0  0  2  0  0  0  0  0  0  0  0  0
    1.3570   -1.5870   -0.9270 C   0  0  0  0  0  0  0  0  0  0  0  0
    1.3320   -0.9040    1.4430 C   0  0  0  0  0  0  0  0  0  0  0  0
    3.9970    1.8360    0.0140 C   0  0  0  0  0  0  0  0  0  0  0  0
    3.5620    2.3620   -1.1720 C   0  0  0  0  0  0  0  0  0  0  0  0
    4.3300    2.2690   -2.2880 C   0  0  0  0  0  0  0  0  0  0  0  0
    5.5640    1.6480   -2.2610 C   0  0  0  0  0  0  0  0  0  0  0  0
    5.9970    1.1210   -1.0480 C   0  0  0  0  0  0  0  0  0  0  0  0
    5.2400    1.2060    0.0790 C   0  0  0  0  0  0  0  0  0  0  0  0
  1  2  1  0
  2  3  1  0
  3  4  2  0
  3  5  1  0
  5  6  1  0
  6  7  1  0
  6 43  1  0
  7  8  2  0
  7  9  1  0
  9 10  1  0
 10 11  1  0
 11 12  1  0
 11 38  1  0
 12 13  2  0
 12 14  1  0
 14 15  1  1
 14 35  1  0
 15 16  1  0
 16 17  2  0
 18 16  1  1
 18 19  1  0
 18 28  1  0
 19 20  1  0
 20 21  1  0
 21 22  1  6
 21 23  1  0
 21 27  1  0
 23 24  1  0
 24 25  1  0
 25 26  1  0
 28 27  1  1
 28 29  1  0
 28 33  1  0
 29 30  1  0
 30 31  1  0
 31 32  1  0
 32 33  1  0
 33 34  1  1
 35 36  1  6
 35 37  1  0
 38 39  2  0
 38 43  1  0
 39 40  1  0
 40 41  2  0
 41 42  1  0
 42 43  2  0
M  CHG  1  22   1
M  END
