
     RDKit          3D

 43 46  0  0  0  0  0  0  0  0999 V2000
   -5.5030    3.2620    2.2540 C   0  0  0  0  0  0  0  0  0  0  0  0
   -5.9030    3.1760    1.0210 C   0  0  0  0  0  0  0  0  0  0  0  0
   -6.7060    4.2940    0.6100 O   0  0  0  0  0  0  0  0  0  0  0  0
   -5.6370    2.1130    0.0650 C   0  0  0  0  0  0  0  0  0  0  0  0
   -6.1170    2.2300   -1.1540 C   0  0  0  0  0  0  0  0  0  0  0  0
   -6.0760    1.4420   -2.3380 C   0  0  0  0  0  0  0  0  0  0  0  0
   -6.3000    0.2300   -2.7260 C   0  0  0  0  0  0  0  0  0  0  0  0
   -6.7250   -0.9830   -2.0920 C   0  0  0  0  0  0  0  0  0  0  0  0
   -6.0750   -1.9820   -1.5280 C   0  0  0  0  0  0  0  0  0  0  0  0
   -6.7160   -3.1960   -0.8970 C   0  0  0  0  0  0  0  0  0  0  0  0
   -7.9050   -3.2650   -0.3110 C   0  0  0  0  0  0  0  0  0  0  0  0
   -5.8130   -4.3420   -1.0320 C   0  0  0  0  0  0  0  0  0  0  0  0
   -4.5790   -3.7640   -1.6020 C   0  0  0  0  0  0  0  0  0  0  0  0
   -4.6680   -2.2470   -1.3550 C   0  0  1  0  0  0  0  0  0  0  0  0
   -3.7010   -1.5730   -2.0610 O   0  0  0  0  0  0  0  0  0  0  0  0
   -2.3880   -1.2120   -1.7930 C   0  0  0  0  0  0  0  0  0  0  0  0
   -1.3600   -2.0580   -2.2630 C   0  0  0  0  0  0  0  0  0  0  0  0
   -0.0120   -1.8470   -2.0670 C   0  0  0  0  0  0  0  0  0  0  0  0
    0.3440   -0.7360   -1.3660 C   0  0  0  0  0  0  0  0  0  0  0  0
    1.7020   -0.4920   -1.1430 O   0  0  0  0  0  0  0  0  0  0  0  0
    2.1180    0.6410   -0.4080 C   0  0  0  0  0  0  0  0  0  0  0  0
    3.6210    0.6120   -0.3340 C   0  0  0  0  0  0  0  0  0  0  0  0
    4.2740   -0.2540   -0.9450 O   0  0  0  0  0  0  0  0  0  0  0  0
    4.2980    1.5850    0.4420 N   0  0  0  0  0  0  0  0  0  0  0  0
    5.6560    1.7190    0.6350 N   0  0  0  0  0  0  0  0  0  0  0  0
    6.5120    0.6060    0.8380 C   0  0  0  0  0  0  0  0  0  0  0  0
    6.1170   -0.5730    0.8310 O   0  0  0  0  0  0  0  0  0  0  0  0
    7.9130    0.8290    1.0720 N   0  0  0  0  0  0  0  0  0  0  0  0
    8.7760   -0.2970    1.2720 C   0  0  2  0  0  0  0  0  0  0  0  0
    8.9370   -0.4580    2.8090 C   0  0  0  0  0  0  0  0  0  0  0  0
   10.1580   -0.0950    0.7260 C   0  0  1  0  0  0  0  0  0  0  0  0
   10.2500    0.0150   -0.7600 C   0  0  0  0  0  0  0  0  0  0  0  0
   11.3740    1.0580   -0.8950 C   0  0  0  0  0  0  0  0  0  0  0  0
   11.0930    1.8870    0.3330 C   0  0  0  0  0  0  0  0  0  0  0  0
   10.7990    0.9760    1.3050 O   0  0  0  0  0  0  0  0  0  0  0  0
   -0.6280    0.1040   -0.9020 C   0  0  0  0  0  0  0  0  0  0  0  0
   -2.0090   -0.0690   -1.0800 C   0  0  0  0  0  0  0  0  0  0  0  0
   -2.8140    1.0480   -0.6070 C   0  0  0  0  0  0  0  0  0  0  0  0
   -3.4590    1.0800    0.6510 N   0  0  2  0  0  0  0  0  0  0  0  0
   -2.8160    0.4320    1.7240 C   0  0  0  0  0  0  0  0  0  0  0  0
   -2.8000   -1.0300    1.8370 C   0  0  0  0  0  0  0  0  0  0  0  0
   -4.8750    0.9420    0.5680 C   0  0  1  0  0  0  0  0  0  0  0  0
   -5.5150    0.3930    1.7830 C   0  0  0  0  0  0  0  0  0  0  0  0
  1  2  2  0
  2  3  1  0
  2  4  1  0
  4  5  2  0
  4 42  1  0
  5  6  1  0
  6  7  2  0
  7  8  1  0
  8  9  2  0
  9 10  1  0
  9 14  1  0
 10 11  2  0
 10 12  1  0
 12 13  1  0
 14 13  1  6
 14 15  1  0
 15 16  1  0
 16 17  2  0
 16 37  1  0
 17 18  1  0
 18 19  2  0
 19 20  1  0
 19 36  1  0
 20 21  1  0
 21 22  1  0
 22 23  2  0
 22 24  1  0
 24 25  1  0
 25 26  1  0
 26 27  2  0
 26 28  1  0
 28 29  1  0
 29 30  1  1
 29 31  1  0
 31 32  1  6
 31 35  1  0
 32 33  1  0
 33 34  1  0
 34 35  1  0
 36 37  2  0
 37 38  1  0
 38 39  1  0
 39 40  1  1
 39 42  1  0
 40 41  1  0
 42 43  1  1
M  CHG  1  39   1
M  END
