
     RDKit          3D

 43 46  0  0  0  0  0  0  0  0999 V2000
   -2.3710   -2.6890   -2.6530 C   0  0  0  0  0  0  0  0  0  0  0  0
   -2.5490   -2.7620   -1.1120 C   0  0  0  0  0  0  0  0  0  0  0  0
   -3.3560   -1.5870   -0.7480 C   0  0  0  0  0  0  0  0  0  0  0  0
   -3.7350   -1.4130    0.7190 C   0  0  1  0  0  0  0  0  0  0  0  0
   -2.6540   -1.2170    1.5290 N   0  0  0  0  0  0  0  0  0  0  0  0
   -1.6200   -2.1090    1.8160 C   0  0  0  0  0  0  0  0  0  0  0  0
   -0.3300   -1.5970    1.2880 C   0  0  0  0  0  0  0  0  0  0  0  0
    0.6640   -2.3470    1.6590 O   0  0  0  0  0  0  0  0  0  0  0  0
    0.0210   -0.5150    0.5010 N   0  0  0  0  0  0  0  0  0  0  0  0
    0.8280   -0.7240   -0.7290 C   0  0  0  0  0  0  0  0  0  0  0  0
    2.2870   -0.6730   -0.3490 C   0  0  0  0  0  0  0  0  0  0  0  0
    2.5580   -0.5050    0.8760 O   0  0  0  0  0  0  0  0  0  0  0  0
    3.2750   -0.8070   -1.3270 N   0  0  0  0  0  0  0  0  0  0  0  0
    4.7380   -0.7710   -0.9560 C   0  0  1  0  0  0  0  0  0  0  0  0
    5.3020   -1.9460   -1.6750 C   0  0  0  0  0  0  0  0  0  0  0  0
    5.2660    0.5540   -1.2910 C   0  0  0  0  0  0  0  0  0  0  0  0
    6.6120    0.9530   -1.0240 C   0  0  0  0  0  0  0  0  0  0  0  0
    7.8240    0.4350   -1.6470 C   0  0  1  0  0  0  0  0  0  0  0  0
    9.0130    1.2600   -0.9930 C   0  0  0  0  0  0  0  0  0  0  0  0
   10.2410    0.5470   -1.4280 C   0  0  0  0  0  0  0  0  0  0  0  0
    9.8290   -0.8630   -1.6830 C   0  0  0  0  0  0  0  0  0  0  0  0
    8.3090   -0.9290   -1.4890 C   0  0  0  0  0  0  0  0  0  0  0  0
   -0.2670    0.9110    0.6860 C   0  0  0  0  0  0  0  0  0  0  0  0
   -0.3860    1.3770    2.0550 C   0  0  0  0  0  0  0  0  0  0  0  0
   -1.7140    1.4500    2.7320 C   0  0  0  0  0  0  0  0  0  0  0  0
   -2.7690    2.2750    2.1920 C   0  0  0  0  0  0  0  0  0  0  0  0
   -2.2630    3.7060    2.5020 C   0  0  0  0  0  0  0  0  0  0  0  0
   -2.7580    4.7420    2.1020 O   0  0  0  0  0  0  0  0  0  0  0  0
   -1.1400    3.8730    3.3140 O   0  0  0  0  0  0  0  0  0  0  0  0
   -0.6660    5.1960    3.6090 C   0  0  0  0  0  0  0  0  0  0  0  0
   -3.8760    2.1220    1.4720 C   0  0  0  0  0  0  0  0  0  0  0  0
   -4.6140    3.3940    1.2430 N   0  0  0  0  0  0  0  0  0  0  0  0
   -5.8020    3.1490    0.5560 C   0  0  0  0  0  0  0  0  0  0  0  0
   -6.6830    4.0070    0.1950 O   0  0  0  0  0  0  0  0  0  0  0  0
   -5.8000    1.7240    0.3530 C   0  0  0  0  0  0  0  0  0  0  0  0
   -4.6960    1.1090    0.8690 C   0  0  0  0  0  0  0  0  0  0  0  0
   -4.7820   -0.3160    0.7620 C   0  0  0  0  0  0  0  0  0  0  0  0
   -5.8980   -0.9260    0.2590 C   0  0  0  0  0  0  0  0  0  0  0  0
   -6.0620   -2.2800   -0.2160 C   0  0  2  0  0  0  0  0  0  0  0  0
   -6.7770   -2.2990   -1.5990 C   0  0  0  0  0  0  0  0  0  0  0  0
   -7.0650   -2.8740    0.6270 O   0  0  0  0  0  0  0  0  0  0  0  0
   -7.2290   -0.1580    0.3130 C   0  0  0  0  0  0  0  0  0  0  0  0
   -6.8810    1.0470   -0.4700 C   0  0  0  0  0  0  0  0  0  0  0  0
  1  2  1  0
  2  3  1  0
  4  3  1  6
  4  5  1  0
  4 37  1  0
  5  6  1  0
  6  7  1  0
  7  8  2  0
  7  9  1  0
  9 10  1  0
  9 23  1  0
 10 11  1  0
 11 12  2  0
 11 13  1  0
 13 14  1  0
 14 15  1  6
 14 16  1  0
 16 17  1  0
 18 17  1  1
 18 19  1  0
 18 22  1  0
 19 20  1  0
 20 21  1  0
 21 22  1  0
 23 24  1  0
 24 25  1  0
 25 26  1  0
 26 27  1  0
 26 31  2  0
 27 28  2  0
 27 29  1  0
 29 30  1  0
 31 32  1  0
 31 36  1  0
 32 33  1  0
 33 34  2  0
 33 35  1  0
 35 36  2  0
 35 43  1  0
 36 37  1  0
 37 38  2  0
 38 39  1  0
 38 42  1  0
 39 40  1  6
 39 41  1  0
 42 43  1  0
M  CHG  1   5   1
M  END
