
     RDKit          3D

 24 25  0  0  0  0  0  0  0  0999 V2000
    0.0710    3.7900   -0.1170 C   0  0  0  0  0  0  0  0  0  0  0  0
    0.0770    2.3920   -0.3760 O   0  0  0  0  0  0  0  0  0  0  0  0
   -0.7910    1.8250   -1.3040 C   0  0  0  0  0  0  0  0  0  0  0  0
   -1.4280    2.7510   -2.2930 C   0  0  0  0  0  0  0  0  0  0  0  0
   -1.0690    0.5510   -1.3480 C   0  0  0  0  0  0  0  0  0  0  0  0
   -0.5290   -0.4760   -0.4540 C   0  0  0  0  0  0  0  0  0  0  0  0
   -1.4330   -1.3760    0.1210 C   0  0  0  0  0  0  0  0  0  0  0  0
   -2.8830   -1.1780   -0.1650 C   0  0  0  0  0  0  0  0  0  0  0  0
   -3.6810   -2.1760    0.6230 C   0  0  0  0  0  0  0  0  0  0  0  0
   -5.5050   -1.9410    0.3490 P   0  0  0  0  0  0  0  0  0  0  0  0
   -6.1780   -3.1820   -0.6420 O   0  0  0  0  0  0  0  0  0  0  0  0
   -6.2950   -1.8330    1.8820 O   0  0  0  0  0  0  0  0  0  0  0  0
   -0.9340   -2.3560    0.9340 C   0  0  0  0  0  0  0  0  0  0  0  0
    0.4200   -2.4530    1.1790 C   0  0  0  0  0  0  0  0  0  0  0  0
    1.2690   -1.5670    0.6090 N   0  0  0  0  0  0  0  0  0  0  0  0
    0.8050   -0.5940   -0.1940 C   0  0  0  0  0  0  0  0  0  0  0  0
    1.6980    0.2960   -0.7610 O   0  0  0  0  0  0  0  0  0  0  0  0
    3.0510    0.2720   -0.5560 C   0  0  0  0  0  0  0  0  0  0  0  0
    3.8560   -0.5250   -1.3100 C   0  0  0  0  0  0  0  0  0  0  0  0
    5.2310   -0.5480   -1.1070 C   0  0  0  0  0  0  0  0  0  0  0  0
    5.7980    0.2470   -0.1280 C   0  0  0  0  0  0  0  0  0  0  0  0
    7.1680    0.2850    0.1400 O   0  0  0  0  0  0  0  0  0  0  0  0
    4.9460    1.0420    0.6170 C   0  0  0  0  0  0  0  0  0  0  0  0
    3.5970    1.0670    0.4190 C   0  0  0  0  0  0  0  0  0  0  0  0
  1  2  1  0
  2  3  1  0
  3  4  1  0
  3  5  2  3
  5  6  1  0
  6  7  2  0
  6 16  1  0
  7  8  1  0
  7 13  1  0
  8  9  1  0
  9 10  1  0
 10 11  1  0
 10 12  1  0
 13 14  2  0
 14 15  1  0
 15 16  2  0
 16 17  1  0
 17 18  1  0
 18 19  2  0
 18 24  1  0
 19 20  1  0
 20 21  2  0
 21 22  1  0
 21 23  1  0
 23 24  2  0
M  END
