
     RDKit          3D

 23 25  0  0  0  0  0  0  0  0999 V2000
    3.6280    1.0120   -0.1510 O   0  0  0  0  0  0  0  0  0  0  0  0
    4.4590    0.1920    0.2980 C   0  0  0  0  0  0  0  0  0  0  0  0
    5.6270    0.6380    1.0210 N   0  0  0  0  0  0  0  0  0  0  0  0
    5.8890    1.9250    1.2470 O   0  0  0  0  0  0  0  0  0  0  0  0
    6.0870    2.6130    0.1440 O   0  0  0  0  0  0  0  0  0  0  0  0
    4.2470   -1.1460    0.0900 O   0  0  0  0  0  0  0  0  0  0  0  0
    3.1620   -1.6840   -0.5890 C   0  0  0  0  0  0  0  0  0  0  0  0
    1.8400   -1.3750    0.0000 C   0  0  0  0  0  0  0  0  0  0  0  0
    0.7110   -1.8240   -0.5690 N   0  0  0  0  0  0  0  0  0  0  0  0
   -0.3750   -1.4090    0.1630 C   0  0  0  0  0  0  0  0  0  0  0  0
   -1.7500   -1.7440   -0.1270 C   0  0  0  0  0  0  0  0  0  0  0  0
   -2.8060   -1.0070   -0.1910 C   0  0  0  0  0  0  0  0  0  0  0  0
   -4.1550   -1.5550   -0.5050 C   0  0  0  0  0  0  0  0  0  0  0  0
   -4.4250   -2.7550   -0.7220 O   0  0  0  0  0  0  0  0  0  0  0  0
   -5.0550   -0.4760   -0.5100 N   0  0  0  0  0  0  0  0  0  0  0  0
   -4.3070    0.7090   -0.2130 C   0  0  0  0  0  0  0  0  0  0  0  0
   -3.0140    0.4130   -0.0280 C   0  0  0  0  0  0  0  0  0  0  0  0
   -2.3460    1.6870    0.2650 C   0  0  0  0  0  0  0  0  0  0  0  0
   -1.1170    1.8080    0.4920 O   0  0  0  0  0  0  0  0  0  0  0  0
   -3.2760    2.6870    0.2460 O   0  0  0  0  0  0  0  0  0  0  0  0
   -4.5280    2.1670   -0.0510 C   0  0  0  0  0  0  0  0  0  0  0  0
    0.1800   -0.7140    1.1590 N   0  0  0  0  0  0  0  0  0  0  0  0
    1.4830   -0.7000    1.0540 O   0  0  0  0  0  0  0  0  0  0  0  0
  1  2  2  0
  2  3  1  0
  2  6  1  0
  3  4  1  0
  4  5  1  0
  6  7  1  0
  7  8  1  0
  8  9  2  0
  8 23  1  0
  9 10  1  0
 10 11  1  0
 10 22  2  0
 11 12  2  3
 12 13  1  0
 12 17  1  0
 13 14  2  0
 13 15  1  0
 15 16  1  0
 16 17  2  0
 16 21  1  0
 17 18  1  0
 18 19  2  0
 18 20  1  0
 20 21  1  0
 22 23  1  0
M  END
