
     RDKit          3D

 25 24  0  0  0  0  0  0  0  0999 V2000
   -3.5730    2.0290   -1.7250 O   0  0  0  0  0  0  0  0  0  0  0  0
   -2.6460    2.4180   -0.9820 C   0  0  0  0  0  0  0  0  0  0  0  0
   -2.1710    3.7100   -1.2460 O   0  0  0  0  0  0  0  0  0  0  0  0
   -2.0550    1.6250    0.1070 C   0  0  0  0  0  0  0  0  0  0  0  0
   -2.6210    0.3190    0.2980 N   0  0  1  0  0  0  0  0  0  0  0  0
   -1.7820   -0.4040    1.2330 C   0  0  0  0  0  0  0  0  0  0  0  0
   -0.9680   -1.5030    0.6740 C   0  0  1  0  0  0  0  0  0  0  0  0
   -1.7620   -2.4560   -0.0120 O   0  0  0  0  0  0  0  0  0  0  0  0
    0.2000   -1.1950   -0.1740 C   0  0  1  0  0  0  0  0  0  0  0  0
   -0.1410   -0.5860   -1.3730 O   0  0  0  0  0  0  0  0  0  0  0  0
    1.4200   -0.6750    0.4940 C   0  0  2  0  0  0  0  0  0  0  0  0
    1.3020    0.6570    0.7970 O   0  0  0  0  0  0  0  0  0  0  0  0
    2.5810   -0.7870   -0.5080 C   0  0  2  0  0  0  0  0  0  0  0  0
    2.7820   -2.1130   -0.8810 O   0  0  0  0  0  0  0  0  0  0  0  0
    3.7960   -0.1090    0.0140 C   0  0  0  0  0  0  0  0  0  0  0  0
    4.7550   -0.1380   -1.0070 O   0  0  0  0  0  0  0  0  0  0  0  0
    6.1380    0.5230   -0.7190 P   0  0  0  0  0  0  0  0  0  0  0  0
    6.4050   -0.3110    0.6540 O   0  0  0  0  0  0  0  0  0  0  0  0
    7.4230    1.3390   -0.6600 O   0  0  0  0  0  0  0  0  0  0  0  0
    5.2650    1.9450   -0.5800 O   0  0  0  0  0  0  0  0  0  0  0  0
   -4.0040    0.4440    0.8290 C   0  0  0  0  0  0  0  0  0  0  0  0
   -5.0260   -0.7780    0.4960 P   0  0  0  0  0  0  0  0  0  0  0  0
   -4.4030   -1.8360    1.5480 O   0  0  0  0  0  0  0  0  0  0  0  0
   -6.3810    0.0940    0.9550 O   0  0  0  0  0  0  0  0  0  0  0  0
   -4.6200   -0.7890   -1.1180 O   0  0  0  0  0  0  0  0  0  0  0  0
  1  2  2  0
  2  3  1  0
  2  4  1  0
  5  4  1  1
  5  6  1  0
  5 21  1  0
  6  7  1  0
  7  8  1  6
  7  9  1  0
  9 10  1  6
  9 11  1  0
 11 12  1  6
 11 13  1  0
 13 14  1  1
 13 15  1  0
 15 16  1  0
 16 17  1  0
 17 18  1  0
 17 19  1  0
 17 20  1  0
 21 22  1  0
 22 23  1  0
 22 24  1  0
 22 25  1  0
M  CHG  1   5   1
M  END
