
     RDKit          3D

 23 24  0  0  0  0  0  0  0  0999 V2000
   -2.4040   -1.5640    1.3770 O   0  0  0  0  0  0  0  0  0  0  0  0
   -2.7230   -0.6320    0.4770 C   0  0  0  0  0  0  0  0  0  0  0  0
   -1.6560   -0.2910   -0.4180 C   0  0  0  0  0  0  0  0  0  0  0  0
   -1.5530    0.7020   -1.2640 C   0  0  0  0  0  0  0  0  0  0  0  0
   -0.4270    0.9870   -2.1680 C   0  0  0  0  0  0  0  0  0  0  0  0
    0.2660   -0.2860   -2.5810 C   0  0  0  0  0  0  0  0  0  0  0  0
    0.6110   -0.9340   -1.3180 N   0  0  0  0  0  0  0  0  0  0  0  0
    1.9680   -1.2920   -0.9640 C   0  0  0  0  0  0  0  0  0  0  0  0
    2.6550   -0.1590   -0.2260 C   0  0  0  0  0  0  0  0  0  0  0  0
    4.0550   -0.5940    0.1110 C   0  0  0  0  0  0  0  0  0  0  0  0
    4.7680    0.5080    0.8450 C   0  0  0  0  0  0  0  0  0  0  0  0
    6.4970    0.0200    1.2830 P   0  0  0  0  0  0  0  0  0  0  0  0
    6.4850   -1.1790    2.5050 O   0  0  0  0  0  0  0  0  0  0  0  0
    7.3650    1.4180    1.8310 O   0  0  0  0  0  0  0  0  0  0  0  0
   -0.4550   -1.2030   -0.4440 C   0  0  0  0  0  0  0  0  0  0  0  0
   -0.4440   -2.1870    0.3270 O   0  0  0  0  0  0  0  0  0  0  0  0
   -4.0660   -0.1980    0.6430 C   0  0  0  0  0  0  0  0  0  0  0  0
   -4.5830   -0.2930    1.9910 C   0  0  0  0  0  0  0  0  0  0  0  0
   -5.7280    0.3130    2.4010 C   0  0  0  0  0  0  0  0  0  0  0  0
   -6.4630    1.0630    1.5280 C   0  0  0  0  0  0  0  0  0  0  0  0
   -6.0290    1.1800    0.2550 C   0  0  0  0  0  0  0  0  0  0  0  0
   -4.8450    0.5540   -0.1920 C   0  0  0  0  0  0  0  0  0  0  0  0
   -4.6110    0.7570   -1.5250 O   0  0  0  0  0  0  0  0  0  0  0  0
  1  2  2  0
  2  3  1  0
  2 17  1  0
  3  4  2  0
  3 15  1  0
  4  5  1  0
  5  6  1  0
  6  7  1  0
  7  8  1  0
  7 15  1  0
  8  9  1  0
  9 10  1  0
 10 11  1  0
 11 12  1  0
 12 13  1  0
 12 14  1  0
 15 16  2  0
 17 18  2  0
 17 22  1  0
 18 19  1  0
 19 20  2  0
 20 21  1  0
 21 22  2  0
 22 23  1  0
M  END
