
     RDKit          3D

 24 25  0  0  0  0  0  0  0  0999 V2000
   -4.3500    3.8020    0.6750 C   0  0  0  0  0  0  0  0  0  0  0  0
   -3.9860    2.5370   -0.0640 C   0  0  0  0  0  0  0  0  0  0  0  0
   -4.6050    1.4150    0.5170 O   0  0  0  0  0  0  0  0  0  0  0  0
   -4.1470    0.0190   -0.3730 P   0  0  0  0  0  0  0  0  0  0  0  0
   -5.0760   -1.3570    0.1170 O   0  0  0  0  0  0  0  0  0  0  0  0
   -4.6720   -2.5180   -0.5010 C   0  0  0  0  0  0  0  0  0  0  0  0
   -5.5220   -3.6650   -0.0270 C   0  0  0  0  0  0  0  0  0  0  0  0
   -2.3420   -0.2700   -0.1300 C   0  0  0  0  0  0  0  0  0  0  0  0
   -1.8810   -1.0890    0.8780 C   0  0  0  0  0  0  0  0  0  0  0  0
   -0.5340   -1.3050    1.0600 C   0  0  0  0  0  0  0  0  0  0  0  0
    0.4420   -0.7150    0.2430 C   0  0  0  0  0  0  0  0  0  0  0  0
    1.8030   -1.0170    0.4860 N   0  0  0  0  0  0  0  0  0  0  0  0
    2.9220   -0.2250    0.1460 C   0  0  0  0  0  0  0  0  0  0  0  0
    2.8830    1.1190   -0.0480 C   0  0  0  0  0  0  0  0  0  0  0  0
    4.0250    1.8220   -0.4060 C   0  0  0  0  0  0  0  0  0  0  0  0
    3.9810    3.1870   -0.6040 O   0  0  0  0  0  0  0  0  0  0  0  0
    5.2310    1.1540   -0.5700 C   0  0  0  0  0  0  0  0  0  0  0  0
    6.3780    1.8370   -0.9250 O   0  0  0  0  0  0  0  0  0  0  0  0
    5.3080   -0.2140   -0.3790 C   0  0  0  0  0  0  0  0  0  0  0  0
    6.6080   -0.9120   -0.5580 C   0  0  0  0  0  0  0  0  0  0  0  0
    6.5180   -2.2620   -0.3330 O   0  0  0  0  0  0  0  0  0  0  0  0
    4.1520   -0.8470   -0.0290 C   0  0  0  0  0  0  0  0  0  0  0  0
   -0.0370    0.0970   -0.7570 C   0  0  0  0  0  0  0  0  0  0  0  0
   -1.4060    0.3210   -0.9470 C   0  0  0  0  0  0  0  0  0  0  0  0
  1  2  1  0
  2  3  1  0
  3  4  1  0
  4  5  1  0
  4  8  1  0
  5  6  1  0
  6  7  1  0
  8  9  2  0
  8 24  1  0
  9 10  1  0
 10 11  2  0
 11 12  1  0
 11 23  1  0
 12 13  1  0
 13 14  2  0
 13 22  1  0
 14 15  1  0
 15 16  1  0
 15 17  2  0
 17 18  1  0
 17 19  1  0
 19 20  1  0
 19 22  2  0
 20 21  1  0
 23 24  2  0
M  END
