
     RDKit          3D

 24 25  0  0  0  0  0  0  0  0999 V2000
   -6.2530   -1.6660   -0.5270 C   0  0  0  0  0  0  0  0  0  0  0  0
   -5.2000   -1.2710   -1.6120 C   0  0  0  0  0  0  0  0  0  0  0  0
   -4.0280   -1.6030   -0.9990 O   0  0  0  0  0  0  0  0  0  0  0  0
   -3.2260   -0.2660   -0.2910 P   0  0  0  0  0  0  0  0  0  0  0  0
   -2.3500   -0.8410    1.1750 C   0  0  0  0  0  0  0  0  0  0  0  0
   -1.5150    0.1220    1.8660 C   0  0  0  0  0  0  0  0  0  0  0  0
   -0.5050    0.7870    0.8940 C   0  0  0  0  0  0  0  0  0  0  0  0
   -0.0240   -0.2180    0.0290 O   0  0  0  0  0  0  0  0  0  0  0  0
    1.2670   -0.1380   -0.4880 C   0  0  0  0  0  0  0  0  0  0  0  0
    1.6220   -0.2180   -1.7290 C   0  0  0  0  0  0  0  0  0  0  0  0
    3.0480   -0.1540   -2.1190 N   0  0  0  0  0  0  0  0  0  0  0  0
    3.9450   -0.0130   -1.0380 C   0  0  0  0  0  0  0  0  0  0  0  0
    5.2140   -0.3660   -1.4740 C   0  0  0  0  0  0  0  0  0  0  0  0
    6.3980   -0.3930   -0.5890 C   0  0  0  0  0  0  0  0  0  0  0  0
    7.5060   -1.3230   -1.0820 C   0  0  0  0  0  0  0  0  0  0  0  0
    6.6260    0.0230    0.6420 C   0  0  0  0  0  0  0  0  0  0  0  0
    5.7300    0.6590    1.5830 O   0  0  0  0  0  0  0  0  0  0  0  0
    4.3420    0.3160    1.5440 C   0  0  0  0  0  0  0  0  0  0  0  0
    3.7830    0.1790    2.6310 O   0  0  0  0  0  0  0  0  0  0  0  0
    3.5440    0.1010    0.3180 C   0  0  0  0  0  0  0  0  0  0  0  0
    2.2470    0.0500    0.6210 C   0  0  0  0  0  0  0  0  0  0  0  0
   -3.6350    1.2530   -0.5960 O   0  0  0  0  0  0  0  0  0  0  0  0
   -3.8030    2.2590    0.3060 C   0  0  0  0  0  0  0  0  0  0  0  0
   -5.1390    1.9340    1.0410 C   0  0  0  0  0  0  0  0  0  0  0  0
  1  2  1  0
  2  3  1  0
  3  4  1  0
  4  5  1  0
  4 22  1  0
  5  6  1  0
  6  7  1  0
  7  8  1  0
  8  9  1  0
  9 10  2  0
  9 21  1  0
 10 11  1  0
 11 12  1  0
 12 13  2  0
 12 20  1  0
 13 14  1  0
 14 15  1  0
 14 16  2  0
 16 17  1  0
 17 18  1  0
 18 19  2  0
 18 20  1  0
 20 21  2  0
 22 23  1  0
 23 24  1  0
M  END
