
     RDKit          3D

 24 24  0  0  0  0  0  0  0  0999 V2000
    6.4460    1.5630    1.5100 C   0  0  0  0  0  0  0  0  0  0  0  0
    6.7390    0.3440    0.7060 C   0  0  0  0  0  0  0  0  0  0  0  0
    5.7700   -0.2840    0.0650 C   0  0  0  0  0  0  0  0  0  0  0  0
    6.0410   -1.4990   -0.7400 C   0  0  0  0  0  0  0  0  0  0  0  0
    4.0470    0.3550    0.1680 P   0  0  0  0  0  0  0  0  0  0  0  0
    3.9380    1.9890   -0.7060 C   0  0  0  0  0  0  0  0  0  0  0  0
    2.8740   -0.8830   -0.6110 C   0  0  0  0  0  0  0  0  0  0  0  0
    1.5960   -0.9170    0.0290 C   0  0  0  0  0  0  0  0  0  0  0  0
    0.4100   -0.6480   -0.4780 C   0  0  0  0  0  0  0  0  0  0  0  0
    0.2560   -0.2520   -1.8490 C   0  0  0  0  0  0  0  0  0  0  0  0
   -0.8810    0.0080   -2.3700 O   0  0  0  0  0  0  0  0  0  0  0  0
    1.3100   -0.1160   -2.7240 O   0  0  0  0  0  0  0  0  0  0  0  0
   -0.7590   -0.7690    0.4250 C   0  0  0  0  0  0  0  0  0  0  0  0
   -0.5490   -1.1280    1.6410 O   0  0  0  0  0  0  0  0  0  0  0  0
   -2.0830   -0.5220    0.0590 N   0  0  0  0  0  0  0  0  0  0  0  0
   -3.1670   -0.6840    1.0730 C   0  0  0  0  0  0  0  0  0  0  0  0
   -4.4490   -0.3490    0.3730 C   0  0  2  0  0  0  0  0  0  0  0  0
   -4.6150   -1.2820   -0.7540 C   0  0  0  0  0  0  0  0  0  0  0  0
   -4.6960   -0.8790   -1.9360 O   0  0  0  0  0  0  0  0  0  0  0  0
   -4.6850   -2.6360   -0.5060 O   0  0  0  0  0  0  0  0  0  0  0  0
   -4.3230    1.0850   -0.1310 C   0  0  0  0  0  0  0  0  0  0  0  0
   -5.7230    1.5850   -0.0520 C   0  0  0  0  0  0  0  0  0  0  0  0
   -6.2200    1.0110    1.2670 C   0  0  0  0  0  0  0  0  0  0  0  0
   -5.6440   -0.3850    1.2820 C   0  0  0  0  0  0  0  0  0  0  0  0
  1  2  1  0
  2  3  2  3
  3  4  1  0
  3  5  1  0
  5  6  1  0
  5  7  1  0
  7  8  1  0
  8  9  2  3
  9 10  1  0
  9 13  1  0
 10 11  2  0
 10 12  1  0
 13 14  2  0
 13 15  1  0
 15 16  1  0
 17 16  1  1
 17 18  1  0
 17 21  1  0
 17 24  1  0
 18 19  2  0
 18 20  1  0
 21 22  1  0
 22 23  1  0
 23 24  1  0
M  END
