
     RDKit          3D

  9  8  0  0  0  0  0  0  0  0999 V2000
   -1.7720   -1.6690    0.8160 C   0  0  0  0  0  0  0  0  0  0  0  0
   -0.4210   -1.4010    0.4590 O   0  0  0  0  0  0  0  0  0  0  0  0
   -0.0560   -0.1180    0.0370 C   0  0  0  0  0  0  0  0  0  0  0  0
    1.3520    0.1030   -0.2560 C   0  0  0  0  0  0  0  0  0  0  0  0
    2.2520   -0.8600   -0.1310 C   0  0  0  0  0  0  0  0  0  0  0  0
    3.5920   -0.6420   -0.4120 O   0  0  0  0  0  0  0  0  0  0  0  0
   -0.9820    0.8080   -0.0730 C   0  0  0  0  0  0  0  0  0  0  0  0
   -0.7680    2.2080   -0.5030 C   0  0  0  0  0  0  0  0  0  0  0  0
   -1.3060    3.2390    0.8680 Cl  0  0  0  0  0  0  0  0  0  0  0  0
  1  2  1  0
  2  3  1  0
  3  4  1  0
  3  7  2  3
  4  5  2  3
  5  6  1  0
  7  8  1  0
  8  9  1  0
M  END
