
     RDKit          3D

 27 30  0  0  0  0  0  0  0  0999 V2000
    0.4760   -4.2810   -0.2500 C   0  0  0  0  0  0  0  0  0  0  0  0
    0.8640   -2.8320   -0.2150 C   0  0  0  0  0  0  0  0  0  0  0  0
    2.1840   -2.5920   -0.4660 C   0  0  0  0  0  0  0  0  0  0  0  0
    2.6490   -1.3050   -0.4260 C   0  0  0  0  0  0  0  0  0  0  0  0
    1.7860   -0.2830   -0.1390 C   0  0  0  0  0  0  0  0  0  0  0  0
    0.4070   -0.5060    0.1290 C   0  0  0  0  0  0  0  0  0  0  0  0
   -0.0500   -1.8050    0.0860 C   0  0  0  0  0  0  0  0  0  0  0  0
   -1.4140   -2.2460    0.3150 C   0  0  0  0  0  0  0  0  0  0  0  0
   -2.5450   -1.8920   -0.2470 C   0  0  0  0  0  0  0  0  0  0  0  0
   -2.7950   -0.9230   -1.3110 C   0  0  0  0  0  0  0  0  0  0  0  0
   -4.2270   -0.3900   -1.1600 C   0  0  0  0  0  0  0  0  0  0  0  0
   -4.3090    1.0950   -1.1790 C   0  0  0  0  0  0  0  0  0  0  0  0
   -4.6040    1.7190    0.1430 C   0  0  0  0  0  0  0  0  0  0  0  0
   -3.7780    1.2440    1.2220 N   0  0  0  0  0  0  0  0  0  0  0  0
   -2.4350    1.6840    1.0430 C   0  0  0  0  0  0  0  0  0  0  0  0
   -1.3830    0.7370    1.4900 C   0  0  0  0  0  0  0  0  0  0  0  0
   -0.3390    0.6310    0.4540 N   0  0  0  0  0  0  0  0  0  0  0  0
    2.2990    1.0970   -0.2440 C   0  0  0  0  0  0  0  0  0  0  0  0
    3.7370    1.2410    0.0240 C   0  0  2  0  0  0  0  0  0  0  0  0
    4.2820    2.5430   -0.4680 C   0  0  0  0  0  0  0  0  0  0  0  0
    3.4910    3.4580   -0.7300 O   0  0  0  0  0  0  0  0  0  0  0  0
    5.6640    2.7180   -0.6290 N   0  0  0  0  0  0  0  0  0  0  0  0
    6.5150    1.5900   -0.6860 C   0  0  0  0  0  0  0  0  0  0  0  0
    7.7740    1.7630   -0.8330 O   0  0  0  0  0  0  0  0  0  0  0  0
    5.9580    0.2960   -0.5790 N   0  0  0  0  0  0  0  0  0  0  0  0
    4.5520    0.1120   -0.4150 C   0  0  0  0  0  0  0  0  0  0  0  0
    4.0460   -1.0440   -0.5620 N   0  0  0  0  0  0  0  0  0  0  0  0
  1  2  1  0
  2  3  2  0
  2  7  1  0
  3  4  1  0
  4  5  2  0
  4 27  1  0
  5  6  1  0
  5 18  1  0
  6  7  2  0
  6 17  1  0
  7  8  1  0
  8  9  2  0
  9 10  1  0
 10 11  1  0
 11 12  1  0
 12 13  1  0
 13 14  1  0
 14 15  1  0
 15 16  1  0
 16 17  1  0
 19 18  1  6
 19 20  1  0
 19 26  1  0
 20 21  2  0
 20 22  1  0
 22 23  1  0
 23 24  2  0
 23 25  1  0
 25 26  1  0
 26 27  2  0
M  CHG  1  14   1
M  END
