
     RDKit          3D

 27 30  0  0  0  0  0  0  0  0999 V2000
    7.9520   -0.1630   -1.3080 C   0  0  0  0  0  0  0  0  0  0  0  0
    7.7540    0.2280    0.1330 C   0  0  0  0  0  0  0  0  0  0  0  0
    8.7100    0.5460    1.0100 N   0  0  0  0  0  0  0  0  0  0  0  0
    8.1540    0.8290    2.1580 N   0  0  0  0  0  0  0  0  0  0  0  0
    6.8160    0.7130    2.0940 C   0  0  0  0  0  0  0  0  0  0  0  0
    6.5420    0.3220    0.7780 C   0  0  0  0  0  0  0  0  0  0  0  0
    5.2460    0.0630    0.1990 C   0  0  0  0  0  0  0  0  0  0  0  0
    4.1120    0.1670    0.8610 C   0  0  0  0  0  0  0  0  0  0  0  0
    2.8420   -0.1050    0.2270 C   0  0  0  0  0  0  0  0  0  0  0  0
    2.9270   -0.4480   -1.0130 N   0  0  0  0  0  0  0  0  0  0  0  0
    1.9000   -0.7900   -1.9580 C   0  0  0  0  0  0  0  0  0  0  0  0
    2.3080   -1.1740   -3.0810 O   0  0  0  0  0  0  0  0  0  0  0  0
    0.4990   -0.7290   -1.7280 N   0  0  0  0  0  0  0  0  0  0  0  0
   -0.2040   -0.3950   -0.5390 C   0  0  0  0  0  0  0  0  0  0  0  0
   -1.5710   -0.4250   -0.6610 C   0  0  0  0  0  0  0  0  0  0  0  0
   -2.4510   -0.1350    0.3650 C   0  0  0  0  0  0  0  0  0  0  0  0
   -3.8800   -0.2030    0.1080 C   0  0  1  0  0  0  0  0  0  0  0  0
   -4.4720   -1.3540    0.9350 C   0  0  0  0  0  0  0  0  0  0  0  0
   -5.8910   -1.6490    0.5290 C   0  0  0  0  0  0  0  0  0  0  0  0
   -6.5140   -0.3860   -0.0050 C   0  0  0  0  0  0  0  0  0  0  0  0
   -5.9840    0.7230    0.7400 N   0  0  0  0  0  0  0  0  0  0  0  0
   -4.6320    1.0710    0.3370 C   0  0  2  0  0  0  0  0  0  0  0  0
   -4.7460    1.8880   -0.9330 C   0  0  0  0  0  0  0  0  0  0  0  0
   -1.8730    0.2000    1.5690 C   0  0  0  0  0  0  0  0  0  0  0  0
   -0.5050    0.2410    1.7310 C   0  0  0  0  0  0  0  0  0  0  0  0
    0.3550   -0.0540    0.6850 C   0  0  0  0  0  0  0  0  0  0  0  0
    1.7030    0.0330    1.0090 O   0  0  0  0  0  0  0  0  0  0  0  0
  1  2  1  0
  2  3  1  0
  2  6  2  0
  3  4  1  0
  4  5  2  0
  5  6  1  0
  6  7  1  0
  7  8  2  3
  8  9  1  0
  9 10  2  0
  9 27  1  0
 10 11  1  0
 11 12  2  0
 11 13  1  0
 13 14  1  0
 14 15  2  0
 14 26  1  0
 15 16  1  0
 17 16  1  1
 16 24  2  0
 17 18  1  0
 17 22  1  0
 18 19  1  0
 19 20  1  0
 20 21  1  0
 21 22  1  0
 22 23  1  6
 24 25  1  0
 25 26  2  0
 26 27  1  0
M  CHG  1  21   1
M  END
