
     RDKit          3D

 27 31  0  0  0  0  0  0  0  0999 V2000
   -4.4650   -1.4470   -1.2560 C   0  0  0  0  0  0  0  0  0  0  0  0
   -3.5890   -1.8970   -0.1140 C   0  0  0  0  0  0  0  0  0  0  0  0
   -3.9720   -3.0320    0.4240 C   0  0  0  0  0  0  0  0  0  0  0  0
   -3.2390   -3.6260    1.5200 C   0  0  0  0  0  0  0  0  0  0  0  0
   -2.1810   -2.9970    1.9540 C   0  0  0  0  0  0  0  0  0  0  0  0
   -1.6960   -1.7170    1.3930 C   0  0  0  0  0  0  0  0  0  0  0  0
   -0.7070   -1.2720    1.9440 O   0  0  0  0  0  0  0  0  0  0  0  0
   -2.4440   -1.0810    0.2510 C   0  0  0  0  0  0  0  0  0  0  0  0
   -2.3800    0.2100    0.0540 C   0  0  0  0  0  0  0  0  0  0  0  0
   -3.4490    1.0170   -0.4540 N   0  0  0  0  0  0  0  0  0  0  0  0
   -3.3730    2.3200   -0.9640 C   0  0  0  0  0  0  0  0  0  0  0  0
   -4.3690    2.9450   -1.3870 O   0  0  0  0  0  0  0  0  0  0  0  0
   -2.0670    2.9640   -0.9960 C   0  0  0  0  0  0  0  0  0  0  0  0
   -1.0470    2.2910   -0.5470 C   0  0  0  0  0  0  0  0  0  0  0  0
    0.1380    3.0280   -0.6650 N   0  0  0  0  0  0  0  0  0  0  0  0
    1.3430    2.3770   -0.2610 C   0  0  0  0  0  0  0  0  0  0  0  0
    1.3080    1.1500    0.1850 C   0  0  0  0  0  0  0  0  0  0  0  0
    2.5720    0.4760    0.6030 C   0  0  0  0  0  0  0  0  0  0  0  0
    2.8540   -0.7080   -0.1460 N   0  0  2  0  0  0  0  0  0  0  0  0
    3.2290   -1.8060    0.7290 C   0  0  0  0  0  0  0  0  0  0  0  0
    4.6560   -1.7870    0.2510 C   0  0  2  0  0  0  0  0  0  0  0  0
    5.6730   -1.3160    1.2520 C   0  0  0  0  0  0  0  0  0  0  0  0
    4.1760   -0.7730   -0.7390 C   0  0  0  0  0  0  0  0  0  0  0  0
    0.0840    0.3850    0.3190 N   0  0  0  0  0  0  0  0  0  0  0  0
   -1.1190    0.9520   -0.0300 N   0  0  0  0  0  0  0  0  0  0  0  0
   -0.1840    4.3250   -1.1920 C   0  0  0  0  0  0  0  0  0  0  0  0
   -1.6570    4.3100   -1.4690 C   0  0  0  0  0  0  0  0  0  0  0  0
  1  2  1  0
  2  3  2  0
  2  8  1  0
  3  4  1  0
  4  5  2  0
  5  6  1  0
  6  7  2  0
  6  8  1  0
  8  9  2  3
  9 10  1  0
  9 25  1  0
 10 11  1  0
 11 12  2  0
 11 13  1  0
 13 14  2  0
 13 27  1  0
 14 15  1  0
 14 25  1  0
 15 16  1  0
 15 26  1  0
 16 17  2  0
 17 18  1  0
 17 24  1  0
 19 18  1  1
 19 20  1  0
 19 23  1  0
 20 21  1  0
 21 22  1  1
 21 23  1  0
 24 25  1  0
 26 27  1  0
M  CHG  1  19   1
M  END
