
     RDKit          3D

  9  8  0  0  0  0  0  0  0  0999 V2000
   -1.6730   -2.0670   -0.2710 C   0  0  0  0  0  0  0  0  0  0  0  0
   -1.4910   -0.8630   -0.7060 C   0  0  0  0  0  0  0  0  0  0  0  0
   -0.6050    0.1610   -0.1870 C   0  0  0  0  0  0  0  0  0  0  0  0
   -0.6200    1.3420   -0.8270 C   0  0  0  0  0  0  0  0  0  0  0  0
    0.2170    2.4800   -0.4160 C   0  0  0  0  0  0  0  0  0  0  0  0
    1.1640    2.0930    1.0170 Cl  0  0  0  0  0  0  0  0  0  0  0  0
    0.2130   -0.0480    0.8930 O   0  0  0  0  0  0  0  0  0  0  0  0
    1.2500   -0.9540    1.0460 C   0  0  0  0  0  0  0  0  0  0  0  0
    2.2850   -0.8150    0.0920 O   0  0  0  0  0  0  0  0  0  0  0  0
  1  2  2  0
  2  3  1  0
  3  4  2  3
  3  7  1  0
  4  5  1  0
  5  6  1  0
  7  8  1  0
  8  9  1  0
M  END
