
     RDKit          3D

 27 30  0  0  0  0  0  0  0  0999 V2000
    0.7670    1.1310    1.4210 C   0  0  0  0  0  0  0  0  0  0  0  0
    1.1230   -0.3040    1.0280 C   0  0  1  0  0  0  0  0  0  0  0  0
    0.4570   -0.7040   -0.2470 C   0  0  0  0  0  0  0  0  0  0  0  0
   -0.9840   -0.6460   -0.1980 N   0  0  0  0  0  0  0  0  0  0  0  0
   -1.7600   -1.4270    0.6720 C   0  0  0  0  0  0  0  0  0  0  0  0
   -1.0040   -2.2130    1.4170 O   0  0  0  0  0  0  0  0  0  0  0  0
   -3.1740   -1.4910    0.8580 C   0  0  0  0  0  0  0  0  0  0  0  0
   -4.1600   -0.8640    0.3010 C   0  0  0  0  0  0  0  0  0  0  0  0
   -5.5610   -1.2280    0.7910 C   0  0  0  0  0  0  0  0  0  0  0  0
   -6.3790   -0.0380    0.7310 N   0  0  0  0  0  0  0  0  0  0  0  0
   -6.3680    0.6600   -0.5220 C   0  0  0  0  0  0  0  0  0  0  0  0
   -7.3070    1.3120   -1.2320 N   0  0  0  0  0  0  0  0  0  0  0  0
   -6.7880    1.7830   -2.3660 C   0  0  0  0  0  0  0  0  0  0  0  0
   -5.4750    1.4110   -2.3640 C   0  0  0  0  0  0  0  0  0  0  0  0
   -5.2330    0.7090   -1.2000 N   0  0  0  0  0  0  0  0  0  0  0  0
   -3.9900    0.1390   -0.7380 C   0  0  0  0  0  0  0  0  0  0  0  0
    2.6200   -0.4350    0.9220 C   0  0  0  0  0  0  0  0  0  0  0  0
    3.3500   -1.2440    1.7700 C   0  0  0  0  0  0  0  0  0  0  0  0
    4.7270   -1.3340    1.6350 C   0  0  0  0  0  0  0  0  0  0  0  0
    5.4230   -0.6360    0.6690 C   0  0  0  0  0  0  0  0  0  0  0  0
    4.7120    0.1680   -0.1780 C   0  0  0  0  0  0  0  0  0  0  0  0
    3.3190    0.2580   -0.0390 C   0  0  0  0  0  0  0  0  0  0  0  0
    5.3840    0.9240   -1.2480 C   0  0  0  0  0  0  0  0  0  0  0  0
    6.8030    1.2380   -0.8580 C   0  0  0  0  0  0  0  0  0  0  0  0
    7.5180    0.0220   -0.4170 C   0  0  0  0  0  0  0  0  0  0  0  0
    8.6130   -0.2830   -0.9040 O   0  0  0  0  0  0  0  0  0  0  0  0
    6.8620   -0.7440    0.5830 N   0  0  0  0  0  0  0  0  0  0  0  0
  2  1  1  6
  2  3  1  0
  2 17  1  0
  3  4  1  0
  4  5  1  0
  5  6  2  0
  5  7  1  0
  7  8  2  3
  8  9  1  0
  8 16  1  0
  9 10  1  0
 10 11  1  0
 11 12  2  0
 11 15  1  0
 12 13  1  0
 13 14  2  0
 14 15  1  0
 15 16  1  0
 17 18  2  0
 17 22  1  0
 18 19  1  0
 19 20  2  0
 20 21  1  0
 20 27  1  0
 21 22  2  0
 21 23  1  0
 23 24  1  0
 24 25  1  0
 25 26  2  0
 25 27  1  0
M  CHG  1  12   1
M  END
