
     RDKit          3D

 15 14  0  0  0  0  0  0  0  0999 V2000
    4.3020   -0.5110    1.1180 O   0  0  0  0  0  0  0  0  0  0  0  0
    3.7210    0.3430    0.4220 C   0  0  0  0  0  0  0  0  0  0  0  0
    4.4170    1.1730   -0.4250 O   0  0  0  0  0  0  0  0  0  0  0  0
    2.2320    0.4350    0.5430 C   0  0  1  0  0  0  0  0  0  0  0  0
    1.7190    1.4120   -0.2730 O   0  0  0  0  0  0  0  0  0  0  0  0
    1.5970   -0.8800    0.2670 C   0  0  2  0  0  0  0  0  0  0  0  0
    1.7800   -1.2710   -1.0590 O   0  0  0  0  0  0  0  0  0  0  0  0
    0.1660   -0.9520    0.6760 C   0  0  2  0  0  0  0  0  0  0  0  0
   -0.2130   -2.3000    0.5230 O   0  0  0  0  0  0  0  0  0  0  0  0
   -0.7350   -0.0600   -0.1510 C   0  0  0  0  0  0  0  0  0  0  0  0
   -2.0250   -0.3110    0.3370 O   0  0  0  0  0  0  0  0  0  0  0  0
   -3.1630    0.4730   -0.3370 P   0  0  0  0  0  0  0  0  0  0  0  0
   -4.1830   -0.2500    0.7520 O   0  0  0  0  0  0  0  0  0  0  0  0
   -2.4650    1.8980    0.0900 O   0  0  0  0  0  0  0  0  0  0  0  0
   -4.3600    1.1440   -1.0210 O   0  0  0  0  0  0  0  0  0  0  0  0
  1  2  2  0
  2  3  1  0
  2  4  1  0
  4  5  1  6
  4  6  1  0
  6  7  1  6
  6  8  1  0
  8  9  1  6
  8 10  1  0
 10 11  1  0
 11 12  1  0
 12 13  1  0
 12 14  1  0
 12 15  1  0
M  END
