
     RDKit          3D

 23 25  0  0  0  0  0  0  0  0999 V2000
   -1.3060    4.3060    1.2800 N   0  0  0  0  0  0  0  0  0  0  0  0
   -0.5750    3.1460    0.9080 C   0  0  0  0  0  0  0  0  0  0  0  0
    0.7080    3.1940    0.9830 N   0  0  0  0  0  0  0  0  0  0  0  0
    1.4820    2.0900    0.6340 N   0  0  0  0  0  0  0  0  0  0  0  0
    0.9750    0.9830    0.2240 C   0  0  0  0  0  0  0  0  0  0  0  0
    1.5860   -0.2390   -0.1750 N   0  0  0  0  0  0  0  0  0  0  0  0
    2.9550   -0.5810   -0.0160 C   0  0  0  0  0  0  0  0  0  0  0  0
    3.7530    0.2530    0.5300 O   0  0  0  0  0  0  0  0  0  0  0  0
    3.4670   -1.8810   -0.4720 C   0  0  0  0  0  0  0  0  0  0  0  0
    5.2700   -2.0100   -0.1210 P   0  0  0  0  0  0  0  0  0  0  0  0
    6.2010   -1.0610   -1.2290 O   0  0  0  0  0  0  0  0  0  0  0  0
    5.5790   -1.5850    1.5170 O   0  0  0  0  0  0  0  0  0  0  0  0
    0.5850   -1.0740   -0.7670 C   0  0  0  0  0  0  0  0  0  0  0  0
   -0.7600   -0.4700   -0.3590 C   0  0  2  0  0  0  0  0  0  0  0  0
   -1.3740   -1.3160    0.7280 C   0  0  0  0  0  0  0  0  0  0  0  0
   -2.4700   -0.6460    1.2560 O   0  0  0  0  0  0  0  0  0  0  0  0
   -3.5950   -1.1320    0.6220 C   0  0  0  0  0  0  0  0  0  0  0  0
   -3.9460   -0.3300   -0.6040 C   0  0  0  0  0  0  0  0  0  0  0  0
   -2.9940   -0.4040   -1.6560 N   0  0  0  0  0  0  0  0  0  0  0  0
   -1.5850   -0.3860   -1.5680 C   0  0  0  0  0  0  0  0  0  0  0  0
   -0.9520   -0.2870   -2.6410 O   0  0  0  0  0  0  0  0  0  0  0  0
   -0.4360    0.8630    0.1190 N   0  0  0  0  0  0  0  0  0  0  0  0
   -1.3240    1.9540    0.4570 C   0  0  0  0  0  0  0  0  0  0  0  0
  1  2  1  0
  2  3  2  0
  2 23  1  0
  3  4  1  0
  4  5  2  0
  5  6  1  0
  5 22  1  0
  6  7  1  0
  6 13  1  0
  7  8  2  0
  7  9  1  0
  9 10  1  0
 10 11  1  0
 10 12  1  0
 14 13  1  6
 14 15  1  0
 14 20  1  0
 14 22  1  0
 15 16  1  0
 16 17  1  0
 17 18  1  0
 18 19  1  0
 19 20  1  0
 20 21  2  0
 22 23  1  0
M  END
