
     RDKit          3D

 24 25  0  0  0  0  0  0  0  0999 V2000
   -3.7480    1.0860   -1.5990 C   0  0  0  0  0  0  0  0  0  0  0  0
   -3.4150    0.5140   -0.2950 N   0  0  0  0  0  0  0  0  0  0  0  0
   -2.2100   -0.2140   -0.0550 C   0  0  0  0  0  0  0  0  0  0  0  0
   -0.9940    0.6480   -0.1270 C   0  0  0  0  0  0  0  0  0  0  0  0
   -1.1780    1.8650   -0.3740 O   0  0  0  0  0  0  0  0  0  0  0  0
    0.3030    0.1230    0.0720 N   0  0  0  0  0  0  0  0  0  0  0  0
    0.5410   -1.3000    0.3660 C   0  0  0  0  0  0  0  0  0  0  0  0
    1.7260   -1.6060   -0.5240 C   0  0  0  0  0  0  0  0  0  0  0  0
    2.4970   -0.3090   -0.5300 C   0  0  2  0  0  0  0  0  0  0  0  0
    1.6080    0.7680    0.0370 C   0  0  0  0  0  0  0  0  0  0  0  0
    2.8970   -0.0060   -1.9370 C   0  0  0  0  0  0  0  0  0  0  0  0
    2.2470    0.6840   -2.7870 O   0  0  0  0  0  0  0  0  0  0  0  0
    4.1520   -0.6580   -2.0980 N   0  0  0  0  0  0  0  0  0  0  0  0
    4.6890   -0.9000   -0.8470 O   0  0  0  0  0  0  0  0  0  0  0  0
    3.8060   -0.4170    0.1380 C   0  0  0  0  0  0  0  0  0  0  0  0
    4.0240   -0.1190    1.3520 N   0  0  0  0  0  0  0  0  0  0  0  0
    5.2730   -0.2140    2.0110 C   0  0  0  0  0  0  0  0  0  0  0  0
    5.4570   -1.1480    2.8230 O   0  0  0  0  0  0  0  0  0  0  0  0
    6.2910    0.6880    1.7890 O   0  0  0  0  0  0  0  0  0  0  0  0
   -4.3720    0.7200    0.7430 C   0  0  0  0  0  0  0  0  0  0  0  0
   -4.5240    1.8960    1.2070 N   0  0  0  0  0  0  0  0  0  0  0  0
   -5.1550   -0.3440    1.2680 N   0  0  0  0  0  0  0  0  0  0  0  0
   -6.7760    0.0120    1.9070 P   0  0  0  0  0  0  0  0  0  0  0  0
   -8.0400    0.1630    0.9890 O   0  0  0  0  0  0  0  0  0  0  0  0
  1  2  1  0
  2  3  1  0
  2 20  1  0
  3  4  1  0
  4  5  2  0
  4  6  1  0
  6  7  1  0
  6 10  1  0
  7  8  1  0
  9  8  1  6
  9 10  1  0
  9 11  1  0
  9 15  1  0
 11 12  2  0
 11 13  1  0
 13 14  1  0
 14 15  1  0
 15 16  2  3
 16 17  1  0
 17 18  2  0
 17 19  1  0
 20 21  2  0
 20 22  1  0
 22 23  1  0
 23 24  2  0
M  END
