
     RDKit          3D

 24 26  0  0  0  0  0  0  0  0999 V2000
    2.1610    0.6400   -0.1730 N   0  0  0  0  0  0  0  0  0  0  0  0
    2.5090   -0.5320    0.1600 C   0  0  0  0  0  0  0  0  0  0  0  0
    3.7740   -0.9600    0.3070 N   0  0  0  0  0  0  0  0  0  0  0  0
    4.9800   -0.3010    0.1520 N   0  0  0  0  0  0  0  0  0  0  0  0
    5.1500    1.3950   -0.3140 P   0  0  0  0  0  0  0  0  0  0  0  0
    6.3500    2.1840    0.6570 O   0  0  0  0  0  0  0  0  0  0  0  0
    5.6380    1.5110   -1.9680 O   0  0  0  0  0  0  0  0  0  0  0  0
    3.6490   -2.2800    0.6700 C   0  0  0  0  0  0  0  0  0  0  0  0
    2.3350   -2.6160    0.7330 C   0  0  0  0  0  0  0  0  0  0  0  0
    1.6090   -1.5050    0.4090 N   0  0  0  0  0  0  0  0  0  0  0  0
    0.1840   -1.4950    0.3730 C   0  0  0  0  0  0  0  0  0  0  0  0
   -0.4230   -2.5880    0.6620 O   0  0  0  0  0  0  0  0  0  0  0  0
   -0.5440   -0.3080    0.0280 C   0  0  0  0  0  0  0  0  0  0  0  0
   -1.8780   -0.1760   -0.0390 C   0  0  0  0  0  0  0  0  0  0  0  0
   -2.4070    1.1140   -0.4090 N   0  0  0  0  0  0  0  0  0  0  0  0
   -3.6310    1.3810   -0.5230 C   0  0  0  0  0  0  0  0  0  0  0  0
   -4.4240    2.5910   -0.8680 C   0  0  0  0  0  0  0  0  0  0  0  0
   -4.0080    3.5710   -1.5300 O   0  0  0  0  0  0  0  0  0  0  0  0
   -5.6780    2.3770   -0.3020 O   0  0  0  0  0  0  0  0  0  0  0  0
   -5.7130    1.1190    0.4040 C   0  0  0  0  0  0  0  0  0  0  0  0
   -4.7150    0.3420   -0.4090 C   0  0  2  0  0  0  0  0  0  0  0  0
   -4.2140   -0.8900    0.1120 C   0  0  0  0  0  0  0  0  0  0  0  0
   -4.9870   -1.8100    0.5170 O   0  0  0  0  0  0  0  0  0  0  0  0
   -2.8220   -1.1760    0.2160 N   0  0  0  0  0  0  0  0  0  0  0  0
  1  2  2  0
  2  3  1  0
  2 10  1  0
  3  4  1  0
  3  8  1  0
  4  5  1  0
  5  6  1  0
  5  7  1  0
  8  9  2  0
  9 10  1  0
 10 11  1  0
 11 12  2  0
 11 13  1  0
 13 14  2  3
 14 15  1  0
 14 24  1  0
 15 16  2  0
 16 17  1  0
 16 21  1  0
 17 18  2  0
 17 19  1  0
 19 20  1  0
 21 20  1  1
 21 22  1  0
 22 23  2  0
 22 24  1  0
M  END
