
     RDKit          3D

 23 25  0  0  0  0  0  0  0  0999 V2000
    4.4030   -0.4340    0.2840 N   0  0  0  0  0  0  0  0  0  0  0  0
    3.4400    0.1320   -0.4050 C   0  0  0  0  0  0  0  0  0  0  0  0
    3.6910    0.3160   -1.8000 N   0  0  0  0  0  0  0  0  0  0  0  0
    4.8580   -0.7700   -2.5730 P   0  0  0  0  0  0  0  0  0  0  0  0
    4.5140   -2.4300   -2.3710 O   0  0  0  0  0  0  0  0  0  0  0  0
    6.4970   -0.3610   -2.2110 O   0  0  0  0  0  0  0  0  0  0  0  0
    2.2770    0.5040    0.2440 N   0  0  0  0  0  0  0  0  0  0  0  0
    2.1820    1.5290    1.3240 C   0  0  0  0  0  0  0  0  0  0  0  0
    0.7810    2.0440    1.2400 C   0  0  2  0  0  0  0  0  0  0  0  0
    0.0910    2.3980    2.3720 O   0  0  0  0  0  0  0  0  0  0  0  0
   -1.2660    2.6500    2.0400 C   0  0  0  0  0  0  0  0  0  0  0  0
   -1.9720    1.5730    1.3260 C   0  0  0  0  0  0  0  0  0  0  0  0
   -3.1880    1.4350    1.2960 O   0  0  0  0  0  0  0  0  0  0  0  0
   -1.1610    0.6260    0.6230 N   0  0  0  0  0  0  0  0  0  0  0  0
   -1.2390   -0.5260   -0.0580 C   0  0  0  0  0  0  0  0  0  0  0  0
   -2.4930   -1.2220   -0.3470 C   0  0  2  0  0  0  0  0  0  0  0  0
   -3.4260   -0.5610   -1.2960 C   0  0  0  0  0  0  0  0  0  0  0  0
   -4.5930   -1.4120   -1.4380 N   0  0  0  0  0  0  0  0  0  0  0  0
   -3.1470   -1.8810    0.8490 C   0  0  0  0  0  0  0  0  0  0  0  0
   -4.3360   -2.5200    0.4920 O   0  0  0  0  0  0  0  0  0  0  0  0
    0.0560   -0.9100   -0.4170 N   0  0  0  0  0  0  0  0  0  0  0  0
    0.9370    0.0090    0.0430 C   0  0  0  0  0  0  0  0  0  0  0  0
    0.1210    0.8960    0.6510 C   0  0  0  0  0  0  0  0  0  0  0  0
  1  2  2  0
  2  3  1  0
  2  7  1  0
  3  4  1  0
  4  5  1  0
  4  6  1  0
  7  8  1  0
  7 22  1  0
  9  8  1  1
  9 10  1  0
  9 23  1  0
 10 11  1  0
 11 12  1  0
 12 13  2  0
 12 14  1  0
 14 15  1  0
 14 23  1  0
 15 16  1  0
 15 21  2  0
 16 17  1  1
 16 19  1  0
 17 18  1  0
 19 20  1  0
 21 22  1  0
 22 23  2  0
M  END
