
     RDKit          3D

 23 25  0  0  0  0  0  0  0  0999 V2000
    2.9090   -0.5670   -1.2750 N   0  0  0  0  0  0  0  0  0  0  0  0
    2.1790   -0.6370   -0.1060 N   0  0  0  0  0  0  0  0  0  0  0  0
    1.1500   -1.6060   -0.1280 C   0  0  0  0  0  0  0  0  0  0  0  0
   -0.2270   -1.0160   -0.4080 C   0  0  0  0  0  0  0  0  0  0  0  0
   -0.5260   -0.1680    0.7250 N   0  0  0  0  0  0  0  0  0  0  0  0
   -1.7790   -0.1860    1.3980 C   0  0  0  0  0  0  0  0  0  0  0  0
   -2.0260    0.5590    2.3830 O   0  0  0  0  0  0  0  0  0  0  0  0
   -2.8590   -1.0740    0.9850 C   0  0  0  0  0  0  0  0  0  0  0  0
   -3.0690   -2.3540    1.4530 C   0  0  0  0  0  0  0  0  0  0  0  0
   -4.1610   -2.8050    0.8140 N   0  0  0  0  0  0  0  0  0  0  0  0
   -4.6260   -1.8620   -0.0190 N   0  0  0  0  0  0  0  0  0  0  0  0
   -3.8410   -0.7730    0.0610 C   0  0  0  0  0  0  0  0  0  0  0  0
   -4.0390    0.3900   -0.6710 O   0  0  0  0  0  0  0  0  0  0  0  0
   -3.4530    0.6180   -2.2940 P   0  0  0  0  0  0  0  0  0  0  0  0
   -4.7250    0.7550   -3.4560 O   0  0  0  0  0  0  0  0  0  0  0  0
   -2.3270    1.9260   -2.4140 O   0  0  0  0  0  0  0  0  0  0  0  0
    0.5360    0.6890    1.1120 C   0  0  0  0  0  0  0  0  0  0  0  0
    0.3110    1.5770    1.9920 O   0  0  0  0  0  0  0  0  0  0  0  0
    1.9030    0.5930    0.5320 C   0  0  2  0  0  0  0  0  0  0  0  0
    2.2000    1.7280   -0.4110 C   0  0  0  0  0  0  0  0  0  0  0  0
    3.6960    1.9050   -0.2560 C   0  0  0  0  0  0  0  0  0  0  0  0
    4.0690    1.2640    1.0370 C   0  0  0  0  0  0  0  0  0  0  0  0
    2.8300    0.8570    1.6230 N   0  0  0  0  0  0  0  0  0  0  0  0
  1  2  1  0
  2  3  1  0
  2 19  1  0
  3  4  1  0
  4  5  1  0
  5  6  1  0
  5 17  1  0
  6  7  2  0
  6  8  1  0
  8  9  2  0
  8 12  1  0
  9 10  1  0
 10 11  1  0
 11 12  2  0
 12 13  1  0
 13 14  1  0
 14 15  1  0
 14 16  1  0
 17 18  2  0
 17 19  1  0
 19 20  1  6
 19 23  1  0
 20 21  1  0
 21 22  1  0
 22 23  1  0
M  END
