
     RDKit          3D

 23 24  0  0  0  0  0  0  0  0999 V2000
    2.7460   -1.2080    0.5440 N   0  0  0  0  0  0  0  0  0  0  0  0
    2.5810    0.0350   -0.1200 C   0  0  0  0  0  0  0  0  0  0  0  0
    1.4200    0.5570   -0.1330 N   0  0  0  0  0  0  0  0  0  0  0  0
    0.2770   -0.0270    0.4760 C   0  0  0  0  0  0  0  0  0  0  0  0
   -0.9590    0.1970   -0.0390 C   0  0  0  0  0  0  0  0  0  0  0  0
   -2.1500   -0.3880    0.5640 C   0  0  0  0  0  0  0  0  0  0  0  0
   -3.3890   -0.1960    0.0880 C   0  0  0  0  0  0  0  0  0  0  0  0
   -4.5260   -0.7750    0.6920 N   0  0  0  0  0  0  0  0  0  0  0  0
   -5.8370   -0.5270    0.1310 C   0  0  0  0  0  0  0  0  0  0  0  0
   -6.0230    0.2220   -0.9310 C   0  0  0  0  0  0  0  0  0  0  0  0
   -4.9420    0.8320   -1.5880 N   0  0  0  0  0  0  0  0  0  0  0  0
   -3.6130    0.6300   -1.0860 C   0  0  0  0  0  0  0  0  0  0  0  0
   -2.6990    1.1980   -1.7130 O   0  0  0  0  0  0  0  0  0  0  0  0
   -1.8720   -1.2070    1.7340 C   0  0  0  0  0  0  0  0  0  0  0  0
   -2.7710   -1.7780    2.3670 O   0  0  0  0  0  0  0  0  0  0  0  0
   -0.4800   -1.4050    2.2390 C   0  0  0  0  0  0  0  0  0  0  0  0
    0.4650   -0.8300    1.6080 N   0  0  0  0  0  0  0  0  0  0  0  0
    3.6970    0.7050   -0.7690 C   0  0  0  0  0  0  0  0  0  0  0  0
    3.5260    1.8000   -1.3460 O   0  0  0  0  0  0  0  0  0  0  0  0
    4.9780    0.0710   -0.7210 N   0  0  0  0  0  0  0  0  0  0  0  0
    6.4070    0.8270   -1.4920 P   0  0  0  0  0  0  0  0  0  0  0  0
    7.7170    0.9220   -0.3400 O   0  0  0  0  0  0  0  0  0  0  0  0
    6.0100    2.4170   -2.0870 O   0  0  0  0  0  0  0  0  0  0  0  0
  1  2  1  0
  2  3  2  3
  2 18  1  0
  3  4  1  0
  4  5  2  0
  4 17  1  0
  5  6  1  0
  6  7  2  3
  6 14  1  0
  7  8  1  0
  7 12  1  0
  8  9  1  0
  9 10  2  0
 10 11  1  0
 11 12  1  0
 12 13  2  0
 14 15  2  0
 14 16  1  0
 16 17  2  0
 18 19  2  0
 18 20  1  0
 20 21  1  0
 21 22  1  0
 21 23  1  0
M  END
