
     RDKit          3D

 23 25  0  0  0  0  0  0  0  0999 V2000
   -0.7240   -0.4290   -2.2230 O   0  0  0  0  0  0  0  0  0  0  0  0
   -0.2890   -0.4100   -1.0160 C   0  0  0  0  0  0  0  0  0  0  0  0
    1.1180   -0.6850   -0.7810 C   0  0  0  0  0  0  0  0  0  0  0  0
    1.8360   -0.7330    0.3440 N   0  0  0  0  0  0  0  0  0  0  0  0
    3.1240   -1.0260    0.1060 C   0  0  0  0  0  0  0  0  0  0  0  0
    4.1880   -1.1640    1.0510 N   0  0  0  0  0  0  0  0  0  0  0  0
    5.1580    0.2880    1.4800 P   0  0  0  0  0  0  0  0  0  0  0  0
    4.2710    1.7460    1.1800 O   0  0  0  0  0  0  0  0  0  0  0  0
    6.6440    0.2500    0.5990 O   0  0  0  0  0  0  0  0  0  0  0  0
    3.2320   -1.1700   -1.2240 N   0  0  0  0  0  0  0  0  0  0  0  0
    4.1580   -1.4530   -2.1780 C   0  0  0  0  0  0  0  0  0  0  0  0
    3.4640   -1.4130   -3.3450 N   0  0  0  0  0  0  0  0  0  0  0  0
    2.2270   -1.1290   -3.0870 O   0  0  0  0  0  0  0  0  0  0  0  0
    2.0430   -0.9730   -1.8050 C   0  0  0  0  0  0  0  0  0  0  0  0
   -1.1970   -0.1240    0.0070 N   0  0  0  0  0  0  0  0  0  0  0  0
   -0.8970   -0.0540    1.4100 C   0  0  0  0  0  0  0  0  0  0  0  0
   -1.7400   -1.1760    2.0500 C   0  0  0  0  0  0  0  0  0  0  0  0
   -3.1040   -0.7150    1.9370 N   0  0  0  0  0  0  0  0  0  0  0  0
   -3.5380   -0.5850    0.5700 C   0  0  0  0  0  0  0  0  0  0  0  0
   -2.6190    0.1360   -0.3230 C   0  0  1  0  0  0  0  0  0  0  0  0
   -2.7810    1.6240   -0.3030 C   0  0  0  0  0  0  0  0  0  0  0  0
   -4.1690    2.0540   -0.6330 C   0  0  0  0  0  0  0  0  0  0  0  0
   -4.1580    3.4690   -0.6030 O   0  0  0  0  0  0  0  0  0  0  0  0
  1  2  2  0
  2  3  1  0
  2 15  1  0
  3  4  1  0
  3 14  2  0
  4  5  2  0
  5  6  1  0
  5 10  1  0
  6  7  1  0
  7  8  1  0
  7  9  1  0
 10 11  1  0
 10 14  1  0
 11 12  2  0
 12 13  1  0
 13 14  1  0
 15 16  1  0
 15 20  1  0
 16 17  1  0
 17 18  1  0
 18 19  1  0
 19 20  1  0
 20 21  1  1
 21 22  1  0
 22 23  1  0
M  END
