
     RDKit          3D

 36 38  0  0  0  0  0  0  0  0999 V2000
    7.6050    4.3060   -0.4810 O   0  0  0  0  0  0  0  0  0  0  0  0
    7.0730    3.1730   -0.5210 C   0  0  0  0  0  0  0  0  0  0  0  0
    7.8170    2.0400   -0.7110 C   0  0  0  0  0  0  0  0  0  0  0  0
    7.1520    0.8280   -0.7420 C   0  0  0  0  0  0  0  0  0  0  0  0
    5.8180    0.7290   -0.5940 N   0  0  0  0  0  0  0  0  0  0  0  0
    5.2210   -0.5650   -0.6410 C   0  0  2  0  0  0  0  0  0  0  0  0
    3.9320   -0.5750   -1.1640 O   0  0  0  0  0  0  0  0  0  0  0  0
    3.5800   -1.9160   -1.0020 C   0  0  2  0  0  0  0  0  0  0  0  0
    2.1260   -2.1700   -1.2210 C   0  0  0  0  0  0  0  0  0  0  0  0
    1.3340   -1.4460   -0.3320 O   0  0  0  0  0  0  0  0  0  0  0  0
   -0.2980   -1.7720   -0.6260 P   0  0  1  0  0  0  0  0  0  0  0  0
   -0.5880   -1.7580   -2.1270 O   0  0  0  0  0  0  0  0  0  0  0  0
   -0.7050   -3.2830   -0.0390 O   0  0  0  0  0  0  0  0  0  0  0  0
   -1.2280   -0.5320    0.0480 O   0  0  0  0  0  0  0  0  0  0  0  0
   -2.4230   -1.1120    1.0760 P   0  0  1  0  0  0  0  0  0  0  0  0
   -2.5680   -2.5990    0.8380 O   0  0  0  0  0  0  0  0  0  0  0  0
   -1.9420   -0.9080    2.6840 O   0  0  0  0  0  0  0  0  0  0  0  0
   -3.9200   -0.4060    0.7740 O   0  0  0  0  0  0  0  0  0  0  0  0
   -3.8870    0.9650    0.7280 C   0  0  1  0  0  0  0  0  0  0  0  0
   -4.3360    1.3570   -0.5370 O   0  0  0  0  0  0  0  0  0  0  0  0
   -5.5790    0.9000   -0.8540 C   0  0  2  0  0  0  0  0  0  0  0  0
   -6.3990    2.0360   -1.4750 C   0  0  0  0  0  0  0  0  0  0  0  0
   -5.7680    2.4980   -2.6320 O   0  0  0  0  0  0  0  0  0  0  0  0
   -6.3300    0.2250    0.2290 C   0  0  2  0  0  0  0  0  0  0  0  0
   -7.7080    0.3330   -0.0800 O   0  0  0  0  0  0  0  0  0  0  0  0
   -6.1430    0.7900    1.5930 C   0  0  2  0  0  0  0  0  0  0  0  0
   -7.2350    1.5310    2.0410 O   0  0  0  0  0  0  0  0  0  0  0  0
   -4.8890    1.5900    1.7090 C   0  0  1  0  0  0  0  0  0  0  0  0
   -4.3830    1.6740    2.9700 F   0  0  0  0  0  0  0  0  0  0  0  0
    4.0310   -2.2980    0.3930 C   0  0  1  0  0  0  0  0  0  0  0  0
    4.7800   -3.4870    0.3710 O   0  0  0  0  0  0  0  0  0  0  0  0
    4.9990   -1.1800    0.7260 C   0  0  1  0  0  0  0  0  0  0  0  0
    6.1900   -1.6620    1.2460 O   0  0  0  0  0  0  0  0  0  0  0  0
    5.1220    1.8420   -0.4110 C   0  0  0  0  0  0  0  0  0  0  0  0
    3.8650    1.7240   -0.2740 O   0  0  0  0  0  0  0  0  0  0  0  0
    5.7310    3.0420   -0.3750 N   0  0  0  0  0  0  0  0  0  0  0  0
  1  2  2  0
  2  3  1  0
  2 36  1  0
  3  4  2  0
  4  5  1  0
  6  5  1  1
  5 34  1  0
  6  7  1  0
  6 32  1  0
  7  8  1  0
  8  9  1  1
  8 30  1  0
  9 10  1  0
 10 11  1  0
 11 12  2  0
 11 13  1  1
 11 14  1  0
 14 15  1  0
 15 16  2  0
 15 17  1  1
 15 18  1  0
 19 18  1  6
 19 20  1  0
 19 28  1  0
 20 21  1  0
 21 22  1  1
 21 24  1  0
 22 23  1  0
 24 25  1  6
 24 26  1  0
 26 27  1  6
 26 28  1  0
 28 29  1  1
 30 31  1  6
 30 32  1  0
 32 33  1  6
 34 35  2  0
 34 36  1  0
M  END
