
     RDKit          3D

 38 38  0  0  0  0  0  0  0  0999 V2000
   -1.3590    6.4540    1.3800 O   0  0  0  0  0  0  0  0  0  0  0  0
   -1.0370    5.2370    0.4810 P   0  0  0  0  0  0  0  0  0  0  0  0
   -1.0720    3.5390    1.2080 C   0  0  0  0  0  0  0  0  0  0  0  0
   -1.8410    2.6050    0.3450 N   0  0  0  0  0  0  0  0  0  0  0  0
   -3.2480    2.4650    0.5520 C   0  0  0  0  0  0  0  0  0  0  0  0
   -3.9880    3.4410   -0.2900 C   0  0  0  0  0  0  0  0  0  0  0  0
   -5.2380    3.5580   -0.2510 O   0  0  0  0  0  0  0  0  0  0  0  0
   -3.2770    4.2520   -1.1510 O   0  0  0  0  0  0  0  0  0  0  0  0
   -1.1330    1.9290   -0.6350 C   0  0  0  0  0  0  0  0  0  0  0  0
    0.1230    2.2050   -0.7480 O   0  0  0  0  0  0  0  0  0  0  0  0
   -1.6960    0.9280   -1.5580 C   0  0  1  0  0  0  0  0  0  0  0  0
   -0.7070    0.7210   -2.6420 N   0  0  0  0  0  0  0  0  0  0  0  0
    0.2060   -0.2710   -2.2310 C   0  0  1  0  0  0  0  0  0  0  0  0
    1.6320    0.0550   -2.2920 C   0  0  0  0  0  0  0  0  0  0  0  0
    2.1320    1.1240   -2.7170 O   0  0  0  0  0  0  0  0  0  0  0  0
    2.5630   -0.8960   -1.8400 O   0  0  0  0  0  0  0  0  0  0  0  0
    3.9320   -0.6690   -1.8600 C   0  0  0  0  0  0  0  0  0  0  0  0
    4.3090    0.4380   -2.3030 O   0  0  0  0  0  0  0  0  0  0  0  0
    4.8700   -1.6340   -1.4020 N   0  0  0  0  0  0  0  0  0  0  0  0
    6.2750   -1.3930   -1.4210 C   0  0  0  0  0  0  0  0  0  0  0  0
    6.5860   -0.2030   -0.5450 C   0  0  0  0  0  0  0  0  0  0  0  0
    7.9840   -0.0380   -0.6160 O   0  0  0  0  0  0  0  0  0  0  0  0
    8.3790    1.3200    0.3810 P   0  0  0  0  0  0  0  0  0  0  0  0
    8.2380    2.7540   -0.5490 O   0  0  0  0  0  0  0  0  0  0  0  0
    9.9310    1.1630    1.1290 O   0  0  0  0  0  0  0  0  0  0  0  0
   -0.2720   -0.6830   -0.8760 C   0  0  0  0  0  0  0  0  0  0  0  0
    0.3600   -1.1730    0.0620 O   0  0  0  0  0  0  0  0  0  0  0  0
   -1.6870   -0.3720   -0.9090 N   0  0  0  0  0  0  0  0  0  0  0  0
   -2.7340   -1.1900   -0.4690 C   0  0  0  0  0  0  0  0  0  0  0  0
   -3.9160   -0.8720   -0.6330 O   0  0  0  0  0  0  0  0  0  0  0  0
   -2.4720   -2.4440    0.1970 N   0  0  0  0  0  0  0  0  0  0  0  0
   -3.3980   -3.3490    0.7300 C   0  0  0  0  0  0  0  0  0  0  0  0
   -4.0580   -3.0130    1.9960 C   0  0  1  0  0  0  0  0  0  0  0  0
   -4.8130   -1.7780    2.1650 C   0  0  0  0  0  0  0  0  0  0  0  0
   -4.0320   -0.6350    2.0710 O   0  0  0  0  0  0  0  0  0  0  0  0
   -4.9040   -4.2170    2.4050 C   0  0  0  0  0  0  0  0  0  0  0  0
   -6.1270   -4.1350    2.5620 O   0  0  0  0  0  0  0  0  0  0  0  0
   -4.2040   -5.3970    2.5870 O   0  0  0  0  0  0  0  0  0  0  0  0
  1  2  2  0
  2  3  1  0
  3  4  1  0
  4  5  1  0
  4  9  1  0
  5  6  1  0
  6  7  2  0
  6  8  1  0
  9 10  2  0
 11  9  1  1
 11 12  1  0
 11 28  1  0
 12 13  1  0
 13 14  1  1
 13 26  1  0
 14 15  2  0
 14 16  1  0
 16 17  1  0
 17 18  2  0
 17 19  1  0
 19 20  1  0
 20 21  1  0
 21 22  1  0
 22 23  1  0
 23 24  1  0
 23 25  1  0
 26 27  2  0
 26 28  1  0
 28 29  1  0
 29 30  2  0
 29 31  1  0
 31 32  1  0
 33 32  1  6
 33 34  1  0
 33 36  1  0
 34 35  1  0
 36 37  2  0
 36 38  1  0
M  END
