
     RDKit          3D

 38 39  0  0  0  0  0  0  0  0999 V2000
    4.9720   -6.5440   -0.7710 O   0  0  0  0  0  0  0  0  0  0  0  0
    3.8380   -6.1250    0.1910 P   0  0  0  0  0  0  0  0  0  0  0  0
    3.8650   -4.4910    0.9770 N   0  0  0  0  0  0  0  0  0  0  0  0
    4.3280   -3.3550    0.2800 C   0  0  0  0  0  0  0  0  0  0  0  0
    4.7230   -3.5210   -0.9160 O   0  0  0  0  0  0  0  0  0  0  0  0
    4.3640   -2.0550    0.8660 N   0  0  0  0  0  0  0  0  0  0  0  0
    3.9280   -1.8540    2.2240 C   0  0  0  0  0  0  0  0  0  0  0  0
    2.4590   -1.5460    2.1790 C   0  0  0  0  0  0  0  0  0  0  0  0
    1.8200   -1.3250    3.2510 O   0  0  0  0  0  0  0  0  0  0  0  0
    1.7710   -1.4960    0.9920 O   0  0  0  0  0  0  0  0  0  0  0  0
    0.3990   -1.2160    0.8410 C   0  0  0  0  0  0  0  0  0  0  0  0
    0.0130    0.1580    1.3570 C   0  0  0  0  0  0  0  0  0  0  0  0
    0.6660    1.1600    0.7230 O   0  0  0  0  0  0  0  0  0  0  0  0
    0.4450    1.3230   -0.6200 C   0  0  0  0  0  0  0  0  0  0  0  0
   -0.8950    1.7260   -1.0660 C   0  0  0  0  0  0  0  0  0  0  0  0
   -2.0090    1.0340   -0.8720 O   0  0  0  0  0  0  0  0  0  0  0  0
   -2.2380   -0.1810   -1.4080 C   0  0  2  0  0  0  0  0  0  0  0  0
   -3.2210   -0.0420   -2.4710 O   0  0  0  0  0  0  0  0  0  0  0  0
   -4.3200    0.6310   -1.9540 C   0  0  0  0  0  0  0  0  0  0  0  0
   -5.0590   -0.0990   -0.8790 C   0  0  2  0  0  0  0  0  0  0  0  0
   -5.9650    0.8410   -0.1140 C   0  0  1  0  0  0  0  0  0  0  0  0
   -6.8560    1.4910   -0.9780 O   0  0  0  0  0  0  0  0  0  0  0  0
   -7.9730    1.8030   -0.2100 C   0  0  0  0  0  0  0  0  0  0  0  0
   -8.0510    0.8400    0.8500 N   0  0  0  0  0  0  0  0  0  0  0  0
   -6.8770    0.0410    0.7500 C   0  0  0  0  0  0  0  0  0  0  0  0
   -6.6300   -1.0710    1.2500 O   0  0  0  0  0  0  0  0  0  0  0  0
   -4.1480   -0.7080    0.0670 N   0  0  0  0  0  0  0  0  0  0  0  0
   -2.8700   -1.1250   -0.4750 C   0  0  0  0  0  0  0  0  0  0  0  0
   -2.4130   -2.2370   -0.1150 O   0  0  0  0  0  0  0  0  0  0  0  0
    4.8300   -0.9580    0.0870 C   0  0  0  0  0  0  0  0  0  0  0  0
    5.2200   -1.1520   -1.1140 O   0  0  0  0  0  0  0  0  0  0  0  0
    4.9050    0.3820    0.5350 N   0  0  0  0  0  0  0  0  0  0  0  0
    5.3850    1.4390   -0.2970 C   0  0  0  0  0  0  0  0  0  0  0  0
    5.7550    1.1790   -1.4660 O   0  0  0  0  0  0  0  0  0  0  0  0
    5.4590    2.7500    0.1390 O   0  0  0  0  0  0  0  0  0  0  0  0
    6.0480    4.0550   -0.8780 P   0  0  0  0  0  0  0  0  0  0  0  0
    7.0260    5.1050    0.1200 O   0  0  0  0  0  0  0  0  0  0  0  0
    7.0770    3.4700   -2.1460 O   0  0  0  0  0  0  0  0  0  0  0  0
  1  2  2  0
  2  3  1  0
  3  4  1  0
  4  5  2  0
  4  6  1  0
  6  7  1  0
  6 30  1  0
  7  8  1  0
  8  9  2  0
  8 10  1  0
 10 11  1  0
 11 12  1  0
 12 13  1  0
 13 14  1  0
 14 15  1  0
 15 16  1  0
 17 16  1  1
 17 18  1  0
 17 28  1  0
 18 19  1  0
 20 19  1  6
 20 21  1  0
 20 27  1  0
 21 22  1  6
 21 25  1  0
 22 23  1  0
 23 24  1  0
 24 25  1  0
 25 26  2  0
 27 28  1  0
 28 29  2  0
 30 31  2  0
 30 32  1  0
 32 33  1  0
 33 34  2  0
 33 35  1  0
 35 36  1  0
 36 37  1  0
 36 38  1  0
M  END
