
     RDKit          3D

 38 39  0  0  0  0  0  0  0  0999 V2000
    1.2950   -1.3740    2.9100 C   0  0  0  0  0  0  0  0  0  0  0  0
    1.0650   -0.2400    1.9820 O   0  0  0  0  0  0  0  0  0  0  0  0
    0.0950   -0.4280    1.1200 C   0  0  0  0  0  0  0  0  0  0  0  0
   -0.6280   -1.4030    0.9810 O   0  0  0  0  0  0  0  0  0  0  0  0
   -0.2130    0.7520    0.0660 C   0  0  2  0  0  0  0  0  0  0  0  0
   -1.4320    0.3470   -0.2480 O   0  0  0  0  0  0  0  0  0  0  0  0
   -2.5690    1.0020   -0.0360 C   0  0  2  0  0  0  0  0  0  0  0  0
   -2.2650    1.5920    1.5020 C   0  0  0  0  0  0  0  0  0  0  0  0
   -3.0410    0.7190    2.3950 C   0  0  0  0  0  0  0  0  0  0  0  0
   -4.1380    0.3190    1.6360 N   0  0  0  0  0  0  0  0  0  0  0  0
   -5.5270    0.4760    1.8740 C   0  0  0  0  0  0  0  0  0  0  0  0
   -5.9890    1.3360    2.6280 O   0  0  0  0  0  0  0  0  0  0  0  0
   -6.4120   -0.4340    1.2070 N   0  0  0  0  0  0  0  0  0  0  0  0
   -7.8260   -0.1060    1.3080 C   0  0  0  0  0  0  0  0  0  0  0  0
   -7.8530    0.9840    0.1120 C   0  0  0  0  0  0  0  0  0  0  0  0
   -7.3430    0.0440   -0.8980 O   0  0  0  0  0  0  0  0  0  0  0  0
   -8.6960   -0.6860   -1.5630 P   0  0  0  0  0  0  0  0  0  0  0  0
  -10.1590   -0.1140   -0.9810 O   0  0  0  0  0  0  0  0  0  0  0  0
   -8.5620   -1.2220   -3.1420 O   0  0  0  0  0  0  0  0  0  0  0  0
   -3.6170   -0.0080    0.2990 C   0  0  0  0  0  0  0  0  0  0  0  0
    0.7520    0.2700   -0.9150 C   0  0  0  0  0  0  0  0  0  0  0  0
    0.2440   -0.2220   -2.0530 O   0  0  0  0  0  0  0  0  0  0  0  0
    2.0740    0.1960   -0.9400 N   0  0  0  0  0  0  0  0  0  0  0  0
    3.4490    0.1140   -1.2780 C   0  0  0  0  0  0  0  0  0  0  0  0
    3.4520    0.2680   -2.5570 O   0  0  0  0  0  0  0  0  0  0  0  0
    4.3920   -0.0930   -0.3930 N   0  0  0  0  0  0  0  0  0  0  0  0
    5.5510   -0.8840   -1.5280 C   0  0  0  0  0  0  0  0  0  0  0  0
    5.0750   -1.7960   -2.0480 O   0  0  0  0  0  0  0  0  0  0  0  0
    6.7200   -0.2210   -1.5610 O   0  0  0  0  0  0  0  0  0  0  0  0
    7.7840   -0.5860   -2.3750 C   0  0  0  0  0  0  0  0  0  0  0  0
    7.6300   -1.6820   -2.9660 O   0  0  0  0  0  0  0  0  0  0  0  0
    8.9440    0.3210   -2.4860 C   0  0  0  0  0  0  0  0  0  0  0  0
    9.3830    1.2370   -0.9540 P   0  0  0  0  0  0  0  0  0  0  0  0
    9.5910    0.0810    0.3270 O   0  0  0  0  0  0  0  0  0  0  0  0
   10.8040   -0.4280   -0.0540 N   0  0  0  0  0  0  0  0  0  0  0  0
   11.7280    0.5740   -0.3960 C   0  0  0  0  0  0  0  0  0  0  0  0
   12.9350    0.5500   -0.0960 O   0  0  0  0  0  0  0  0  0  0  0  0
   11.1450    1.6000   -1.1130 O   0  0  0  0  0  0  0  0  0  0  0  0
  1  2  1  0
  2  3  1  0
  3  4  2  0
  3  5  1  0
  5  6  1  6
  5 21  1  0
  7  6  1  1
  7  8  1  0
  7 20  1  0
  8  9  1  0
  9 10  1  0
 10 11  1  0
 10 20  1  0
 11 12  2  0
 11 13  1  0
 13 14  1  0
 14 15  1  0
 15 16  1  0
 16 17  1  0
 17 18  1  0
 17 19  1  0
 21 22  2  0
 21 23  1  0
 23 24  1  0
 24 25  2  0
 24 26  1  0
 26 27  1  0
 27 28  2  0
 27 29  1  0
 29 30  1  0
 30 31  2  0
 30 32  1  0
 32 33  1  0
 33 34  1  0
 33 38  1  0
 34 35  1  0
 35 36  1  0
 36 37  2  0
 36 38  1  0
M  END
