
     RDKit          3D

 39 40  0  0  0  0  0  0  0  0999 V2000
    4.0560   -1.2680   -0.0030 C   0  0  0  0  0  0  0  0  0  0  0  0
    3.1640   -0.6590   -0.9340 N   0  0  0  0  0  0  0  0  0  0  0  0
    3.7800    0.0490   -2.0780 C   0  0  0  0  0  0  0  0  0  0  0  0
    4.0400    1.8080   -1.5440 P   0  0  0  0  0  0  0  0  0  0  0  0
    5.7220    2.1810   -1.8670 O   0  0  0  0  0  0  0  0  0  0  0  0
    3.7960    1.9740    0.1860 O   0  0  0  0  0  0  0  0  0  0  0  0
    1.7530   -0.6870   -0.8370 C   0  0  0  0  0  0  0  0  0  0  0  0
    1.0910   -0.1100   -1.7260 O   0  0  0  0  0  0  0  0  0  0  0  0
    1.0670   -1.3780    0.2840 C   0  0  1  0  0  0  0  0  0  0  0  0
    2.0150   -1.9430    1.1590 O   0  0  0  0  0  0  0  0  0  0  0  0
    1.6650   -1.7710    2.4510 C   0  0  0  0  0  0  0  0  0  0  0  0
    2.1460   -2.3060    3.4800 O   0  0  0  0  0  0  0  0  0  0  0  0
    0.6190   -0.8480    2.4820 N   0  0  0  0  0  0  0  0  0  0  0  0
    0.3150   -0.4360    1.1410 C   0  0  0  0  0  0  0  0  0  0  0  0
   -0.4170    0.4720    0.6900 N   0  0  0  0  0  0  0  0  0  0  0  0
   -0.9560    1.1320   -0.3270 N   0  0  0  0  0  0  0  0  0  0  0  0
   -0.5300    2.5590   -0.5680 C   0  0  0  0  0  0  0  0  0  0  0  0
   -1.3440    3.5030    0.2220 C   0  0  0  0  0  0  0  0  0  0  0  0
   -1.0660    4.7930    0.0390 O   0  0  0  0  0  0  0  0  0  0  0  0
    0.0940    5.3930    0.2610 C   0  0  0  0  0  0  0  0  0  0  0  0
    1.5390    4.9280   -0.7690 P   0  0  0  0  0  0  0  0  0  0  0  0
    1.8890    5.6890   -2.0800 O   0  0  0  0  0  0  0  0  0  0  0  0
   -1.9830    0.6240   -1.2170 C   0  0  0  0  0  0  0  0  0  0  0  0
   -2.7920    1.5230   -1.6240 O   0  0  0  0  0  0  0  0  0  0  0  0
   -2.2170   -0.7290   -1.6980 C   0  0  0  0  0  0  0  0  0  0  0  0
   -2.8520   -1.6460   -0.7720 N   0  0  0  0  0  0  0  0  0  0  0  0
   -3.0620   -2.9550   -1.2610 C   0  0  0  0  0  0  0  0  0  0  0  0
   -3.6220   -3.7970   -0.5220 O   0  0  0  0  0  0  0  0  0  0  0  0
   -2.6760   -3.3580   -2.5250 O   0  0  0  0  0  0  0  0  0  0  0  0
   -3.2730   -1.3040    0.5420 C   0  0  0  0  0  0  0  0  0  0  0  0
   -2.7420   -2.0390    1.6880 C   0  0  1  0  0  0  0  0  0  0  0  0
   -2.4920   -1.1100    2.7220 O   0  0  0  0  0  0  0  0  0  0  0  0
   -3.8210   -2.7940    2.2550 O   0  0  0  0  0  0  0  0  0  0  0  0
   -4.7740   -2.0050    2.6400 O   0  0  0  0  0  0  0  0  0  0  0  0
   -1.5780   -2.9330    1.4880 C   0  0  0  0  0  0  0  0  0  0  0  0
   -1.3320   -3.6390    2.5580 O   0  0  0  0  0  0  0  0  0  0  0  0
   -0.8160   -3.0810    0.4160 O   0  0  0  0  0  0  0  0  0  0  0  0
    0.2460   -2.5120   -0.1880 C   0  0  0  0  0  0  0  0  0  0  0  0
    0.6190   -2.9940   -1.3230 O   0  0  0  0  0  0  0  0  0  0  0  0
  1  2  1  0
  2  3  1  0
  2  7  1  0
  3  4  1  0
  4  5  1  0
  4  6  1  0
  7  8  2  0
  9  7  1  6
  9 10  1  0
  9 14  1  0
  9 38  1  0
 10 11  1  0
 11 12  2  0
 11 13  1  0
 13 14  1  0
 14 15  2  0
 15 16  1  0
 16 17  1  0
 16 23  1  0
 17 18  1  0
 18 19  1  0
 19 20  1  0
 20 21  1  0
 21 22  2  0
 23 24  2  0
 23 25  1  0
 25 26  1  0
 26 27  1  0
 26 30  1  0
 27 28  2  0
 27 29  1  0
 30 31  1  0
 31 32  1  1
 31 33  1  0
 31 35  1  0
 33 34  1  0
 35 36  2  0
 35 37  1  0
 37 38  1  0
 38 39  2  0
M  END
