
     RDKit          3D

 39 41  0  0  0  0  0  0  0  0999 V2000
   -4.9820   -7.5000   -0.2010 C   0  0  0  0  0  0  0  0  0  0  0  0
   -4.6770   -6.1670    0.4420 C   0  0  0  0  0  0  0  0  0  0  0  0
   -3.9020   -5.4210   -0.4910 O   0  0  0  0  0  0  0  0  0  0  0  0
   -3.4630   -4.1410   -0.1850 C   0  0  0  0  0  0  0  0  0  0  0  0
   -3.7960   -3.7000    0.9580 O   0  0  0  0  0  0  0  0  0  0  0  0
   -2.7100   -3.3560   -1.0350 O   0  0  0  0  0  0  0  0  0  0  0  0
   -2.3530   -2.1080   -0.5850 N   0  0  0  0  0  0  0  0  0  0  0  0
   -3.2690   -1.0140   -0.8950 C   0  0  0  0  0  0  0  0  0  0  0  0
   -2.5690    0.1610   -0.8150 O   0  0  0  0  0  0  0  0  0  0  0  0
   -1.9580    0.3810    0.4180 C   0  0  2  0  0  0  0  0  0  0  0  0
   -2.9850    0.2650    1.3810 O   0  0  0  0  0  0  0  0  0  0  0  0
   -1.3410    2.1000    0.4510 P   0  0  0  0  0  0  0  0  0  0  0  0
   -2.0580    3.1440   -0.8040 N   0  0  0  0  0  0  0  0  0  0  0  0
   -2.7550    4.3710   -0.5960 C   0  0  0  0  0  0  0  0  0  0  0  0
   -3.2640    5.0930   -1.6170 C   0  0  0  0  0  0  0  0  0  0  0  0
   -3.9240    6.3010   -1.1200 C   0  0  0  0  0  0  0  0  0  0  0  0
   -3.7730    6.2610    0.3490 C   0  0  0  0  0  0  0  0  0  0  0  0
   -3.0320    5.0250    0.5910 N   0  0  0  0  0  0  0  0  0  0  0  0
   -2.6640    4.5910    1.9170 C   0  0  0  0  0  0  0  0  0  0  0  0
   -1.8270    3.2090    2.2920 P   0  0  0  0  0  0  0  0  0  0  0  0
   -0.9220   -0.6510    0.6600 C   0  0  0  0  0  0  0  0  0  0  0  0
    0.2270   -0.4590    1.3520 O   0  0  0  0  0  0  0  0  0  0  0  0
    1.2530    0.4430    1.2070 C   0  0  0  0  0  0  0  0  0  0  0  0
    2.1250    0.3720   -0.4230 P   0  0  0  0  0  0  0  0  0  0  0  0
    3.8520    0.5340   -0.2770 O   0  0  0  0  0  0  0  0  0  0  0  0
    4.5040    1.6990    0.0210 C   0  0  0  0  0  0  0  0  0  0  0  0
    3.8180    2.7310    0.2050 O   0  0  0  0  0  0  0  0  0  0  0  0
    5.9580    1.7080    0.1170 C   0  0  0  0  0  0  0  0  0  0  0  0
    6.5930    2.7980    0.3970 N   0  0  0  0  0  0  0  0  0  0  0  0
    6.7370    0.4650   -0.1060 C   0  0  1  0  0  0  0  0  0  0  0  0
    8.2060    0.7220    0.0450 C   0  0  0  0  0  0  0  0  0  0  0  0
    6.3170   -0.5900    0.8180 N   0  0  0  0  0  0  0  0  0  0  0  0
    1.6950   -0.9780   -1.3770 O   0  0  0  0  0  0  0  0  0  0  0  0
    2.9490   -2.1540   -1.3290 P   0  0  0  0  0  0  0  0  0  0  0  0
    3.6080   -2.2320    0.2700 O   0  0  0  0  0  0  0  0  0  0  0  0
    4.5610   -1.7380   -2.7380 P   0  0  0  0  0  0  0  0  0  0  0  0
    6.0150   -2.2310   -2.5190 O   0  0  0  0  0  0  0  0  0  0  0  0
   -1.1540   -1.8570    0.1520 C   0  0  0  0  0  0  0  0  0  0  0  0
   -0.2110   -2.9950    0.3100 C   0  0  0  0  0  0  0  0  0  0  0  0
  1  2  1  0
  2  3  1  0
  3  4  1  0
  4  5  2  0
  4  6  1  0
  6  7  1  0
  7  8  1  0
  7 38  1  0
  8  9  1  0
  9 10  1  0
 10 11  1  1
 10 12  1  0
 10 21  1  0
 12 13  1  0
 12 20  1  0
 13 14  1  0
 14 15  2  0
 14 18  1  0
 15 16  1  0
 16 17  1  0
 17 18  1  0
 18 19  1  0
 19 20  2  0
 21 22  1  0
 21 38  2  0
 22 23  1  0
 23 24  1  0
 24 25  1  0
 24 33  1  0
 25 26  1  0
 26 27  2  0
 26 28  1  0
 28 29  2  0
 28 30  1  0
 30 31  1  1
 30 32  1  0
 33 34  1  0
 34 35  1  0
 34 36  1  0
 36 37  2  0
 38 39  1  0
M  END
