
     RDKit          3D

 38 40  0  0  0  0  0  0  0  0999 V2000
    5.6950    0.5620    1.7920 N   0  0  0  0  0  0  0  0  0  0  0  0
    5.9160   -0.2030    0.7920 C   0  0  0  0  0  0  0  0  0  0  0  0
    6.9900    0.0780   -0.0970 N   0  0  0  0  0  0  0  0  0  0  0  0
    8.3810    1.0060    0.5640 P   0  0  0  0  0  0  0  0  0  0  0  0
    9.3060    1.7390   -0.7060 O   0  0  0  0  0  0  0  0  0  0  0  0
    9.3630   -0.0480    1.5320 O   0  0  0  0  0  0  0  0  0  0  0  0
    5.0810   -1.3360    0.5770 N   0  0  0  0  0  0  0  0  0  0  0  0
    3.6470   -1.1400    0.5700 C   0  0  0  0  0  0  0  0  0  0  0  0
    3.3000   -0.3460   -0.6290 C   0  0  0  0  0  0  0  0  0  0  0  0
    4.2140    0.0150   -1.4060 O   0  0  0  0  0  0  0  0  0  0  0  0
    1.9650   -0.0060   -0.8860 N   0  0  0  0  0  0  0  0  0  0  0  0
    0.6940   -0.2290   -0.2530 C   0  0  0  0  0  0  0  0  0  0  0  0
    0.2570    1.0850   -0.8260 C   0  0  2  0  0  0  0  0  0  0  0  0
    0.7570    2.2410   -0.0060 C   0  0  0  0  0  0  0  0  0  0  0  0
   -0.4390    2.8610    0.7190 C   0  0  0  0  0  0  0  0  0  0  0  0
   -0.8160    1.9520    1.7250 O   0  0  0  0  0  0  0  0  0  0  0  0
   -1.7540    2.1800    2.7200 C   0  0  0  0  0  0  0  0  0  0  0  0
   -1.4300    1.9450    3.9410 O   0  0  0  0  0  0  0  0  0  0  0  0
   -2.9880    2.6490    2.3350 O   0  0  0  0  0  0  0  0  0  0  0  0
   -3.8840    2.0620    1.5750 O   0  0  0  0  0  0  0  0  0  0  0  0
   -4.1060    2.6350    0.3980 O   0  0  0  0  0  0  0  0  0  0  0  0
   -4.3670    1.9070   -0.7620 C   0  0  0  0  0  0  0  0  0  0  0  0
   -5.0560    2.4690   -1.6470 O   0  0  0  0  0  0  0  0  0  0  0  0
   -3.8760    0.5380   -0.9780 C   0  0  1  0  0  0  0  0  0  0  0  0
   -4.9810   -0.4200   -1.2210 C   0  0  0  0  0  0  0  0  0  0  0  0
   -5.0310   -1.1760   -2.2280 O   0  0  0  0  0  0  0  0  0  0  0  0
   -6.0220   -0.5050   -0.3090 O   0  0  0  0  0  0  0  0  0  0  0  0
   -7.1010   -1.3850   -0.4650 C   0  0  1  0  0  0  0  0  0  0  0  0
   -7.3840   -2.0880    0.8480 C   0  0  0  0  0  0  0  0  0  0  0  0
   -8.7910   -2.0150    0.5130 N   0  0  0  0  0  0  0  0  0  0  0  0
   -8.4780   -0.8010   -0.2380 C   0  0  0  0  0  0  0  0  0  0  0  0
   -2.9680    0.4310   -2.0310 O   0  0  0  0  0  0  0  0  0  0  0  0
   -1.6870    0.0560   -1.5610 C   0  0  0  0  0  0  0  0  0  0  0  0
   -1.0370    1.2150   -1.2360 O   0  0  0  0  0  0  0  0  0  0  0  0
    1.2640    0.7250   -1.9060 C   0  0  0  0  0  0  0  0  0  0  0  0
    5.7080   -2.9700    0.3160 P   0  0  0  0  0  0  0  0  0  0  0  0
    5.9220   -3.3590   -1.3480 O   0  0  0  0  0  0  0  0  0  0  0  0
    4.8140   -4.1760    1.1730 O   0  0  0  0  0  0  0  0  0  0  0  0
  1  2  2  0
  2  3  1  0
  2  7  1  0
  3  4  1  0
  4  5  1  0
  4  6  1  0
  7  8  1  0
  7 36  1  0
  8  9  1  0
  9 10  2  0
  9 11  1  0
 11 12  1  0
 11 35  1  0
 13 12  1  1
 13 14  1  0
 13 34  1  0
 13 35  1  0
 14 15  1  0
 15 16  1  0
 16 17  1  0
 17 18  2  0
 17 19  1  0
 19 20  1  0
 20 21  1  0
 21 22  1  0
 22 23  2  0
 22 24  1  0
 24 25  1  6
 24 32  1  0
 25 26  2  0
 25 27  1  0
 28 27  1  1
 28 29  1  0
 28 31  1  0
 29 30  1  0
 30 31  1  0
 32 33  1  0
 33 34  1  0
 36 37  1  0
 36 38  1  0
M  END
