
     RDKit          3D

 38 40  0  0  0  0  0  0  0  0999 V2000
   -0.5520    4.1680   -0.9870 C   0  0  0  0  0  0  0  0  0  0  0  0
   -1.2650    3.8160    0.0860 C   0  0  0  0  0  0  0  0  0  0  0  0
   -2.2120    4.7260    0.6340 N   0  0  0  0  0  0  0  0  0  0  0  0
   -2.4910    4.1380    2.3090 P   0  0  0  0  0  0  0  0  0  0  0  0
   -4.1180    3.4790    2.3400 O   0  0  0  0  0  0  0  0  0  0  0  0
   -1.2910    2.6890    2.2020 C   0  0  0  0  0  0  0  0  0  0  0  0
   -1.1840    2.5970    0.7580 N   0  0  0  0  0  0  0  0  0  0  0  0
   -1.0050    1.2900    0.1040 C   0  0  1  0  0  0  0  0  0  0  0  0
    0.2860    0.7130    0.6550 C   0  0  0  0  0  0  0  0  0  0  0  0
    0.4910   -0.6180    0.1610 N   0  0  0  0  0  0  0  0  0  0  0  0
    1.8050   -1.0990   -0.0490 C   0  0  0  0  0  0  0  0  0  0  0  0
    2.0340   -2.2630   -0.4820 O   0  0  0  0  0  0  0  0  0  0  0  0
    2.8700   -0.2890    0.2210 O   0  0  0  0  0  0  0  0  0  0  0  0
    4.2340   -0.6010    0.0670 C   0  0  1  0  0  0  0  0  0  0  0  0
    4.5270   -1.7880    0.9200 C   0  0  0  0  0  0  0  0  0  0  0  0
    3.6320   -2.3230    1.6080 O   0  0  0  0  0  0  0  0  0  0  0  0
    5.8020   -2.3320    0.9720 O   0  0  0  0  0  0  0  0  0  0  0  0
    4.5260   -0.8590   -1.3710 C   0  0  0  0  0  0  0  0  0  0  0  0
    5.6220   -1.7140   -1.4590 O   0  0  0  0  0  0  0  0  0  0  0  0
    6.7460   -0.9030   -1.5800 C   0  0  0  0  0  0  0  0  0  0  0  0
    7.1680   -0.3010   -0.3030 C   0  0  0  0  0  0  0  0  0  0  0  0
    8.3550   -0.4730    0.0640 O   0  0  0  0  0  0  0  0  0  0  0  0
    6.3820    0.4440    0.5470 O   0  0  0  0  0  0  0  0  0  0  0  0
    5.0020    0.5950    0.6060 C   0  0  0  0  0  0  0  0  0  0  0  0
   -0.6100   -1.4600   -0.1200 C   0  0  0  0  0  0  0  0  0  0  0  0
   -0.4470   -2.6600   -0.4950 O   0  0  0  0  0  0  0  0  0  0  0  0
   -1.9640   -0.9810    0.0110 N   0  0  0  0  0  0  0  0  0  0  0  0
   -3.0400   -1.8490   -0.2870 C   0  0  0  0  0  0  0  0  0  0  0  0
   -2.7660   -3.0410   -0.6420 O   0  0  0  0  0  0  0  0  0  0  0  0
   -4.3990   -1.4940   -0.2220 N   0  0  0  0  0  0  0  0  0  0  0  0
   -5.3900   -2.4780   -0.5480 C   0  0  0  0  0  0  0  0  0  0  0  0
   -5.0750   -3.6440   -0.8890 O   0  0  0  0  0  0  0  0  0  0  0  0
   -6.7340   -2.1210   -0.4820 O   0  0  0  0  0  0  0  0  0  0  0  0
   -7.9850   -3.3070   -0.8770 P   0  0  0  0  0  0  0  0  0  0  0  0
   -7.6950   -3.9430   -2.4810 O   0  0  0  0  0  0  0  0  0  0  0  0
   -9.5030   -2.4520   -0.8870 O   0  0  0  0  0  0  0  0  0  0  0  0
   -2.0980    0.3570    0.4310 C   0  0  0  0  0  0  0  0  0  0  0  0
   -3.1020    0.7200    1.0530 O   0  0  0  0  0  0  0  0  0  0  0  0
  1  2  2  0
  2  3  1  0
  2  7  1  0
  3  4  1  0
  4  5  1  0
  4  6  1  0
  6  7  1  0
  8  7  1  1
  8  9  1  0
  8 37  1  0
  9 10  1  0
 10 11  1  0
 10 25  1  0
 11 12  2  0
 11 13  1  0
 14 13  1  6
 14 15  1  0
 14 18  1  0
 14 24  1  0
 15 16  2  0
 15 17  1  0
 18 19  1  0
 19 20  1  0
 20 21  1  0
 21 22  2  0
 21 23  1  0
 23 24  1  0
 25 26  2  0
 25 27  1  0
 27 28  1  0
 27 37  1  0
 28 29  2  0
 28 30  1  0
 30 31  1  0
 31 32  2  0
 31 33  1  0
 33 34  1  0
 34 35  1  0
 34 36  1  0
 37 38  2  0
M  END
