
     RDKit          3D

 21 22  0  0  0  0  0  0  0  0999 V2000
   -0.6550    1.3400    0.3960 O   0  0  0  0  0  0  0  0  0  0  0  0
    0.0450    0.8520   -0.5270 C   0  0  0  0  0  0  0  0  0  0  0  0
   -0.5210    0.7080   -1.7720 O   0  0  0  0  0  0  0  0  0  0  0  0
   -1.7950    1.0690   -2.0430 O   0  0  0  0  0  0  0  0  0  0  0  0
   -2.8900    0.6640   -1.2880 C   0  0  0  0  0  0  0  0  0  0  0  0
   -2.8140   -0.1180   -0.2220 N   0  0  0  0  0  0  0  0  0  0  0  0
   -3.8840   -0.4950    0.4890 C   0  0  0  0  0  0  0  0  0  0  0  0
   -5.1270   -0.0530    0.1000 C   0  0  0  0  0  0  0  0  0  0  0  0
   -6.2790   -0.4250    0.8190 O   0  0  0  0  0  0  0  0  0  0  0  0
   -5.2100    0.7600   -1.0070 C   0  0  0  0  0  0  0  0  0  0  0  0
   -4.1010    1.1090   -1.6860 N   0  0  0  0  0  0  0  0  0  0  0  0
    1.4220    0.4510   -0.2720 C   0  0  0  0  0  0  0  0  0  0  0  0
    2.2080   -0.0680   -1.1990 C   0  0  0  0  0  0  0  0  0  0  0  0
    3.5880   -0.4210   -0.7650 C   0  0  0  0  0  0  0  0  0  0  0  0
    3.4480   -1.1550    0.5500 C   0  0  2  0  0  0  0  0  0  0  0  0
    2.9760   -2.4430    0.2310 O   0  0  0  0  0  0  0  0  0  0  0  0
    3.8030   -3.3820    0.5680 O   0  0  0  0  0  0  0  0  0  0  0  0
    2.6440   -0.5440    1.4680 O   0  0  0  0  0  0  0  0  0  0  0  0
    2.0260    0.6100    1.0770 C   0  0  1  0  0  0  0  0  0  0  0  0
    2.9080    1.6980    1.0090 O   0  0  0  0  0  0  0  0  0  0  0  0
    2.5070    2.6810    1.7970 O   0  0  0  0  0  0  0  0  0  0  0  0
  1  2  2  0
  2  3  1  0
  2 12  1  0
  3  4  1  0
  4  5  1  0
  5  6  2  0
  5 11  1  0
  6  7  1  0
  7  8  2  0
  8  9  1  0
  8 10  1  0
 10 11  2  0
 12 13  2  0
 12 19  1  0
 13 14  1  0
 14 15  1  0
 15 16  1  6
 15 18  1  0
 16 17  1  0
 18 19  1  0
 19 20  1  6
 20 21  1  0
M  END
