
     RDKit          3D

 19 18  0  0  0  0  0  0  0  0999 V2000
    3.7910   -3.2900   -0.4450 C   0  0  0  0  0  0  0  0  0  0  0  0
    2.8520   -3.0530   -1.4480 O   0  0  0  0  0  0  0  0  0  0  0  0
    2.7110   -1.4080   -1.7320 P   0  0  0  0  0  0  0  0  0  0  0  0
    1.4100   -0.5920   -1.0540 O   0  0  0  0  0  0  0  0  0  0  0  0
    1.4220   -0.7760    0.3360 C   0  0  0  0  0  0  0  0  0  0  0  0
    0.2710   -0.0600    0.9670 C   0  0  1  0  0  0  0  0  0  0  0  0
    0.3880    1.4340    0.6530 C   0  0  0  0  0  0  0  0  0  0  0  0
    0.3640    1.6610   -0.7100 O   0  0  0  0  0  0  0  0  0  0  0  0
   -0.9840   -0.5500    0.3430 C   0  0  0  0  0  0  0  0  0  0  0  0
   -0.9770   -1.4220   -0.5560 O   0  0  0  0  0  0  0  0  0  0  0  0
   -2.2420   -0.0680    0.7230 O   0  0  0  0  0  0  0  0  0  0  0  0
   -3.4350   -0.5480    0.1160 C   0  0  0  0  0  0  0  0  0  0  0  0
   -4.5890    0.1970    0.7760 C   0  0  2  0  0  0  0  0  0  0  0  0
   -5.9130   -0.2670    0.1720 C   0  0  0  0  0  0  0  0  0  0  0  0
   -4.4590    1.6940    0.4880 C   0  0  0  0  0  0  0  0  0  0  0  0
    4.0990   -0.5340   -2.0800 O   0  0  0  0  0  0  0  0  0  0  0  0
    4.4990    0.4560   -0.7080 P   0  0  0  0  0  0  0  0  0  0  0  0
    3.9450    2.2070   -0.9480 C   0  0  0  0  0  0  0  0  0  0  0  0
    6.1890    0.3620   -0.3410 O   0  0  0  0  0  0  0  0  0  0  0  0
  1  2  1  0
  2  3  1  0
  3  4  1  0
  3 16  1  0
  4  5  1  0
  6  5  1  6
  6  7  1  0
  6  9  1  0
  7  8  1  0
  9 10  2  0
  9 11  1  0
 11 12  1  0
 12 13  1  0
 13 14  1  6
 13 15  1  0
 16 17  1  0
 17 18  1  0
 17 19  1  0
M  END
