
     RDKit          3D

 18 17  0  0  0  0  0  0  0  0999 V2000
   -5.1490   -1.3760    0.4990 C   0  0  0  0  0  0  0  0  0  0  0  0
   -4.2550   -1.4180   -0.6760 C   0  0  0  0  0  0  0  0  0  0  0  0
   -3.2610   -0.2740   -0.7770 C   0  0  0  0  0  0  0  0  0  0  0  0
   -2.7910    0.1390    0.6140 C   0  0  0  0  0  0  0  0  0  0  0  0
   -1.5950    1.0060    0.4730 C   0  0  0  0  0  0  0  0  0  0  0  0
   -0.5340    0.1160    0.0550 O   0  0  0  0  0  0  0  0  0  0  0  0
    0.9130    0.9440   -0.0620 P   0  0  0  0  0  0  0  0  0  0  0  0
    2.3570    0.1010   -0.3670 O   0  0  0  0  0  0  0  0  0  0  0  0
    2.0090   -1.1860   -0.8880 C   0  0  0  0  0  0  0  0  0  0  0  0
    2.8670   -2.0390    0.1280 C   0  0  0  0  0  0  0  0  0  0  0  0
    4.1860   -1.7090    0.0300 O   0  0  0  0  0  0  0  0  0  0  0  0
    5.2820   -2.5960   -0.1950 C   0  0  0  0  0  0  0  0  0  0  0  0
    4.6720   -3.7850   -0.3490 O   0  0  0  0  0  0  0  0  0  0  0  0
    6.5910   -2.5240   -0.2550 O   0  0  0  0  0  0  0  0  0  0  0  0
    1.0120    2.5600    0.1730 O   0  0  0  0  0  0  0  0  0  0  0  0
    2.0560    3.4410    0.3490 C   0  0  0  0  0  0  0  0  0  0  0  0
    1.8470    4.8690    0.5000 C   0  0  0  0  0  0  0  0  0  0  0  0
    3.2390    2.9050    0.3130 O   0  0  0  0  0  0  0  0  0  0  0  0
  1  2  1  0
  2  3  1  0
  3  4  1  0
  4  5  1  0
  5  6  1  0
  6  7  1  0
  7  8  1  0
  7 15  1  0
  8  9  1  0
  9 10  1  0
 10 11  1  0
 11 12  1  0
 12 13  2  0
 12 14  1  0
 15 16  1  0
 16 17  1  0
 16 18  2  0
M  END
