
     RDKit          3D

 21 22  0  0  0  0  0  0  0  0999 V2000
   -2.1240    1.1690    0.8390 C   0  0  0  0  0  0  0  0  0  0  0  0
   -2.0850    0.5910   -0.5550 C   0  0  2  0  0  0  0  0  0  0  0  0
   -3.2440    0.8600   -1.2720 O   0  0  0  0  0  0  0  0  0  0  0  0
   -4.3700    0.2530   -0.7370 C   0  0  0  0  0  0  0  0  0  0  0  0
   -4.2160   -1.1940   -0.5520 C   0  0  0  0  0  0  0  0  0  0  0  0
   -5.2280   -1.9180   -0.3870 O   0  0  0  0  0  0  0  0  0  0  0  0
   -2.9060   -1.7480   -0.5660 N   0  0  0  0  0  0  0  0  0  0  0  0
   -1.7830   -0.8630   -0.5540 C   0  0  0  0  0  0  0  0  0  0  0  0
   -0.6160   -1.3660   -0.5440 N   0  0  0  0  0  0  0  0  0  0  0  0
    0.5900   -0.6500   -0.5320 C   0  0  0  0  0  0  0  0  0  0  0  0
    0.8390    0.1340   -1.4850 O   0  0  0  0  0  0  0  0  0  0  0  0
    1.5400   -0.8110    0.5640 C   0  0  0  0  0  0  0  0  0  0  0  0
    1.3830   -1.6040    1.6120 C   0  0  0  0  0  0  0  0  0  0  0  0
    2.5260   -1.4550    2.4170 O   0  0  0  0  0  0  0  0  0  0  0  0
    3.1020   -0.2920    2.0880 O   0  0  0  0  0  0  0  0  0  0  0  0
    2.8540   -0.1410    0.7400 C   0  0  2  0  0  0  0  0  0  0  0  0
    2.7740    1.2140    0.4340 O   0  0  0  0  0  0  0  0  0  0  0  0
    3.6740    1.5730   -0.4990 O   0  0  0  0  0  0  0  0  0  0  0  0
    5.0170    1.3380   -0.3230 C   0  0  0  0  0  0  0  0  0  0  0  0
    5.4030    0.7760    0.7330 O   0  0  0  0  0  0  0  0  0  0  0  0
    5.9430    1.7180   -1.3070 O   0  0  0  0  0  0  0  0  0  0  0  0
  2  1  1  1
  2  3  1  0
  2  8  1  0
  3  4  1  0
  4  5  1  0
  5  6  2  0
  5  7  1  0
  7  8  1  0
  8  9  2  3
  9 10  1  0
 10 11  2  0
 10 12  1  0
 12 13  2  0
 12 16  1  0
 13 14  1  0
 14 15  1  0
 15 16  1  0
 16 17  1  1
 17 18  1  0
 18 19  1  0
 19 20  2  0
 19 21  1  0
M  END
