
     RDKit          3D

 19 18  0  0  0  0  0  0  0  0999 V2000
   -6.2330   -2.1500    0.1190 C   0  0  0  0  0  0  0  0  0  0  0  0
   -5.0280   -1.5080    0.7240 C   0  0  0  0  0  0  0  0  0  0  0  0
   -3.9700   -1.3700   -0.2030 O   0  0  0  0  0  0  0  0  0  0  0  0
   -2.6700   -0.6140    0.6650 P   0  0  0  0  0  0  0  0  0  0  0  0
   -1.1040   -0.5760   -0.2880 C   0  0  0  0  0  0  0  0  0  0  0  0
    0.0440   -0.6080    0.5610 O   0  0  0  0  0  0  0  0  0  0  0  0
    1.2950   -0.5850   -0.0290 C   0  0  0  0  0  0  0  0  0  0  0  0
    1.3630   -0.5360   -1.3000 O   0  0  0  0  0  0  0  0  0  0  0  0
    2.4770   -0.6110    0.6550 O   0  0  0  0  0  0  0  0  0  0  0  0
    3.7560   -0.5840   -0.0200 C   0  0  1  0  0  0  0  0  0  0  0  0
    4.4860    0.6710    0.3060 C   0  0  0  0  0  0  0  0  0  0  0  0
    5.8190    0.7280   -0.3860 C   0  0  0  0  0  0  0  0  0  0  0  0
    6.6930    2.3420    0.0180 P   0  0  0  0  0  0  0  0  0  0  0  0
    4.4920   -1.8240    0.2140 C   0  0  0  0  0  0  0  0  0  0  0  0
    5.6060   -2.0870   -0.3070 O   0  0  0  0  0  0  0  0  0  0  0  0
    3.8890   -2.7660    1.0840 O   0  0  0  0  0  0  0  0  0  0  0  0
   -3.1550    1.0230    0.9860 O   0  0  0  0  0  0  0  0  0  0  0  0
   -3.6250    1.5380   -0.2430 C   0  0  0  0  0  0  0  0  0  0  0  0
   -4.0530    2.9490   -0.0050 C   0  0  0  0  0  0  0  0  0  0  0  0
  1  2  1  0
  2  3  1  0
  3  4  1  0
  4  5  1  0
  4 17  1  0
  5  6  1  0
  6  7  1  0
  7  8  2  0
  7  9  1  0
  9 10  1  0
 10 11  1  1
 10 14  1  0
 11 12  1  0
 12 13  1  0
 14 15  2  0
 14 16  1  0
 17 18  1  0
 18 19  1  0
M  END
