
     RDKit          3D

 21 21  0  0  0  0  0  0  0  0999 V2000
   -2.1700    1.0910    0.0000 C   0  0  0  0  0  0  0  0  0  0  0  0
   -1.9490   -0.1930   -0.7890 C   0  0  1  0  0  0  0  0  0  0  0  0
   -0.8420    0.0160   -1.6410 O   0  0  0  0  0  0  0  0  0  0  0  0
    0.3700    0.3290   -1.0050 C   0  0  0  0  0  0  0  0  0  0  0  0
    0.4320    0.4120    0.2480 O   0  0  0  0  0  0  0  0  0  0  0  0
    1.5580    0.5630   -1.7420 N   0  0  0  0  0  0  0  0  0  0  0  0
    2.8320    0.8890   -1.1370 C   0  0  0  0  0  0  0  0  0  0  0  0
    3.3350   -0.1860   -0.1990 C   0  0  0  0  0  0  0  0  0  0  0  0
    4.5860    0.2840    0.3070 O   0  0  0  0  0  0  0  0  0  0  0  0
    5.3400   -0.4460    1.2020 C   0  0  0  0  0  0  0  0  0  0  0  0
    4.9130   -1.5570    1.5820 O   0  0  0  0  0  0  0  0  0  0  0  0
    6.5620    0.0580    1.6690 O   0  0  0  0  0  0  0  0  0  0  0  0
   -1.7570   -1.3520    0.1470 C   0  0  0  0  0  0  0  0  0  0  0  0
   -2.4710   -1.0410    1.3810 N   0  0  0  0  0  0  0  0  0  0  0  0
   -3.8680   -0.7440    1.4580 C   0  0  0  0  0  0  0  0  0  0  0  0
   -4.3180   -0.6150    2.6080 O   0  0  0  0  0  0  0  0  0  0  0  0
   -4.8280   -0.5760    0.3610 C   0  0  0  0  0  0  0  0  0  0  0  0
   -6.0490   -0.5020    0.6580 O   0  0  0  0  0  0  0  0  0  0  0  0
   -4.4710   -0.4920   -0.9900 O   0  0  0  0  0  0  0  0  0  0  0  0
   -3.1970   -0.4370   -1.5550 C   0  0  0  0  0  0  0  0  0  0  0  0
   -3.1250   -0.6070   -2.7980 O   0  0  0  0  0  0  0  0  0  0  0  0
  2  1  1  1
  2  3  1  0
  2 13  1  0
  2 20  1  0
  3  4  1  0
  4  5  2  0
  4  6  1  0
  6  7  1  0
  7  8  1  0
  8  9  1  0
  9 10  1  0
 10 11  2  0
 10 12  1  0
 13 14  1  0
 14 15  1  0
 15 16  2  0
 15 17  1  0
 17 18  2  0
 17 19  1  0
 19 20  1  0
 20 21  2  0
M  END
