
     RDKit          3D

 19 21  0  0  0  0  0  0  0  0999 V2000
   -4.6920   -0.6010   -0.0060 N   0  0  0  0  0  0  0  0  0  0  0  0
   -4.0240    0.3050   -0.4760 C   0  0  0  0  0  0  0  0  0  0  0  0
   -4.6280    1.4260   -1.0950 O   0  0  0  0  0  0  0  0  0  0  0  0
   -3.9750    2.1600   -2.0580 C   0  0  0  0  0  0  0  0  0  0  0  0
   -2.5620    2.5320   -1.6760 C   0  0  0  0  0  0  0  0  0  0  0  0
   -1.8860    1.3840   -1.0000 C   0  0  0  0  0  0  0  0  0  0  0  0
   -0.5560    1.4360   -0.9740 N   0  0  0  0  0  0  0  0  0  0  0  0
    0.2400    0.4730   -0.4140 C   0  0  0  0  0  0  0  0  0  0  0  0
    1.5320    0.4860   -0.3680 O   0  0  0  0  0  0  0  0  0  0  0  0
    2.8140    0.5090   -0.3280 C   0  0  1  0  0  0  0  0  0  0  0  0
    3.4930    0.5200    1.0430 C   0  0  0  0  0  0  0  0  0  0  0  0
    4.9460    0.2660    0.7220 C   0  0  0  0  0  0  0  0  0  0  0  0
    5.0090   -0.1940   -0.7050 C   0  0  0  0  0  0  0  0  0  0  0  0
    3.5850   -0.6440   -0.9650 C   0  0  0  0  0  0  0  0  0  0  0  0
   -0.4780   -0.5970    0.1430 C   0  0  0  0  0  0  0  0  0  0  0  0
   -1.8310   -0.7040    0.1460 C   0  0  0  0  0  0  0  0  0  0  0  0
   -2.5660   -1.8470    0.7410 C   0  0  0  0  0  0  0  0  0  0  0  0
   -1.5940   -2.8180    1.3070 N   0  0  0  0  0  0  0  0  0  0  0  0
   -2.5520    0.3190   -0.4430 C   0  0  0  0  0  0  0  0  0  0  0  0
  1  2  2  0
  2  3  1  0
  2 19  1  0
  3  4  1  0
  4  5  1  0
  5  6  1  0
  6  7  2  0
  6 19  1  0
  7  8  1  0
  8  9  1  0
  8 15  2  0
 10  9  1  1
 10 11  1  0
 10 14  1  0
 11 12  1  0
 12 13  1  0
 13 14  1  0
 15 16  1  0
 16 17  1  0
 16 19  2  0
 17 18  1  0
M  CHG  1  18   1
M  END
