
     RDKit          3D

 19 21  0  0  0  0  0  0  0  0999 V2000
   -4.7690   -1.5310   -0.2540 C   0  0  0  0  0  0  0  0  0  0  0  0
   -3.8270   -0.4330   -0.3180 N   0  0  0  0  0  0  0  0  0  0  0  0
   -2.4210   -0.6260   -0.2410 C   0  0  0  0  0  0  0  0  0  0  0  0
   -1.9020   -1.9020   -0.0960 C   0  0  0  0  0  0  0  0  0  0  0  0
   -0.5210   -2.0410   -0.0250 C   0  0  0  0  0  0  0  0  0  0  0  0
    0.2920   -0.9290   -0.0980 C   0  0  0  0  0  0  0  0  0  0  0  0
    1.6690   -1.1180   -0.0220 C   0  0  0  0  0  0  0  0  0  0  0  0
    2.4970   -0.0180   -0.0940 C   0  0  0  0  0  0  0  0  0  0  0  0
    1.9450    1.2560   -0.2400 C   0  0  0  0  0  0  0  0  0  0  0  0
    0.5840    1.4640   -0.3180 C   0  0  0  0  0  0  0  0  0  0  0  0
    0.0450    2.7690   -0.4660 N   0  0  0  0  0  0  0  0  0  0  0  0
   -0.4110    3.3380    0.7700 C   0  0  0  0  0  0  0  0  0  0  0  0
   -0.2230    0.3480   -0.2430 C   0  0  0  0  0  0  0  0  0  0  0  0
   -1.5870    0.4690   -0.3120 C   0  0  0  0  0  0  0  0  0  0  0  0
    3.9060   -0.4470    0.0060 C   0  0  2  0  0  0  0  0  0  0  0  0
    4.5930   -0.1020   -1.1700 O   0  0  0  0  0  0  0  0  0  0  0  0
    3.8260   -1.9190    0.1450 C   0  0  0  0  0  0  0  0  0  0  0  0
    4.8190   -2.7180    0.2640 O   0  0  0  0  0  0  0  0  0  0  0  0
    2.4570   -2.2920    0.1240 N   0  0  0  0  0  0  0  0  0  0  0  0
  1  2  1  0
  2  3  1  0
  3  4  2  0
  3 14  1  0
  4  5  1  0
  5  6  2  0
  6  7  1  0
  6 13  1  0
  7  8  2  0
  7 19  1  0
  8  9  1  0
  8 15  1  0
  9 10  2  0
 10 11  1  0
 10 13  1  0
 11 12  1  0
 13 14  2  0
 15 16  1  6
 15 17  1  0
 17 18  2  0
 17 19  1  0
M  CHG  1  11   1
M  END
