
     RDKit          3D

 19 20  0  0  0  0  0  0  0  0999 V2000
    0.4650    2.5440   -1.8960 C   0  0  0  0  0  0  0  0  0  0  0  0
   -0.7020    2.0420   -1.1700 C   0  0  0  0  0  0  0  0  0  0  0  0
   -1.9420    2.7250   -1.5930 N   0  0  0  0  0  0  0  0  0  0  0  0
   -0.8820    1.1520   -0.2840 C   0  0  0  0  0  0  0  0  0  0  0  0
    0.2020    0.3040    0.2770 C   0  0  0  0  0  0  0  0  0  0  0  0
    1.1440   -0.3110   -0.6210 C   0  0  0  0  0  0  0  0  0  0  0  0
    0.9650   -0.1500   -1.8830 O   0  0  0  0  0  0  0  0  0  0  0  0
    2.2570   -1.0780   -0.2650 N   0  0  0  0  0  0  0  0  0  0  0  0
    2.8200   -1.4520    0.9850 C   0  0  0  0  0  0  0  0  0  0  0  0
    4.1730   -2.1170    0.6870 C   0  0  0  0  0  0  0  0  0  0  0  0
    3.8780   -2.7570   -0.6620 C   0  0  0  0  0  0  0  0  0  0  0  0
    3.0850   -1.6840   -1.3620 C   0  0  0  0  0  0  0  0  0  0  0  0
    0.2050    0.1170    1.5820 C   0  0  0  0  0  0  0  0  0  0  0  0
   -0.8630    0.7540    2.4490 C   0  0  0  0  0  0  0  0  0  0  0  0
   -1.8760    1.5290    1.7140 C   0  0  0  0  0  0  0  0  0  0  0  0
   -2.1540    0.9620    0.3910 N   0  0  2  0  0  0  0  0  0  0  0  0
   -2.5610   -0.3870    0.4070 C   0  0  0  0  0  0  0  0  0  0  0  0
   -3.9880   -0.5520    0.8710 C   0  0  0  0  0  0  0  0  0  0  0  0
   -4.3930   -1.8860    0.8760 O   0  0  0  0  0  0  0  0  0  0  0  0
  1  2  1  0
  2  3  1  0
  2  4  2  3
  4  5  1  0
  4 16  1  0
  5  6  1  0
  5 13  2  0
  6  7  2  0
  6  8  1  0
  8  9  1  0
  8 12  1  0
  9 10  1  0
 10 11  1  0
 11 12  1  0
 13 14  1  0
 14 15  1  0
 15 16  1  0
 16 17  1  1
 17 18  1  0
 18 19  1  0
M  CHG  1  16   1
M  END
