
     RDKit          3D

 18 19  0  0  0  0  0  0  0  0999 V2000
    4.8010   -0.5200   -1.8280 O   0  0  0  0  0  0  0  0  0  0  0  0
    4.6090   -0.5560   -0.6070 C   0  0  0  0  0  0  0  0  0  0  0  0
    5.6740   -0.5610    0.2630 O   0  0  0  0  0  0  0  0  0  0  0  0
    3.2060   -0.5910   -0.1210 C   0  0  0  0  0  0  0  0  0  0  0  0
    3.0320   -0.6260    1.1160 O   0  0  0  0  0  0  0  0  0  0  0  0
    2.1680   -0.5850   -1.0310 N   0  0  0  0  0  0  0  0  0  0  0  0
    0.7860   -0.5570   -0.6990 C   0  0  0  0  0  0  0  0  0  0  0  0
   -0.3870   -1.4110   -1.7410 S   0  0  0  0  0  0  0  0  0  0  0  0
   -1.8250   -0.9730   -0.8650 C   0  0  0  0  0  0  0  0  0  0  0  0
   -1.3550   -0.2060    0.1610 C   0  0  0  0  0  0  0  0  0  0  0  0
   -0.0180    0.0210    0.2540 C   0  0  0  0  0  0  0  0  0  0  0  0
    0.5330    1.0810    1.1740 C   0  0  0  0  0  0  0  0  0  0  0  0
    1.6810    1.5110    1.0730 O   0  0  0  0  0  0  0  0  0  0  0  0
   -0.2320    1.6240    2.1860 O   0  0  0  0  0  0  0  0  0  0  0  0
   -2.4650    0.2640    1.0760 C   0  0  0  0  0  0  0  0  0  0  0  0
   -3.2200    1.3100    0.2750 C   0  0  0  0  0  0  0  0  0  0  0  0
   -4.1420    0.3260   -0.9780 S   0  0  0  0  0  0  0  0  0  0  0  0
   -3.2780   -1.2690   -1.0590 C   0  0  0  0  0  0  0  0  0  0  0  0
  1  2  2  0
  2  3  1  0
  2  4  1  0
  4  5  2  0
  4  6  1  0
  6  7  1  0
  7  8  1  0
  7 11  2  0
  8  9  1  0
  9 10  2  0
  9 18  1  0
 10 11  1  0
 10 15  1  0
 11 12  1  0
 12 13  2  0
 12 14  1  0
 15 16  1  0
 16 17  1  0
 17 18  1  0
M  END
