
     RDKit          3D

 18 20  0  0  0  0  0  0  0  0999 V2000
   -3.1660   -0.2370   -1.3320 C   0  0  0  0  0  0  0  0  0  0  0  0
   -2.7490   -0.2820    0.1500 C   0  0  2  0  0  0  0  0  0  0  0  0
   -3.2180    0.9280    0.8760 C   0  0  0  0  0  0  0  0  0  0  0  0
   -1.9710    1.5810    0.2660 C   0  0  0  0  0  0  0  0  0  0  0  0
   -1.5970    2.7250   -0.1260 N   0  0  0  0  0  0  0  0  0  0  0  0
   -1.3570    0.2500    0.3380 C   0  0  0  0  0  0  0  0  0  0  0  0
   -0.3090   -0.4960    0.5130 C   0  0  0  0  0  0  0  0  0  0  0  0
    1.0720    0.0440    0.6760 C   0  0  0  0  0  0  0  0  0  0  0  0
    1.9550   -0.4940   -0.4320 C   0  0  0  0  0  0  0  0  0  0  0  0
    3.3260    0.0340   -0.2810 C   0  0  0  0  0  0  0  0  0  0  0  0
    4.3690   -0.5330    0.4370 C   0  0  0  0  0  0  0  0  0  0  0  0
    5.4350    0.3150    0.2820 C   0  0  0  0  0  0  0  0  0  0  0  0
    5.0690    1.3210   -0.4730 O   0  0  0  0  0  0  0  0  0  0  0  0
    3.8150    1.1960   -0.8330 C   0  0  0  0  0  0  0  0  0  0  0  0
   -0.5200   -1.9030    0.7520 N   0  0  0  0  0  0  0  0  0  0  0  0
   -1.8230   -2.4590    0.8190 C   0  0  0  0  0  0  0  0  0  0  0  0
   -1.9880   -3.7090    1.0220 O   0  0  0  0  0  0  0  0  0  0  0  0
   -2.9320   -1.5890    0.6540 N   0  0  0  0  0  0  0  0  0  0  0  0
  2  1  1  6
  2  3  1  0
  2  6  1  0
  2 18  1  0
  3  4  1  0
  4  5  2  0
  4  6  1  0
  6  7  2  0
  7  8  1  0
  7 15  1  0
  8  9  1  0
  9 10  1  0
 10 11  1  0
 10 14  2  0
 11 12  2  0
 12 13  1  0
 13 14  1  0
 15 16  1  0
 16 17  2  0
 16 18  1  0
M  CHG  1   5   1
M  END
