
     RDKit          3D

 19 21  0  0  0  0  0  0  0  0999 V2000
   -3.0700   -1.6560    0.9330 C   0  0  0  0  0  0  0  0  0  0  0  0
   -2.1660   -0.6270    0.3090 C   0  0  2  0  0  0  0  0  0  0  0  0
   -0.7720   -0.9470    0.5900 C   0  0  0  0  0  0  0  0  0  0  0  0
   -0.5160   -1.9640    1.2670 O   0  0  0  0  0  0  0  0  0  0  0  0
    0.2800   -0.1510    0.1260 N   0  0  0  0  0  0  0  0  0  0  0  0
    1.6560   -0.3030    0.2980 C   0  0  0  0  0  0  0  0  0  0  0  0
    2.2210   -1.3250    0.9940 C   0  0  0  0  0  0  0  0  0  0  0  0
    3.6100   -1.4520    1.1490 C   0  0  0  0  0  0  0  0  0  0  0  0
    4.4340   -0.5260    0.5880 C   0  0  0  0  0  0  0  0  0  0  0  0
    3.8910    0.5210   -0.1230 C   0  0  0  0  0  0  0  0  0  0  0  0
    4.4670    1.5710   -0.7780 C   0  0  0  0  0  0  0  0  0  0  0  0
    3.4530    2.3260   -1.3230 C   0  0  0  0  0  0  0  0  0  0  0  0
    2.3120    1.7340   -0.9970 N   0  0  0  0  0  0  0  0  0  0  0  0
    2.5190    0.6220   -0.2610 C   0  0  0  0  0  0  0  0  0  0  0  0
   -2.5860    0.7600    0.6760 C   0  0  0  0  0  0  0  0  0  0  0  0
   -3.5970    1.1710   -0.2800 N   0  0  0  0  0  0  0  0  0  0  0  0
   -3.7470    0.1110   -1.2100 C   0  0  0  0  0  0  0  0  0  0  0  0
   -4.7270   -0.1260   -1.8810 O   0  0  0  0  0  0  0  0  0  0  0  0
   -2.4700   -0.6430   -1.1960 C   0  0  0  0  0  0  0  0  0  0  0  0
  2  1  1  1
  2  3  1  0
  2 15  1  0
  2 19  1  0
  3  4  2  0
  3  5  1  0
  5  6  1  0
  6  7  2  0
  6 14  1  0
  7  8  1  0
  8  9  2  0
  9 10  1  0
 10 11  1  0
 10 14  2  0
 11 12  2  0
 12 13  1  0
 13 14  1  0
 15 16  1  0
 16 17  1  0
 17 18  2  0
 17 19  1  0
M  CHG  1  16   1
M  END
