
     RDKit          3D

 19 21  0  0  0  0  0  0  0  0999 V2000
    5.0920    1.0830    1.1070 N   0  0  0  0  0  0  0  0  0  0  0  0
    4.4250    0.7460   -0.0930 C   0  0  0  0  0  0  0  0  0  0  0  0
    4.9240    0.6890   -1.1870 O   0  0  0  0  0  0  0  0  0  0  0  0
    3.0000    0.4120    0.0500 C   0  0  0  0  0  0  0  0  0  0  0  0
    2.2060    0.8650    1.0870 C   0  0  0  0  0  0  0  0  0  0  0  0
    0.8710    0.4300    1.2070 C   0  0  0  0  0  0  0  0  0  0  0  0
    0.3360   -0.4350    0.3010 C   0  0  0  0  0  0  0  0  0  0  0  0
   -1.0150   -1.0760    0.4280 C   0  0  0  0  0  0  0  0  0  0  0  0
   -2.0880   -0.2740    0.1390 N   0  0  1  0  0  0  0  0  0  0  0  0
   -3.3700   -0.8390    0.5010 C   0  0  0  0  0  0  0  0  0  0  0  0
   -4.3100    0.2730    0.9590 C   0  0  0  0  0  0  0  0  0  0  0  0
   -4.3330    1.3470    0.0920 O   0  0  0  0  0  0  0  0  0  0  0  0
   -3.1200    1.7830   -0.3730 C   0  0  0  0  0  0  0  0  0  0  0  0
   -1.9690    1.1200    0.4420 C   0  0  0  0  0  0  0  0  0  0  0  0
    1.1450   -0.8980   -0.7460 C   0  0  0  0  0  0  0  0  0  0  0  0
    0.8450   -1.7410   -1.7780 C   0  0  0  0  0  0  0  0  0  0  0  0
    2.0290   -1.8360   -2.5430 C   0  0  0  0  0  0  0  0  0  0  0  0
    2.9750   -1.0430   -1.9400 N   0  0  0  0  0  0  0  0  0  0  0  0
    2.4340   -0.5000   -0.8790 C   0  0  0  0  0  0  0  0  0  0  0  0
  1  2  1  0
  2  3  2  0
  2  4  1  0
  4  5  2  0
  4 19  1  0
  5  6  1  0
  6  7  2  0
  7  8  1  0
  7 15  1  0
  9  8  1  1
  9 10  1  0
  9 14  1  0
 10 11  1  0
 11 12  1  0
 12 13  1  0
 13 14  1  0
 15 16  1  0
 15 19  2  0
 16 17  2  0
 17 18  1  0
 18 19  1  0
M  CHG  1   9   1
M  END
