
     RDKit          3D

 24 25  0  0  0  0  0  0  0  0999 V2000
    5.5130    1.1930   -1.6500 C   0  0  0  0  0  0  0  0  0  0  0  0
    4.7110    0.8830   -0.4400 C   0  0  2  0  0  0  0  0  0  0  0  0
    5.5620    0.8240    0.8220 C   0  0  0  0  0  0  0  0  0  0  0  0
    6.3660    1.9530    0.9570 O   0  0  0  0  0  0  0  0  0  0  0  0
    3.9480   -0.2700   -0.4950 O   0  0  0  0  0  0  0  0  0  0  0  0
    2.5410   -0.2830   -0.3590 C   0  0  0  0  0  0  0  0  0  0  0  0
    2.0660    0.8390   -0.1860 O   0  0  0  0  0  0  0  0  0  0  0  0
    1.8110   -1.5370   -0.4290 C   0  0  0  0  0  0  0  0  0  0  0  0
    2.3500   -2.7190   -0.6150 C   0  0  0  0  0  0  0  0  0  0  0  0
    1.3720   -3.7340   -0.6340 N   0  0  0  0  0  0  0  0  0  0  0  0
    0.0930   -3.0820   -0.4360 C   0  0  0  0  0  0  0  0  0  0  0  0
   -0.9580   -3.7450   -0.4080 O   0  0  0  0  0  0  0  0  0  0  0  0
    0.3410   -1.6550   -0.2990 C   0  0  0  0  0  0  0  0  0  0  0  0
   -0.5070   -0.7000   -0.1080 C   0  0  0  0  0  0  0  0  0  0  0  0
   -1.9580   -0.8570    0.0160 C   0  0  0  0  0  0  0  0  0  0  0  0
   -2.5180   -1.9490   -0.0520 O   0  0  0  0  0  0  0  0  0  0  0  0
   -2.7790    0.2840    0.2250 N   0  0  0  0  0  0  0  0  0  0  0  0
   -4.1720    0.3400    0.3680 C   0  0  0  0  0  0  0  0  0  0  0  0
   -4.9800   -0.6730    0.3320 C   0  0  0  0  0  0  0  0  0  0  0  0
   -6.4410   -0.5450    0.4900 C   0  0  0  0  0  0  0  0  0  0  0  0
   -6.8710    0.7490    0.6780 O   0  0  0  0  0  0  0  0  0  0  0  0
   -6.0700    1.8660    0.7260 C   0  0  0  0  0  0  0  0  0  0  0  0
   -4.7740    1.6790    0.5780 C   0  0  0  0  0  0  0  0  0  0  0  0
   -3.9120    2.8240    0.6230 N   0  0  0  0  0  0  0  0  0  0  0  0
  2  1  1  6
  2  3  1  0
  2  5  1  0
  3  4  1  0
  5  6  1  0
  6  7  2  0
  6  8  1  0
  8  9  2  0
  8 13  1  0
  9 10  1  0
 10 11  1  0
 11 12  2  0
 11 13  1  0
 13 14  2  3
 14 15  1  0
 15 16  2  0
 15 17  1  0
 17 18  1  0
 18 19  2  0
 18 23  1  0
 19 20  1  0
 20 21  1  0
 21 22  1  0
 22 23  2  0
 23 24  1  0
M  END
