
     RDKit          3D

 25 26  0  0  0  0  0  0  0  0999 V2000
   -3.3690    3.6070    0.0250 C   0  0  0  0  0  0  0  0  0  0  0  0
   -2.9230    2.3580   -0.7090 C   0  0  2  0  0  0  0  0  0  0  0  0
   -4.1660    1.6490   -1.1950 C   0  0  0  0  0  0  0  0  0  0  0  0
   -2.1960    1.5680    0.2190 O   0  0  0  0  0  0  0  0  0  0  0  0
   -0.8710    1.2170    0.0260 C   0  0  0  0  0  0  0  0  0  0  0  0
   -0.3260    1.6400   -1.0330 O   0  0  0  0  0  0  0  0  0  0  0  0
   -0.1160    0.3860    1.0050 C   0  0  1  0  0  0  0  0  0  0  0  0
   -0.7730   -0.9590    1.2300 C   0  0  0  0  0  0  0  0  0  0  0  0
   -0.8650   -1.7590   -0.0520 C   0  0  1  0  0  0  0  0  0  0  0  0
   -1.5240   -3.0640    0.2680 C   0  0  0  0  0  0  0  0  0  0  0  0
   -2.9330   -2.8390   -0.2960 C   0  0  0  0  0  0  0  0  0  0  0  0
   -2.5860   -1.9260   -1.4710 C   0  0  0  0  0  0  0  0  0  0  0  0
   -1.6070   -1.1010   -0.9900 O   0  0  0  0  0  0  0  0  0  0  0  0
    1.2130    0.1680    0.5820 O   0  0  0  0  0  0  0  0  0  0  0  0
    2.3210    0.5240    1.3240 C   0  0  0  0  0  0  0  0  0  0  0  0
    2.1380    1.0710    2.4340 O   0  0  0  0  0  0  0  0  0  0  0  0
    3.6920    0.3060    0.9000 C   0  0  0  0  0  0  0  0  0  0  0  0
    4.7400    0.6700    1.6570 N   0  0  0  0  0  0  0  0  0  0  0  0
    6.0130    0.4650    1.2610 C   0  0  0  0  0  0  0  0  0  0  0  0
    6.9930    0.8100    1.9770 O   0  0  0  0  0  0  0  0  0  0  0  0
    6.2880   -0.1330    0.0470 C   0  0  0  0  0  0  0  0  0  0  0  0
    7.4760   -0.3310   -0.3380 O   0  0  0  0  0  0  0  0  0  0  0  0
    5.2350   -0.4960   -0.7080 N   0  0  0  0  0  0  0  0  0  0  0  0
    3.9680   -0.2950   -0.3170 C   0  0  0  0  0  0  0  0  0  0  0  0
    2.8490   -0.6730   -1.1050 N   0  0  0  0  0  0  0  0  0  0  0  0
  2  1  1  1
  2  3  1  0
  2  4  1  0
  4  5  1  0
  5  6  2  0
  5  7  1  0
  7  8  1  6
  7 14  1  0
  9  8  1  1
  9 10  1  0
  9 13  1  0
 10 11  1  0
 11 12  1  0
 12 13  1  0
 14 15  1  0
 15 16  2  0
 15 17  1  0
 17 18  1  0
 17 24  2  0
 18 19  1  0
 19 20  2  0
 19 21  1  0
 21 22  2  0
 21 23  1  0
 23 24  1  0
 24 25  1  0
M  END
