
     RDKit          3D

 25 26  0  0  0  0  0  0  0  0999 V2000
   -0.7300   -1.8430    2.3210 C   0  0  0  0  0  0  0  0  0  0  0  0
   -1.2530   -1.6080    0.9110 C   0  0  1  0  0  0  0  0  0  0  0  0
   -2.6200   -1.7290    0.9580 O   0  0  0  0  0  0  0  0  0  0  0  0
   -3.2090   -0.5290    0.4410 C   0  0  0  0  0  0  0  0  0  0  0  0
   -4.5130   -0.4130    0.3570 C   0  0  0  0  0  0  0  0  0  0  0  0
   -5.3760    0.6560   -0.1200 C   0  0  2  0  0  0  0  0  0  0  0  0
   -6.6530    0.5980    0.4990 O   0  0  0  0  0  0  0  0  0  0  0  0
   -5.6580    0.3170   -1.5930 C   0  0  0  0  0  0  0  0  0  0  0  0
   -6.2230   -0.9580   -1.6170 O   0  0  0  0  0  0  0  0  0  0  0  0
   -2.0950    0.3270    0.1040 C   0  0  0  0  0  0  0  0  0  0  0  0
   -2.1800    1.6940   -0.4870 C   0  0  0  0  0  0  0  0  0  0  0  0
   -2.8310    2.5950    0.3670 O   0  0  0  0  0  0  0  0  0  0  0  0
   -0.9070   -0.2860    0.3700 C   0  0  0  0  0  0  0  0  0  0  0  0
    0.3580    0.3210    0.1430 C   0  0  0  0  0  0  0  0  0  0  0  0
    0.7250    1.3620   -0.2560 O   0  0  0  0  0  0  0  0  0  0  0  0
    1.6560   -0.7460    0.5550 N   0  0  0  0  0  0  0  0  0  0  0  0
    2.7110    0.1230    0.2610 C   0  0  0  0  0  0  0  0  0  0  0  0
    2.8170    1.2550   -0.0770 O   0  0  0  0  0  0  0  0  0  0  0  0
    3.9970   -0.6120    0.4360 N   0  0  0  0  0  0  0  0  0  0  0  0
    5.2800   -0.1670    0.3450 C   0  0  1  0  0  0  0  0  0  0  0  0
    6.1630   -0.9130   -0.6230 C   0  0  0  0  0  0  0  0  0  0  0  0
    6.3760    0.0490   -1.7540 C   0  0  0  0  0  0  0  0  0  0  0  0
    6.0220    1.3640   -1.2990 N   0  0  0  0  0  0  0  0  0  0  0  0
    5.4070    1.2820   -0.0440 C   0  0  0  0  0  0  0  0  0  0  0  0
    4.9900    2.2080    0.7240 O   0  0  0  0  0  0  0  0  0  0  0  0
  2  1  1  1
  2  3  1  0
  2 13  1  0
  3  4  1  0
  4  5  2  3
  4 10  1  0
  5  6  1  0
  6  7  1  1
  6  8  1  0
  8  9  1  0
 10 11  1  0
 10 13  2  0
 11 12  1  0
 13 14  1  0
 14 15  2  0
 14 16  1  0
 16 17  1  0
 17 18  2  0
 17 19  1  0
 20 19  1  6
 20 21  1  0
 20 24  1  0
 21 22  1  0
 22 23  1  0
 23 24  1  0
 24 25  2  0
M  END
