
     RDKit          3D

 19 21  0  0  0  0  0  0  0  0999 V2000
    4.6750    0.1480    1.7130 N   0  0  0  0  0  0  0  0  0  0  0  0
    4.4470   -0.2740    0.3570 C   0  0  0  0  0  0  0  0  0  0  0  0
    5.4810   -0.5940   -0.3240 N   0  0  0  0  0  0  0  0  0  0  0  0
    3.0800   -0.3060   -0.1380 C   0  0  0  0  0  0  0  0  0  0  0  0
    2.7760   -0.6930   -1.4090 C   0  0  0  0  0  0  0  0  0  0  0  0
    1.4970   -0.7420   -1.9280 C   0  0  0  0  0  0  0  0  0  0  0  0
    0.4320   -0.3710   -1.1010 C   0  0  0  0  0  0  0  0  0  0  0  0
   -0.8770   -0.3020   -1.2700 N   0  0  0  0  0  0  0  0  0  0  0  0
   -1.4470    0.1210   -0.1420 C   0  0  0  0  0  0  0  0  0  0  0  0
   -2.9000    0.3120    0.0240 C   0  0  0  0  0  0  0  0  0  0  0  0
   -3.7450    0.0500   -1.0240 C   0  0  0  0  0  0  0  0  0  0  0  0
   -5.1280    0.2180   -0.9070 C   0  0  0  0  0  0  0  0  0  0  0  0
   -5.5830    0.6620    0.3180 C   0  0  0  0  0  0  0  0  0  0  0  0
   -4.7820    0.9300    1.3680 N   0  0  0  0  0  0  0  0  0  0  0  0
   -3.4410    0.7500    1.2060 C   0  0  0  0  0  0  0  0  0  0  0  0
   -2.6770    0.9920    2.1650 O   0  0  0  0  0  0  0  0  0  0  0  0
   -0.4840    0.3210    0.7480 N   0  0  0  0  0  0  0  0  0  0  0  0
    0.7030    0.0250    0.1870 C   0  0  0  0  0  0  0  0  0  0  0  0
    2.0140    0.0600    0.6730 C   0  0  0  0  0  0  0  0  0  0  0  0
  1  2  1  0
  2  3  2  0
  2  4  1  0
  4  5  2  0
  4 19  1  0
  5  6  1  0
  6  7  2  0
  7  8  1  0
  7 18  1  0
  8  9  1  0
  9 10  1  0
  9 17  2  0
 10 11  2  0
 10 15  1  0
 11 12  1  0
 12 13  2  0
 13 14  1  0
 14 15  1  0
 15 16  2  0
 17 18  1  0
 18 19  2  0
M  CHG  1   3   1
M  END
