
     RDKit          3D

 25 26  0  0  0  0  0  0  0  0999 V2000
   -6.9830   -0.1270   -1.1510 C   0  0  0  0  0  0  0  0  0  0  0  0
   -6.1020    0.8330   -1.8230 C   0  0  0  0  0  0  0  0  0  0  0  0
   -6.5810    1.6090   -2.6990 O   0  0  0  0  0  0  0  0  0  0  0  0
   -4.6660    0.8950   -1.4810 C   0  0  0  0  0  0  0  0  0  0  0  0
   -4.1850    0.1080   -0.5950 C   0  0  0  0  0  0  0  0  0  0  0  0
   -4.9450   -0.8450    0.1050 O   0  0  0  0  0  0  0  0  0  0  0  0
   -4.7740   -1.0460    1.4890 C   0  0  0  0  0  0  0  0  0  0  0  0
   -3.3490   -0.9590    1.9380 C   0  0  0  0  0  0  0  0  0  0  0  0
   -2.5170   -0.8650    0.7980 O   0  0  0  0  0  0  0  0  0  0  0  0
   -2.7690    0.1070   -0.2010 C   0  0  0  0  0  0  0  0  0  0  0  0
   -1.8570    0.8890   -0.6960 C   0  0  0  0  0  0  0  0  0  0  0  0
   -2.1860    1.8330   -1.6900 O   0  0  0  0  0  0  0  0  0  0  0  0
   -0.4770    0.8400   -0.2670 C   0  0  0  0  0  0  0  0  0  0  0  0
    0.3700    1.6480   -0.8050 O   0  0  0  0  0  0  0  0  0  0  0  0
    0.0240   -0.0210    0.6950 N   0  0  0  0  0  0  0  0  0  0  0  0
    1.4240    0.0720    0.9930 N   0  0  0  0  0  0  0  0  0  0  0  0
    2.4110   -0.1060   -0.0090 C   0  0  0  0  0  0  0  0  0  0  0  0
    2.0450   -0.3500   -1.1850 O   0  0  0  0  0  0  0  0  0  0  0  0
    3.8680   -0.0160    0.2650 C   0  0  2  0  0  0  0  0  0  0  0  0
    4.1250    0.2560    1.6060 O   0  0  0  0  0  0  0  0  0  0  0  0
    4.5660    1.0170   -0.5570 C   0  0  0  0  0  0  0  0  0  0  0  0
    5.9740    0.5510   -0.8250 C   0  0  0  0  0  0  0  0  0  0  0  0
    6.5250   -0.3110    0.2850 C   0  0  0  0  0  0  0  0  0  0  0  0
    5.7320   -1.4820    0.5370 N   0  0  0  0  0  0  0  0  0  0  0  0
    4.4500   -1.3860   -0.0860 C   0  0  0  0  0  0  0  0  0  0  0  0
  1  2  1  0
  2  3  2  0
  2  4  1  0
  4  5  2  3
  5  6  1  0
  5 10  1  0
  6  7  1  0
  7  8  1  0
  8  9  1  0
  9 10  1  0
 10 11  2  3
 11 12  1  0
 11 13  1  0
 13 14  2  0
 13 15  1  0
 15 16  1  0
 16 17  1  0
 17 18  2  0
 17 19  1  0
 19 20  1  1
 19 21  1  0
 19 25  1  0
 21 22  1  0
 22 23  1  0
 23 24  1  0
 24 25  1  0
M  END
