
     RDKit          3D

 25 26  0  0  0  0  0  0  0  0999 V2000
   -4.6170    1.3330   -1.9230 C   0  0  0  0  0  0  0  0  0  0  0  0
   -3.4460    0.4540   -1.6770 C   0  0  0  0  0  0  0  0  0  0  0  0
   -3.2570   -0.0270   -0.4690 C   0  0  0  0  0  0  0  0  0  0  0  0
   -4.1840    0.3330    0.5090 O   0  0  0  0  0  0  0  0  0  0  0  0
   -4.0860    0.2220    1.9070 C   0  0  0  0  0  0  0  0  0  0  0  0
   -2.7570    0.3970    2.4410 N   0  0  0  0  0  0  0  0  0  0  0  0
   -1.5410   -0.2870    2.0490 C   0  0  0  0  0  0  0  0  0  0  0  0
   -0.5780   -0.2620    2.8390 O   0  0  0  0  0  0  0  0  0  0  0  0
   -1.3290   -1.0150    0.7990 C   0  0  0  0  0  0  0  0  0  0  0  0
   -2.0730   -0.9010   -0.2870 C   0  0  0  0  0  0  0  0  0  0  0  0
   -1.8290   -1.6550   -1.4650 N   0  0  0  0  0  0  0  0  0  0  0  0
   -0.7050   -2.5530   -1.3850 C   0  0  0  0  0  0  0  0  0  0  0  0
   -0.0580   -2.8250   -2.4170 O   0  0  0  0  0  0  0  0  0  0  0  0
   -0.4120   -3.0910   -0.0310 C   0  0  0  0  0  0  0  0  0  0  0  0
   -0.1620   -1.9070    0.8800 C   0  0  1  0  0  0  0  0  0  0  0  0
    1.0800   -1.2220    0.3700 C   0  0  0  0  0  0  0  0  0  0  0  0
    1.7310   -1.6750   -0.6050 O   0  0  0  0  0  0  0  0  0  0  0  0
    1.5650   -0.0630    0.9490 O   0  0  0  0  0  0  0  0  0  0  0  0
    2.7380    0.5990    0.4800 C   0  0  2  0  0  0  0  0  0  0  0  0
    3.7840    0.7410    1.5200 C   0  0  0  0  0  0  0  0  0  0  0  0
    4.8950    1.3720    0.9770 O   0  0  0  0  0  0  0  0  0  0  0  0
    5.4930    0.6990   -0.0600 C   0  0  0  0  0  0  0  0  0  0  0  0
    2.4080    1.9520   -0.0370 C   0  0  0  0  0  0  0  0  0  0  0  0
    3.3520    2.8630   -0.5620 N   0  0  0  0  0  0  0  0  0  0  0  0
    1.2010    2.3080   -0.0020 O   0  0  0  0  0  0  0  0  0  0  0  0
  1  2  1  0
  2  3  2  3
  3  4  1  0
  3 10  1  0
  4  5  1  0
  5  6  1  0
  6  7  1  0
  7  8  2  0
  7  9  1  0
  9 10  2  0
  9 15  1  0
 10 11  1  0
 11 12  1  0
 12 13  2  0
 12 14  1  0
 14 15  1  0
 15 16  1  6
 16 17  2  0
 16 18  1  0
 18 19  1  0
 19 20  1  1
 19 23  1  0
 20 21  1  0
 21 22  1  0
 23 24  1  0
 23 25  2  0
M  END
