
     RDKit          3D

 25 26  0  0  0  0  0  0  0  0999 V2000
    5.4390    0.4170   -0.1620 C   0  0  0  0  0  0  0  0  0  0  0  0
    4.5740   -0.7740   -0.1770 C   0  0  0  0  0  0  0  0  0  0  0  0
    4.9360   -2.0380   -0.2310 C   0  0  0  0  0  0  0  0  0  0  0  0
    3.8030   -2.8800   -0.2260 N   0  0  0  0  0  0  0  0  0  0  0  0
    2.7090   -2.1460   -0.1680 C   0  0  0  0  0  0  0  0  0  0  0  0
    1.4340   -2.7520   -0.1490 N   0  0  0  0  0  0  0  0  0  0  0  0
    3.0840   -0.7620   -0.1320 C   0  0  0  0  0  0  0  0  0  0  0  0
    2.3850    0.3250   -0.0570 C   0  0  0  0  0  0  0  0  0  0  0  0
    0.9620    0.5530   -0.0070 C   0  0  0  0  0  0  0  0  0  0  0  0
    0.4010    1.7470    0.0880 C   0  0  0  0  0  0  0  0  0  0  0  0
    1.1670    2.9510    0.1440 C   0  0  0  0  0  0  0  0  0  0  0  0
    0.5520    4.2710    0.2310 N   0  0  0  0  0  0  0  0  0  0  0  0
    2.4010    3.0190    0.1260 O   0  0  0  0  0  0  0  0  0  0  0  0
   -0.9920    1.8740    0.1420 O   0  0  0  0  0  0  0  0  0  0  0  0
   -1.8570    1.2530    1.0900 C   0  0  0  0  0  0  0  0  0  0  0  0
   -3.0740    1.1220    0.4270 O   0  0  0  0  0  0  0  0  0  0  0  0
   -3.9230    0.1740    0.9310 C   0  0  0  0  0  0  0  0  0  0  0  0
   -4.7930   -0.4300   -0.1860 C   0  0  2  0  0  0  0  0  0  0  0  0
   -5.1860   -1.6980    0.1690 O   0  0  0  0  0  0  0  0  0  0  0  0
   -3.8900   -0.5650   -1.4240 C   0  0  0  0  0  0  0  0  0  0  0  0
   -3.1330   -1.7360   -1.2010 O   0  0  0  0  0  0  0  0  0  0  0  0
   -1.9030   -1.6650   -0.5820 C   0  0  0  0  0  0  0  0  0  0  0  0
   -1.6290   -2.3860    0.4130 O   0  0  0  0  0  0  0  0  0  0  0  0
   -0.8910   -0.7330   -1.0890 C   0  0  0  0  0  0  0  0  0  0  0  0
    0.0980   -0.5590   -0.0700 O   0  0  0  0  0  0  0  0  0  0  0  0
  1  2  1  0
  2  3  2  0
  2  7  1  0
  3  4  1  0
  4  5  2  0
  5  6  1  0
  5  7  1  0
  7  8  2  3
  8  9  1  0
  9 10  2  0
  9 25  1  0
 10 11  1  0
 10 14  1  0
 11 12  1  0
 11 13  2  0
 14 15  1  0
 15 16  1  0
 16 17  1  0
 17 18  1  0
 18 19  1  1
 18 20  1  0
 20 21  1  0
 21 22  1  0
 22 23  2  0
 22 24  1  0
 24 25  1  0
M  END
