
     RDKit          3D

 23 24  0  0  0  0  0  0  0  0999 V2000
   -5.2220    0.2130   -1.0720 C   0  0  0  0  0  0  0  0  0  0  0  0
   -4.4290    0.7380    0.0950 C   0  0  0  0  0  0  0  0  0  0  0  0
   -3.0130    1.0690   -0.2990 C   0  0  0  0  0  0  0  0  0  0  0  0
   -1.9120    0.5140    0.1880 C   0  0  0  0  0  0  0  0  0  0  0  0
   -0.7550    1.0870   -0.4280 C   0  0  0  0  0  0  0  0  0  0  0  0
    0.5390    0.7900   -0.2020 C   0  0  0  0  0  0  0  0  0  0  0  0
    0.8860   -0.2140    0.7590 C   0  0  0  0  0  0  0  0  0  0  0  0
    2.1200   -0.5750    1.0470 C   0  0  0  0  0  0  0  0  0  0  0  0
    3.2300    0.0400    0.3890 C   0  0  0  0  0  0  0  0  0  0  0  0
    4.4470   -0.2310    0.6200 O   0  0  0  0  0  0  0  0  0  0  0  0
    2.3130   -1.5890    2.1030 C   0  0  0  0  0  0  0  0  0  0  0  0
    2.8970   -2.8870    1.7620 C   0  0  2  0  0  0  0  0  0  0  0  0
    4.2630   -2.9810    1.1930 C   0  0  0  0  0  0  0  0  0  0  0  0
    2.0210   -3.6050    0.8880 O   0  0  0  0  0  0  0  0  0  0  0  0
    2.9640   -3.6920    3.0910 C   0  0  0  0  0  0  0  0  0  0  0  0
    1.6060   -3.8760    3.6800 C   0  0  0  0  0  0  0  0  0  0  0  0
   -1.2210    2.0950   -1.3860 C   0  0  0  0  0  0  0  0  0  0  0  0
   -0.5410    2.9490   -2.2490 C   0  0  0  0  0  0  0  0  0  0  0  0
   -1.2470    3.8130   -3.0530 C   0  0  0  0  0  0  0  0  0  0  0  0
   -0.5690    4.7490   -3.9960 C   0  0  0  0  0  0  0  0  0  0  0  0
   -2.6220    3.7960   -2.9690 C   0  0  0  0  0  0  0  0  0  0  0  0
   -3.2860    2.9450   -2.1090 C   0  0  0  0  0  0  0  0  0  0  0  0
   -2.5970    2.0640   -1.2870 C   0  0  0  0  0  0  0  0  0  0  0  0
  1  2  1  0
  2  3  1  0
  3  4  2  0
  3 23  1  0
  4  5  1  0
  5  6  2  3
  5 17  1  0
  6  7  1  0
  7  8  2  3
  8  9  1  0
  8 11  1  0
  9 10  2  0
 11 12  1  0
 12 13  1  6
 12 14  1  0
 12 15  1  0
 15 16  1  0
 17 18  2  0
 17 23  1  0
 18 19  1  0
 19 20  1  0
 19 21  2  0
 21 22  1  0
 22 23  2  0
M  END
