
     RDKit          3D

 23 24  0  0  0  0  0  0  0  0999 V2000
    5.9000   -1.0900   -1.4870 C   0  0  0  0  0  0  0  0  0  0  0  0
    5.6490    0.1520   -1.2540 C   0  0  0  0  0  0  0  0  0  0  0  0
    4.5020    0.7480   -0.5370 C   0  0  0  0  0  0  0  0  0  0  0  0
    4.4770    2.0600   -0.4870 C   0  0  0  0  0  0  0  0  0  0  0  0
    3.4280    2.8180    0.1820 C   0  0  0  0  0  0  0  0  0  0  0  0
    3.4250   -0.0890   -0.0240 C   0  0  0  0  0  0  0  0  0  0  0  0
    3.7070   -1.3380    0.5410 C   0  0  0  0  0  0  0  0  0  0  0  0
    2.7140   -2.2050    0.9280 C   0  0  0  0  0  0  0  0  0  0  0  0
    1.3620   -1.8740    0.7770 C   0  0  0  0  0  0  0  0  0  0  0  0
    0.3450   -2.8690    1.1550 C   0  0  0  0  0  0  0  0  0  0  0  0
    1.0680   -0.6630    0.2340 C   0  0  0  0  0  0  0  0  0  0  0  0
   -0.2890   -0.1910    0.0910 C   0  0  0  0  0  0  0  0  0  0  0  0
   -0.5560    0.3240   -1.0710 O   0  0  0  0  0  0  0  0  0  0  0  0
   -1.3520   -0.2030    1.0190 C   0  0  0  0  0  0  0  0  0  0  0  0
   -1.2890   -0.6290    2.4330 C   0  0  0  0  0  0  0  0  0  0  0  0
   -2.5580    0.2650    0.6450 C   0  0  0  0  0  0  0  0  0  0  0  0
   -3.8150    0.3660    1.4010 C   0  0  0  0  0  0  0  0  0  0  0  0
   -4.8450   -0.0200    0.3320 C   0  0  0  0  0  0  0  0  0  0  0  0
   -4.2510    0.6690   -0.8790 C   0  0  1  0  0  0  0  0  0  0  0  0
   -4.5000   -0.0850   -2.1570 C   0  0  0  0  0  0  0  0  0  0  0  0
   -4.7870    2.0810   -1.0260 C   0  0  0  0  0  0  0  0  0  0  0  0
   -2.8610    0.7770   -0.6170 O   0  0  0  0  0  0  0  0  0  0  0  0
    2.0940    0.2190   -0.1630 C   0  0  0  0  0  0  0  0  0  0  0  0
  1  2  2  0
  2  3  1  0
  3  4  2  3
  3  6  1  0
  4  5  1  0
  6  7  2  0
  6 23  1  0
  7  8  1  0
  8  9  2  0
  9 10  1  0
  9 11  1  0
 11 12  1  0
 11 23  2  0
 12 13  2  0
 12 14  1  0
 14 15  1  0
 14 16  2  3
 16 17  1  0
 16 22  1  0
 17 18  1  0
 18 19  1  0
 19 20  1  6
 19 21  1  0
 19 22  1  0
M  END
