
     RDKit          3D

 17 18  0  0  0  0  0  0  0  0999 V2000
   -3.8860   -0.9740    0.9760 C   0  0  0  0  0  0  0  0  0  0  0  0
   -2.7570   -0.7600    0.0150 C   0  0  2  0  0  0  0  0  0  0  0  0
   -1.4030   -1.0330    0.6320 C   0  0  0  0  0  0  0  0  0  0  0  0
   -0.5570   -0.1550   -0.2940 C   0  0  2  0  0  0  0  0  0  0  0  0
   -0.4510   -0.8060   -1.4970 O   0  0  0  0  0  0  0  0  0  0  0  0
    0.7510    0.1760    0.3130 C   0  0  0  0  0  0  0  0  0  0  0  0
    0.8310    0.7660    1.4010 O   0  0  0  0  0  0  0  0  0  0  0  0
    1.9260   -0.1930   -0.3720 N   0  0  0  0  0  0  0  0  0  0  0  0
    3.2550    0.0660    0.1000 C   0  0  0  0  0  0  0  0  0  0  0  0
    3.5010    0.6920    1.2560 C   0  0  0  0  0  0  0  0  0  0  0  0
    5.3430    0.7160    1.2940 S   0  0  0  0  0  0  0  0  0  0  0  0
    5.3650   -0.1840   -0.3680 C   0  0  0  0  0  0  0  0  0  0  0  0
    6.5480   -0.4560   -0.8740 O   0  0  0  0  0  0  0  0  0  0  0  0
    4.3110   -0.2910   -0.5610 O   0  0  0  0  0  0  0  0  0  0  0  0
   -1.4710    1.0180   -0.4320 C   0  0  1  0  0  0  0  0  0  0  0  0
   -1.1130    1.9170   -1.5020 N   0  0  0  0  0  0  0  0  0  0  0  0
   -2.7210    0.4730   -0.5690 O   0  0  0  0  0  0  0  0  0  0  0  0
  2  1  1  1
  2  3  1  0
  2 17  1  0
  3  4  1  0
  4  5  1  6
  4  6  1  0
  4 15  1  0
  6  7  2  0
  6  8  1  0
  8  9  1  0
  9 10  2  0
  9 14  1  0
 10 11  1  0
 11 12  1  0
 12 13  2  0
 12 14  1  0
 15 16  1  6
 15 17  1  0
M  END
