
     RDKit          3D

 23 24  0  0  0  0  0  0  0  0999 V2000
   -3.7970    2.3750   -1.6880 C   0  0  0  0  0  0  0  0  0  0  0  0
   -4.6950    1.4590   -1.6050 C   0  0  0  0  0  0  0  0  0  0  0  0
   -6.1110    1.9540   -1.9320 C   0  0  0  0  0  0  0  0  0  0  0  0
   -4.5480    0.0760   -1.1730 C   0  0  0  0  0  0  0  0  0  0  0  0
   -5.6380   -0.7550   -1.2520 C   0  0  0  0  0  0  0  0  0  0  0  0
   -5.2760   -2.1010   -0.7770 C   0  0  0  0  0  0  0  0  0  0  0  0
   -3.8770   -1.9590   -0.4040 C   0  0  0  0  0  0  0  0  0  0  0  0
   -3.4500   -0.6650   -0.6370 C   0  0  0  0  0  0  0  0  0  0  0  0
   -2.0640   -0.3160   -0.3340 C   0  0  0  0  0  0  0  0  0  0  0  0
   -1.5720    0.8350    0.1360 C   0  0  0  0  0  0  0  0  0  0  0  0
   -0.2080    1.0960    0.3010 C   0  0  0  0  0  0  0  0  0  0  0  0
    0.7240    0.1340   -0.0260 C   0  0  0  0  0  0  0  0  0  0  0  0
    2.0830    0.3050    0.1040 O   0  0  0  0  0  0  0  0  0  0  0  0
    2.6740    1.4990    0.5910 C   0  0  0  0  0  0  0  0  0  0  0  0
    4.1620    1.3190    0.5920 C   0  0  0  0  0  0  0  0  0  0  0  0
    4.6530    0.1980    1.4430 C   0  0  2  0  0  0  0  0  0  0  0  0
    4.2280    0.4610    2.8840 C   0  0  0  0  0  0  0  0  0  0  0  0
    6.1730    0.2220    1.3940 C   0  0  0  0  0  0  0  0  0  0  0  0
    4.1840   -1.1500    1.0240 C   0  0  0  0  0  0  0  0  0  0  0  0
    0.2450   -1.0590   -0.5080 C   0  0  0  0  0  0  0  0  0  0  0  0
    1.2400   -2.1300   -0.8720 C   0  0  0  0  0  0  0  0  0  0  0  0
    0.5790   -3.2650   -1.3420 O   0  0  0  0  0  0  0  0  0  0  0  0
   -1.0970   -1.3060   -0.6680 C   0  0  0  0  0  0  0  0  0  0  0  0
  1  2  2  0
  2  3  1  0
  2  4  1  0
  4  5  2  0
  4  8  1  0
  5  6  1  0
  6  7  1  0
  7  8  2  0
  8  9  1  0
  9 10  2  0
  9 23  1  0
 10 11  1  0
 11 12  2  0
 12 13  1  0
 12 20  1  0
 13 14  1  0
 14 15  1  0
 15 16  1  0
 16 17  1  1
 16 18  1  0
 16 19  1  0
 20 21  1  0
 20 23  2  0
 21 22  1  0
M  END
