
     RDKit          3D

 23 24  0  0  0  0  0  0  0  0999 V2000
   -5.0920   -1.0750   -1.6190 C   0  0  0  0  0  0  0  0  0  0  0  0
   -4.3320   -0.4450   -0.6150 O   0  0  0  0  0  0  0  0  0  0  0  0
   -2.9190   -0.4920   -0.7130 C   0  0  0  0  0  0  0  0  0  0  0  0
   -2.3970   -0.6000   -2.0710 C   0  0  0  0  0  0  0  0  0  0  0  0
   -2.3110   -0.4400    0.4230 C   0  0  0  0  0  0  0  0  0  0  0  0
   -2.9390   -0.3460    1.8120 C   0  0  0  0  0  0  0  0  0  0  0  0
   -1.9150   -0.9940    2.6800 C   0  0  0  0  0  0  0  0  0  0  0  0
   -0.7610   -1.4430    1.7970 C   0  0  0  0  0  0  0  0  0  0  0  0
   -0.8770   -0.4400    0.6450 C   0  0  0  0  0  0  0  0  0  0  0  0
    0.1200    0.2320    0.1480 C   0  0  0  0  0  0  0  0  0  0  0  0
    1.4690   -0.1170    0.6850 C   0  0  0  0  0  0  0  0  0  0  0  0
    2.1590    0.7690    1.4650 C   0  0  0  0  0  0  0  0  0  0  0  0
    3.4300    0.3910    1.8990 C   0  0  0  0  0  0  0  0  0  0  0  0
    4.0140   -0.8100    1.5870 C   0  0  0  0  0  0  0  0  0  0  0  0
    5.3550   -1.2280    2.0340 C   0  0  0  0  0  0  0  0  0  0  0  0
    3.3030   -1.6940    0.8000 C   0  0  0  0  0  0  0  0  0  0  0  0
    2.0220   -1.3280    0.3540 C   0  0  0  0  0  0  0  0  0  0  0  0
    1.2440   -2.2930   -0.4830 C   0  0  0  0  0  0  0  0  0  0  0  0
   -0.0760    1.2900   -0.8510 C   0  0  2  0  0  0  0  0  0  0  0  0
    0.5630    1.0180   -2.1880 C   0  0  0  0  0  0  0  0  0  0  0  0
    0.5140    2.6050   -0.2950 C   0  0  0  0  0  0  0  0  0  0  0  0
    0.2780    3.7190   -1.3240 C   0  0  0  0  0  0  0  0  0  0  0  0
    0.8330    4.8800   -0.7520 O   0  0  0  0  0  0  0  0  0  0  0  0
  1  2  1  0
  2  3  1  0
  3  4  1  0
  3  5  2  3
  5  6  1  0
  5  9  1  0
  6  7  1  0
  7  8  1  0
  8  9  1  0
  9 10  2  3
 10 11  1  0
 10 19  1  0
 11 12  2  0
 11 17  1  0
 12 13  1  0
 13 14  2  0
 14 15  1  0
 14 16  1  0
 16 17  2  0
 17 18  1  0
 19 20  1  6
 19 21  1  0
 21 22  1  0
 22 23  1  0
M  END
