
     RDKit          3D

 23 24  0  0  0  0  0  0  0  0999 V2000
   -1.8710   -1.6550    1.7420 C   0  0  0  0  0  0  0  0  0  0  0  0
   -2.9880   -1.0110    1.5930 C   0  0  0  0  0  0  0  0  0  0  0  0
   -3.9320   -0.9180    2.7620 C   0  0  0  0  0  0  0  0  0  0  0  0
   -3.3660   -0.3510    0.3680 C   0  0  0  0  0  0  0  0  0  0  0  0
   -4.7500   -0.1580    0.1300 C   0  0  0  0  0  0  0  0  0  0  0  0
   -5.2020    0.4730   -0.9860 C   0  0  0  0  0  0  0  0  0  0  0  0
   -6.6720    0.6580   -1.2000 C   0  0  0  0  0  0  0  0  0  0  0  0
   -4.2690    0.9260   -1.8890 C   0  0  0  0  0  0  0  0  0  0  0  0
   -2.9220    0.7510   -1.6810 C   0  0  0  0  0  0  0  0  0  0  0  0
   -2.4410    0.1010   -0.5330 C   0  0  0  0  0  0  0  0  0  0  0  0
   -1.0800   -0.0570   -0.3470 O   0  0  0  0  0  0  0  0  0  0  0  0
   -0.2070    0.4360   -1.3120 C   0  0  0  0  0  0  0  0  0  0  0  0
    1.2180    0.2440   -1.0600 C   0  0  0  0  0  0  0  0  0  0  0  0
    2.1000    0.8550   -1.9360 C   0  0  0  0  0  0  0  0  0  0  0  0
    3.4670    0.7550   -1.8030 C   0  0  0  0  0  0  0  0  0  0  0  0
    4.0240    0.0150   -0.7510 C   0  0  0  0  0  0  0  0  0  0  0  0
    5.4680   -0.0980   -0.6170 C   0  0  0  0  0  0  0  0  0  0  0  0
    6.1350    0.0090    0.5150 C   0  0  0  0  0  0  0  0  0  0  0  0
    5.4530    0.2640    1.8070 C   0  0  0  0  0  0  0  0  0  0  0  0
    7.6020   -0.1300    0.4960 C   0  0  0  0  0  0  0  0  0  0  0  0
    8.2520   -0.0320    1.5560 O   0  0  0  0  0  0  0  0  0  0  0  0
    3.1410   -0.5850    0.1080 C   0  0  0  0  0  0  0  0  0  0  0  0
    1.7660   -0.4810   -0.0310 C   0  0  0  0  0  0  0  0  0  0  0  0
  1  2  2  0
  2  3  1  0
  2  4  1  0
  4  5  2  0
  4 10  1  0
  5  6  1  0
  6  7  1  0
  6  8  2  0
  8  9  1  0
  9 10  2  0
 10 11  1  0
 11 12  1  0
 12 13  1  0
 13 14  2  0
 13 23  1  0
 14 15  1  0
 15 16  2  0
 16 17  1  0
 16 22  1  0
 17 18  2  3
 18 19  1  0
 18 20  1  0
 20 21  2  0
 22 23  2  0
M  END
