
     RDKit          3D

 23 24  0  0  0  0  0  0  0  0999 V2000
    5.2140    1.8400   -0.6500 C   0  0  0  0  0  0  0  0  0  0  0  0
    4.9050    1.0640    0.5650 C   0  0  0  0  0  0  0  0  0  0  0  0
    5.3770    1.5440    1.8790 C   0  0  0  0  0  0  0  0  0  0  0  0
    4.2090   -0.0500    0.4860 C   0  0  0  0  0  0  0  0  0  0  0  0
    3.7340   -0.5320   -0.8140 C   0  0  0  0  0  0  0  0  0  0  0  0
    2.2550   -0.6020   -0.9440 C   0  0  0  0  0  0  0  0  0  0  0  0
    1.4170   -0.2210   -0.0010 C   0  0  0  0  0  0  0  0  0  0  0  0
    1.9080    0.2780    1.1890 O   0  0  0  0  0  0  0  0  0  0  0  0
   -0.0490   -0.2890   -0.1240 C   0  0  0  0  0  0  0  0  0  0  0  0
   -0.8260    0.0890    0.8750 C   0  0  0  0  0  0  0  0  0  0  0  0
   -2.2620    0.0870    0.9070 C   0  0  0  0  0  0  0  0  0  0  0  0
   -3.0380    0.6140   -0.0870 C   0  0  0  0  0  0  0  0  0  0  0  0
   -4.4320    0.5800   -0.0430 C   0  0  0  0  0  0  0  0  0  0  0  0
   -5.1850    1.1770   -1.1710 C   0  0  0  0  0  0  0  0  0  0  0  0
   -5.0080   -0.0120    1.0540 C   0  0  0  0  0  0  0  0  0  0  0  0
   -4.2950   -0.5580    2.0830 C   0  0  0  0  0  0  0  0  0  0  0  0
   -4.9840   -1.1860    3.2480 C   0  0  0  0  0  0  0  0  0  0  0  0
   -2.9170   -0.5010    1.9950 C   0  0  0  0  0  0  0  0  0  0  0  0
   -0.5770   -0.8130   -1.3720 C   0  0  0  0  0  0  0  0  0  0  0  0
    0.2260   -1.2160   -2.3700 C   0  0  0  0  0  0  0  0  0  0  0  0
   -0.3430   -1.7460   -3.6310 C   0  0  0  0  0  0  0  0  0  0  0  0
    1.6630   -1.1240   -2.1880 C   0  0  0  0  0  0  0  0  0  0  0  0
    2.4620   -1.4870   -3.0870 O   0  0  0  0  0  0  0  0  0  0  0  0
  1  2  1  0
  2  3  1  0
  2  4  2  3
  4  5  1  0
  5  6  1  0
  6  7  2  0
  6 22  1  0
  7  8  1  0
  7  9  1  0
  9 10  2  3
  9 19  1  0
 10 11  1  0
 11 12  2  0
 11 18  1  0
 12 13  1  0
 13 14  1  0
 13 15  2  0
 15 16  1  0
 16 17  1  0
 16 18  2  0
 19 20  2  0
 20 21  1  0
 20 22  1  0
 22 23  2  0
M  END
