
     RDKit          3D

 19 21  0  0  0  0  0  0  0  0999 V2000
    4.5480   -1.2940   -1.7010 N   0  0  0  0  0  0  0  0  0  0  0  0
    4.4910   -0.3030   -0.6520 C   0  0  0  0  0  0  0  0  0  0  0  0
    5.5980    0.1700   -0.2110 N   0  0  0  0  0  0  0  0  0  0  0  0
    3.1820    0.0940   -0.1630 C   0  0  0  0  0  0  0  0  0  0  0  0
    3.0430    1.0330    0.8350 C   0  0  0  0  0  0  0  0  0  0  0  0
    1.7820    1.3820    1.2710 C   0  0  0  0  0  0  0  0  0  0  0  0
    0.6380    0.7980    0.7140 C   0  0  0  0  0  0  0  0  0  0  0  0
   -0.6750    0.9530    0.9470 N   0  0  0  0  0  0  0  0  0  0  0  0
   -1.3550    0.1540    0.1380 C   0  0  0  0  0  0  0  0  0  0  0  0
   -2.8200    0.0510    0.1080 C   0  0  0  0  0  0  0  0  0  0  0  0
   -3.6090    0.8020    0.9420 C   0  0  0  0  0  0  0  0  0  0  0  0
   -4.9930    0.6780    0.8840 C   0  0  0  0  0  0  0  0  0  0  0  0
   -5.6170   -0.1840    0.0060 C   0  0  0  0  0  0  0  0  0  0  0  0
   -4.8040   -0.9290   -0.8230 C   0  0  0  0  0  0  0  0  0  0  0  0
   -3.4100   -0.8200   -0.7820 C   0  0  0  0  0  0  0  0  0  0  0  0
   -2.6040   -1.5590   -1.6040 O   0  0  0  0  0  0  0  0  0  0  0  0
   -0.4640   -0.5100   -0.6100 N   0  0  0  0  0  0  0  0  0  0  0  0
    0.7770   -0.1410   -0.2850 C   0  0  0  0  0  0  0  0  0  0  0  0
    2.0460   -0.4730   -0.7020 C   0  0  0  0  0  0  0  0  0  0  0  0
  1  2  1  0
  2  3  2  0
  2  4  1  0
  4  5  2  0
  4 19  1  0
  5  6  1  0
  6  7  2  0
  7  8  1  0
  7 18  1  0
  8  9  1  0
  9 10  1  0
  9 17  2  0
 10 11  2  0
 10 15  1  0
 11 12  1  0
 12 13  2  0
 13 14  1  0
 14 15  2  0
 15 16  1  0
 17 18  1  0
 18 19  2  0
M  CHG  1   3   1
M  END
