
     RDKit          3D

 27 28  0  0  0  0  0  0  0  0999 V2000
   -3.3030    1.7520    0.2840 C   0  0  0  0  0  0  0  0  0  0  0  0
   -1.9070    1.8600    0.8360 C   0  0  2  0  0  0  0  0  0  0  0  0
   -1.9590    2.5130    2.1890 C   0  0  0  0  0  0  0  0  0  0  0  0
   -2.3950    3.7070    2.3070 O   0  0  0  0  0  0  0  0  0  0  0  0
   -1.5490    1.8720    3.3430 O   0  0  0  0  0  0  0  0  0  0  0  0
   -1.0030    2.7020   -0.0370 C   0  0  0  0  0  0  0  0  0  0  0  0
    0.3210    2.0220   -0.1480 C   0  0  2  0  0  0  0  0  0  0  0  0
    1.1210    2.7770   -1.0060 O   0  0  0  0  0  0  0  0  0  0  0  0
    0.2460    0.5570   -0.5960 C   0  0  1  0  0  0  0  0  0  0  0  0
    1.3770   -0.0330   -0.0490 O   0  0  0  0  0  0  0  0  0  0  0  0
    2.3980   -0.2550   -0.9700 C   0  0  1  0  0  0  0  0  0  0  0  0
    3.4130    0.6600   -0.5670 O   0  0  0  0  0  0  0  0  0  0  0  0
    4.6450    0.0770   -0.4410 C   0  0  0  0  0  0  0  0  0  0  0  0
    4.5670   -0.9220    0.7270 C   0  0  0  0  0  0  0  0  0  0  0  0
    3.6700   -1.9490    0.2150 O   0  0  0  0  0  0  0  0  0  0  0  0
    2.9600   -1.6110   -0.9570 C   0  0  0  0  0  0  0  0  0  0  0  0
    2.8060   -2.3800   -1.9220 O   0  0  0  0  0  0  0  0  0  0  0  0
   -1.0180   -0.0520   -0.1730 C   0  0  1  0  0  0  0  0  0  0  0  0
   -2.0120    0.2210   -1.1410 O   0  0  0  0  0  0  0  0  0  0  0  0
   -1.0710   -1.4880    0.1460 C   0  0  2  0  0  0  0  0  0  0  0  0
   -2.4100   -1.7060    0.6190 O   0  0  0  0  0  0  0  0  0  0  0  0
   -0.2500   -1.8060    1.4270 C   0  0  0  0  0  0  0  0  0  0  0  0
   -0.6450   -0.9250    2.4150 O   0  0  0  0  0  0  0  0  0  0  0  0
   -0.8250   -2.5270   -0.8440 C   0  0  0  0  0  0  0  0  0  0  0  0
   -1.7000   -2.6300   -2.0500 C   0  0  0  0  0  0  0  0  0  0  0  0
   -1.6990   -1.5560   -2.9070 O   0  0  0  0  0  0  0  0  0  0  0  0
   -1.4000    0.6010    1.0430 O   0  0  0  0  0  0  0  0  0  0  0  0
  2  1  1  6
  2  3  1  0
  2  6  1  0
  2 27  1  0
  3  4  2  0
  3  5  1  0
  6  7  1  0
  7  8  1  6
  7  9  1  0
  9 10  1  1
  9 18  1  0
 11 10  1  1
 11 12  1  0
 11 16  1  0
 12 13  1  0
 13 14  1  0
 14 15  1  0
 15 16  1  0
 16 17  2  0
 18 19  1  6
 18 20  1  0
 18 27  1  0
 20 21  1  1
 20 22  1  0
 20 24  1  0
 22 23  1  0
 24 25  1  0
 25 26  1  0
M  END
