
     RDKit          3D

 16 17  0  0  0  0  0  0  0  0999 V2000
   -3.3610    1.2930    0.2020 C   0  0  0  0  0  0  0  0  0  0  0  0
   -2.1760    1.0330   -0.7110 C   0  0  0  0  0  0  0  0  0  0  0  0
   -1.4340   -0.1900   -0.3090 C   0  0  0  0  0  0  0  0  0  0  0  0
   -0.1700   -0.2870    0.0600 C   0  0  0  0  0  0  0  0  0  0  0  0
    0.8510    0.7540    0.1800 C   0  0  0  0  0  0  0  0  0  0  0  0
    0.4480    2.0590    0.4230 O   0  0  0  0  0  0  0  0  0  0  0  0
    2.1180    0.4050    0.0500 C   0  0  0  0  0  0  0  0  0  0  0  0
    3.1710    1.3750    0.1560 C   0  0  0  0  0  0  0  0  0  0  0  0
    4.5380    1.0260    0.0220 N   0  0  0  0  0  0  0  0  0  0  0  0
    2.8860    2.5760    0.3750 O   0  0  0  0  0  0  0  0  0  0  0  0
    2.3980   -1.0050   -0.2020 C   0  0  0  0  0  0  0  0  0  0  0  0
    3.5940   -1.3770   -0.3320 O   0  0  0  0  0  0  0  0  0  0  0  0
    1.3990   -1.9610   -0.3080 O   0  0  0  0  0  0  0  0  0  0  0  0
    0.1690   -1.7220    0.3820 C   0  0  2  0  0  0  0  0  0  0  0  0
   -0.9590   -2.5290   -0.1570 C   0  0  0  0  0  0  0  0  0  0  0  0
   -2.0910   -1.5330   -0.2800 C   0  0  0  0  0  0  0  0  0  0  0  0
  1  2  1  0
  2  3  1  0
  3  4  2  0
  3 16  1  0
  4  5  1  0
  4 14  1  0
  5  6  1  0
  5  7  2  0
  7  8  1  0
  7 11  1  0
  8  9  1  0
  8 10  2  0
 11 12  2  0
 11 13  1  0
 13 14  1  0
 14 15  1  6
 15 16  1  0
M  END
