
     RDKit          3D

 27 28  0  0  0  0  0  0  0  0999 V2000
   -5.7910   -0.7470    1.9430 O   0  0  0  0  0  0  0  0  0  0  0  0
   -5.2040   -0.4110    0.8730 C   0  0  0  0  0  0  0  0  0  0  0  0
   -4.0150   -1.0170    0.5840 O   0  0  0  0  0  0  0  0  0  0  0  0
   -3.4340   -1.9890    1.4320 C   0  0  0  0  0  0  0  0  0  0  0  0
   -2.1120   -2.4880    0.8500 C   0  0  1  0  0  0  0  0  0  0  0  0
   -2.3860   -3.0480   -0.3920 O   0  0  0  0  0  0  0  0  0  0  0  0
   -2.3220   -2.0500   -1.3330 C   0  0  0  0  0  0  0  0  0  0  0  0
   -1.8340   -0.9160   -0.7320 O   0  0  0  0  0  0  0  0  0  0  0  0
   -1.2930   -1.2910    0.4970 C   0  0  1  0  0  0  0  0  0  0  0  0
   -1.4030   -0.2620    1.4200 O   0  0  0  0  0  0  0  0  0  0  0  0
    0.1660   -1.6450    0.2310 C   0  0  0  0  0  0  0  0  0  0  0  0
    0.7620   -0.5080   -0.2810 O   0  0  0  0  0  0  0  0  0  0  0  0
    2.1090   -0.6790   -0.5760 C   0  0  1  0  0  0  0  0  0  0  0  0
    2.2220   -0.4530   -2.0910 C   0  0  0  0  0  0  0  0  0  0  0  0
    1.7790    0.8430   -2.3440 O   0  0  0  0  0  0  0  0  0  0  0  0
    2.9840    0.3500    0.0730 C   0  0  1  0  0  0  0  0  0  0  0  0
    4.4280   -0.0010   -0.1930 C   0  0  0  0  0  0  0  0  0  0  0  0
    5.0690    1.1850   -0.9220 C   0  0  2  0  0  0  0  0  0  0  0  0
    6.4160    0.9620   -1.1410 O   0  0  0  0  0  0  0  0  0  0  0  0
    4.9240    2.3800    0.0200 C   0  0  2  0  0  0  0  0  0  0  0  0
    5.4890    2.0220    1.2430 O   0  0  0  0  0  0  0  0  0  0  0  0
    3.4290    2.5990    0.2890 C   0  0  0  0  0  0  0  0  0  0  0  0
    2.6610    1.6440   -0.3310 O   0  0  0  0  0  0  0  0  0  0  0  0
   -5.8590    0.6080    0.0310 C   0  0  1  0  0  0  0  0  0  0  0  0
   -7.0640    1.0420    0.5700 O   0  0  0  0  0  0  0  0  0  0  0  0
   -4.9690    1.8510   -0.0490 C   0  0  0  0  0  0  0  0  0  0  0  0
   -3.7280    1.5290   -0.5810 O   0  0  0  0  0  0  0  0  0  0  0  0
  1  2  2  0
  2  3  1  0
  2 24  1  0
  3  4  1  0
  5  4  1  6
  5  6  1  0
  5  9  1  0
  6  7  1  0
  7  8  1  0
  8  9  1  0
  9 10  1  1
  9 11  1  0
 11 12  1  0
 12 13  1  0
 13 14  1  6
 13 16  1  0
 14 15  1  0
 16 17  1  6
 16 23  1  0
 17 18  1  0
 18 19  1  1
 18 20  1  0
 20 21  1  1
 20 22  1  0
 22 23  1  0
 24 25  1  1
 24 26  1  0
 26 27  1  0
M  END
