
     RDKit          3D

 27 28  0  0  0  0  0  0  0  0999 V2000
    1.7320    0.0010   -0.2560 O   0  0  0  0  0  0  0  0  0  0  0  0
    1.5550   -0.5300    0.8600 C   0  0  0  0  0  0  0  0  0  0  0  0
    2.4990   -1.3690    1.3220 O   0  0  0  0  0  0  0  0  0  0  0  0
    3.7020   -1.8220    0.8490 C   0  0  0  0  0  0  0  0  0  0  0  0
    4.8070   -0.8960    0.5950 C   0  0  0  0  0  0  0  0  0  0  0  0
    4.7890    0.0970   -0.2920 O   0  0  0  0  0  0  0  0  0  0  0  0
    4.7230   -0.1560   -1.6250 C   0  0  1  0  0  0  0  0  0  0  0  0
    3.7550    0.5890   -2.2440 O   0  0  0  0  0  0  0  0  0  0  0  0
    6.0350    0.2780   -2.3290 C   0  0  2  0  0  0  0  0  0  0  0  0
    6.2710    1.6210   -2.1660 O   0  0  0  0  0  0  0  0  0  0  0  0
    5.9010    0.0270   -3.6940 O   0  0  0  0  0  0  0  0  0  0  0  0
    0.3010   -0.1930    1.5990 C   0  0  1  0  0  0  0  0  0  0  0  0
   -0.5510    0.7710    0.8180 C   0  0  0  0  0  0  0  0  0  0  0  0
   -1.6770   -0.2700    0.7330 C   0  0  2  0  0  0  0  0  0  0  0  0
   -2.7490    0.1790    1.4520 O   0  0  0  0  0  0  0  0  0  0  0  0
   -3.9510    0.2520    0.8180 C   0  0  0  0  0  0  0  0  0  0  0  0
   -4.0510    1.1660   -0.3510 C   0  0  2  0  0  0  0  0  0  0  0  0
   -3.2130    0.8970   -1.4040 O   0  0  0  0  0  0  0  0  0  0  0  0
   -3.9660    2.6290    0.0360 C   0  0  0  0  0  0  0  0  0  0  0  0
   -4.9230    3.2630   -0.9470 C   0  0  0  0  0  0  0  0  0  0  0  0
   -5.5760    2.2530   -1.6090 O   0  0  0  0  0  0  0  0  0  0  0  0
   -5.4990    1.1040   -0.8530 C   0  0  1  0  0  0  0  0  0  0  0  0
   -5.6140   -0.0370   -1.6140 O   0  0  0  0  0  0  0  0  0  0  0  0
   -0.7660   -1.2410    1.4670 C   0  0  1  0  0  0  0  0  0  0  0  0
   -0.3960   -2.3050    0.6640 O   0  0  0  0  0  0  0  0  0  0  0  0
   -1.3360   -1.7270    2.7860 C   0  0  0  0  0  0  0  0  0  0  0  0
   -0.3520   -2.4730    3.4270 O   0  0  0  0  0  0  0  0  0  0  0  0
  1  2  2  0
  2  3  1  0
 12  2  1  6
  3  4  1  0
  4  5  1  0
  5  6  1  0
  6  7  1  0
  7  8  1  6
  7  9  1  0
  9 10  1  6
  9 11  1  0
 12 13  1  0
 12 24  1  0
 13 14  1  0
 14 15  1  1
 14 24  1  0
 15 16  1  0
 16 17  1  0
 17 18  1  6
 17 19  1  0
 17 22  1  0
 19 20  1  0
 20 21  1  0
 21 22  1  0
 22 23  1  6
 24 25  1  6
 24 26  1  0
 26 27  1  0
M  END
