
     RDKit          3D

 27 28  0  0  0  0  0  0  0  0999 V2000
    2.9270    4.2330   -0.6970 C   0  0  0  0  0  0  0  0  0  0  0  0
    2.7240    2.8480   -0.6670 O   0  0  0  0  0  0  0  0  0  0  0  0
    1.5600    2.2270   -0.2620 C   0  0  0  0  0  0  0  0  0  0  0  0
    0.6240    3.0090    0.1040 O   0  0  0  0  0  0  0  0  0  0  0  0
    1.3970    0.7720   -0.2490 C   0  0  2  0  0  0  0  0  0  0  0  0
   -0.0540    0.4770    0.1830 C   0  0  2  0  0  0  0  0  0  0  0  0
   -0.1670    0.7240    1.5490 O   0  0  0  0  0  0  0  0  0  0  0  0
   -0.2910   -0.9460   -0.1810 C   0  0  1  0  0  0  0  0  0  0  0  0
   -1.6920   -1.3840   -0.2910 C   0  0  1  0  0  0  0  0  0  0  0  0
   -1.7860   -2.8810   -0.6250 C   0  0  0  0  0  0  0  0  0  0  0  0
   -3.1100   -3.3080   -0.7290 O   0  0  0  0  0  0  0  0  0  0  0  0
   -2.7210   -0.9470    0.6680 C   0  0  2  0  0  0  0  0  0  0  0  0
   -3.9220   -1.6530    0.2420 O   0  0  0  0  0  0  0  0  0  0  0  0
   -3.1910    0.5030    0.5040 C   0  0  0  0  0  0  0  0  0  0  0  0
   -3.5040    0.7960   -0.8340 O   0  0  0  0  0  0  0  0  0  0  0  0
   -3.9450    2.0760   -1.1350 C   0  0  0  0  0  0  0  0  0  0  0  0
   -4.0500    2.9270   -0.2090 O   0  0  0  0  0  0  0  0  0  0  0  0
   -4.2820    2.4810   -2.4160 O   0  0  0  0  0  0  0  0  0  0  0  0
    0.2220   -1.0270   -1.5290 O   0  0  0  0  0  0  0  0  0  0  0  0
    0.9800   -2.1440   -1.6270 C   0  0  0  0  0  0  0  0  0  0  0  0
    0.8270   -2.9120   -0.4780 O   0  0  0  0  0  0  0  0  0  0  0  0
    0.6510   -1.8970    0.5150 C   0  0  1  0  0  0  0  0  0  0  0  0
    1.9880   -1.4070    0.8720 C   0  0  0  0  0  0  0  0  0  0  0  0
    2.3310    0.0260    0.6410 C   0  0  2  0  0  0  0  0  0  0  0  0
    2.2040    0.6490    1.9230 O   0  0  0  0  0  0  0  0  0  0  0  0
    3.7710    0.2380    0.2650 C   0  0  0  0  0  0  0  0  0  0  0  0
    4.1420   -0.2640   -0.9570 O   0  0  0  0  0  0  0  0  0  0  0  0
  1  2  1  0
  2  3  1  0
  3  4  2  0
  5  3  1  1
  5  6  1  0
  5 24  1  0
  6  7  1  1
  6  8  1  0
  8  9  1  0
  8 19  1  6
  8 22  1  0
  9 10  1  1
  9 12  1  0
 10 11  1  0
 12 13  1  6
 12 14  1  0
 14 15  1  0
 15 16  1  0
 16 17  2  0
 16 18  1  0
 19 20  1  0
 20 21  1  0
 21 22  1  0
 22 23  1  6
 23 24  1  0
 24 25  1  1
 24 26  1  0
 26 27  1  0
M  END
