
     RDKit          3D

 27 28  0  0  0  0  0  0  0  0999 V2000
    1.3820    2.8560   -1.8960 O   0  0  0  0  0  0  0  0  0  0  0  0
    0.9610    2.5150   -0.7610 C   0  0  0  0  0  0  0  0  0  0  0  0
    1.7800    2.8570    0.4240 C   0  0  0  0  0  0  0  0  0  0  0  0
    2.2590    1.6460    0.9540 O   0  0  0  0  0  0  0  0  0  0  0  0
    3.1710    1.0820    0.0740 C   0  0  0  0  0  0  0  0  0  0  0  0
    3.8310   -0.1140    0.6800 C   0  0  1  0  0  0  0  0  0  0  0  0
    3.6540   -0.2060    2.0460 O   0  0  0  0  0  0  0  0  0  0  0  0
    3.2580   -1.3600    0.0270 C   0  0  0  0  0  0  0  0  0  0  0  0
    1.8700   -1.2600    0.1110 O   0  0  0  0  0  0  0  0  0  0  0  0
    1.3310   -2.1490   -0.8200 C   0  0  1  0  0  0  0  0  0  0  0  0
    1.3120   -3.4470   -0.2890 O   0  0  0  0  0  0  0  0  0  0  0  0
   -0.0750   -1.7180   -1.2280 C   0  0  2  0  0  0  0  0  0  0  0  0
   -0.0450   -0.8160   -2.2630 O   0  0  0  0  0  0  0  0  0  0  0  0
   -0.8160   -1.2520   -0.0220 C   0  0  2  0  0  0  0  0  0  0  0  0
   -1.4180   -2.4860    0.6570 C   0  0  0  0  0  0  0  0  0  0  0  0
   -2.3100   -2.1360    1.6520 O   0  0  0  0  0  0  0  0  0  0  0  0
   -3.4390   -1.5010    1.1670 C   0  0  0  0  0  0  0  0  0  0  0  0
   -3.2210   -0.9670   -0.2510 C   0  0  0  0  0  0  0  0  0  0  0  0
   -1.8840   -0.2280   -0.3220 C   0  0  2  0  0  0  0  0  0  0  0  0
   -1.7750    0.3310   -1.5740 O   0  0  0  0  0  0  0  0  0  0  0  0
   -1.9420    0.8360    0.7680 C   0  0  1  0  0  0  0  0  0  0  0  0
   -1.4510    0.3410    1.9730 O   0  0  0  0  0  0  0  0  0  0  0  0
   -1.1910    2.0820    0.3700 C   0  0  2  0  0  0  0  0  0  0  0  0
   -2.1050    3.1770   -0.0330 C   0  0  0  0  0  0  0  0  0  0  0  0
   -3.0570    3.5750    0.6600 O   0  0  0  0  0  0  0  0  0  0  0  0
   -1.8820    3.7910   -1.2560 O   0  0  0  0  0  0  0  0  0  0  0  0
   -0.2180    1.8480   -0.5990 O   0  0  0  0  0  0  0  0  0  0  0  0
  1  2  2  0
  2  3  1  0
  2 27  1  0
  3  4  1  0
  4  5  1  0
  5  6  1  0
  6  7  1  1
  6  8  1  0
  8  9  1  0
  9 10  1  0
 10 11  1  1
 10 12  1  0
 12 13  1  6
 12 14  1  0
 14 15  1  6
 14 19  1  0
 15 16  1  0
 16 17  1  0
 17 18  1  0
 18 19  1  0
 19 20  1  6
 19 21  1  0
 21 22  1  1
 21 23  1  0
 23 24  1  6
 23 27  1  0
 24 25  2  0
 24 26  1  0
M  END
