
     RDKit          3D

 27 28  0  0  0  0  0  0  0  0999 V2000
   -0.6560    0.0140   -2.7530 O   0  0  0  0  0  0  0  0  0  0  0  0
    0.0330   -0.6020   -1.8960 C   0  0  0  0  0  0  0  0  0  0  0  0
   -0.6780   -1.1720   -0.7380 C   0  0  0  0  0  0  0  0  0  0  0  0
   -1.7730   -0.2170   -0.2370 C   0  0  2  0  0  0  0  0  0  0  0  0
   -2.2440   -0.7650    1.0700 C   0  0  0  0  0  0  0  0  0  0  0  0
   -3.4330   -0.0250    1.6340 C   0  0  2  0  0  0  0  0  0  0  0  0
   -4.0990   -0.9020    2.4870 O   0  0  0  0  0  0  0  0  0  0  0  0
   -4.3780    0.3610    0.5160 C   0  0  2  0  0  0  0  0  0  0  0  0
   -5.7080    0.1320    0.8420 O   0  0  0  0  0  0  0  0  0  0  0  0
   -4.0350   -0.5690   -0.6500 C   0  0  1  0  0  0  0  0  0  0  0  0
   -4.9840   -0.2630   -1.6510 O   0  0  0  0  0  0  0  0  0  0  0  0
   -2.8010   -0.3200   -1.1770 O   0  0  0  0  0  0  0  0  0  0  0  0
   -1.2320    1.1620   -0.1410 C   0  0  0  0  0  0  0  0  0  0  0  0
   -1.5120    1.9160   -1.1140 O   0  0  0  0  0  0  0  0  0  0  0  0
   -0.4950    1.6190    0.8870 O   0  0  0  0  0  0  0  0  0  0  0  0
    0.6390    1.1950    1.5330 C   0  0  0  0  0  0  0  0  0  0  0  0
    1.9400    1.6100    0.8980 C   0  0  2  0  0  0  0  0  0  0  0  0
    1.9030    2.9720    0.2880 C   0  0  0  0  0  0  0  0  0  0  0  0
    1.4640    3.8950    1.2390 O   0  0  0  0  0  0  0  0  0  0  0  0
    2.3790    0.7010   -0.0600 O   0  0  0  0  0  0  0  0  0  0  0  0
    3.1620   -0.2980    0.5010 C   0  0  0  0  0  0  0  0  0  0  0  0
    4.1750   -0.8580   -0.4410 C   0  0  2  0  0  0  0  0  0  0  0  0
    5.0730    0.1720   -0.7930 O   0  0  0  0  0  0  0  0  0  0  0  0
    3.6250   -1.4410   -1.6880 C   0  0  1  0  0  0  0  0  0  0  0  0
    4.3420   -2.5930   -2.0210 O   0  0  0  0  0  0  0  0  0  0  0  0
    2.1680   -1.8120   -1.6140 C   0  0  0  0  0  0  0  0  0  0  0  0
    1.3850   -0.7390   -2.0290 O   0  0  0  0  0  0  0  0  0  0  0  0
  1  2  2  0
  2  3  1  0
  2 27  1  0
  4  3  1  6
  4  5  1  0
  4 12  1  0
  4 13  1  0
  5  6  1  0
  6  7  1  1
  6  8  1  0
  8  9  1  1
  8 10  1  0
 10 11  1  6
 10 12  1  0
 13 14  2  0
 13 15  1  0
 15 16  1  0
 16 17  1  0
 17 18  1  6
 17 20  1  0
 18 19  1  0
 20 21  1  0
 21 22  1  0
 22 23  1  6
 22 24  1  0
 24 25  1  1
 24 26  1  0
 26 27  1  0
M  END
