
     RDKit          3D

 25 26  0  0  0  0  0  0  0  0999 V2000
   -3.5390    2.5360    1.1830 C   0  0  0  0  0  0  0  0  0  0  0  0
   -2.3690    1.8850    0.5880 C   0  0  0  0  0  0  0  0  0  0  0  0
   -2.1470    0.6470    0.2840 C   0  0  0  0  0  0  0  0  0  0  0  0
   -3.0510   -0.4750    0.4720 C   0  0  0  0  0  0  0  0  0  0  0  0
   -3.9830   -0.7270    1.3550 C   0  0  0  0  0  0  0  0  0  0  0  0
   -4.3670    0.0660    2.4110 O   0  0  0  0  0  0  0  0  0  0  0  0
   -2.7060   -1.3540   -0.5840 O   0  0  0  0  0  0  0  0  0  0  0  0
   -1.2320   -1.3420   -0.5890 C   0  0  1  0  0  0  0  0  0  0  0  0
   -0.8140   -2.2840    0.4730 C   0  0  0  0  0  0  0  0  0  0  0  0
   -0.8730   -1.9220   -1.9290 C   0  0  0  0  0  0  0  0  0  0  0  0
   -0.9000    0.0980   -0.3970 C   0  0  2  0  0  0  0  0  0  0  0  0
    0.2330    0.4380    0.4920 C   0  0  0  0  0  0  0  0  0  0  0  0
    1.5780    0.0140    0.0060 C   0  0  2  0  0  0  0  0  0  0  0  0
    1.7750   -1.3200   -0.1960 O   0  0  0  0  0  0  0  0  0  0  0  0
    2.6920    0.5470    0.9190 C   0  0  0  0  0  0  0  0  0  0  0  0
    3.9480    0.1060    0.3960 N   0  0  0  0  0  0  0  0  0  0  0  0
    4.5700   -1.0390    0.7160 C   0  0  0  0  0  0  0  0  0  0  0  0
    4.1370   -1.8850    1.5210 O   0  0  0  0  0  0  0  0  0  0  0  0
    5.7040   -1.0420   -0.0050 N   0  0  0  0  0  0  0  0  0  0  0  0
    5.7920    0.0340   -0.7340 O   0  0  0  0  0  0  0  0  0  0  0  0
    4.7230    0.7380   -0.4940 C   0  0  0  0  0  0  0  0  0  0  0  0
    4.4810    1.8450   -1.0320 O   0  0  0  0  0  0  0  0  0  0  0  0
   -0.7590    0.8510   -1.6480 C   0  0  0  0  0  0  0  0  0  0  0  0
   -0.4440    2.2330   -1.6100 N   0  0  0  0  0  0  0  0  0  0  0  0
   -0.8930    0.3770   -2.8070 O   0  0  0  0  0  0  0  0  0  0  0  0
  1  2  1  0
  2  3  2  3
  3  4  1  0
  3 11  1  0
  4  5  2  3
  4  7  1  0
  5  6  1  0
  7  8  1  0
  8  9  1  1
  8 10  1  0
  8 11  1  0
 11 12  1  1
 11 23  1  0
 12 13  1  0
 13 14  1  1
 13 15  1  0
 15 16  1  0
 16 17  1  0
 16 21  1  0
 17 18  2  0
 17 19  1  0
 19 20  1  0
 20 21  1  0
 21 22  2  0
 23 24  1  0
 23 25  2  0
M  END
