
     RDKit          3D

 24 25  0  0  0  0  0  0  0  0999 V2000
    5.3490   -0.3630    0.0250 C   0  0  0  0  0  0  0  0  0  0  0  0
    4.2510    0.5130    0.6300 C   0  0  1  0  0  0  0  0  0  0  0  0
    4.8800    1.8480    0.9470 C   0  0  0  0  0  0  0  0  0  0  0  0
    5.4530    2.3320   -0.2300 O   0  0  0  0  0  0  0  0  0  0  0  0
    3.2270    0.6330   -0.3930 N   0  0  0  0  0  0  0  0  0  0  0  0
    1.9200    0.0940   -0.1650 C   0  0  0  0  0  0  0  0  0  0  0  0
    1.6730   -0.4810    0.9250 O   0  0  0  0  0  0  0  0  0  0  0  0
    0.9200    0.2100   -1.1600 N   0  0  0  0  0  0  0  0  0  0  0  0
   -0.4170   -0.3110   -0.9940 C   0  0  2  0  0  0  0  0  0  0  0  0
   -0.6200   -1.3390   -2.0990 C   0  0  0  0  0  0  0  0  0  0  0  0
   -1.9700   -1.9830   -1.9810 C   0  0  1  0  0  0  0  0  0  0  0  0
   -2.1310   -3.4420   -1.8270 C   0  0  0  0  0  0  0  0  0  0  0  0
   -2.1880   -2.6110   -0.6090 C   0  0  2  0  0  0  0  0  0  0  0  0
   -3.5040   -2.0650   -0.0950 C   0  0  0  0  0  0  0  0  0  0  0  0
   -3.1920   -1.0970    0.8250 O   0  0  0  0  0  0  0  0  0  0  0  0
   -4.2800   -0.3830    1.2910 C   0  0  0  0  0  0  0  0  0  0  0  0
   -3.8920    0.6710    2.1160 O   0  0  0  0  0  0  0  0  0  0  0  0
   -2.6460    1.1450    2.3790 C   0  0  0  0  0  0  0  0  0  0  0  0
   -2.2950    1.4130    3.5540 O   0  0  0  0  0  0  0  0  0  0  0  0
   -1.6290    1.3760    1.3270 C   0  0  2  0  0  0  0  0  0  0  0  0
   -1.0060    2.7310    1.6190 C   0  0  0  0  0  0  0  0  0  0  0  0
   -2.1420    1.2780    0.0020 N   0  0  0  0  0  0  0  0  0  0  0  0
   -1.3880    0.7980   -1.1000 C   0  0  0  0  0  0  0  0  0  0  0  0
   -1.5150    1.3140   -2.2630 O   0  0  0  0  0  0  0  0  0  0  0  0
  2  1  1  6
  2  3  1  0
  2  5  1  0
  3  4  1  0
  5  6  1  0
  6  7  2  0
  6  8  1  0
  9  8  1  6
  9 10  1  0
  9 23  1  0
 11 10  1  1
 11 12  1  0
 11 13  1  0
 13 12  1  6
 13 14  1  0
 14 15  1  0
 15 16  1  0
 16 17  1  0
 17 18  1  0
 18 19  2  0
 18 20  1  0
 20 21  1  1
 20 22  1  0
 22 23  1  0
 23 24  2  0
M  END
