
     RDKit          3D

 19 21  0  0  0  0  0  0  0  0999 V2000
   -4.6350    1.3040   -1.0420 N   0  0  0  0  0  0  0  0  0  0  0  0
   -4.4200    0.1350   -0.2460 C   0  0  0  0  0  0  0  0  0  0  0  0
   -5.4350   -0.5240    0.1440 N   0  0  0  0  0  0  0  0  0  0  0  0
   -3.0750   -0.2630    0.0890 C   0  0  0  0  0  0  0  0  0  0  0  0
   -2.8290   -1.3750    0.8480 C   0  0  0  0  0  0  0  0  0  0  0  0
   -1.5250   -1.7110    1.1400 C   0  0  0  0  0  0  0  0  0  0  0  0
   -0.4810   -0.9390    0.6740 C   0  0  0  0  0  0  0  0  0  0  0  0
    0.8560   -1.0190    0.7960 N   0  0  0  0  0  0  0  0  0  0  0  0
    1.4730   -0.0160    0.1540 C   0  0  0  0  0  0  0  0  0  0  0  0
    2.9010    0.2600    0.0420 C   0  0  0  0  0  0  0  0  0  0  0  0
    3.8070   -0.5800    0.6520 C   0  0  0  0  0  0  0  0  0  0  0  0
    5.1730   -0.3490    0.5660 C   0  0  0  0  0  0  0  0  0  0  0  0
    5.6350    0.7380   -0.1400 C   0  0  0  0  0  0  0  0  0  0  0  0
    4.7490    1.5450   -0.7270 N   0  0  0  0  0  0  0  0  0  0  0  0
    3.4020    1.3360   -0.6550 C   0  0  0  0  0  0  0  0  0  0  0  0
    2.6120    2.1260   -1.2250 O   0  0  0  0  0  0  0  0  0  0  0  0
    0.4920    0.7240   -0.3920 N   0  0  0  0  0  0  0  0  0  0  0  0
   -0.7090    0.1950   -0.0980 C   0  0  0  0  0  0  0  0  0  0  0  0
   -2.0170    0.5090   -0.3760 C   0  0  0  0  0  0  0  0  0  0  0  0
  1  2  1  0
  2  3  2  0
  2  4  1  0
  4  5  2  0
  4 19  1  0
  5  6  1  0
  6  7  2  0
  7  8  1  0
  7 18  1  0
  8  9  1  0
  9 10  1  0
  9 17  2  0
 10 11  2  0
 10 15  1  0
 11 12  1  0
 12 13  2  0
 13 14  1  0
 14 15  1  0
 15 16  2  0
 17 18  1  0
 18 19  2  0
M  CHG  1   3   1
M  END
