
     RDKit          3D

 25 26  0  0  0  0  0  0  0  0999 V2000
   -3.6760   -3.6220   -1.4690 C   0  0  0  0  0  0  0  0  0  0  0  0
   -3.1500   -2.8150   -0.3160 C   0  0  2  0  0  0  0  0  0  0  0  0
   -4.2320   -2.4570    0.6800 C   0  0  0  0  0  0  0  0  0  0  0  0
   -2.5320   -1.6270   -0.7610 O   0  0  0  0  0  0  0  0  0  0  0  0
   -1.2100   -1.3230   -0.4830 C   0  0  0  0  0  0  0  0  0  0  0  0
   -0.5550   -2.1650    0.2020 O   0  0  0  0  0  0  0  0  0  0  0  0
   -0.5860   -0.0510   -0.9730 C   0  0  1  0  0  0  0  0  0  0  0  0
   -1.4190    1.1410   -0.6530 C   0  0  0  0  0  0  0  0  0  0  0  0
   -1.6770    1.3760    0.8050 C   0  0  1  0  0  0  0  0  0  0  0  0
   -0.3920    1.5860    1.5830 C   0  0  0  0  0  0  0  0  0  0  0  0
   -0.6860    2.8920    2.3320 C   0  0  0  0  0  0  0  0  0  0  0  0
   -1.5730    3.5720    1.2850 C   0  0  0  0  0  0  0  0  0  0  0  0
   -2.4310    2.5380    0.9350 O   0  0  0  0  0  0  0  0  0  0  0  0
    0.7630    0.0350   -0.5650 O   0  0  0  0  0  0  0  0  0  0  0  0
    1.8260    0.0100   -1.4340 C   0  0  0  0  0  0  0  0  0  0  0  0
    1.5220   -0.0950   -2.6700 O   0  0  0  0  0  0  0  0  0  0  0  0
    3.2150    0.0920   -1.0760 C   0  0  0  0  0  0  0  0  0  0  0  0
    4.1810    0.0620   -2.0240 N   0  0  0  0  0  0  0  0  0  0  0  0
    5.4920    0.1370   -1.7360 C   0  0  0  0  0  0  0  0  0  0  0  0
    6.3790    0.1090   -2.6200 O   0  0  0  0  0  0  0  0  0  0  0  0
    5.8860    0.2500   -0.4270 C   0  0  0  0  0  0  0  0  0  0  0  0
    7.1040    0.3260   -0.0840 O   0  0  0  0  0  0  0  0  0  0  0  0
    4.9300    0.2800    0.5140 N   0  0  0  0  0  0  0  0  0  0  0  0
    3.6110    0.2050    0.2420 C   0  0  0  0  0  0  0  0  0  0  0  0
    2.6330    0.2380    1.2570 N   0  0  0  0  0  0  0  0  0  0  0  0
  2  1  1  6
  2  3  1  0
  2  4  1  0
  4  5  1  0
  5  6  2  0
  5  7  1  0
  7  8  1  1
  7 14  1  0
  9  8  1  6
  9 10  1  0
  9 13  1  0
 10 11  1  0
 11 12  1  0
 12 13  1  0
 14 15  1  0
 15 16  2  0
 15 17  1  0
 17 18  1  0
 17 24  2  0
 18 19  1  0
 19 20  2  0
 19 21  1  0
 21 22  2  0
 21 23  1  0
 23 24  1  0
 24 25  1  0
M  END
