
     RDKit          3D

 25 26  0  0  0  0  0  0  0  0999 V2000
   -2.4450   -0.1880    2.6450 C   0  0  0  0  0  0  0  0  0  0  0  0
   -3.4500    0.3060    1.6540 C   0  0  0  0  0  0  0  0  0  0  0  0
   -4.7210    0.6190    2.0150 C   0  0  0  0  0  0  0  0  0  0  0  0
   -5.4350    1.0510    0.8770 N   0  0  0  0  0  0  0  0  0  0  0  0
   -4.6910    1.0250   -0.1630 C   0  0  0  0  0  0  0  0  0  0  0  0
   -5.1460    1.4090   -1.4560 N   0  0  0  0  0  0  0  0  0  0  0  0
   -3.3420    0.5440    0.2410 C   0  0  0  0  0  0  0  0  0  0  0  0
   -2.3540    0.4300   -0.5970 C   0  0  0  0  0  0  0  0  0  0  0  0
   -0.9770    0.0320   -0.4600 C   0  0  0  0  0  0  0  0  0  0  0  0
   -0.1900   -0.0110   -1.5320 C   0  0  0  0  0  0  0  0  0  0  0  0
   -0.6260    0.3330   -2.8640 C   0  0  0  0  0  0  0  0  0  0  0  0
    0.3070    0.2790   -3.9880 N   0  0  0  0  0  0  0  0  0  0  0  0
   -1.7320    0.6970   -3.2850 O   0  0  0  0  0  0  0  0  0  0  0  0
    1.1680   -0.4310   -1.3530 O   0  0  0  0  0  0  0  0  0  0  0  0
    1.4850   -1.7250   -0.7920 C   0  0  0  0  0  0  0  0  0  0  0  0
    2.6330   -1.7330   -0.0530 O   0  0  0  0  0  0  0  0  0  0  0  0
    3.7350   -1.1950   -0.6970 C   0  0  0  0  0  0  0  0  0  0  0  0
    4.1590    0.0310    0.0750 C   0  0  2  0  0  0  0  0  0  0  0  0
    5.5390    0.1870   -0.2200 O   0  0  0  0  0  0  0  0  0  0  0  0
    3.9430   -0.2120    1.5300 C   0  0  0  0  0  0  0  0  0  0  0  0
    2.7840   -0.8670    1.8950 O   0  0  0  0  0  0  0  0  0  0  0  0
    1.5540   -0.4180    2.2540 C   0  0  0  0  0  0  0  0  0  0  0  0
    0.9750   -0.6160    3.3630 O   0  0  0  0  0  0  0  0  0  0  0  0
    0.7290    0.3940    1.3190 C   0  0  0  0  0  0  0  0  0  0  0  0
   -0.3510   -0.3250    0.7660 O   0  0  0  0  0  0  0  0  0  0  0  0
  1  2  1  0
  2  3  2  0
  2  7  1  0
  3  4  1  0
  4  5  2  0
  5  6  1  0
  5  7  1  0
  7  8  2  3
  8  9  1  0
  9 10  2  0
  9 25  1  0
 10 11  1  0
 10 14  1  0
 11 12  1  0
 11 13  2  0
 14 15  1  0
 15 16  1  0
 16 17  1  0
 17 18  1  0
 18 19  1  1
 18 20  1  0
 20 21  1  0
 21 22  1  0
 22 23  2  0
 22 24  1  0
 24 25  1  0
M  END
