
     RDKit          3D

 25 26  0  0  0  0  0  0  0  0999 V2000
   -1.0690    1.1520    3.3610 C   0  0  0  0  0  0  0  0  0  0  0  0
   -1.7990   -0.0770    2.8290 C   0  0  1  0  0  0  0  0  0  0  0  0
   -3.0620    0.2850    2.4910 O   0  0  0  0  0  0  0  0  0  0  0  0
   -3.3170    0.1840    1.0900 C   0  0  0  0  0  0  0  0  0  0  0  0
   -4.5040    0.4810    0.6190 C   0  0  0  0  0  0  0  0  0  0  0  0
   -5.1100    0.5010   -0.6950 C   0  0  2  0  0  0  0  0  0  0  0  0
   -4.8910   -0.5500   -1.5360 O   0  0  0  0  0  0  0  0  0  0  0  0
   -4.9240    1.8690   -1.3950 C   0  0  0  0  0  0  0  0  0  0  0  0
   -5.7860    1.9680   -2.4930 O   0  0  0  0  0  0  0  0  0  0  0  0
   -2.0400   -0.2660    0.5710 C   0  0  0  0  0  0  0  0  0  0  0  0
   -1.8920   -0.7280   -0.8430 C   0  0  0  0  0  0  0  0  0  0  0  0
   -1.9620    0.2580   -1.7660 O   0  0  0  0  0  0  0  0  0  0  0  0
   -1.1100   -0.4230    1.4930 C   0  0  0  0  0  0  0  0  0  0  0  0
    0.2850   -0.6040    1.5460 C   0  0  0  0  0  0  0  0  0  0  0  0
    1.0220   -0.8180    2.4670 O   0  0  0  0  0  0  0  0  0  0  0  0
    1.1460   -0.4900    0.0590 N   0  0  0  0  0  0  0  0  0  0  0  0
    2.3000   -0.9840    0.4900 C   0  0  0  0  0  0  0  0  0  0  0  0
    2.8260   -1.5310    1.4400 O   0  0  0  0  0  0  0  0  0  0  0  0
    3.3440   -0.7820   -0.6330 N   0  0  0  0  0  0  0  0  0  0  0  0
    4.6520   -1.2770   -0.4550 C   0  0  1  0  0  0  0  0  0  0  0  0
    5.4610   -1.1900   -1.7020 C   0  0  0  0  0  0  0  0  0  0  0  0
    6.5230   -0.1140   -1.4940 C   0  0  0  0  0  0  0  0  0  0  0  0
    6.3340    0.3940   -0.1500 N   0  0  0  0  0  0  0  0  0  0  0  0
    5.4330   -0.4390    0.5430 C   0  0  0  0  0  0  0  0  0  0  0  0
    5.2260   -0.5470    1.7890 O   0  0  0  0  0  0  0  0  0  0  0  0
  2  1  1  6
  2  3  1  0
  2 13  1  0
  3  4  1  0
  4  5  2  3
  4 10  1  0
  5  6  1  0
  6  7  1  6
  6  8  1  0
  8  9  1  0
 10 11  1  0
 10 13  2  0
 11 12  1  0
 13 14  1  0
 14 15  2  0
 14 16  1  0
 16 17  1  0
 17 18  2  0
 17 19  1  0
 20 19  1  6
 20 21  1  0
 20 24  1  0
 21 22  1  0
 22 23  1  0
 23 24  1  0
 24 25  2  0
M  END
