
     RDKit          3D

 23 24  0  0  0  0  0  0  0  0999 V2000
   -3.5020   -0.0420    0.7500 C   0  0  0  0  0  0  0  0  0  0  0  0
   -3.8670   -1.0830   -0.2400 C   0  0  0  0  0  0  0  0  0  0  0  0
   -5.1150   -1.9390    0.0780 C   0  0  0  0  0  0  0  0  0  0  0  0
   -3.2150   -1.3030   -1.3280 C   0  0  0  0  0  0  0  0  0  0  0  0
   -2.0500   -0.6880   -1.8950 C   0  0  0  0  0  0  0  0  0  0  0  0
   -1.4570    0.5090   -1.3240 C   0  0  0  0  0  0  0  0  0  0  0  0
   -0.2280    0.4440   -0.7780 C   0  0  0  0  0  0  0  0  0  0  0  0
    0.4070   -0.8060   -0.7950 O   0  0  0  0  0  0  0  0  0  0  0  0
    0.4250    1.5910   -0.2060 C   0  0  0  0  0  0  0  0  0  0  0  0
    1.5970    1.5610    0.3660 C   0  0  0  0  0  0  0  0  0  0  0  0
    2.4630    0.4140    0.5530 C   0  0  0  0  0  0  0  0  0  0  0  0
    3.7620    0.3990    0.0400 C   0  0  0  0  0  0  0  0  0  0  0  0
    4.6460   -0.6280    0.2310 C   0  0  0  0  0  0  0  0  0  0  0  0
    6.0280   -0.6190   -0.3270 C   0  0  0  0  0  0  0  0  0  0  0  0
    4.2070   -1.7130    0.9820 C   0  0  0  0  0  0  0  0  0  0  0  0
    2.9550   -1.7680    1.5140 C   0  0  0  0  0  0  0  0  0  0  0  0
    2.4870   -2.9350    2.3220 C   0  0  0  0  0  0  0  0  0  0  0  0
    2.0960   -0.6870    1.2850 C   0  0  0  0  0  0  0  0  0  0  0  0
   -0.2960    2.8750   -0.2380 C   0  0  0  0  0  0  0  0  0  0  0  0
   -1.5000    3.0120   -0.7610 C   0  0  0  0  0  0  0  0  0  0  0  0
   -2.1920    4.3440   -0.7680 C   0  0  0  0  0  0  0  0  0  0  0  0
   -2.1190    1.8220   -1.3240 C   0  0  0  0  0  0  0  0  0  0  0  0
   -3.2600    1.9390   -1.8240 O   0  0  0  0  0  0  0  0  0  0  0  0
  1  2  1  0
  2  3  1  0
  2  4  2  3
  4  5  1  0
  5  6  1  0
  6  7  2  0
  6 22  1  0
  7  8  1  0
  7  9  1  0
  9 10  2  3
  9 19  1  0
 10 11  1  0
 11 12  2  0
 11 18  1  0
 12 13  1  0
 13 14  1  0
 13 15  2  0
 15 16  1  0
 16 17  1  0
 16 18  2  0
 19 20  2  0
 20 21  1  0
 20 22  1  0
 22 23  2  0
M  END
