
     RDKit          3D

 23 24  0  0  0  0  0  0  0  0999 V2000
   -5.4240   -2.4100   -1.8820 C   0  0  0  0  0  0  0  0  0  0  0  0
   -4.7890   -2.8260   -0.5950 C   0  0  0  0  0  0  0  0  0  0  0  0
   -3.5810   -1.9850   -0.2630 C   0  0  0  0  0  0  0  0  0  0  0  0
   -2.3810   -2.4550   -0.1120 C   0  0  0  0  0  0  0  0  0  0  0  0
   -1.4350   -1.3460    0.2110 C   0  0  0  0  0  0  0  0  0  0  0  0
   -0.1430   -1.5370    0.4160 C   0  0  0  0  0  0  0  0  0  0  0  0
    0.8560   -0.5910    0.7260 C   0  0  0  0  0  0  0  0  0  0  0  0
    2.1410   -0.8950    0.9140 C   0  0  0  0  0  0  0  0  0  0  0  0
    2.7300   -2.1770    0.8430 C   0  0  0  0  0  0  0  0  0  0  0  0
    2.1630   -3.2530    0.5830 O   0  0  0  0  0  0  0  0  0  0  0  0
    3.0380    0.2760    1.2540 C   0  0  0  0  0  0  0  0  0  0  0  0
    4.0850    0.4530    0.2160 C   0  0  2  0  0  0  0  0  0  0  0  0
    3.4530    0.7070   -1.1620 C   0  0  0  0  0  0  0  0  0  0  0  0
    5.0050   -0.5770    0.1370 O   0  0  0  0  0  0  0  0  0  0  0  0
    4.9080    1.7130    0.4890 C   0  0  0  0  0  0  0  0  0  0  0  0
    5.9390    1.8080   -0.6090 C   0  0  0  0  0  0  0  0  0  0  0  0
   -2.2620   -0.1550    0.2260 C   0  0  0  0  0  0  0  0  0  0  0  0
   -2.0180    1.1720    0.4530 C   0  0  0  0  0  0  0  0  0  0  0  0
   -3.0290    2.1210    0.4020 C   0  0  0  0  0  0  0  0  0  0  0  0
   -2.7120    3.5640    0.6580 C   0  0  0  0  0  0  0  0  0  0  0  0
   -4.3020    1.7150    0.1180 C   0  0  0  0  0  0  0  0  0  0  0  0
   -4.5770    0.3770   -0.1160 C   0  0  0  0  0  0  0  0  0  0  0  0
   -3.5610   -0.5570   -0.0620 C   0  0  0  0  0  0  0  0  0  0  0  0
  1  2  1  0
  2  3  1  0
  3  4  2  0
  3 23  1  0
  4  5  1  0
  5  6  2  3
  5 17  1  0
  6  7  1  0
  7  8  2  3
  8  9  1  0
  8 11  1  0
  9 10  2  0
 11 12  1  0
 12 13  1  6
 12 14  1  0
 12 15  1  0
 15 16  1  0
 17 18  2  0
 17 23  1  0
 18 19  1  0
 19 20  1  0
 19 21  2  0
 21 22  1  0
 22 23  2  0
M  END
