
     RDKit          3D

 23 24  0  0  0  0  0  0  0  0999 V2000
   -2.5180   -2.2220   -1.4970 C   0  0  0  0  0  0  0  0  0  0  0  0
   -2.7100   -1.9950   -0.2220 C   0  0  0  0  0  0  0  0  0  0  0  0
   -2.2840   -2.9770    0.7900 C   0  0  0  0  0  0  0  0  0  0  0  0
   -3.3480   -0.7620    0.1900 C   0  0  0  0  0  0  0  0  0  0  0  0
   -4.7160   -0.6640    0.3210 C   0  0  0  0  0  0  0  0  0  0  0  0
   -5.3070    0.5210    0.7170 C   0  0  0  0  0  0  0  0  0  0  0  0
   -6.7870    0.6310    0.8600 C   0  0  0  0  0  0  0  0  0  0  0  0
   -4.5360    1.6440    0.9930 C   0  0  0  0  0  0  0  0  0  0  0  0
   -3.1710    1.5280    0.8570 C   0  0  0  0  0  0  0  0  0  0  0  0
   -2.5520    0.3600    0.4640 C   0  0  0  0  0  0  0  0  0  0  0  0
   -1.1710    0.2900    0.3400 O   0  0  0  0  0  0  0  0  0  0  0  0
   -0.4190    1.4350    0.6270 C   0  0  0  0  0  0  0  0  0  0  0  0
    1.0360    1.2240    0.4530 C   0  0  0  0  0  0  0  0  0  0  0  0
    1.6870    1.5840   -0.7060 C   0  0  0  0  0  0  0  0  0  0  0  0
    3.0660    1.3650   -0.8380 C   0  0  0  0  0  0  0  0  0  0  0  0
    3.8200    0.7950    0.1560 C   0  0  0  0  0  0  0  0  0  0  0  0
    5.2410    0.5280    0.0290 C   0  0  0  0  0  0  0  0  0  0  0  0
    5.8530   -0.1490   -0.8970 C   0  0  0  0  0  0  0  0  0  0  0  0
    7.3570   -0.2850   -0.8200 C   0  0  0  0  0  0  0  0  0  0  0  0
    5.1910   -0.8340   -1.9590 C   0  0  0  0  0  0  0  0  0  0  0  0
    3.9610   -0.8770   -2.1070 O   0  0  0  0  0  0  0  0  0  0  0  0
    3.1420    0.4340    1.3330 C   0  0  0  0  0  0  0  0  0  0  0  0
    1.7860    0.6520    1.4580 C   0  0  0  0  0  0  0  0  0  0  0  0
  1  2  2  0
  2  3  1  0
  2  4  1  0
  4  5  2  0
  4 10  1  0
  5  6  1  0
  6  7  1  0
  6  8  2  0
  8  9  1  0
  9 10  2  0
 10 11  1  0
 11 12  1  0
 12 13  1  0
 13 14  2  0
 13 23  1  0
 14 15  1  0
 15 16  2  0
 16 17  1  0
 16 22  1  0
 17 18  2  3
 18 19  1  0
 18 20  1  0
 20 21  2  0
 22 23  2  0
M  END
