
     RDKit          3D

 17 18  0  0  0  0  0  0  0  0999 V2000
    4.4450   -0.2360    0.2670 N   0  0  0  0  0  0  0  0  0  0  0  0
    3.0730   -1.0120   -0.3550 S   0  0  2  0  0  0  0  0  0  0  0  0
    3.3480   -2.5080   -0.3650 O   0  0  0  0  0  0  0  0  0  0  0  0
    2.8840   -0.6140   -1.7910 O   0  0  0  0  0  0  0  0  0  0  0  0
    1.6410   -0.7590    0.5310 N   0  0  0  0  0  0  0  0  0  0  0  0
    0.8810    0.3860    0.1040 C   0  0  2  0  0  0  0  0  0  0  0  0
    0.9050    1.4050    1.1760 C   0  0  0  0  0  0  0  0  0  0  0  0
    1.8850    1.3920    1.9500 O   0  0  0  0  0  0  0  0  0  0  0  0
   -0.0690    2.3630    1.3830 O   0  0  0  0  0  0  0  0  0  0  0  0
   -1.4450    2.2330    1.0890 C   0  0  0  0  0  0  0  0  0  0  0  0
   -2.0080    0.8820    1.3860 C   0  0  0  0  0  0  0  0  0  0  0  0
   -1.5420   -0.2140    0.5130 C   0  0  1  0  0  0  0  0  0  0  0  0
   -2.6430   -0.7000   -0.4470 C   0  0  0  0  0  0  0  0  0  0  0  0
   -1.8560   -1.6530   -1.3200 C   0  0  0  0  0  0  0  0  0  0  0  0
   -0.4100   -1.2600   -1.2050 C   0  0  0  0  0  0  0  0  0  0  0  0
   -0.4610    0.0720   -0.4380 C   0  0  2  0  0  0  0  0  0  0  0  0
   -0.8500    1.0210   -1.4120 O   0  0  0  0  0  0  0  0  0  0  0  0
  2  1  1  1
  2  3  2  0
  2  4  2  0
  2  5  1  0
  6  5  1  1
  6  7  1  0
  6 16  1  0
  7  8  2  0
  7  9  1  0
  9 10  1  0
 10 11  1  0
 12 11  1  6
 12 13  1  0
 12 16  1  0
 13 14  1  0
 14 15  1  0
 15 16  1  0
 16 17  1  6
M  END
