
     RDKit          3D

 17 18  0  0  0  0  0  0  0  0999 V2000
   -1.5800    2.2600   -0.6890 C   0  0  0  0  0  0  0  0  0  0  0  0
   -1.9630    0.8090   -0.7090 C   0  0  2  0  0  0  0  0  0  0  0  0
   -1.7720    0.2300    0.6580 C   0  0  0  0  0  0  0  0  0  0  0  0
   -1.0040   -1.0400    0.3960 C   0  0  2  0  0  0  0  0  0  0  0  0
   -1.5510   -2.1050    1.1240 O   0  0  0  0  0  0  0  0  0  0  0  0
    0.4420   -0.8770    0.7420 C   0  0  0  0  0  0  0  0  0  0  0  0
    0.8900   -1.6650    1.6010 O   0  0  0  0  0  0  0  0  0  0  0  0
    1.2690    0.0790    0.1660 N   0  0  0  0  0  0  0  0  0  0  0  0
    2.6730    0.2600    0.4820 C   0  0  0  0  0  0  0  0  0  0  0  0
    3.3150   -0.5270    1.4070 C   0  0  0  0  0  0  0  0  0  0  0  0
    4.9970    0.1470    1.3740 S   0  0  0  0  0  0  0  0  0  0  0  0
    4.4880    1.4210    0.0570 C   0  0  0  0  0  0  0  0  0  0  0  0
    5.4510    2.2120   -0.3250 O   0  0  0  0  0  0  0  0  0  0  0  0
    3.4280    1.1480   -0.0590 O   0  0  0  0  0  0  0  0  0  0  0  0
   -1.1920   -1.2330   -1.0840 C   0  0  1  0  0  0  0  0  0  0  0  0
   -2.5010   -1.7630   -1.3620 N   0  0  0  0  0  0  0  0  0  0  0  0
   -1.1460    0.0740   -1.5650 O   0  0  0  0  0  0  0  0  0  0  0  0
  2  1  1  1
  2  3  1  0
  2 17  1  0
  3  4  1  0
  4  5  1  1
  4  6  1  0
  4 15  1  0
  6  7  2  0
  6  8  1  0
  8  9  1  0
  9 10  2  0
  9 14  1  0
 10 11  1  0
 11 12  1  0
 12 13  2  0
 12 14  1  0
 15 16  1  1
 15 17  1  0
M  END
