
     RDKit          3D

  9  9  0  0  0  0  0  0  0  0999 V2000
    3.8000    0.2660    0.6600 C   0  0  0  0  0  0  0  0  0  0  0  0
    2.0360    0.5770    1.0070 S   0  0  0  0  0  0  0  0  0  0  0  0
    1.1400   -0.0170   -0.4650 C   0  0  0  0  0  0  0  0  0  0  0  0
   -0.3490    0.0070   -0.2710 C   0  0  1  0  0  0  0  0  0  0  0  0
   -0.8380   -1.1480    0.5840 C   0  0  0  0  0  0  0  0  0  0  0  0
   -2.1940   -1.3190    0.3610 O   0  0  0  0  0  0  0  0  0  0  0  0
   -2.8040   -0.1150    0.0240 C   0  0  0  0  0  0  0  0  0  0  0  0
   -2.0850    1.0020    0.7570 C   0  0  0  0  0  0  0  0  0  0  0  0
   -0.8280    1.2120    0.2070 O   0  0  0  0  0  0  0  0  0  0  0  0
  1  2  1  0
  2  3  1  0
  4  3  1  1
  4  5  1  0
  4  9  1  0
  5  6  1  0
  6  7  1  0
  7  8  1  0
  8  9  1  0
M  END
