
     RDKit          3D

  9  9  0  0  0  0  0  0  0  0999 V2000
    2.3090   -0.7210   -0.4870 C   0  0  0  0  0  0  0  0  0  0  0  0
    1.5820    0.1530    0.5300 C   0  0  0  0  0  0  0  0  0  0  0  0
    0.1320   -0.0080    0.4640 C   0  0  0  0  0  0  0  0  0  0  0  0
   -0.7630    0.9120    0.2090 C   0  0  0  0  0  0  0  0  0  0  0  0
   -0.4210    2.2610   -0.0540 O   0  0  0  0  0  0  0  0  0  0  0  0
   -2.1260    0.4890    0.2070 C   0  0  0  0  0  0  0  0  0  0  0  0
   -3.1510    1.2440    0.3940 O   0  0  0  0  0  0  0  0  0  0  0  0
   -2.3190   -0.9660   -0.0380 C   0  0  0  0  0  0  0  0  0  0  0  0
   -0.7340   -1.5450    0.7150 S   0  0  0  0  0  0  0  0  0  0  0  0
  1  2  1  0
  2  3  1  0
  3  4  2  0
  3  9  1  0
  4  5  1  0
  4  6  1  0
  6  7  2  0
  6  8  1  0
  8  9  1  0
M  END
