
     RDKit          3D

 19 21  0  0  0  0  0  0  0  0999 V2000
   -4.6110   -1.1940    1.3980 N   0  0  0  0  0  0  0  0  0  0  0  0
   -4.5240   -0.2630    0.3170 C   0  0  0  0  0  0  0  0  0  0  0  0
   -5.5950    0.1860   -0.2130 N   0  0  0  0  0  0  0  0  0  0  0  0
   -3.1970    0.1660   -0.1700 C   0  0  0  0  0  0  0  0  0  0  0  0
   -3.0020    1.0480   -1.1940 C   0  0  0  0  0  0  0  0  0  0  0  0
   -1.7360    1.4300   -1.6280 C   0  0  0  0  0  0  0  0  0  0  0  0
   -0.6250    0.9020   -1.0060 C   0  0  0  0  0  0  0  0  0  0  0  0
    0.6990    1.0360   -1.1510 N   0  0  0  0  0  0  0  0  0  0  0  0
    1.3850    0.2850   -0.2730 C   0  0  0  0  0  0  0  0  0  0  0  0
    2.8310    0.1680   -0.1260 C   0  0  0  0  0  0  0  0  0  0  0  0
    3.6150    0.9280   -1.0030 C   0  0  0  0  0  0  0  0  0  0  0  0
    4.9820    0.8800   -0.9360 C   0  0  0  0  0  0  0  0  0  0  0  0
    5.6160    0.0860   -0.0080 C   0  0  0  0  0  0  0  0  0  0  0  0
    4.8670   -0.6570    0.8490 C   0  0  0  0  0  0  0  0  0  0  0  0
    3.4760   -0.6070    0.7790 C   0  0  0  0  0  0  0  0  0  0  0  0
    2.7400   -1.3760    1.6670 O   0  0  0  0  0  0  0  0  0  0  0  0
    0.4560   -0.3470    0.4540 N   0  0  0  0  0  0  0  0  0  0  0  0
   -0.7970    0.0100    0.0290 C   0  0  0  0  0  0  0  0  0  0  0  0
   -2.0560   -0.3580    0.4470 C   0  0  0  0  0  0  0  0  0  0  0  0
  1  2  1  0
  2  3  2  0
  2  4  1  0
  4  5  2  0
  4 19  1  0
  5  6  1  0
  6  7  2  0
  7  8  1  0
  7 18  1  0
  8  9  2  0
  9 10  1  0
  9 17  1  0
 10 11  2  0
 10 15  1  0
 11 12  1  0
 12 13  2  0
 13 14  1  0
 14 15  2  0
 15 16  1  0
 17 18  1  0
 18 19  2  0
M  CHG  1   3   1
M  END
