
     RDKit          3D

  9  9  0  0  0  0  0  0  0  0999 V2000
    3.1500    0.4330   -0.4280 C   0  0  0  0  0  0  0  0  0  0  0  0
    2.0690   -0.5950    0.5820 S   0  0  0  0  0  0  0  0  0  0  0  0
    0.3830   -0.3640    0.0700 C   0  0  0  0  0  0  0  0  0  0  0  0
   -0.6070   -1.0290    0.6890 C   0  0  0  0  0  0  0  0  0  0  0  0
   -2.0200   -0.8730    0.3030 C   0  0  0  0  0  0  0  0  0  0  0  0
   -2.2120    0.4930   -0.3180 C   0  0  0  0  0  0  0  0  0  0  0  0
   -1.2670    0.6750   -1.3460 O   0  0  0  0  0  0  0  0  0  0  0  0
    0.0770    0.5540   -1.0210 C   0  0  0  0  0  0  0  0  0  0  0  0
    0.9600    1.2010   -1.6350 O   0  0  0  0  0  0  0  0  0  0  0  0
  1  2  1  0
  2  3  1  0
  3  4  2  0
  3  8  1  0
  4  5  1  0
  5  6  1  0
  6  7  1  0
  7  8  1  0
  8  9  2  0
M  END
