
     RDKit          3D

  9  9  0  0  0  0  0  0  0  0999 V2000
    3.5570    0.4510   -0.0660 C   0  0  0  0  0  0  0  0  0  0  0  0
    2.1700    0.6200    0.1800 O   0  0  0  0  0  0  0  0  0  0  0  0
    1.2560   -0.3450   -0.2180 C   0  0  0  0  0  0  0  0  0  0  0  0
    1.7000   -1.3520   -0.7930 O   0  0  0  0  0  0  0  0  0  0  0  0
   -0.1800   -0.1460    0.0480 C   0  0  0  0  0  0  0  0  0  0  0  0
   -1.1540   -0.9320   -0.2500 C   0  0  0  0  0  0  0  0  0  0  0  0
   -2.4940   -0.5510    0.1000 C   0  0  0  0  0  0  0  0  0  0  0  0
   -2.5960    0.9040    0.3800 C   0  0  0  0  0  0  0  0  0  0  0  0
   -0.8860    1.2750    0.8700 S   0  0  0  0  0  0  0  0  0  0  0  0
  1  2  1  0
  2  3  1  0
  3  4  2  0
  3  5  1  0
  5  6  2  0
  5  9  1  0
  6  7  1  0
  7  8  1  0
  8  9  1  0
M  END
