
     RDKit          3D

 25 26  0  0  0  0  0  0  0  0999 V2000
   -2.4110   -1.7950    1.6020 C   0  0  0  0  0  0  0  0  0  0  0  0
   -3.3920   -0.7710    1.2040 C   0  0  0  0  0  0  0  0  0  0  0  0
   -4.6870   -0.8770    1.5700 C   0  0  0  0  0  0  0  0  0  0  0  0
   -5.3800    0.2230    1.0640 N   0  0  0  0  0  0  0  0  0  0  0  0
   -4.6370    1.0150    0.4110 C   0  0  0  0  0  0  0  0  0  0  0  0
   -5.0860    2.2210   -0.2150 N   0  0  0  0  0  0  0  0  0  0  0  0
   -3.2550    0.4400    0.4370 C   0  0  0  0  0  0  0  0  0  0  0  0
   -2.2500    0.9910   -0.1660 C   0  0  0  0  0  0  0  0  0  0  0  0
   -0.8660    0.6520   -0.3440 C   0  0  0  0  0  0  0  0  0  0  0  0
    0.0050    1.4430   -1.0170 C   0  0  0  0  0  0  0  0  0  0  0  0
   -0.4190    2.6870   -1.6110 C   0  0  0  0  0  0  0  0  0  0  0  0
    0.4890    3.5460   -2.3640 N   0  0  0  0  0  0  0  0  0  0  0  0
   -1.5860    3.1220   -1.5260 O   0  0  0  0  0  0  0  0  0  0  0  0
    1.3190    1.0650   -1.1380 O   0  0  0  0  0  0  0  0  0  0  0  0
    2.4120    0.9320   -0.3160 C   0  0  0  0  0  0  0  0  0  0  0  0
    2.1790    0.2430    0.8170 O   0  0  0  0  0  0  0  0  0  0  0  0
    3.1830   -0.4320    1.4220 C   0  0  0  0  0  0  0  0  0  0  0  0
    4.1550   -1.1810    0.5890 C   0  0  2  0  0  0  0  0  0  0  0  0
    5.1310   -0.3780   -0.0090 O   0  0  0  0  0  0  0  0  0  0  0  0
    3.5340   -2.1340   -0.4030 C   0  0  0  0  0  0  0  0  0  0  0  0
    2.3930   -2.7790    0.0250 O   0  0  0  0  0  0  0  0  0  0  0  0
    1.1330   -2.3690    0.2660 C   0  0  0  0  0  0  0  0  0  0  0  0
    0.6420   -2.7030    1.4060 O   0  0  0  0  0  0  0  0  0  0  0  0
    0.2330   -1.5830   -0.6110 C   0  0  0  0  0  0  0  0  0  0  0  0
   -0.3540   -0.5490    0.1760 O   0  0  0  0  0  0  0  0  0  0  0  0
  1  2  1  0
  2  3  2  0
  2  7  1  0
  3  4  1  0
  4  5  2  0
  5  6  1  0
  5  7  1  0
  7  8  2  3
  8  9  1  0
  9 10  2  0
  9 25  1  0
 10 11  1  0
 10 14  1  0
 11 12  1  0
 11 13  2  0
 14 15  1  0
 15 16  1  0
 16 17  1  0
 17 18  1  0
 18 19  1  6
 18 20  1  0
 20 21  1  0
 21 22  1  0
 22 23  2  0
 22 24  1  0
 24 25  1  0
M  END
