
     RDKit          3D

 25 26  0  0  0  0  0  0  0  0999 V2000
    5.9750    0.2760    0.0660 C   0  0  0  0  0  0  0  0  0  0  0  0
    4.6840    0.2900   -0.6610 C   0  0  0  0  0  0  0  0  0  0  0  0
    3.6080   -0.1560   -0.0540 C   0  0  0  0  0  0  0  0  0  0  0  0
    3.7230   -0.6200    1.2530 O   0  0  0  0  0  0  0  0  0  0  0  0
    2.7460   -0.9610    2.2030 C   0  0  0  0  0  0  0  0  0  0  0  0
    1.5430   -0.1560    2.1360 N   0  0  0  0  0  0  0  0  0  0  0  0
    0.8490    0.4520    1.0500 C   0  0  0  0  0  0  0  0  0  0  0  0
   -0.0390    1.2850    1.2320 O   0  0  0  0  0  0  0  0  0  0  0  0
    1.1250    0.1480   -0.3700 C   0  0  0  0  0  0  0  0  0  0  0  0
    2.3440   -0.1170   -0.8470 C   0  0  0  0  0  0  0  0  0  0  0  0
    2.6300   -0.3810   -2.2140 N   0  0  0  0  0  0  0  0  0  0  0  0
    1.4830   -0.3420   -3.0870 C   0  0  0  0  0  0  0  0  0  0  0  0
    1.6780   -0.0570   -4.2900 O   0  0  0  0  0  0  0  0  0  0  0  0
    0.1720   -0.6440   -2.4820 C   0  0  0  0  0  0  0  0  0  0  0  0
   -0.0440    0.1510   -1.2180 C   0  0  1  0  0  0  0  0  0  0  0  0
   -1.3170   -0.3030   -0.6120 C   0  0  0  0  0  0  0  0  0  0  0  0
   -1.7730   -1.4320   -1.0190 O   0  0  0  0  0  0  0  0  0  0  0  0
   -2.0980    0.2960    0.3270 O   0  0  0  0  0  0  0  0  0  0  0  0
   -3.2870   -0.1760    0.8570 C   0  0  2  0  0  0  0  0  0  0  0  0
   -4.4860    0.6840    0.8170 C   0  0  0  0  0  0  0  0  0  0  0  0
   -4.9690    1.0990   -0.3900 O   0  0  0  0  0  0  0  0  0  0  0  0
   -4.1980    1.8940   -1.1730 C   0  0  0  0  0  0  0  0  0  0  0  0
   -3.1070   -0.6830    2.2700 C   0  0  0  0  0  0  0  0  0  0  0  0
   -4.1720   -1.2040    3.0090 N   0  0  0  0  0  0  0  0  0  0  0  0
   -1.9480   -0.6090    2.7400 O   0  0  0  0  0  0  0  0  0  0  0  0
  1  2  1  0
  2  3  2  3
  3  4  1  0
  3 10  1  0
  4  5  1  0
  5  6  1  0
  6  7  1  0
  7  8  2  0
  7  9  1  0
  9 10  2  0
  9 15  1  0
 10 11  1  0
 11 12  1  0
 12 13  2  0
 12 14  1  0
 14 15  1  0
 15 16  1  1
 16 17  2  0
 16 18  1  0
 18 19  1  0
 19 20  1  1
 19 23  1  0
 20 21  1  0
 21 22  1  0
 23 24  1  0
 23 25  2  0
M  END
