
     RDKit          3D

 25 26  0  0  0  0  0  0  0  0999 V2000
   -1.7760    3.1770    1.0080 C   0  0  0  0  0  0  0  0  0  0  0  0
   -1.1360    2.0160    0.3910 C   0  0  0  0  0  0  0  0  0  0  0  0
   -1.6080    0.8280    0.1230 C   0  0  0  0  0  0  0  0  0  0  0  0
   -2.9620    0.3950    0.4080 C   0  0  0  0  0  0  0  0  0  0  0  0
   -3.8900    0.8590    1.2420 C   0  0  0  0  0  0  0  0  0  0  0  0
   -5.1530    0.2710    1.3490 O   0  0  0  0  0  0  0  0  0  0  0  0
   -3.2000   -0.7350   -0.4260 O   0  0  0  0  0  0  0  0  0  0  0  0
   -1.9660   -1.4240   -0.3480 C   0  0  1  0  0  0  0  0  0  0  0  0
   -1.8840   -1.9690    1.0830 C   0  0  0  0  0  0  0  0  0  0  0  0
   -1.8670   -2.5420   -1.3460 C   0  0  0  0  0  0  0  0  0  0  0  0
   -0.9560   -0.3180   -0.5440 C   0  0  2  0  0  0  0  0  0  0  0  0
    0.3180   -0.8070   -0.0180 C   0  0  0  0  0  0  0  0  0  0  0  0
    1.5160    0.0250    0.0750 C   0  0  2  0  0  0  0  0  0  0  0  0
    1.9320    0.5260   -1.1810 O   0  0  0  0  0  0  0  0  0  0  0  0
    2.6810   -0.9450    0.4390 C   0  0  0  0  0  0  0  0  0  0  0  0
    3.9070   -0.2230    0.5560 N   0  0  0  0  0  0  0  0  0  0  0  0
    4.8150    0.0400   -0.4010 C   0  0  0  0  0  0  0  0  0  0  0  0
    4.7810   -0.3000   -1.6220 O   0  0  0  0  0  0  0  0  0  0  0  0
    5.8220    0.7500    0.1350 N   0  0  0  0  0  0  0  0  0  0  0  0
    5.5510    0.9260    1.3920 O   0  0  0  0  0  0  0  0  0  0  0  0
    4.4050    0.3510    1.6710 C   0  0  0  0  0  0  0  0  0  0  0  0
    3.9070    0.3720    2.8250 O   0  0  0  0  0  0  0  0  0  0  0  0
   -0.9550    0.0230   -2.0060 C   0  0  0  0  0  0  0  0  0  0  0  0
   -0.2840    1.1530   -2.5470 N   0  0  0  0  0  0  0  0  0  0  0  0
   -1.5600   -0.6840   -2.8540 O   0  0  0  0  0  0  0  0  0  0  0  0
  1  2  1  0
  2  3  2  3
  3  4  1  0
  3 11  1  0
  4  5  2  3
  4  7  1  0
  5  6  1  0
  7  8  1  0
  8  9  1  1
  8 10  1  0
  8 11  1  0
 11 12  1  1
 11 23  1  0
 12 13  1  0
 13 14  1  6
 13 15  1  0
 15 16  1  0
 16 17  1  0
 16 21  1  0
 17 18  2  0
 17 19  1  0
 19 20  1  0
 20 21  1  0
 21 22  2  0
 23 24  1  0
 23 25  2  0
M  END
