
     RDKit          3D

 19 21  0  0  0  0  0  0  0  0999 V2000
    4.6130    1.4250    0.8310 N   0  0  0  0  0  0  0  0  0  0  0  0
    4.4190    0.2130    0.1130 C   0  0  0  0  0  0  0  0  0  0  0  0
    5.4050   -0.4800   -0.2880 N   0  0  0  0  0  0  0  0  0  0  0  0
    3.0520   -0.2090   -0.1490 C   0  0  0  0  0  0  0  0  0  0  0  0
    2.7950   -1.3660   -0.8360 C   0  0  0  0  0  0  0  0  0  0  0  0
    1.4950   -1.7720   -1.0880 C   0  0  0  0  0  0  0  0  0  0  0  0
    0.4700   -0.9870   -0.6330 C   0  0  0  0  0  0  0  0  0  0  0  0
   -0.8790   -1.1680   -0.7530 N   0  0  0  0  0  0  0  0  0  0  0  0
   -1.4460   -0.1190   -0.1380 C   0  0  0  0  0  0  0  0  0  0  0  0
   -2.8640    0.1780    0.0240 C   0  0  0  0  0  0  0  0  0  0  0  0
   -3.2490    1.3350    0.7040 C   0  0  0  0  0  0  0  0  0  0  0  0
   -4.5900    1.6060    0.8520 C   0  0  0  0  0  0  0  0  0  0  0  0
   -5.5910    0.7950    0.3640 C   0  0  0  0  0  0  0  0  0  0  0  0
   -5.2030   -0.3110   -0.2870 N   0  0  0  0  0  0  0  0  0  0  0  0
   -3.8890   -0.6060   -0.4490 C   0  0  0  0  0  0  0  0  0  0  0  0
   -3.5880   -1.6600   -1.0690 O   0  0  0  0  0  0  0  0  0  0  0  0
   -0.4700    0.6810    0.3440 N   0  0  0  0  0  0  0  0  0  0  0  0
    0.7230    0.1670    0.0510 C   0  0  0  0  0  0  0  0  0  0  0  0
    1.9960    0.5880    0.3120 C   0  0  0  0  0  0  0  0  0  0  0  0
  1  2  1  0
  2  3  2  0
  2  4  1  0
  4  5  2  0
  4 19  1  0
  5  6  1  0
  6  7  2  0
  7  8  1  0
  7 18  1  0
  8  9  1  0
  9 10  1  0
  9 17  2  0
 10 11  2  0
 10 15  1  0
 11 12  1  0
 12 13  2  0
 13 14  1  0
 14 15  1  0
 15 16  2  0
 17 18  1  0
 18 19  2  0
M  CHG  1   3   1
M  END
