
     RDKit          3D

 25 26  0  0  0  0  0  0  0  0999 V2000
   -4.7990    2.3900   -0.6900 C   0  0  0  0  0  0  0  0  0  0  0  0
   -3.5580    2.8520    0.0400 C   0  0  1  0  0  0  0  0  0  0  0  0
   -3.9060    3.5560    1.3340 C   0  0  0  0  0  0  0  0  0  0  0  0
   -2.8280    1.6880    0.3930 O   0  0  0  0  0  0  0  0  0  0  0  0
   -1.5390    1.5440   -0.0660 C   0  0  0  0  0  0  0  0  0  0  0  0
   -1.0500    2.4320   -0.7730 O   0  0  0  0  0  0  0  0  0  0  0  0
   -0.7830    0.3050    0.3180 C   0  0  1  0  0  0  0  0  0  0  0  0
   -1.5760   -0.8610   -0.2260 C   0  0  0  0  0  0  0  0  0  0  0  0
   -0.8110   -2.1230    0.1620 C   0  0  1  0  0  0  0  0  0  0  0  0
   -1.5040   -3.3700   -0.3280 C   0  0  0  0  0  0  0  0  0  0  0  0
   -0.3510   -4.2860   -0.6390 C   0  0  0  0  0  0  0  0  0  0  0  0
    0.8520   -3.4290   -0.4210 C   0  0  0  0  0  0  0  0  0  0  0  0
    0.4480   -2.1150   -0.4250 O   0  0  0  0  0  0  0  0  0  0  0  0
    0.4900    0.4060   -0.2730 O   0  0  0  0  0  0  0  0  0  0  0  0
    1.5970    0.3550    0.5650 C   0  0  0  0  0  0  0  0  0  0  0  0
    1.4840    0.2240    1.8080 O   0  0  0  0  0  0  0  0  0  0  0  0
    2.9330    0.4560   -0.0020 C   0  0  0  0  0  0  0  0  0  0  0  0
    3.0970    0.5970   -1.3300 N   0  0  0  0  0  0  0  0  0  0  0  0
    4.3070    0.6890   -1.8580 C   0  0  0  0  0  0  0  0  0  0  0  0
    4.5000    0.8240   -3.1180 O   0  0  0  0  0  0  0  0  0  0  0  0
    5.4070    0.6400   -1.0370 C   0  0  0  0  0  0  0  0  0  0  0  0
    6.5500    0.7300   -1.5590 O   0  0  0  0  0  0  0  0  0  0  0  0
    5.2400    0.4990    0.2950 N   0  0  0  0  0  0  0  0  0  0  0  0
    4.0170    0.4040    0.8400 C   0  0  0  0  0  0  0  0  0  0  0  0
    3.8290    0.2560    2.2330 N   0  0  0  0  0  0  0  0  0  0  0  0
  2  1  1  1
  2  3  1  0
  2  4  1  0
  4  5  1  0
  5  6  2  0
  5  7  1  0
  7  8  1  6
  7 14  1  0
  9  8  1  6
  9 10  1  0
  9 13  1  0
 10 11  1  0
 11 12  1  0
 12 13  1  0
 14 15  1  0
 15 16  2  0
 15 17  1  0
 17 18  1  0
 17 24  2  0
 18 19  1  0
 19 20  2  0
 19 21  1  0
 21 22  2  0
 21 23  1  0
 23 24  1  0
 24 25  1  0
M  END
