
     RDKit          3D

 25 26  0  0  0  0  0  0  0  0999 V2000
    0.1920    2.0840   -1.2680 C   0  0  0  0  0  0  0  0  0  0  0  0
    0.1150    0.9740   -0.2580 C   0  0  2  0  0  0  0  0  0  0  0  0
    1.0000   -0.1200   -0.5290 N   0  0  0  0  0  0  0  0  0  0  0  0
    2.4120    0.0330   -0.6010 C   0  0  0  0  0  0  0  0  0  0  0  0
    2.8940    1.1810   -0.4190 O   0  0  0  0  0  0  0  0  0  0  0  0
    3.3060   -1.0210   -0.8650 N   0  0  0  0  0  0  0  0  0  0  0  0
    4.7280   -0.8110   -0.9280 C   0  0  0  0  0  0  0  0  0  0  0  0
    5.3570   -1.0930   -2.0400 C   0  0  0  0  0  0  0  0  0  0  0  0
    6.8240   -0.8820   -2.1190 C   0  0  0  0  0  0  0  0  0  0  0  0
    7.3800   -0.3860   -0.9400 O   0  0  0  0  0  0  0  0  0  0  0  0
    6.6840   -0.1020    0.2110 C   0  0  0  0  0  0  0  0  0  0  0  0
    5.3780   -0.2970    0.2570 C   0  0  0  0  0  0  0  0  0  0  0  0
    4.6780   -0.0110    1.4190 O   0  0  0  0  0  0  0  0  0  0  0  0
   -1.2840    0.4360   -0.0730 C   0  0  0  0  0  0  0  0  0  0  0  0
   -1.1140   -0.2420    1.2950 C   0  0  2  0  0  0  0  0  0  0  0  0
   -2.5320   -0.2380    1.9220 C   0  0  0  0  0  0  0  0  0  0  0  0
   -3.2550   -1.1100    1.1590 O   0  0  0  0  0  0  0  0  0  0  0  0
   -4.5390   -1.3970    1.4840 C   0  0  0  0  0  0  0  0  0  0  0  0
   -5.4230   -0.1860    1.4570 C   0  0  1  0  0  0  0  0  0  0  0  0
   -4.9830    0.7290    2.3960 O   0  0  0  0  0  0  0  0  0  0  0  0
   -5.3180    0.4860    0.0810 C   0  0  0  0  0  0  0  0  0  0  0  0
   -5.7750   -0.4480   -0.9350 N   0  0  0  0  0  0  0  0  0  0  0  0
   -0.2490    0.6130    1.9860 O   0  0  0  0  0  0  0  0  0  0  0  0
    0.4240    1.4600    1.1210 C   0  0  0  0  0  0  0  0  0  0  0  0
    1.1540    2.4460    1.4240 O   0  0  0  0  0  0  0  0  0  0  0  0
  2  1  1  6
  2  3  1  0
  2 14  1  0
  2 24  1  0
  3  4  1  0
  4  5  2  0
  4  6  1  0
  6  7  1  0
  7  8  2  0
  7 12  1  0
  8  9  1  0
  9 10  1  0
 10 11  1  0
 11 12  2  0
 12 13  1  0
 14 15  1  0
 15 16  1  1
 15 23  1  0
 16 17  1  0
 17 18  1  0
 18 19  1  0
 19 20  1  1
 19 21  1  0
 21 22  1  0
 23 24  1  0
 24 25  2  0
M  END
