
     RDKit          3D

 25 26  0  0  0  0  0  0  0  0999 V2000
    7.2600    1.8790   -0.8360 C   0  0  0  0  0  0  0  0  0  0  0  0
    6.3810    0.7540   -0.4720 C   0  0  0  0  0  0  0  0  0  0  0  0
    6.9110   -0.3670   -0.2890 O   0  0  0  0  0  0  0  0  0  0  0  0
    4.9210    0.8830   -0.3130 C   0  0  0  0  0  0  0  0  0  0  0  0
    4.2490   -0.1900    0.0130 C   0  0  0  0  0  0  0  0  0  0  0  0
    4.9390   -1.4210    0.2000 O   0  0  0  0  0  0  0  0  0  0  0  0
    4.4420   -2.2820    1.2060 C   0  0  0  0  0  0  0  0  0  0  0  0
    3.0420   -2.6900    0.8000 C   0  0  0  0  0  0  0  0  0  0  0  0
    2.3220   -1.5200    0.5520 O   0  0  0  0  0  0  0  0  0  0  0  0
    2.8180   -0.2770    0.2130 C   0  0  0  0  0  0  0  0  0  0  0  0
    2.0420    0.7630    0.0800 C   0  0  0  0  0  0  0  0  0  0  0  0
    2.5590    2.0310   -0.2670 O   0  0  0  0  0  0  0  0  0  0  0  0
    0.6170    0.6870    0.2770 C   0  0  0  0  0  0  0  0  0  0  0  0
   -0.0690    1.7630    0.1240 O   0  0  0  0  0  0  0  0  0  0  0  0
   -0.0970   -0.4420    0.6190 N   0  0  0  0  0  0  0  0  0  0  0  0
   -1.5160   -0.3650    0.7820 N   0  0  0  0  0  0  0  0  0  0  0  0
   -2.3840    0.0010   -0.2600 C   0  0  0  0  0  0  0  0  0  0  0  0
   -1.8930    0.2720   -1.3840 O   0  0  0  0  0  0  0  0  0  0  0  0
   -3.8370    0.0490    0.0200 C   0  0  2  0  0  0  0  0  0  0  0  0
   -4.1270   -0.2940    1.3370 O   0  0  0  0  0  0  0  0  0  0  0  0
   -4.6250   -0.8940   -0.8640 C   0  0  0  0  0  0  0  0  0  0  0  0
   -6.0430   -0.9030   -0.3140 C   0  0  0  0  0  0  0  0  0  0  0  0
   -6.6210    0.4620   -0.1670 C   0  0  0  0  0  0  0  0  0  0  0  0
   -5.7360    1.4450    0.3570 N   0  0  0  0  0  0  0  0  0  0  0  0
   -4.4180    1.4370   -0.2090 C   0  0  0  0  0  0  0  0  0  0  0  0
  1  2  1  0
  2  3  2  0
  2  4  1  0
  4  5  2  3
  5  6  1  0
  5 10  1  0
  6  7  1  0
  7  8  1  0
  8  9  1  0
  9 10  1  0
 10 11  2  3
 11 12  1  0
 11 13  1  0
 13 14  2  0
 13 15  1  0
 15 16  1  0
 16 17  1  0
 17 18  2  0
 17 19  1  0
 19 20  1  1
 19 21  1  0
 19 25  1  0
 21 22  1  0
 22 23  1  0
 23 24  1  0
 24 25  1  0
M  END
