
     RDKit          3D

 24 25  0  0  0  0  0  0  0  0999 V2000
    5.7200    0.1310    0.1800 C   0  0  0  0  0  0  0  0  0  0  0  0
    4.4740    0.8290    0.6120 C   0  0  1  0  0  0  0  0  0  0  0  0
    4.7500    2.2720    1.0420 C   0  0  0  0  0  0  0  0  0  0  0  0
    5.7410    2.2470    2.0500 O   0  0  0  0  0  0  0  0  0  0  0  0
    3.4560    0.8950   -0.4200 N   0  0  0  0  0  0  0  0  0  0  0  0
    2.1620    0.3230   -0.2430 C   0  0  0  0  0  0  0  0  0  0  0  0
    1.9270   -0.2470    0.8450 O   0  0  0  0  0  0  0  0  0  0  0  0
    1.1520    0.3670   -1.2190 N   0  0  0  0  0  0  0  0  0  0  0  0
   -0.1640   -0.2210   -1.0270 C   0  0  2  0  0  0  0  0  0  0  0  0
   -0.4480   -1.2440   -2.0910 C   0  0  0  0  0  0  0  0  0  0  0  0
   -1.7790   -1.8450   -2.0790 C   0  0  1  0  0  0  0  0  0  0  0  0
   -1.8340   -3.3250   -1.6460 C   0  0  0  0  0  0  0  0  0  0  0  0
   -2.4080   -2.1970   -0.8240 C   0  0  2  0  0  0  0  0  0  0  0  0
   -3.9240   -2.1330   -0.8730 C   0  0  0  0  0  0  0  0  0  0  0  0
   -4.4270   -1.0150   -0.2380 O   0  0  0  0  0  0  0  0  0  0  0  0
   -4.3490   -1.1120    1.1490 C   0  0  0  0  0  0  0  0  0  0  0  0
   -4.3280    0.1250    1.7860 O   0  0  0  0  0  0  0  0  0  0  0  0
   -3.5300    1.1900    1.5000 C   0  0  0  0  0  0  0  0  0  0  0  0
   -3.9520    2.3710    1.4430 O   0  0  0  0  0  0  0  0  0  0  0  0
   -2.0860    0.9780    1.2360 C   0  0  2  0  0  0  0  0  0  0  0  0
   -1.3390    1.8240    2.2780 C   0  0  0  0  0  0  0  0  0  0  0  0
   -1.7530    1.5280   -0.0490 N   0  0  0  0  0  0  0  0  0  0  0  0
   -1.1930    0.8450   -1.1270 C   0  0  0  0  0  0  0  0  0  0  0  0
   -1.5730    1.1360   -2.3010 O   0  0  0  0  0  0  0  0  0  0  0  0
  2  1  1  6
  2  3  1  0
  2  5  1  0
  3  4  1  0
  5  6  1  0
  6  7  2  0
  6  8  1  0
  9  8  1  6
  9 10  1  0
  9 23  1  0
 11 10  1  1
 11 12  1  0
 11 13  1  0
 13 12  1  6
 13 14  1  0
 14 15  1  0
 15 16  1  0
 16 17  1  0
 17 18  1  0
 18 19  2  0
 18 20  1  0
 20 21  1  1
 20 22  1  0
 22 23  1  0
 23 24  2  0
M  END
