
     RDKit          3D

 12 12  0  0  0  0  0  0  0  0999 V2000
    3.0400   -1.3040   -0.2180 C   0  0  0  0  0  0  0  0  0  0  0  0
    2.1030   -0.2770   -0.1200 O   0  0  0  0  0  0  0  0  0  0  0  0
    0.7370   -0.4380   -0.0250 C   0  0  0  0  0  0  0  0  0  0  0  0
    0.0930   -1.6490   -0.0130 C   0  0  0  0  0  0  0  0  0  0  0  0
   -1.2830   -1.6830    0.0860 C   0  0  0  0  0  0  0  0  0  0  0  0
   -2.0280   -0.5260    0.1740 C   0  0  0  0  0  0  0  0  0  0  0  0
   -3.4300   -0.6150    0.2740 O   0  0  0  0  0  0  0  0  0  0  0  0
   -1.4030    0.7000    0.1640 C   0  0  0  0  0  0  0  0  0  0  0  0
   -2.1260    1.8800    0.2510 O   0  0  0  0  0  0  0  0  0  0  0  0
   -0.0220    0.7310    0.0640 C   0  0  0  0  0  0  0  0  0  0  0  0
    0.6360    2.0600    0.0550 C   0  0  0  0  0  0  0  0  0  0  0  0
   -0.2970    3.0620    0.1520 O   0  0  0  0  0  0  0  0  0  0  0  0
  1  2  1  0
  2  3  1  0
  3  4  2  0
  3 10  1  0
  4  5  1  0
  5  6  2  0
  6  7  1  0
  6  8  1  0
  8  9  1  0
  8 10  2  0
 10 11  1  0
 11 12  1  0
M  END
