
     RDKit          3D

 12 12  0  0  0  0  0  0  0  0999 V2000
    3.6180    0.8780    1.8480 O   0  0  0  0  0  0  0  0  0  0  0  0
    2.6850    0.1430    1.0720 C   0  0  0  0  0  0  0  0  0  0  0  0
    2.1020    1.0730    0.0670 C   0  0  0  0  0  0  0  0  0  0  0  0
    1.1670    0.6010   -0.8030 O   0  0  0  0  0  0  0  0  0  0  0  0
   -0.0880    0.1130   -0.5620 C   0  0  0  0  0  0  0  0  0  0  0  0
   -0.6050    0.0790    0.7120 C   0  0  0  0  0  0  0  0  0  0  0  0
   -1.8910   -0.4310    0.9320 C   0  0  0  0  0  0  0  0  0  0  0  0
   -2.6700   -0.9050   -0.0950 C   0  0  0  0  0  0  0  0  0  0  0  0
   -3.9340   -1.4030    0.1380 O   0  0  0  0  0  0  0  0  0  0  0  0
   -2.1260   -0.8570   -1.3580 C   0  0  0  0  0  0  0  0  0  0  0  0
   -0.8780   -0.3680   -1.6080 C   0  0  0  0  0  0  0  0  0  0  0  0
   -0.3840   -0.3430   -2.8890 O   0  0  0  0  0  0  0  0  0  0  0  0
  1  2  1  0
  2  3  1  0
  3  4  1  0
  4  5  1  0
  5  6  2  0
  5 11  1  0
  6  7  1  0
  7  8  2  0
  8  9  1  0
  8 10  1  0
 10 11  2  0
 11 12  1  0
M  END
