
     RDKit          3D

 12 12  0  0  0  0  0  0  0  0999 V2000
   -3.9780    0.9170   -0.0810 O   0  0  0  0  0  0  0  0  0  0  0  0
   -3.6160   -0.3660    0.2930 C   0  0  0  0  0  0  0  0  0  0  0  0
   -2.1810   -0.6330   -0.1020 C   0  0  0  0  0  0  0  0  0  0  0  0
   -1.3040    0.2800    0.5250 O   0  0  0  0  0  0  0  0  0  0  0  0
    0.0490    0.1570    0.2570 C   0  0  0  0  0  0  0  0  0  0  0  0
    0.5320   -0.8170   -0.5900 C   0  0  0  0  0  0  0  0  0  0  0  0
    1.8930   -0.9160   -0.8400 C   0  0  0  0  0  0  0  0  0  0  0  0
    2.8000   -0.0460   -0.2510 C   0  0  0  0  0  0  0  0  0  0  0  0
    4.1680   -0.1400   -0.4990 O   0  0  0  0  0  0  0  0  0  0  0  0
    2.3140    0.9290    0.5970 C   0  0  0  0  0  0  0  0  0  0  0  0
    3.2370    1.7990    1.1840 O   0  0  0  0  0  0  0  0  0  0  0  0
    0.9510    1.0260    0.8460 C   0  0  0  0  0  0  0  0  0  0  0  0
  1  2  1  0
  2  3  1  0
  3  4  1  0
  4  5  1  0
  5  6  2  0
  5 12  1  0
  6  7  1  0
  7  8  2  0
  8  9  1  0
  8 10  1  0
 10 11  1  0
 10 12  2  0
M  END
