
     RDKit          3D

 11 11  0  0  0  0  0  0  0  0999 V2000
    3.6470   -0.8570   -0.5900 O   0  0  0  0  0  0  0  0  0  0  0  0
    3.3360    0.2500    0.2280 C   0  0  0  0  0  0  0  0  0  0  0  0
    1.9470    0.7060   -0.2310 C   0  0  0  0  0  0  0  0  0  0  0  0
    1.0210   -0.4550   -0.0160 C   0  0  0  0  0  0  0  0  0  0  0  0
   -0.3940   -0.1870   -0.4120 C   0  0  2  0  0  0  0  0  0  0  0  0
   -0.5520    0.1400   -1.7470 O   0  0  0  0  0  0  0  0  0  0  0  0
   -0.9900    0.9450    0.4030 C   0  0  0  0  0  0  0  0  0  0  0  0
   -2.4320    1.1570    0.0080 C   0  0  0  0  0  0  0  0  0  0  0  0
   -3.0650   -0.1570   -0.3970 C   0  0  0  0  0  0  0  0  0  0  0  0
   -2.4680   -1.1650    0.3420 O   0  0  0  0  0  0  0  0  0  0  0  0
   -1.1890   -1.4560   -0.0730 C   0  0  0  0  0  0  0  0  0  0  0  0
  1  2  1  0
  2  3  1  0
  3  4  1  0
  4  5  1  0
  5  6  1  6
  5  7  1  0
  5 11  1  0
  7  8  1  0
  8  9  1  0
  9 10  1  0
 10 11  1  0
M  END
