
     RDKit          3D

 12 12  0  0  0  0  0  0  0  0999 V2000
   -4.1540   -0.3140   -0.2600 C   0  0  0  0  0  0  0  0  0  0  0  0
   -2.7750    0.1580   -0.0020 C   0  0  0  0  0  0  0  0  0  0  0  0
   -2.5380    1.3310    0.3950 O   0  0  0  0  0  0  0  0  0  0  0  0
   -1.6470   -0.6080   -0.1640 O   0  0  0  0  0  0  0  0  0  0  0  0
   -0.3530   -0.2450    0.0520 C   0  0  2  0  0  0  0  0  0  0  0  0
   -0.1990    0.1330    1.4020 O   0  0  0  0  0  0  0  0  0  0  0  0
    0.2420    0.8300   -0.7810 C   0  0  0  0  0  0  0  0  0  0  0  0
    1.5610    1.2220   -0.1980 C   0  0  0  0  0  0  0  0  0  0  0  0
    2.4460    0.1320    0.2320 C   0  0  2  0  0  0  0  0  0  0  0  0
    3.4580   -0.1460   -0.7170 O   0  0  0  0  0  0  0  0  0  0  0  0
    1.8100   -1.1580    0.5920 C   0  0  0  0  0  0  0  0  0  0  0  0
    0.5480   -1.4710   -0.1470 C   0  0  0  0  0  0  0  0  0  0  0  0
  1  2  1  0
  2  3  2  0
  2  4  1  0
  4  5  1  0
  5  6  1  1
  5  7  1  0
  5 12  1  0
  7  8  1  0
  8  9  1  0
  9 10  1  6
  9 11  1  0
 11 12  1  0
M  END
