
     RDKit          3D

 25 28  0  0  0  0  0  0  0  0999 V2000
   -1.5990    4.0120    0.7060 C   0  0  0  0  0  0  0  0  0  0  0  0
   -1.5900    2.5630    0.4800 C   0  0  0  0  0  0  0  0  0  0  0  0
   -0.4370    1.8550    0.8000 C   0  0  0  0  0  0  0  0  0  0  0  0
   -0.3400    0.4870    0.6200 C   0  0  0  0  0  0  0  0  0  0  0  0
    0.8170   -0.2540    0.9370 N   0  0  0  0  0  0  0  0  0  0  0  0
    1.9420   -0.1320    0.3490 C   0  0  0  0  0  0  0  0  0  0  0  0
    2.0910    0.7520   -0.6520 N   0  0  0  0  0  0  0  0  0  0  0  0
    3.3040    0.8630   -1.2650 C   0  0  0  0  0  0  0  0  0  0  0  0
    3.4990    1.6730   -2.2060 O   0  0  0  0  0  0  0  0  0  0  0  0
    4.3490    0.0690   -0.8450 C   0  0  0  0  0  0  0  0  0  0  0  0
    5.5950    0.1260   -1.4130 C   0  0  0  0  0  0  0  0  0  0  0  0
    6.6260   -0.6830   -0.9720 C   0  0  0  0  0  0  0  0  0  0  0  0
    6.4120   -1.5780    0.0670 C   0  0  0  0  0  0  0  0  0  0  0  0
    5.1660   -1.6450    0.6470 C   0  0  0  0  0  0  0  0  0  0  0  0
    4.1470   -0.8190    0.1830 C   0  0  0  0  0  0  0  0  0  0  0  0
    2.9580   -0.9250    0.7790 N   0  0  0  0  0  0  0  0  0  0  0  0
   -1.4430   -0.1620    0.1050 C   0  0  0  0  0  0  0  0  0  0  0  0
   -2.5830    0.5510   -0.2100 C   0  0  0  0  0  0  0  0  0  0  0  0
   -2.6700    1.9000   -0.0300 C   0  0  0  0  0  0  0  0  0  0  0  0
   -3.8710    2.5810   -0.3720 N   0  0  0  0  0  0  0  0  0  0  0  0
   -3.7240   -0.2490   -0.7640 C   0  0  0  0  0  0  0  0  0  0  0  0
   -3.9440   -1.3910    0.2000 C   0  0  0  0  0  0  0  0  0  0  0  0
   -2.7250   -2.1930    0.4810 C   0  0  1  0  0  0  0  0  0  0  0  0
   -2.8640   -3.6490    0.0950 C   0  0  0  0  0  0  0  0  0  0  0  0
   -1.4690   -1.6280   -0.1370 C   0  0  0  0  0  0  0  0  0  0  0  0
  1  2  1  0
  2  3  2  0
  2 19  1  0
  3  4  1  0
  4  5  1  0
  4 17  2  0
  5  6  2  3
  6  7  1  0
  6 16  1  0
  7  8  1  0
  8  9  2  0
  8 10  1  0
 10 11  2  0
 10 15  1  0
 11 12  1  0
 12 13  2  0
 13 14  1  0
 14 15  2  0
 15 16  1  0
 17 18  1  0
 17 25  1  0
 18 19  2  0
 18 21  1  0
 19 20  1  0
 21 22  1  0
 22 23  1  0
 23 24  1  6
 23 25  1  0
M  CHG  1  20   1
M  END
