
     RDKit          3D

 13 13  0  0  0  0  0  0  0  0999 V2000
   -4.0950    0.0950   -0.0590 O   0  0  0  0  0  0  0  0  0  0  0  0
   -2.9130    0.7920   -0.0430 C   0  0  0  0  0  0  0  0  0  0  0  0
   -1.7430   -0.0140    0.4500 C   0  0  2  0  0  0  0  0  0  0  0  0
   -0.5050    0.8490    0.4240 C   0  0  0  0  0  0  0  0  0  0  0  0
    0.5460   -0.0360   -0.2400 C   0  0  1  0  0  0  0  0  0  0  0  0
    0.7630    0.3630   -1.5640 O   0  0  0  0  0  0  0  0  0  0  0  0
    1.8060    0.1390    0.5400 C   0  0  0  0  0  0  0  0  0  0  0  0
    2.9650   -0.6670    0.0230 C   0  0  2  0  0  0  0  0  0  0  0  0
    4.0580   -0.3790    0.8750 O   0  0  0  0  0  0  0  0  0  0  0  0
    3.3430   -0.2010   -1.2360 O   0  0  0  0  0  0  0  0  0  0  0  0
    0.0030   -1.2900   -0.1780 O   0  0  0  0  0  0  0  0  0  0  0  0
   -1.3670   -1.1440   -0.4550 C   0  0  2  0  0  0  0  0  0  0  0  0
   -1.6180   -0.9190   -1.7870 O   0  0  0  0  0  0  0  0  0  0  0  0
  1  2  1  0
  3  2  1  6
  3  4  1  0
  3 12  1  0
  4  5  1  0
  5  6  1  6
  5  7  1  0
  5 11  1  0
  7  8  1  0
  8  9  1  1
  8 10  1  0
 11 12  1  0
 12 13  1  6
M  END
