
     RDKit          3D

 25 28  0  0  0  0  0  0  0  0999 V2000
   -5.0560   -1.9080    0.8750 C   0  0  0  0  0  0  0  0  0  0  0  0
   -4.6510   -0.5490    1.4270 C   0  0  0  0  0  0  0  0  0  0  0  0
   -3.2150   -0.2630    1.2910 C   0  0  0  0  0  0  0  0  0  0  0  0
   -2.3260   -0.4910    2.3050 C   0  0  0  0  0  0  0  0  0  0  0  0
   -0.9860   -0.2770    2.1820 C   0  0  0  0  0  0  0  0  0  0  0  0
   -0.4930    0.1940    0.9750 C   0  0  0  0  0  0  0  0  0  0  0  0
    0.8660    0.4010    0.8520 C   0  0  0  0  0  0  0  0  0  0  0  0
    1.4010    0.8470   -0.3010 C   0  0  0  0  0  0  0  0  0  0  0  0
    2.7920    1.0300   -0.6000 C   0  0  0  0  0  0  0  0  0  0  0  0
    3.2700    2.1560   -1.2750 N   0  0  0  0  0  0  0  0  0  0  0  0
    4.5750    2.0600   -1.4610 C   0  0  0  0  0  0  0  0  0  0  0  0
    4.9980    0.8500   -0.9090 C   0  0  0  0  0  0  0  0  0  0  0  0
    6.2200    0.2460   -0.8430 C   0  0  0  0  0  0  0  0  0  0  0  0
    6.3290   -0.9880   -0.2570 C   0  0  0  0  0  0  0  0  0  0  0  0
    5.2480   -1.5950    0.2430 N   0  0  0  0  0  0  0  0  0  0  0  0
    4.0140   -1.0470    0.2070 C   0  0  0  0  0  0  0  0  0  0  0  0
    2.8490   -1.8310    0.6840 C   0  0  0  0  0  0  0  0  0  0  0  0
    3.8640    0.2160   -0.3770 C   0  0  0  0  0  0  0  0  0  0  0  0
    0.4910    1.0800   -1.3300 C   0  0  0  0  0  0  0  0  0  0  0  0
    0.9250    1.5080   -2.4570 O   0  0  0  0  0  0  0  0  0  0  0  0
   -0.8370    0.8830   -1.2190 N   0  0  0  0  0  0  0  0  0  0  0  0
   -1.3800    0.4370   -0.0790 C   0  0  0  0  0  0  0  0  0  0  0  0
   -2.7480    0.2270    0.0270 C   0  0  0  0  0  0  0  0  0  0  0  0
   -3.7710    0.4660   -0.9250 C   0  0  0  0  0  0  0  0  0  0  0  0
   -3.6240    0.9400   -2.2320 N   0  0  0  0  0  0  0  0  0  0  0  0
  1  2  1  0
  2  3  1  0
  3  4  2  0
  3 23  1  0
  4  5  1  0
  5  6  2  0
  6  7  1  0
  6 22  1  0
  7  8  2  0
  8  9  1  0
  8 19  1  0
  9 10  1  0
  9 18  2  0
 10 11  1  0
 11 12  2  0
 12 13  1  0
 12 18  1  0
 13 14  2  0
 14 15  1  0
 15 16  2  0
 16 17  1  0
 16 18  1  0
 19 20  2  0
 19 21  1  0
 21 22  1  0
 22 23  2  0
 23 24  1  0
 24 25  1  0
M  CHG  1  25   1
M  END
