
     RDKit          3D

 25 28  0  0  0  0  0  0  0  0999 V2000
   -7.1960    1.1730   -0.5000 N   0  0  0  0  0  0  0  0  0  0  0  0
   -5.8940    1.1450   -1.0500 C   0  0  0  0  0  0  0  0  0  0  0  0
   -5.7420    1.3980   -2.2960 N   0  0  0  0  0  0  0  0  0  0  0  0
   -4.7400    0.8310   -0.2020 C   0  0  0  0  0  0  0  0  0  0  0  0
   -4.9860    0.5690    1.1360 C   0  0  0  0  0  0  0  0  0  0  0  0
   -3.9450    0.2690    1.9800 C   0  0  0  0  0  0  0  0  0  0  0  0
   -2.6580    0.2260    1.5090 C   0  0  0  0  0  0  0  0  0  0  0  0
   -1.4880   -0.0320    2.0900 N   0  0  0  0  0  0  0  0  0  0  0  0
   -0.4860    0.0550    1.1670 C   0  0  0  0  0  0  0  0  0  0  0  0
    0.9270   -0.1610    1.4270 C   0  0  0  0  0  0  0  0  0  0  0  0
    1.3190   -0.4870    2.7330 C   0  0  0  0  0  0  0  0  0  0  0  0
    2.6340   -0.6930    2.9990 C   0  0  0  0  0  0  0  0  0  0  0  0
    3.5760   -0.5840    2.0050 C   0  0  0  0  0  0  0  0  0  0  0  0
    3.2370   -0.2600    0.6860 C   0  0  0  0  0  0  0  0  0  0  0  0
    4.2510   -0.1200   -0.3370 C   0  0  0  0  0  0  0  0  0  0  0  0
    4.4360    0.9820   -1.1370 C   0  0  0  0  0  0  0  0  0  0  0  0
    5.4210    1.0490   -2.1160 C   0  0  0  0  0  0  0  0  0  0  0  0
    6.2680   -0.0190   -2.3210 C   0  0  0  0  0  0  0  0  0  0  0  0
    6.0980   -1.1330   -1.5270 C   0  0  0  0  0  0  0  0  0  0  0  0
    5.1190   -1.1950   -0.5580 C   0  0  0  0  0  0  0  0  0  0  0  0
    1.8960   -0.0550    0.4330 C   0  0  0  0  0  0  0  0  0  0  0  0
    1.5400    0.2630   -0.8680 O   0  0  0  0  0  0  0  0  0  0  0  0
   -1.0810    0.3710    0.0170 N   0  0  0  0  0  0  0  0  0  0  0  0
   -2.4350    0.4880    0.1840 C   0  0  0  0  0  0  0  0  0  0  0  0
   -3.4580    0.7940   -0.6960 C   0  0  0  0  0  0  0  0  0  0  0  0
  1  2  1  0
  2  3  2  0
  2  4  1  0
  4  5  2  0
  4 25  1  0
  5  6  1  0
  6  7  2  0
  7  8  1  0
  7 24  1  0
  8  9  2  0
  9 10  1  0
  9 23  1  0
 10 11  2  0
 10 21  1  0
 11 12  1  0
 12 13  2  0
 13 14  1  0
 14 15  1  0
 14 21  2  0
 15 16  2  0
 15 20  1  0
 16 17  1  0
 17 18  2  0
 18 19  1  0
 19 20  2  0
 21 22  1  0
 23 24  1  0
 24 25  2  0
M  CHG  1   3   1
M  END
