
     RDKit          3D

 25 28  0  0  0  0  0  0  0  0999 V2000
    4.1080    2.8820    0.4830 C   0  0  0  0  0  0  0  0  0  0  0  0
    4.4960    1.4750    0.3100 C   0  0  0  0  0  0  0  0  0  0  0  0
    5.7600    1.0390    0.6700 C   0  0  0  0  0  0  0  0  0  0  0  0
    6.0690   -0.2890    0.4870 C   0  0  0  0  0  0  0  0  0  0  0  0
    5.1890   -1.2130   -0.0360 C   0  0  0  0  0  0  0  0  0  0  0  0
    5.5830   -2.5620   -0.1930 N   0  0  0  0  0  0  0  0  0  0  0  0
    3.9320   -0.7500   -0.3880 C   0  0  0  0  0  0  0  0  0  0  0  0
    3.6000    0.5700   -0.2150 C   0  0  0  0  0  0  0  0  0  0  0  0
    2.2390    1.0610   -0.5970 C   0  0  0  0  0  0  0  0  0  0  0  0
    2.1310    2.1860   -1.0880 O   0  0  0  0  0  0  0  0  0  0  0  0
    1.1910    0.1400   -0.3410 N   0  0  0  0  0  0  0  0  0  0  0  0
   -0.1470    0.4480   -0.6430 C   0  0  0  0  0  0  0  0  0  0  0  0
   -0.6120    1.6080   -1.1940 C   0  0  0  0  0  0  0  0  0  0  0  0
   -1.9750    1.8320   -1.4630 C   0  0  0  0  0  0  0  0  0  0  0  0
   -2.8510    0.8000   -1.1380 C   0  0  0  0  0  0  0  0  0  0  0  0
   -2.3940   -0.3670   -0.5860 C   0  0  0  0  0  0  0  0  0  0  0  0
   -3.3570   -1.2790   -0.3240 C   0  0  0  0  0  0  0  0  0  0  0  0
   -2.9670   -2.4900    0.2390 C   0  0  0  0  0  0  0  0  0  0  0  0
   -1.6250   -2.6750    0.4890 C   0  0  0  0  0  0  0  0  0  0  0  0
   -0.6810   -1.7250    0.2080 N   0  0  0  0  0  0  0  0  0  0  0  0
   -1.0760   -0.5620   -0.3340 C   0  0  0  0  0  0  0  0  0  0  0  0
   -4.6490   -0.6950   -0.7360 C   0  0  1  0  0  0  0  0  0  0  0  0
   -5.5470   -0.6710    0.4740 C   0  0  0  0  0  0  0  0  0  0  0  0
   -5.0170    0.1080    1.5510 N   0  0  0  0  0  0  0  0  0  0  0  0
   -4.3230    0.6530   -1.2650 C   0  0  0  0  0  0  0  0  0  0  0  0
  1  2  1  0
  2  3  2  0
  2  8  1  0
  3  4  1  0
  4  5  2  0
  5  6  1  0
  5  7  1  0
  7  8  2  0
  8  9  1  0
  9 10  2  0
  9 11  1  0
 11 12  1  0
 12 13  2  0
 12 21  1  0
 13 14  1  0
 14 15  2  0
 15 16  1  0
 15 25  1  0
 16 17  2  0
 16 21  1  0
 17 18  1  0
 17 22  1  0
 18 19  2  0
 19 20  1  0
 20 21  2  0
 22 23  1  1
 22 25  1  0
 23 24  1  0
M  CHG  1  24   1
M  END
