
     RDKit          3D

 25 28  0  0  0  0  0  0  0  0999 V2000
    5.5970   -1.4530    0.3900 C   0  0  0  0  0  0  0  0  0  0  0  0
    4.1930   -1.2000   -0.1070 C   0  0  0  0  0  0  0  0  0  0  0  0
    3.8190   -1.7610   -1.3360 C   0  0  0  0  0  0  0  0  0  0  0  0
    2.5030   -1.5440   -1.7500 C   0  0  0  0  0  0  0  0  0  0  0  0
    1.6850   -0.8020   -0.9300 N   0  0  0  0  0  0  0  0  0  0  0  0
    1.9760   -0.2920    0.1670 C   0  0  0  0  0  0  0  0  0  0  0  0
    1.1600    0.4470    1.1230 C   0  0  0  0  0  0  0  0  0  0  0  0
   -0.0590    1.1640    0.7170 C   0  0  0  0  0  0  0  0  0  0  0  0
   -0.2170    2.4980    0.5410 C   0  0  0  0  0  0  0  0  0  0  0  0
    0.9200    3.4070    0.9250 C   0  0  0  0  0  0  0  0  0  0  0  0
    1.3260    4.1570   -0.2360 N   0  0  0  0  0  0  0  0  0  0  0  0
   -1.3610    3.0310    0.1640 N   0  0  0  0  0  0  0  0  0  0  0  0
   -2.4700    2.2720   -0.0640 C   0  0  0  0  0  0  0  0  0  0  0  0
   -3.5480    2.7910   -0.3870 O   0  0  0  0  0  0  0  0  0  0  0  0
   -2.3480    0.8950    0.0880 C   0  0  0  0  0  0  0  0  0  0  0  0
   -1.1620    0.3300    0.4730 C   0  0  0  0  0  0  0  0  0  0  0  0
   -1.3330   -0.9920    0.4660 N   0  0  0  0  0  0  0  0  0  0  0  0
   -2.6010   -1.2640    0.0880 C   0  0  0  0  0  0  0  0  0  0  0  0
   -3.2950   -2.4680   -0.0770 C   0  0  0  0  0  0  0  0  0  0  0  0
   -2.5070   -3.7110    0.0720 C   0  0  0  0  0  0  0  0  0  0  0  0
   -4.5850   -2.5140   -0.4910 C   0  0  0  0  0  0  0  0  0  0  0  0
   -5.2340   -1.3120   -0.7610 C   0  0  0  0  0  0  0  0  0  0  0  0
   -4.5610   -0.1020   -0.5890 C   0  0  0  0  0  0  0  0  0  0  0  0
   -3.2760   -0.1080   -0.1600 C   0  0  0  0  0  0  0  0  0  0  0  0
    3.3110   -0.4730    0.6530 C   0  0  0  0  0  0  0  0  0  0  0  0
  1  2  1  0
  2  3  2  0
  2 25  1  0
  3  4  1  0
  4  5  2  0
  5  6  1  0
  6  7  1  0
  6 25  2  0
  7  8  1  0
  8  9  2  0
  8 16  1  0
  9 10  1  0
  9 12  1  0
 10 11  1  0
 12 13  1  0
 13 14  2  0
 13 15  1  0
 15 16  2  0
 15 24  1  0
 16 17  1  0
 17 18  1  0
 18 19  2  0
 18 24  1  0
 19 20  1  0
 19 21  1  0
 21 22  2  0
 22 23  1  0
 23 24  2  0
M  CHG  1  11   1
M  END
