
     RDKit          3D

 25 28  0  0  0  0  0  0  0  0999 V2000
   -2.1770   -0.5850    2.2960 C   0  0  0  0  0  0  0  0  0  0  0  0
   -2.9450    0.2410    1.3190 C   0  0  0  0  0  0  0  0  0  0  0  0
   -2.8290    0.0550    0.0300 C   0  0  0  0  0  0  0  0  0  0  0  0
   -2.0120   -0.9220   -0.4820 C   0  0  0  0  0  0  0  0  0  0  0  0
   -1.5070   -1.9930    0.2610 N   0  0  0  0  0  0  0  0  0  0  0  0
   -0.3060   -2.6790   -0.1350 C   0  0  0  0  0  0  0  0  0  0  0  0
    0.9230   -1.8610   -0.1610 C   0  0  0  0  0  0  0  0  0  0  0  0
    1.5150   -1.3780    0.9990 C   0  0  0  0  0  0  0  0  0  0  0  0
    2.6750   -0.6170    0.9750 C   0  0  0  0  0  0  0  0  0  0  0  0
    3.2990   -0.3040   -0.2130 C   0  0  0  0  0  0  0  0  0  0  0  0
    4.5270    0.5020   -0.2370 C   0  0  0  0  0  0  0  0  0  0  0  0
    5.2480    0.8870   -1.3350 C   0  0  0  0  0  0  0  0  0  0  0  0
    6.2910    1.6100   -0.8840 N   0  0  0  0  0  0  0  0  0  0  0  0
    6.2560    1.6950    0.4510 C   0  0  0  0  0  0  0  0  0  0  0  0
    7.0610    2.2860    1.2140 O   0  0  0  0  0  0  0  0  0  0  0  0
    5.1630    1.0070    0.8360 N   0  0  0  0  0  0  0  0  0  0  0  0
    2.7220   -0.7770   -1.3680 C   0  0  0  0  0  0  0  0  0  0  0  0
    1.5490   -1.5460   -1.3390 C   0  0  0  0  0  0  0  0  0  0  0  0
   -1.8120   -0.9980   -1.8820 C   0  0  0  0  0  0  0  0  0  0  0  0
   -2.4130   -0.1290   -2.7480 C   0  0  0  0  0  0  0  0  0  0  0  0
   -3.2270    0.8350   -2.2210 C   0  0  0  0  0  0  0  0  0  0  0  0
   -3.4370    0.9380   -0.8610 C   0  0  0  0  0  0  0  0  0  0  0  0
   -4.1290    1.9510   -0.3860 C   0  0  0  0  0  0  0  0  0  0  0  0
   -4.3100    2.2360    0.9690 N   0  0  0  0  0  0  0  0  0  0  0  0
   -3.9320    1.2280    1.8520 C   0  0  0  0  0  0  0  0  0  0  0  0
  1  2  1  0
  2  3  2  0
  2 25  1  0
  3  4  1  0
  3 22  1  0
  4  5  1  0
  4 19  2  0
  5  6  1  0
  6  7  1  0
  7  8  2  0
  7 18  1  0
  8  9  1  0
  9 10  2  0
 10 11  1  0
 10 17  1  0
 11 12  2  0
 11 16  1  0
 12 13  1  0
 13 14  1  0
 14 15  2  0
 14 16  1  0
 17 18  2  0
 19 20  1  0
 20 21  2  0
 21 22  1  0
 22 23  2  0
 23 24  1  0
 24 25  1  0
M  CHG  1  24   1
M  END
