
     RDKit          3D

 42 45  0  0  0  0  0  0  0  0999 V2000
   -6.8530   -0.0430   -3.3380 C   0  0  0  0  0  0  0  0  0  0  0  0
   -5.3980    0.0100   -3.0290 C   0  0  0  0  0  0  0  0  0  0  0  0
   -4.9330   -0.0020   -1.7810 C   0  0  0  0  0  0  0  0  0  0  0  0
   -5.9130   -0.0710   -0.6910 C   0  0  1  0  0  0  0  0  0  0  0  0
   -6.4570   -1.4100   -0.8220 O   0  0  0  0  0  0  0  0  0  0  0  0
   -5.3820   -2.1950   -0.4150 C   0  0  0  0  0  0  0  0  0  0  0  0
   -4.8040   -1.4890    0.8110 C   0  0  1  0  0  0  0  0  0  0  0  0
   -3.3860   -1.4810    0.8150 N   0  0  0  0  0  0  0  0  0  0  0  0
   -2.6550   -2.1760    1.8730 C   0  0  0  0  0  0  0  0  0  0  0  0
   -3.3800   -2.7350    2.7190 O   0  0  0  0  0  0  0  0  0  0  0  0
   -1.2380   -2.1700    1.8710 N   0  0  0  0  0  0  0  0  0  0  0  0
   -0.4930   -2.8310    2.8640 C   0  0  0  0  0  0  0  0  0  0  0  0
   -1.0690   -3.6840    3.7830 C   0  0  0  0  0  0  0  0  0  0  0  0
   -0.2970   -4.3780    4.7260 C   0  0  0  0  0  0  0  0  0  0  0  0
    1.0580   -4.1970    4.7230 C   0  0  0  0  0  0  0  0  0  0  0  0
    1.6440   -3.3310    3.7910 C   0  0  0  0  0  0  0  0  0  0  0  0
    0.8990   -2.6420    2.8590 C   0  0  0  0  0  0  0  0  0  0  0  0
    1.4350   -1.7210    1.9490 N   0  0  0  0  0  0  0  0  0  0  0  0
    2.8310   -1.5590    1.6320 C   0  0  0  0  0  0  0  0  0  0  0  0
    3.6410   -2.2920    2.2010 O   0  0  0  0  0  0  0  0  0  0  0  0
    3.2850   -0.6040    0.7080 N   0  0  0  0  0  0  0  0  0  0  0  0
    4.6340   -0.3590    0.3150 C   0  0  0  0  0  0  0  0  0  0  0  0
    5.7060   -1.0310    0.8380 C   0  0  0  0  0  0  0  0  0  0  0  0
    6.9950   -0.7680    0.4200 C   0  0  0  0  0  0  0  0  0  0  0  0
    7.2210    0.1910   -0.5440 C   0  0  0  0  0  0  0  0  0  0  0  0
    6.1680    0.8860   -1.0930 C   0  0  0  0  0  0  0  0  0  0  0  0
    6.3330    1.8800   -2.1180 N   0  0  0  0  0  0  0  0  0  0  0  0
    7.4380    2.1140   -2.9180 C   0  0  0  0  0  0  0  0  0  0  0  0
    8.4680    1.3640   -2.7760 O   0  0  0  0  0  0  0  0  0  0  0  0
    7.5850    3.1540   -3.9560 C   0  0  0  0  0  0  0  0  0  0  0  0
    6.6280    4.1160   -4.0170 O   0  0  0  0  0  0  0  0  0  0  0  0
    6.5290    4.9760   -2.9610 C   0  0  0  0  0  0  0  0  0  0  0  0
    4.9090    0.5860   -0.6430 C   0  0  0  0  0  0  0  0  0  0  0  0
   -5.4620   -0.1110    0.6780 C   0  0  1  0  0  0  0  0  0  0  0  0
   -4.8400    0.9200    1.4720 C   0  0  0  0  0  0  0  0  0  0  0  0
   -3.5950    1.5810    1.1260 C   0  0  0  0  0  0  0  0  0  0  0  0
   -2.4770    1.2820    1.8210 C   0  0  0  0  0  0  0  0  0  0  0  0
   -1.3570    2.0410    1.3190 C   0  0  0  0  0  0  0  0  0  0  0  0
   -1.8830    2.9050    0.3660 O   0  0  0  0  0  0  0  0  0  0  0  0
   -3.2750    2.6210    0.1980 C   0  0  0  0  0  0  0  0  0  0  0  0
   -3.9900    3.3100   -0.6830 C   0  0  0  0  0  0  0  0  0  0  0  0
   -5.6620    3.2050   -1.0440 Cl  0  0  0  0  0  0  0  0  0  0  0  0
  1  2  1  0
  2  3  2  3
  4  3  1  6
  4  5  1  0
  4 34  1  0
  5  6  1  0
  6  7  1  0
  7  8  1  6
  7 34  1  0
  8  9  1  0
  9 10  2  0
  9 11  1  0
 11 12  1  0
 12 13  2  0
 12 17  1  0
 13 14  1  0
 14 15  2  0
 15 16  1  0
 16 17  2  0
 17 18  1  0
 18 19  1  0
 19 20  2  0
 19 21  1  0
 21 22  1  0
 22 23  2  0
 22 33  1  0
 23 24  1  0
 24 25  2  0
 25 26  1  0
 26 27  1  0
 26 33  2  0
 27 28  1  0
 28 29  2  0
 28 30  1  0
 30 31  1  0
 31 32  1  0
 34 35  1  6
 35 36  1  0
 36 37  2  0
 36 40  1  0
 37 38  1  0
 38 39  1  0
 39 40  1  0
 40 41  2  3
 41 42  1  0
M  END
