
     RDKit          3D

 42 45  0  0  0  0  0  0  0  0999 V2000
    9.7160    1.5360    3.0150 C   0  0  0  0  0  0  0  0  0  0  0  0
    8.7650    0.3950    3.1810 C   0  0  0  0  0  0  0  0  0  0  0  0
    7.6080    0.5950    3.6400 O   0  0  0  0  0  0  0  0  0  0  0  0
    9.1450   -0.8730    2.8350 O   0  0  0  0  0  0  0  0  0  0  0  0
    8.3140   -1.9870    2.9550 C   0  0  0  0  0  0  0  0  0  0  0  0
    7.1340   -1.8200    2.0310 C   0  0  0  0  0  0  0  0  0  0  0  0
    6.1930   -2.6760    2.1150 O   0  0  0  0  0  0  0  0  0  0  0  0
    7.0350   -0.7840    1.1010 N   0  0  0  0  0  0  0  0  0  0  0  0
    5.9600   -0.5850    0.2220 C   0  0  0  0  0  0  0  0  0  0  0  0
    5.9130    0.6400   -0.4640 C   0  0  0  0  0  0  0  0  0  0  0  0
    4.9120    0.9260   -1.3490 C   0  0  0  0  0  0  0  0  0  0  0  0
    3.8910    0.0420   -1.6270 C   0  0  0  0  0  0  0  0  0  0  0  0
    2.8030    0.3430   -2.5920 C   0  0  1  0  0  0  0  0  0  0  0  0
    2.6100   -0.7100   -3.6320 C   0  0  0  0  0  0  0  0  0  0  0  0
    1.5280    0.7520   -1.8880 C   0  0  0  0  0  0  0  0  0  0  0  0
    0.9790   -0.2810   -0.9610 C   0  0  0  0  0  0  0  0  0  0  0  0
   -0.2890    0.2480   -0.3380 C   0  0  0  0  0  0  0  0  0  0  0  0
   -0.7140    1.3930   -0.6390 O   0  0  0  0  0  0  0  0  0  0  0  0
   -0.9490   -0.6070    0.5840 N   0  0  0  0  0  0  0  0  0  0  0  0
   -2.1110   -0.2140    1.2040 N   0  0  0  0  0  0  0  0  0  0  0  0
   -3.2480    0.0070    0.6960 C   0  0  0  0  0  0  0  0  0  0  0  0
   -4.3240    0.4220    1.6200 C   0  0  0  0  0  0  0  0  0  0  0  0
   -4.3610    0.0640    2.8050 O   0  0  0  0  0  0  0  0  0  0  0  0
   -5.3880    1.2970    1.0920 C   0  0  0  0  0  0  0  0  0  0  0  0
   -6.5010    1.8480    1.6930 C   0  0  0  0  0  0  0  0  0  0  0  0
   -6.9120    1.6620    3.1200 C   0  0  0  0  0  0  0  0  0  0  0  0
   -7.1000    2.5590    0.7300 N   0  0  0  0  0  0  0  0  0  0  0  0
   -6.4210    2.4780   -0.4240 C   0  0  0  0  0  0  0  0  0  0  0  0
   -6.7380    3.1110   -1.7280 C   0  0  0  0  0  0  0  0  0  0  0  0
   -5.2930    1.6620   -0.2350 C   0  0  0  0  0  0  0  0  0  0  0  0
   -4.2110    1.2320   -1.1500 C   0  0  0  0  0  0  0  0  0  0  0  0
   -3.6290   -0.1000   -0.7310 C   0  0  2  0  0  0  0  0  0  0  0  0
   -4.6060   -1.2070   -0.8620 C   0  0  0  0  0  0  0  0  0  0  0  0
   -5.8670   -1.0410   -1.3910 C   0  0  0  0  0  0  0  0  0  0  0  0
   -6.7690   -2.1020   -1.5030 C   0  0  0  0  0  0  0  0  0  0  0  0
   -6.3920   -3.3550   -1.0740 C   0  0  0  0  0  0  0  0  0  0  0  0
   -7.4980   -4.7140   -1.2000 Cl  0  0  0  0  0  0  0  0  0  0  0  0
   -5.1620   -3.5150   -0.5590 N   0  0  0  0  0  0  0  0  0  0  0  0
   -4.2830   -2.4820   -0.4490 C   0  0  0  0  0  0  0  0  0  0  0  0
   -3.1630   -2.7440    0.0460 O   0  0  0  0  0  0  0  0  0  0  0  0
    3.9140   -1.1640   -0.9710 C   0  0  0  0  0  0  0  0  0  0  0  0
    4.9420   -1.4580   -0.0600 C   0  0  0  0  0  0  0  0  0  0  0  0
  1  2  1  0
  2  3  2  0
  2  4  1  0
  4  5  1  0
  5  6  1  0
  6  7  2  0
  6  8  1  0
  8  9  1  0
  9 10  2  0
  9 42  1  0
 10 11  1  0
 11 12  2  0
 12 13  1  0
 12 41  1  0
 13 14  1  1
 13 15  1  0
 15 16  1  0
 16 17  1  0
 17 18  2  0
 17 19  1  0
 19 20  1  0
 20 21  2  3
 21 22  1  0
 21 32  1  0
 22 23  2  0
 22 24  1  0
 24 25  2  0
 24 30  1  0
 25 26  1  0
 25 27  1  0
 27 28  1  0
 28 29  1  0
 28 30  2  0
 30 31  1  0
 31 32  1  0
 32 33  1  1
 33 34  2  0
 33 39  1  0
 34 35  1  0
 35 36  2  0
 36 37  1  0
 36 38  1  0
 38 39  1  0
 39 40  2  0
 41 42  2  0
M  END
