
     RDKit          3D

 42 45  0  0  0  0  0  0  0  0999 V2000
   -0.6550   -5.6220   -4.8030 C   0  0  0  0  0  0  0  0  0  0  0  0
   -1.3630   -4.3790   -4.3330 C   0  0  0  0  0  0  0  0  0  0  0  0
   -0.9140   -4.0080   -2.9380 C   0  0  0  0  0  0  0  0  0  0  0  0
   -1.6300   -2.7540   -2.4630 C   0  0  0  0  0  0  0  0  0  0  0  0
   -2.4570   -2.2720   -3.2510 O   0  0  0  0  0  0  0  0  0  0  0  0
   -1.3380   -2.2120   -1.2020 N   0  0  0  0  0  0  0  0  0  0  0  0
   -1.9550   -1.0590   -0.6760 C   0  0  0  0  0  0  0  0  0  0  0  0
   -3.2990   -0.7740   -1.0050 C   0  0  0  0  0  0  0  0  0  0  0  0
   -4.0430    0.1910   -0.3600 C   0  0  0  0  0  0  0  0  0  0  0  0
   -3.4650    0.9260    0.6690 C   0  0  0  0  0  0  0  0  0  0  0  0
   -4.1580    1.9770    1.4090 C   0  0  0  0  0  0  0  0  0  0  0  0
   -4.9200    2.8700    0.8050 C   0  0  0  0  0  0  0  0  0  0  0  0
   -5.1510    2.8540   -0.9420 Cl  0  0  0  0  0  0  0  0  0  0  0  0
   -5.6080    3.9250    1.5900 C   0  0  0  0  0  0  0  0  0  0  0  0
   -5.2520    3.7630    3.0460 C   0  0  0  0  0  0  0  0  0  0  0  0
   -2.1710    0.6620    0.9980 C   0  0  0  0  0  0  0  0  0  0  0  0
   -1.4410   -0.2990    0.3310 C   0  0  0  0  0  0  0  0  0  0  0  0
    0.0490   -0.2300    0.6830 C   0  0  1  0  0  0  0  0  0  0  0  0
    0.8050   -0.8980   -0.3540 N   0  0  0  0  0  0  0  0  0  0  0  0
    2.2560   -0.9360   -0.1130 C   0  0  0  0  0  0  0  0  0  0  0  0
    2.7310   -0.4190    0.9120 O   0  0  0  0  0  0  0  0  0  0  0  0
    3.1130   -1.5520   -1.0310 N   0  0  0  0  0  0  0  0  0  0  0  0
    4.4960   -1.6850   -0.9630 C   0  0  0  0  0  0  0  0  0  0  0  0
    5.2400   -1.2090    0.0740 C   0  0  0  0  0  0  0  0  0  0  0  0
    6.6390   -1.3640    0.1040 C   0  0  0  0  0  0  0  0  0  0  0  0
    7.2810   -2.0030   -0.9190 C   0  0  0  0  0  0  0  0  0  0  0  0
    6.5600   -2.4910   -1.9720 C   0  0  0  0  0  0  0  0  0  0  0  0
    5.1950   -2.3360   -1.9960 C   0  0  0  0  0  0  0  0  0  0  0  0
    4.4850   -2.8480   -3.0900 O   0  0  0  0  0  0  0  0  0  0  0  0
    0.4850    1.1950    0.4420 C   0  0  0  0  0  0  0  0  0  0  0  0
    0.2440    1.5410   -0.8360 O   0  0  0  0  0  0  0  0  0  0  0  0
    1.0590    2.2010    1.1580 N   0  0  0  0  0  0  0  0  0  0  0  0
    1.1840    3.5490    0.5010 C   0  0  0  0  0  0  0  0  0  0  0  0
    0.7320    4.6850    1.3220 C   0  0  0  0  0  0  0  0  0  0  0  0
    0.5380    4.3840    2.7080 N   0  0  0  0  0  0  0  0  0  0  0  0
    1.1360    3.2610    3.2880 C   0  0  0  0  0  0  0  0  0  0  0  0
    1.1520    3.1480    4.5360 O   0  0  0  0  0  0  0  0  0  0  0  0
    1.7390    2.2280    2.4350 C   0  0  0  0  0  0  0  0  0  0  0  0
    0.1400   -0.6080    2.0700 C   0  0  0  0  0  0  0  0  0  0  0  0
   -0.6600    0.2730    3.0150 C   0  0  0  0  0  0  0  0  0  0  0  0
   -1.5300    1.2240    2.2290 C   0  0  0  0  0  0  0  0  0  0  0  0
   -1.7760    2.3810    2.4730 O   0  0  0  0  0  0  0  0  0  0  0  0
  1  2  1  0
  2  3  1  0
  3  4  1  0
  4  5  2  0
  4  6  1  0
  6  7  1  0
  7  8  2  0
  7 17  1  0
  8  9  1  0
  9 10  2  0
 10 11  1  0
 10 16  1  0
 11 12  2  3
 12 13  1  0
 12 14  1  0
 14 15  1  0
 16 17  2  0
 16 41  1  0
 17 18  1  0
 18 19  1  6
 18 30  1  0
 18 39  1  0
 19 20  1  0
 20 21  2  0
 20 22  1  0
 22 23  1  0
 23 24  2  0
 23 28  1  0
 24 25  1  0
 25 26  2  0
 26 27  1  0
 27 28  2  0
 28 29  1  0
 30 31  2  0
 30 32  1  0
 32 33  1  0
 32 38  1  0
 33 34  1  0
 34 35  1  0
 35 36  1  0
 36 37  2  0
 36 38  1  0
 39 40  1  0
 40 41  1  0
 41 42  2  0
M  END
