
     RDKit          3D

 42 45  0  0  0  0  0  0  0  0999 V2000
   -2.0180   -0.6260   -4.1260 C   0  0  0  0  0  0  0  0  0  0  0  0
   -2.1200   -0.2770   -2.6370 C   0  0  0  0  0  0  0  0  0  0  0  0
   -1.3010    0.9280   -2.3250 C   0  0  0  0  0  0  0  0  0  0  0  0
   -1.3040    1.3570   -0.9660 N   0  0  0  0  0  0  0  0  0  0  0  0
   -2.4180    0.9230   -0.1720 C   0  0  0  0  0  0  0  0  0  0  0  0
   -2.0470    0.6760    1.2410 C   0  0  0  0  0  0  0  0  0  0  0  0
   -2.6000    1.3380    2.2120 C   0  0  0  0  0  0  0  0  0  0  0  0
   -3.6250    2.3830    2.0600 C   0  0  0  0  0  0  0  0  0  0  0  0
   -3.4810    3.3990    1.1500 C   0  0  0  0  0  0  0  0  0  0  0  0
   -4.4630    4.3540    1.0090 C   0  0  0  0  0  0  0  0  0  0  0  0
   -5.6110    4.3120    1.7790 C   0  0  0  0  0  0  0  0  0  0  0  0
   -5.7380    3.3020    2.6750 C   0  0  0  0  0  0  0  0  0  0  0  0
   -4.7710    2.3460    2.8260 C   0  0  0  0  0  0  0  0  0  0  0  0
   -7.0590    3.4810    3.3700 C   0  0  0  0  0  0  0  0  0  0  0  0
   -7.2530    4.9760    3.2840 C   0  0  0  0  0  0  0  0  0  0  0  0
   -6.8180    5.2150    1.8280 C   0  0  0  0  0  0  0  0  0  0  0  0
   -1.0390   -0.3400    1.5670 C   0  0  0  0  0  0  0  0  0  0  0  0
   -0.7340   -0.5540    2.7500 O   0  0  0  0  0  0  0  0  0  0  0  0
   -0.3960   -1.0880    0.6160 O   0  0  0  0  0  0  0  0  0  0  0  0
    0.5470   -2.0380    0.9500 C   0  0  1  0  0  0  0  0  0  0  0  0
    0.1840   -3.3550    0.3780 C   0  0  0  0  0  0  0  0  0  0  0  0
   -0.6620   -4.1300    0.9190 O   0  0  0  0  0  0  0  0  0  0  0  0
    0.9120   -3.5120   -0.7630 O   0  0  0  0  0  0  0  0  0  0  0  0
    1.9290   -2.5360   -0.8730 C   0  0  0  0  0  0  0  0  0  0  0  0
    2.6850   -2.3750   -1.9400 C   0  0  0  0  0  0  0  0  0  0  0  0
    3.7210   -1.3670   -2.0280 C   0  0  0  0  0  0  0  0  0  0  0  0
    3.9480   -0.5930   -1.0850 O   0  0  0  0  0  0  0  0  0  0  0  0
    4.5300   -1.2100   -3.1930 N   0  0  0  0  0  0  0  0  0  0  0  0
    5.5570   -0.2230   -3.3170 C   0  0  0  0  0  0  0  0  0  0  0  0
    5.0220    1.1910   -3.1910 C   0  0  0  0  0  0  0  0  0  0  0  0
    4.0230    1.4880   -4.2330 C   0  0  0  0  0  0  0  0  0  0  0  0
    3.7280    0.6040   -5.0810 O   0  0  0  0  0  0  0  0  0  0  0  0
    3.3780    2.7060   -4.3330 O   0  0  0  0  0  0  0  0  0  0  0  0
    1.9220   -1.8120    0.4060 C   0  0  2  0  0  0  0  0  0  0  0  0
    2.8920   -2.4860    1.3060 C   0  0  0  0  0  0  0  0  0  0  0  0
    2.9480   -3.8530    1.4490 C   0  0  0  0  0  0  0  0  0  0  0  0
    3.8530   -4.4800    2.2950 C   0  0  0  0  0  0  0  0  0  0  0  0
    4.7450   -3.7400    3.0340 C   0  0  0  0  0  0  0  0  0  0  0  0
    5.6620   -4.3510    3.8890 O   0  0  0  0  0  0  0  0  0  0  0  0
    5.6550   -5.7640    3.9790 C   0  0  0  0  0  0  0  0  0  0  0  0
    4.7090   -2.3570    2.9060 C   0  0  0  0  0  0  0  0  0  0  0  0
    3.8050   -1.7470    2.0630 C   0  0  0  0  0  0  0  0  0  0  0  0
  1  2  1  0
  2  3  1  0
  3  4  1  0
  4  5  1  0
  5  6  1  0
  6  7  2  3
  6 17  1  0
  7  8  1  0
  8  9  2  0
  8 13  1  0
  9 10  1  0
 10 11  2  0
 11 12  1  0
 11 16  1  0
 12 13  2  0
 12 14  1  0
 14 15  1  0
 15 16  1  0
 17 18  2  0
 17 19  1  0
 20 19  1  6
 20 21  1  0
 20 34  1  0
 21 22  2  0
 21 23  1  0
 23 24  1  0
 24 25  2  3
 24 34  1  0
 25 26  1  0
 26 27  2  0
 26 28  1  0
 28 29  1  0
 29 30  1  0
 30 31  1  0
 31 32  2  0
 31 33  1  0
 34 35  1  1
 35 36  2  0
 35 42  1  0
 36 37  1  0
 37 38  2  0
 38 39  1  0
 38 41  1  0
 39 40  1  0
 41 42  2  0
M  CHG  1   4   1
M  END
