
     RDKit          3D

 41 44  0  0  0  0  0  0  0  0999 V2000
    2.4430    4.7960    2.9750 C   0  0  0  0  0  0  0  0  0  0  0  0
    3.2070    4.1380    1.8600 C   0  0  0  0  0  0  0  0  0  0  0  0
    3.5650    2.8370    2.2780 O   0  0  0  0  0  0  0  0  0  0  0  0
    4.3020    1.9600    1.4460 C   0  0  0  0  0  0  0  0  0  0  0  0
    4.5830    2.4570    0.3460 O   0  0  0  0  0  0  0  0  0  0  0  0
    4.6290    0.6690    1.9310 C   0  0  0  0  0  0  0  0  0  0  0  0
    4.2270    0.2490    3.1840 O   0  0  0  0  0  0  0  0  0  0  0  0
    3.1450    0.7280    3.8780 C   0  0  0  0  0  0  0  0  0  0  0  0
    1.8670    0.4650    3.1350 C   0  0  0  0  0  0  0  0  0  0  0  0
    0.8540    1.3760    3.0500 C   0  0  0  0  0  0  0  0  0  0  0  0
   -0.3290    1.0860    2.3580 C   0  0  0  0  0  0  0  0  0  0  0  0
   -0.5100   -0.1300    1.7370 C   0  0  0  0  0  0  0  0  0  0  0  0
   -1.7560   -0.4410    1.0060 C   0  0  0  0  0  0  0  0  0  0  0  0
   -2.0770   -1.6170    0.3900 C   0  0  0  0  0  0  0  0  0  0  0  0
   -3.3220   -1.4760   -0.1590 C   0  0  0  0  0  0  0  0  0  0  0  0
   -3.7270   -0.1850    0.1500 C   0  0  0  0  0  0  0  0  0  0  0  0
   -5.0380    0.3680   -0.2690 C   0  0  1  0  0  0  0  0  0  0  0  0
   -4.9750    1.8670   -0.3240 C   0  0  0  0  0  0  0  0  0  0  0  0
   -4.6620    2.5770    0.9390 C   0  0  0  0  0  0  0  0  0  0  0  0
   -5.5710    2.3320    1.9770 O   0  0  0  0  0  0  0  0  0  0  0  0
   -5.3860   -0.0770   -1.6060 N   0  0  0  0  0  0  0  0  0  0  0  0
   -6.2750   -1.1730   -1.6720 C   0  0  1  0  0  0  0  0  0  0  0  0
   -6.8320   -1.6860   -0.3840 C   0  0  0  0  0  0  0  0  0  0  0  0
   -7.9250   -0.7920   -0.1170 N   0  0  0  0  0  0  0  0  0  0  0  0
   -8.6420   -0.7960   -1.3810 C   0  0  0  0  0  0  0  0  0  0  0  0
   -7.5710   -0.8400   -2.4260 C   0  0  1  0  0  0  0  0  0  0  0  0
   -7.4540    0.2940   -3.1930 O   0  0  0  0  0  0  0  0  0  0  0  0
   -7.6980    0.0970   -4.5300 C   0  0  0  0  0  0  0  0  0  0  0  0
   -2.7750    0.3670    0.8290 O   0  0  0  0  0  0  0  0  0  0  0  0
    0.5110   -1.0480    1.8220 C   0  0  0  0  0  0  0  0  0  0  0  0
    1.6760   -0.7670    2.5030 C   0  0  0  0  0  0  0  0  0  0  0  0
    5.3380   -0.2460    1.2520 C   0  0  0  0  0  0  0  0  0  0  0  0
    5.5280   -1.5270    2.0230 C   0  0  0  0  0  0  0  0  0  0  0  0
    5.8300   -0.0080   -0.0570 C   0  0  0  0  0  0  0  0  0  0  0  0
    6.5220   -0.7290   -0.8610 C   0  0  0  0  0  0  0  0  0  0  0  0
    7.1060   -2.0260   -0.8600 C   0  0  0  0  0  0  0  0  0  0  0  0
    7.0620   -2.8540    0.0510 O   0  0  0  0  0  0  0  0  0  0  0  0
    7.8770   -2.4830   -2.0920 C   0  0  2  0  0  0  0  0  0  0  0  0
    7.9360   -1.4950   -3.2020 C   0  0  0  0  0  0  0  0  0  0  0  0
    8.1610   -3.9070   -2.2760 C   0  0  0  0  0  0  0  0  0  0  0  0
    9.2420   -3.0420   -1.6720 C   0  0  0  0  0  0  0  0  0  0  0  0
  1  2  1  0
  2  3  1  0
  3  4  1  0
  4  5  2  0
  4  6  1  0
  6  7  1  0
  6 32  2  3
  7  8  1  0
  8  9  1  0
  9 10  2  0
  9 31  1  0
 10 11  1  0
 11 12  2  0
 12 13  1  0
 12 30  1  0
 13 14  2  0
 13 29  1  0
 14 15  1  0
 15 16  2  0
 16 17  1  0
 16 29  1  0
 17 18  1  6
 17 21  1  0
 18 19  1  0
 19 20  1  0
 22 21  1  1
 22 23  1  0
 22 26  1  0
 23 24  1  0
 24 25  1  0
 25 26  1  0
 26 27  1  1
 27 28  1  0
 30 31  2  0
 32 33  1  0
 32 34  1  0
 34 35  2  3
 35 36  1  0
 36 37  2  0
 36 38  1  0
 38 39  1  6
 38 40  1  0
 38 41  1  0
 40 41  1  0
M  CHG  1  21   1
M  END
