
     RDKit          3D

 42 42  0  0  0  0  0  0  0  0999 V2000
    4.6460   -1.5120   -3.5630 C   0  0  0  0  0  0  0  0  0  0  0  0
    4.3240   -1.1190   -2.1650 C   0  0  0  0  0  0  0  0  0  0  0  0
    3.9030   -1.9940   -1.3680 O   0  0  0  0  0  0  0  0  0  0  0  0
    4.4890    0.2290   -1.7290 N   0  0  0  0  0  0  0  0  0  0  0  0
    4.1920    0.6570   -0.4010 C   0  0  1  0  0  0  0  0  0  0  0  0
    5.3210    0.9630    0.5030 C   0  0  0  0  0  0  0  0  0  0  0  0
    6.2890    2.0140    0.1720 C   0  0  1  0  0  0  0  0  0  0  0  0
    7.2860    2.0640    1.3580 C   0  0  0  0  0  0  0  0  0  0  0  0
    8.6080    1.4700    1.0220 C   0  0  0  0  0  0  0  0  0  0  0  0
    8.5490    0.2600    0.1390 C   0  0  0  0  0  0  0  0  0  0  0  0
    7.8480    0.5340   -1.1630 C   0  0  0  0  0  0  0  0  0  0  0  0
    7.1420    1.8440   -1.0390 C   0  0  0  0  0  0  0  0  0  0  0  0
    3.1370    1.7470   -0.3670 C   0  0  1  0  0  0  0  0  0  0  0  0
    3.5380    2.8690   -1.0970 O   0  0  0  0  0  0  0  0  0  0  0  0
    1.8190    1.3010   -0.8620 C   0  0  0  0  0  0  0  0  0  0  0  0
    1.1810    0.1550   -0.0910 C   0  0  2  0  0  0  0  0  0  0  0  0
   -0.1140   -0.1040   -0.7670 C   0  0  0  0  0  0  0  0  0  0  0  0
   -0.6220    0.7090   -1.6140 O   0  0  0  0  0  0  0  0  0  0  0  0
   -0.8610   -1.2640   -0.5130 N   0  0  0  0  0  0  0  0  0  0  0  0
   -2.1210   -1.5870   -1.1200 C   0  0  1  0  0  0  0  0  0  0  0  0
   -2.2100   -2.8570   -1.8190 C   0  0  0  0  0  0  0  0  0  0  0  0
   -1.8790   -4.1290   -1.1530 C   0  0  0  0  0  0  0  0  0  0  0  0
   -2.5970   -4.5580    0.0420 C   0  0  0  0  0  0  0  0  0  0  0  0
   -2.5130   -5.9420    0.4770 N   0  0  0  0  0  0  0  0  0  0  0  0
   -3.2840   -3.7810    0.7130 O   0  0  0  0  0  0  0  0  0  0  0  0
   -3.2470   -1.2440   -0.2640 C   0  0  0  0  0  0  0  0  0  0  0  0
   -3.0880   -0.7620    0.9150 O   0  0  0  0  0  0  0  0  0  0  0  0
   -4.6120   -1.3980   -0.6450 N   0  0  0  0  0  0  0  0  0  0  0  0
   -5.7380   -1.0280    0.2130 C   0  0  1  0  0  0  0  0  0  0  0  0
   -6.5980   -0.1220   -0.6300 C   0  0  0  0  0  0  0  0  0  0  0  0
   -7.8180    0.4000    0.0390 C   0  0  0  0  0  0  0  0  0  0  0  0
   -7.5440    1.2610    1.2570 C   0  0  0  0  0  0  0  0  0  0  0  0
   -6.7720    2.4420    0.8730 N   0  0  0  0  0  0  0  0  0  0  0  0
   -6.3150    3.1890    1.8140 C   0  0  0  0  0  0  0  0  0  0  0  0
   -5.5660    4.3390    1.4870 N   0  0  0  0  0  0  0  0  0  0  0  0
   -6.5550    2.8740    3.1720 N   0  0  0  0  0  0  0  0  0  0  0  0
   -6.5520   -2.2460    0.5490 C   0  0  0  0  0  0  0  0  0  0  0  0
   -7.6770   -2.1950    1.4000 N   0  0  0  0  0  0  0  0  0  0  0  0
   -6.2080   -3.3360    0.0500 O   0  0  0  0  0  0  0  0  0  0  0  0
    1.0070    0.5010    1.3490 C   0  0  1  0  0  0  0  0  0  0  0  0
    0.1310    1.6910    1.6090 C   0  0  0  0  0  0  0  0  0  0  0  0
    0.5000   -0.6830    2.1260 C   0  0  0  0  0  0  0  0  0  0  0  0
  1  2  1  0
  2  3  2  0
  2  4  1  0
  4  5  1  0
  5  6  1  6
  5 13  1  0
  7  6  1  1
  7  8  1  0
  7 12  1  0
  8  9  1  0
  9 10  1  0
 10 11  1  0
 11 12  1  0
 13 14  1  6
 13 15  1  0
 16 15  1  6
 16 17  1  0
 16 40  1  0
 17 18  2  0
 17 19  1  0
 19 20  1  0
 20 21  1  1
 20 26  1  0
 21 22  1  0
 22 23  1  0
 23 24  1  0
 23 25  2  0
 26 27  2  0
 26 28  1  0
 28 29  1  0
 29 30  1  6
 29 37  1  0
 30 31  1  0
 31 32  1  0
 32 33  1  0
 33 34  2  3
 34 35  1  0
 34 36  1  0
 37 38  1  0
 37 39  2  0
 40 41  1  6
 40 42  1  0
M  CHG  1  33   1
M  END
