
     RDKit          3D

 42 44  0  0  0  0  0  0  0  0999 V2000
   -7.9230   -0.4260   -2.2170 C   0  0  0  0  0  0  0  0  0  0  0  0
   -7.7230   -1.6960   -2.1790 C   0  0  0  0  0  0  0  0  0  0  0  0
   -8.8930   -2.4330   -2.6460 O   0  0  0  0  0  0  0  0  0  0  0  0
   -6.6460   -2.5590   -1.7880 C   0  0  0  0  0  0  0  0  0  0  0  0
   -6.9610   -3.8950   -2.0430 C   0  0  0  0  0  0  0  0  0  0  0  0
   -6.0060   -4.9470   -1.7200 C   0  0  0  0  0  0  0  0  0  0  0  0
   -5.3150   -2.3620   -1.3700 C   0  0  0  0  0  0  0  0  0  0  0  0
   -4.5890   -1.3840   -0.9060 C   0  0  0  0  0  0  0  0  0  0  0  0
   -3.1580   -1.8100   -0.6790 C   0  0  0  0  0  0  0  0  0  0  0  0
   -2.8960   -3.0020   -1.0610 O   0  0  0  0  0  0  0  0  0  0  0  0
   -2.1320   -1.0940   -0.1190 N   0  0  0  0  0  0  0  0  0  0  0  0
   -0.7700   -1.5230    0.0740 C   0  0  0  0  0  0  0  0  0  0  0  0
   -0.1770   -2.5410   -0.5990 C   0  0  0  0  0  0  0  0  0  0  0  0
    1.1410   -2.9520   -0.3400 C   0  0  0  0  0  0  0  0  0  0  0  0
    1.8540   -2.2940    0.6330 C   0  0  0  0  0  0  0  0  0  0  0  0
    3.1260   -2.6940    0.8990 N   0  0  0  0  0  0  0  0  0  0  0  0
    3.8470   -2.0690    1.8620 C   0  0  0  0  0  0  0  0  0  0  0  0
    5.0340   -2.4690    2.0850 O   0  0  0  0  0  0  0  0  0  0  0  0
    3.3150   -1.0650    2.5490 N   0  0  0  0  0  0  0  0  0  0  0  0
    4.0990   -0.4350    3.5960 C   0  0  0  0  0  0  0  0  0  0  0  0
    4.9230    0.6720    3.0700 C   0  0  0  0  0  0  0  0  0  0  0  0
    5.6230    1.3340    3.9090 O   0  0  0  0  0  0  0  0  0  0  0  0
    4.9600    1.0130    1.6900 N   0  0  0  0  0  0  0  0  0  0  0  0
    5.7920    2.1140    1.2230 C   0  0  2  0  0  0  0  0  0  0  0  0
    5.0750    3.1300    0.4140 C   0  0  0  0  0  0  0  0  0  0  0  0
    5.7290    3.1220   -0.9250 C   0  0  0  0  0  0  0  0  0  0  0  0
    5.2010    3.5710   -2.0520 C   0  0  0  0  0  0  0  0  0  0  0  0
    7.0430    2.5430   -0.7780 C   0  0  0  0  0  0  0  0  0  0  0  0
    8.1550    2.7450   -1.4630 C   0  0  0  0  0  0  0  0  0  0  0  0
    9.3960    2.0090   -1.1050 C   0  0  0  0  0  0  0  0  0  0  0  0
    8.1930    3.8740   -2.7910 Cl  0  0  0  0  0  0  0  0  0  0  0  0
    6.9380    1.5850    0.3900 C   0  0  0  0  0  0  0  0  0  0  0  0
    2.0410   -0.6180    2.3250 C   0  0  0  0  0  0  0  0  0  0  0  0
    1.5470    0.3230    2.9690 O   0  0  0  0  0  0  0  0  0  0  0  0
    1.2940   -1.2530    1.3390 C   0  0  0  0  0  0  0  0  0  0  0  0
    0.0030   -0.8840    1.0530 C   0  0  0  0  0  0  0  0  0  0  0  0
   -5.0700   -0.2020   -0.2520 C   0  0  0  0  0  0  0  0  0  0  0  0
   -6.2930   -0.2590    0.1630 O   0  0  0  0  0  0  0  0  0  0  0  0
   -4.4590    1.0240    0.0130 N   0  0  0  0  0  0  0  0  0  0  0  0
   -5.1160    2.1100    0.7410 C   0  0  2  0  0  0  0  0  0  0  0  0
   -5.5570    3.1250   -0.3220 C   0  0  0  0  0  0  0  0  0  0  0  0
   -4.2360    2.8060    1.7090 C   0  0  0  0  0  0  0  0  0  0  0  0
  1  2  2  0
  2  3  1  0
  2  4  1  0
  4  5  2  3
  4  7  1  0
  5  6  1  0
  7  8  2  3
  8  9  1  0
  8 37  1  0
  9 10  2  0
  9 11  1  0
 11 12  1  0
 12 13  2  0
 12 36  1  0
 13 14  1  0
 14 15  2  0
 15 16  1  0
 15 35  1  0
 16 17  1  0
 17 18  2  0
 17 19  1  0
 19 20  1  0
 19 33  1  0
 20 21  1  0
 21 22  2  0
 21 23  1  0
 24 23  1  6
 24 25  1  0
 24 32  1  0
 25 26  1  0
 26 27  2  0
 26 28  1  0
 28 29  2  3
 28 32  1  0
 29 30  1  0
 29 31  1  0
 33 34  2  0
 33 35  1  0
 35 36  2  0
 37 38  2  0
 37 39  1  0
 39 40  1  0
 40 41  1  6
 40 42  1  0
M  END
