
     RDKit          3D

 42 45  0  0  0  0  0  0  0  0999 V2000
   -7.4760    0.7450   -0.8920 C   0  0  0  0  0  0  0  0  0  0  0  0
   -6.2800    0.3570   -0.5100 C   0  0  0  0  0  0  0  0  0  0  0  0
   -5.1030    0.4990   -1.3400 C   0  0  0  0  0  0  0  0  0  0  0  0
   -5.1760    1.0180   -2.4880 O   0  0  0  0  0  0  0  0  0  0  0  0
   -3.8140    0.0510   -0.8740 C   0  0  0  0  0  0  0  0  0  0  0  0
   -2.8090   -0.1610   -1.7340 C   0  0  0  0  0  0  0  0  0  0  0  0
   -2.9170   -0.0080   -3.2010 C   0  0  1  0  0  0  0  0  0  0  0  0
   -2.5750    1.4100   -3.6040 C   0  0  0  0  0  0  0  0  0  0  0  0
   -1.9080   -0.7960   -3.8320 O   0  0  0  0  0  0  0  0  0  0  0  0
   -1.4800   -0.1530   -1.1410 N   0  0  0  0  0  0  0  0  0  0  0  0
   -1.3110    0.0790    0.2520 C   0  0  0  0  0  0  0  0  0  0  0  0
    0.0340    0.2550    0.7610 C   0  0  0  0  0  0  0  0  0  0  0  0
    0.1560    0.3600    2.0030 O   0  0  0  0  0  0  0  0  0  0  0  0
    1.2680    0.3430    0.0960 N   0  0  0  0  0  0  0  0  0  0  0  0
    1.5440    0.2850   -1.3060 C   0  0  0  0  0  0  0  0  0  0  0  0
    1.7830   -1.0720   -1.8960 C   0  0  0  0  0  0  0  0  0  0  0  0
    2.4250    0.5910    0.9720 C   0  0  0  0  0  0  0  0  0  0  0  0
    2.1880    0.6890    2.2000 O   0  0  0  0  0  0  0  0  0  0  0  0
    3.7710    0.7320    0.4690 C   0  0  0  0  0  0  0  0  0  0  0  0
    4.2760    1.9340   -0.0290 C   0  0  0  0  0  0  0  0  0  0  0  0
    3.5080    3.1980   -0.1750 C   0  0  0  0  0  0  0  0  0  0  0  0
    5.5660    1.7390   -0.3340 N   0  0  0  0  0  0  0  0  0  0  0  0
    5.9000    0.5100   -0.0630 N   0  0  0  0  0  0  0  0  0  0  0  0
    7.2350   -0.0270   -0.2780 C   0  0  0  0  0  0  0  0  0  0  0  0
    7.3470   -0.6050   -1.6380 C   0  0  0  0  0  0  0  0  0  0  0  0
    7.7370    0.1970   -2.7470 N   0  0  0  0  0  0  0  0  0  0  0  0
    7.1030   -1.8150   -1.8640 O   0  0  0  0  0  0  0  0  0  0  0  0
    4.8090   -0.1530    0.4420 C   0  0  0  0  0  0  0  0  0  0  0  0
    4.8420   -1.5340    0.9150 C   0  0  0  0  0  0  0  0  0  0  0  0
    4.2350   -2.5680    0.0240 C   0  0  0  0  0  0  0  0  0  0  0  0
   -2.3400    0.2590    1.1060 C   0  0  0  0  0  0  0  0  0  0  0  0
   -2.3890    0.5570    2.4960 C   0  0  0  0  0  0  0  0  0  0  0  0
   -3.7340    0.7310    2.7730 O   0  0  0  0  0  0  0  0  0  0  0  0
   -1.6190    0.7470    3.6850 C   0  0  0  0  0  0  0  0  0  0  0  0
   -1.2090   -0.4780    4.4600 C   0  0  0  0  0  0  0  0  0  0  0  0
   -3.5960   -0.4000    0.4950 C   0  0  1  0  0  0  0  0  0  0  0  0
   -4.7430   -0.6870    1.2930 C   0  0  0  0  0  0  0  0  0  0  0  0
   -4.9400   -1.4080    2.4180 C   0  0  0  0  0  0  0  0  0  0  0  0
   -3.7800   -2.3370    3.3620 Cl  0  0  0  0  0  0  0  0  0  0  0  0
   -6.3440   -1.2380    2.8530 C   0  0  0  0  0  0  0  0  0  0  0  0
   -7.0000   -0.6970    1.6580 C   0  0  0  0  0  0  0  0  0  0  0  0
   -6.0730   -0.2620    0.8260 C   0  0  0  0  0  0  0  0  0  0  0  0
  1  2  2  0
  2  3  1  0
  2 42  1  0
  3  4  2  0
  3  5  1  0
  5  6  2  0
  5 36  1  0
  6  7  1  0
  6 10  1  0
  7  8  1  1
  7  9  1  0
 10 11  1  0
 11 12  1  0
 11 31  2  0
 12 13  2  0
 12 14  1  0
 14 15  1  0
 14 17  1  0
 15 16  1  0
 17 18  2  0
 17 19  1  0
 19 20  1  0
 19 28  2  0
 20 21  1  0
 20 22  2  0
 22 23  1  0
 23 24  1  0
 23 28  1  0
 24 25  1  0
 25 26  1  0
 25 27  2  0
 28 29  1  0
 29 30  1  0
 31 32  1  0
 36 31  1  1
 32 33  2  0
 32 34  1  0
 34 35  1  0
 36 37  1  0
 37 38  2  0
 37 42  1  0
 38 39  1  0
 38 40  1  0
 40 41  1  0
 41 42  2  0
M  END
