
     RDKit          3D

 42 45  0  0  0  0  0  0  0  0999 V2000
   -3.3590   -2.4440   -3.9630 C   0  0  0  0  0  0  0  0  0  0  0  0
   -4.2150   -1.2180   -4.1910 C   0  0  0  0  0  0  0  0  0  0  0  0
   -3.3240   -0.0280   -4.4400 C   0  0  0  0  0  0  0  0  0  0  0  0
   -2.4430    0.2330   -3.3210 N   0  0  0  0  0  0  0  0  0  0  0  0
   -3.1950    0.9230   -2.2480 C   0  0  0  0  0  0  0  0  0  0  0  0
   -2.3230    1.1040   -1.0750 C   0  0  0  0  0  0  0  0  0  0  0  0
   -2.6230    0.6030    0.0920 C   0  0  0  0  0  0  0  0  0  0  0  0
   -3.8240   -0.1590    0.3360 C   0  0  0  0  0  0  0  0  0  0  0  0
   -5.1100    0.2830    0.0700 C   0  0  0  0  0  0  0  0  0  0  0  0
   -6.2400   -0.4780    0.2840 C   0  0  0  0  0  0  0  0  0  0  0  0
   -6.1200   -1.7510    0.7890 C   0  0  0  0  0  0  0  0  0  0  0  0
   -4.8570   -2.2260    1.0670 C   0  0  0  0  0  0  0  0  0  0  0  0
   -3.7320   -1.4650    0.8530 C   0  0  0  0  0  0  0  0  0  0  0  0
   -5.0060   -3.6070    1.5930 C   0  0  0  0  0  0  0  0  0  0  0  0
   -6.3090   -4.0450    0.9490 C   0  0  0  0  0  0  0  0  0  0  0  0
   -7.1420   -2.7640    1.1040 C   0  0  0  0  0  0  0  0  0  0  0  0
   -1.0670    1.8730   -1.1800 C   0  0  0  0  0  0  0  0  0  0  0  0
   -0.6750    2.4020   -2.2470 O   0  0  0  0  0  0  0  0  0  0  0  0
   -0.2910    2.0200   -0.0650 O   0  0  0  0  0  0  0  0  0  0  0  0
    0.9320    2.7350   -0.0460 C   0  0  1  0  0  0  0  0  0  0  0  0
    0.7940    3.8350    0.9290 C   0  0  0  0  0  0  0  0  0  0  0  0
    0.2530    4.9370    0.6920 O   0  0  0  0  0  0  0  0  0  0  0  0
    1.3520    3.4480    2.1230 O   0  0  0  0  0  0  0  0  0  0  0  0
    1.9530    2.1910    1.9950 C   0  0  0  0  0  0  0  0  0  0  0  0
    2.3430    1.4320    3.0040 C   0  0  0  0  0  0  0  0  0  0  0  0
    2.9630    0.1400    2.9040 C   0  0  0  0  0  0  0  0  0  0  0  0
    3.1960   -0.3960    1.7930 O   0  0  0  0  0  0  0  0  0  0  0  0
    3.3510   -0.6130    4.0480 N   0  0  0  0  0  0  0  0  0  0  0  0
    3.9720   -1.9070    3.9800 C   0  0  0  0  0  0  0  0  0  0  0  0
    5.2830   -1.9050    3.2400 C   0  0  0  0  0  0  0  0  0  0  0  0
    5.8470   -3.2790    3.2270 C   0  0  0  0  0  0  0  0  0  0  0  0
    5.2280   -4.2060    3.7820 O   0  0  0  0  0  0  0  0  0  0  0  0
    7.0620   -3.5680    2.6050 O   0  0  0  0  0  0  0  0  0  0  0  0
    2.0530    1.9070    0.5670 C   0  0  2  0  0  0  0  0  0  0  0  0
    3.3140    2.3750   -0.0560 C   0  0  0  0  0  0  0  0  0  0  0  0
    3.8630    3.5950    0.2310 C   0  0  0  0  0  0  0  0  0  0  0  0
    5.0380    3.9940   -0.3800 C   0  0  0  0  0  0  0  0  0  0  0  0
    5.6860    3.1720   -1.2950 C   0  0  0  0  0  0  0  0  0  0  0  0
    6.8590    3.6000   -1.8890 O   0  0  0  0  0  0  0  0  0  0  0  0
    7.5640    2.8320   -2.8150 C   0  0  0  0  0  0  0  0  0  0  0  0
    5.1250    1.9490   -1.5760 C   0  0  0  0  0  0  0  0  0  0  0  0
    3.9540    1.5680   -0.9570 C   0  0  0  0  0  0  0  0  0  0  0  0
  1  2  1  0
  2  3  1  0
  3  4  1  0
  4  5  1  0
  5  6  1  0
  6  7  2  3
  6 17  1  0
  7  8  1  0
  8  9  2  0
  8 13  1  0
  9 10  1  0
 10 11  2  0
 11 12  1  0
 11 16  1  0
 12 13  2  0
 12 14  1  0
 14 15  1  0
 15 16  1  0
 17 18  2  0
 17 19  1  0
 20 19  1  1
 20 21  1  0
 20 34  1  0
 21 22  2  0
 21 23  1  0
 23 24  1  0
 24 25  2  3
 24 34  1  0
 25 26  1  0
 26 27  2  0
 26 28  1  0
 28 29  1  0
 29 30  1  0
 30 31  1  0
 31 32  2  0
 31 33  1  0
 34 35  1  6
 35 36  2  0
 35 42  1  0
 36 37  1  0
 37 38  2  0
 38 39  1  0
 38 41  1  0
 39 40  1  0
 41 42  2  0
M  CHG  1   4   1
M  END
