
     RDKit          3D

 42 44  0  0  0  0  0  0  0  0999 V2000
   -5.7440   -0.5170   -3.7890 C   0  0  0  0  0  0  0  0  0  0  0  0
   -5.3070   -1.0120   -2.8450 C   0  0  0  0  0  0  0  0  0  0  0  0
   -4.6280   -1.5290   -1.6300 C   0  0  0  0  0  0  0  0  0  0  0  0
   -5.2940   -2.6400   -1.1740 C   0  0  0  0  0  0  0  0  0  0  0  0
   -6.4930   -3.2580   -1.6560 C   0  0  0  0  0  0  0  0  0  0  0  0
   -3.6980   -1.0300   -0.8550 N   0  0  0  0  0  0  0  0  0  0  0  0
   -3.0690   -0.7500    0.1360 C   0  0  0  0  0  0  0  0  0  0  0  0
   -1.7720    0.1060    0.1270 C   0  0  0  0  0  0  0  0  0  0  0  0
   -1.7520    0.8670   -1.1750 C   0  0  0  0  0  0  0  0  0  0  0  0
   -2.4190    0.5270   -2.0780 O   0  0  0  0  0  0  0  0  0  0  0  0
   -0.8940    2.0930   -1.1940 C   0  0  0  0  0  0  0  0  0  0  0  0
   -1.1000    2.8980   -2.2840 C   0  0  0  0  0  0  0  0  0  0  0  0
   -0.3280    4.0690   -2.2270 N   0  0  0  0  0  0  0  0  0  0  0  0
    0.4180    4.0860   -1.0370 C   0  0  0  0  0  0  0  0  0  0  0  0
    1.1910    5.0310   -0.6210 C   0  0  0  0  0  0  0  0  0  0  0  0
    1.9850    5.3260    0.4350 C   0  0  0  0  0  0  0  0  0  0  0  0
    2.7990    6.1520    0.8640 O   0  0  0  0  0  0  0  0  0  0  0  0
    1.9410    4.3260    1.6680 N   0  0  0  0  0  0  0  0  0  0  0  0
    2.7480    4.6830    2.7880 C   0  0  0  0  0  0  0  0  0  0  0  0
    0.2340    2.6370   -0.5240 C   0  0  2  0  0  0  0  0  0  0  0  0
    1.5590    2.1080   -0.7220 N   0  0  0  0  0  0  0  0  0  0  0  0
    2.3430    1.0700   -0.5740 C   0  0  0  0  0  0  0  0  0  0  0  0
    1.6820   -0.0580   -0.1330 O   0  0  0  0  0  0  0  0  0  0  0  0
    3.6910    0.7260   -0.6930 N   0  0  0  0  0  0  0  0  0  0  0  0
    4.2320   -0.5080   -0.4910 C   0  0  0  0  0  0  0  0  0  0  0  0
    4.6720   -1.3720   -1.5860 C   0  0  0  0  0  0  0  0  0  0  0  0
    5.4330   -2.5210   -1.2330 C   0  0  0  0  0  0  0  0  0  0  0  0
    5.8140   -3.3020   -2.3210 O   0  0  0  0  0  0  0  0  0  0  0  0
    6.5140   -4.4630   -2.4520 C   0  0  0  0  0  0  0  0  0  0  0  0
    5.7610   -2.8530    0.0520 C   0  0  0  0  0  0  0  0  0  0  0  0
    5.3140   -2.0350    1.0370 C   0  0  0  0  0  0  0  0  0  0  0  0
    4.5920   -0.9300    0.7990 C   0  0  0  0  0  0  0  0  0  0  0  0
    4.0680   -0.0460    1.7700 O   0  0  0  0  0  0  0  0  0  0  0  0
    4.4250   -0.5200    3.1350 C   0  0  0  0  0  0  0  0  0  0  0  0
   -1.0540    0.2630    1.1780 C   0  0  0  0  0  0  0  0  0  0  0  0
   -1.4830   -0.3840    2.4890 C   0  0  0  0  0  0  0  0  0  0  0  0
   -2.5420   -1.0640    2.5640 C   0  0  0  0  0  0  0  0  0  0  0  0
   -2.8930   -1.6440    3.8490 O   0  0  0  0  0  0  0  0  0  0  0  0
   -3.4320   -1.3390    1.5190 C   0  0  0  0  0  0  0  0  0  0  0  0
   -4.6470   -1.7970    1.6870 C   0  0  0  0  0  0  0  0  0  0  0  0
   -5.7860   -2.3360    2.1720 C   0  0  0  0  0  0  0  0  0  0  0  0
   -7.1940   -1.2120    2.0950 Cl  0  0  0  0  0  0  0  0  0  0  0  0
  1  2  2  0
  2  3  1  0
  3  4  2  3
  3  6  1  0
  4  5  1  0
  6  7  2  3
  7  8  1  0
  7 39  1  0
  8  9  1  0
  8 35  2  0
  9 10  2  0
  9 11  1  0
 11 12  2  0
 11 20  1  0
 12 13  1  0
 13 14  1  0
 14 15  2  3
 14 20  1  0
 15 16  1  0
 16 17  2  0
 16 18  1  0
 18 19  1  0
 20 21  1  6
 21 22  1  0
 22 23  2  0
 22 24  1  0
 24 25  1  0
 25 26  2  0
 25 32  1  0
 26 27  1  0
 27 28  1  0
 27 30  2  0
 28 29  1  0
 30 31  1  0
 31 32  2  0
 32 33  1  0
 33 34  1  0
 35 36  1  0
 36 37  2  0
 37 38  1  0
 37 39  1  0
 39 40  2  3
 40 41  1  0
 41 42  1  0
M  END
