
     RDKit          3D

 42 45  0  0  0  0  0  0  0  0999 V2000
   11.7970    1.9470   -0.6900 C   0  0  0  0  0  0  0  0  0  0  0  0
   10.8810    1.0680    0.1110 C   0  0  0  0  0  0  0  0  0  0  0  0
   10.0060    1.5660    0.8360 O   0  0  0  0  0  0  0  0  0  0  0  0
   11.0110   -0.2990    0.0280 O   0  0  0  0  0  0  0  0  0  0  0  0
   10.1550   -1.1510    0.7540 C   0  0  0  0  0  0  0  0  0  0  0  0
    8.7160   -0.9310    0.3540 C   0  0  0  0  0  0  0  0  0  0  0  0
    8.5310   -0.1490   -0.5970 O   0  0  0  0  0  0  0  0  0  0  0  0
    7.6530   -1.5730    1.0170 N   0  0  0  0  0  0  0  0  0  0  0  0
    6.3050   -1.3870    0.6350 C   0  0  0  0  0  0  0  0  0  0  0  0
    5.2870   -1.6960    1.5280 C   0  0  0  0  0  0  0  0  0  0  0  0
    3.9360   -1.4860    1.2300 C   0  0  0  0  0  0  0  0  0  0  0  0
    3.5520   -0.9630    0.0300 C   0  0  0  0  0  0  0  0  0  0  0  0
    2.1910   -0.5910   -0.3560 C   0  0  1  0  0  0  0  0  0  0  0  0
    2.1800    0.7680   -1.0510 C   0  0  0  0  0  0  0  0  0  0  0  0
    1.5720   -1.6420   -1.2480 C   0  0  0  0  0  0  0  0  0  0  0  0
    0.2300   -1.1160   -1.6840 C   0  0  0  0  0  0  0  0  0  0  0  0
   -0.6520   -0.8140   -0.5150 C   0  0  0  0  0  0  0  0  0  0  0  0
   -0.4370   -1.4500    0.5560 O   0  0  0  0  0  0  0  0  0  0  0  0
   -1.6770    0.1470   -0.5970 N   0  0  0  0  0  0  0  0  0  0  0  0
   -2.5020    0.4860    0.4100 N   0  0  0  0  0  0  0  0  0  0  0  0
   -3.7470    0.6910    0.2690 C   0  0  0  0  0  0  0  0  0  0  0  0
   -4.5290    1.0490    1.4540 C   0  0  0  0  0  0  0  0  0  0  0  0
   -4.0720    0.7870    2.6100 O   0  0  0  0  0  0  0  0  0  0  0  0
   -5.8200    1.7050    1.3120 C   0  0  0  0  0  0  0  0  0  0  0  0
   -6.8490    2.0580    2.1380 C   0  0  0  0  0  0  0  0  0  0  0  0
   -6.8330    1.9540    3.6170 C   0  0  0  0  0  0  0  0  0  0  0  0
   -7.8980    2.5270    1.4420 N   0  0  0  0  0  0  0  0  0  0  0  0
   -7.5570    2.4810    0.1390 C   0  0  0  0  0  0  0  0  0  0  0  0
   -8.3940    2.8590   -1.0440 C   0  0  0  0  0  0  0  0  0  0  0  0
   -6.2730    1.9790    0.0200 C   0  0  0  0  0  0  0  0  0  0  0  0
   -5.3630    1.7800   -1.0730 C   0  0  0  0  0  0  0  0  0  0  0  0
   -4.4720    0.6020   -1.0790 C   0  0  2  0  0  0  0  0  0  0  0  0
   -5.0770   -0.7220   -1.1270 C   0  0  0  0  0  0  0  0  0  0  0  0
   -5.7820   -1.2660   -0.0850 C   0  0  0  0  0  0  0  0  0  0  0  0
   -6.2630   -2.5940   -0.0960 C   0  0  0  0  0  0  0  0  0  0  0  0
   -6.0190   -3.3720   -1.1890 C   0  0  0  0  0  0  0  0  0  0  0  0
   -6.6350   -5.0410   -1.2720 Cl  0  0  0  0  0  0  0  0  0  0  0  0
   -5.3220   -2.8390   -2.2230 N   0  0  0  0  0  0  0  0  0  0  0  0
   -4.8680   -1.5860   -2.2100 C   0  0  0  0  0  0  0  0  0  0  0  0
   -4.2230   -1.1040   -3.1890 O   0  0  0  0  0  0  0  0  0  0  0  0
    4.5720   -0.6580   -0.8780 C   0  0  0  0  0  0  0  0  0  0  0  0
    5.9090   -0.8730   -0.5680 C   0  0  0  0  0  0  0  0  0  0  0  0
  1  2  1  0
  2  3  2  0
  2  4  1  0
  4  5  1  0
  5  6  1  0
  6  7  2  0
  6  8  1  0
  8  9  1  0
  9 10  2  0
  9 42  1  0
 10 11  1  0
 11 12  2  0
 12 13  1  0
 12 41  1  0
 13 14  1  6
 13 15  1  0
 15 16  1  0
 16 17  1  0
 17 18  2  0
 17 19  1  0
 19 20  1  0
 20 21  2  3
 21 22  1  0
 21 32  1  0
 22 23  2  0
 22 24  1  0
 24 25  2  0
 24 30  1  0
 25 26  1  0
 25 27  1  0
 27 28  1  0
 28 29  1  0
 28 30  2  0
 30 31  1  0
 31 32  1  0
 32 33  1  1
 33 34  2  0
 33 39  1  0
 34 35  1  0
 35 36  2  0
 36 37  1  0
 36 38  1  0
 38 39  1  0
 39 40  2  0
 41 42  2  0
M  END
