
     RDKit          3D

 42 45  0  0  0  0  0  0  0  0999 V2000
   -6.4290   -1.1180   -3.5390 C   0  0  0  0  0  0  0  0  0  0  0  0
   -6.5470   -1.7160   -2.1820 C   0  0  0  0  0  0  0  0  0  0  0  0
   -5.6890   -1.3870   -1.1930 C   0  0  0  0  0  0  0  0  0  0  0  0
   -5.8220   -1.9930    0.1560 C   0  0  1  0  0  0  0  0  0  0  0  0
   -5.1210   -3.1950    0.2430 O   0  0  0  0  0  0  0  0  0  0  0  0
   -4.4270   -3.2510    1.4110 C   0  0  0  0  0  0  0  0  0  0  0  0
   -4.2960   -1.8390    1.9400 C   0  0  1  0  0  0  0  0  0  0  0  0
   -2.9950   -1.3630    1.5220 N   0  0  0  0  0  0  0  0  0  0  0  0
   -1.9970   -1.0370    2.5100 C   0  0  0  0  0  0  0  0  0  0  0  0
   -2.3180   -1.1880    3.6950 O   0  0  0  0  0  0  0  0  0  0  0  0
   -0.7140   -0.5720    2.1220 N   0  0  0  0  0  0  0  0  0  0  0  0
    0.3250   -0.2190    3.0010 C   0  0  0  0  0  0  0  0  0  0  0  0
    0.0910    0.0120    4.3370 C   0  0  0  0  0  0  0  0  0  0  0  0
    1.0970    0.4240    5.2110 C   0  0  0  0  0  0  0  0  0  0  0  0
    2.3380    0.5930    4.6800 C   0  0  0  0  0  0  0  0  0  0  0  0
    2.6020    0.3650    3.3280 C   0  0  0  0  0  0  0  0  0  0  0  0
    1.6070   -0.0420    2.4730 C   0  0  0  0  0  0  0  0  0  0  0  0
    1.8290   -0.3400    1.1220 N   0  0  0  0  0  0  0  0  0  0  0  0
    3.0350   -0.0800    0.4050 C   0  0  0  0  0  0  0  0  0  0  0  0
    4.0040    0.4540    0.9700 O   0  0  0  0  0  0  0  0  0  0  0  0
    3.1680   -0.4210   -0.9750 N   0  0  0  0  0  0  0  0  0  0  0  0
    4.3060   -0.2180   -1.7670 C   0  0  0  0  0  0  0  0  0  0  0  0
    4.1460   -0.2630   -3.1560 C   0  0  0  0  0  0  0  0  0  0  0  0
    5.2260   -0.0940   -3.9910 C   0  0  0  0  0  0  0  0  0  0  0  0
    6.4860    0.1210   -3.5050 C   0  0  0  0  0  0  0  0  0  0  0  0
    6.6870    0.1720   -2.1180 C   0  0  0  0  0  0  0  0  0  0  0  0
    8.0090    0.3810   -1.6390 N   0  0  0  0  0  0  0  0  0  0  0  0
    8.4100    0.6620   -0.3320 C   0  0  0  0  0  0  0  0  0  0  0  0
    7.5550    0.7460    0.5820 O   0  0  0  0  0  0  0  0  0  0  0  0
    9.8580    0.8670    0.0360 C   0  0  0  0  0  0  0  0  0  0  0  0
   10.6800    1.0760   -1.0390 O   0  0  0  0  0  0  0  0  0  0  0  0
   10.4000    2.2880   -1.6320 C   0  0  0  0  0  0  0  0  0  0  0  0
    5.5760   -0.0020   -1.3120 C   0  0  0  0  0  0  0  0  0  0  0  0
   -5.4410   -1.1150    1.2860 C   0  0  1  0  0  0  0  0  0  0  0  0
   -5.0600    0.2780    0.9120 C   0  0  0  0  0  0  0  0  0  0  0  0
   -6.1180    1.0590    0.2620 C   0  0  0  0  0  0  0  0  0  0  0  0
   -7.3560    0.7810   -0.0330 C   0  0  0  0  0  0  0  0  0  0  0  0
   -8.0050    1.9200   -0.6910 C   0  0  0  0  0  0  0  0  0  0  0  0
   -7.0440    2.9380   -0.7630 O   0  0  0  0  0  0  0  0  0  0  0  0
   -5.8760    2.4460   -0.1940 C   0  0  0  0  0  0  0  0  0  0  0  0
   -4.7750    3.1670   -0.1150 C   0  0  0  0  0  0  0  0  0  0  0  0
   -3.3000    2.5290    0.6090 Cl  0  0  0  0  0  0  0  0  0  0  0  0
  1  2  1  0
  2  3  2  3
  4  3  1  6
  4  5  1  0
  4 34  1  0
  5  6  1  0
  6  7  1  0
  7  8  1  6
  7 34  1  0
  8  9  1  0
  9 10  2  0
  9 11  1  0
 11 12  1  0
 12 13  2  0
 12 17  1  0
 13 14  1  0
 14 15  2  0
 15 16  1  0
 16 17  2  0
 17 18  1  0
 18 19  1  0
 19 20  2  0
 19 21  1  0
 21 22  1  0
 22 23  2  0
 22 33  1  0
 23 24  1  0
 24 25  2  0
 25 26  1  0
 26 27  1  0
 26 33  2  0
 27 28  1  0
 28 29  2  0
 28 30  1  0
 30 31  1  0
 31 32  1  0
 34 35  1  6
 35 36  1  0
 36 37  2  0
 36 40  1  0
 37 38  1  0
 38 39  1  0
 39 40  1  0
 40 41  2  3
 41 42  1  0
M  END
