
     RDKit          3D

 42 45  0  0  0  0  0  0  0  0999 V2000
    3.5170    0.5480   -1.8560 C   0  0  0  0  0  0  0  0  0  0  0  0
    4.1170   -0.3960   -0.8940 C   0  0  2  0  0  0  0  0  0  0  0  0
    3.3990   -0.5770    0.3430 N   0  0  0  0  0  0  0  0  0  0  0  0
    2.5720    0.5440    0.7570 C   0  0  0  0  0  0  0  0  0  0  0  0
    1.1710    0.3130    0.2130 C   0  0  0  0  0  0  0  0  0  0  0  0
    0.1970    1.0260    0.6260 O   0  0  0  0  0  0  0  0  0  0  0  0
    0.8720   -0.6010   -0.6830 O   0  0  0  0  0  0  0  0  0  0  0  0
   -0.2130   -1.0710   -1.3180 C   0  0  0  0  0  0  0  0  0  0  0  0
   -1.2710   -1.7060   -0.5000 C   0  0  0  0  0  0  0  0  0  0  0  0
   -1.9160   -0.8890    0.4180 O   0  0  0  0  0  0  0  0  0  0  0  0
   -3.2410   -0.5340    0.0830 C   0  0  0  0  0  0  0  0  0  0  0  0
   -3.7140   -1.0010   -1.0110 O   0  0  0  0  0  0  0  0  0  0  0  0
   -4.0280    0.2920    0.9740 C   0  0  0  0  0  0  0  0  0  0  0  0
   -3.3500    0.9800    1.9900 C   0  0  0  0  0  0  0  0  0  0  0  0
   -3.9830    1.8540    2.8420 C   0  0  0  0  0  0  0  0  0  0  0  0
   -5.3410    2.0270    2.6430 C   0  0  0  0  0  0  0  0  0  0  0  0
   -6.0140    1.3640    1.6560 C   0  0  0  0  0  0  0  0  0  0  0  0
   -5.3680    0.4680    0.7850 C   0  0  0  0  0  0  0  0  0  0  0  0
   -6.1580   -0.1080   -0.2710 C   0  0  0  0  0  0  0  0  0  0  0  0
   -5.7740   -0.7030   -1.2890 O   0  0  0  0  0  0  0  0  0  0  0  0
   -7.5670   -0.0140   -0.1910 O   0  0  0  0  0  0  0  0  0  0  0  0
   -8.3410   -0.5030   -1.2890 C   0  0  0  0  0  0  0  0  0  0  0  0
   -9.7740   -0.4730   -0.9300 C   0  0  0  0  0  0  0  0  0  0  0  0
  -10.3490   -1.5400   -0.2690 C   0  0  0  0  0  0  0  0  0  0  0  0
  -11.7250   -1.5460   -0.1460 C   0  0  0  0  0  0  0  0  0  0  0  0
  -12.5550   -0.5600   -0.6240 C   0  0  0  0  0  0  0  0  0  0  0  0
  -11.9660    0.5360   -1.3050 C   0  0  0  0  0  0  0  0  0  0  0  0
  -10.6050    0.5530   -1.4390 C   0  0  0  0  0  0  0  0  0  0  0  0
   -9.9350    1.6100   -2.0990 O   0  0  0  0  0  0  0  0  0  0  0  0
    5.5440   -0.2030   -0.5720 C   0  0  0  0  0  0  0  0  0  0  0  0
    6.2080   -1.2310    0.1220 C   0  0  0  0  0  0  0  0  0  0  0  0
    7.5060   -1.1030    0.5050 C   0  0  0  0  0  0  0  0  0  0  0  0
    8.1460    0.0720    0.1920 C   0  0  0  0  0  0  0  0  0  0  0  0
    7.5240    1.1090   -0.4860 C   0  0  0  0  0  0  0  0  0  0  0  0
    6.2020    0.9510   -0.8680 C   0  0  0  0  0  0  0  0  0  0  0  0
    8.2400    2.3500   -0.7350 C   0  0  0  0  0  0  0  0  0  0  0  0
    9.5000    2.4410   -0.2520 O   0  0  0  0  0  0  0  0  0  0  0  0
    9.7840    1.7710    0.9230 C   0  0  0  0  0  0  0  0  0  0  0  0
    9.5080    0.3030    0.5890 C   0  0  0  0  0  0  0  0  0  0  0  0
   10.4210   -0.6040    0.5580 C   0  0  0  0  0  0  0  0  0  0  0  0
   10.3430   -1.9930    0.1270 C   0  0  0  0  0  0  0  0  0  0  0  0
   11.4450   -2.7500    0.2180 N   0  0  0  0  0  0  0  0  0  0  0  0
  2  1  1  1
  2  3  1  0
  2 30  1  0
  3  4  1  0
  4  5  1  0
  5  6  2  0
  5  7  1  0
  7  8  1  0
  8  9  1  0
  9 10  1  0
 10 11  1  0
 11 12  2  0
 11 13  1  0
 13 14  2  0
 13 18  1  0
 14 15  1  0
 15 16  2  0
 16 17  1  0
 17 18  2  0
 18 19  1  0
 19 20  2  0
 19 21  1  0
 21 22  1  0
 22 23  1  0
 23 24  2  0
 23 28  1  0
 24 25  1  0
 25 26  2  0
 26 27  1  0
 27 28  2  0
 28 29  1  0
 30 31  2  0
 30 35  1  0
 31 32  1  0
 32 33  2  0
 33 34  1  0
 33 39  1  0
 34 35  2  0
 34 36  1  0
 36 37  1  0
 37 38  1  0
 38 39  1  0
 39 40  2  3
 40 41  1  0
 41 42  2  0
M  CHG  1   3   1
M  END
