
     RDKit          3D

 41 44  0  0  0  0  0  0  0  0999 V2000
    2.4450   -3.4170    1.8860 C   0  0  0  0  0  0  0  0  0  0  0  0
    1.6180   -2.1710    1.8720 C   0  0  0  0  0  0  0  0  0  0  0  0
    2.4700   -1.0690    1.9670 O   0  0  0  0  0  0  0  0  0  0  0  0
    3.4740   -0.7640    1.0340 C   0  0  0  0  0  0  0  0  0  0  0  0
    3.4690   -1.6630    0.0780 O   0  0  0  0  0  0  0  0  0  0  0  0
    4.3790    0.3090    1.0470 C   0  0  0  0  0  0  0  0  0  0  0  0
    4.4560    1.3120    2.0150 O   0  0  0  0  0  0  0  0  0  0  0  0
    3.5170    1.5160    3.0430 C   0  0  0  0  0  0  0  0  0  0  0  0
    2.1800    1.6490    2.3740 C   0  0  0  0  0  0  0  0  0  0  0  0
    1.0690    1.3380    3.1300 C   0  0  0  0  0  0  0  0  0  0  0  0
   -0.1660    1.2730    2.4900 C   0  0  0  0  0  0  0  0  0  0  0  0
   -0.2560    1.5190    1.1220 C   0  0  0  0  0  0  0  0  0  0  0  0
   -1.5130    1.3040    0.4410 C   0  0  0  0  0  0  0  0  0  0  0  0
   -1.7750    1.4730   -0.9050 C   0  0  0  0  0  0  0  0  0  0  0  0
   -3.1280    1.1180   -1.0490 C   0  0  0  0  0  0  0  0  0  0  0  0
   -3.5840    0.7750    0.1650 C   0  0  0  0  0  0  0  0  0  0  0  0
   -4.9320    0.3120    0.6280 C   0  0  1  0  0  0  0  0  0  0  0  0
   -5.7770    1.4950    0.9450 C   0  0  0  0  0  0  0  0  0  0  0  0
   -6.0800    2.4350   -0.1590 C   0  0  0  0  0  0  0  0  0  0  0  0
   -5.0060    3.0530   -0.7540 O   0  0  0  0  0  0  0  0  0  0  0  0
   -5.4790   -0.6280   -0.2920 N   0  0  0  0  0  0  0  0  0  0  0  0
   -5.9250   -1.8620    0.2250 C   0  0  1  0  0  0  0  0  0  0  0  0
   -5.4370   -2.3200    1.5410 C   0  0  0  0  0  0  0  0  0  0  0  0
   -6.4000   -1.9590    2.5060 N   0  0  0  0  0  0  0  0  0  0  0  0
   -7.6710   -2.0540    1.8720 C   0  0  0  0  0  0  0  0  0  0  0  0
   -7.4310   -1.8150    0.3800 C   0  0  1  0  0  0  0  0  0  0  0  0
   -7.9990   -0.6140    0.0420 O   0  0  0  0  0  0  0  0  0  0  0  0
   -9.0090   -0.8970   -0.9010 C   0  0  0  0  0  0  0  0  0  0  0  0
   -2.5910    0.8980    1.0370 O   0  0  0  0  0  0  0  0  0  0  0  0
    0.8720    1.8280    0.4440 C   0  0  0  0  0  0  0  0  0  0  0  0
    2.1100    1.9020    1.0420 C   0  0  0  0  0  0  0  0  0  0  0  0
    5.2920    0.4660    0.0520 C   0  0  0  0  0  0  0  0  0  0  0  0
    5.2070   -0.5730   -1.0580 C   0  0  0  0  0  0  0  0  0  0  0  0
    6.0980    1.6170   -0.0490 C   0  0  0  0  0  0  0  0  0  0  0  0
    7.1070    1.8930   -0.8910 C   0  0  0  0  0  0  0  0  0  0  0  0
    7.6500    1.0880   -1.8850 C   0  0  0  0  0  0  0  0  0  0  0  0
    8.6140    2.3310   -2.3850 O   0  0  0  0  0  0  0  0  0  0  0  0
    8.2010    0.2930   -2.8840 C   0  0  1  0  0  0  0  0  0  0  0  0
    7.9930   -1.2710   -2.6650 C   0  0  0  0  0  0  0  0  0  0  0  0
    8.1130    0.5980   -4.3540 C   0  0  0  0  0  0  0  0  0  0  0  0
    9.4350    0.5300   -3.7030 C   0  0  0  0  0  0  0  0  0  0  0  0
  1  2  1  0
  2  3  1  0
  3  4  1  0
  4  5  2  0
  4  6  1  0
  6  7  1  0
  6 32  2  3
  7  8  1  0
  8  9  1  0
  9 10  2  0
  9 31  1  0
 10 11  1  0
 11 12  2  0
 12 13  1  0
 12 30  1  0
 13 14  2  0
 13 29  1  0
 14 15  1  0
 15 16  2  0
 16 17  1  0
 16 29  1  0
 17 18  1  6
 17 21  1  0
 18 19  1  0
 19 20  1  0
 22 21  1  1
 22 23  1  0
 22 26  1  0
 23 24  1  0
 24 25  1  0
 25 26  1  0
 26 27  1  1
 27 28  1  0
 30 31  2  0
 32 33  1  0
 32 34  1  0
 34 35  2  3
 35 36  1  0
 36 37  2  0
 36 38  1  0
 38 39  1  6
 38 40  1  0
 38 41  1  0
 40 41  1  0
M  CHG  1  21   1
M  END
