
     RDKit          3D

 42 45  0  0  0  0  0  0  0  0999 V2000
   -7.5950    0.3890   -0.0810 C   0  0  0  0  0  0  0  0  0  0  0  0
   -6.3010    0.3460   -0.0150 C   0  0  0  0  0  0  0  0  0  0  0  0
   -5.4670    1.3910   -0.6850 C   0  0  0  0  0  0  0  0  0  0  0  0
   -5.9290    2.3160   -1.3530 O   0  0  0  0  0  0  0  0  0  0  0  0
   -4.0340    1.2450   -0.4910 C   0  0  0  0  0  0  0  0  0  0  0  0
   -3.3180    2.3660   -0.2290 C   0  0  0  0  0  0  0  0  0  0  0  0
   -4.0160    3.6400   -0.1540 C   0  0  1  0  0  0  0  0  0  0  0  0
   -3.9780    4.5180   -1.3520 C   0  0  0  0  0  0  0  0  0  0  0  0
   -5.1770    3.6730    0.6130 O   0  0  0  0  0  0  0  0  0  0  0  0
   -1.9340    2.1660   -0.1050 N   0  0  0  0  0  0  0  0  0  0  0  0
   -1.2200    0.8900   -0.2420 C   0  0  0  0  0  0  0  0  0  0  0  0
    0.1890    0.9860   -0.2390 C   0  0  0  0  0  0  0  0  0  0  0  0
    0.6210    2.2230   -0.6990 O   0  0  0  0  0  0  0  0  0  0  0  0
    1.3200    0.2520    0.0930 N   0  0  0  0  0  0  0  0  0  0  0  0
    1.4100   -0.7850    1.0600 C   0  0  0  0  0  0  0  0  0  0  0  0
    1.7750   -0.0440    2.4000 C   0  0  0  0  0  0  0  0  0  0  0  0
    2.5280    0.4640   -0.6930 C   0  0  0  0  0  0  0  0  0  0  0  0
    2.4080    1.4070   -1.5700 O   0  0  0  0  0  0  0  0  0  0  0  0
    3.7530   -0.2370   -0.6030 C   0  0  0  0  0  0  0  0  0  0  0  0
    3.9740   -1.4710   -1.2590 C   0  0  0  0  0  0  0  0  0  0  0  0
    2.9290   -2.2140   -2.0050 C   0  0  0  0  0  0  0  0  0  0  0  0
    5.2550   -1.8020   -1.0700 N   0  0  0  0  0  0  0  0  0  0  0  0
    5.8700   -0.8920   -0.3520 N   0  0  0  0  0  0  0  0  0  0  0  0
    7.2560   -0.8650    0.0760 C   0  0  0  0  0  0  0  0  0  0  0  0
    8.0790   -0.1720   -0.9400 C   0  0  0  0  0  0  0  0  0  0  0  0
    9.4710   -0.0350   -0.7350 N   0  0  0  0  0  0  0  0  0  0  0  0
    7.5500    0.2850   -1.9650 O   0  0  0  0  0  0  0  0  0  0  0  0
    4.9500    0.0870   -0.0560 C   0  0  0  0  0  0  0  0  0  0  0  0
    5.2930    1.2930    0.7360 C   0  0  0  0  0  0  0  0  0  0  0  0
    4.9460    1.1280    2.1820 C   0  0  0  0  0  0  0  0  0  0  0  0
   -1.9700   -0.1630   -0.5060 C   0  0  0  0  0  0  0  0  0  0  0  0
   -1.4500   -1.5160   -0.7590 C   0  0  0  0  0  0  0  0  0  0  0  0
   -0.2930   -1.9230   -0.7280 O   0  0  0  0  0  0  0  0  0  0  0  0
   -2.4280   -2.5910   -1.1450 C   0  0  0  0  0  0  0  0  0  0  0  0
   -1.6810   -3.9130   -1.3340 C   0  0  0  0  0  0  0  0  0  0  0  0
   -3.4320   -0.0380   -0.4060 C   0  0  1  0  0  0  0  0  0  0  0  0
   -4.1160   -0.8060    0.7080 C   0  0  0  0  0  0  0  0  0  0  0  0
   -3.7390   -1.5870    1.6820 C   0  0  0  0  0  0  0  0  0  0  0  0
   -2.1500   -2.0950    2.1850 Cl  0  0  0  0  0  0  0  0  0  0  0  0
   -4.9670   -2.3600    2.1730 C   0  0  0  0  0  0  0  0  0  0  0  0
   -6.0220   -1.4760    1.7100 C   0  0  0  0  0  0  0  0  0  0  0  0
   -5.5540   -0.6930    0.6950 C   0  0  0  0  0  0  0  0  0  0  0  0
  1  2  2  0
  2  3  1  0
  2 42  1  0
  3  4  2  0
  3  5  1  0
  5  6  2  0
  5 36  1  0
  6  7  1  0
  6 10  1  0
  7  8  1  6
  7  9  1  0
 10 11  1  0
 11 12  1  0
 11 31  2  0
 12 13  2  0
 12 14  1  0
 14 15  1  0
 14 17  1  0
 15 16  1  0
 17 18  2  0
 17 19  1  0
 19 20  1  0
 19 28  2  0
 20 21  1  0
 20 22  2  0
 22 23  1  0
 23 24  1  0
 23 28  1  0
 24 25  1  0
 25 26  1  0
 25 27  2  0
 28 29  1  0
 29 30  1  0
 31 32  1  0
 36 31  1  1
 32 33  2  0
 32 34  1  0
 34 35  1  0
 36 37  1  0
 37 38  2  0
 37 42  1  0
 38 39  1  0
 38 40  1  0
 40 41  1  0
 41 42  2  0
M  END
