
     RDKit          3D

 42 44  0  0  0  0  0  0  0  0999 V2000
   -7.0310    2.6620   -1.7190 C   0  0  0  0  0  0  0  0  0  0  0  0
   -6.3400    2.8910   -0.6700 C   0  0  0  0  0  0  0  0  0  0  0  0
   -6.7900    3.9940    0.1680 O   0  0  0  0  0  0  0  0  0  0  0  0
   -5.1730    2.2330   -0.1570 C   0  0  0  0  0  0  0  0  0  0  0  0
   -4.6740    2.8620    0.9760 C   0  0  0  0  0  0  0  0  0  0  0  0
   -3.4960    2.3490    1.6500 C   0  0  0  0  0  0  0  0  0  0  0  0
   -4.3230    1.1900   -0.6460 C   0  0  0  0  0  0  0  0  0  0  0  0
   -4.3120    0.2480   -1.5060 C   0  0  0  0  0  0  0  0  0  0  0  0
   -3.0380   -0.5760   -1.6320 C   0  0  0  0  0  0  0  0  0  0  0  0
   -3.0930   -1.4770   -2.5340 O   0  0  0  0  0  0  0  0  0  0  0  0
   -1.9040   -0.3820   -0.8460 N   0  0  0  0  0  0  0  0  0  0  0  0
   -0.7180   -1.1660   -0.9970 C   0  0  0  0  0  0  0  0  0  0  0  0
   -0.3580   -1.7950   -2.1420 C   0  0  0  0  0  0  0  0  0  0  0  0
    0.7890   -2.5750   -2.2460 C   0  0  0  0  0  0  0  0  0  0  0  0
    1.6050   -2.7230   -1.1510 C   0  0  0  0  0  0  0  0  0  0  0  0
    2.7250   -3.4730   -1.2060 N   0  0  0  0  0  0  0  0  0  0  0  0
    3.4900   -3.5990   -0.1210 C   0  0  0  0  0  0  0  0  0  0  0  0
    4.5550   -4.2990   -0.1330 O   0  0  0  0  0  0  0  0  0  0  0  0
    3.1760   -2.9900    1.0530 N   0  0  0  0  0  0  0  0  0  0  0  0
    4.0350   -3.1650    2.1880 C   0  0  0  0  0  0  0  0  0  0  0  0
    5.0750   -2.1060    2.2850 C   0  0  0  0  0  0  0  0  0  0  0  0
    5.9290   -2.1610    3.2400 O   0  0  0  0  0  0  0  0  0  0  0  0
    5.2020   -1.0200    1.3930 N   0  0  0  0  0  0  0  0  0  0  0  0
    6.2320   -0.0550    1.5830 C   0  0  2  0  0  0  0  0  0  0  0  0
    5.6720    1.3250    1.8560 C   0  0  0  0  0  0  0  0  0  0  0  0
    6.8300    2.2030    1.4900 C   0  0  0  0  0  0  0  0  0  0  0  0
    6.8620    3.5040    1.6720 C   0  0  0  0  0  0  0  0  0  0  0  0
    7.8880    1.3830    0.9110 C   0  0  0  0  0  0  0  0  0  0  0  0
    9.1770    1.5440    0.8400 C   0  0  0  0  0  0  0  0  0  0  0  0
    9.9150    2.7020    1.3840 C   0  0  0  0  0  0  0  0  0  0  0  0
   10.1310    0.3000    0.0320 Cl  0  0  0  0  0  0  0  0  0  0  0  0
    7.1200    0.1880    0.3850 C   0  0  0  0  0  0  0  0  0  0  0  0
    2.0720   -2.2390    1.1400 C   0  0  0  0  0  0  0  0  0  0  0  0
    1.7620   -1.6660    2.2170 O   0  0  0  0  0  0  0  0  0  0  0  0
    1.2670   -2.0980    0.0220 C   0  0  0  0  0  0  0  0  0  0  0  0
    0.1300   -1.3340    0.1020 C   0  0  0  0  0  0  0  0  0  0  0  0
   -5.4170   -0.4840   -2.1130 C   0  0  0  0  0  0  0  0  0  0  0  0
   -5.1430   -1.2740   -3.1000 O   0  0  0  0  0  0  0  0  0  0  0  0
   -6.7570   -0.4530   -1.7360 N   0  0  0  0  0  0  0  0  0  0  0  0
   -7.7760   -1.2490   -2.4360 C   0  0  1  0  0  0  0  0  0  0  0  0
   -8.4950   -2.1050   -1.4140 C   0  0  0  0  0  0  0  0  0  0  0  0
   -8.7710   -0.3210   -3.1210 C   0  0  0  0  0  0  0  0  0  0  0  0
  1  2  2  0
  2  3  1  0
  2  4  1  0
  4  5  2  3
  4  7  1  0
  5  6  1  0
  7  8  2  3
  8  9  1  0
  8 37  1  0
  9 10  2  0
  9 11  1  0
 11 12  1  0
 12 13  2  0
 12 36  1  0
 13 14  1  0
 14 15  2  0
 15 16  1  0
 15 35  1  0
 16 17  1  0
 17 18  2  0
 17 19  1  0
 19 20  1  0
 19 33  1  0
 20 21  1  0
 21 22  2  0
 21 23  1  0
 24 23  1  6
 24 25  1  0
 24 32  1  0
 25 26  1  0
 26 27  2  0
 26 28  1  0
 28 29  2  3
 28 32  1  0
 29 30  1  0
 29 31  1  0
 33 34  2  0
 33 35  1  0
 35 36  2  0
 37 38  2  0
 37 39  1  0
 39 40  1  0
 40 41  1  1
 40 42  1  0
M  END
