
     RDKit          3D

 42 45  0  0  0  0  0  0  0  0999 V2000
   -9.2360    0.9950    0.2970 C   0  0  0  0  0  0  0  0  0  0  0  0
   -7.9580    0.2620    0.4600 C   0  0  0  0  0  0  0  0  0  0  0  0
   -7.6870   -0.8180   -0.2530 C   0  0  0  0  0  0  0  0  0  0  0  0
   -6.4350   -1.5200   -0.0790 C   0  0  1  0  0  0  0  0  0  0  0  0
   -6.0290   -2.3920   -1.0580 O   0  0  0  0  0  0  0  0  0  0  0  0
   -4.7460   -2.8140   -0.7160 C   0  0  0  0  0  0  0  0  0  0  0  0
   -4.2550   -1.9260    0.4100 C   0  0  1  0  0  0  0  0  0  0  0  0
   -2.8920   -1.5440    0.2740 N   0  0  0  0  0  0  0  0  0  0  0  0
   -2.0260   -1.6580    1.4320 C   0  0  0  0  0  0  0  0  0  0  0  0
   -2.5230   -2.0850    2.4910 O   0  0  0  0  0  0  0  0  0  0  0  0
   -0.6590   -1.2990    1.3730 N   0  0  0  0  0  0  0  0  0  0  0  0
    0.2690   -1.3570    2.4370 C   0  0  0  0  0  0  0  0  0  0  0  0
   -0.0870   -1.5410    3.7470 C   0  0  0  0  0  0  0  0  0  0  0  0
    0.8450   -1.5380    4.8010 C   0  0  0  0  0  0  0  0  0  0  0  0
    2.1670   -1.3460    4.5350 C   0  0  0  0  0  0  0  0  0  0  0  0
    2.5390   -1.1580    3.2030 C   0  0  0  0  0  0  0  0  0  0  0  0
    1.6380   -1.1590    2.1600 C   0  0  0  0  0  0  0  0  0  0  0  0
    2.0140   -1.0280    0.8090 N   0  0  0  0  0  0  0  0  0  0  0  0
    3.3250   -0.6690    0.3420 C   0  0  0  0  0  0  0  0  0  0  0  0
    4.2150   -0.4450    1.1530 O   0  0  0  0  0  0  0  0  0  0  0  0
    3.5990   -0.5710   -1.0460 N   0  0  0  0  0  0  0  0  0  0  0  0
    4.8350   -0.2310   -1.6410 C   0  0  0  0  0  0  0  0  0  0  0  0
    4.9460   -0.2560   -3.0440 C   0  0  0  0  0  0  0  0  0  0  0  0
    6.1110    0.0650   -3.6710 C   0  0  0  0  0  0  0  0  0  0  0  0
    7.2500    0.4320   -2.9950 C   0  0  0  0  0  0  0  0  0  0  0  0
    7.1840    0.4670   -1.6330 C   0  0  0  0  0  0  0  0  0  0  0  0
    8.2890    0.8040   -0.7950 N   0  0  0  0  0  0  0  0  0  0  0  0
    9.6390    0.7950   -1.1960 C   0  0  0  0  0  0  0  0  0  0  0  0
    9.9520    0.4480   -2.3860 O   0  0  0  0  0  0  0  0  0  0  0  0
   10.7630    1.1760   -0.2770 C   0  0  0  0  0  0  0  0  0  0  0  0
   10.3750    1.8100    0.8650 O   0  0  0  0  0  0  0  0  0  0  0  0
    9.8510    3.0610    0.6630 C   0  0  0  0  0  0  0  0  0  0  0  0
    5.9750    0.1350   -0.9830 C   0  0  0  0  0  0  0  0  0  0  0  0
   -5.2240   -0.7100    0.1710 C   0  0  1  0  0  0  0  0  0  0  0  0
   -4.5690    0.1090   -0.8290 C   0  0  0  0  0  0  0  0  0  0  0  0
   -5.2250    1.2250   -1.5140 C   0  0  0  0  0  0  0  0  0  0  0  0
   -4.8640    2.5150   -1.2860 C   0  0  0  0  0  0  0  0  0  0  0  0
   -5.6720    3.4120   -2.0910 C   0  0  0  0  0  0  0  0  0  0  0  0
   -6.4180    2.5770   -2.9330 O   0  0  0  0  0  0  0  0  0  0  0  0
   -6.2090    1.2330   -2.5630 C   0  0  0  0  0  0  0  0  0  0  0  0
   -6.8620    0.2330   -3.1620 C   0  0  0  0  0  0  0  0  0  0  0  0
   -8.0160    0.6520   -4.4270 Cl  0  0  0  0  0  0  0  0  0  0  0  0
  1  2  1  0
  2  3  2  3
  4  3  1  6
  4  5  1  0
  4 34  1  0
  5  6  1  0
  6  7  1  0
  7  8  1  6
  7 34  1  0
  8  9  1  0
  9 10  2  0
  9 11  1  0
 11 12  1  0
 12 13  2  0
 12 17  1  0
 13 14  1  0
 14 15  2  0
 15 16  1  0
 16 17  2  0
 17 18  1  0
 18 19  1  0
 19 20  2  0
 19 21  1  0
 21 22  1  0
 22 23  2  0
 22 33  1  0
 23 24  1  0
 24 25  2  0
 25 26  1  0
 26 27  1  0
 26 33  2  0
 27 28  1  0
 28 29  2  0
 28 30  1  0
 30 31  1  0
 31 32  1  0
 34 35  1  6
 35 36  1  0
 36 37  2  0
 36 40  1  0
 37 38  1  0
 38 39  1  0
 39 40  1  0
 40 41  2  3
 41 42  1  0
M  END
