
     RDKit          3D

 42 45  0  0  0  0  0  0  0  0999 V2000
   -3.8760    1.7590    1.9890 C   0  0  0  0  0  0  0  0  0  0  0  0
   -3.5130    0.7190    0.9730 C   0  0  2  0  0  0  0  0  0  0  0  0
   -2.5610    1.1280    0.0070 N   0  0  0  0  0  0  0  0  0  0  0  0
   -1.8280    2.3270    0.2640 C   0  0  0  0  0  0  0  0  0  0  0  0
   -1.0740    2.3470    1.5270 C   0  0  0  0  0  0  0  0  0  0  0  0
   -0.4470    3.3990    1.8000 O   0  0  0  0  0  0  0  0  0  0  0  0
   -1.0160    1.2950    2.4120 O   0  0  0  0  0  0  0  0  0  0  0  0
   -0.2580    1.4150    3.5890 C   0  0  0  0  0  0  0  0  0  0  0  0
    1.1900    1.6030    3.2260 C   0  0  0  0  0  0  0  0  0  0  0  0
    1.5500    0.4230    2.4840 O   0  0  0  0  0  0  0  0  0  0  0  0
    2.8500    0.3270    1.9740 C   0  0  0  0  0  0  0  0  0  0  0  0
    3.5820    1.2840    2.2060 O   0  0  0  0  0  0  0  0  0  0  0  0
    3.2240   -0.8570    1.2310 C   0  0  0  0  0  0  0  0  0  0  0  0
    2.2810   -1.8950    1.1680 C   0  0  0  0  0  0  0  0  0  0  0  0
    2.5240   -3.0820    0.5400 C   0  0  0  0  0  0  0  0  0  0  0  0
    3.7520   -3.2700   -0.0600 C   0  0  0  0  0  0  0  0  0  0  0  0
    4.6780   -2.2570   -0.0040 C   0  0  0  0  0  0  0  0  0  0  0  0
    4.4380   -1.0380    0.6360 C   0  0  0  0  0  0  0  0  0  0  0  0
    5.4590   -0.0240    0.5970 C   0  0  0  0  0  0  0  0  0  0  0  0
    5.4200    1.1160    1.0380 O   0  0  0  0  0  0  0  0  0  0  0  0
    6.7110   -0.3220   -0.0280 O   0  0  0  0  0  0  0  0  0  0  0  0
    7.7180    0.6700   -0.0740 C   0  0  0  0  0  0  0  0  0  0  0  0
    8.8910    0.1070   -0.7530 C   0  0  0  0  0  0  0  0  0  0  0  0
    8.8760   -1.1870   -1.2050 C   0  0  0  0  0  0  0  0  0  0  0  0
    9.9930   -1.7380   -1.8530 C   0  0  0  0  0  0  0  0  0  0  0  0
   11.1190   -0.9680   -2.0360 C   0  0  0  0  0  0  0  0  0  0  0  0
   11.1240    0.3370   -1.5750 C   0  0  0  0  0  0  0  0  0  0  0  0
   10.0160    0.8750   -0.9360 C   0  0  0  0  0  0  0  0  0  0  0  0
   10.0930    2.2030   -0.4960 O   0  0  0  0  0  0  0  0  0  0  0  0
   -4.7770    0.3490    0.2350 C   0  0  0  0  0  0  0  0  0  0  0  0
   -5.3000    1.1990   -0.7250 C   0  0  0  0  0  0  0  0  0  0  0  0
   -6.4620    0.8900   -1.4260 C   0  0  0  0  0  0  0  0  0  0  0  0
   -7.0720   -0.2990   -1.1270 C   0  0  0  0  0  0  0  0  0  0  0  0
   -6.5670   -1.1630   -0.1690 C   0  0  0  0  0  0  0  0  0  0  0  0
   -5.4320   -0.8350    0.4990 C   0  0  0  0  0  0  0  0  0  0  0  0
   -7.3920   -2.3920    0.0340 C   0  0  0  0  0  0  0  0  0  0  0  0
   -8.7370   -2.0830    0.1140 O   0  0  0  0  0  0  0  0  0  0  0  0
   -9.2900   -1.4190   -0.9470 C   0  0  0  0  0  0  0  0  0  0  0  0
   -8.2750   -0.7240   -1.8090 C   0  0  0  0  0  0  0  0  0  0  0  0
   -8.4420   -0.5890   -3.0710 C   0  0  0  0  0  0  0  0  0  0  0  0
   -7.5310   -0.0380   -4.0230 C   0  0  0  0  0  0  0  0  0  0  0  0
   -7.8670    0.0680   -5.2970 N   0  0  0  0  0  0  0  0  0  0  0  0
  2  1  1  1
  2  3  1  0
  2 30  1  0
  3  4  1  0
  4  5  1  0
  5  6  2  0
  5  7  1  0
  7  8  1  0
  8  9  1  0
  9 10  1  0
 10 11  1  0
 11 12  2  0
 11 13  1  0
 13 14  2  0
 13 18  1  0
 14 15  1  0
 15 16  2  0
 16 17  1  0
 17 18  2  0
 18 19  1  0
 19 20  2  0
 19 21  1  0
 21 22  1  0
 22 23  1  0
 23 24  2  0
 23 28  1  0
 24 25  1  0
 25 26  2  0
 26 27  1  0
 27 28  2  0
 28 29  1  0
 30 31  2  0
 30 35  1  0
 31 32  1  0
 32 33  2  0
 33 34  1  0
 33 39  1  0
 34 35  2  0
 34 36  1  0
 36 37  1  0
 37 38  1  0
 38 39  1  0
 39 40  2  3
 40 41  1  0
 41 42  2  0
M  CHG  1   3   1
M  END
