
     RDKit          3D

 42 45  0  0  0  0  0  0  0  0999 V2000
    7.0170    0.7530    1.0310 C   0  0  0  0  0  0  0  0  0  0  0  0
    5.7270    0.6020    0.8740 C   0  0  0  0  0  0  0  0  0  0  0  0
    5.1610    0.4390   -0.4860 C   0  0  0  0  0  0  0  0  0  0  0  0
    5.8160    0.4640   -1.5360 O   0  0  0  0  0  0  0  0  0  0  0  0
    3.7070    0.2330   -0.5360 C   0  0  0  0  0  0  0  0  0  0  0  0
    3.2530   -0.6340   -1.4690 C   0  0  0  0  0  0  0  0  0  0  0  0
    4.1790   -1.3520   -2.3970 C   0  0  1  0  0  0  0  0  0  0  0  0
    3.5650   -2.7720   -2.4740 C   0  0  0  0  0  0  0  0  0  0  0  0
    4.1900   -0.8650   -3.6720 O   0  0  0  0  0  0  0  0  0  0  0  0
    1.8560   -0.7640   -1.5670 N   0  0  0  0  0  0  0  0  0  0  0  0
    0.9270   -0.0490   -0.7610 C   0  0  0  0  0  0  0  0  0  0  0  0
   -0.4790   -0.3260   -0.9770 C   0  0  0  0  0  0  0  0  0  0  0  0
   -1.2850    0.4200   -0.3130 O   0  0  0  0  0  0  0  0  0  0  0  0
   -1.1630   -1.2500   -1.7630 N   0  0  0  0  0  0  0  0  0  0  0  0
   -0.6340   -2.2990   -2.5780 C   0  0  0  0  0  0  0  0  0  0  0  0
   -0.3620   -1.9590   -4.0020 C   0  0  0  0  0  0  0  0  0  0  0  0
   -2.6250   -1.1610   -1.8490 C   0  0  0  0  0  0  0  0  0  0  0  0
   -3.1580   -2.0030   -2.6490 O   0  0  0  0  0  0  0  0  0  0  0  0
   -3.4700   -0.2540   -1.1510 C   0  0  0  0  0  0  0  0  0  0  0  0
   -3.8380    1.0130   -1.5440 C   0  0  0  0  0  0  0  0  0  0  0  0
   -3.3920    1.7840   -2.7370 C   0  0  0  0  0  0  0  0  0  0  0  0
   -4.7130    1.5020   -0.6550 N   0  0  0  0  0  0  0  0  0  0  0  0
   -4.9150    0.5790    0.3010 N   0  0  0  0  0  0  0  0  0  0  0  0
   -5.8300    0.7330    1.4200 C   0  0  0  0  0  0  0  0  0  0  0  0
   -5.1710    1.3200    2.5800 C   0  0  0  0  0  0  0  0  0  0  0  0
   -5.8840    1.5390    3.8190 N   0  0  0  0  0  0  0  0  0  0  0  0
   -3.9630    1.6510    2.5280 O   0  0  0  0  0  0  0  0  0  0  0  0
   -4.1680   -0.4990    0.0250 C   0  0  0  0  0  0  0  0  0  0  0  0
   -4.1270   -1.7310    0.8530 C   0  0  0  0  0  0  0  0  0  0  0  0
   -2.8410   -1.7300    1.6360 C   0  0  0  0  0  0  0  0  0  0  0  0
    1.3700    0.7850    0.1450 C   0  0  0  0  0  0  0  0  0  0  0  0
    0.5910    1.5960    1.0190 C   0  0  0  0  0  0  0  0  0  0  0  0
    1.5230    2.3670    1.7020 O   0  0  0  0  0  0  0  0  0  0  0  0
   -0.7000    1.9620    1.4990 C   0  0  0  0  0  0  0  0  0  0  0  0
   -1.2620    3.2010    0.8000 C   0  0  0  0  0  0  0  0  0  0  0  0
    2.8400    0.8030    0.4080 C   0  0  1  0  0  0  0  0  0  0  0  0
    3.2840    0.4830    1.7980 C   0  0  0  0  0  0  0  0  0  0  0  0
    2.7170    0.1300    2.9020 C   0  0  0  0  0  0  0  0  0  0  0  0
    1.0340   -0.2120    3.3450 Cl  0  0  0  0  0  0  0  0  0  0  0  0
    3.7650    0.3380    4.0050 C   0  0  0  0  0  0  0  0  0  0  0  0
    5.0050    0.2780    3.2540 C   0  0  0  0  0  0  0  0  0  0  0  0
    4.7430    0.5780    1.9530 C   0  0  0  0  0  0  0  0  0  0  0  0
  1  2  2  0
  2  3  1  0
  2 42  1  0
  3  4  2  0
  3  5  1  0
  5  6  2  0
  5 36  1  0
  6  7  1  0
  6 10  1  0
  7  8  1  6
  7  9  1  0
 10 11  1  0
 11 12  1  0
 11 31  2  0
 12 13  2  0
 12 14  1  0
 14 15  1  0
 14 17  1  0
 15 16  1  0
 17 18  2  0
 17 19  1  0
 19 20  1  0
 19 28  2  0
 20 21  1  0
 20 22  2  0
 22 23  1  0
 23 24  1  0
 23 28  1  0
 24 25  1  0
 25 26  1  0
 25 27  2  0
 28 29  1  0
 29 30  1  0
 31 32  1  0
 36 31  1  6
 32 33  2  0
 32 34  1  0
 34 35  1  0
 36 37  1  0
 37 38  2  0
 37 42  1  0
 38 39  1  0
 38 40  1  0
 40 41  1  0
 41 42  2  0
M  END
