
     RDKit          3D

 42 44  0  0  0  0  0  0  0  0999 V2000
   -6.2040   -3.0680    2.8960 C   0  0  0  0  0  0  0  0  0  0  0  0
   -7.2300   -2.3200    2.6750 C   0  0  0  0  0  0  0  0  0  0  0  0
   -8.3420   -2.6710    3.5330 O   0  0  0  0  0  0  0  0  0  0  0  0
   -7.3910   -1.2420    1.7530 C   0  0  0  0  0  0  0  0  0  0  0  0
   -8.6870   -0.6990    1.7210 C   0  0  0  0  0  0  0  0  0  0  0  0
   -9.7630   -1.1670    2.5290 C   0  0  0  0  0  0  0  0  0  0  0  0
   -6.5660   -0.5620    0.8180 C   0  0  0  0  0  0  0  0  0  0  0  0
   -5.3980   -0.4290    0.3440 C   0  0  0  0  0  0  0  0  0  0  0  0
   -4.1310   -1.0230    0.6020 C   0  0  0  0  0  0  0  0  0  0  0  0
   -3.7740   -1.6550    1.6400 O   0  0  0  0  0  0  0  0  0  0  0  0
   -3.0670   -0.9890   -0.3680 N   0  0  0  0  0  0  0  0  0  0  0  0
   -1.7650   -1.5220   -0.2220 C   0  0  0  0  0  0  0  0  0  0  0  0
   -1.3500   -2.4420    0.6950 C   0  0  0  0  0  0  0  0  0  0  0  0
   -0.0340   -2.9030    0.7460 C   0  0  0  0  0  0  0  0  0  0  0  0
    0.9220   -2.4520   -0.1330 C   0  0  0  0  0  0  0  0  0  0  0  0
    2.1870   -2.8720   -0.1280 N   0  0  0  0  0  0  0  0  0  0  0  0
    3.1260   -2.4410   -0.9970 C   0  0  0  0  0  0  0  0  0  0  0  0
    4.3060   -2.8770   -0.9410 O   0  0  0  0  0  0  0  0  0  0  0  0
    2.7610   -1.5240   -1.9320 N   0  0  0  0  0  0  0  0  0  0  0  0
    3.7510   -1.0710   -2.8880 C   0  0  0  0  0  0  0  0  0  0  0  0
    4.4890    0.1340   -2.4370 C   0  0  0  0  0  0  0  0  0  0  0  0
    4.0020    1.2600   -2.7230 O   0  0  0  0  0  0  0  0  0  0  0  0
    5.7020   -0.0070   -1.7120 N   0  0  0  0  0  0  0  0  0  0  0  0
    6.3850    1.2280   -1.3060 C   0  0  2  0  0  0  0  0  0  0  0  0
    7.8120    1.1790   -1.6910 C   0  0  0  0  0  0  0  0  0  0  0  0
    8.5160    1.7950   -0.5150 C   0  0  0  0  0  0  0  0  0  0  0  0
    9.6250    2.4790   -0.5280 C   0  0  0  0  0  0  0  0  0  0  0  0
    7.6990    1.4630    0.6360 C   0  0  0  0  0  0  0  0  0  0  0  0
    8.0660    1.2100    1.8770 C   0  0  0  0  0  0  0  0  0  0  0  0
    9.4900    1.2470    2.2470 C   0  0  0  0  0  0  0  0  0  0  0  0
    6.8740    0.8220    3.0990 Cl  0  0  0  0  0  0  0  0  0  0  0  0
    6.2970    1.4410    0.1580 C   0  0  0  0  0  0  0  0  0  0  0  0
    1.4960   -1.0890   -1.9520 C   0  0  0  0  0  0  0  0  0  0  0  0
    1.1790   -0.2370   -2.8310 O   0  0  0  0  0  0  0  0  0  0  0  0
    0.5220   -1.5120   -1.0810 C   0  0  0  0  0  0  0  0  0  0  0  0
   -0.7730   -1.0610   -1.1280 C   0  0  0  0  0  0  0  0  0  0  0  0
   -5.3160    0.8060   -0.5600 C   0  0  0  0  0  0  0  0  0  0  0  0
   -6.4140    1.3510   -0.9480 O   0  0  0  0  0  0  0  0  0  0  0  0
   -4.1600    1.4290   -0.9800 N   0  0  0  0  0  0  0  0  0  0  0  0
   -4.2420    2.6290   -1.8350 C   0  0  1  0  0  0  0  0  0  0  0  0
   -4.6490    3.7820   -0.8800 C   0  0  0  0  0  0  0  0  0  0  0  0
   -2.8610    2.9610   -2.3130 C   0  0  0  0  0  0  0  0  0  0  0  0
  1  2  2  0
  2  3  1  0
  2  4  1  0
  4  5  2  3
  4  7  1  0
  5  6  1  0
  7  8  2  3
  8  9  1  0
  8 37  1  0
  9 10  2  0
  9 11  1  0
 11 12  1  0
 12 13  2  0
 12 36  1  0
 13 14  1  0
 14 15  2  0
 15 16  1  0
 15 35  1  0
 16 17  1  0
 17 18  2  0
 17 19  1  0
 19 20  1  0
 19 33  1  0
 20 21  1  0
 21 22  2  0
 21 23  1  0
 24 23  1  1
 24 25  1  0
 24 32  1  0
 25 26  1  0
 26 27  2  0
 26 28  1  0
 28 29  2  3
 28 32  1  0
 29 30  1  0
 29 31  1  0
 33 34  2  0
 33 35  1  0
 35 36  2  0
 37 38  2  0
 37 39  1  0
 39 40  1  0
 40 41  1  1
 40 42  1  0
M  END
