
     RDKit          3D

 42 42  0  0  0  0  0  0  0  0999 V2000
   -7.3560   -1.6550   -0.5790 C   0  0  0  0  0  0  0  0  0  0  0  0
   -6.0090   -1.2540   -0.9960 C   0  0  0  0  0  0  0  0  0  0  0  0
   -5.6130   -1.4570   -2.1760 O   0  0  0  0  0  0  0  0  0  0  0  0
   -5.1190   -0.6360   -0.1080 N   0  0  0  0  0  0  0  0  0  0  0  0
   -3.7430   -0.2160   -0.5000 C   0  0  1  0  0  0  0  0  0  0  0  0
   -3.7610    1.2580   -0.4030 C   0  0  0  0  0  0  0  0  0  0  0  0
   -2.5270    2.0060   -0.7480 C   0  0  1  0  0  0  0  0  0  0  0  0
   -2.1080    1.7630   -2.1620 C   0  0  0  0  0  0  0  0  0  0  0  0
   -2.8380    2.5970   -3.1850 C   0  0  0  0  0  0  0  0  0  0  0  0
   -2.8900    4.0500   -2.8540 C   0  0  0  0  0  0  0  0  0  0  0  0
   -3.6040    4.1590   -1.4980 C   0  0  0  0  0  0  0  0  0  0  0  0
   -2.6790    3.5040   -0.5150 C   0  0  0  0  0  0  0  0  0  0  0  0
   -2.7470   -0.9670    0.3400 C   0  0  1  0  0  0  0  0  0  0  0  0
   -1.4810   -0.5360   -0.1290 O   0  0  0  0  0  0  0  0  0  0  0  0
   -2.8480   -0.7560    1.7850 C   0  0  0  0  0  0  0  0  0  0  0  0
   -1.9550   -1.4560    2.7270 C   0  0  2  0  0  0  0  0  0  0  0  0
   -0.5190   -1.2590    2.6020 C   0  0  0  0  0  0  0  0  0  0  0  0
    0.0740   -0.4660    3.4380 O   0  0  0  0  0  0  0  0  0  0  0  0
    0.3630   -1.8230    1.6640 N   0  0  0  0  0  0  0  0  0  0  0  0
    1.7720   -1.5680    1.5910 C   0  0  1  0  0  0  0  0  0  0  0  0
    2.6230   -2.6500    2.1660 C   0  0  0  0  0  0  0  0  0  0  0  0
    2.4930   -4.0020    1.5660 C   0  0  0  0  0  0  0  0  0  0  0  0
    1.1850   -4.6410    1.7630 C   0  0  0  0  0  0  0  0  0  0  0  0
    0.6250   -5.5950    0.8790 N   0  0  0  0  0  0  0  0  0  0  0  0
    0.5460   -4.3010    2.7940 O   0  0  0  0  0  0  0  0  0  0  0  0
    2.2310   -1.1600    0.2540 C   0  0  0  0  0  0  0  0  0  0  0  0
    1.4630   -1.0700   -0.7570 O   0  0  0  0  0  0  0  0  0  0  0  0
    3.5960   -0.8440    0.0470 N   0  0  0  0  0  0  0  0  0  0  0  0
    4.0930   -0.4330   -1.2820 C   0  0  1  0  0  0  0  0  0  0  0  0
    4.7850    0.8860   -1.0580 C   0  0  0  0  0  0  0  0  0  0  0  0
    5.3660    1.5120   -2.2830 C   0  0  0  0  0  0  0  0  0  0  0  0
    6.0440    2.8250   -2.0000 C   0  0  0  0  0  0  0  0  0  0  0  0
    5.1560    3.8240   -1.4280 N   0  0  0  0  0  0  0  0  0  0  0  0
    5.5640    4.9370   -0.9710 C   0  0  0  0  0  0  0  0  0  0  0  0
    6.9420    5.3200   -0.9750 N   0  0  0  0  0  0  0  0  0  0  0  0
    4.6430    5.8670   -0.4240 N   0  0  0  0  0  0  0  0  0  0  0  0
    5.1150   -1.4230   -1.7390 C   0  0  0  0  0  0  0  0  0  0  0  0
    5.7880   -1.3920   -2.9650 N   0  0  0  0  0  0  0  0  0  0  0  0
    5.3930   -2.3770   -0.9400 O   0  0  0  0  0  0  0  0  0  0  0  0
   -2.4110   -2.8180    3.1690 C   0  0  1  0  0  0  0  0  0  0  0  0
   -3.7430   -2.6210    3.8940 C   0  0  0  0  0  0  0  0  0  0  0  0
   -2.5480   -3.8570    2.1090 C   0  0  0  0  0  0  0  0  0  0  0  0
  1  2  1  0
  2  3  2  0
  2  4  1  0
  4  5  1  0
  5  6  1  1
  5 13  1  0
  7  6  1  6
  7  8  1  0
  7 12  1  0
  8  9  1  0
  9 10  1  0
 10 11  1  0
 11 12  1  0
 13 14  1  6
 13 15  1  0
 16 15  1  6
 16 17  1  0
 16 40  1  0
 17 18  2  0
 17 19  1  0
 19 20  1  0
 20 21  1  6
 20 26  1  0
 21 22  1  0
 22 23  1  0
 23 24  1  0
 23 25  2  0
 26 27  2  0
 26 28  1  0
 28 29  1  0
 29 30  1  1
 29 37  1  0
 30 31  1  0
 31 32  1  0
 32 33  1  0
 33 34  2  3
 34 35  1  0
 34 36  1  0
 37 38  1  0
 37 39  2  0
 40 41  1  6
 40 42  1  0
M  CHG  1  33   1
M  END
