
     RDKit          3D

 42 45  0  0  0  0  0  0  0  0999 V2000
    0.8840   -6.4510   -2.6840 C   0  0  0  0  0  0  0  0  0  0  0  0
    0.3570   -5.0520   -2.9550 C   0  0  0  0  0  0  0  0  0  0  0  0
    0.1720   -4.3700   -1.6210 C   0  0  0  0  0  0  0  0  0  0  0  0
   -0.3560   -2.9580   -1.8370 C   0  0  0  0  0  0  0  0  0  0  0  0
   -0.5180   -2.5370   -3.0030 O   0  0  0  0  0  0  0  0  0  0  0  0
   -0.6580   -2.1350   -0.7340 N   0  0  0  0  0  0  0  0  0  0  0  0
   -1.1570   -0.8160   -0.7820 C   0  0  0  0  0  0  0  0  0  0  0  0
   -1.9150   -0.3750   -1.8750 C   0  0  0  0  0  0  0  0  0  0  0  0
   -2.6260    0.8000   -1.8600 C   0  0  0  0  0  0  0  0  0  0  0  0
   -2.6150    1.6120   -0.7120 C   0  0  0  0  0  0  0  0  0  0  0  0
   -3.3380    2.8530   -0.5950 C   0  0  0  0  0  0  0  0  0  0  0  0
   -4.5690    2.9830   -0.9970 C   0  0  0  0  0  0  0  0  0  0  0  0
   -5.4190    1.6520   -1.7050 Cl  0  0  0  0  0  0  0  0  0  0  0  0
   -5.3060    4.2760   -0.8700 C   0  0  0  0  0  0  0  0  0  0  0  0
   -4.4150    5.3210   -0.2250 C   0  0  0  0  0  0  0  0  0  0  0  0
   -1.8780    1.1790    0.3470 C   0  0  0  0  0  0  0  0  0  0  0  0
   -1.1640    0.0030    0.2910 C   0  0  0  0  0  0  0  0  0  0  0  0
   -0.1750   -0.1120    1.4890 C   0  0  1  0  0  0  0  0  0  0  0  0
    0.8240   -1.0610    1.1050 N   0  0  0  0  0  0  0  0  0  0  0  0
    1.6060   -0.9690   -0.0730 C   0  0  0  0  0  0  0  0  0  0  0  0
    1.4940   -0.0500   -0.9110 O   0  0  0  0  0  0  0  0  0  0  0  0
    2.5910   -1.9540   -0.3700 N   0  0  0  0  0  0  0  0  0  0  0  0
    3.4240   -1.9750   -1.4950 C   0  0  0  0  0  0  0  0  0  0  0  0
    3.4240   -1.0490   -2.4940 C   0  0  0  0  0  0  0  0  0  0  0  0
    4.2860   -1.1350   -3.5890 C   0  0  0  0  0  0  0  0  0  0  0  0
    5.1660   -2.1660   -3.6900 C   0  0  0  0  0  0  0  0  0  0  0  0
    5.1680   -3.1000   -2.6850 C   0  0  0  0  0  0  0  0  0  0  0  0
    4.3390   -3.0460   -1.6010 C   0  0  0  0  0  0  0  0  0  0  0  0
    4.3820   -4.0290   -0.6030 O   0  0  0  0  0  0  0  0  0  0  0  0
    0.5110    1.2100    1.5450 C   0  0  0  0  0  0  0  0  0  0  0  0
    1.0090    1.6500    0.4120 O   0  0  0  0  0  0  0  0  0  0  0  0
    0.7560    2.0930    2.5960 N   0  0  0  0  0  0  0  0  0  0  0  0
    0.5990    2.0070    3.9910 C   0  0  0  0  0  0  0  0  0  0  0  0
   -0.0760    3.1800    4.6040 C   0  0  0  0  0  0  0  0  0  0  0  0
    0.8640    4.3050    4.4570 N   0  0  0  0  0  0  0  0  0  0  0  0
    1.7410    4.2420    3.3020 C   0  0  0  0  0  0  0  0  0  0  0  0
    2.8250    4.8770    3.3040 O   0  0  0  0  0  0  0  0  0  0  0  0
    1.3180    3.4300    2.1700 C   0  0  0  0  0  0  0  0  0  0  0  0
   -1.0900   -0.4130    2.5940 C   0  0  0  0  0  0  0  0  0  0  0  0
   -2.0550    0.7360    2.8270 C   0  0  0  0  0  0  0  0  0  0  0  0
   -2.0120    1.7550    1.7210 C   0  0  0  0  0  0  0  0  0  0  0  0
   -2.0780    2.9570    1.8180 O   0  0  0  0  0  0  0  0  0  0  0  0
  1  2  1  0
  2  3  1  0
  3  4  1  0
  4  5  2  0
  4  6  1  0
  6  7  1  0
  7  8  2  0
  7 17  1  0
  8  9  1  0
  9 10  2  0
 10 11  1  0
 10 16  1  0
 11 12  2  3
 12 13  1  0
 12 14  1  0
 14 15  1  0
 16 17  2  0
 16 41  1  0
 17 18  1  0
 18 19  1  6
 18 30  1  0
 18 39  1  0
 19 20  1  0
 20 21  2  0
 20 22  1  0
 22 23  1  0
 23 24  2  0
 23 28  1  0
 24 25  1  0
 25 26  2  0
 26 27  1  0
 27 28  2  0
 28 29  1  0
 30 31  2  0
 30 32  1  0
 32 33  1  0
 32 38  1  0
 33 34  1  0
 34 35  1  0
 35 36  1  0
 36 37  2  0
 36 38  1  0
 39 40  1  0
 40 41  1  0
 41 42  2  0
M  END
