
     RDKit          3D

 42 46  0  0  0  0  0  0  0  0999 V2000
   -0.7260   -4.0830    0.3400 C   0  0  0  0  0  0  0  0  0  0  0  0
    0.3910   -3.5530   -0.4940 C   0  0  0  0  0  0  0  0  0  0  0  0
    1.2210   -4.2100   -1.2640 O   0  0  0  0  0  0  0  0  0  0  0  0
    2.0710   -3.4180   -1.8430 N   0  0  0  0  0  0  0  0  0  0  0  0
    1.8250   -2.1290   -1.4590 C   0  0  0  0  0  0  0  0  0  0  0  0
    2.5740   -0.9420   -1.9060 C   0  0  0  0  0  0  0  0  0  0  0  0
    3.4880   -0.4780   -0.8410 C   0  0  0  0  0  0  0  0  0  0  0  0
    3.4860   -1.0540    0.2640 O   0  0  0  0  0  0  0  0  0  0  0  0
    4.3710    0.6070   -1.0480 N   0  0  0  0  0  0  0  0  0  0  0  0
    5.2800    1.1120   -0.0760 C   0  0  0  0  0  0  0  0  0  0  0  0
    6.5470    0.5750    0.0840 C   0  0  0  0  0  0  0  0  0  0  0  0
    6.9260   -0.5130   -0.7270 N   0  0  0  0  0  0  0  0  0  0  0  0
    7.0360   -0.5070   -2.1560 C   0  0  0  0  0  0  0  0  0  0  0  0
    8.1860   -1.4390   -2.4230 C   0  0  0  0  0  0  0  0  0  0  0  0
    8.3480   -2.2800   -1.1960 C   0  0  0  0  0  0  0  0  0  0  0  0
    7.2590   -1.8310   -0.2580 C   0  0  0  0  0  0  0  0  0  0  0  0
    7.3780    1.0830    0.9960 N   0  0  0  0  0  0  0  0  0  0  0  0
    7.0720    2.1160    1.8040 C   0  0  0  0  0  0  0  0  0  0  0  0
    5.8210    2.6720    1.6700 C   0  0  0  0  0  0  0  0  0  0  0  0
    4.9250    2.1710    0.7310 C   0  0  0  0  0  0  0  0  0  0  0  0
    3.5850    2.8130    0.6290 C   0  0  0  0  0  0  0  0  0  0  0  0
    5.6550    3.6850    2.5320 C   0  0  0  0  0  0  0  0  0  0  0  0
    6.9090    3.8180    3.3130 C   0  0  0  0  0  0  0  0  0  0  0  0
    7.7620    2.7550    2.7620 C   0  0  0  0  0  0  0  0  0  0  0  0
    0.7630   -2.2050   -0.6040 C   0  0  0  0  0  0  0  0  0  0  0  0
    0.0700   -1.1230    0.1140 C   0  0  0  0  0  0  0  0  0  0  0  0
   -1.2150   -0.8300   -0.5600 C   0  0  0  0  0  0  0  0  0  0  0  0
   -1.5290   -1.4510   -1.6290 O   0  0  0  0  0  0  0  0  0  0  0  0
   -2.1450    0.1240   -0.0740 N   0  0  0  0  0  0  0  0  0  0  0  0
   -1.7860    0.8240    1.1640 C   0  0  0  0  0  0  0  0  0  0  0  0
   -3.3850    0.4010   -0.7690 C   0  0  2  0  0  0  0  0  0  0  0  0
   -3.4400    1.8540   -1.0600 C   0  0  0  0  0  0  0  0  0  0  0  0
   -4.7760    2.4660   -1.2420 C   0  0  0  0  0  0  0  0  0  0  0  0
   -5.9260    1.7810   -0.5820 C   0  0  0  0  0  0  0  0  0  0  0  0
   -5.8040    0.2750   -0.6050 C   0  0  2  0  0  0  0  0  0  0  0  0
   -5.5240   -0.0820   -2.0820 C   0  0  0  0  0  0  0  0  0  0  0  0
   -6.9580   -0.4400   -0.2750 N   0  0  0  0  0  0  0  0  0  0  0  0
   -7.4150   -0.5910    1.0430 C   0  0  1  0  0  0  0  0  0  0  0  0
   -8.7390   -1.3790    0.9100 C   0  0  0  0  0  0  0  0  0  0  0  0
   -6.5570   -1.3980    1.9570 C   0  0  0  0  0  0  0  0  0  0  0  0
   -7.7950    0.6800    1.7510 C   0  0  0  0  0  0  0  0  0  0  0  0
   -4.5530   -0.0590    0.1320 C   0  0  0  0  0  0  0  0  0  0  0  0
  1  2  1  0
  2  3  1  0
  2 25  2  0
  3  4  1  0
  4  5  2  0
  5  6  1  0
  5 25  1  0
  6  7  1  0
  7  8  2  0
  7  9  1  0
  9 10  1  0
 10 11  1  0
 10 20  2  0
 11 12  1  0
 11 17  2  0
 12 13  1  0
 12 16  1  0
 13 14  1  0
 14 15  1  0
 15 16  1  0
 17 18  1  0
 18 19  1  0
 18 24  2  0
 19 20  1  0
 19 22  2  0
 20 21  1  0
 22 23  1  0
 23 24  1  0
 25 26  1  0
 26 27  1  0
 27 28  2  0
 27 29  1  0
 29 30  1  0
 31 29  1  1
 31 32  1  0
 31 42  1  0
 32 33  1  0
 33 34  1  0
 34 35  1  0
 35 36  1  6
 35 37  1  0
 35 42  1  0
 37 38  1  0
 38 39  1  6
 38 40  1  0
 38 41  1  0
M  CHG  1  37   1
M  END
