
     RDKit          3D

 42 47  0  0  0  0  0  0  0  0999 V2000
   -5.4070    3.0020    2.0140 C   0  0  0  0  0  0  0  0  0  0  0  0
   -5.6030    3.4700    0.6150 C   0  0  0  0  0  0  0  0  0  0  0  0
   -6.9050    3.8640    0.3030 C   0  0  0  0  0  0  0  0  0  0  0  0
   -7.2290    4.3820   -0.9250 C   0  0  0  0  0  0  0  0  0  0  0  0
   -6.2430    4.5120   -1.8640 C   0  0  0  0  0  0  0  0  0  0  0  0
   -4.9360    4.1170   -1.5580 C   0  0  0  0  0  0  0  0  0  0  0  0
   -4.6220    3.5970   -0.3220 C   0  0  0  0  0  0  0  0  0  0  0  0
   -3.2280    3.2850   -0.0330 C   0  0  0  0  0  0  0  0  0  0  0  0
   -2.2100    4.2110   -0.1330 N   0  0  0  0  0  0  0  0  0  0  0  0
   -1.0430    3.6580    0.1400 C   0  0  0  0  0  0  0  0  0  0  0  0
   -1.2880    2.3400    0.4260 C   0  0  0  0  0  0  0  0  0  0  0  0
   -2.6250    2.1430    0.3080 N   0  0  0  0  0  0  0  0  0  0  0  0
   -3.3350    0.8550    0.4310 C   0  0  0  0  0  0  0  0  0  0  0  0
   -2.4430   -0.0430    1.2720 C   0  0  1  0  0  0  0  0  0  0  0  0
   -3.2780   -1.1600    1.8520 C   0  0  0  0  0  0  0  0  0  0  0  0
   -3.7520   -1.0840    3.0220 O   0  0  0  0  0  0  0  0  0  0  0  0
   -3.5400   -2.3180    1.0810 N   0  0  0  0  0  0  0  0  0  0  0  0
   -4.3300   -3.4580    1.5140 C   0  0  1  0  0  0  0  0  0  0  0  0
   -5.3500   -3.8630    0.5050 C   0  0  0  0  0  0  0  0  0  0  0  0
   -4.7580   -5.1460   -0.0960 C   0  0  0  0  0  0  0  0  0  0  0  0
   -3.9740   -5.7630    1.0100 C   0  0  0  0  0  0  0  0  0  0  0  0
   -3.4750   -4.6350    1.8410 C   0  0  0  0  0  0  0  0  0  0  0  0
   -1.4250   -0.6880    0.3510 C   0  0  0  0  0  0  0  0  0  0  0  0
   -0.2830    0.1190    0.1030 N   0  0  1  0  0  0  0  0  0  0  0  0
   -0.0250    0.4220   -1.2880 C   0  0  0  0  0  0  0  0  0  0  0  0
    1.2400   -0.1490   -1.8280 C   0  0  0  0  0  0  0  0  0  0  0  0
    2.4920    0.3000   -1.1220 C   0  0  0  0  0  0  0  0  0  0  0  0
    3.6710   -0.3420   -1.7700 C   0  0  0  0  0  0  0  0  0  0  0  0
    3.5040   -1.0270   -2.7990 O   0  0  0  0  0  0  0  0  0  0  0  0
    4.9860   -0.1760   -1.2130 N   0  0  0  0  0  0  0  0  0  0  0  0
    6.1320   -0.7460   -1.7710 C   0  0  0  0  0  0  0  0  0  0  0  0
    5.9410   -1.4390   -2.8350 O   0  0  0  0  0  0  0  0  0  0  0  0
    7.4570   -0.6460   -1.2980 N   0  0  0  0  0  0  0  0  0  0  0  0
    8.5870   -1.4030   -1.8950 C   0  0  0  0  0  0  0  0  0  0  0  0
    9.2550   -1.8450   -0.5830 C   0  0  0  0  0  0  0  0  0  0  0  0
    9.0940   -0.6330    0.2580 C   0  0  0  0  0  0  0  0  0  0  0  0
    9.7900   -0.0980    1.3510 C   0  0  0  0  0  0  0  0  0  0  0  0
    9.4180    1.0890    1.9310 C   0  0  0  0  0  0  0  0  0  0  0  0
    8.3340    1.7800    1.4360 C   0  0  0  0  0  0  0  0  0  0  0  0
    7.6130    1.2780    0.3460 C   0  0  0  0  0  0  0  0  0  0  0  0
    8.0070    0.0920   -0.2140 C   0  0  0  0  0  0  0  0  0  0  0  0
   -0.2310    1.3480    0.8190 C   0  0  0  0  0  0  0  0  0  0  0  0
  1  2  1  0
  2  3  2  0
  2  7  1  0
  3  4  1  0
  4  5  2  0
  5  6  1  0
  6  7  2  0
  7  8  1  0
  8  9  2  0
  8 12  1  0
  9 10  1  0
 10 11  2  0
 11 12  1  0
 11 42  1  0
 12 13  1  0
 13 14  1  0
 14 15  1  6
 14 23  1  0
 15 16  2  0
 15 17  1  0
 18 17  1  6
 18 19  1  0
 18 22  1  0
 19 20  1  0
 20 21  1  0
 21 22  1  0
 23 24  1  0
 24 25  1  6
 24 42  1  0
 25 26  1  0
 26 27  1  0
 27 28  1  0
 28 29  2  0
 28 30  1  0
 30 31  1  0
 31 32  2  0
 31 33  1  0
 33 34  1  0
 33 41  1  0
 34 35  1  0
 35 36  1  0
 36 37  2  0
 36 41  1  0
 37 38  1  0
 38 39  2  0
 39 40  1  0
 40 41  2  0
M  CHG  1  24   1
M  END
