
     RDKit          3D

 42 46  0  0  0  0  0  0  0  0999 V2000
   -4.1280    3.2230    0.2350 C   0  0  0  0  0  0  0  0  0  0  0  0
   -3.7620    1.8920    0.5110 O   0  0  0  0  0  0  0  0  0  0  0  0
   -4.6110    0.8580    0.1940 C   0  0  0  0  0  0  0  0  0  0  0  0
   -5.8200    1.1600   -0.4090 C   0  0  0  0  0  0  0  0  0  0  0  0
   -6.7420    0.2030   -0.7660 C   0  0  0  0  0  0  0  0  0  0  0  0
   -7.9230    0.5360   -1.3610 F   0  0  0  0  0  0  0  0  0  0  0  0
   -6.4220   -1.1060   -0.4990 C   0  0  0  0  0  0  0  0  0  0  0  0
   -5.2170   -1.4030    0.1020 C   0  0  0  0  0  0  0  0  0  0  0  0
   -4.2750   -0.4320    0.4670 C   0  0  0  0  0  0  0  0  0  0  0  0
   -3.1370   -0.8950    1.0490 O   0  0  0  0  0  0  0  0  0  0  0  0
   -1.8270   -0.7680    0.6960 C   0  0  0  0  0  0  0  0  0  0  0  0
   -1.0600    0.2210    1.2960 C   0  0  0  0  0  0  0  0  0  0  0  0
   -1.5540    1.0860    2.2550 O   0  0  0  0  0  0  0  0  0  0  0  0
   -0.7320    2.0620    2.8370 C   0  0  0  0  0  0  0  0  0  0  0  0
    0.2740    0.3640    0.9370 C   0  0  0  0  0  0  0  0  0  0  0  0
    0.8690   -0.4400    0.0090 C   0  0  0  0  0  0  0  0  0  0  0  0
    2.2680   -0.3700   -0.3880 C   0  0  0  0  0  0  0  0  0  0  0  0
    3.0880    0.6190    0.1870 N   0  0  0  0  0  0  0  0  0  0  0  0
    3.2770    0.9330    1.5540 C   0  0  0  0  0  0  0  0  0  0  0  0
    3.1770    0.5260    2.8460 N   0  0  0  0  0  0  0  0  0  0  0  0
    3.5860    1.4900    3.6560 N   0  0  0  0  0  0  0  0  0  0  0  0
    3.9580    2.5340    2.9210 C   0  0  0  0  0  0  0  0  0  0  0  0
    3.7700    2.1960    1.6410 N   0  0  0  0  0  0  0  0  0  0  0  0
    3.9320    2.7620    0.2990 C   0  0  0  0  0  0  0  0  0  0  0  0
    3.9580    1.5100   -0.5460 C   0  0  2  0  0  0  0  0  0  0  0  0
    3.5970    1.7140   -1.9730 C   0  0  0  0  0  0  0  0  0  0  0  0
    5.3600    0.9100   -0.3870 C   0  0  0  0  0  0  0  0  0  0  0  0
    5.4520   -0.4270   -0.9070 N   0  0  0  0  0  0  0  0  0  0  0  0
    6.8060   -0.8990   -0.6860 C   0  0  2  0  0  0  0  0  0  0  0  0
    6.9670   -2.2050   -1.1670 F   0  0  0  0  0  0  0  0  0  0  0  0
    7.1920   -0.8190    0.6380 F   0  0  0  0  0  0  0  0  0  0  0  0
    0.0900   -1.4190   -0.5740 C   0  0  0  0  0  0  0  0  0  0  0  0
   -1.2580   -1.5980   -0.2420 C   0  0  0  0  0  0  0  0  0  0  0  0
   -1.9970   -2.7220   -0.8490 C   0  0  0  0  0  0  0  0  0  0  0  0
   -2.5450   -3.6140    0.0820 C   0  0  0  0  0  0  0  0  0  0  0  0
   -3.2060   -4.7230   -0.3750 C   0  0  0  0  0  0  0  0  0  0  0  0
   -3.9270   -5.8910    0.7350 Cl  0  0  0  0  0  0  0  0  0  0  0  0
   -3.3220   -4.9420   -1.7300 C   0  0  0  0  0  0  0  0  0  0  0  0
   -3.9870   -6.0550   -2.1880 F   0  0  0  0  0  0  0  0  0  0  0  0
   -2.7760   -4.0520   -2.6400 C   0  0  0  0  0  0  0  0  0  0  0  0
   -2.0980   -2.9160   -2.1790 C   0  0  0  0  0  0  0  0  0  0  0  0
   -1.3960   -1.7570   -3.2950 Cl  0  0  0  0  0  0  0  0  0  0  0  0
  1  2  1  0
  2  3  1  0
  3  4  2  0
  3  9  1  0
  4  5  1  0
  5  6  1  0
  5  7  2  0
  7  8  1  0
  8  9  2  0
  9 10  1  0
 10 11  1  0
 11 12  2  0
 11 33  1  0
 12 13  1  0
 12 15  1  0
 13 14  1  0
 15 16  2  0
 16 17  1  0
 16 32  1  0
 17 18  1  0
 18 19  1  0
 18 25  1  0
 19 20  2  0
 19 23  1  0
 20 21  1  0
 21 22  2  0
 22 23  1  0
 23 24  1  0
 24 25  1  0
 25 26  1  6
 25 27  1  0
 27 28  1  0
 28 29  1  0
 29 30  1  1
 29 31  1  0
 32 33  2  0
 33 34  1  0
 34 35  2  0
 34 41  1  0
 35 36  1  0
 36 37  1  0
 36 38  2  0
 38 39  1  0
 38 40  1  0
 40 41  2  0
 41 42  1  0
M  END
