
     RDKit          3D

 42 47  0  0  0  0  0  0  0  0999 V2000
   -5.1890    5.2390    0.6120 C   0  0  0  0  0  0  0  0  0  0  0  0
   -3.7190    5.4230    0.3110 C   0  0  0  0  0  0  0  0  0  0  0  0
   -3.2680    4.4320   -0.7710 C   0  0  0  0  0  0  0  0  0  0  0  0
   -3.5050    3.1190   -0.2770 N   0  0  1  0  0  0  0  0  0  0  0  0
   -4.5820    2.4250   -0.9880 C   0  0  0  0  0  0  0  0  0  0  0  0
   -4.4110    1.0630   -0.4310 C   0  0  0  0  0  0  0  0  0  0  0  0
   -5.3220    0.0940   -0.1260 C   0  0  0  0  0  0  0  0  0  0  0  0
   -4.9030   -1.1040    0.3950 C   0  0  0  0  0  0  0  0  0  0  0  0
   -3.5600   -1.3060    0.6000 C   0  0  0  0  0  0  0  0  0  0  0  0
   -2.6180   -0.3000    0.2820 C   0  0  0  0  0  0  0  0  0  0  0  0
   -1.2190   -0.5860    0.5830 C   0  0  0  0  0  0  0  0  0  0  0  0
   -0.3260    0.4370    0.1350 N   0  0  0  0  0  0  0  0  0  0  0  0
   -0.1420    0.5220   -1.3000 C   0  0  0  0  0  0  0  0  0  0  0  0
   -0.7490   -0.2810   -2.0640 O   0  0  0  0  0  0  0  0  0  0  0  0
    0.7540    1.5470   -1.8600 C   0  0  0  0  0  0  0  0  0  0  0  0
    2.1410    1.1240   -1.8860 N   0  0  0  0  0  0  0  0  0  0  0  0
    2.7690    0.4740   -2.8670 N   0  0  0  0  0  0  0  0  0  0  0  0
    4.0610    0.2640   -2.5030 C   0  0  0  0  0  0  0  0  0  0  0  0
    5.0370   -0.4390   -3.3760 C   0  0  0  0  0  0  0  0  0  0  0  0
    4.2570    0.7840   -1.2790 N   0  0  0  0  0  0  0  0  0  0  0  0
    5.4800    0.7800   -0.5300 C   0  0  0  0  0  0  0  0  0  0  0  0
    6.6930    1.0220   -1.1380 C   0  0  0  0  0  0  0  0  0  0  0  0
    7.8750    1.0250   -0.4250 C   0  0  0  0  0  0  0  0  0  0  0  0
    7.8950    0.7840    0.9310 C   0  0  0  0  0  0  0  0  0  0  0  0
    9.1690    0.7890    1.7010 C   0  0  0  0  0  0  0  0  0  0  0  0
    9.7270   -0.6110    1.6850 C   0  0  0  0  0  0  0  0  0  0  0  0
    6.6740    0.5410    1.5350 C   0  0  0  0  0  0  0  0  0  0  0  0
    5.4870    0.5370    0.8310 C   0  0  0  0  0  0  0  0  0  0  0  0
    3.0750    1.3020   -0.9230 C   0  0  0  0  0  0  0  0  0  0  0  0
    2.8640    1.8810    0.1710 O   0  0  0  0  0  0  0  0  0  0  0  0
   -3.0290    0.9070   -0.2410 C   0  0  0  0  0  0  0  0  0  0  0  0
   -2.3960    2.1930   -0.6520 C   0  0  0  0  0  0  0  0  0  0  0  0
   -3.1280   -2.6010    1.1670 C   0  0  0  0  0  0  0  0  0  0  0  0
   -3.9090   -3.7140    0.4530 C   0  0  1  0  0  0  0  0  0  0  0  0
   -3.4180   -5.0420    0.8450 C   0  0  0  0  0  0  0  0  0  0  0  0
   -3.5210   -5.6020    2.0840 C   0  0  0  0  0  0  0  0  0  0  0  0
   -2.9370   -6.8380    2.0080 C   0  0  0  0  0  0  0  0  0  0  0  0
   -2.4880   -7.0270    0.7520 N   0  0  0  0  0  0  0  0  0  0  0  0
   -2.7720   -5.9370    0.0170 C   0  0  0  0  0  0  0  0  0  0  0  0
   -5.3770   -3.5860    0.6730 C   0  0  0  0  0  0  0  0  0  0  0  0
   -5.8300   -2.1780    0.7430 C   0  0  0  0  0  0  0  0  0  0  0  0
   -6.9950   -1.8570    1.0940 O   0  0  0  0  0  0  0  0  0  0  0  0
  1  2  1  0
  2  3  1  0
  4  3  1  6
  4  5  1  0
  4 32  1  0
  5  6  1  0
  6  7  2  0
  6 31  1  0
  7  8  1  0
  8  9  2  0
  8 41  1  0
  9 10  1  0
  9 33  1  0
 10 11  1  0
 10 31  2  0
 11 12  1  0
 12 13  1  0
 13 14  2  0
 13 15  1  0
 15 16  1  0
 16 17  1  0
 16 29  1  0
 17 18  2  0
 18 19  1  0
 18 20  1  0
 20 21  1  0
 20 29  1  0
 21 22  2  0
 21 28  1  0
 22 23  1  0
 23 24  2  0
 24 25  1  0
 24 27  1  0
 25 26  1  0
 27 28  2  0
 29 30  2  0
 31 32  1  0
 33 34  1  0
 34 35  1  1
 34 40  1  0
 35 36  1  0
 35 39  2  0
 36 37  2  0
 37 38  1  0
 38 39  1  0
 40 41  1  0
 41 42  2  0
M  CHG  1   4   1
M  END
