
     RDKit          3D

 42 47  0  0  0  0  0  0  0  0999 V2000
    5.3880   -2.3280   -2.1900 C   0  0  0  0  0  0  0  0  0  0  0  0
    5.1340   -2.4360   -0.7210 C   0  0  0  0  0  0  0  0  0  0  0  0
    4.0180   -2.7820   -0.1640 O   0  0  0  0  0  0  0  0  0  0  0  0
    4.1460   -2.7730    1.1580 C   0  0  0  0  0  0  0  0  0  0  0  0
    3.0420   -3.1220    2.0710 C   0  0  0  0  0  0  0  0  0  0  0  0
    1.7530   -2.9290    1.3850 N   0  0  0  0  0  0  0  0  0  0  0  0
    1.3600   -1.6690    0.8900 C   0  0  0  0  0  0  0  0  0  0  0  0
    2.1420   -0.6960    1.0460 O   0  0  0  0  0  0  0  0  0  0  0  0
    0.0990   -1.4190    0.2060 C   0  0  0  0  0  0  0  0  0  0  0  0
   -0.8760   -2.3680    0.0070 C   0  0  0  0  0  0  0  0  0  0  0  0
   -2.0700   -2.1370   -0.6450 C   0  0  0  0  0  0  0  0  0  0  0  0
   -2.3350   -0.8840   -1.1410 C   0  0  0  0  0  0  0  0  0  0  0  0
   -3.5660   -0.5570   -1.8510 C   0  0  0  0  0  0  0  0  0  0  0  0
   -4.6790   -0.1390   -1.0820 N   0  0  2  0  0  0  0  0  0  0  0  0
   -4.6980    1.2640   -0.7220 C   0  0  0  0  0  0  0  0  0  0  0  0
   -6.1420    1.6640   -0.5390 C   0  0  0  0  0  0  0  0  0  0  0  0
   -6.9670    0.5600    0.0320 C   0  0  0  0  0  0  0  0  0  0  0  0
   -6.4370   -0.6680    0.3500 C   0  0  0  0  0  0  0  0  0  0  0  0
   -7.4880   -1.4110    0.8440 C   0  0  0  0  0  0  0  0  0  0  0  0
   -8.5950   -0.6240    0.8100 N   0  0  0  0  0  0  0  0  0  0  0  0
   -8.3030    0.5610    0.3260 N   0  0  0  0  0  0  0  0  0  0  0  0
   -9.2270    1.6320    0.1490 C   0  0  0  0  0  0  0  0  0  0  0  0
  -10.4200    1.3910   -0.5050 C   0  0  0  0  0  0  0  0  0  0  0  0
  -11.3460    2.4190   -0.6950 C   0  0  0  0  0  0  0  0  0  0  0  0
  -11.0510    3.6850   -0.2170 C   0  0  0  0  0  0  0  0  0  0  0  0
   -9.8490    3.8900    0.4320 C   0  0  0  0  0  0  0  0  0  0  0  0
   -8.9880    2.8610    0.5890 N   0  0  0  0  0  0  0  0  0  0  0  0
   -4.9780   -0.8810    0.1010 C   0  0  2  0  0  0  0  0  0  0  0  0
   -4.2840   -0.3790    1.3500 C   0  0  0  0  0  0  0  0  0  0  0  0
   -1.3840    0.0930   -0.9610 C   0  0  0  0  0  0  0  0  0  0  0  0
   -0.1960   -0.1560   -0.3070 C   0  0  0  0  0  0  0  0  0  0  0  0
    5.4390   -2.3950    1.4620 C   0  0  0  0  0  0  0  0  0  0  0  0
    6.0660   -2.1810    0.2580 C   0  0  0  0  0  0  0  0  0  0  0  0
    7.4300   -1.7670    0.0650 C   0  0  0  0  0  0  0  0  0  0  0  0
    8.3270   -2.6590   -0.0330 O   0  0  0  0  0  0  0  0  0  0  0  0
    7.7520   -0.3780   -0.0140 N   0  0  0  0  0  0  0  0  0  0  0  0
    9.1050    0.0740   -0.2080 C   0  0  0  0  0  0  0  0  0  0  0  0
    9.2700    1.5160   -0.4530 C   0  0  0  0  0  0  0  0  0  0  0  0
    8.3030    2.4250    0.2280 C   0  0  2  0  0  0  0  0  0  0  0  0
    8.9930    3.3190    1.2390 C   0  0  0  0  0  0  0  0  0  0  0  0
    7.2060    1.6990    0.9680 C   0  0  0  0  0  0  0  0  0  0  0  0
    6.6890    0.5840    0.1010 C   0  0  0  0  0  0  0  0  0  0  0  0
  1  2  1  0
  2  3  1  0
  2 33  2  0
  3  4  1  0
  4  5  1  0
  4 32  2  0
  5  6  1  0
  6  7  1  0
  7  8  2  0
  7  9  1  0
  9 10  2  0
  9 31  1  0
 10 11  1  0
 11 12  2  0
 12 13  1  0
 12 30  1  0
 14 13  1  1
 14 15  1  0
 14 28  1  0
 15 16  1  0
 16 17  1  0
 17 18  2  0
 17 21  1  0
 18 19  1  0
 18 28  1  0
 19 20  2  0
 20 21  1  0
 21 22  1  0
 22 23  2  0
 22 27  1  0
 23 24  1  0
 24 25  2  0
 25 26  1  0
 26 27  2  0
 28 29  1  1
 30 31  2  0
 32 33  1  0
 33 34  1  0
 34 35  2  0
 34 36  1  0
 36 37  1  0
 36 42  1  0
 37 38  1  0
 38 39  1  0
 39 40  1  1
 39 41  1  0
 41 42  1  0
M  CHG  1  14   1
M  END
