
     RDKit          3D

 46 50  0  0  0  0  0  0  0  0999 V2000
   -8.2930    3.4740    3.6600 O   0  0  0  0  0  0  0  0  0  0  0  0
   -7.6250    2.8410    2.6050 C   0  0  1  0  0  0  0  0  0  0  0  0
   -6.5200    1.9770    3.1380 C   0  0  0  0  0  0  0  0  0  0  0  0
   -6.6920    0.6640    2.6950 O   0  0  0  0  0  0  0  0  0  0  0  0
   -6.7470    0.5700    1.3130 C   0  0  1  0  0  0  0  0  0  0  0  0
   -6.7140   -0.7560    0.9490 O   0  0  0  0  0  0  0  0  0  0  0  0
   -5.6240   -1.0720    0.1740 C   0  0  1  0  0  0  0  0  0  0  0  0
   -4.7720   -2.1390    0.8250 C   0  0  0  0  0  0  0  0  0  0  0  0
   -4.6780   -3.2010   -0.0830 O   0  0  0  0  0  0  0  0  0  0  0  0
   -3.8560   -2.7130   -1.1310 C   0  0  2  0  0  0  0  0  0  0  0  0
   -2.8390   -2.0460   -0.5460 O   0  0  0  0  0  0  0  0  0  0  0  0
   -1.5820   -2.5080   -0.6350 C   0  0  1  0  0  0  0  0  0  0  0  0
   -0.7770   -1.4770   -1.4580 C   0  0  0  0  0  0  0  0  0  0  0  0
   -0.2300   -0.5330   -0.5870 O   0  0  0  0  0  0  0  0  0  0  0  0
    0.9140   -1.0900   -0.0350 C   0  0  2  0  0  0  0  0  0  0  0  0
    1.8940   -1.2540   -1.0250 O   0  0  0  0  0  0  0  0  0  0  0  0
    3.0070   -0.4830   -0.7960 C   0  0  1  0  0  0  0  0  0  0  0  0
    4.2350   -1.3590   -0.6060 C   0  0  0  0  0  0  0  0  0  0  0  0
    5.2800   -0.9040   -1.4350 O   0  0  0  0  0  0  0  0  0  0  0  0
    5.5390    0.3900   -1.0470 C   0  0  1  0  0  0  0  0  0  0  0  0
    6.8470    0.7820   -1.3080 O   0  0  0  0  0  0  0  0  0  0  0  0
    7.5920    1.0390   -0.1810 C   0  0  1  0  0  0  0  0  0  0  0  0
    8.7570    0.0860   -0.0360 C   0  0  0  0  0  0  0  0  0  0  0  0
    9.6410    0.1620   -1.1030 O   0  0  0  0  0  0  0  0  0  0  0  0
    9.7890    1.4430   -1.5960 C   0  0  1  0  0  0  0  0  0  0  0  0
    9.0480    1.6570   -2.7670 O   0  0  0  0  0  0  0  0  0  0  0  0
    9.4830    2.5010   -0.5580 C   0  0  1  0  0  0  0  0  0  0  0  0
    9.8580    3.7380   -1.0670 O   0  0  0  0  0  0  0  0  0  0  0  0
    8.0320    2.4670   -0.1310 C   0  0  2  0  0  0  0  0  0  0  0  0
    7.9000    2.9720    1.1770 O   0  0  0  0  0  0  0  0  0  0  0  0
    4.5140    1.3140   -1.6040 C   0  0  1  0  0  0  0  0  0  0  0  0
    4.9290    1.9670   -2.7630 O   0  0  0  0  0  0  0  0  0  0  0  0
    3.2530    0.5360   -1.8950 C   0  0  2  0  0  0  0  0  0  0  0  0
    2.1910    1.4390   -1.9270 O   0  0  0  0  0  0  0  0  0  0  0  0
    0.5960   -2.3860    0.5950 C   0  0  1  0  0  0  0  0  0  0  0  0
    1.1350   -2.3690    1.9020 O   0  0  0  0  0  0  0  0  0  0  0  0
   -0.8620   -2.7670    0.6610 C   0  0  2  0  0  0  0  0  0  0  0  0
   -0.9090   -4.1380    0.9270 O   0  0  0  0  0  0  0  0  0  0  0  0
   -4.7770   -1.8850   -1.9970 C   0  0  2  0  0  0  0  0  0  0  0  0
   -4.2060   -0.7290   -2.4620 O   0  0  0  0  0  0  0  0  0  0  0  0
   -6.0400   -1.4810   -1.2270 C   0  0  1  0  0  0  0  0  0  0  0  0
   -6.9850   -2.4800   -1.2270 O   0  0  0  0  0  0  0  0  0  0  0  0
   -7.9990    1.1980    0.7550 C   0  0  2  0  0  0  0  0  0  0  0  0
   -7.7110    2.0120   -0.3400 O   0  0  0  0  0  0  0  0  0  0  0  0
   -8.6570    2.0100    1.8500 C   0  0  1  0  0  0  0  0  0  0  0  0
   -9.2440    1.1350    2.7580 O   0  0  0  0  0  0  0  0  0  0  0  0
  2  1  1  1
  2  3  1  0
  2 45  1  0
  3  4  1  0
  4  5  1  0
  5  6  1  1
  5 43  1  0
  7  6  1  1
  7  8  1  0
  7 41  1  0
  8  9  1  0
  9 10  1  0
 10 11  1  1
 10 39  1  0
 12 11  1  1
 12 13  1  0
 12 37  1  0
 13 14  1  0
 14 15  1  0
 15 16  1  6
 15 35  1  0
 17 16  1  6
 17 18  1  0
 17 33  1  0
 18 19  1  0
 19 20  1  0
 20 21  1  6
 20 31  1  0
 22 21  1  6
 22 23  1  0
 22 29  1  0
 23 24  1  0
 24 25  1  0
 25 26  1  6
 25 27  1  0
 27 28  1  6
 27 29  1  0
 29 30  1  1
 31 32  1  6
 31 33  1  0
 33 34  1  1
 35 36  1  1
 35 37  1  0
 37 38  1  6
 39 40  1  1
 39 41  1  0
 41 42  1  1
 43 44  1  6
 43 45  1  0
 45 46  1  1
M  END
