
     RDKit          3D

 42 47  0  0  0  0  0  0  0  0999 V2000
   -2.2680   -2.2000   -1.9280 C   0  0  0  0  0  0  0  0  0  0  0  0
   -3.1670   -1.4950   -1.0190 N   0  0  0  0  0  0  0  0  0  0  0  0
   -4.4950   -1.4280   -1.5830 C   0  0  0  0  0  0  0  0  0  0  0  0
   -5.4140   -0.5770   -0.7620 C   0  0  0  0  0  0  0  0  0  0  0  0
   -6.5900   -0.4370   -1.1450 O   0  0  0  0  0  0  0  0  0  0  0  0
   -4.9890    0.0660    0.4220 N   0  0  0  0  0  0  0  0  0  0  0  0
   -5.7410    0.8890    1.2820 C   0  0  0  0  0  0  0  0  0  0  0  0
   -7.0620    1.1990    1.0590 C   0  0  0  0  0  0  0  0  0  0  0  0
   -7.7230    2.0350    1.9820 C   0  0  0  0  0  0  0  0  0  0  0  0
   -7.0930    2.5460    3.0910 C   0  0  0  0  0  0  0  0  0  0  0  0
   -5.7670    2.2110    3.2800 C   0  0  0  0  0  0  0  0  0  0  0  0
   -5.0810    1.3970    2.4040 C   0  0  0  0  0  0  0  0  0  0  0  0
   -3.7280    1.0450    2.5860 N   0  0  0  0  0  0  0  0  0  0  0  0
   -2.6040    1.5810    2.1400 C   0  0  0  0  0  0  0  0  0  0  0  0
   -2.5360    2.6020    1.4040 O   0  0  0  0  0  0  0  0  0  0  0  0
   -1.5350    0.8740    2.5890 N   0  0  0  0  0  0  0  0  0  0  0  0
   -0.1280    1.1420    2.3170 C   0  0  0  0  0  0  0  0  0  0  0  0
    0.3230    0.4090    1.0620 C   0  0  0  0  0  0  0  0  0  0  0  0
    1.7360    0.6560    0.7620 C   0  0  0  0  0  0  0  0  0  0  0  0
    2.3940    1.3930    1.5360 O   0  0  0  0  0  0  0  0  0  0  0  0
    2.4110    0.1080   -0.3610 N   0  0  0  0  0  0  0  0  0  0  0  0
    1.6910   -0.7430   -1.2780 C   0  0  0  0  0  0  0  0  0  0  0  0
    2.3950   -2.0050   -1.6500 C   0  0  2  0  0  0  0  0  0  0  0  0
    2.1160   -3.1330   -0.6740 C   0  0  0  0  0  0  0  0  0  0  0  0
    3.8910   -1.7820   -1.6820 C   0  0  0  0  0  0  0  0  0  0  0  0
    4.1330   -0.3180   -1.9380 C   0  0  2  0  0  0  0  0  0  0  0  0
    5.4590   -0.0070   -2.4460 C   0  0  0  0  0  0  0  0  0  0  0  0
    6.4940   -0.9400   -2.5370 C   0  0  0  0  0  0  0  0  0  0  0  0
    7.5850   -0.3530   -3.0300 N   0  0  0  0  0  0  0  0  0  0  0  0
    7.3020    0.9480   -3.2710 C   0  0  0  0  0  0  0  0  0  0  0  0
    8.0200    2.0120   -3.7690 C   0  0  0  0  0  0  0  0  0  0  0  0
    7.4510    3.2770   -3.9120 C   0  0  0  0  0  0  0  0  0  0  0  0
    6.1350    3.4390   -3.5370 C   0  0  0  0  0  0  0  0  0  0  0  0
    5.3960    2.4090   -3.0410 C   0  0  0  0  0  0  0  0  0  0  0  0
    5.9890    1.1660   -2.9110 C   0  0  0  0  0  0  0  0  0  0  0  0
    3.8140    0.3820   -0.6110 C   0  0  0  0  0  0  0  0  0  0  0  0
   -1.9890   -0.1540    3.3520 C   0  0  0  0  0  0  0  0  0  0  0  0
   -1.3360   -1.1690    4.0450 C   0  0  0  0  0  0  0  0  0  0  0  0
   -2.0580   -2.0920    4.7470 C   0  0  0  0  0  0  0  0  0  0  0  0
   -3.4470   -1.9840    4.7450 C   0  0  0  0  0  0  0  0  0  0  0  0
   -4.0760   -0.9720    4.0530 C   0  0  0  0  0  0  0  0  0  0  0  0
   -3.3620   -0.0300    3.3380 C   0  0  0  0  0  0  0  0  0  0  0  0
  1  2  1  0
  2  3  1  0
  3  4  1  0
  4  5  2  0
  4  6  1  0
  6  7  1  0
  7  8  2  0
  7 12  1  0
  8  9  1  0
  9 10  2  0
 10 11  1  0
 11 12  2  0
 12 13  1  0
 13 14  1  0
 13 42  1  0
 14 15  2  0
 14 16  1  0
 16 17  1  0
 16 37  1  0
 17 18  1  0
 18 19  1  0
 19 20  2  0
 19 21  1  0
 21 22  1  0
 21 36  1  0
 22 23  1  0
 23 24  1  1
 23 25  1  0
 25 26  1  0
 26 27  1  1
 26 36  1  0
 27 28  2  0
 27 35  1  0
 28 29  1  0
 29 30  1  0
 30 31  2  0
 30 35  1  0
 31 32  1  0
 32 33  2  0
 33 34  1  0
 34 35  2  0
 37 38  2  0
 37 42  1  0
 38 39  1  0
 39 40  2  0
 40 41  1  0
 41 42  2  0
M  CHG  1   2   1
M  END
