
     RDKit          3D

 42 46  0  0  0  0  0  0  0  0999 V2000
    9.6370   -2.7390    2.5450 C   0  0  0  0  0  0  0  0  0  0  0  0
    8.3220   -2.2580    2.0470 C   0  0  0  0  0  0  0  0  0  0  0  0
    7.0990   -2.8930    2.1210 C   0  0  0  0  0  0  0  0  0  0  0  0
    6.1940   -2.0840    1.5410 N   0  0  0  0  0  0  0  0  0  0  0  0
    6.7930   -0.9820    1.1140 N   0  0  0  0  0  0  0  0  0  0  0  0
    6.1680    0.1220    0.4440 C   0  0  0  0  0  0  0  0  0  0  0  0
    6.7790    0.7440   -0.6200 C   0  0  0  0  0  0  0  0  0  0  0  0
    6.1920    1.8110   -1.2790 C   0  0  0  0  0  0  0  0  0  0  0  0
    4.9560    2.2660   -0.8560 C   0  0  0  0  0  0  0  0  0  0  0  0
    4.3770    3.4210   -1.6070 C   0  0  0  0  0  0  0  0  0  0  0  0
    3.0940    3.8210   -1.0630 N   0  0  0  0  0  0  0  0  0  0  0  0
    1.9020    3.0890   -1.3000 C   0  0  0  0  0  0  0  0  0  0  0  0
    2.0050    2.0600   -2.0150 O   0  0  0  0  0  0  0  0  0  0  0  0
    0.5870    3.5300   -0.7200 C   0  0  0  0  0  0  0  0  0  0  0  0
   -0.5180    2.5800   -1.1260 C   0  0  0  0  0  0  0  0  0  0  0  0
   -0.2570    1.1980   -0.6500 C   0  0  0  0  0  0  0  0  0  0  0  0
    0.7670    1.0420    0.0710 O   0  0  0  0  0  0  0  0  0  0  0  0
   -1.1170    0.1250   -0.9940 N   0  0  0  0  0  0  0  0  0  0  0  0
   -2.2510    0.3550   -1.8000 C   0  0  0  0  0  0  0  0  0  0  0  0
   -3.1880    1.4130   -1.4060 C   0  0  0  0  0  0  0  0  0  0  0  0
   -3.4520    2.2870   -2.3130 O   0  0  0  0  0  0  0  0  0  0  0  0
   -3.8440    1.6140   -0.1790 N   0  0  0  0  0  0  0  0  0  0  0  0
   -4.1100    2.9120    0.4800 C   0  0  0  0  0  0  0  0  0  0  0  0
   -3.6430    2.6170    1.8870 C   0  0  0  0  0  0  0  0  0  0  0  0
   -4.0700    1.1940    2.0590 C   0  0  0  0  0  0  0  0  0  0  0  0
   -4.1330    0.5580    3.2100 C   0  0  0  0  0  0  0  0  0  0  0  0
   -4.5130   -0.7950    3.5840 C   0  0  0  0  0  0  0  0  0  0  0  0
   -5.3800   -1.5210    2.6620 C   0  0  0  0  0  0  0  0  0  0  0  0
   -5.6310   -1.4060    1.3720 C   0  0  0  0  0  0  0  0  0  0  0  0
   -5.0660   -0.4350    0.4020 C   0  0  0  0  0  0  0  0  0  0  0  0
   -4.3930    0.6750    0.7060 C   0  0  0  0  0  0  0  0  0  0  0  0
   -5.4130   -0.9100   -0.9270 C   0  0  0  0  0  0  0  0  0  0  0  0
   -5.0730   -2.2720   -1.3440 C   0  0  1  0  0  0  0  0  0  0  0  0
   -5.1000   -2.3140   -2.8950 C   0  0  0  0  0  0  0  0  0  0  0  0
   -3.9640   -3.0300   -0.7900 C   0  0  0  0  0  0  0  0  0  0  0  0
   -2.8380   -2.4560   -0.1990 N   0  0  0  0  0  0  0  0  0  0  0  0
   -1.6480   -2.3080   -1.0330 C   0  0  0  0  0  0  0  0  0  0  0  0
   -0.7830   -1.1830   -0.5060 C   0  0  1  0  0  0  0  0  0  0  0  0
    0.6870   -1.5050   -0.7170 C   0  0  0  0  0  0  0  0  0  0  0  0
    4.3340    1.6610    0.1990 C   0  0  0  0  0  0  0  0  0  0  0  0
    4.9360    0.5980    0.8430 C   0  0  0  0  0  0  0  0  0  0  0  0
    8.1070   -1.0640    1.4140 C   0  0  0  0  0  0  0  0  0  0  0  0
  1  2  1  0
  2  3  1  0
  2 42  2  0
  3  4  2  0
  4  5  1  0
  5  6  1  0
  5 42  1  0
  6  7  2  0
  6 41  1  0
  7  8  1  0
  8  9  2  0
  9 10  1  0
  9 40  1  0
 10 11  1  0
 11 12  1  0
 12 13  2  0
 12 14  1  0
 14 15  1  0
 15 16  1  0
 16 17  2  0
 16 18  1  0
 18 19  1  0
 18 38  1  0
 19 20  1  0
 20 21  2  0
 20 22  1  0
 22 23  1  0
 22 31  1  0
 23 24  1  0
 24 25  1  0
 25 26  2  0
 25 31  1  0
 26 27  1  0
 27 28  1  0
 28 29  2  0
 29 30  1  0
 30 31  2  0
 30 32  1  0
 32 33  1  0
 33 34  1  6
 33 35  1  0
 35 36  1  0
 36 37  1  0
 37 38  1  0
 38 39  1  6
 40 41  2  0
M  CHG  1  36   1
M  END
