
     RDKit          3D

 42 46  0  0  0  0  0  0  0  0999 V2000
   -3.5570   -3.3390   -0.2490 C   0  0  0  0  0  0  0  0  0  0  0  0
   -4.8830   -3.0060    0.2930 C   0  0  0  0  0  0  0  0  0  0  0  0
   -5.9550   -3.2500   -0.4910 C   0  0  0  0  0  0  0  0  0  0  0  0
   -7.3670   -3.0170   -0.2050 C   0  0  0  0  0  0  0  0  0  0  0  0
   -7.9210   -2.7300    0.9560 C   0  0  0  0  0  0  0  0  0  0  0  0
   -7.2650   -2.5750    2.2350 N   0  0  0  0  0  0  0  0  0  0  0  0
   -6.0000   -2.4600    2.4890 C   0  0  0  0  0  0  0  0  0  0  0  0
   -4.8970   -2.4540    1.5980 N   0  0  0  0  0  0  0  0  0  0  0  0
   -3.6860   -1.8390    2.0720 C   0  0  0  0  0  0  0  0  0  0  0  0
   -3.3490   -0.5640    1.7660 C   0  0  0  0  0  0  0  0  0  0  0  0
   -2.1850    0.0720    2.2440 C   0  0  0  0  0  0  0  0  0  0  0  0
   -1.9640    1.4260    1.8500 C   0  0  0  0  0  0  0  0  0  0  0  0
   -0.8410    1.9710    1.4270 C   0  0  0  0  0  0  0  0  0  0  0  0
    0.2970    1.1430    1.3470 N   0  0  0  0  0  0  0  0  0  0  0  0
    0.8310    0.6100    0.1180 C   0  0  0  0  0  0  0  0  0  0  0  0
    0.2480    0.9030   -0.9430 O   0  0  0  0  0  0  0  0  0  0  0  0
    1.9670   -0.2040    0.1630 N   0  0  0  0  0  0  0  0  0  0  0  0
    2.6140   -0.7830   -0.9420 C   0  0  0  0  0  0  0  0  0  0  0  0
    2.2200   -0.5700   -2.2420 C   0  0  0  0  0  0  0  0  0  0  0  0
    2.9250   -1.1700   -3.3080 C   0  0  0  0  0  0  0  0  0  0  0  0
    2.5140   -0.9490   -4.6890 C   0  0  0  0  0  0  0  0  0  0  0  0
    3.9860   -1.9480   -2.9700 C   0  0  0  0  0  0  0  0  0  0  0  0
    4.3930   -2.1740   -1.7230 N   0  0  0  0  0  0  0  0  0  0  0  0
    3.7260   -1.6050   -0.6950 C   0  0  0  0  0  0  0  0  0  0  0  0
    4.0790   -1.7960    0.4920 O   0  0  0  0  0  0  0  0  0  0  0  0
    5.5320   -3.0260   -1.3770 C   0  0  0  0  0  0  0  0  0  0  0  0
    6.5300   -3.1440   -2.4700 C   0  0  0  0  0  0  0  0  0  0  0  0
    6.2270   -2.3270   -3.7060 C   0  0  0  0  0  0  0  0  0  0  0  0
    4.7610   -2.5910   -4.0560 C   0  0  0  0  0  0  0  0  0  0  0  0
   -0.8150    3.3660    1.0400 C   0  0  0  0  0  0  0  0  0  0  0  0
   -2.0300    3.8930    1.1150 O   0  0  0  0  0  0  0  0  0  0  0  0
    0.1750    4.2280    0.6310 N   0  0  0  0  0  0  0  0  0  0  0  0
   -0.3470    5.5710    0.2650 C   0  0  0  0  0  0  0  0  0  0  0  0
    0.1340    6.5830    1.2730 C   0  0  0  0  0  0  0  0  0  0  0  0
    1.6410    6.6400    1.3450 C   0  0  0  0  0  0  0  0  0  0  0  0
    2.3120    6.3190    0.0530 C   0  0  0  0  0  0  0  0  0  0  0  0
    2.2330    4.9120   -0.4030 C   0  0  0  0  0  0  0  0  0  0  0  0
    1.5830    3.9540    0.5960 C   0  0  0  0  0  0  0  0  0  0  0  0
   -1.3880   -0.6830    3.0580 C   0  0  0  0  0  0  0  0  0  0  0  0
   -1.7120   -1.9690    3.3760 C   0  0  0  0  0  0  0  0  0  0  0  0
   -2.8450   -2.5760    2.9050 C   0  0  0  0  0  0  0  0  0  0  0  0
   -3.1500   -3.9790    3.2950 C   0  0  0  0  0  0  0  0  0  0  0  0
  1  2  1  0
  2  3  2  0
  2  8  1  0
  3  4  1  0
  4  5  2  0
  5  6  1  0
  6  7  2  0
  7  8  1  0
  8  9  1  0
  9 10  2  0
  9 41  1  0
 10 11  1  0
 11 12  1  0
 11 39  2  0
 12 13  2  3
 13 14  1  0
 13 30  1  0
 14 15  1  0
 15 16  2  0
 15 17  1  0
 17 18  1  0
 18 19  2  0
 18 24  1  0
 19 20  1  0
 20 21  1  0
 20 22  2  0
 22 23  1  0
 22 29  1  0
 23 24  1  0
 23 26  1  0
 24 25  2  0
 26 27  1  0
 27 28  1  0
 28 29  1  0
 30 31  2  0
 30 32  1  0
 32 33  1  0
 32 38  1  0
 33 34  1  0
 34 35  1  0
 35 36  1  0
 36 37  1  0
 37 38  1  0
 39 40  1  0
 40 41  2  0
 41 42  1  0
M  CHG  1   6   1
M  END
