
     RDKit          3D

 18 20  0  0  0  0  0  0  0  0999 V2000
   -2.2510    2.2860    1.4170 C   0  0  0  0  0  0  0  0  0  0  0  0
   -1.2550    1.2020    1.5890 C   0  0  0  0  0  0  0  0  0  0  0  0
   -0.7430    0.5470    0.5850 C   0  0  0  0  0  0  0  0  0  0  0  0
   -1.1500    0.8680   -0.8380 C   0  0  2  0  0  0  0  0  0  0  0  0
   -1.8950   -0.3540   -1.2480 C   0  0  0  0  0  0  0  0  0  0  0  0
   -1.5760   -1.5100   -0.6890 C   0  0  0  0  0  0  0  0  0  0  0  0
   -2.5880   -2.6240   -0.5380 C   0  0  0  0  0  0  0  0  0  0  0  0
   -0.1810   -1.6960   -0.2060 C   0  0  0  0  0  0  0  0  0  0  0  0
    0.2580   -0.5490    0.6820 C   0  0  2  0  0  0  0  0  0  0  0  0
    0.4410   -1.0450    2.0100 N   0  0  0  0  0  0  0  0  0  0  0  0
    1.4950    0.0120    0.0820 C   0  0  0  0  0  0  0  0  0  0  0  0
    2.7280   -0.1920    0.6550 C   0  0  0  0  0  0  0  0  0  0  0  0
    3.8340    0.3600    0.0440 C   0  0  0  0  0  0  0  0  0  0  0  0
    3.6930    1.0970   -1.1130 C   0  0  0  0  0  0  0  0  0  0  0  0
    4.7200    1.6060   -1.6760 O   0  0  0  0  0  0  0  0  0  0  0  0
    2.4620    1.2610   -1.6250 N   0  0  0  0  0  0  0  0  0  0  0  0
    1.3420    0.7450   -1.0710 C   0  0  0  0  0  0  0  0  0  0  0  0
    0.0400    0.9970   -1.7330 C   0  0  0  0  0  0  0  0  0  0  0  0
  1  2  1  0
  2  3  2  3
  3  4  1  0
  3  9  1  0
  4  5  1  0
  4 18  1  6
  5  6  2  0
  6  7  1  0
  6  8  1  0
  8  9  1  0
  9 10  1  1
  9 11  1  0
 11 12  1  0
 11 17  2  0
 12 13  2  0
 13 14  1  0
 14 15  2  0
 14 16  1  0
 16 17  1  0
 17 18  1  0
M  CHG  1  10   1
M  END
