
     RDKit          3D

 18 19  0  0  0  0  0  0  0  0999 V2000
    0.1630    0.4320   -1.6280 C   0  0  0  0  0  0  0  0  0  0  0  0
    0.5290    0.5250   -0.3600 C   0  0  0  0  0  0  0  0  0  0  0  0
    1.9790    0.3780   -0.2200 C   0  0  0  0  0  0  0  0  0  0  0  0
    2.6690    0.9870   -1.1740 C   0  0  0  0  0  0  0  0  0  0  0  0
    4.1390    0.9290   -1.1730 C   0  0  0  0  0  0  0  0  0  0  0  0
    2.8240   -0.2860    0.8040 C   0  0  0  0  0  0  0  0  0  0  0  0
    2.1670   -1.5490    1.2850 C   0  0  0  0  0  0  0  0  0  0  0  0
    0.8510   -1.2940    1.9550 C   0  0  0  0  0  0  0  0  0  0  0  0
   -0.3190   -1.6240    1.0210 C   0  0  0  0  0  0  0  0  0  0  0  0
   -1.3320   -0.4930    0.9780 C   0  0  1  0  0  0  0  0  0  0  0  0
   -0.6470    0.7510    0.5530 C   0  0  2  0  0  0  0  0  0  0  0  0
   -1.5360    1.7420   -0.0280 N   0  0  0  0  0  0  0  0  0  0  0  0
   -0.9970    2.9940   -0.4020 C   0  0  0  0  0  0  0  0  0  0  0  0
    0.2240    3.1990   -0.2190 O   0  0  0  0  0  0  0  0  0  0  0  0
   -2.9260    1.5260   -0.2400 C   0  0  0  0  0  0  0  0  0  0  0  0
   -3.3410    0.1110   -0.4390 C   0  0  0  0  0  0  0  0  0  0  0  0
   -2.5160   -0.9270    0.1990 C   0  0  1  0  0  0  0  0  0  0  0  0
   -2.2200   -1.9940   -0.7740 N   0  0  0  0  0  0  0  0  0  0  0  0
  1  2  2  0
  2  3  1  0
  2 11  1  0
  3  4  2  3
  3  6  1  0
  4  5  1  0
  6  7  1  0
  7  8  1  0
  8  9  1  0
 10  9  1  6
 10 11  1  0
 10 17  1  0
 11 12  1  6
 12 13  1  0
 12 15  1  0
 13 14  2  0
 15 16  1  0
 16 17  1  0
 17 18  1  6
M  CHG  1  18   1
M  END
