
     RDKit          3D

 18 20  0  0  0  0  0  0  0  0999 V2000
   -1.5080    1.2620    1.6870 C   0  0  0  0  0  0  0  0  0  0  0  0
   -1.2990    1.1760    0.2840 N   0  0  0  0  0  0  0  0  0  0  0  0
   -0.2580    2.0000   -0.2160 C   0  0  0  0  0  0  0  0  0  0  0  0
    1.0100    1.2400   -0.2000 C   0  0  0  0  0  0  0  0  0  0  0  0
    2.1990    1.9800   -0.1180 C   0  0  0  0  0  0  0  0  0  0  0  0
    3.4290    1.3660   -0.1010 C   0  0  0  0  0  0  0  0  0  0  0  0
    3.4690   -0.0030   -0.1660 C   0  0  0  0  0  0  0  0  0  0  0  0
    4.7840   -0.6760   -0.1480 C   0  0  0  0  0  0  0  0  0  0  0  0
    4.6870   -2.0500   -0.2190 O   0  0  0  0  0  0  0  0  0  0  0  0
    2.2930   -0.7310   -0.2470 C   0  0  0  0  0  0  0  0  0  0  0  0
    1.0390   -0.1150   -0.2650 C   0  0  0  0  0  0  0  0  0  0  0  0
   -0.1560   -0.9270   -0.3510 C   0  0  1  0  0  0  0  0  0  0  0  0
   -0.2140   -2.0140    0.6070 N   0  0  0  0  0  0  0  0  0  0  0  0
   -1.3960   -0.1090   -0.3150 C   0  0  2  0  0  0  0  0  0  0  0  0
   -1.8630    0.1240   -1.7610 C   0  0  0  0  0  0  0  0  0  0  0  0
   -3.3040   -0.2760   -1.8300 C   0  0  0  0  0  0  0  0  0  0  0  0
   -3.7540   -0.1270   -0.3920 C   0  0  0  0  0  0  0  0  0  0  0  0
   -2.5750   -0.8200    0.3070 C   0  0  0  0  0  0  0  0  0  0  0  0
  1  2  1  0
  2  3  1  0
  2 14  1  0
  3  4  1  0
  4  5  2  0
  4 11  1  0
  5  6  1  0
  6  7  2  0
  7  8  1  0
  7 10  1  0
  8  9  1  0
 10 11  2  0
 11 12  1  0
 12 13  1  1
 12 14  1  0
 14 15  1  6
 14 18  1  0
 15 16  1  0
 16 17  1  0
 17 18  1  0
M  CHG  1  13   1
M  END
