
     RDKit          3D

  8  7  0  0  0  0  0  0  0  0999 V2000
    2.7030    0.5650    0.1580 C   0  0  0  0  0  0  0  0  0  0  0  0
    2.4020   -0.7770    0.3830 O   0  0  0  0  0  0  0  0  0  0  0  0
    1.0930   -1.0640    0.0530 C   0  0  0  0  0  0  0  0  0  0  0  0
    0.1940   -0.3130    0.7970 O   0  0  0  0  0  0  0  0  0  0  0  0
   -1.0850   -0.6440    0.4220 C   0  0  1  0  0  0  0  0  0  0  0  0
   -1.7770   -1.1600    1.5170 O   0  0  0  0  0  0  0  0  0  0  0  0
   -1.8370    0.5590   -0.1280 C   0  0  0  0  0  0  0  0  0  0  0  0
   -1.8970    1.5260    0.8530 O   0  0  0  0  0  0  0  0  0  0  0  0
  1  2  1  0
  2  3  1  0
  3  4  1  0
  4  5  1  0
  5  6  1  1
  5  7  1  0
  7  8  1  0
M  END
