
     RDKit          3D

  9  8  0  0  0  0  0  0  0  0999 V2000
    3.3680    0.7060   -0.3630 O   0  0  0  0  0  0  0  0  0  0  0  0
    3.0720   -0.2760    0.5930 C   0  0  0  0  0  0  0  0  0  0  0  0
    1.6590   -0.7550    0.2450 C   0  0  0  0  0  0  0  0  0  0  0  0
    0.7680    0.3180    0.3190 O   0  0  0  0  0  0  0  0  0  0  0  0
   -0.4810   -0.1790   -0.0040 C   0  0  0  0  0  0  0  0  0  0  0  0
   -1.4800    0.7870    0.0280 O   0  0  0  0  0  0  0  0  0  0  0  0
   -2.6750    0.1560   -0.3140 C   0  0  1  0  0  0  0  0  0  0  0  0
   -3.6100    0.3000    0.7200 O   0  0  0  0  0  0  0  0  0  0  0  0
   -3.1990    0.6840   -1.5080 O   0  0  0  0  0  0  0  0  0  0  0  0
  1  2  1  0
  2  3  1  0
  3  4  1  0
  4  5  1  0
  5  6  1  0
  6  7  1  0
  7  8  1  1
  7  9  1  0
M  END
