
     RDKit          3D

 18 19  0  0  0  0  0  0  0  0999 V2000
   -3.8000    1.4650   -1.5780 C   0  0  0  0  0  0  0  0  0  0  0  0
   -3.0030    0.5170   -1.1610 C   0  0  0  0  0  0  0  0  0  0  0  0
   -3.1900   -0.8500   -1.5990 N   0  0  0  0  0  0  0  0  0  0  0  0
   -2.4180   -1.7860   -1.2180 C   0  0  0  0  0  0  0  0  0  0  0  0
   -1.2550   -1.6380   -0.3090 C   0  0  2  0  0  0  0  0  0  0  0  0
   -1.6840   -1.9410    1.0870 C   0  0  0  0  0  0  0  0  0  0  0  0
   -0.7170   -0.2250   -0.4740 C   0  0  2  0  0  0  0  0  0  0  0  0
   -0.2820   -0.0880   -1.7790 O   0  0  0  0  0  0  0  0  0  0  0  0
    0.4100    0.0570    0.4660 C   0  0  0  0  0  0  0  0  0  0  0  0
    1.4840   -0.8900    0.1940 N   0  0  0  0  0  0  0  0  0  0  0  0
    2.7570   -0.4450    0.6880 C   0  0  2  0  0  0  0  0  0  0  0  0
    2.9850    0.9970    0.2880 C   0  0  0  0  0  0  0  0  0  0  0  0
    4.4890    1.0420    0.2140 C   0  0  0  0  0  0  0  0  0  0  0  0
    4.9490   -0.1750   -0.0400 C   0  0  0  0  0  0  0  0  0  0  0  0
    3.8280   -1.1430   -0.1600 C   0  0  0  0  0  0  0  0  0  0  0  0
   -1.8840    0.7170   -0.2660 C   0  0  0  0  0  0  0  0  0  0  0  0
   -1.8990    1.5980    0.6710 C   0  0  0  0  0  0  0  0  0  0  0  0
   -2.9670    2.5300    1.0280 C   0  0  0  0  0  0  0  0  0  0  0  0
  1  2  2  0
  2  3  1  0
  2 16  1  0
  3  4  2  0
  4  5  1  0
  5  6  1  1
  5  7  1  0
  7  8  1  6
  7  9  1  0
  7 16  1  0
  9 10  1  0
 11 10  1  6
 11 12  1  0
 11 15  1  0
 12 13  1  0
 13 14  2  0
 14 15  1  0
 16 17  2  3
 17 18  1  0
M  CHG  1  10   1
M  END
