
     RDKit          3D

 18 19  0  0  0  0  0  0  0  0999 V2000
   -2.5150    1.5810    2.4880 C   0  0  0  0  0  0  0  0  0  0  0  0
   -2.3870    0.7770    1.2370 C   0  0  2  0  0  0  0  0  0  0  0  0
   -3.6790    0.1890    0.7630 C   0  0  0  0  0  0  0  0  0  0  0  0
   -3.6490    0.0890   -0.7280 C   0  0  0  0  0  0  0  0  0  0  0  0
   -2.7980   -0.9510   -1.2730 C   0  0  0  0  0  0  0  0  0  0  0  0
   -1.5640   -1.2560   -0.9110 C   0  0  0  0  0  0  0  0  0  0  0  0
   -0.7630   -2.3290   -1.5140 C   0  0  0  0  0  0  0  0  0  0  0  0
   -0.9920   -2.9060   -2.6320 N   0  0  0  0  0  0  0  0  0  0  0  0
    0.2970   -2.6090   -0.6460 N   0  0  0  0  0  0  0  0  0  0  0  0
    0.4850   -1.4390    0.1870 C   0  0  1  0  0  0  0  0  0  0  0  0
    1.7140   -0.7300   -0.3510 C   0  0  0  0  0  0  0  0  0  0  0  0
    2.0830    0.5120    0.3830 C   0  0  0  0  0  0  0  0  0  0  0  0
    3.3370    1.0770   -0.3020 C   0  0  2  0  0  0  0  0  0  0  0  0
    3.7330    2.3390    0.4250 C   0  0  0  0  0  0  0  0  0  0  0  0
    3.0370    1.4360   -1.7390 C   0  0  0  0  0  0  0  0  0  0  0  0
    4.3560    0.1280   -0.2610 O   0  0  0  0  0  0  0  0  0  0  0  0
   -0.7570   -0.6280    0.1140 C   0  0  2  0  0  0  0  0  0  0  0  0
   -1.4380   -0.4140    1.4280 C   0  0  0  0  0  0  0  0  0  0  0  0
  2  1  1  1
  2  3  1  0
  2 18  1  0
  3  4  1  0
  4  5  1  0
  5  6  2  0
  6  7  1  0
  6 17  1  0
  7  8  2  0
  7  9  1  0
  9 10  1  0
 10 11  1  6
 10 17  1  0
 11 12  1  0
 12 13  1  0
 13 14  1  1
 13 15  1  0
 13 16  1  0
 17 18  1  1
M  CHG  1   9   1
M  END
