
     RDKit          3D

 18 19  0  0  0  0  0  0  0  0999 V2000
    4.3110    1.4630    0.8690 C   0  0  0  0  0  0  0  0  0  0  0  0
    3.3450    1.8510   -0.2040 C   0  0  0  0  0  0  0  0  0  0  0  0
    1.9710    1.3140   -0.1120 C   0  0  0  0  0  0  0  0  0  0  0  0
    1.7390   -0.1270   -0.1250 C   0  0  1  0  0  0  0  0  0  0  0  0
    2.2450   -0.8550   -1.3580 C   0  0  0  0  0  0  0  0  0  0  0  0
    3.5520   -0.5700   -1.6790 O   0  0  0  0  0  0  0  0  0  0  0  0
    2.3740   -0.7990    1.0660 C   0  0  0  0  0  0  0  0  0  0  0  0
    1.6540   -2.1630    1.0670 C   0  0  0  0  0  0  0  0  0  0  0  0
    0.3410   -1.9070    0.4000 C   0  0  0  0  0  0  0  0  0  0  0  0
    0.4020   -0.5630    0.0270 N   0  0  0  0  0  0  0  0  0  0  0  0
   -0.6940    0.2420   -0.0670 C   0  0  2  0  0  0  0  0  0  0  0  0
   -1.4060    0.4200    1.2720 C   0  0  0  0  0  0  0  0  0  0  0  0
   -2.5490    1.3860    1.1620 C   0  0  0  0  0  0  0  0  0  0  0  0
   -3.2110    1.3610   -0.1900 C   0  0  0  0  0  0  0  0  0  0  0  0
   -3.0920   -0.0330   -0.7770 C   0  0  2  0  0  0  0  0  0  0  0  0
   -3.8100    0.0210   -2.1290 C   0  0  0  0  0  0  0  0  0  0  0  0
   -3.8240   -1.0100    0.0160 N   0  0  0  0  0  0  0  0  0  0  0  0
   -1.6870   -0.4380   -1.0290 C   0  0  0  0  0  0  0  0  0  0  0  0
  1  2  1  0
  2  3  1  0
  4  3  1  6
  4  5  1  0
  4  7  1  0
  4 10  1  0
  5  6  1  0
  7  8  1  0
  8  9  1  0
  9 10  1  0
 11 10  1  1
 11 12  1  0
 11 18  1  0
 12 13  1  0
 13 14  1  0
 14 15  1  0
 15 16  1  6
 15 17  1  0
 15 18  1  0
M  CHG  1  17   1
M  END
