
     RDKit          3D

 20 19  0  0  0  0  0  0  0  0999 V2000
   -1.6820    3.9630   -1.8230 N   0  0  0  0  0  0  0  0  0  0  0  0
   -1.8080    2.8310   -1.0100 C   0  0  0  0  0  0  0  0  0  0  0  0
   -0.7080    2.0900   -0.7380 C   0  0  0  0  0  0  0  0  0  0  0  0
   -0.9260    0.9530    0.1000 C   0  0  0  0  0  0  0  0  0  0  0  0
   -0.1560    0.0310    0.5700 C   0  0  0  0  0  0  0  0  0  0  0  0
    1.2190   -0.0450    0.3200 N   0  0  0  0  0  0  0  0  0  0  0  0
    1.9020   -1.1520    0.3980 C   0  0  0  0  0  0  0  0  0  0  0  0
    1.2490   -2.3540    0.7520 N   0  0  0  0  0  0  0  0  0  0  0  0
    3.6410   -1.1640    0.0640 S   0  0  0  0  0  0  0  0  0  0  0  0
    4.2550   -2.8040    0.2510 N   0  0  0  0  0  0  0  0  0  0  0  0
    5.5330   -2.7440    1.4530 S   0  0  0  0  0  0  0  0  0  0  0  0
    5.2120   -1.6070    2.4210 O   0  0  0  0  0  0  0  0  0  0  0  0
   -0.8360   -1.2750    1.6290 S   0  0  0  0  0  0  0  0  0  0  0  0
   -2.6050   -1.0870    1.8360 C   0  0  0  0  0  0  0  0  0  0  0  0
   -3.3140   -1.3220    0.5520 C   0  0  0  0  0  0  0  0  0  0  0  0
   -4.7420   -1.1850    0.5820 N   0  0  0  0  0  0  0  0  0  0  0  0
   -2.7310   -1.6280   -0.5300 O   0  0  0  0  0  0  0  0  0  0  0  0
    0.5060    2.5530   -1.3280 C   0  0  0  0  0  0  0  0  0  0  0  0
    1.7820    1.9890   -1.2200 N   0  0  0  0  0  0  0  0  0  0  0  0
    0.4510    3.6180   -2.0540 O   0  0  0  0  0  0  0  0  0  0  0  0
  1  2  1  0
  2  3  2  3
  3  4  1  0
  3 18  1  0
  4  5  2  3
  5  6  1  0
  5 13  1  0
  6  7  2  3
  7  8  1  0
  7  9  1  0
  9 10  1  0
 10 11  1  0
 11 12  2  0
 13 14  1  0
 14 15  1  0
 15 16  1  0
 15 17  2  0
 18 19  1  0
 18 20  2  0
M  END
