
     RDKit          3D

 20 20  0  0  0  0  0  0  0  0999 V2000
    7.3990   -0.3140   -0.4910 N   0  0  0  0  0  0  0  0  0  0  0  0
    6.6980    0.3310    0.5410 C   0  0  0  0  0  0  0  0  0  0  0  0
    7.6130    0.9770    1.7540 S   0  0  0  0  0  0  0  0  0  0  0  0
    5.2520    0.4550    0.5910 C   0  0  0  0  0  0  0  0  0  0  0  0
    4.7390    1.0560    1.5670 O   0  0  0  0  0  0  0  0  0  0  0  0
    4.3810   -0.0570   -0.3850 N   0  0  0  0  0  0  0  0  0  0  0  0
    2.9850    0.0530   -0.3530 N   0  0  0  0  0  0  0  0  0  0  0  0
    2.1500   -0.9340    0.2280 C   0  0  0  0  0  0  0  0  0  0  0  0
    2.7060   -1.9370    0.7270 O   0  0  0  0  0  0  0  0  0  0  0  0
    0.6800   -0.7380    0.2180 C   0  0  0  0  0  0  0  0  0  0  0  0
   -0.2060   -2.0840    0.9920 S   0  0  0  0  0  0  0  0  0  0  0  0
   -1.9670   -1.7200    0.9120 C   0  0  0  0  0  0  0  0  0  0  0  0
   -2.9810   -2.8030    1.5550 S   0  0  0  0  0  0  0  0  0  0  0  0
   -2.4240   -0.5440    0.3160 N   0  0  0  0  0  0  0  0  0  0  0  0
   -3.7530   -0.0910    0.1610 C   0  0  0  0  0  0  0  0  0  0  0  0
   -4.9190   -0.7010    0.5610 C   0  0  0  0  0  0  0  0  0  0  0  0
   -5.9500    0.1220    0.1910 N   0  0  0  0  0  0  0  0  0  0  0  0
   -5.4510    1.1960   -0.4140 C   0  0  0  0  0  0  0  0  0  0  0  0
   -6.1980    2.2830   -0.9440 N   0  0  0  0  0  0  0  0  0  0  0  0
   -4.1220    1.0890   -0.4440 N   0  0  0  0  0  0  0  0  0  0  0  0
  1  2  1  0
  2  3  2  0
  2  4  1  0
  4  5  2  0
  4  6  1  0
  6  7  1  0
  7  8  1  0
  8  9  2  0
  8 10  1  0
 10 11  1  0
 11 12  1  0
 12 13  2  0
 12 14  1  0
 14 15  1  0
 15 16  2  0
 15 20  1  0
 16 17  1  0
 17 18  1  0
 18 19  1  0
 18 20  2  0
M  CHG  1  20   1
M  END
