
     RDKit          3D

 20 20  0  0  0  0  0  0  0  0999 V2000
    6.0220    2.4680    0.6990 N   0  0  0  0  0  0  0  0  0  0  0  0
    5.5110    1.1720    0.6320 C   0  0  0  0  0  0  0  0  0  0  0  0
    4.8980   -0.3740    0.5750 C   0  0  0  0  0  0  0  0  0  0  0  0
    3.7650    0.1130   -0.0490 N   0  0  0  0  0  0  0  0  0  0  0  0
    2.4590    0.4070   -0.7780 S   0  0  2  0  0  0  0  0  0  0  0  0
    2.5670    0.6340   -2.3180 O   0  0  0  0  0  0  0  0  0  0  0  0
    2.1090    2.0550   -0.4060 O   0  0  0  0  0  0  0  0  0  0  0  0
    0.8650   -0.1360   -0.5620 C   0  0  0  0  0  0  0  0  0  0  0  0
    0.8200   -1.4470    0.1430 N   0  0  0  0  0  0  0  0  0  0  0  0
   -0.2280    0.5410   -0.6710 C   0  0  0  0  0  0  0  0  0  0  0  0
   -1.6090   -0.1320   -0.5980 C   0  0  0  0  0  0  0  0  0  0  0  0
   -2.5450    0.5000   -0.4520 C   0  0  0  0  0  0  0  0  0  0  0  0
   -3.0610    1.8090   -0.2950 C   0  0  0  0  0  0  0  0  0  0  0  0
   -2.8330    2.8740    0.6380 N   0  0  0  0  0  0  0  0  0  0  0  0
   -4.6180    2.0960   -0.9630 S   0  0  0  0  0  0  0  0  0  0  0  0
   -3.8640   -0.4150   -0.1640 N   0  0  0  0  0  0  0  0  0  0  0  0
   -3.6210   -1.8140   -0.1760 C   0  0  0  0  0  0  0  0  0  0  0  0
   -4.9490   -2.7270    0.3000 S   0  0  0  0  0  0  0  0  0  0  0  0
   -2.4960   -2.4360   -0.4010 N   0  0  0  0  0  0  0  0  0  0  0  0
   -1.3470   -1.6060   -0.6360 N   0  0  0  0  0  0  0  0  0  0  0  0
  1  2  3  0
  2  3  1  0
  3  4  1  0
  5  4  1  1
  5  6  2  0
  5  7  2  0
  5  8  1  0
  8  9  1  0
  8 10  2  3
 10 11  1  0
 11 12  2  0
 11 20  1  0
 12 13  1  0
 12 16  1  0
 13 14  1  0
 13 15  2  0
 16 17  1  0
 17 18  2  0
 17 19  1  0
 19 20  1  0
M  END
