
     RDKit          3D

 20 20  0  0  0  0  0  0  0  0999 V2000
   -2.1650   -2.6410    0.4230 C   0  0  0  0  0  0  0  0  0  0  0  0
   -2.4180   -1.1480    0.3180 C   0  0  2  0  0  0  0  0  0  0  0  0
   -3.0200   -0.6290    1.5130 N   0  0  0  0  0  0  0  0  0  0  0  0
   -3.2550   -0.8260   -0.8440 C   0  0  0  0  0  0  0  0  0  0  0  0
   -2.8380   -1.2330   -2.1380 N   0  0  0  0  0  0  0  0  0  0  0  0
   -4.3210   -0.2020   -0.6860 O   0  0  0  0  0  0  0  0  0  0  0  0
   -1.0780   -0.4980    0.1340 C   0  0  0  0  0  0  0  0  0  0  0  0
   -1.0130    0.7620   -0.2940 N   0  0  0  0  0  0  0  0  0  0  0  0
    0.1670    1.3800   -0.4670 C   0  0  0  0  0  0  0  0  0  0  0  0
    0.1750    3.0570   -1.0490 S   0  0  0  0  0  0  0  0  0  0  0  0
    0.0980    4.2860    0.2410 C   0  0  0  0  0  0  0  0  0  0  0  0
   -1.1460    4.3100    0.9690 N   0  0  0  0  0  0  0  0  0  0  0  0
    1.2890    0.6860   -0.1940 N   0  0  0  0  0  0  0  0  0  0  0  0
    1.2480   -0.5880    0.2390 C   0  0  0  0  0  0  0  0  0  0  0  0
    2.6930   -1.5600    0.6080 S   0  0  0  0  0  0  0  0  0  0  0  0
    4.1650   -0.5530    0.2890 C   0  0  1  0  0  0  0  0  0  0  0  0
    5.3340   -1.3690    0.6000 N   0  0  0  0  0  0  0  0  0  0  0  0
    4.2090   -0.2160   -1.4920 S   0  0  0  0  0  0  0  0  0  0  0  0
    4.4690   -1.6850   -2.3250 O   0  0  0  0  0  0  0  0  0  0  0  0
    0.0530   -1.1670    0.3980 N   0  0  0  0  0  0  0  0  0  0  0  0
  2  1  1  1
  2  3  1  0
  2  4  1  0
  2  7  1  0
  4  5  1  0
  4  6  2  0
  7  8  2  0
  7 20  1  0
  8  9  1  0
  9 10  1  0
  9 13  2  0
 10 11  1  0
 11 12  1  0
 13 14  1  0
 14 15  1  0
 14 20  2  0
 15 16  1  0
 16 17  1  6
 16 18  1  0
 18 19  1  0
M  CHG  1   3   1
M  END
