
     RDKit          3D

 19 19  0  0  0  0  0  0  0  0999 V2000
   -3.6910    3.2680   -1.8320 N   0  0  0  0  0  0  0  0  0  0  0  0
   -3.5870    1.8820   -1.9880 N   0  0  0  0  0  0  0  0  0  0  0  0
   -2.3250    1.2400   -0.9500 S   0  0  0  0  0  0  0  0  0  0  0  0
   -2.9490   -0.1890   -0.0740 C   0  0  0  0  0  0  0  0  0  0  0  0
   -4.2730   -0.6180   -0.2860 N   0  0  0  0  0  0  0  0  0  0  0  0
   -2.1700   -0.8500    0.7780 C   0  0  0  0  0  0  0  0  0  0  0  0
   -2.5610   -1.9950    1.5250 N   0  0  0  0  0  0  0  0  0  0  0  0
   -1.5500   -2.3630    2.2410 C   0  0  0  0  0  0  0  0  0  0  0  0
   -0.4130   -1.4630    2.0000 C   0  0  0  0  0  0  0  0  0  0  0  0
   -0.7810   -0.5490    1.1190 C   0  0  0  0  0  0  0  0  0  0  0  0
    0.0270    0.5050    0.6180 N   0  0  0  0  0  0  0  0  0  0  0  0
    1.3500    0.1450   -0.4210 S   0  0  2  0  0  0  0  0  0  0  0  0
    2.0660    1.4070   -0.8090 O   0  0  0  0  0  0  0  0  0  0  0  0
    0.8960   -0.5130   -1.7030 O   0  0  0  0  0  0  0  0  0  0  0  0
    2.5500   -0.8890    0.4150 C   0  0  0  0  0  0  0  0  0  0  0  0
    3.6780   -1.1620   -0.5580 C   0  0  0  0  0  0  0  0  0  0  0  0
    4.3400    0.0640   -1.0090 C   0  0  0  0  0  0  0  0  0  0  0  0
    4.9910    0.9750   -0.1200 N   0  0  0  0  0  0  0  0  0  0  0  0
    4.3720    0.4660   -2.5980 S   0  0  0  0  0  0  0  0  0  0  0  0
  1  2  1  0
  2  3  1  0
  3  4  1  0
  4  5  1  0
  4  6  2  3
  6  7  1  0
  6 10  1  0
  7  8  2  0
  8  9  1  0
  9 10  2  0
 10 11  1  0
 11 12  1  0
 12 13  2  0
 12 14  2  0
 12 15  1  1
 15 16  1  0
 16 17  1  0
 17 18  1  0
 17 19  2  0
M  END
