
     RDKit          3D

 20 20  0  0  0  0  0  0  0  0999 V2000
   -6.8770   -0.0020    0.1020 N   0  0  0  0  0  0  0  0  0  0  0  0
   -5.9560   -0.1430   -0.9460 C   0  0  0  0  0  0  0  0  0  0  0  0
   -6.4590    0.1170   -2.4650 S   0  0  0  0  0  0  0  0  0  0  0  0
   -4.5640   -0.5130   -0.7170 C   0  0  0  0  0  0  0  0  0  0  0  0
   -3.7610   -0.6270   -1.6870 O   0  0  0  0  0  0  0  0  0  0  0  0
   -4.0410   -0.7600    0.5820 N   0  0  0  0  0  0  0  0  0  0  0  0
   -2.6490   -1.1210    0.7260 C   0  0  0  0  0  0  0  0  0  0  0  0
   -1.7580    0.0640    0.5710 C   0  0  0  0  0  0  0  0  0  0  0  0
   -2.3310    1.3700    0.4650 C   0  0  0  0  0  0  0  0  0  0  0  0
   -0.8910    2.4020    0.3000 S   0  0  0  0  0  0  0  0  0  0  0  0
    0.3120    0.9590    0.3920 C   0  0  0  0  0  0  0  0  0  0  0  0
    1.6990    1.2330    0.3100 N   0  0  0  0  0  0  0  0  0  0  0  0
    2.6270    0.1650    0.3500 C   0  0  0  0  0  0  0  0  0  0  0  0
    2.2540   -0.9870   -0.0740 N   0  0  0  0  0  0  0  0  0  0  0  0
    3.9510    0.3930    0.8560 N   0  0  0  0  0  0  0  0  0  0  0  0
    5.0150   -0.4960    0.5030 C   0  0  0  0  0  0  0  0  0  0  0  0
    5.2300   -0.4690   -0.9130 N   0  0  0  0  0  0  0  0  0  0  0  0
    6.4990   -1.5250   -1.4290 S   0  0  0  0  0  0  0  0  0  0  0  0
    6.6290   -1.3960   -2.9480 O   0  0  0  0  0  0  0  0  0  0  0  0
   -0.4820    0.0400    0.5180 N   0  0  0  0  0  0  0  0  0  0  0  0
  1  2  1  0
  2  3  2  0
  2  4  1  0
  4  5  2  0
  4  6  1  0
  6  7  1  0
  7  8  1  0
  8  9  2  0
  8 20  1  0
  9 10  1  0
 10 11  1  0
 11 12  1  0
 11 20  2  0
 12 13  1  0
 13 14  2  0
 13 15  1  0
 15 16  1  0
 16 17  1  0
 17 18  1  0
 18 19  2  0
M  CHG  1  14   1
M  END
