
     RDKit          3D

 20 20  0  0  0  0  0  0  0  0999 V2000
    4.9480    0.0570    0.0870 N   0  0  0  0  0  0  0  0  0  0  0  0
    3.6170    0.5520    0.3780 C   0  0  0  0  0  0  0  0  0  0  0  0
    3.5030    1.6880    0.9400 N   0  0  0  0  0  0  0  0  0  0  0  0
    2.5240   -0.3420   -0.0210 C   0  0  0  0  0  0  0  0  0  0  0  0
    1.2030    0.1380    0.2620 N   0  0  0  0  0  0  0  0  0  0  0  0
    0.0910   -0.6630   -0.0910 C   0  0  0  0  0  0  0  0  0  0  0  0
    0.3060   -1.7720   -0.6400 O   0  0  0  0  0  0  0  0  0  0  0  0
   -1.3060   -0.2570    0.1540 C   0  0  2  0  0  0  0  0  0  0  0  0
   -2.2630   -1.4030   -0.1710 C   0  0  0  0  0  0  0  0  0  0  0  0
   -1.8950   -2.8500    0.8660 S   0  0  0  0  0  0  0  0  0  0  0  0
   -3.0520   -4.1750    0.4450 C   0  0  1  0  0  0  0  0  0  0  0  0
   -4.4110   -3.8580    0.7930 N   0  0  0  0  0  0  0  0  0  0  0  0
   -2.8990   -4.6250   -1.3210 S   0  0  0  0  0  0  0  0  0  0  0  0
   -1.7060    1.0900   -1.0190 S   0  0  0  0  0  0  0  0  0  0  0  0
   -0.7670    2.5610   -0.7020 C   0  0  0  0  0  0  0  0  0  0  0  0
    0.4220    2.8450   -1.2850 N   0  0  0  0  0  0  0  0  0  0  0  0
    0.8580    4.0150   -0.8470 N   0  0  0  0  0  0  0  0  0  0  0  0
   -0.0590    4.4700    0.0150 C   0  0  0  0  0  0  0  0  0  0  0  0
    0.0110    5.5490    0.6310 O   0  0  0  0  0  0  0  0  0  0  0  0
   -1.0670    3.5860    0.1160 N   0  0  0  0  0  0  0  0  0  0  0  0
  1  2  1  0
  2  3  2  0
  2  4  1  0
  4  5  1  0
  5  6  1  0
  6  7  2  0
  6  8  1  0
  8  9  1  6
  8 14  1  0
  9 10  1  0
 10 11  1  0
 11 12  1  6
 11 13  1  0
 14 15  1  0
 15 16  2  0
 15 20  1  0
 16 17  1  0
 17 18  1  0
 18 19  2  0
 18 20  1  0
M  CHG  1   3   1
M  END
