
     RDKit          3D

 20 20  0  0  0  0  0  0  0  0999 V2000
   -4.2700   -1.4420   -0.3180 N   0  0  0  0  0  0  0  0  0  0  0  0
   -3.6350   -0.5580    0.6650 C   0  0  0  0  0  0  0  0  0  0  0  0
   -3.6090    0.8090    0.0370 C   0  0  2  0  0  0  0  0  0  0  0  0
   -5.0140    1.2740   -0.2810 C   0  0  0  0  0  0  0  0  0  0  0  0
   -5.8330    1.3490    0.9120 N   0  0  0  0  0  0  0  0  0  0  0  0
   -2.6810    0.7170   -1.5060 S   0  0  0  0  0  0  0  0  0  0  0  0
   -0.9590    0.4530   -1.2880 C   0  0  0  0  0  0  0  0  0  0  0  0
   -0.2470    0.2450   -2.2990 O   0  0  0  0  0  0  0  0  0  0  0  0
   -0.3580    0.4660   -0.0100 N   0  0  0  0  0  0  0  0  0  0  0  0
    1.0510    0.2460    0.1750 C   0  0  0  0  0  0  0  0  0  0  0  0
    1.8590    0.1820    0.9910 N   0  0  0  0  0  0  0  0  0  0  0  0
    3.1410   -0.0490    0.7990 N   0  0  0  0  0  0  0  0  0  0  0  0
    3.6430   -0.2210   -0.2170 C   0  0  0  0  0  0  0  0  0  0  0  0
    4.9220   -0.4950   -0.8990 N   0  0  0  0  0  0  0  0  0  0  0  0
    6.0900   -0.6210   -0.1190 C   0  0  0  0  0  0  0  0  0  0  0  0
    5.9620   -0.4920    1.1180 O   0  0  0  0  0  0  0  0  0  0  0  0
    7.3740   -0.8910   -0.7590 C   0  0  0  0  0  0  0  0  0  0  0  0
    8.5360   -1.0150    0.0500 N   0  0  0  0  0  0  0  0  0  0  0  0
    7.5200   -1.0570   -2.3740 S   0  0  0  0  0  0  0  0  0  0  0  0
    2.1330   -0.0690   -1.3520 S   0  0  0  0  0  0  0  0  0  0  0  0
  1  2  1  0
  3  2  1  6
  3  4  1  0
  3  6  1  0
  4  5  1  0
  6  7  1  0
  7  8  2  0
  7  9  1  0
  9 10  1  0
 10 11  2  0
 10 20  1  0
 11 12  1  0
 12 13  2  0
 13 14  1  0
 13 20  1  0
 14 15  1  0
 15 16  2  0
 15 17  1  0
 17 18  1  0
 17 19  2  0
M  CHG  1   5   1
M  END
