
     RDKit          3D

 12 11  0  0  0  0  0  0  0  0999 V2000
   -1.5380   -0.6350   -2.0830 O   0  0  0  0  0  0  0  0  0  0  0  0
   -1.9730   -1.4350   -1.0560 C   0  0  0  0  0  0  0  0  0  0  0  0
   -2.1940   -0.7390    0.2380 C   0  0  0  0  0  0  0  0  0  0  0  0
   -0.9890   -0.0680    0.8200 C   0  0  2  0  0  0  0  0  0  0  0  0
   -1.4260    0.5220    2.0330 O   0  0  0  0  0  0  0  0  0  0  0  0
   -0.4530    0.9310    0.0670 O   0  0  0  0  0  0  0  0  0  0  0  0
    0.9040    0.7040   -0.0860 C   0  0  2  0  0  0  0  0  0  0  0  0
    1.7450    1.8010    0.5280 C   0  0  0  0  0  0  0  0  0  0  0  0
    1.5210    1.9320    1.8810 O   0  0  0  0  0  0  0  0  0  0  0  0
    1.2270    0.5970   -1.4410 O   0  0  0  0  0  0  0  0  0  0  0  0
    1.7970   -0.6500   -1.6710 C   0  0  0  0  0  0  0  0  0  0  0  0
    2.1420   -0.8270   -2.9900 O   0  0  0  0  0  0  0  0  0  0  0  0
  1  2  1  0
  2  3  1  0
  3  4  1  0
  4  5  1  1
  4  6  1  0
  6  7  1  0
  7  8  1  6
  7 10  1  0
  8  9  1  0
 10 11  1  0
 11 12  1  0
M  END
