
     RDKit          3D

 13 12  0  0  0  0  0  0  0  0999 V2000
   -3.6620    1.6100    0.1470 O   0  0  0  0  0  0  0  0  0  0  0  0
   -2.7950    0.4990    0.2290 C   0  0  0  0  0  0  0  0  0  0  0  0
   -2.1410    0.3090   -1.0940 C   0  0  0  0  0  0  0  0  0  0  0  0
   -1.2810   -0.7490   -1.1100 O   0  0  0  0  0  0  0  0  0  0  0  0
   -0.2080   -0.6740   -0.2340 C   0  0  1  0  0  0  0  0  0  0  0  0
   -0.3430   -1.8490    0.6980 C   0  0  0  0  0  0  0  0  0  0  0  0
    0.6750   -1.8620    1.6070 O   0  0  0  0  0  0  0  0  0  0  0  0
    1.0090   -0.7040   -0.8390 O   0  0  0  0  0  0  0  0  0  0  0  0
    1.8290    0.3610   -0.7430 C   0  0  2  0  0  0  0  0  0  0  0  0
    1.3460    1.5550   -1.2460 O   0  0  0  0  0  0  0  0  0  0  0  0
    3.0050    0.0940   -1.4850 O   0  0  0  0  0  0  0  0  0  0  0  0
    2.2810    0.5610    0.6800 C   0  0  0  0  0  0  0  0  0  0  0  0
    3.1370    1.6830    0.7700 O   0  0  0  0  0  0  0  0  0  0  0  0
  1  2  1  0
  2  3  1  0
  3  4  1  0
  4  5  1  0
  5  6  1  1
  5  8  1  0
  6  7  1  0
  8  9  1  0
  9 10  1  6
  9 11  1  0
  9 12  1  0
 12 13  1  0
M  END
