
     RDKit          3D

 12 11  0  0  0  0  0  0  0  0999 V2000
   -2.6630   -0.8750    2.6680 O   0  0  0  0  0  0  0  0  0  0  0  0
   -2.3520   -1.4580    1.4220 C   0  0  0  0  0  0  0  0  0  0  0  0
   -1.8560   -0.3430    0.4900 C   0  0  2  0  0  0  0  0  0  0  0  0
   -2.8970    0.5850    0.3750 O   0  0  0  0  0  0  0  0  0  0  0  0
   -1.5640   -0.9170   -0.8540 C   0  0  0  0  0  0  0  0  0  0  0  0
   -1.1930    0.0420   -1.7610 O   0  0  0  0  0  0  0  0  0  0  0  0
   -0.0590    0.7390   -1.4020 C   0  0  0  0  0  0  0  0  0  0  0  0
    1.0070   -0.1410   -1.2730 O   0  0  0  0  0  0  0  0  0  0  0  0
    2.1680    0.5310   -0.9110 C   0  0  2  0  0  0  0  0  0  0  0  0
    3.1790    0.4070   -1.8610 O   0  0  0  0  0  0  0  0  0  0  0  0
    2.7040    0.0440    0.4230 C   0  0  0  0  0  0  0  0  0  0  0  0
    3.8630    0.7540    0.7280 O   0  0  0  0  0  0  0  0  0  0  0  0
  1  2  1  0
  2  3  1  0
  3  4  1  6
  3  5  1  0
  5  6  1  0
  6  7  1  0
  7  8  1  0
  8  9  1  0
  9 10  1  6
  9 11  1  0
 11 12  1  0
M  END
