
     RDKit          3D

 12 11  0  0  0  0  0  0  0  0999 V2000
   -2.6630    1.7770    0.1320 C   0  0  0  0  0  0  0  0  0  0  0  0
   -2.1410    0.9990   -0.8560 O   0  0  0  0  0  0  0  0  0  0  0  0
   -1.7570   -0.2690   -0.5070 C   0  0  1  0  0  0  0  0  0  0  0  0
   -2.4910   -1.3690   -1.2130 C   0  0  0  0  0  0  0  0  0  0  0  0
   -1.9680   -2.5830   -0.7320 O   0  0  0  0  0  0  0  0  0  0  0  0
   -0.3830   -0.3530   -0.6730 O   0  0  0  0  0  0  0  0  0  0  0  0
    0.1910   -0.5520    0.5540 C   0  0  0  0  0  0  0  0  0  0  0  0
    1.5690   -0.6550    0.5360 O   0  0  0  0  0  0  0  0  0  0  0  0
    2.2180    0.4430    0.0470 C   0  0  2  0  0  0  0  0  0  0  0  0
    2.9970    0.0120   -1.0510 O   0  0  0  0  0  0  0  0  0  0  0  0
    3.2280    0.8930    1.1000 C   0  0  0  0  0  0  0  0  0  0  0  0
    4.1170   -0.1770    1.3080 O   0  0  0  0  0  0  0  0  0  0  0  0
  1  2  1  0
  2  3  1  0
  3  4  1  6
  3  6  1  0
  4  5  1  0
  6  7  1  0
  7  8  1  0
  8  9  1  0
  9 10  1  6
  9 11  1  0
 11 12  1  0
M  END
