
     RDKit          3D

 13 12  0  0  0  0  0  0  0  0999 V2000
   -3.8080   -0.4940    1.7750 O   0  0  0  0  0  0  0  0  0  0  0  0
   -3.6180    0.4340    0.7550 C   0  0  0  0  0  0  0  0  0  0  0  0
   -2.5680   -0.0430   -0.2220 C   0  0  1  0  0  0  0  0  0  0  0  0
   -2.4140    0.9040   -1.2120 O   0  0  0  0  0  0  0  0  0  0  0  0
   -1.2700   -0.2270    0.5510 C   0  0  1  0  0  0  0  0  0  0  0  0
   -1.4780   -1.1980    1.5440 O   0  0  0  0  0  0  0  0  0  0  0  0
   -0.3140   -0.7350   -0.3290 O   0  0  0  0  0  0  0  0  0  0  0  0
    0.8020    0.1180   -0.3910 C   0  0  0  0  0  0  0  0  0  0  0  0
    1.7730   -0.5040   -1.3550 C   0  0  0  0  0  0  0  0  0  0  0  0
    2.9030    0.2760   -1.4750 O   0  0  0  0  0  0  0  0  0  0  0  0
    3.5880    0.3850   -0.2990 C   0  0  1  0  0  0  0  0  0  0  0  0
    4.9200   -0.0180   -0.4190 O   0  0  0  0  0  0  0  0  0  0  0  0
    3.6350    1.7210    0.1620 O   0  0  0  0  0  0  0  0  0  0  0  0
  1  2  1  0
  2  3  1  0
  3  4  1  6
  3  5  1  0
  5  6  1  1
  5  7  1  0
  7  8  1  0
  8  9  1  0
  9 10  1  0
 10 11  1  0
 11 12  1  6
 11 13  1  0
M  END
