
     RDKit          3D

 12 11  0  0  0  0  0  0  0  0999 V2000
    3.2430   -1.7470    0.5150 C   0  0  0  0  0  0  0  0  0  0  0  0
    2.3740   -1.2830   -0.4400 O   0  0  0  0  0  0  0  0  0  0  0  0
    1.7200   -0.1200   -0.0950 C   0  0  1  0  0  0  0  0  0  0  0  0
    2.0120    1.0020   -1.0930 C   0  0  0  0  0  0  0  0  0  0  0  0
    1.3020    2.1340   -0.6510 O   0  0  0  0  0  0  0  0  0  0  0  0
    0.3510   -0.3650   -0.1840 O   0  0  0  0  0  0  0  0  0  0  0  0
   -0.2700   -0.0810    1.0310 C   0  0  0  0  0  0  0  0  0  0  0  0
   -1.6240   -0.3030    1.0060 O   0  0  0  0  0  0  0  0  0  0  0  0
   -2.2910    0.4650    0.0590 C   0  0  2  0  0  0  0  0  0  0  0  0
   -3.2150    1.2800    0.7120 O   0  0  0  0  0  0  0  0  0  0  0  0
   -3.0710   -0.4640   -0.8440 C   0  0  0  0  0  0  0  0  0  0  0  0
   -3.9770   -1.1680   -0.0450 O   0  0  0  0  0  0  0  0  0  0  0  0
  1  2  1  0
  2  3  1  0
  3  4  1  6
  3  6  1  0
  4  5  1  0
  6  7  1  0
  7  8  1  0
  8  9  1  0
  9 10  1  1
  9 11  1  0
 11 12  1  0
M  END
