
     RDKit          3D

 13 12  0  0  0  0  0  0  0  0999 V2000
    3.9740    0.2080    0.7800 O   0  0  0  0  0  0  0  0  0  0  0  0
    3.2140    1.1250    0.0850 C   0  0  0  0  0  0  0  0  0  0  0  0
    1.9840    0.4700   -0.5560 C   0  0  0  0  0  0  0  0  0  0  0  0
    1.2410   -0.0710    0.4910 O   0  0  0  0  0  0  0  0  0  0  0  0
    0.0850   -0.7010    0.0390 C   0  0  1  0  0  0  0  0  0  0  0  0
    0.1870   -2.1550    0.5080 C   0  0  0  0  0  0  0  0  0  0  0  0
    1.3450   -2.6790   -0.0740 O   0  0  0  0  0  0  0  0  0  0  0  0
   -1.0180   -0.0750    0.6100 O   0  0  0  0  0  0  0  0  0  0  0  0
   -1.9020    0.4150   -0.3400 C   0  0  2  0  0  0  0  0  0  0  0  0
   -2.4080   -0.5850   -1.1650 O   0  0  0  0  0  0  0  0  0  0  0  0
   -1.3590    1.3940   -1.1470 O   0  0  0  0  0  0  0  0  0  0  0  0
   -3.0790    1.0220    0.3960 C   0  0  0  0  0  0  0  0  0  0  0  0
   -3.7010    0.0610    1.1740 O   0  0  0  0  0  0  0  0  0  0  0  0
  1  2  1  0
  2  3  1  0
  3  4  1  0
  4  5  1  0
  5  6  1  1
  5  8  1  0
  6  7  1  0
  8  9  1  0
  9 10  1  6
  9 11  1  0
  9 12  1  0
 12 13  1  0
M  END
