
     RDKit          3D

 13 12  0  0  0  0  0  0  0  0999 V2000
   -3.4770   -1.0830    0.1740 O   0  0  0  0  0  0  0  0  0  0  0  0
   -2.4780   -0.6270   -0.4390 C   0  0  0  0  0  0  0  0  0  0  0  0
   -2.5050   -0.6900   -1.8260 O   0  0  0  0  0  0  0  0  0  0  0  0
   -1.3390   -0.0540    0.3270 C   0  0  2  0  0  0  0  0  0  0  0  0
   -1.8950    1.0350    1.2070 C   0  0  0  0  0  0  0  0  0  0  0  0
   -2.8450    0.4270    2.0480 O   0  0  0  0  0  0  0  0  0  0  0  0
   -0.3940    0.3660   -0.5600 O   0  0  0  0  0  0  0  0  0  0  0  0
    0.8440   -0.2320   -0.4300 C   0  0  1  0  0  0  0  0  0  0  0  0
    1.3460   -0.8370   -1.7240 C   0  0  0  0  0  0  0  0  0  0  0  0
    1.4560    0.1600   -2.6920 O   0  0  0  0  0  0  0  0  0  0  0  0
    1.7530    0.7820   -0.0890 O   0  0  0  0  0  0  0  0  0  0  0  0
    2.3640    0.5300    1.1340 C   0  0  0  0  0  0  0  0  0  0  0  0
    3.2370    1.5700    1.3940 O   0  0  0  0  0  0  0  0  0  0  0  0
  1  2  2  0
  2  3  1  0
  2  4  1  0
  4  5  1  6
  4  7  1  0
  5  6  1  0
  7  8  1  0
  8  9  1  6
  8 11  1  0
  9 10  1  0
 11 12  1  0
 12 13  1  0
M  END
