
     RDKit          3D

 12 11  0  0  0  0  0  0  0  0999 V2000
    2.5530    1.9870    0.6700 O   0  0  0  0  0  0  0  0  0  0  0  0
    3.0520    1.0640   -0.2320 C   0  0  0  0  0  0  0  0  0  0  0  0
    1.8900    0.2670   -0.7700 C   0  0  0  0  0  0  0  0  0  0  0  0
    1.1480   -0.4670    0.3230 C   0  0  2  0  0  0  0  0  0  0  0  0
    1.9470   -1.3570    1.0030 O   0  0  0  0  0  0  0  0  0  0  0  0
    0.0680   -1.1220   -0.2960 O   0  0  0  0  0  0  0  0  0  0  0  0
   -1.1540   -0.6600    0.1790 C   0  0  2  0  0  0  0  0  0  0  0  0
   -1.9650   -1.8080    0.7520 C   0  0  0  0  0  0  0  0  0  0  0  0
   -2.1890   -2.7430   -0.2320 O   0  0  0  0  0  0  0  0  0  0  0  0
   -1.8280   -0.1050   -0.9240 O   0  0  0  0  0  0  0  0  0  0  0  0
   -2.0130    1.2440   -0.6940 C   0  0  0  0  0  0  0  0  0  0  0  0
   -2.6730    1.8390   -1.7500 O   0  0  0  0  0  0  0  0  0  0  0  0
  1  2  1  0
  2  3  1  0
  3  4  1  0
  4  5  1  6
  4  6  1  0
  6  7  1  0
  7  8  1  6
  7 10  1  0
  8  9  1  0
 10 11  1  0
 11 12  1  0
M  END
