
     RDKit          3D

 12 11  0  0  0  0  0  0  0  0999 V2000
    2.2780   -0.6400    1.6520 C   0  0  0  0  0  0  0  0  0  0  0  0
    1.8740   -1.1340    0.4400 O   0  0  0  0  0  0  0  0  0  0  0  0
    1.0800   -0.2650   -0.3060 C   0  0  1  0  0  0  0  0  0  0  0  0
    1.7880    0.1700   -1.5770 C   0  0  0  0  0  0  0  0  0  0  0  0
    2.9760    0.8300   -1.2720 O   0  0  0  0  0  0  0  0  0  0  0  0
   -0.1090   -0.8640   -0.5270 O   0  0  0  0  0  0  0  0  0  0  0  0
   -1.2140   -0.2550    0.0020 C   0  0  1  0  0  0  0  0  0  0  0  0
   -1.0770   -0.1570    1.3910 O   0  0  0  0  0  0  0  0  0  0  0  0
   -1.5210    1.0780   -0.5690 C   0  0  0  0  0  0  0  0  0  0  0  0
   -0.5930    2.0610   -0.4370 O   0  0  0  0  0  0  0  0  0  0  0  0
   -2.4050   -1.2210   -0.2340 C   0  0  0  0  0  0  0  0  0  0  0  0
   -3.5380   -0.6070    0.3040 O   0  0  0  0  0  0  0  0  0  0  0  0
  1  2  1  0
  2  3  1  0
  3  4  1  6
  3  6  1  0
  4  5  1  0
  6  7  1  0
  7  8  1  1
  7  9  1  0
  7 11  1  0
  9 10  1  0
 11 12  1  0
M  END
