
     RDKit          3D

 12 11  0  0  0  0  0  0  0  0999 V2000
    4.7400   -0.5120   -1.6730 O   0  0  0  0  0  0  0  0  0  0  0  0
    3.7720   -0.9110   -0.7550 C   0  0  0  0  0  0  0  0  0  0  0  0
    2.7780    0.2200   -0.6390 C   0  0  0  0  0  0  0  0  0  0  0  0
    1.7530   -0.1010    0.2780 O   0  0  0  0  0  0  0  0  0  0  0  0
    0.9170    1.0400    0.2730 C   0  0  0  0  0  0  0  0  0  0  0  0
   -0.1550    0.8970    1.1300 O   0  0  0  0  0  0  0  0  0  0  0  0
   -0.9680   -0.1790    0.8100 C   0  0  1  0  0  0  0  0  0  0  0  0
   -1.0210   -1.1200    1.8330 O   0  0  0  0  0  0  0  0  0  0  0  0
   -2.3190    0.3670    0.4540 C   0  0  1  0  0  0  0  0  0  0  0  0
   -2.1940    1.2150   -0.6210 O   0  0  0  0  0  0  0  0  0  0  0  0
   -3.3310   -0.6960    0.1390 C   0  0  0  0  0  0  0  0  0  0  0  0
   -4.5460   -0.0420   -0.1200 O   0  0  0  0  0  0  0  0  0  0  0  0
  1  2  1  0
  2  3  1  0
  3  4  1  0
  4  5  1  0
  5  6  1  0
  6  7  1  0
  7  8  1  1
  7  9  1  0
  9 10  1  6
  9 11  1  0
 11 12  1  0
M  END
