
     RDKit          3D

 12 12  0  0  0  0  0  0  0  0999 V2000
   -1.5350    3.6020    0.1140 C   0  0  0  0  0  0  0  0  0  0  0  0
   -0.6680    2.5880    0.1040 C   0  0  0  0  0  0  0  0  0  0  0  0
   -1.1140    1.2440    0.3550 C   0  0  0  0  0  0  0  0  0  0  0  0
   -0.4760    0.1410    0.3930 C   0  0  0  0  0  0  0  0  0  0  0  0
   -1.2800   -1.0120    0.6800 O   0  0  0  0  0  0  0  0  0  0  0  0
   -2.1930   -1.3390   -0.3590 C   0  0  0  0  0  0  0  0  0  0  0  0
   -2.9570   -2.5630    0.0920 C   0  0  0  0  0  0  0  0  0  0  0  0
    0.9300   -0.1270    0.1920 C   0  0  0  0  0  0  0  0  0  0  0  0
    1.4940   -1.3450    0.2620 C   0  0  0  0  0  0  0  0  0  0  0  0
    2.9370   -1.2990    0.0120 C   0  0  0  0  0  0  0  0  0  0  0  0
    3.2600    0.0930   -0.3870 C   0  0  0  0  0  0  0  0  0  0  0  0
    1.9850    0.8620   -0.1320 C   0  0  0  0  0  0  0  0  0  0  0  0
  1  2  2  0
  2  3  1  0
  3  4  2  3
  4  5  1  0
  4  8  1  0
  5  6  1  0
  6  7  1  0
  8  9  2  0
  8 12  1  0
  9 10  1  0
 10 11  1  0
 11 12  1  0
M  END
