
     RDKit          3D

 12 11  0  0  0  0  0  0  0  0999 V2000
   -1.8070    2.5870   -0.5270 C   0  0  0  0  0  0  0  0  0  0  0  0
   -2.3650    1.4130   -0.3790 C   0  0  0  0  0  0  0  0  0  0  0  0
   -3.8310    1.3120   -0.4620 C   0  0  0  0  0  0  0  0  0  0  0  0
   -1.5270    0.1990   -0.1320 C   0  0  0  0  0  0  0  0  0  0  0  0
   -2.1540   -0.9220    0.0050 C   0  0  0  0  0  0  0  0  0  0  0  0
   -1.6750   -2.2800    0.2520 C   0  0  0  0  0  0  0  0  0  0  0  0
   -0.0860    0.4730   -0.0830 C   0  0  0  0  0  0  0  0  0  0  0  0
    0.8410   -0.6470    0.1510 C   0  0  0  0  0  0  0  0  0  0  0  0
    2.2380   -0.0430    0.1530 C   0  0  0  0  0  0  0  0  0  0  0  0
    2.4240    1.1430   -0.0160 O   0  0  0  0  0  0  0  0  0  0  0  0
    3.4090   -0.9250    0.3680 C   0  0  0  0  0  0  0  0  0  0  0  0
    4.7040   -0.1700    0.3390 C   0  0  0  0  0  0  0  0  0  0  0  0
  1  2  2  0
  2  3  1  0
  2  4  1  0
  4  5  2  3
  4  7  1  0
  5  6  1  0
  7  8  1  0
  8  9  1  0
  9 10  2  0
  9 11  1  0
 11 12  1  0
M  END
