
     RDKit          3D

 12 11  0  0  0  0  0  0  0  0999 V2000
    2.3690    1.0370    1.8020 C   0  0  0  0  0  0  0  0  0  0  0  0
    3.1050    0.7550    0.7160 C   0  0  0  0  0  0  0  0  0  0  0  0
    2.4790    0.3580   -0.5390 C   0  0  0  0  0  0  0  0  0  0  0  0
    3.2390    0.0930   -1.5740 C   0  0  0  0  0  0  0  0  0  0  0  0
    4.7190    0.1720   -1.5510 C   0  0  0  0  0  0  0  0  0  0  0  0
    1.1050    0.2680   -0.6190 O   0  0  0  0  0  0  0  0  0  0  0  0
    0.4890   -0.9600   -0.2670 C   0  0  0  0  0  0  0  0  0  0  0  0
   -1.0080   -0.8910   -0.4100 C   0  0  0  0  0  0  0  0  0  0  0  0
   -1.6260    0.1670    0.4620 C   0  0  0  0  0  0  0  0  0  0  0  0
   -3.1250    0.1310    0.2230 C   0  0  1  0  0  0  0  0  0  0  0  0
   -3.6670   -1.2310    0.5840 C   0  0  0  0  0  0  0  0  0  0  0  0
   -3.8060    1.2080    1.0200 C   0  0  0  0  0  0  0  0  0  0  0  0
  1  2  2  0
  2  3  1  0
  3  4  2  3
  3  6  1  0
  4  5  1  0
  6  7  1  0
  7  8  1  0
  8  9  1  0
  9 10  1  0
 10 11  1  1
 10 12  1  0
M  END
