
     RDKit          3D

 12 11  0  0  0  0  0  0  0  0999 V2000
   -2.0390   -2.0120    0.2700 C   0  0  0  0  0  0  0  0  0  0  0  0
   -2.5940   -0.8700    0.0300 C   0  0  0  0  0  0  0  0  0  0  0  0
   -4.1070   -0.8360    0.0360 C   0  0  0  0  0  0  0  0  0  0  0  0
   -1.8900    0.3410   -0.2360 C   0  0  0  0  0  0  0  0  0  0  0  0
   -2.6780    1.4330   -0.4640 C   0  0  0  0  0  0  0  0  0  0  0  0
   -2.0770    2.7510   -0.7520 C   0  0  0  0  0  0  0  0  0  0  0  0
   -0.5730    0.5950   -0.3020 O   0  0  0  0  0  0  0  0  0  0  0  0
    0.5040   -0.1980   -0.0930 C   0  0  0  0  0  0  0  0  0  0  0  0
    1.8400    0.5810   -0.2920 C   0  0  0  0  0  0  0  0  0  0  0  0
    2.9280   -0.4550   -0.0190 C   0  0  1  0  0  0  0  0  0  0  0  0
    4.3020    0.1400   -0.1700 C   0  0  0  0  0  0  0  0  0  0  0  0
    2.7570   -1.0560    1.3600 C   0  0  0  0  0  0  0  0  0  0  0  0
  1  2  2  0
  2  3  1  0
  2  4  1  0
  4  5  2  3
  4  7  1  0
  5  6  1  0
  7  8  1  0
  8  9  1  0
  9 10  1  0
 10 11  1  1
 10 12  1  0
M  END
