
     RDKit          3D

 12 11  0  0  0  0  0  0  0  0999 V2000
   -0.5250    2.3700    0.7750 C   0  0  0  0  0  0  0  0  0  0  0  0
   -1.4770    1.5110    0.9500 C   0  0  0  0  0  0  0  0  0  0  0  0
   -2.7820    2.0750    1.4970 C   0  0  0  0  0  0  0  0  0  0  0  0
   -1.3900    0.0870    0.6690 C   0  0  0  0  0  0  0  0  0  0  0  0
   -2.5170   -0.6140    0.9310 C   0  0  0  0  0  0  0  0  0  0  0  0
   -2.6640   -2.0500    0.7280 C   0  0  0  0  0  0  0  0  0  0  0  0
   -0.2740   -0.6430    0.1580 C   0  0  0  0  0  0  0  0  0  0  0  0
   -0.4070   -1.9130   -0.0220 O   0  0  0  0  0  0  0  0  0  0  0  0
    1.0660   -0.1360   -0.2100 C   0  0  0  0  0  0  0  0  0  0  0  0
    1.9330   -1.2930   -0.7210 C   0  0  0  0  0  0  0  0  0  0  0  0
    3.2980   -0.8350   -1.1060 C   0  0  0  0  0  0  0  0  0  0  0  0
    3.2710    0.2070   -2.2080 C   0  0  0  0  0  0  0  0  0  0  0  0
  1  2  2  0
  2  3  1  0
  2  4  1  0
  4  5  2  3
  4  7  1  0
  5  6  1  0
  7  8  2  0
  7  9  1  0
  9 10  1  0
 10 11  1  0
 11 12  1  0
M  END
