
     RDKit          3D

 12 12  0  0  0  0  0  0  0  0999 V2000
    5.3650   -0.5210    0.3720 C   0  0  0  0  0  0  0  0  0  0  0  0
    4.1290    0.2310    0.7440 C   0  0  0  0  0  0  0  0  0  0  0  0
    3.2230    0.5180   -0.1710 C   0  0  0  0  0  0  0  0  0  0  0  0
    2.0030    1.2620    0.2020 C   0  0  0  0  0  0  0  0  0  0  0  0
    0.8090    0.4410   -0.1030 C   0  0  0  0  0  0  0  0  0  0  0  0
   -0.0800    0.9110   -0.9550 C   0  0  0  0  0  0  0  0  0  0  0  0
   -1.2020    0.1730   -1.2610 O   0  0  0  0  0  0  0  0  0  0  0  0
   -1.8050   -0.7200   -0.3230 C   0  0  1  0  0  0  0  0  0  0  0  0
   -2.2290    0.0820    0.8940 C   0  0  0  0  0  0  0  0  0  0  0  0
   -3.6250    0.5280    0.4620 C   0  0  0  0  0  0  0  0  0  0  0  0
   -4.2020   -0.8050   -0.0000 C   0  0  0  0  0  0  0  0  0  0  0  0
   -3.0750   -1.2830   -0.9250 C   0  0  0  0  0  0  0  0  0  0  0  0
  1  2  1  0
  2  3  2  3
  3  4  1  0
  4  5  1  0
  5  6  2  3
  6  7  1  0
  8  7  1  6
  8  9  1  0
  8 12  1  0
  9 10  1  0
 10 11  1  0
 11 12  1  0
M  END
