
     RDKit          3D

 32 33  0  0  0  0  0  0  0  0999 V2000
    6.4420   -1.8570   -1.0210 C   0  0  0  0  0  0  0  0  0  0  0  0
    5.0400   -1.3180   -1.2170 C   0  0  1  0  0  0  0  0  0  0  0  0
    5.0200    0.1570   -1.1890 C   0  0  0  0  0  0  0  0  0  0  0  0
    5.4150    0.8730    0.0340 C   0  0  0  0  0  0  0  0  0  0  0  0
    6.7890    0.7080    0.5810 C   0  0  0  0  0  0  0  0  0  0  0  0
    6.8560    1.6480    1.8090 C   0  0  0  0  0  0  0  0  0  0  0  0
    8.5130    1.5550    2.6020 P   0  0  0  0  0  0  0  0  0  0  0  0
    9.6430    2.5880    1.7760 O   0  0  0  0  0  0  0  0  0  0  0  0
    9.1010   -0.0750    2.6850 O   0  0  0  0  0  0  0  0  0  0  0  0
    4.4850   -1.8230   -2.3960 O   0  0  0  0  0  0  0  0  0  0  0  0
    3.4850   -2.7270   -2.2480 C   0  0  0  0  0  0  0  0  0  0  0  0
    2.2870   -2.3100   -1.5250 C   0  0  0  0  0  0  0  0  0  0  0  0
    2.1500   -1.1810   -1.0240 O   0  0  0  0  0  0  0  0  0  0  0  0
    1.2180   -3.2550   -1.3890 N   0  0  0  0  0  0  0  0  0  0  0  0
    0.0350   -2.8790   -0.6910 C   0  0  0  0  0  0  0  0  0  0  0  0
   -0.6490   -1.7160   -1.3120 C   0  0  0  0  0  0  0  0  0  0  0  0
   -0.1180   -1.2170   -2.3470 O   0  0  0  0  0  0  0  0  0  0  0  0
   -1.8360   -1.1900   -0.7760 N   0  0  0  0  0  0  0  0  0  0  0  0
   -2.4270   -1.7810    0.4060 C   0  0  0  0  0  0  0  0  0  0  0  0
   -2.6140   -0.7670    1.4850 C   0  0  0  0  0  0  0  0  0  0  0  0
   -2.3710    0.6300    0.9570 C   0  0  0  0  0  0  0  0  0  0  0  0
   -3.2280    0.7710   -0.2980 C   0  0  2  0  0  0  0  0  0  0  0  0
   -3.4160    2.1910   -0.6990 C   0  0  0  0  0  0  0  0  0  0  0  0
   -4.6700    2.5110   -0.1910 O   0  0  0  0  0  0  0  0  0  0  0  0
   -5.3820    1.3310   -0.3040 C   0  0  2  0  0  0  0  0  0  0  0  0
   -5.8960    1.1070   -1.7090 C   0  0  0  0  0  0  0  0  0  0  0  0
   -6.5280    1.3590    0.6890 C   0  0  1  0  0  0  0  0  0  0  0  0
   -7.3520    0.0830    0.6110 C   0  0  0  0  0  0  0  0  0  0  0  0
   -6.0290    1.4830    2.1060 C   0  0  0  0  0  0  0  0  0  0  0  0
   -7.4550    2.5110    0.4040 C   0  0  0  0  0  0  0  0  0  0  0  0
   -4.4850    0.3060   -0.0150 O   0  0  0  0  0  0  0  0  0  0  0  0
   -2.5260   -0.0470   -1.3640 C   0  0  0  0  0  0  0  0  0  0  0  0
  2  1  1  6
  2  3  1  0
  2 10  1  0
  3  4  1  0
  4  5  1  0
  5  6  1  0
  6  7  1  0
  7  8  1  0
  7  9  1  0
 10 11  1  0
 11 12  1  0
 12 13  2  0
 12 14  1  0
 14 15  1  0
 15 16  1  0
 16 17  2  0
 16 18  1  0
 18 19  1  0
 18 32  1  0
 19 20  1  0
 20 21  1  0
 22 21  1  1
 22 23  1  0
 22 31  1  0
 22 32  1  0
 23 24  1  0
 24 25  1  0
 25 26  1  6
 25 27  1  0
 25 31  1  0
 27 28  1  1
 27 29  1  0
 27 30  1  0
M  END
