
     RDKit          3D

 32 33  0  0  0  0  0  0  0  0999 V2000
   -2.8910    1.4710    2.0350 C   0  0  0  0  0  0  0  0  0  0  0  0
   -3.2180    1.3450    0.7800 O   0  0  0  0  0  0  0  0  0  0  0  0
   -3.9570    1.0000   -0.2520 C   0  0  0  0  0  0  0  0  0  0  0  0
   -4.9090    1.8830   -0.8330 C   0  0  0  0  0  0  0  0  0  0  0  0
   -5.0960    3.1210    0.0100 C   0  0  0  0  0  0  0  0  0  0  0  0
   -4.7180    4.2400   -0.7180 O   0  0  0  0  0  0  0  0  0  0  0  0
   -5.6510    1.5170   -1.8980 C   0  0  0  0  0  0  0  0  0  0  0  0
   -5.5050    0.2460   -2.4570 C   0  0  0  0  0  0  0  0  0  0  0  0
   -4.5660   -0.6400   -1.9080 C   0  0  0  0  0  0  0  0  0  0  0  0
   -3.8420   -0.2760   -0.8830 C   0  0  0  0  0  0  0  0  0  0  0  0
   -2.6450   -0.9080   -0.2600 C   0  0  0  0  0  0  0  0  0  0  0  0
   -1.4020   -0.3930   -0.7580 C   0  0  0  0  0  0  0  0  0  0  0  0
   -0.2750   -0.5870   -0.0560 C   0  0  0  0  0  0  0  0  0  0  0  0
    1.0060    0.0450   -0.4860 N   0  0  0  0  0  0  0  0  0  0  0  0
    1.8170    0.4550    0.6740 C   0  0  0  0  0  0  0  0  0  0  0  0
    3.2040    0.0840    0.5230 C   0  0  0  0  0  0  0  0  0  0  0  0
    3.8720    0.0870    1.5780 O   0  0  0  0  0  0  0  0  0  0  0  0
    3.8060   -0.2570   -0.7010 N   0  0  0  0  0  0  0  0  0  0  0  0
    5.1190   -0.6110   -0.9700 C   0  0  0  0  0  0  0  0  0  0  0  0
    6.2460    0.2740   -0.5730 C   0  0  0  0  0  0  0  0  0  0  0  0
    6.3620    0.4060    0.9070 C   0  0  0  0  0  0  0  0  0  0  0  0
    7.6360    1.1330    1.3880 C   0  0  0  0  0  0  0  0  0  0  0  0
    9.0840    0.1590    0.7710 P   0  0  0  0  0  0  0  0  0  0  0  0
    9.8920    1.1000   -0.4920 O   0  0  0  0  0  0  0  0  0  0  0  0
    8.5820   -1.3560    0.0530 O   0  0  0  0  0  0  0  0  0  0  0  0
   -0.2090   -1.2730    1.1600 C   0  0  0  0  0  0  0  0  0  0  0  0
   -1.4110   -1.7470    1.6080 C   0  0  0  0  0  0  0  0  0  0  0  0
   -2.6090   -1.5670    0.8920 C   0  0  0  0  0  0  0  0  0  0  0  0
   -3.7680   -2.1080    1.4790 O   0  0  0  0  0  0  0  0  0  0  0  0
   -4.6860   -2.8030    0.7220 C   0  0  2  0  0  0  0  0  0  0  0  0
   -6.0280   -2.4080    0.3560 C   0  0  0  0  0  0  0  0  0  0  0  0
   -4.8350   -4.0600    1.4800 O   0  0  0  0  0  0  0  0  0  0  0  0
  1  2  1  0
  2  3  1  0
  3  4  2  0
  3 10  1  0
  4  5  1  0
  4  7  1  0
  5  6  1  0
  7  8  2  0
  8  9  1  0
  9 10  2  0
 10 11  1  0
 11 12  2  0
 11 28  1  0
 12 13  1  0
 13 14  1  0
 13 26  2  0
 14 15  1  0
 15 16  1  0
 16 17  2  0
 16 18  1  0
 18 19  1  0
 19 20  1  0
 20 21  1  0
 21 22  1  0
 22 23  1  0
 23 24  1  0
 23 25  1  0
 26 27  1  0
 27 28  2  0
 28 29  1  0
 29 30  1  0
 30 31  1  1
 30 32  1  0
M  END
