
     RDKit          3D

 33 35  0  0  0  0  0  0  0  0999 V2000
    3.0950   -1.0080   -0.5820 O   0  0  0  0  0  0  0  0  0  0  0  0
    3.1120   -0.7710    0.6520 C   0  0  0  0  0  0  0  0  0  0  0  0
    1.9370   -0.9910    1.3900 N   0  0  0  0  0  0  0  0  0  0  0  0
    0.7130   -1.4870    0.7370 C   0  0  0  0  0  0  0  0  0  0  0  0
   -0.3760   -1.6220    1.7630 C   0  0  0  0  0  0  0  0  0  0  0  0
   -1.5750   -2.0780    1.3000 O   0  0  0  0  0  0  0  0  0  0  0  0
   -2.2040   -1.3480    0.3350 C   0  0  1  0  0  0  0  0  0  0  0  0
   -2.4580   -2.0640   -0.8260 O   0  0  0  0  0  0  0  0  0  0  0  0
   -2.0410   -1.4290   -1.9650 C   0  0  0  0  0  0  0  0  0  0  0  0
   -2.9870   -0.3430   -2.4150 C   0  0  0  0  0  0  0  0  0  0  0  0
   -3.5020    0.4020   -1.1840 C   0  0  0  0  0  0  0  0  0  0  0  0
   -4.2240   -0.4110   -0.3580 O   0  0  0  0  0  0  0  0  0  0  0  0
   -3.5810   -0.8390    0.7960 C   0  0  2  0  0  0  0  0  0  0  0  0
   -3.4090    0.2050    1.8430 C   0  0  0  0  0  0  0  0  0  0  0  0
   -4.5850    0.8150    2.4740 C   0  0  0  0  0  0  0  0  0  0  0  0
   -5.5140    1.4860    1.6540 N   0  0  0  0  0  0  0  0  0  0  0  0
   -6.4140    0.8470    0.7800 C   0  0  0  0  0  0  0  0  0  0  0  0
   -6.7980    1.4000   -0.3640 C   0  0  0  0  0  0  0  0  0  0  0  0
   -7.7380    0.7300   -1.2760 C   0  0  0  0  0  0  0  0  0  0  0  0
   -8.2180   -0.4830   -0.7830 O   0  0  0  0  0  0  0  0  0  0  0  0
   -7.8240   -1.0650    0.4060 C   0  0  0  0  0  0  0  0  0  0  0  0
   -6.9620   -0.4420    1.1640 C   0  0  0  0  0  0  0  0  0  0  0  0
    4.2570   -0.3020    1.2860 O   0  0  0  0  0  0  0  0  0  0  0  0
    5.3820   -0.1070    0.4930 C   0  0  0  0  0  0  0  0  0  0  0  0
    5.6560    1.0680   -0.1350 C   0  0  0  0  0  0  0  0  0  0  0  0
    6.7930    1.1720   -0.9010 C   0  0  0  0  0  0  0  0  0  0  0  0
    7.6840    0.1390   -1.0720 C   0  0  0  0  0  0  0  0  0  0  0  0
    8.9200    0.2690   -1.9140 C   0  0  0  0  0  0  0  0  0  0  0  0
   10.3630    0.8600   -0.9350 P   0  0  0  0  0  0  0  0  0  0  0  0
   11.0490    2.2270   -1.7490 O   0  0  0  0  0  0  0  0  0  0  0  0
    9.8390    1.2810    0.6680 O   0  0  0  0  0  0  0  0  0  0  0  0
    7.3920   -1.0600   -0.4230 C   0  0  0  0  0  0  0  0  0  0  0  0
    6.2520   -1.1740    0.3490 C   0  0  0  0  0  0  0  0  0  0  0  0
  1  2  2  0
  2  3  1  0
  2 23  1  0
  3  4  1  0
  4  5  1  0
  5  6  1  0
  7  6  1  1
  7  8  1  0
  7 13  1  0
  8  9  1  0
  9 10  1  0
 10 11  1  0
 11 12  1  0
 12 13  1  0
 13 14  1  1
 14 15  1  0
 15 16  1  0
 16 17  1  0
 17 18  2  0
 17 22  1  0
 18 19  1  0
 19 20  1  0
 20 21  1  0
 21 22  2  0
 23 24  1  0
 24 25  2  0
 24 33  1  0
 25 26  1  0
 26 27  2  0
 27 28  1  0
 27 32  1  0
 28 29  1  0
 29 30  1  0
 29 31  1  0
 32 33  2  0
M  END
