
     RDKit          3D

 33 34  0  0  0  0  0  0  0  0999 V2000
    1.4960   -3.3470   -1.2610 C   0  0  0  0  0  0  0  0  0  0  0  0
    0.2870   -2.6770   -1.2300 O   0  0  0  0  0  0  0  0  0  0  0  0
    0.2360   -1.8580   -0.0960 C   0  0  2  0  0  0  0  0  0  0  0  0
   -1.1460   -1.4210    0.2730 C   0  0  0  0  0  0  0  0  0  0  0  0
   -1.9070   -0.6530   -0.7480 C   0  0  0  0  0  0  0  0  0  0  0  0
   -3.2270   -0.3370   -0.1810 N   0  0  0  0  0  0  0  0  0  0  0  0
   -4.2930   -1.3060   -0.3380 C   0  0  0  0  0  0  0  0  0  0  0  0
   -5.1050   -1.0930   -1.5880 C   0  0  0  0  0  0  0  0  0  0  0  0
   -4.4040   -1.1660   -2.7590 O   0  0  0  0  0  0  0  0  0  0  0  0
   -3.4880    0.8610    0.5000 C   0  0  0  0  0  0  0  0  0  0  0  0
   -4.6380    1.0510    1.0260 O   0  0  0  0  0  0  0  0  0  0  0  0
   -2.5300    1.9840    0.6800 C   0  0  2  0  0  0  0  0  0  0  0  0
   -2.9690    2.9040    1.8110 C   0  0  0  0  0  0  0  0  0  0  0  0
   -2.6960    2.8570   -0.5880 C   0  0  0  0  0  0  0  0  0  0  0  0
   -1.8660    3.9540   -0.5740 O   0  0  0  0  0  0  0  0  0  0  0  0
    1.2240   -0.9100   -0.0190 O   0  0  0  0  0  0  0  0  0  0  0  0
    1.5630    0.0730   -0.8910 C   0  0  0  0  0  0  0  0  0  0  0  0
    0.9370    0.1890   -1.9540 O   0  0  0  0  0  0  0  0  0  0  0  0
    2.6740    1.0130   -0.5920 C   0  0  0  0  0  0  0  0  0  0  0  0
    3.3450    0.8510    0.5910 C   0  0  0  0  0  0  0  0  0  0  0  0
    4.3730    1.6990    0.8990 C   0  0  0  0  0  0  0  0  0  0  0  0
    4.7460    2.7200    0.0370 C   0  0  0  0  0  0  0  0  0  0  0  0
    6.1430    3.7850    0.5490 P   0  0  0  0  0  0  0  0  0  0  0  0
    5.5220    5.3090    1.0520 O   0  0  0  0  0  0  0  0  0  0  0  0
    7.2550    3.9340   -0.7600 O   0  0  0  0  0  0  0  0  0  0  0  0
    4.0680    2.8800   -1.1500 C   0  0  0  0  0  0  0  0  0  0  0  0
    3.0370    2.0140   -1.4420 C   0  0  0  0  0  0  0  0  0  0  0  0
    0.5800   -2.8670    1.0290 C   0  0  0  0  0  0  0  0  0  0  0  0
   -0.2030   -3.9920    1.1070 C   0  0  0  0  0  0  0  0  0  0  0  0
    0.0140   -4.9580    2.0920 C   0  0  0  0  0  0  0  0  0  0  0  0
    1.0510   -4.7180    2.9720 C   0  0  0  0  0  0  0  0  0  0  0  0
    1.7950   -3.5660    2.8330 C   0  0  0  0  0  0  0  0  0  0  0  0
    1.5700   -2.6410    1.8730 N   0  0  0  0  0  0  0  0  0  0  0  0
  1  2  1  0
  2  3  1  0
  3  4  1  1
  3 16  1  0
  3 28  1  0
  4  5  1  0
  5  6  1  0
  6  7  1  0
  6 10  1  0
  7  8  1  0
  8  9  1  0
 10 11  2  0
 10 12  1  0
 12 13  1  1
 12 14  1  0
 14 15  1  0
 16 17  1  0
 17 18  2  0
 17 19  1  0
 19 20  2  0
 19 27  1  0
 20 21  1  0
 21 22  2  0
 22 23  1  0
 22 26  1  0
 23 24  1  0
 23 25  1  0
 26 27  2  0
 28 29  2  0
 28 33  1  0
 29 30  1  0
 30 31  2  0
 31 32  1  0
 32 33  2  0
M  END
