
     RDKit          3D

 32 34  0  0  0  0  0  0  0  0999 V2000
   -7.7780    0.2880   -1.0250 N   0  0  0  0  0  0  0  0  0  0  0  0
   -6.7470   -0.5980   -0.6460 C   0  0  0  0  0  0  0  0  0  0  0  0
   -5.4410   -0.2390   -0.6430 N   0  0  0  0  0  0  0  0  0  0  0  0
   -4.4370   -1.0410   -0.2940 C   0  0  0  0  0  0  0  0  0  0  0  0
   -4.7170   -2.3290    0.0950 C   0  0  0  0  0  0  0  0  0  0  0  0
   -3.5330   -2.8990    0.3850 N   0  0  0  0  0  0  0  0  0  0  0  0
   -2.5440   -2.0080    0.1890 C   0  0  0  0  0  0  0  0  0  0  0  0
   -3.0870   -0.8620   -0.2280 N   0  0  0  0  0  0  0  0  0  0  0  0
   -2.4170    0.3790   -0.5660 C   0  0  2  0  0  0  0  0  0  0  0  0
   -1.1850    0.1690   -1.0960 O   0  0  0  0  0  0  0  0  0  0  0  0
   -0.2840    1.0550   -0.5550 C   0  0  2  0  0  0  0  0  0  0  0  0
    1.0090    0.3120   -0.2860 C   0  0  0  0  0  0  0  0  0  0  0  0
    1.9220    1.2100    0.2620 O   0  0  0  0  0  0  0  0  0  0  0  0
    3.3520    0.3830    0.5570 P   0  0  2  0  0  0  0  0  0  0  0  0
    3.9590    0.0230   -0.7810 O   0  0  0  0  0  0  0  0  0  0  0  0
    3.0510   -1.0370    1.4120 O   0  0  0  0  0  0  0  0  0  0  0  0
    4.4500    1.3820    1.3610 O   0  0  0  0  0  0  0  0  0  0  0  0
    6.0130    0.9240    0.9060 P   0  0  2  0  0  0  0  0  0  0  0  0
    6.3400   -0.3600    1.6430 O   0  0  0  0  0  0  0  0  0  0  0  0
    7.0690    2.1500    1.4060 O   0  0  0  0  0  0  0  0  0  0  0  0
    6.0750    0.6620   -0.8010 N   0  0  0  0  0  0  0  0  0  0  0  0
    7.0120   -0.7370   -1.2350 P   0  0  2  0  0  0  0  0  0  0  0  0
    7.1330   -0.8120   -2.7310 O   0  0  0  0  0  0  0  0  0  0  0  0
    6.1840   -2.1350   -0.7160 O   0  0  0  0  0  0  0  0  0  0  0  0
    8.5060   -0.6840   -0.4650 O   0  0  0  0  0  0  0  0  0  0  0  0
   -0.8280    1.5230    0.7660 C   0  0  1  0  0  0  0  0  0  0  0  0
   -0.4990    2.8590    0.9880 O   0  0  0  0  0  0  0  0  0  0  0  0
   -2.3120    1.3120    0.5960 C   0  0  1  0  0  0  0  0  0  0  0  0
   -2.8730    2.5760    0.3260 O   0  0  0  0  0  0  0  0  0  0  0  0
   -6.0390   -2.7180    0.0990 C   0  0  0  0  0  0  0  0  0  0  0  0
   -6.2790   -3.9070    0.4590 O   0  0  0  0  0  0  0  0  0  0  0  0
   -7.0180   -1.8700   -0.2620 N   0  0  0  0  0  0  0  0  0  0  0  0
  1  2  1  0
  2  3  2  0
  2 32  1  0
  3  4  1  0
  4  5  2  0
  4  8  1  0
  5  6  1  0
  5 30  1  0
  6  7  2  0
  7  8  1  0
  9  8  1  1
  9 10  1  0
  9 28  1  0
 10 11  1  0
 11 12  1  1
 11 26  1  0
 12 13  1  0
 13 14  1  0
 14 15  2  0
 14 16  1  1
 14 17  1  0
 17 18  1  0
 18 19  2  0
 18 20  1  6
 18 21  1  0
 21 22  1  0
 22 23  2  0
 22 24  1  1
 22 25  1  0
 26 27  1  6
 26 28  1  0
 28 29  1  6
 30 31  2  0
 30 32  1  0
M  END
