
     RDKit          3D

 33 34  0  0  0  0  0  0  0  0999 V2000
    7.3140   -0.0950    1.7030 C   0  0  0  0  0  0  0  0  0  0  0  0
    6.1790   -0.3080    0.7470 C   0  0  0  0  0  0  0  0  0  0  0  0
    6.5270   -0.0290   -0.5730 O   0  0  0  0  0  0  0  0  0  0  0  0
    5.2460   -0.2710   -1.6660 P   0  0  0  0  0  0  0  0  0  0  0  0
    5.3960   -1.6040   -2.7120 O   0  0  0  0  0  0  0  0  0  0  0  0
    5.5470   -2.8320   -2.1010 C   0  0  0  0  0  0  0  0  0  0  0  0
    3.5670    0.0270   -1.0070 C   0  0  2  0  0  0  0  0  0  0  0  0
    3.5510    1.1360   -0.1680 O   0  0  0  0  0  0  0  0  0  0  0  0
    2.9130   -1.1690   -0.3990 C   0  0  0  0  0  0  0  0  0  0  0  0
    1.5640   -0.7770    0.0880 C   0  0  0  0  0  0  0  0  0  0  0  0
    1.3330   -0.3920    1.2730 O   0  0  0  0  0  0  0  0  0  0  0  0
    0.4860   -0.8270   -0.7750 O   0  0  0  0  0  0  0  0  0  0  0  0
   -0.7770   -0.4670   -0.3210 C   0  0  0  0  0  0  0  0  0  0  0  0
   -1.5800   -1.4890    0.1270 C   0  0  0  0  0  0  0  0  0  0  0  0
   -2.8380   -1.1980    0.5840 C   0  0  0  0  0  0  0  0  0  0  0  0
   -3.6880   -2.2510    1.0520 N   0  0  0  0  0  0  0  0  0  0  0  0
   -5.0540   -1.9710    1.3540 C   0  0  1  0  0  0  0  0  0  0  0  0
   -5.7090   -1.4960    0.0710 C   0  0  0  0  0  0  0  0  0  0  0  0
   -5.7600   -3.2190    1.8790 C   0  0  0  0  0  0  0  0  0  0  0  0
   -5.7530   -4.3120    0.9110 C   0  0  0  0  0  0  0  0  0  0  0  0
   -4.7140   -4.9700    0.6930 O   0  0  0  0  0  0  0  0  0  0  0  0
   -6.9080   -4.6430    0.2100 O   0  0  0  0  0  0  0  0  0  0  0  0
   -3.2850    0.1060    0.5920 C   0  0  0  0  0  0  0  0  0  0  0  0
   -2.4630    1.1150    0.1380 C   0  0  0  0  0  0  0  0  0  0  0  0
   -1.1960    0.8700   -0.3290 C   0  0  0  0  0  0  0  0  0  0  0  0
   -0.3140    1.8280   -0.8430 N   0  0  0  0  0  0  0  0  0  0  0  0
   -0.5480    3.1990   -0.7290 C   0  0  0  0  0  0  0  0  0  0  0  0
   -1.0480    3.7500    0.4250 C   0  0  0  0  0  0  0  0  0  0  0  0
   -1.3000    5.1230    0.4790 C   0  0  0  0  0  0  0  0  0  0  0  0
   -1.0700    5.9710   -0.5780 C   0  0  0  0  0  0  0  0  0  0  0  0
   -1.3180    7.3370   -0.5290 O   0  0  0  0  0  0  0  0  0  0  0  0
   -0.5640    5.3760   -1.7230 C   0  0  0  0  0  0  0  0  0  0  0  0
   -0.3080    4.0280   -1.8040 C   0  0  0  0  0  0  0  0  0  0  0  0
  1  2  1  0
  2  3  1  0
  3  4  1  0
  4  5  1  0
  4  7  1  0
  5  6  1  0
  7  8  1  1
  7  9  1  0
  9 10  1  0
 10 11  2  0
 10 12  1  0
 12 13  1  0
 13 14  2  0
 13 25  1  0
 14 15  1  0
 15 16  1  0
 15 23  2  0
 16 17  1  0
 17 18  1  6
 17 19  1  0
 19 20  1  0
 20 21  2  0
 20 22  1  0
 23 24  1  0
 24 25  2  0
 25 26  1  0
 26 27  1  0
 27 28  2  0
 27 33  1  0
 28 29  1  0
 29 30  2  0
 30 31  1  0
 30 32  1  0
 32 33  2  0
M  END
