
     RDKit          3D

 22 22  0  0  0  0  0  0  0  0999 V2000
    1.3320    0.7740    1.9910 O   0  0  0  0  0  0  0  0  0  0  0  0
    2.2350    1.6030    1.8090 C   0  0  0  0  0  0  0  0  0  0  0  0
    2.0560    2.9680    2.0400 O   0  0  0  0  0  0  0  0  0  0  0  0
    3.4500    1.1740    1.3670 O   0  0  0  0  0  0  0  0  0  0  0  0
    3.8490   -0.1210    1.0710 C   0  0  0  0  0  0  0  0  0  0  0  0
    3.1330   -0.8140   -0.0140 C   0  0  2  0  0  0  0  0  0  0  0  0
    3.3270   -0.1610   -1.3830 C   0  0  0  0  0  0  0  0  0  0  0  0
    2.8350   -1.2250   -2.3750 C   0  0  0  0  0  0  0  0  0  0  0  0
    1.5070   -1.5270   -2.1120 O   0  0  0  0  0  0  0  0  0  0  0  0
    1.4130   -1.9610   -0.8060 C   0  0  2  0  0  0  0  0  0  0  0  0
    0.1400   -2.6790   -0.4940 C   0  0  0  0  0  0  0  0  0  0  0  0
   -1.1060   -1.8970   -0.7020 C   0  0  2  0  0  0  0  0  0  0  0  0
   -1.2660   -1.4730   -2.0200 O   0  0  0  0  0  0  0  0  0  0  0  0
   -1.1800   -0.7320    0.2660 C   0  0  2  0  0  0  0  0  0  0  0  0
   -1.0050   -1.2300    1.5520 O   0  0  0  0  0  0  0  0  0  0  0  0
   -2.3880   -0.0500    0.1540 O   0  0  0  0  0  0  0  0  0  0  0  0
   -2.1960    1.2750   -0.2430 C   0  0  0  0  0  0  0  0  0  0  0  0
   -3.5520    1.9670   -0.3470 C   0  0  2  0  0  0  0  0  0  0  0  0
   -3.4030    3.2940   -0.7410 O   0  0  0  0  0  0  0  0  0  0  0  0
   -4.2780    1.8930    0.9730 C   0  0  0  0  0  0  0  0  0  0  0  0
   -5.5300    2.4590    0.8780 O   0  0  0  0  0  0  0  0  0  0  0  0
    1.7740   -0.9970    0.1360 O   0  0  0  0  0  0  0  0  0  0  0  0
  1  2  2  0
  2  3  1  0
  2  4  1  0
  4  5  1  0
  6  5  1  1
  6  7  1  0
  6 22  1  0
  7  8  1  0
  8  9  1  0
  9 10  1  0
 10 11  1  1
 10 22  1  0
 11 12  1  0
 12 13  1  6
 12 14  1  0
 14 15  1  1
 14 16  1  0
 16 17  1  0
 17 18  1  0
 18 19  1  1
 18 20  1  0
 20 21  1  0
M  END
