
     RDKit          3D

 22 22  0  0  0  0  0  0  0  0999 V2000
    5.7970    1.9320    0.6940 C   0  0  0  0  0  0  0  0  0  0  0  0
    5.4120    0.5940    0.6430 O   0  0  0  0  0  0  0  0  0  0  0  0
    4.4260    0.4070   -0.3290 C   0  0  1  0  0  0  0  0  0  0  0  0
    4.9800   -0.5260   -1.3980 C   0  0  0  0  0  0  0  0  0  0  0  0
    4.0420   -0.7480   -2.3910 O   0  0  0  0  0  0  0  0  0  0  0  0
    3.2530   -0.0940    0.2190 O   0  0  0  0  0  0  0  0  0  0  0  0
    2.2340    0.7900   -0.0080 C   0  0  0  0  0  0  0  0  0  0  0  0
    0.9090    0.3400    0.5490 C   0  0  1  0  0  0  0  0  0  0  0  0
   -0.1870    1.3500    0.2730 C   0  0  0  0  0  0  0  0  0  0  0  0
   -1.4010    0.3830    0.4590 C   0  0  1  0  0  0  0  0  0  0  0  0
   -1.3500    0.0860    1.8310 O   0  0  0  0  0  0  0  0  0  0  0  0
   -2.6570    1.0820    0.0850 C   0  0  0  0  0  0  0  0  0  0  0  0
   -3.7680    0.4000    0.4000 O   0  0  0  0  0  0  0  0  0  0  0  0
   -4.0900   -0.8080   -0.0820 C   0  0  2  0  0  0  0  0  0  0  0  0
   -3.1740   -1.8430    0.1930 O   0  0  0  0  0  0  0  0  0  0  0  0
   -4.3930   -0.7380   -1.5620 C   0  0  0  0  0  0  0  0  0  0  0  0
   -3.3130   -0.2990   -2.2680 O   0  0  0  0  0  0  0  0  0  0  0  0
   -5.3960   -1.3260    0.5790 C   0  0  0  0  0  0  0  0  0  0  0  0
   -5.2360   -1.4300    1.9560 O   0  0  0  0  0  0  0  0  0  0  0  0
   -1.0060   -0.6750   -0.2920 O   0  0  0  0  0  0  0  0  0  0  0  0
    0.3450   -0.8620   -0.1700 C   0  0  2  0  0  0  0  0  0  0  0  0
    0.6880   -2.0580    0.4060 O   0  0  0  0  0  0  0  0  0  0  0  0
  1  2  1  0
  2  3  1  0
  3  4  1  6
  3  6  1  0
  4  5  1  0
  6  7  1  0
  8  7  1  6
  8  9  1  0
  8 21  1  0
  9 10  1  0
 10 11  1  1
 10 12  1  0
 10 20  1  0
 12 13  1  0
 13 14  1  0
 14 15  1  6
 14 16  1  0
 14 18  1  0
 16 17  1  0
 18 19  1  0
 20 21  1  0
 21 22  1  1
M  END
