
     RDKit          3D

 22 22  0  0  0  0  0  0  0  0999 V2000
   -0.0890    3.5310   -1.2330 O   0  0  0  0  0  0  0  0  0  0  0  0
    0.1130    3.0860    0.0820 C   0  0  0  0  0  0  0  0  0  0  0  0
   -0.6590    1.8540    0.4400 C   0  0  2  0  0  0  0  0  0  0  0  0
   -0.2880    1.6040    1.7930 O   0  0  0  0  0  0  0  0  0  0  0  0
   -0.1350    0.5770   -0.2850 C   0  0  1  0  0  0  0  0  0  0  0  0
   -0.2080    0.7670   -1.7700 C   0  0  0  0  0  0  0  0  0  0  0  0
   -1.4260    1.0020   -2.3060 O   0  0  0  0  0  0  0  0  0  0  0  0
    1.2620    0.4650    0.1940 C   0  0  0  0  0  0  0  0  0  0  0  0
    2.1810   -0.5750   -0.2570 C   0  0  0  0  0  0  0  0  0  0  0  0
    3.4600   -0.3580    0.3840 O   0  0  0  0  0  0  0  0  0  0  0  0
    4.3390   -1.3260   -0.0270 C   0  0  1  0  0  0  0  0  0  0  0  0
    5.4950   -0.7530   -0.5570 O   0  0  0  0  0  0  0  0  0  0  0  0
    4.7160   -2.0770    1.0960 O   0  0  0  0  0  0  0  0  0  0  0  0
   -1.0030   -0.5400    0.2140 C   0  0  1  0  0  0  0  0  0  0  0  0
   -0.7480   -1.8790   -0.3450 C   0  0  0  0  0  0  0  0  0  0  0  0
   -0.8250   -2.0990   -1.6720 O   0  0  0  0  0  0  0  0  0  0  0  0
   -0.7000   -0.6680    1.6000 O   0  0  0  0  0  0  0  0  0  0  0  0
   -1.8650   -0.5580    2.3030 C   0  0  0  0  0  0  0  0  0  0  0  0
   -2.6580    0.3000    1.5590 O   0  0  0  0  0  0  0  0  0  0  0  0
   -2.4680   -0.1850    0.2660 C   0  0  2  0  0  0  0  0  0  0  0  0
   -3.4140   -1.3440    0.1370 C   0  0  0  0  0  0  0  0  0  0  0  0
   -4.7570   -0.8900    0.3290 O   0  0  0  0  0  0  0  0  0  0  0  0
  1  2  1  0
  2  3  1  0
  3  4  1  1
  3  5  1  0
  5  6  1  6
  5  8  1  0
  5 14  1  0
  6  7  1  0
  8  9  1  0
  9 10  1  0
 10 11  1  0
 11 12  1  1
 11 13  1  0
 14 15  1  6
 14 17  1  0
 14 20  1  0
 15 16  1  0
 17 18  1  0
 18 19  1  0
 19 20  1  0
 20 21  1  1
 21 22  1  0
M  END
