
     RDKit          3D

 23 23  0  0  0  0  0  0  0  0999 V2000
    4.9180   -2.1770    1.5640 O   0  0  0  0  0  0  0  0  0  0  0  0
    5.3860   -1.1080    1.1200 C   0  0  0  0  0  0  0  0  0  0  0  0
    6.6460   -0.7110    1.5470 O   0  0  0  0  0  0  0  0  0  0  0  0
    4.6900   -0.2210    0.1600 C   0  0  2  0  0  0  0  0  0  0  0  0
    4.3310    1.1170    0.7760 C   0  0  0  0  0  0  0  0  0  0  0  0
    2.9380    1.2390    0.5620 O   0  0  0  0  0  0  0  0  0  0  0  0
    2.7720    0.4340   -0.5480 C   0  0  2  0  0  0  0  0  0  0  0  0
    1.3430    0.2340   -0.9420 C   0  0  2  0  0  0  0  0  0  0  0  0
    1.3640   -0.6060   -2.0820 O   0  0  0  0  0  0  0  0  0  0  0  0
    0.7960    1.5570   -1.3930 C   0  0  0  0  0  0  0  0  0  0  0  0
    0.7120    2.5060   -0.4030 O   0  0  0  0  0  0  0  0  0  0  0  0
    0.6060   -0.4220    0.0050 O   0  0  0  0  0  0  0  0  0  0  0  0
   -0.7070   -0.6930   -0.3850 C   0  0  1  0  0  0  0  0  0  0  0  0
   -0.9410   -2.0690   -0.4110 O   0  0  0  0  0  0  0  0  0  0  0  0
   -1.6180   -0.0120    0.5980 C   0  0  0  0  0  0  0  0  0  0  0  0
   -3.0720   -0.1580    0.3630 C   0  0  2  0  0  0  0  0  0  0  0  0
   -3.8300    0.5960    1.4470 C   0  0  0  0  0  0  0  0  0  0  0  0
   -3.5640    0.1400    2.7210 O   0  0  0  0  0  0  0  0  0  0  0  0
   -3.5840   -1.5740    0.4010 C   0  0  0  0  0  0  0  0  0  0  0  0
   -4.9890   -1.5810    0.1760 O   0  0  0  0  0  0  0  0  0  0  0  0
   -3.5270    0.4480   -0.9510 C   0  0  0  0  0  0  0  0  0  0  0  0
   -3.2650    1.8030   -1.0280 O   0  0  0  0  0  0  0  0  0  0  0  0
    3.4360   -0.7160   -0.1990 O   0  0  0  0  0  0  0  0  0  0  0  0
  1  2  2  0
  2  3  1  0
  4  2  1  1
  4  5  1  0
  4 23  1  0
  5  6  1  0
  7  6  1  1
  7  8  1  0
  7 23  1  0
  8  9  1  6
  8 10  1  0
  8 12  1  0
 10 11  1  0
 12 13  1  0
 13 14  1  1
 13 15  1  0
 16 15  1  1
 16 17  1  0
 16 19  1  0
 16 21  1  0
 17 18  1  0
 19 20  1  0
 21 22  1  0
M  END
