
     RDKit          3D

 23 24  0  0  0  0  0  0  0  0999 V2000
    3.7990   -2.8070   -1.2210 O   0  0  0  0  0  0  0  0  0  0  0  0
    3.1800   -1.5650   -1.3410 C   0  0  0  0  0  0  0  0  0  0  0  0
    2.2560   -1.2910   -0.1720 C   0  0  1  0  0  0  0  0  0  0  0  0
    2.8990   -1.2880    1.0330 O   0  0  0  0  0  0  0  0  0  0  0  0
    3.0310   -0.0830    1.6480 C   0  0  1  0  0  0  0  0  0  0  0  0
    3.9940   -0.1960    2.6590 O   0  0  0  0  0  0  0  0  0  0  0  0
    3.2940    1.0730    0.7270 C   0  0  2  0  0  0  0  0  0  0  0  0
    3.4280    2.2160    1.5300 O   0  0  0  0  0  0  0  0  0  0  0  0
    2.1290    1.2190   -0.1970 C   0  0  1  0  0  0  0  0  0  0  0  0
    2.5670    1.7450   -1.4250 O   0  0  0  0  0  0  0  0  0  0  0  0
    1.4020   -0.0740   -0.3920 C   0  0  2  0  0  0  0  0  0  0  0  0
    0.3820   -0.1220    0.5870 O   0  0  0  0  0  0  0  0  0  0  0  0
   -0.8710   -0.1620    0.0030 C   0  0  2  0  0  0  0  0  0  0  0  0
   -1.6840    0.9070    0.3900 O   0  0  0  0  0  0  0  0  0  0  0  0
   -2.8000    0.8720   -0.4550 C   0  0  2  0  0  0  0  0  0  0  0  0
   -3.5690    2.1570   -0.3060 C   0  0  0  0  0  0  0  0  0  0  0  0
   -4.0200    2.3720    0.9870 O   0  0  0  0  0  0  0  0  0  0  0  0
   -3.6330   -0.3480   -0.2160 C   0  0  2  0  0  0  0  0  0  0  0  0
   -4.9420   -0.0640    0.1410 O   0  0  0  0  0  0  0  0  0  0  0  0
   -2.9900   -1.2020    0.8610 C   0  0  2  0  0  0  0  0  0  0  0  0
   -3.0650   -0.5840    2.1070 O   0  0  0  0  0  0  0  0  0  0  0  0
   -1.5540   -1.4290    0.4960 C   0  0  1  0  0  0  0  0  0  0  0  0
   -1.4170   -2.3810   -0.5120 O   0  0  0  0  0  0  0  0  0  0  0  0
  1  2  1  0
  3  2  1  6
  3  4  1  0
  3 11  1  0
  4  5  1  0
  5  6  1  1
  5  7  1  0
  7  8  1  1
  7  9  1  0
  9 10  1  6
  9 11  1  0
 11 12  1  1
 13 12  1  1
 13 14  1  0
 13 22  1  0
 14 15  1  0
 15 16  1  1
 15 18  1  0
 16 17  1  0
 18 19  1  1
 18 20  1  0
 20 21  1  1
 20 22  1  0
 22 23  1  6
M  END
