
     RDKit          3D

 22 22  0  0  0  0  0  0  0  0999 V2000
    5.6160    0.1760    1.3220 O   0  0  0  0  0  0  0  0  0  0  0  0
    4.5240    0.0820    0.6640 C   0  0  0  0  0  0  0  0  0  0  0  0
    4.6920   -0.3260   -0.6550 O   0  0  0  0  0  0  0  0  0  0  0  0
    3.2150    0.3900    1.2900 C   0  0  1  0  0  0  0  0  0  0  0  0
    3.5820    0.8290    2.6220 O   0  0  0  0  0  0  0  0  0  0  0  0
    2.6190    1.3840    0.6170 O   0  0  0  0  0  0  0  0  0  0  0  0
    1.3550    1.3760    0.2010 C   0  0  0  0  0  0  0  0  0  0  0  0
    0.8700    0.4240   -0.8380 C   0  0  1  0  0  0  0  0  0  0  0  0
    1.5200    0.8740   -2.1620 C   0  0  0  0  0  0  0  0  0  0  0  0
    1.1800    2.2120   -2.3230 O   0  0  0  0  0  0  0  0  0  0  0  0
    1.1760   -1.0070   -0.6890 C   0  0  0  0  0  0  0  0  0  0  0  0
    0.2840   -1.7100    0.3240 C   0  0  0  0  0  0  0  0  0  0  0  0
   -1.1210   -1.4610   -0.2590 C   0  0  1  0  0  0  0  0  0  0  0  0
   -1.0590   -1.9110   -1.5800 O   0  0  0  0  0  0  0  0  0  0  0  0
   -2.1550   -2.2620    0.4840 C   0  0  0  0  0  0  0  0  0  0  0  0
   -3.3700   -2.0710   -0.1530 O   0  0  0  0  0  0  0  0  0  0  0  0
   -1.3120    0.0140   -0.1610 C   0  0  2  0  0  0  0  0  0  0  0  0
   -2.6320    0.3880   -0.4990 O   0  0  0  0  0  0  0  0  0  0  0  0
   -3.1720    1.0440    0.5960 C   0  0  0  0  0  0  0  0  0  0  0  0
   -4.5820    1.4980    0.3660 C   0  0  0  0  0  0  0  0  0  0  0  0
   -5.0070    2.1410    1.5390 O   0  0  0  0  0  0  0  0  0  0  0  0
   -0.5030    0.6460   -1.0790 O   0  0  0  0  0  0  0  0  0  0  0  0
  1  2  2  0
  2  3  1  0
  2  4  1  0
  4  5  1  1
  4  6  1  0
  6  7  1  0
  8  7  1  1
  8  9  1  0
  8 11  1  0
  8 22  1  0
  9 10  1  0
 11 12  1  0
 12 13  1  0
 13 14  1  6
 13 15  1  0
 13 17  1  0
 15 16  1  0
 17 18  1  6
 17 22  1  0
 18 19  1  0
 19 20  1  0
 20 21  1  0
M  END
