
     RDKit          3D

 26 28  0  0  0  0  0  0  0  0999 V2000
   -0.6390   -2.6810    1.3540 N   0  0  0  0  0  0  0  0  0  0  0  0
   -0.0640   -2.1060    0.1920 C   0  0  0  0  0  0  0  0  0  0  0  0
   -0.4710   -0.9600   -0.3250 C   0  0  0  0  0  0  0  0  0  0  0  0
   -1.5600   -0.1980    0.2180 C   0  0  0  0  0  0  0  0  0  0  0  0
   -1.9460    0.9020   -0.3960 C   0  0  0  0  0  0  0  0  0  0  0  0
   -2.9840    1.8380   -0.0670 C   0  0  0  0  0  0  0  0  0  0  0  0
   -3.2100    2.9000   -0.8130 N   0  0  0  0  0  0  0  0  0  0  0  0
   -4.2420    3.6350   -0.2990 O   0  0  0  0  0  0  0  0  0  0  0  0
   -4.7240    3.0240    0.8710 C   0  0  0  0  0  0  0  0  0  0  0  0
   -3.8810    1.8770    0.9480 O   0  0  0  0  0  0  0  0  0  0  0  0
   -2.3030   -0.4610    1.4760 C   0  0  0  0  0  0  0  0  0  0  0  0
   -3.1690   -1.5970    1.4330 N   0  0  0  0  0  0  0  0  0  0  0  0
    0.5590   -0.4550   -1.3100 C   0  0  2  0  0  0  0  0  0  0  0  0
    0.7510    0.9020   -1.5530 N   0  0  0  0  0  0  0  0  0  0  0  0
    2.2240    1.1940   -1.7720 C   0  0  0  0  0  0  0  0  0  0  0  0
    2.9630    1.1650   -0.5140 C   0  0  0  0  0  0  0  0  0  0  0  0
    2.8400    2.1390    0.4360 C   0  0  0  0  0  0  0  0  0  0  0  0
    3.5530    2.0640    1.5710 N   0  0  0  0  0  0  0  0  0  0  0  0
    4.3930    1.0960    1.8620 N   0  0  0  0  0  0  0  0  0  0  0  0
    4.5540    0.1100    0.9630 C   0  0  0  0  0  0  0  0  0  0  0  0
    5.3700   -0.8350    1.2380 O   0  0  0  0  0  0  0  0  0  0  0  0
    3.8490    0.1280   -0.2280 C   0  0  0  0  0  0  0  0  0  0  0  0
    0.6780   -1.4250   -2.4250 C   0  0  0  0  0  0  0  0  0  0  0  0
    1.1400   -2.7030   -1.7500 C   0  0  0  0  0  0  0  0  0  0  0  0
    1.9730   -3.5110   -2.5410 O   0  0  0  0  0  0  0  0  0  0  0  0
    0.8000   -3.0080   -0.5780 N   0  0  0  0  0  0  0  0  0  0  0  0
  1  2  1  0
  2  3  2  0
  2 26  1  0
  3  4  1  0
  3 13  1  0
  4  5  2  3
  4 11  1  0
  5  6  1  0
  6  7  2  0
  6 10  1  0
  7  8  1  0
  8  9  1  0
  9 10  1  0
 11 12  1  0
 13 14  1  6
 13 23  1  0
 14 15  1  0
 15 16  1  0
 16 17  1  0
 16 22  2  0
 17 18  2  0
 18 19  1  0
 19 20  1  0
 20 21  2  0
 20 22  1  0
 23 24  1  0
 24 25  1  0
 24 26  2  0
M  CHG  2  12   1  14   1
M  END
