
     RDKit          3D

  9  8  0  0  0  0  0  0  0  0999 V2000
   -1.3270   -1.3890    0.3600 C   0  0  0  0  0  0  0  0  0  0  0  0
   -0.4550   -0.2230    0.5940 N   0  0  0  0  0  0  0  0  0  0  0  0
   -1.1500    0.8910    0.0190 C   0  0  1  0  0  0  0  0  0  0  0  0
   -2.4170    0.9220    0.6590 O   0  0  0  0  0  0  0  0  0  0  0  0
   -0.5830    2.1360    0.3590 O   0  0  0  0  0  0  0  0  0  0  0  0
    0.8150   -0.5220    0.0060 C   0  0  2  0  0  0  0  0  0  0  0  0
    1.0090   -1.9130    0.1980 O   0  0  0  0  0  0  0  0  0  0  0  0
    1.9890    0.1490    0.6780 C   0  0  0  0  0  0  0  0  0  0  0  0
    1.9250    1.5310    0.6630 O   0  0  0  0  0  0  0  0  0  0  0  0
  1  2  1  0
  2  3  1  0
  2  6  1  0
  3  4  1  1
  3  5  1  0
  6  7  1  1
  6  8  1  0
  8  9  1  0
M  END
