
     RDKit          3D

 21 21  0  0  0  0  0  0  0  0999 V2000
   -3.5440   -2.6820    1.3530 C   0  0  0  0  0  0  0  0  0  0  0  0
   -4.0410   -1.4630    0.6650 C   0  0  0  0  0  0  0  0  0  0  0  0
   -3.1460   -0.5870    0.2150 C   0  0  0  0  0  0  0  0  0  0  0  0
   -1.7100   -0.8460    0.4070 C   0  0  0  0  0  0  0  0  0  0  0  0
   -0.7540   -0.0720    0.0080 C   0  0  0  0  0  0  0  0  0  0  0  0
    0.6580   -0.3660    0.2200 C   0  0  0  0  0  0  0  0  0  0  0  0
    1.1320   -1.5760    0.9070 C   0  0  0  0  0  0  0  0  0  0  0  0
    1.5790    0.4790   -0.2190 C   0  0  0  0  0  0  0  0  0  0  0  0
    3.0010    0.1650    0.0050 C   0  0  0  0  0  0  0  0  0  0  0  0
    3.9540    0.9590   -0.4050 C   0  0  0  0  0  0  0  0  0  0  0  0
    5.3960    0.6770   -0.1980 C   0  0  0  0  0  0  0  0  0  0  0  0
    5.7590   -0.5410    0.5140 C   0  0  0  0  0  0  0  0  0  0  0  0
    6.2960    1.5150   -0.6390 C   0  0  0  0  0  0  0  0  0  0  0  0
    7.7260    1.3000   -0.4730 C   0  0  0  0  0  0  0  0  0  0  0  0
    8.2600    2.3610    0.2650 O   0  0  0  0  0  0  0  0  0  0  0  0
   -3.5850    0.6400   -0.4570 C   0  0  1  0  0  0  0  0  0  0  0  0
   -3.0640    1.8490    0.3300 C   0  0  0  0  0  0  0  0  0  0  0  0
   -3.0950    0.7670   -1.8810 C   0  0  0  0  0  0  0  0  0  0  0  0
   -5.1000    0.8160   -0.5090 C   0  0  0  0  0  0  0  0  0  0  0  0
   -5.7290   -0.5180   -0.7720 C   0  0  0  0  0  0  0  0  0  0  0  0
   -5.5080   -1.3250    0.5170 C   0  0  0  0  0  0  0  0  0  0  0  0
  1  2  1  0
  2  3  2  0
  2 21  1  0
  3  4  1  0
  3 16  1  0
  4  5  2  3
  5  6  1  0
  6  7  1  0
  6  8  2  3
  8  9  1  0
  9 10  2  3
 10 11  1  0
 11 12  1  0
 11 13  2  3
 13 14  1  0
 14 15  1  0
 16 17  1  1
 16 18  1  0
 16 19  1  0
 19 20  1  0
 20 21  1  0
M  END
