
     RDKit          3D

 21 22  0  0  0  0  0  0  0  0999 V2000
   -3.4660   -1.8910    1.8520 C   0  0  0  0  0  0  0  0  0  0  0  0
   -2.6970   -1.2550    1.0210 C   0  0  0  0  0  0  0  0  0  0  0  0
   -2.1350    0.1300    1.1560 C   0  0  0  0  0  0  0  0  0  0  0  0
   -1.1210    0.2800    0.3700 C   0  0  0  0  0  0  0  0  0  0  0  0
   -0.3780    1.5650    0.3010 C   0  0  0  0  0  0  0  0  0  0  0  0
    0.7710    1.7230   -0.6090 C   0  0  0  0  0  0  0  0  0  0  0  0
    1.9410    0.8450   -0.2560 C   0  0  0  0  0  0  0  0  0  0  0  0
    3.0950    1.0500   -1.2210 C   0  0  0  0  0  0  0  0  0  0  0  0
    4.2710    0.1850   -0.8870 C   0  0  0  0  0  0  0  0  0  0  0  0
    3.9800   -1.2850   -0.9160 C   0  0  0  0  0  0  0  0  0  0  0  0
    5.2800   -2.0120   -0.5560 C   0  0  0  0  0  0  0  0  0  0  0  0
   -0.8110    2.5350    1.0760 C   0  0  0  0  0  0  0  0  0  0  0  0
   -0.0110    3.8290    0.9680 C   0  0  0  0  0  0  0  0  0  0  0  0
   -1.9680    2.4710    1.9720 C   0  0  0  0  0  0  0  0  0  0  0  0
   -2.6240    1.1700    2.0720 C   0  0  1  0  0  0  0  0  0  0  0  0
   -4.0410    1.2760    1.9990 O   0  0  0  0  0  0  0  0  0  0  0  0
   -0.8480   -0.9630   -0.3920 C   0  0  2  0  0  0  0  0  0  0  0  0
   -0.6190   -0.7700   -1.8510 C   0  0  0  0  0  0  0  0  0  0  0  0
   -2.1740   -1.7250   -0.2710 C   0  0  2  0  0  0  0  0  0  0  0  0
   -3.1370   -1.3370   -1.3530 C   0  0  0  0  0  0  0  0  0  0  0  0
   -1.9720   -3.2010   -0.2100 C   0  0  0  0  0  0  0  0  0  0  0  0
  1  2  2  0
  2  3  1  0
  2 19  1  0
  3  4  2  0
  3 15  1  0
  4  5  1  0
  4 17  1  0
  5  6  1  0
  5 12  2  0
  6  7  1  0
  7  8  1  0
  8  9  1  0
  9 10  1  0
 10 11  1  0
 12 13  1  0
 12 14  1  0
 14 15  1  0
 15 16  1  6
 17 18  1  6
 17 19  1  0
 19 20  1  6
 19 21  1  0
M  END
