
     RDKit          3D

 21 21  0  0  0  0  0  0  0  0999 V2000
   -2.7390   -1.0120    2.1550 C   0  0  0  0  0  0  0  0  0  0  0  0
   -1.7870   -1.0470    1.0460 C   0  0  0  0  0  0  0  0  0  0  0  0
   -1.5970    0.1540    0.1510 C   0  0  2  0  0  0  0  0  0  0  0  0
   -1.1720    1.3230    0.9790 C   0  0  0  0  0  0  0  0  0  0  0  0
    0.0280    1.2830    1.8270 C   0  0  0  0  0  0  0  0  0  0  0  0
   -2.9680    0.5290   -0.3830 C   0  0  1  0  0  0  0  0  0  0  0  0
   -4.0740   -0.4640   -0.1550 C   0  0  0  0  0  0  0  0  0  0  0  0
   -3.5460    1.8010    0.2400 C   0  0  0  0  0  0  0  0  0  0  0  0
   -3.0660    0.7730   -1.7340 O   0  0  0  0  0  0  0  0  0  0  0  0
   -2.6130   -0.1940   -2.5710 C   0  0  0  0  0  0  0  0  0  0  0  0
   -1.5720   -1.0570   -1.9590 C   0  0  0  0  0  0  0  0  0  0  0  0
   -0.6780   -0.2630   -0.9610 C   0  0  1  0  0  0  0  0  0  0  0  0
   -0.2040    0.9080   -1.7790 C   0  0  0  0  0  0  0  0  0  0  0  0
    0.6950    0.6390   -2.9110 C   0  0  0  0  0  0  0  0  0  0  0  0
    0.4130   -1.1970   -0.7170 C   0  0  0  0  0  0  0  0  0  0  0  0
    1.5830   -1.0940    0.1130 C   0  0  0  0  0  0  0  0  0  0  0  0
    2.6320   -0.0760   -0.1800 C   0  0  0  0  0  0  0  0  0  0  0  0
    3.7780   -0.0800    0.7880 C   0  0  2  0  0  0  0  0  0  0  0  0
    3.4290    0.1840    2.2040 C   0  0  0  0  0  0  0  0  0  0  0  0
    4.8370    0.9150    0.3630 C   0  0  0  0  0  0  0  0  0  0  0  0
    4.4270   -1.4570    0.7130 C   0  0  0  0  0  0  0  0  0  0  0  0
  1  2  1  0
  3  2  1  1
  3  4  1  0
  3  6  1  0
  3 12  1  0
  4  5  1  0
  6  7  1  6
  6  8  1  0
  6  9  1  0
  9 10  1  0
 10 11  1  0
 11 12  1  0
 12 13  1  6
 12 15  1  0
 13 14  1  0
 15 16  1  0
 16 17  1  0
 17 18  1  0
 18 19  1  1
 18 20  1  0
 18 21  1  0
M  END
