
     RDKit          3D

 21 22  0  0  0  0  0  0  0  0999 V2000
    6.7650    0.2230    1.5470 C   0  0  0  0  0  0  0  0  0  0  0  0
    5.6740    1.1360    0.9880 C   0  0  0  0  0  0  0  0  0  0  0  0
    5.3410    0.6290   -0.3590 C   0  0  0  0  0  0  0  0  0  0  0  0
    4.1640    0.2070   -0.7450 C   0  0  0  0  0  0  0  0  0  0  0  0
    2.9650    0.1570    0.0800 C   0  0  0  0  0  0  0  0  0  0  0  0
    1.8030   -0.2810   -0.3720 C   0  0  0  0  0  0  0  0  0  0  0  0
    1.7030   -0.7340   -1.7470 C   0  0  0  0  0  0  0  0  0  0  0  0
    0.3720   -1.0660   -2.2870 C   0  0  0  0  0  0  0  0  0  0  0  0
   -0.5440   -1.4650   -1.1170 C   0  0  0  0  0  0  0  0  0  0  0  0
   -0.6170   -0.2920   -0.2290 C   0  0  1  0  0  0  0  0  0  0  0  0
   -1.8450    0.0650    0.4730 C   0  0  0  0  0  0  0  0  0  0  0  0
   -3.0620    0.4170   -0.2880 C   0  0  1  0  0  0  0  0  0  0  0  0
   -2.9220    1.5730   -1.2170 C   0  0  0  0  0  0  0  0  0  0  0  0
   -3.6420   -0.7750   -0.9970 C   0  0  0  0  0  0  0  0  0  0  0  0
   -4.1380    0.7820    0.7670 C   0  0  2  0  0  0  0  0  0  0  0  0
   -4.3870   -0.2920    1.6160 O   0  0  0  0  0  0  0  0  0  0  0  0
   -5.3970    1.4800    0.2240 C   0  0  0  0  0  0  0  0  0  0  0  0
   -4.4370    2.1490    1.1420 C   0  0  0  0  0  0  0  0  0  0  0  0
    0.6300   -0.2800    0.6160 C   0  0  1  0  0  0  0  0  0  0  0  0
    0.8420   -1.4030    1.5540 C   0  0  0  0  0  0  0  0  0  0  0  0
   -0.2010   -1.5620    2.6240 C   0  0  0  0  0  0  0  0  0  0  0  0
  1  2  1  0
  2  3  1  0
  3  4  2  3
  4  5  1  0
  5  6  2  3
  6  7  1  0
  6 19  1  0
  7  8  1  0
  8  9  1  0
  9 10  1  0
 10 11  1  1
 10 19  1  0
 11 12  1  0
 12 13  1  6
 12 14  1  0
 12 15  1  0
 15 16  1  1
 15 17  1  0
 15 18  1  0
 17 18  1  0
 19 20  1  1
 20 21  1  0
M  END
