
     RDKit          3D

 27 29  0  0  0  0  0  0  0  0999 V2000
   -8.1920    1.3500    0.1670 C   0  0  0  0  0  0  0  0  0  0  0  0
   -7.0080    0.4790    0.0100 C   0  0  0  0  0  0  0  0  0  0  0  0
   -7.2290   -0.8700   -0.1510 C   0  0  0  0  0  0  0  0  0  0  0  0
   -6.1620   -1.6960   -0.2980 C   0  0  0  0  0  0  0  0  0  0  0  0
   -4.8700   -1.1830   -0.2850 C   0  0  0  0  0  0  0  0  0  0  0  0
   -4.5990    0.1380   -0.1300 C   0  0  0  0  0  0  0  0  0  0  0  0
   -3.3270    0.7030   -0.1010 N   0  0  0  0  0  0  0  0  0  0  0  0
   -2.0970    0.0140   -0.1170 C   0  0  0  0  0  0  0  0  0  0  0  0
   -2.0660   -1.2180   -0.1580 O   0  0  0  0  0  0  0  0  0  0  0  0
   -0.7870    0.7360   -0.0860 C   0  0  2  0  0  0  0  0  0  0  0  0
   -0.5930    1.6380   -1.2590 C   0  0  0  0  0  0  0  0  0  0  0  0
    0.6870    2.2920   -1.0960 N   0  0  0  0  0  0  0  0  0  0  0  0
    1.5900    1.8020   -0.1310 C   0  0  0  0  0  0  0  0  0  0  0  0
    2.3100    2.6190    0.4950 O   0  0  0  0  0  0  0  0  0  0  0  0
    1.6850    0.3500    0.1390 C   0  0  2  0  0  0  0  0  0  0  0  0
    2.4340   -0.2310   -0.9530 N   0  0  0  0  0  0  0  0  0  0  0  0
    2.7880   -1.6010   -0.7460 C   0  0  0  0  0  0  0  0  0  0  0  0
    3.7640   -1.8450    0.3530 C   0  0  0  0  0  0  0  0  0  0  0  0
    5.0610   -1.1640    0.1560 C   0  0  0  0  0  0  0  0  0  0  0  0
    6.0790   -1.8200   -0.5260 C   0  0  0  0  0  0  0  0  0  0  0  0
    7.3110   -1.2400   -0.7420 C   0  0  0  0  0  0  0  0  0  0  0  0
    7.5780    0.0270   -0.2810 C   0  0  0  0  0  0  0  0  0  0  0  0
    6.5670    0.6840    0.3990 C   0  0  0  0  0  0  0  0  0  0  0  0
    6.9340    2.3120    0.9830 Cl  0  0  0  0  0  0  0  0  0  0  0  0
    5.3330    0.1040    0.6150 C   0  0  0  0  0  0  0  0  0  0  0  0
    0.3150   -0.2400    0.1280 C   0  0  0  0  0  0  0  0  0  0  0  0
   -5.7200    0.9700    0.0200 C   0  0  0  0  0  0  0  0  0  0  0  0
  1  2  1  0
  2  3  2  0
  2 27  1  0
  3  4  1  0
  4  5  2  0
  5  6  1  0
  6  7  1  0
  6 27  2  0
  7  8  1  0
  8  9  2  0
 10  8  1  6
 10 11  1  0
 10 26  1  0
 11 12  1  0
 12 13  1  0
 13 14  2  0
 13 15  1  0
 15 16  1  6
 15 26  1  0
 16 17  1  0
 17 18  1  0
 18 19  1  0
 19 20  2  0
 19 25  1  0
 20 21  1  0
 21 22  2  0
 22 23  1  0
 23 24  1  0
 23 25  2  0
M  CHG  1  16   1
M  END
