
     RDKit          3D

 23 24  0  0  0  0  0  0  0  0999 V2000
    1.6040   -1.2340   -2.0380 N   0  0  0  0  0  0  0  0  0  0  0  0
    1.4210    0.0400   -1.3880 C   0  0  1  0  0  0  0  0  0  0  0  0
    0.8700   -0.1250    0.0250 C   0  0  1  0  0  0  0  0  0  0  0  0
   -0.2460   -0.9850   -0.0980 O   0  0  0  0  0  0  0  0  0  0  0  0
   -1.4280   -0.3670    0.1780 C   0  0  2  0  0  0  0  0  0  0  0  0
   -2.1080   -0.9780    1.4090 C   0  0  1  0  0  0  0  0  0  0  0  0
   -1.2860   -0.9410    2.5200 O   0  0  0  0  0  0  0  0  0  0  0  0
   -3.4620   -0.4220    1.6430 C   0  0  2  0  0  0  0  0  0  0  0  0
   -4.4580   -1.4260    1.6220 O   0  0  0  0  0  0  0  0  0  0  0  0
   -3.8800    0.6880    0.7610 C   0  0  1  0  0  0  0  0  0  0  0  0
   -3.4670    1.9050    1.3470 O   0  0  0  0  0  0  0  0  0  0  0  0
   -3.4810    0.5840   -0.6650 C   0  0  1  0  0  0  0  0  0  0  0  0
   -2.8310    1.7920   -1.0110 O   0  0  0  0  0  0  0  0  0  0  0  0
   -2.4660   -0.5130   -0.9260 C   0  0  1  0  0  0  0  0  0  0  0  0
   -1.9490   -0.3790   -2.1810 O   0  0  0  0  0  0  0  0  0  0  0  0
    1.7940   -0.6300    0.9030 O   0  0  0  0  0  0  0  0  0  0  0  0
    3.0910   -0.5260    0.4680 C   0  0  2  0  0  0  0  0  0  0  0  0
    4.0780   -0.7050    1.5980 C   0  0  0  0  0  0  0  0  0  0  0  0
    5.3820   -0.5930    1.1180 O   0  0  0  0  0  0  0  0  0  0  0  0
    3.2840    0.8880   -0.0690 C   0  0  1  0  0  0  0  0  0  0  0  0
    4.6170    1.2280   -0.1810 O   0  0  0  0  0  0  0  0  0  0  0  0
    2.6340    0.9170   -1.4290 C   0  0  2  0  0  0  0  0  0  0  0  0
    2.3660    2.2330   -1.7510 O   0  0  0  0  0  0  0  0  0  0  0  0
  2  1  1  1
  2  3  1  0
  2 22  1  0
  3  4  1  6
  3 16  1  0
  5  4  1  6
  5  6  1  0
  5 14  1  0
  6  7  1  1
  6  8  1  0
  8  9  1  6
  8 10  1  0
 10 11  1  1
 10 12  1  0
 12 13  1  1
 12 14  1  0
 14 15  1  6
 16 17  1  0
 17 18  1  1
 17 20  1  0
 18 19  1  0
 20 21  1  6
 20 22  1  0
 22 23  1  1
M  END
