
     RDKit          3D

 27 29  0  0  0  0  0  0  0  0999 V2000
   -1.6760    5.6450    0.8170 C   0  0  0  0  0  0  0  0  0  0  0  0
   -1.3230    4.1870    0.6360 C   0  0  0  0  0  0  0  0  0  0  0  0
   -1.6080    3.2970    1.6410 C   0  0  0  0  0  0  0  0  0  0  0  0
   -1.2830    1.9440    1.4780 C   0  0  0  0  0  0  0  0  0  0  0  0
   -0.6830    1.4980    0.3260 C   0  0  0  0  0  0  0  0  0  0  0  0
   -0.3500    0.0810    0.1700 C   0  0  1  0  0  0  0  0  0  0  0  0
   -1.2380   -0.6400   -0.8110 C   0  0  0  0  0  0  0  0  0  0  0  0
   -2.6870   -0.6300   -0.4570 C   0  0  2  0  0  0  0  0  0  0  0  0
   -2.9850   -1.2710    0.8570 C   0  0  0  0  0  0  0  0  0  0  0  0
   -3.1260   -2.7740    0.7580 C   0  0  0  0  0  0  0  0  0  0  0  0
   -4.2770   -3.1620   -0.1500 C   0  0  0  0  0  0  0  0  0  0  0  0
   -4.6190   -1.9480   -1.0000 C   0  0  0  0  0  0  0  0  0  0  0  0
   -3.3830   -1.3950   -1.4890 N   0  0  0  0  0  0  0  0  0  0  0  0
    1.0230    0.0340   -0.3710 N   0  0  0  0  0  0  0  0  0  0  0  0
    2.0610   -0.5640    0.3710 C   0  0  0  0  0  0  0  0  0  0  0  0
    1.7760   -1.0470    1.4920 O   0  0  0  0  0  0  0  0  0  0  0  0
    3.4260   -0.6270   -0.1340 C   0  0  0  0  0  0  0  0  0  0  0  0
    4.4080   -1.2370    0.6590 C   0  0  0  0  0  0  0  0  0  0  0  0
    5.7140   -1.3350    0.2550 C   0  0  0  0  0  0  0  0  0  0  0  0
    6.6800   -1.9940    1.1560 C   0  0  0  0  0  0  0  0  0  0  0  0
    6.0730   -0.8200   -0.9640 C   0  0  0  0  0  0  0  0  0  0  0  0
    7.7310   -0.9250   -1.5150 Cl  0  0  0  0  0  0  0  0  0  0  0  0
    5.1050   -0.2250   -1.7330 C   0  0  0  0  0  0  0  0  0  0  0  0
    5.3940    0.2640   -2.8670 O   0  0  0  0  0  0  0  0  0  0  0  0
    3.8230   -0.1420   -1.3090 N   0  0  0  0  0  0  0  0  0  0  0  0
   -0.4110    2.4080   -0.6590 C   0  0  0  0  0  0  0  0  0  0  0  0
   -0.7250    3.7400   -0.5110 C   0  0  0  0  0  0  0  0  0  0  0  0
  1  2  1  0
  2  3  2  0
  2 27  1  0
  3  4  1  0
  4  5  2  0
  5  6  1  0
  5 26  1  0
  6  7  1  6
  6 14  1  0
  8  7  1  6
  8  9  1  0
  8 13  1  0
  9 10  1  0
 10 11  1  0
 11 12  1  0
 12 13  1  0
 14 15  1  0
 15 16  2  0
 15 17  1  0
 17 18  2  0
 17 25  1  0
 18 19  1  0
 19 20  1  0
 19 21  2  0
 21 22  1  0
 21 23  1  0
 23 24  2  0
 23 25  1  0
 26 27  2  0
M  CHG  1  13   1
M  END
