
     RDKit          3D

 20 21  0  0  0  0  0  0  0  0999 V2000
   -2.1690   -2.7030    0.5310 C   0  0  0  0  0  0  0  0  0  0  0  0
   -1.6950   -1.7120   -0.5460 C   0  0  0  0  0  0  0  0  0  0  0  0
   -1.7360   -0.4830    0.0310 O   0  0  0  0  0  0  0  0  0  0  0  0
   -1.3980    0.6080   -0.7150 C   0  0  1  0  0  0  0  0  0  0  0  0
   -2.4540    0.8220   -2.1240 Cl  0  0  0  0  0  0  0  0  0  0  0  0
   -1.5000    1.7870    0.1860 C   0  0  0  0  0  0  0  0  0  0  0  0
   -2.5070    2.6840    0.0210 O   0  0  0  0  0  0  0  0  0  0  0  0
   -2.7120    3.7680    0.9320 C   0  0  0  0  0  0  0  0  0  0  0  0
   -0.6050    1.8880    1.0890 N   0  0  0  0  0  0  0  0  0  0  0  0
    0.6990    0.7340    1.3100 S   0  0  0  0  0  0  0  0  0  0  0  0
    0.8250   -0.2320   -0.2130 N   0  0  0  0  0  0  0  0  0  0  0  0
    2.2460   -0.1300   -0.5450 C   0  0  1  0  0  0  0  0  0  0  0  0
    3.0610   -0.2360    0.5920 O   0  0  0  0  0  0  0  0  0  0  0  0
    2.7390   -1.2350    1.4570 C   0  0  0  0  0  0  0  0  0  0  0  0
    3.6470   -1.2000    2.5450 O   0  0  0  0  0  0  0  0  0  0  0  0
    2.8490   -0.5670   -1.7610 C   0  0  0  0  0  0  0  0  0  0  0  0
    2.6370    0.8550   -1.4240 O   0  0  0  0  0  0  0  0  0  0  0  0
    0.0210    0.4610   -1.2210 C   0  0  2  0  0  0  0  0  0  0  0  0
    0.6550    2.0390   -1.6580 Cl  0  0  0  0  0  0  0  0  0  0  0  0
   -0.0530   -0.5570   -2.6630 Cl  0  0  0  0  0  0  0  0  0  0  0  0
  1  2  1  0
  2  3  1  0
  3  4  1  0
  4  5  1  6
  4  6  1  0
  4 18  1  0
  6  7  1  0
  6  9  2  0
  7  8  1  0
  9 10  1  0
 10 11  1  0
 11 12  1  0
 11 18  1  0
 12 13  1  1
 12 16  1  0
 12 17  1  0
 13 14  1  0
 14 15  1  0
 16 17  1  0
 18 19  1  6
 18 20  1  0
M  END
