
     RDKit          3D

 26 28  0  0  0  0  0  0  0  0999 V2000
   -1.2830   -2.7780   -0.7550 C   0  0  0  0  0  0  0  0  0  0  0  0
   -1.9460   -1.5530   -0.2130 C   0  0  0  0  0  0  0  0  0  0  0  0
   -3.3110   -1.6410    0.0180 C   0  0  0  0  0  0  0  0  0  0  0  0
   -4.0770   -0.5990    0.5120 C   0  0  0  0  0  0  0  0  0  0  0  0
   -5.5050   -0.8730    0.7600 C   0  0  1  0  0  0  0  0  0  0  0  0
   -6.0770   -0.5840    2.0810 C   0  0  0  0  0  0  0  0  0  0  0  0
   -6.2790   -0.5790   -0.4060 N   0  0  0  0  0  0  0  0  0  0  0  0
   -6.8040    0.7310   -0.4420 C   0  0  0  0  0  0  0  0  0  0  0  0
   -6.4760    1.5580   -1.5690 N   0  0  0  0  0  0  0  0  0  0  0  0
   -3.4210    0.5870    0.7780 C   0  0  0  0  0  0  0  0  0  0  0  0
   -2.0460    0.6580    0.5390 C   0  0  0  0  0  0  0  0  0  0  0  0
   -1.2710   -0.3700    0.0480 C   0  0  0  0  0  0  0  0  0  0  0  0
    0.1260   -0.3450   -0.1140 N   0  0  0  0  0  0  0  0  0  0  0  0
    0.9800    0.7780    0.1780 C   0  0  0  0  0  0  0  0  0  0  0  0
    0.4320    1.8690    0.5760 O   0  0  0  0  0  0  0  0  0  0  0  0
    2.4220    0.7380    0.0670 C   0  0  0  0  0  0  0  0  0  0  0  0
    3.1500   -0.2410   -0.3360 C   0  0  0  0  0  0  0  0  0  0  0  0
    4.6300   -0.1390   -0.3910 C   0  0  0  0  0  0  0  0  0  0  0  0
    5.4250   -1.0650   -1.0160 C   0  0  0  0  0  0  0  0  0  0  0  0
    6.8240   -1.0050   -0.8990 C   0  0  0  0  0  0  0  0  0  0  0  0
    7.4820   -0.0310   -0.1580 C   0  0  0  0  0  0  0  0  0  0  0  0
    6.6620    0.9050    0.4630 C   0  0  0  0  0  0  0  0  0  0  0  0
    5.2920    0.8460    0.3490 C   0  0  0  0  0  0  0  0  0  0  0  0
    7.5860    1.8110    1.2170 C   0  0  0  0  0  0  0  0  0  0  0  0
    8.8470    1.7160    0.3730 C   0  0  0  0  0  0  0  0  0  0  0  0
    8.8010    0.2750    0.1320 O   0  0  0  0  0  0  0  0  0  0  0  0
  1  2  1  0
  2  3  2  0
  2 12  1  0
  3  4  1  0
  4  5  1  0
  4 10  2  0
  5  6  1  1
  5  7  1  0
  7  8  1  0
  8  9  1  0
 10 11  1  0
 11 12  2  0
 12 13  1  0
 13 14  1  0
 14 15  2  0
 14 16  1  0
 16 17  2  3
 17 18  1  0
 18 19  2  0
 18 23  1  0
 19 20  1  0
 20 21  2  0
 21 22  1  0
 21 26  1  0
 22 23  2  0
 22 24  1  0
 24 25  1  0
 25 26  1  0
M  CHG  1   9   1
M  END
