
     RDKit          3D

 27 29  0  0  0  0  0  0  0  0999 V2000
   -4.8910    0.4470   -1.7990 C   0  0  0  0  0  0  0  0  0  0  0  0
   -3.4870   -0.0290   -1.3810 C   0  0  2  0  0  0  0  0  0  0  0  0
   -3.5970   -1.4690   -1.2690 N   0  0  0  0  0  0  0  0  0  0  0  0
   -3.2450    0.5350   -0.0460 C   0  0  2  0  0  0  0  0  0  0  0  0
   -3.2850    2.0430    0.0330 C   0  0  0  0  0  0  0  0  0  0  0  0
   -3.5590    2.3800    1.4930 C   0  0  0  0  0  0  0  0  0  0  0  0
   -3.2850    1.2600    2.4380 C   0  0  0  0  0  0  0  0  0  0  0  0
   -2.0420    0.4410    2.0640 C   0  0  0  0  0  0  0  0  0  0  0  0
   -2.0340    0.1650    0.6370 N   0  0  0  0  0  0  0  0  0  0  0  0
   -0.8840   -0.4190    0.0140 C   0  0  0  0  0  0  0  0  0  0  0  0
   -0.9480   -0.6310   -1.2130 O   0  0  0  0  0  0  0  0  0  0  0  0
    0.3300   -0.7660    0.7400 C   0  0  0  0  0  0  0  0  0  0  0  0
    1.3830   -1.4180    0.0110 N   0  0  0  0  0  0  0  0  0  0  0  0
    1.2890   -2.7960   -0.3420 C   0  0  0  0  0  0  0  0  0  0  0  0
    0.2430   -3.2240   -1.2760 C   0  0  0  0  0  0  0  0  0  0  0  0
    0.3470   -4.6450   -1.5030 O   0  0  0  0  0  0  0  0  0  0  0  0
    2.5880   -0.6920   -0.2990 C   0  0  0  0  0  0  0  0  0  0  0  0
    3.0640    0.2600    0.6140 C   0  0  0  0  0  0  0  0  0  0  0  0
    4.2330    0.9800    0.4050 C   0  0  0  0  0  0  0  0  0  0  0  0
    4.6690    1.9160    1.3320 C   0  0  0  0  0  0  0  0  0  0  0  0
    5.8290    2.6360    1.1250 C   0  0  0  0  0  0  0  0  0  0  0  0
    6.5830    2.4350   -0.0180 C   0  0  0  0  0  0  0  0  0  0  0  0
    6.1400    1.5030   -0.9300 C   0  0  0  0  0  0  0  0  0  0  0  0
    4.9720    0.7720   -0.7310 C   0  0  0  0  0  0  0  0  0  0  0  0
    4.5280   -0.1500   -1.6340 C   0  0  0  0  0  0  0  0  0  0  0  0
    3.3490   -0.8720   -1.4190 C   0  0  0  0  0  0  0  0  0  0  0  0
    2.9130   -2.0020   -2.6800 Cl  0  0  0  0  0  0  0  0  0  0  0  0
  2  1  1  1
  2  3  1  0
  2  4  1  0
  4  5  1  6
  4  9  1  0
  5  6  1  0
  6  7  1  0
  7  8  1  0
  8  9  1  0
  9 10  1  0
 10 11  2  0
 10 12  1  0
 12 13  1  0
 13 14  1  0
 13 17  1  0
 14 15  1  0
 15 16  1  0
 17 18  2  0
 17 26  1  0
 18 19  1  0
 19 20  2  0
 19 24  1  0
 20 21  1  0
 21 22  2  0
 22 23  1  0
 23 24  2  0
 24 25  1  0
 25 26  2  0
 26 27  1  0
M  CHG  1   3   1
M  END
