
     RDKit          3D

 12 12  0  0  0  0  0  0  0  0999 V2000
   -1.9490    1.3240    0.6030 C   0  0  0  0  0  0  0  0  0  0  0  0
   -0.8300    0.8490   -0.3210 C   0  0  1  0  0  0  0  0  0  0  0  0
    0.4020    1.2550    0.1450 O   0  0  0  0  0  0  0  0  0  0  0  0
    1.4560    0.4780   -0.2870 C   0  0  1  0  0  0  0  0  0  0  0  0
    2.7240    1.0810    0.3250 C   0  0  0  0  0  0  0  0  0  0  0  0
    3.7860    0.3020   -0.1090 O   0  0  0  0  0  0  0  0  0  0  0  0
    1.4120   -0.8300    0.1870 O   0  0  0  0  0  0  0  0  0  0  0  0
    0.1410   -1.1580    0.6520 C   0  0  1  0  0  0  0  0  0  0  0  0
   -0.1380   -0.6510    1.9000 O   0  0  0  0  0  0  0  0  0  0  0  0
   -0.8210   -0.6530   -0.4170 C   0  0  1  0  0  0  0  0  0  0  0  0
   -2.1640   -1.2810   -0.3400 C   0  0  0  0  0  0  0  0  0  0  0  0
   -0.2440   -0.9780   -1.6550 O   0  0  0  0  0  0  0  0  0  0  0  0
  2  1  1  1
  2  3  1  0
  2 10  1  0
  3  4  1  0
  4  5  1  1
  4  7  1  0
  5  6  1  0
  7  8  1  0
  8  9  1  1
  8 10  1  0
 10 11  1  1
 10 12  1  0
M  END
