
     RDKit          3D

 13 13  0  0  0  0  0  0  0  0999 V2000
    0.4740    2.4390   -0.7010 O   0  0  0  0  0  0  0  0  0  0  0  0
    0.8300    1.8550    0.3350 C   0  0  0  0  0  0  0  0  0  0  0  0
    1.8110    2.3920    1.1310 O   0  0  0  0  0  0  0  0  0  0  0  0
    0.2030    0.5820    0.7180 C   0  0  2  0  0  0  0  0  0  0  0  0
    1.2930   -0.4680    0.7770 C   0  0  0  0  0  0  0  0  0  0  0  0
    1.6070   -1.0790   -0.5400 C   0  0  1  0  0  0  0  0  0  0  0  0
    2.0900   -2.3750   -0.3190 O   0  0  0  0  0  0  0  0  0  0  0  0
    0.5330   -1.1650   -1.4070 O   0  0  0  0  0  0  0  0  0  0  0  0
   -0.6220   -1.2440   -0.6500 C   0  0  0  0  0  0  0  0  0  0  0  0
   -0.9270    0.1760   -0.1790 C   0  0  2  0  0  0  0  0  0  0  0  0
   -1.0540    1.0110   -1.2800 O   0  0  0  0  0  0  0  0  0  0  0  0
   -2.2590    0.1330    0.5190 C   0  0  0  0  0  0  0  0  0  0  0  0
   -3.1830   -0.3760   -0.4240 O   0  0  0  0  0  0  0  0  0  0  0  0
  1  2  2  0
  2  3  1  0
  4  2  1  6
  4  5  1  0
  4 10  1  0
  5  6  1  0
  6  7  1  1
  6  8  1  0
  8  9  1  0
  9 10  1  0
 10 11  1  6
 10 12  1  0
 12 13  1  0
M  END
