
     RDKit          3D

 13 13  0  0  0  0  0  0  0  0999 V2000
    3.6160    0.6490   -1.5180 O   0  0  0  0  0  0  0  0  0  0  0  0
    3.5710   -0.0570   -0.3180 C   0  0  0  0  0  0  0  0  0  0  0  0
    2.2850   -0.8600   -0.2690 C   0  0  1  0  0  0  0  0  0  0  0  0
    2.2370   -1.5690    0.9310 O   0  0  0  0  0  0  0  0  0  0  0  0
    1.0720    0.0490   -0.3000 C   0  0  0  0  0  0  0  0  0  0  0  0
   -0.0610   -0.7550   -0.2290 O   0  0  0  0  0  0  0  0  0  0  0  0
   -1.2320   -0.0370   -0.2500 C   0  0  1  0  0  0  0  0  0  0  0  0
   -1.4120    0.7290   -1.3820 O   0  0  0  0  0  0  0  0  0  0  0  0
   -2.3770   -1.0430   -0.1870 C   0  0  0  0  0  0  0  0  0  0  0  0
   -3.4500   -0.1490    0.4500 C   0  0  0  0  0  0  0  0  0  0  0  0
   -2.7440    0.4610    1.4560 O   0  0  0  0  0  0  0  0  0  0  0  0
   -1.4800    0.7480    1.0150 C   0  0  2  0  0  0  0  0  0  0  0  0
   -1.3060    2.1210    0.8130 O   0  0  0  0  0  0  0  0  0  0  0  0
  1  2  1  0
  2  3  1  0
  3  4  1  1
  3  5  1  0
  5  6  1  0
  6  7  1  0
  7  8  1  6
  7  9  1  0
  7 12  1  0
  9 10  1  0
 10 11  1  0
 11 12  1  0
 12 13  1  6
M  END
