
     RDKit          3D

 13 13  0  0  0  0  0  0  0  0999 V2000
    3.4550    0.9850   -0.2740 O   0  0  0  0  0  0  0  0  0  0  0  0
    2.1570    0.6100   -0.6110 C   0  0  0  0  0  0  0  0  0  0  0  0
    1.6140   -0.4240    0.3630 C   0  0  1  0  0  0  0  0  0  0  0  0
    1.5960    0.0870    1.6310 O   0  0  0  0  0  0  0  0  0  0  0  0
    0.3340   -1.0160   -0.1120 C   0  0  2  0  0  0  0  0  0  0  0  0
    0.5430   -1.4830   -1.4210 O   0  0  0  0  0  0  0  0  0  0  0  0
   -0.8290   -0.0960   -0.1410 C   0  0  1  0  0  0  0  0  0  0  0  0
   -2.0470   -0.9220   -0.5800 C   0  0  0  0  0  0  0  0  0  0  0  0
   -2.1580   -2.0170    0.2700 O   0  0  0  0  0  0  0  0  0  0  0  0
   -1.1810    0.5110    1.1820 C   0  0  0  0  0  0  0  0  0  0  0  0
   -0.8970    1.8780    1.0530 O   0  0  0  0  0  0  0  0  0  0  0  0
   -1.2910    2.0830   -0.2880 C   0  0  0  0  0  0  0  0  0  0  0  0
   -0.6800    1.0060   -0.9600 O   0  0  0  0  0  0  0  0  0  0  0  0
  1  2  1  0
  2  3  1  0
  3  4  1  1
  3  5  1  0
  5  6  1  6
  5  7  1  0
  7  8  1  6
  7 10  1  0
  7 13  1  0
  8  9  1  0
 10 11  1  0
 11 12  1  0
 12 13  1  0
M  END
