
     RDKit          3D

 13 13  0  0  0  0  0  0  0  0999 V2000
    2.9560    0.8220   -0.8540 C   0  0  0  0  0  0  0  0  0  0  0  0
    1.8440    0.4550   -0.0720 O   0  0  0  0  0  0  0  0  0  0  0  0
    0.9540   -0.5470   -0.4240 C   0  0  0  0  0  0  0  0  0  0  0  0
    1.1700   -1.1510   -1.5110 O   0  0  0  0  0  0  0  0  0  0  0  0
   -0.1550   -0.8280    0.4750 C   0  0  1  0  0  0  0  0  0  0  0  0
   -0.0290   -2.2810    0.9000 C   0  0  0  0  0  0  0  0  0  0  0  0
   -0.1010    0.0290    1.5590 O   0  0  0  0  0  0  0  0  0  0  0  0
   -0.5660    1.2450    1.0810 C   0  0  2  0  0  0  0  0  0  0  0  0
   -1.2880    1.9160    2.0720 O   0  0  0  0  0  0  0  0  0  0  0  0
   -1.5180    0.9740   -0.0590 C   0  0  1  0  0  0  0  0  0  0  0  0
   -1.0220    1.4560   -1.2730 O   0  0  0  0  0  0  0  0  0  0  0  0
   -1.5150   -0.5270   -0.0830 C   0  0  1  0  0  0  0  0  0  0  0  0
   -1.7530   -1.0730   -1.3210 O   0  0  0  0  0  0  0  0  0  0  0  0
  1  2  1  0
  2  3  1  0
  3  4  2  0
  3  5  1  0
  5  6  1  1
  5  7  1  0
  5 12  1  0
  7  8  1  0
  8  9  1  1
  8 10  1  0
 10 11  1  6
 10 12  1  0
 12 13  1  6
M  END
