
     RDKit          3D

 13 13  0  0  0  0  0  0  0  0999 V2000
   -1.1270   -2.1400    0.4940 O   0  0  0  0  0  0  0  0  0  0  0  0
   -1.6530   -1.0540   -0.1890 C   0  0  0  0  0  0  0  0  0  0  0  0
   -1.2350    0.2590    0.4070 C   0  0  2  0  0  0  0  0  0  0  0  0
   -1.6840    0.3080    1.7270 O   0  0  0  0  0  0  0  0  0  0  0  0
   -1.8960    1.3830   -0.3370 C   0  0  0  0  0  0  0  0  0  0  0  0
   -3.2840    1.2160   -0.2820 O   0  0  0  0  0  0  0  0  0  0  0  0
    0.2610    0.4330    0.4380 C   0  0  1  0  0  0  0  0  0  0  0  0
    0.8370   -0.5930    1.1890 O   0  0  0  0  0  0  0  0  0  0  0  0
    2.2220   -0.5780    1.0510 C   0  0  0  0  0  0  0  0  0  0  0  0
    2.6540   -0.8650   -0.3780 C   0  0  0  0  0  0  0  0  0  0  0  0
    1.5210   -0.8170   -1.1790 O   0  0  0  0  0  0  0  0  0  0  0  0
    0.8960    0.4200   -0.9150 C   0  0  2  0  0  0  0  0  0  0  0  0
    1.9080    1.4070   -0.9570 O   0  0  0  0  0  0  0  0  0  0  0  0
  1  2  1  0
  2  3  1  0
  3  4  1  1
  3  5  1  0
  3  7  1  0
  5  6  1  0
  7  8  1  1
  7 12  1  0
  8  9  1  0
  9 10  1  0
 10 11  1  0
 11 12  1  0
 12 13  1  1
M  END
