
     RDKit          3D

 13 13  0  0  0  0  0  0  0  0999 V2000
    3.5760    0.4590    1.0200 C   0  0  0  0  0  0  0  0  0  0  0  0
    2.8110    0.0010   -0.0410 O   0  0  0  0  0  0  0  0  0  0  0  0
    1.5030    0.4790    0.0090 C   0  0  1  0  0  0  0  0  0  0  0  0
    1.3660    1.3300   -1.1120 O   0  0  0  0  0  0  0  0  0  0  0  0
    0.5350   -0.6570   -0.0700 C   0  0  2  0  0  0  0  0  0  0  0  0
    0.7370   -1.3350   -1.2730 O   0  0  0  0  0  0  0  0  0  0  0  0
   -0.8870   -0.3100    0.0540 C   0  0  1  0  0  0  0  0  0  0  0  0
   -1.7790   -1.5180   -0.0380 C   0  0  0  0  0  0  0  0  0  0  0  0
   -3.1280   -1.1760    0.0810 O   0  0  0  0  0  0  0  0  0  0  0  0
   -1.3100    0.5710    1.1920 C   0  0  0  0  0  0  0  0  0  0  0  0
   -2.3940    0.9430    0.3570 O   0  0  0  0  0  0  0  0  0  0  0  0
   -1.4460    0.8390   -0.6940 C   0  0  2  0  0  0  0  0  0  0  0  0
   -2.0090    0.5690   -1.9300 O   0  0  0  0  0  0  0  0  0  0  0  0
  1  2  1  0
  2  3  1  0
  3  4  1  6
  3  5  1  0
  5  6  1  6
  5  7  1  0
  7  8  1  1
  7 10  1  0
  7 12  1  0
  8  9  1  0
 10 11  1  0
 11 12  1  0
 12 13  1  6
M  END
