
     RDKit          3D

 26 30  0  0  0  0  0  0  0  0999 V2000
   -3.8510   -2.4880   -0.3290 C   0  0  0  0  0  0  0  0  0  0  0  0
   -3.5720   -1.3230   -1.0950 O   0  0  0  0  0  0  0  0  0  0  0  0
   -3.1690   -0.1930   -0.4020 C   0  0  0  0  0  0  0  0  0  0  0  0
   -4.1630    0.6490    0.0590 C   0  0  0  0  0  0  0  0  0  0  0  0
   -5.6060    0.3430   -0.1870 C   0  0  0  0  0  0  0  0  0  0  0  0
   -3.8460    1.7810    0.7500 C   0  0  0  0  0  0  0  0  0  0  0  0
   -2.5420    2.1310    1.0170 C   0  0  0  0  0  0  0  0  0  0  0  0
   -2.2130    3.3520    1.7630 C   0  0  0  0  0  0  0  0  0  0  0  0
   -1.5590    1.2880    0.5540 C   0  0  0  0  0  0  0  0  0  0  0  0
   -1.8640    0.1260   -0.1560 C   0  0  0  0  0  0  0  0  0  0  0  0
   -0.9540   -0.8610   -0.7360 C   0  0  0  0  0  0  0  0  0  0  0  0
   -1.4520   -1.8460   -1.3300 O   0  0  0  0  0  0  0  0  0  0  0  0
    0.4800   -0.7920   -0.6820 N   0  0  0  0  0  0  0  0  0  0  0  0
    1.2950   -1.9950   -0.6500 C   0  0  0  0  0  0  0  0  0  0  0  0
    2.6710   -1.4670   -0.5420 C   0  0  0  0  0  0  0  0  0  0  0  0
    3.9040   -2.1210   -0.4410 C   0  0  0  0  0  0  0  0  0  0  0  0
    5.0820   -1.4180   -0.3500 C   0  0  0  0  0  0  0  0  0  0  0  0
    5.0660   -0.0400   -0.3560 C   0  0  0  0  0  0  0  0  0  0  0  0
    3.8590    0.6120   -0.4550 C   0  0  0  0  0  0  0  0  0  0  0  0
    2.6830   -0.0940   -0.5470 C   0  0  0  0  0  0  0  0  0  0  0  0
    1.2880    0.4040   -0.6600 C   0  0  2  0  0  0  0  0  0  0  0  0
    0.9600    1.3610    0.3960 C   0  0  0  0  0  0  0  0  0  0  0  0
   -0.2050    1.7140    0.8820 C   0  0  0  0  0  0  0  0  0  0  0  0
    6.3980    0.3990   -0.2510 O   0  0  0  0  0  0  0  0  0  0  0  0
    7.2360   -0.7310   -0.0750 C   0  0  0  0  0  0  0  0  0  0  0  0
    6.4010   -1.8580   -0.2430 O   0  0  0  0  0  0  0  0  0  0  0  0
  1  2  1  0
  2  3  1  0
  3  4  2  0
  3 10  1  0
  4  5  1  0
  4  6  1  0
  6  7  2  0
  7  8  1  0
  7  9  1  0
  9 10  2  0
  9 23  1  0
 10 11  1  0
 11 12  2  0
 11 13  1  0
 13 14  1  0
 13 21  1  0
 14 15  1  0
 15 16  2  0
 15 20  1  0
 16 17  1  0
 17 18  2  0
 17 26  1  0
 18 19  1  0
 18 24  1  0
 19 20  2  0
 20 21  1  0
 21 22  1  1
 22 23  2  0
 24 25  1  0
 25 26  1  0
M  END
