
     RDKit          3D

 15 15  0  0  0  0  0  0  0  0999 V2000
    2.6460    0.9710   -0.6770 C   0  0  0  0  0  0  0  0  0  0  0  0
    2.9310    0.1500    0.5480 C   0  0  2  0  0  0  0  0  0  0  0  0
    4.1600   -0.4950    0.3980 O   0  0  0  0  0  0  0  0  0  0  0  0
    1.8730   -0.8820    0.6720 C   0  0  0  0  0  0  0  0  0  0  0  0
    2.1580   -2.1130    0.6180 O   0  0  0  0  0  0  0  0  0  0  0  0
    0.5130   -0.5000    0.8560 N   0  0  0  0  0  0  0  0  0  0  0  0
   -0.5970   -1.3850    0.9850 C   0  0  0  0  0  0  0  0  0  0  0  0
   -0.5500   -2.6330    1.0980 O   0  0  0  0  0  0  0  0  0  0  0  0
   -1.8480   -0.5830    0.9660 C   0  0  2  0  0  0  0  0  0  0  0  0
   -2.7580   -1.2410    0.0500 N   0  0  0  0  0  0  0  0  0  0  0  0
   -1.3990    0.7590    0.5240 C   0  0  2  0  0  0  0  0  0  0  0  0
   -1.4680    1.0050   -0.9410 C   0  0  0  0  0  0  0  0  0  0  0  0
   -2.7430    0.8920   -1.4720 O   0  0  0  0  0  0  0  0  0  0  0  0
    0.0320    0.8260    0.9410 C   0  0  0  0  0  0  0  0  0  0  0  0
    0.6780    1.8610    1.2960 O   0  0  0  0  0  0  0  0  0  0  0  0
  2  1  1  6
  2  3  1  0
  2  4  1  0
  4  5  2  0
  4  6  1  0
  6  7  1  0
  6 14  1  0
  7  8  2  0
  7  9  1  0
  9 10  1  6
  9 11  1  0
 11 12  1  6
 11 14  1  0
 12 13  1  0
 14 15  2  0
M  CHG  1  10   1
M  END
