
     RDKit          3D

 14 14  0  0  0  0  0  0  0  0999 V2000
   -3.5100    0.6880    2.2760 C   0  0  0  0  0  0  0  0  0  0  0  0
   -2.5800    1.1610    1.2560 N   0  0  0  0  0  0  0  0  0  0  0  0
   -2.3840    0.0930    0.3180 C   0  0  0  0  0  0  0  0  0  0  0  0
   -1.2380    0.3300   -0.6230 C   0  0  2  0  0  0  0  0  0  0  0  0
   -0.9910   -0.9440   -1.4050 C   0  0  0  0  0  0  0  0  0  0  0  0
    0.3800   -0.6460   -1.9750 C   0  0  0  0  0  0  0  0  0  0  0  0
    0.9350    0.3360   -0.9500 C   0  0  2  0  0  0  0  0  0  0  0  0
    2.2300   -0.2490   -0.4370 C   0  0  1  0  0  0  0  0  0  0  0  0
    3.1470   -0.3440   -1.5720 N   0  0  0  0  0  0  0  0  0  0  0  0
    2.8270    0.5440    0.6440 C   0  0  0  0  0  0  0  0  0  0  0  0
    2.1670    0.7240    1.6990 O   0  0  0  0  0  0  0  0  0  0  0  0
    4.0890    1.1120    0.5680 O   0  0  0  0  0  0  0  0  0  0  0  0
    4.6430    1.8330    1.5390 O   0  0  0  0  0  0  0  0  0  0  0  0
   -0.0220    0.4810    0.0230 O   0  0  0  0  0  0  0  0  0  0  0  0
  1  2  1  0
  2  3  1  0
  4  3  1  1
  4  5  1  0
  4 14  1  0
  5  6  1  0
  7  6  1  6
  7  8  1  0
  7 14  1  0
  8  9  1  6
  8 10  1  0
 10 11  2  0
 10 12  1  0
 12 13  1  0
M  CHG  1   2   1
M  END
