
     RDKit          3D

 15 15  0  0  0  0  0  0  0  0999 V2000
    4.6110   -0.1030    0.4860 N   0  0  0  0  0  0  0  0  0  0  0  0
    3.4200   -0.3530   -0.2230 C   0  0  0  0  0  0  0  0  0  0  0  0
    3.5240   -0.9580   -1.3350 O   0  0  0  0  0  0  0  0  0  0  0  0
    2.1580    0.0060    0.1920 O   0  0  0  0  0  0  0  0  0  0  0  0
    1.0270   -0.2730   -0.5620 C   0  0  0  0  0  0  0  0  0  0  0  0
    1.1880   -0.8740   -1.6540 O   0  0  0  0  0  0  0  0  0  0  0  0
   -0.3460    0.0980   -0.1470 C   0  0  2  0  0  0  0  0  0  0  0  0
   -0.5000    1.5850    0.0250 C   0  0  0  0  0  0  0  0  0  0  0  0
   -0.2340    2.3330   -1.1680 N   0  0  0  0  0  0  0  0  0  0  0  0
   -0.5470   -0.5190    1.2440 C   0  0  0  0  0  0  0  0  0  0  0  0
   -2.0350   -0.7430    1.5010 C   0  0  0  0  0  0  0  0  0  0  0  0
   -2.6070   -1.6000    0.5920 O   0  0  0  0  0  0  0  0  0  0  0  0
   -1.7870   -1.8610   -0.4980 C   0  0  0  0  0  0  0  0  0  0  0  0
   -1.3490   -0.5180   -1.0510 C   0  0  1  0  0  0  0  0  0  0  0  0
   -2.4960    0.2420   -1.2300 O   0  0  0  0  0  0  0  0  0  0  0  0
  1  2  1  0
  2  3  2  0
  2  4  1  0
  4  5  1  0
  5  6  2  0
  5  7  1  0
  7  8  1  1
  7 10  1  0
  7 14  1  0
  8  9  1  0
 10 11  1  0
 11 12  1  0
 12 13  1  0
 13 14  1  0
 14 15  1  1
M  CHG  1   9   1
M  END
