
     RDKit          3D

 15 15  0  0  0  0  0  0  0  0999 V2000
    4.0670   -0.8930   -0.4710 C   0  0  0  0  0  0  0  0  0  0  0  0
    3.2390   -0.9060    0.7790 C   0  0  0  0  0  0  0  0  0  0  0  0
    2.1390   -0.0370    0.7390 O   0  0  0  0  0  0  0  0  0  0  0  0
    1.1160   -0.0980   -0.1700 C   0  0  0  0  0  0  0  0  0  0  0  0
    1.1340   -0.9860   -1.0470 O   0  0  0  0  0  0  0  0  0  0  0  0
    0.0160    0.8690   -0.1130 C   0  0  2  0  0  0  0  0  0  0  0  0
    0.2190    1.7950    0.9850 N   0  0  0  0  0  0  0  0  0  0  0  0
   -1.3410    0.2280   -0.0020 C   0  0  2  0  0  0  0  0  0  0  0  0
   -2.3670    1.2970   -0.0890 C   0  0  0  0  0  0  0  0  0  0  0  0
   -3.3290    1.3020   -1.1310 N   0  0  0  0  0  0  0  0  0  0  0  0
   -2.3770    2.2240    0.7910 O   0  0  0  0  0  0  0  0  0  0  0  0
   -1.5510   -0.5970    1.2060 C   0  0  0  0  0  0  0  0  0  0  0  0
   -1.6830   -1.8890    0.7560 O   0  0  0  0  0  0  0  0  0  0  0  0
   -2.2450   -1.7390   -0.5060 C   0  0  0  0  0  0  0  0  0  0  0  0
   -1.5340   -0.6610   -1.0610 O   0  0  0  0  0  0  0  0  0  0  0  0
  1  2  1  0
  2  3  1  0
  3  4  1  0
  4  5  2  0
  4  6  1  0
  6  7  1  1
  6  8  1  0
  8  9  1  6
  8 12  1  0
  8 15  1  0
  9 10  1  0
  9 11  2  0
 12 13  1  0
 13 14  1  0
 14 15  1  0
M  CHG  1   7   1
M  END
