
     RDKit          3D

 15 15  0  0  0  0  0  0  0  0999 V2000
   -3.1180    0.7520    1.0130 N   0  0  0  0  0  0  0  0  0  0  0  0
   -2.8470    1.1130   -0.3520 C   0  0  0  0  0  0  0  0  0  0  0  0
   -2.7920   -0.1090   -1.2590 C   0  0  2  0  0  0  0  0  0  0  0  0
   -4.0280   -0.7620   -1.2010 O   0  0  0  0  0  0  0  0  0  0  0  0
   -1.7420   -1.0670   -0.7630 C   0  0  1  0  0  0  0  0  0  0  0  0
   -1.7630   -2.2010   -1.5990 O   0  0  0  0  0  0  0  0  0  0  0  0
   -0.4210   -0.5040   -0.7760 N   0  0  0  0  0  0  0  0  0  0  0  0
    0.3460   -0.4320    0.4090 C   0  0  0  0  0  0  0  0  0  0  0  0
   -0.1570   -0.8730    1.4740 O   0  0  0  0  0  0  0  0  0  0  0  0
    1.7130    0.1340    0.4750 C   0  0  1  0  0  0  0  0  0  0  0  0
    2.6350   -0.9410    0.9930 C   0  0  0  0  0  0  0  0  0  0  0  0
    3.9030   -0.7600    0.4810 O   0  0  0  0  0  0  0  0  0  0  0  0
    4.2790    0.5790    0.4170 C   0  0  0  0  0  0  0  0  0  0  0  0
    3.3330    1.3390   -0.5040 C   0  0  0  0  0  0  0  0  0  0  0  0
    2.1680    0.5870   -0.7410 O   0  0  0  0  0  0  0  0  0  0  0  0
  1  2  1  0
  2  3  1  0
  3  4  1  1
  3  5  1  0
  5  6  1  6
  5  7  1  0
  7  8  1  0
  8  9  2  0
 10  8  1  6
 10 11  1  0
 10 15  1  0
 11 12  1  0
 12 13  1  0
 13 14  1  0
 14 15  1  0
M  CHG  1   1   1
M  END
