
     RDKit          3D

 14 14  0  0  0  0  0  0  0  0999 V2000
    3.7900    1.9720   -0.2500 N   0  0  0  0  0  0  0  0  0  0  0  0
    3.5300    0.7700    0.2730 O   0  0  0  0  0  0  0  0  0  0  0  0
    2.6500    0.0690   -0.5220 C   0  0  1  0  0  0  0  0  0  0  0  0
    3.2560   -1.1350   -0.8780 O   0  0  0  0  0  0  0  0  0  0  0  0
    1.3540   -0.2470    0.2620 C   0  0  0  0  0  0  0  0  0  0  0  0
    0.4780   -1.0010   -0.6800 C   0  0  1  0  0  0  0  0  0  0  0  0
    1.2410   -2.1570   -1.0390 O   0  0  0  0  0  0  0  0  0  0  0  0
   -0.8060   -1.5380   -0.1050 C   0  0  2  0  0  0  0  0  0  0  0  0
   -1.4100   -2.3050   -1.1630 O   0  0  0  0  0  0  0  0  0  0  0  0
   -1.8320   -0.5540    0.2900 C   0  0  1  0  0  0  0  0  0  0  0  0
   -1.6740    0.2140    1.5290 C   0  0  0  0  0  0  0  0  0  0  0  0
   -1.9460    1.6730    1.1070 C   0  0  0  0  0  0  0  0  0  0  0  0
   -2.9390    1.3780   -0.0350 C   0  0  0  0  0  0  0  0  0  0  0  0
   -2.1820    0.3790   -0.7560 N   0  0  0  0  0  0  0  0  0  0  0  0
  1  2  1  0
  2  3  1  0
  3  4  1  1
  3  5  1  0
  5  6  1  0
  6  7  1  1
  6  8  1  0
  8  9  1  6
  8 10  1  0
 10 11  1  1
 10 14  1  0
 11 12  1  0
 12 13  1  0
 13 14  1  0
M  CHG  1  14   1
M  END
