
     RDKit          3D

 15 15  0  0  0  0  0  0  0  0999 V2000
    4.6310   -0.6070    0.3090 N   0  0  0  0  0  0  0  0  0  0  0  0
    3.7810    0.3500    0.3090 C   0  0  0  0  0  0  0  0  0  0  0  0
    3.9630    1.4020    1.1800 O   0  0  0  0  0  0  0  0  0  0  0  0
    2.6220    0.3440   -0.6000 C   0  0  0  0  0  0  0  0  0  0  0  0
    1.4050    0.3730    0.1040 O   0  0  0  0  0  0  0  0  0  0  0  0
    0.3870    0.3650   -0.8180 C   0  0  2  0  0  0  0  0  0  0  0  0
   -0.3960    1.6420   -0.6510 C   0  0  0  0  0  0  0  0  0  0  0  0
    0.1460    2.7630   -0.8260 O   0  0  0  0  0  0  0  0  0  0  0  0
   -1.7340    1.6200   -0.2990 O   0  0  0  0  0  0  0  0  0  0  0  0
   -2.3310    0.6150    0.4720 C   0  0  1  0  0  0  0  0  0  0  0  0
   -3.5580    0.0240   -0.2030 C   0  0  0  0  0  0  0  0  0  0  0  0
   -4.4550    1.0910   -0.3750 O   0  0  0  0  0  0  0  0  0  0  0  0
   -1.3450   -0.4930    0.6880 C   0  0  0  0  0  0  0  0  0  0  0  0
   -0.6140   -0.7460   -0.5950 C   0  0  2  0  0  0  0  0  0  0  0  0
   -0.0070   -2.0550   -0.6580 N   0  0  0  0  0  0  0  0  0  0  0  0
  1  2  2  0
  2  3  1  0
  2  4  1  0
  4  5  1  0
  6  5  1  1
  6  7  1  0
  6 14  1  0
  7  8  2  0
  7  9  1  0
  9 10  1  0
 10 11  1  6
 10 13  1  0
 11 12  1  0
 13 14  1  0
 14 15  1  1
M  CHG  1  15   1
M  END
