
     RDKit          3D

 15 15  0  0  0  0  0  0  0  0999 V2000
    4.8650    0.4410   -0.1480 N   0  0  0  0  0  0  0  0  0  0  0  0
    4.7740   -0.4310    0.9690 C   0  0  0  0  0  0  0  0  0  0  0  0
    5.7900   -0.7770    1.6050 O   0  0  0  0  0  0  0  0  0  0  0  0
    3.4330   -0.9200    1.3610 C   0  0  0  0  0  0  0  0  0  0  0  0
    2.4230   -0.4030    0.5040 O   0  0  0  0  0  0  0  0  0  0  0  0
    1.0830   -0.7110    0.6600 C   0  0  0  0  0  0  0  0  0  0  0  0
    0.7770   -1.4820    1.6060 O   0  0  0  0  0  0  0  0  0  0  0  0
    0.0330   -0.1570   -0.2530 C   0  0  2  0  0  0  0  0  0  0  0  0
    0.1360    1.3220   -0.3380 C   0  0  0  0  0  0  0  0  0  0  0  0
   -1.0400    2.0070   -0.3350 O   0  0  0  0  0  0  0  0  0  0  0  0
   -2.1380    1.3780   -0.8120 C   0  0  0  0  0  0  0  0  0  0  0  0
   -2.0840   -0.0960   -0.8970 C   0  0  2  0  0  0  0  0  0  0  0  0
   -3.4420   -0.7430   -0.8440 C   0  0  0  0  0  0  0  0  0  0  0  0
   -4.1000   -0.5300    0.4290 N   0  0  0  0  0  0  0  0  0  0  0  0
   -1.2270   -0.5920    0.0830 O   0  0  0  0  0  0  0  0  0  0  0  0
  1  2  1  0
  2  3  2  0
  2  4  1  0
  4  5  1  0
  5  6  1  0
  6  7  2  0
  8  6  1  1
  8  9  1  0
  8 15  1  0
  9 10  1  0
 10 11  1  0
 11 12  1  0
 12 13  1  1
 12 15  1  0
 13 14  1  0
M  CHG  1  14   1
M  END
