
     RDKit          3D

 15 15  0  0  0  0  0  0  0  0999 V2000
   -2.8980    1.8220   -1.2800 N   0  0  0  0  0  0  0  0  0  0  0  0
   -2.5530    0.4860   -0.8390 C   0  0  2  0  0  0  0  0  0  0  0  0
   -3.2010    0.1460    0.4860 C   0  0  0  0  0  0  0  0  0  0  0  0
   -2.2720   -0.8580    1.1250 C   0  0  0  0  0  0  0  0  0  0  0  0
   -0.9900   -0.8570    0.3270 C   0  0  2  0  0  0  0  0  0  0  0  0
   -0.9270   -1.9860   -0.4840 O   0  0  0  0  0  0  0  0  0  0  0  0
    0.1790   -0.8340    1.1810 N   0  0  0  0  0  0  0  0  0  0  0  0
    1.4610   -0.8330    0.5740 C   0  0  0  0  0  0  0  0  0  0  0  0
    1.5640   -0.8520   -0.6940 O   0  0  0  0  0  0  0  0  0  0  0  0
    2.6400   -0.8110    1.2980 O   0  0  0  0  0  0  0  0  0  0  0  0
    3.9130   -0.8100    0.7080 C   0  0  0  0  0  0  0  0  0  0  0  0
    4.1530    0.3830   -0.1920 C   0  0  0  0  0  0  0  0  0  0  0  0
    4.0450    1.5820    0.4960 O   0  0  0  0  0  0  0  0  0  0  0  0
   -1.1210    0.3420   -0.5190 C   0  0  0  0  0  0  0  0  0  0  0  0
   -0.2320    1.0640   -0.8780 O   0  0  0  0  0  0  0  0  0  0  0  0
  2  1  1  1
  2  3  1  0
  2 14  1  0
  3  4  1  0
  4  5  1  0
  5  6  1  6
  5  7  1  0
  5 14  1  0
  7  8  1  0
  8  9  2  0
  8 10  1  0
 10 11  1  0
 11 12  1  0
 12 13  1  0
 14 15  2  0
M  CHG  1   1   1
M  END
