
     RDKit          3D

 13 13  0  0  0  0  0  0  0  0999 V2000
    4.0330    0.2550    0.7010 O   0  0  0  0  0  0  0  0  0  0  0  0
    2.8010    0.0570    0.4190 C   0  0  0  0  0  0  0  0  0  0  0  0
    1.9110    0.8370    1.0920 O   0  0  0  0  0  0  0  0  0  0  0  0
    2.4800   -0.9300   -0.5350 C   0  0  0  0  0  0  0  0  0  0  0  0
    3.4850   -1.6870   -1.1310 F   0  0  0  0  0  0  0  0  0  0  0  0
    1.2300   -1.1250   -0.8530 C   0  0  0  0  0  0  0  0  0  0  0  0
    0.0750   -0.4840   -0.3930 C   0  0  0  0  0  0  0  0  0  0  0  0
   -0.2330    0.8390   -0.4880 C   0  0  0  0  0  0  0  0  0  0  0  0
   -1.3920    1.3650    0.0330 C   0  0  0  0  0  0  0  0  0  0  0  0
   -2.3180    0.5730    0.6860 C   0  0  0  0  0  0  0  0  0  0  0  0
   -3.4760    1.1290    1.2000 O   0  0  0  0  0  0  0  0  0  0  0  0
   -2.0380   -0.7720    0.7980 C   0  0  0  0  0  0  0  0  0  0  0  0
   -0.8790   -1.2860    0.2760 C   0  0  0  0  0  0  0  0  0  0  0  0
  1  2  2  0
  2  3  1  0
  2  4  1  0
  4  5  1  0
  4  6  2  3
  6  7  1  0
  7  8  2  0
  7 13  1  0
  8  9  1  0
  9 10  2  0
 10 11  1  0
 10 12  1  0
 12 13  2  0
M  END
