
     RDKit          3D

 27 29  0  0  0  0  0  0  0  0999 V2000
    4.1730    4.6180    1.5900 C   0  0  0  0  0  0  0  0  0  0  0  0
    2.9230    4.3170    1.1120 O   0  0  0  0  0  0  0  0  0  0  0  0
    2.4600    3.0480    1.4090 C   0  0  0  0  0  0  0  0  0  0  0  0
    3.3740    2.0270    0.8300 C   0  0  0  0  0  0  0  0  0  0  0  0
    3.0220    0.6610    1.0530 N   0  0  0  0  0  0  0  0  0  0  0  0
    1.7710    0.0920    0.5700 C   0  0  0  0  0  0  0  0  0  0  0  0
    1.0700    0.8940   -0.0370 O   0  0  0  0  0  0  0  0  0  0  0  0
    1.4620   -1.2940    0.8250 C   0  0  0  0  0  0  0  0  0  0  0  0
    0.3550   -1.9680    0.4490 C   0  0  0  0  0  0  0  0  0  0  0  0
   -0.5670   -1.2380   -0.2540 N   0  0  0  0  0  0  0  0  0  0  0  0
   -1.8100   -1.5550   -0.8090 C   0  0  0  0  0  0  0  0  0  0  0  0
   -2.3600   -2.6350   -0.7760 O   0  0  0  0  0  0  0  0  0  0  0  0
   -2.6090   -0.5120   -1.5360 C   0  0  0  0  0  0  0  0  0  0  0  0
   -3.4660   -0.8180   -2.5520 C   0  0  0  0  0  0  0  0  0  0  0  0
   -4.1950    0.1960   -3.1850 C   0  0  0  0  0  0  0  0  0  0  0  0
   -4.0480    1.5040   -2.7820 C   0  0  0  0  0  0  0  0  0  0  0  0
   -4.7730    2.5370   -3.4060 O   0  0  0  0  0  0  0  0  0  0  0  0
   -5.5280    3.2960   -2.6030 O   0  0  0  0  0  0  0  0  0  0  0  0
   -3.1920    1.8000   -1.7690 C   0  0  0  0  0  0  0  0  0  0  0  0
   -2.4590    0.7830   -1.1320 C   0  0  0  0  0  0  0  0  0  0  0  0
    0.2230   -3.3880    0.8070 C   0  0  0  0  0  0  0  0  0  0  0  0
   -0.7300   -4.3460    0.5960 C   0  0  0  0  0  0  0  0  0  0  0  0
   -0.3190   -5.5610    1.1770 C   0  0  0  0  0  0  0  0  0  0  0  0
    0.8720   -5.3460    1.7360 N   0  0  0  0  0  0  0  0  0  0  0  0
    1.2030   -4.0470    1.5180 C   0  0  0  0  0  0  0  0  0  0  0  0
    2.3230   -3.3090    1.8820 O   0  0  0  0  0  0  0  0  0  0  0  0
    2.4230   -2.0230    1.5480 O   0  0  0  0  0  0  0  0  0  0  0  0
  1  2  1  0
  2  3  1  0
  3  4  1  0
  4  5  1  0
  5  6  1  0
  6  7  2  0
  6  8  1  0
  8  9  2  0
  8 27  1  0
  9 10  1  0
  9 21  1  0
 10 11  1  0
 11 12  2  0
 11 13  1  0
 13 14  2  0
 13 20  1  0
 14 15  1  0
 15 16  2  0
 16 17  1  0
 16 19  1  0
 17 18  1  0
 19 20  2  0
 21 22  1  0
 21 25  2  0
 22 23  2  0
 23 24  1  0
 24 25  1  0
 25 26  1  0
 26 27  1  0
M  END
