
     RDKit          3D

 27 28  0  0  0  0  0  0  0  0999 V2000
   -2.5310   -3.8160    0.7290 C   0  0  0  0  0  0  0  0  0  0  0  0
   -2.6190   -2.4480    0.4290 O   0  0  0  0  0  0  0  0  0  0  0  0
   -1.6650   -1.5030    0.7480 C   0  0  0  0  0  0  0  0  0  0  0  0
   -0.6400   -1.9570    1.3620 O   0  0  0  0  0  0  0  0  0  0  0  0
   -1.7550   -0.0960    0.4410 C   0  0  0  0  0  0  0  0  0  0  0  0
   -0.7550    0.7230    0.8100 C   0  0  0  0  0  0  0  0  0  0  0  0
    0.3760    0.2000    1.4960 N   0  0  0  0  0  0  0  0  0  0  0  0
    1.4490   -0.3100    0.7220 C   0  0  0  0  0  0  0  0  0  0  0  0
    1.7160    0.1060   -0.4690 N   0  0  0  0  0  0  0  0  0  0  0  0
    2.7980   -0.4340   -1.2060 C   0  0  0  0  0  0  0  0  0  0  0  0
    2.5770   -1.0230   -2.3050 O   0  0  0  0  0  0  0  0  0  0  0  0
    4.1560   -0.3360   -0.7450 C   0  0  0  0  0  0  0  0  0  0  0  0
    5.2380   -0.8530   -1.4330 C   0  0  0  0  0  0  0  0  0  0  0  0
    6.5070   -0.7180   -0.9240 C   0  0  0  0  0  0  0  0  0  0  0  0
    6.7110   -0.1040    0.2140 O   0  0  0  0  0  0  0  0  0  0  0  0
    5.7340    0.4100    0.9190 C   0  0  0  0  0  0  0  0  0  0  0  0
    5.9270    1.0040    2.0180 O   0  0  0  0  0  0  0  0  0  0  0  0
    4.4380    0.2980    0.4450 C   0  0  0  0  0  0  0  0  0  0  0  0
   -0.7700    2.0650    0.5540 O   0  0  0  0  0  0  0  0  0  0  0  0
   -0.5030    2.7100   -0.6530 C   0  0  0  0  0  0  0  0  0  0  0  0
   -2.9080    0.4760   -0.2460 C   0  0  0  0  0  0  0  0  0  0  0  0
   -3.4420    1.6880    0.2080 C   0  0  0  0  0  0  0  0  0  0  0  0
   -4.5290    2.2530   -0.4370 C   0  0  0  0  0  0  0  0  0  0  0  0
   -5.0750    1.6050   -1.5250 C   0  0  0  0  0  0  0  0  0  0  0  0
   -4.5720    0.4420   -1.9710 N   0  0  0  0  0  0  0  0  0  0  0  0
   -3.5170   -0.0970   -1.3380 C   0  0  0  0  0  0  0  0  0  0  0  0
   -3.0850   -1.1840   -1.7950 O   0  0  0  0  0  0  0  0  0  0  0  0
  1  2  1  0
  2  3  1  0
  3  4  2  0
  3  5  1  0
  5  6  2  3
  5 21  1  0
  6  7  1  0
  6 19  1  0
  7  8  1  0
  8  9  2  3
  9 10  1  0
 10 11  2  0
 10 12  1  0
 12 13  1  0
 12 18  2  0
 13 14  2  0
 14 15  1  0
 15 16  1  0
 16 17  2  0
 16 18  1  0
 19 20  1  0
 21 22  2  0
 21 26  1  0
 22 23  1  0
 23 24  2  0
 24 25  1  0
 25 26  1  0
 26 27  2  0
M  END
