
     RDKit          3D

 27 28  0  0  0  0  0  0  0  0999 V2000
   -4.5020    3.4110    1.5260 O   0  0  0  0  0  0  0  0  0  0  0  0
   -3.5480    3.6330    2.2910 C   0  0  0  0  0  0  0  0  0  0  0  0
   -2.2930    3.0440    2.0500 N   0  0  0  0  0  0  0  0  0  0  0  0
   -2.0500    2.1480    0.8960 C   0  0  1  0  0  0  0  0  0  0  0  0
   -1.0350    2.8460   -0.0020 C   0  0  0  0  0  0  0  0  0  0  0  0
   -1.5700    4.0350   -0.4310 O   0  0  0  0  0  0  0  0  0  0  0  0
   -1.6180    0.8370    1.3640 C   0  0  0  0  0  0  0  0  0  0  0  0
   -1.2260    0.7890    2.5900 O   0  0  0  0  0  0  0  0  0  0  0  0
   -1.5690   -0.4000    0.6550 N   0  0  0  0  0  0  0  0  0  0  0  0
   -0.9920   -1.5120    1.4050 C   0  0  0  0  0  0  0  0  0  0  0  0
    0.4690   -1.6460    1.2210 C   0  0  0  0  0  0  0  0  0  0  0  0
    1.0310   -2.5700    1.8300 O   0  0  0  0  0  0  0  0  0  0  0  0
    1.1910   -0.7790    0.4010 N   0  0  0  0  0  0  0  0  0  0  0  0
    2.6070   -0.8140    0.1430 C   0  0  0  0  0  0  0  0  0  0  0  0
    3.4160   -1.8280    0.5480 C   0  0  0  0  0  0  0  0  0  0  0  0
    4.7700   -1.8390    0.3020 C   0  0  0  0  0  0  0  0  0  0  0  0
    5.3210   -0.7850   -0.3770 C   0  0  0  0  0  0  0  0  0  0  0  0
    4.5100    0.2610   -0.7990 C   0  0  0  0  0  0  0  0  0  0  0  0
    5.0570    1.3490   -1.4970 O   0  0  0  0  0  0  0  0  0  0  0  0
    3.1730    0.2540   -0.5470 C   0  0  0  0  0  0  0  0  0  0  0  0
   -2.0390   -0.5630   -0.6570 C   0  0  0  0  0  0  0  0  0  0  0  0
   -2.6060    0.4950   -1.1410 O   0  0  0  0  0  0  0  0  0  0  0  0
   -2.0040   -1.6860   -1.5550 C   0  0  0  0  0  0  0  0  0  0  0  0
   -1.4040   -2.9070   -1.3920 C   0  0  0  0  0  0  0  0  0  0  0  0
   -1.6910   -3.6330   -2.5490 C   0  0  0  0  0  0  0  0  0  0  0  0
   -2.3990   -2.8920   -3.3190 O   0  0  0  0  0  0  0  0  0  0  0  0
   -2.6380   -1.7210   -2.8200 C   0  0  0  0  0  0  0  0  0  0  0  0
  1  2  2  0
  2  3  1  0
  3  4  1  0
  4  5  1  6
  4  7  1  0
  5  6  1  0
  7  8  2  0
  7  9  1  0
  9 10  1  0
  9 21  1  0
 10 11  1  0
 11 12  2  0
 11 13  1  0
 13 14  1  0
 14 15  2  0
 14 20  1  0
 15 16  1  0
 16 17  2  0
 17 18  1  0
 18 19  1  0
 18 20  2  0
 21 22  2  0
 21 23  1  0
 23 24  1  0
 23 27  2  0
 24 25  2  0
 25 26  1  0
 26 27  1  0
M  END
