
     RDKit          3D

 27 28  0  0  0  0  0  0  0  0999 V2000
   -6.2010    1.1040   -0.2680 C   0  0  0  0  0  0  0  0  0  0  0  0
   -5.1100    0.6170    0.5920 N   0  0  0  0  0  0  0  0  0  0  0  0
   -3.7840    1.0970    0.4280 C   0  0  0  0  0  0  0  0  0  0  0  0
   -3.6250    1.9560   -0.4970 O   0  0  0  0  0  0  0  0  0  0  0  0
   -2.6430    0.6460    1.2650 C   0  0  0  0  0  0  0  0  0  0  0  0
   -1.3350    1.2290    0.7850 C   0  0  0  0  0  0  0  0  0  0  0  0
   -0.9580    0.8360   -0.6070 C   0  0  0  0  0  0  0  0  0  0  0  0
   -0.7870   -0.5990   -0.7610 N   0  0  0  0  0  0  0  0  0  0  0  0
    0.4410   -1.2830   -0.5780 C   0  0  0  0  0  0  0  0  0  0  0  0
    0.5230   -2.5170   -0.7240 O   0  0  0  0  0  0  0  0  0  0  0  0
    1.6340   -0.5650   -0.2170 N   0  0  0  0  0  0  0  0  0  0  0  0
    2.8770   -1.1710   -0.0540 C   0  0  0  0  0  0  0  0  0  0  0  0
    2.8290   -2.4470   -0.2240 O   0  0  0  0  0  0  0  0  0  0  0  0
    4.1640   -0.5910    0.2600 C   0  0  0  0  0  0  0  0  0  0  0  0
    5.1870   -1.4750    0.3790 C   0  0  0  0  0  0  0  0  0  0  0  0
    6.5490   -1.1350    0.6850 C   0  0  0  0  0  0  0  0  0  0  0  0
    6.8320    0.1360    0.8640 C   0  0  0  0  0  0  0  0  0  0  0  0
    5.8600    1.1000    0.7610 O   0  0  0  0  0  0  0  0  0  0  0  0
    4.4940    0.7850    0.4580 C   0  0  0  0  0  0  0  0  0  0  0  0
    3.6530    1.7620    0.3800 C   0  0  0  0  0  0  0  0  0  0  0  0
    4.1900    3.0560    0.6110 O   0  0  0  0  0  0  0  0  0  0  0  0
    4.6860    3.2910    1.8420 O   0  0  0  0  0  0  0  0  0  0  0  0
   -1.9590   -1.3130   -1.1180 C   0  0  0  0  0  0  0  0  0  0  0  0
   -2.3310   -2.5290   -0.6080 C   0  0  0  0  0  0  0  0  0  0  0  0
   -3.5300   -2.8720   -1.2130 C   0  0  0  0  0  0  0  0  0  0  0  0
   -3.8260   -1.8350   -2.0680 C   0  0  0  0  0  0  0  0  0  0  0  0
   -2.8720   -0.9350   -1.9800 O   0  0  0  0  0  0  0  0  0  0  0  0
  1  2  1  0
  2  3  1  0
  3  4  2  0
  3  5  1  0
  5  6  1  0
  6  7  1  0
  7  8  1  0
  8  9  1  0
  8 23  1  0
  9 10  2  0
  9 11  1  0
 11 12  1  0
 12 13  2  0
 12 14  1  0
 14 15  2  0
 14 19  1  0
 15 16  1  0
 16 17  2  0
 17 18  1  0
 18 19  1  0
 19 20  2  3
 20 21  1  0
 21 22  1  0
 23 24  2  0
 23 27  1  0
 24 25  1  0
 25 26  2  0
 26 27  1  0
M  END
