
     RDKit          3D

 27 27  0  0  0  0  0  0  0  0999 V2000
    2.7990    1.4370   -3.4780 C   0  0  0  0  0  0  0  0  0  0  0  0
    3.2450    0.7460   -2.4060 C   0  0  0  0  0  0  0  0  0  0  0  0
    4.6130    0.2690   -2.4450 C   0  0  0  0  0  0  0  0  0  0  0  0
    5.1980   -0.4170   -1.4860 C   0  0  0  0  0  0  0  0  0  0  0  0
    6.5310   -0.8280   -1.6320 O   0  0  0  0  0  0  0  0  0  0  0  0
    2.3210    0.5300   -1.2880 C   0  0  0  0  0  0  0  0  0  0  0  0
    2.5860   -0.0840   -0.2410 O   0  0  0  0  0  0  0  0  0  0  0  0
    1.0080    1.0430   -1.3590 O   0  0  0  0  0  0  0  0  0  0  0  0
    0.1140    0.8390   -0.2880 C   0  0  0  0  0  0  0  0  0  0  0  0
    0.0290    1.7870    0.8040 C   0  0  0  0  0  0  0  0  0  0  0  0
    0.8090    2.8410    0.7670 N   0  0  0  0  0  0  0  0  0  0  0  0
    0.7710    3.8190    1.8230 C   0  0  0  0  0  0  0  0  0  0  0  0
    1.9080    4.7270    1.6890 C   0  0  0  0  0  0  0  0  0  0  0  0
    2.7250    4.5790    0.7510 O   0  0  0  0  0  0  0  0  0  0  0  0
    2.1560    5.7880    2.5660 O   0  0  0  0  0  0  0  0  0  0  0  0
   -0.6340   -0.2320   -0.3150 C   0  0  0  0  0  0  0  0  0  0  0  0
   -1.5950   -0.5550    0.7310 C   0  0  0  0  0  0  0  0  0  0  0  0
   -2.3350   -1.6760    0.6410 C   0  0  0  0  0  0  0  0  0  0  0  0
   -2.1720   -2.5360   -0.4730 N   0  0  0  0  0  0  0  0  0  0  0  0
   -3.2120   -2.8560   -1.3990 C   0  0  0  0  0  0  0  0  0  0  0  0
   -3.0110   -3.7210   -2.5000 N   0  0  0  0  0  0  0  0  0  0  0  0
   -4.3320   -2.3250   -1.1880 O   0  0  0  0  0  0  0  0  0  0  0  0
   -3.2840   -1.9700    1.7030 C   0  0  0  0  0  0  0  0  0  0  0  0
   -4.1160   -3.0650    1.7900 C   0  0  0  0  0  0  0  0  0  0  0  0
   -4.8640   -2.9690    2.9570 C   0  0  0  0  0  0  0  0  0  0  0  0
   -4.4400   -1.7920    3.5370 C   0  0  0  0  0  0  0  0  0  0  0  0
   -3.5130   -1.2380    2.7700 O   0  0  0  0  0  0  0  0  0  0  0  0
  1  2  2  0
  2  3  1  0
  2  6  1  0
  3  4  2  3
  4  5  1  0
  6  7  2  0
  6  8  1  0
  8  9  1  0
  9 10  1  0
  9 16  2  3
 10 11  2  3
 11 12  1  0
 12 13  1  0
 13 14  2  0
 13 15  1  0
 16 17  1  0
 17 18  2  3
 18 19  1  0
 18 23  1  0
 19 20  1  0
 20 21  1  0
 20 22  2  0
 23 24  2  0
 23 27  1  0
 24 25  1  0
 25 26  2  0
 26 27  1  0
M  END
