
     RDKit          3D

 27 29  0  0  0  0  0  0  0  0999 V2000
   -6.9920    0.1360   -1.2540 N   0  0  0  0  0  0  0  0  0  0  0  0
   -5.7290   -0.3060   -0.7830 C   0  0  0  0  0  0  0  0  0  0  0  0
   -5.5710   -1.5890   -0.4080 N   0  0  0  0  0  0  0  0  0  0  0  0
   -4.3940   -2.0770    0.0510 C   0  0  0  0  0  0  0  0  0  0  0  0
   -3.3570   -1.2530    0.1310 N   0  0  0  0  0  0  0  0  0  0  0  0
   -3.3960    0.0520   -0.2160 C   0  0  0  0  0  0  0  0  0  0  0  0
   -4.6240    0.5150   -0.6820 C   0  0  0  0  0  0  0  0  0  0  0  0
   -4.4480    1.8000   -0.9640 N   0  0  0  0  0  0  0  0  0  0  0  0
   -3.1550    2.1390   -0.6850 C   0  0  0  0  0  0  0  0  0  0  0  0
   -2.5050    1.0570   -0.2230 N   0  0  0  0  0  0  0  0  0  0  0  0
   -1.1410    1.0090    0.1750 C   0  0  2  0  0  0  0  0  0  0  0  0
   -0.2790    0.5090   -0.7980 O   0  0  0  0  0  0  0  0  0  0  0  0
    0.9260    0.3630   -0.1620 C   0  0  2  0  0  0  0  0  0  0  0  0
    1.7630   -0.7630   -0.7610 C   0  0  0  0  0  0  0  0  0  0  0  0
    2.9850   -0.8700   -0.0740 O   0  0  0  0  0  0  0  0  0  0  0  0
    3.9360   -2.1020   -0.7080 P   0  0  2  0  0  0  0  0  0  0  0  0
    3.2250   -2.9010   -1.7580 O   0  0  0  0  0  0  0  0  0  0  0  0
    4.4760   -3.1580    0.5060 O   0  0  0  0  0  0  0  0  0  0  0  0
    5.3370   -1.3730   -1.3600 O   0  0  0  0  0  0  0  0  0  0  0  0
    5.7550   -0.1070   -0.2940 P   0  0  2  0  0  0  0  0  0  0  0  0
    4.6320    0.9000   -0.3230 O   0  0  0  0  0  0  0  0  0  0  0  0
    7.1580    0.6750   -0.8190 O   0  0  0  0  0  0  0  0  0  0  0  0
    5.9270   -0.6680    1.2710 O   0  0  0  0  0  0  0  0  0  0  0  0
    0.6660    0.0820    1.2920 C   0  0  1  0  0  0  0  0  0  0  0  0
    1.0310    1.1600    2.0980 O   0  0  0  0  0  0  0  0  0  0  0  0
   -0.8700    0.0440    1.3150 C   0  0  1  0  0  0  0  0  0  0  0  0
   -1.3270    0.5550    2.5210 O   0  0  0  0  0  0  0  0  0  0  0  0
  1  2  1  0
  2  3  2  0
  2  7  1  0
  3  4  1  0
  4  5  2  0
  5  6  1  0
  6  7  2  0
  6 10  1  0
  7  8  1  0
  8  9  2  0
  9 10  1  0
 11 10  1  6
 11 12  1  0
 11 26  1  0
 12 13  1  0
 13 14  1  6
 13 24  1  0
 14 15  1  0
 15 16  1  0
 16 17  2  0
 16 18  1  1
 16 19  1  0
 19 20  1  0
 20 21  2  0
 20 22  1  6
 20 23  1  0
 24 25  1  1
 24 26  1  0
 26 27  1  1
M  END
