
     RDKit          3D

 27 28  0  0  0  0  0  0  0  0999 V2000
   -4.2210   -3.4180    0.5460 C   0  0  0  0  0  0  0  0  0  0  0  0
   -3.7980   -2.1400   -0.1850 C   0  0  1  0  0  0  0  0  0  0  0  0
   -4.9430   -1.5480   -0.9370 C   0  0  0  0  0  0  0  0  0  0  0  0
   -6.0620   -1.1340   -0.1660 N   0  0  0  0  0  0  0  0  0  0  0  0
   -5.8800   -0.0130    0.6930 C   0  0  0  0  0  0  0  0  0  0  0  0
   -5.6740    1.2570   -0.1040 C   0  0  0  0  0  0  0  0  0  0  0  0
   -6.8080    1.4540   -0.8940 O   0  0  0  0  0  0  0  0  0  0  0  0
   -6.6770    2.5590   -1.6130 O   0  0  0  0  0  0  0  0  0  0  0  0
   -3.2980   -1.2300    0.7080 O   0  0  0  0  0  0  0  0  0  0  0  0
   -1.9810   -0.8860    0.5550 C   0  0  0  0  0  0  0  0  0  0  0  0
   -1.6280   -0.2620   -0.7610 C   0  0  0  0  0  0  0  0  0  0  0  0
   -0.1820    0.0550   -0.7740 C   0  0  0  0  0  0  0  0  0  0  0  0
    0.3480    0.5590   -1.7910 O   0  0  0  0  0  0  0  0  0  0  0  0
    0.5790   -0.2090    0.3460 O   0  0  0  0  0  0  0  0  0  0  0  0
    1.9290    0.0970    0.3100 C   0  0  0  0  0  0  0  0  0  0  0  0
    2.8210   -0.8020   -0.1040 C   0  0  0  0  0  0  0  0  0  0  0  0
    4.1760   -0.4960   -0.1400 O   0  0  0  0  0  0  0  0  0  0  0  0
    4.6630    0.7390    0.2450 C   0  0  0  0  0  0  0  0  0  0  0  0
    6.0930    1.0180    0.1910 C   0  0  0  0  0  0  0  0  0  0  0  0
    6.9830    0.0650   -0.2410 C   0  0  0  0  0  0  0  0  0  0  0  0
    8.3460    0.3020   -0.3000 C   0  0  0  0  0  0  0  0  0  0  0  0
    8.8210    1.5550    0.0940 C   0  0  0  0  0  0  0  0  0  0  0  0
   10.1740    1.8050    0.0410 O   0  0  0  0  0  0  0  0  0  0  0  0
    7.9510    2.5380    0.5350 C   0  0  0  0  0  0  0  0  0  0  0  0
    6.5910    2.2580    0.5780 C   0  0  0  0  0  0  0  0  0  0  0  0
    3.8310    1.6290    0.6490 N   0  0  0  0  0  0  0  0  0  0  0  0
    2.4630    1.3560    0.6990 N   0  0  0  0  0  0  0  0  0  0  0  0
  2  1  1  1
  2  3  1  0
  2  9  1  0
  3  4  1  0
  4  5  1  0
  5  6  1  0
  6  7  1  0
  7  8  1  0
  9 10  1  0
 10 11  1  0
 11 12  1  0
 12 13  2  0
 12 14  1  0
 14 15  1  0
 15 16  2  0
 15 27  1  0
 16 17  1  0
 17 18  1  0
 18 19  1  0
 18 26  2  0
 19 20  2  0
 19 25  1  0
 20 21  1  0
 21 22  2  0
 22 23  1  0
 22 24  1  0
 24 25  2  0
 26 27  1  0
M  END
