
     RDKit          3D

 27 28  0  0  0  0  0  0  0  0999 V2000
    8.2370    2.0550    1.5760 C   0  0  0  0  0  0  0  0  0  0  0  0
    7.2140    1.2600    0.9650 O   0  0  0  0  0  0  0  0  0  0  0  0
    7.5020    0.1210    0.2420 C   0  0  0  0  0  0  0  0  0  0  0  0
    8.7010   -0.2230    0.1200 O   0  0  0  0  0  0  0  0  0  0  0  0
    6.4480   -0.6850   -0.3780 C   0  0  0  0  0  0  0  0  0  0  0  0
    5.1480   -0.1310   -0.1280 O   0  0  0  0  0  0  0  0  0  0  0  0
    4.0040   -0.7370   -0.6250 C   0  0  0  0  0  0  0  0  0  0  0  0
    4.1740   -1.7830   -1.2970 O   0  0  0  0  0  0  0  0  0  0  0  0
    2.7040   -0.2600   -0.4250 N   0  0  0  0  0  0  0  0  0  0  0  0
    1.5060   -0.8320   -0.9050 C   0  0  0  0  0  0  0  0  0  0  0  0
    1.4030   -1.9410   -1.6410 N   0  0  0  0  0  0  0  0  0  0  0  0
    0.0810   -2.1790   -1.9120 C   0  0  0  0  0  0  0  0  0  0  0  0
   -0.6510   -1.2110   -1.3410 N   0  0  0  0  0  0  0  0  0  0  0  0
    0.2160   -0.3880   -0.7250 C   0  0  0  0  0  0  0  0  0  0  0  0
   -0.0970    0.8520    0.0620 C   0  0  0  0  0  0  0  0  0  0  0  0
   -1.5030    1.0060    0.0410 O   0  0  0  0  0  0  0  0  0  0  0  0
   -2.3410    0.0400    0.5550 C   0  0  0  0  0  0  0  0  0  0  0  0
   -1.8390   -0.9920    1.0480 O   0  0  0  0  0  0  0  0  0  0  0  0
   -3.7770    0.2130    0.5260 C   0  0  0  0  0  0  0  0  0  0  0  0
   -4.1990    1.3360   -0.0150 C   0  0  0  0  0  0  0  0  0  0  0  0
   -5.5110    1.9500   -0.2690 C   0  0  0  0  0  0  0  0  0  0  0  0
   -6.7230    1.4570   -0.4650 C   0  0  0  0  0  0  0  0  0  0  0  0
   -7.3620    0.1090   -0.5320 C   0  0  0  0  0  0  0  0  0  0  0  0
   -6.9910   -0.7690    0.5830 C   0  0  0  0  0  0  0  0  0  0  0  0
   -7.9890   -1.1630    1.2380 O   0  0  0  0  0  0  0  0  0  0  0  0
   -5.7690   -1.3250    1.1570 C   0  0  0  0  0  0  0  0  0  0  0  0
   -4.5140   -0.9090    1.1140 C   0  0  0  0  0  0  0  0  0  0  0  0
  1  2  1  0
  2  3  1  0
  3  4  2  0
  3  5  1  0
  5  6  1  0
  6  7  1  0
  7  8  2  0
  7  9  1  0
  9 10  1  0
 10 11  1  0
 10 14  2  0
 11 12  1  0
 12 13  2  0
 13 14  1  0
 14 15  1  0
 15 16  1  0
 16 17  1  0
 17 18  2  0
 17 19  1  0
 19 20  2  0
 19 27  1  0
 20 21  1  0
 21 22  2  0
 22 23  1  0
 23 24  1  0
 24 25  2  0
 24 26  1  0
 26 27  2  0
M  END
