
     RDKit          3D

  9  9  0  0  0  0  0  0  0  0999 V2000
    2.8190    0.4310    0.4040 O   0  0  0  0  0  0  0  0  0  0  0  0
    2.1820   -0.7130    0.0890 N   0  0  0  0  0  0  0  0  0  0  0  0
    1.3570   -0.5470   -0.9970 O   0  0  0  0  0  0  0  0  0  0  0  0
   -0.2630   -0.8350   -0.7950 P   0  0  0  0  0  0  0  0  0  0  0  0
   -1.2120   -1.9840    0.1370 O   0  0  0  0  0  0  0  0  0  0  0  0
   -2.2410   -1.5190    0.5510 O   0  0  0  0  0  0  0  0  0  0  0  0
   -2.7810   -0.5240    0.5070 O   0  0  0  0  0  0  0  0  0  0  0  0
   -1.8900    0.7290   -0.4290 P   0  0  0  0  0  0  0  0  0  0  0  0
   -1.7520    2.3360   -0.3490 O   0  0  0  0  0  0  0  0  0  0  0  0
  1  2  1  0
  2  3  1  0
  3  4  1  0
  4  5  1  0
  4  8  1  0
  5  6  1  0
  6  7  1  0
  7  8  1  0
  8  9  1  0
M  END
