
     RDKit          3D

  9  8  0  0  0  0  0  0  0  0999 V2000
   -2.7580    1.6200    0.1510 N   0  0  0  0  0  0  0  0  0  0  0  0
   -1.8430    0.9770    0.9270 O   0  0  0  0  0  0  0  0  0  0  0  0
   -0.7130    0.9880    0.2750 O   0  0  0  0  0  0  0  0  0  0  0  0
   -0.5550   -0.3970   -0.7820 P   0  0  0  0  0  0  0  0  0  0  0  0
   -1.5360   -1.7100   -0.2780 O   0  0  0  0  0  0  0  0  0  0  0  0
    1.5950   -0.9600   -0.7480 P   0  0  0  0  0  0  0  0  0  0  0  0
    2.0120   -1.3750    0.8840 O   0  0  0  0  0  0  0  0  0  0  0  0
    2.4800    0.4580   -1.1750 O   0  0  0  0  0  0  0  0  0  0  0  0
    3.5630    0.6230   -0.4680 O   0  0  0  0  0  0  0  0  0  0  0  0
  1  2  1  0
  2  3  1  0
  3  4  1  0
  4  5  1  0
  4  6  1  0
  6  7  1  0
  6  8  1  0
  8  9  1  0
M  END
