
     RDKit          3D

  9  8  0  0  0  0  0  0  0  0999 V2000
   -3.1400    0.4850    0.2380 N   0  0  0  0  0  0  0  0  0  0  0  0
   -1.8450   -0.6640   -0.1040 P   0  0  0  0  0  0  0  0  0  0  0  0
   -2.3240   -2.0320   -0.9930 O   0  0  0  0  0  0  0  0  0  0  0  0
    0.1060    0.0300   -0.2730 P   0  0  0  0  0  0  0  0  0  0  0  0
    0.5400    1.1000   -1.5010 O   0  0  0  0  0  0  0  0  0  0  0  0
    1.3490   -0.6410    0.6420 O   0  0  0  0  0  0  0  0  0  0  0  0
    2.2910    0.2720    0.8560 O   0  0  0  0  0  0  0  0  0  0  0  0
    2.9860    0.5100   -0.2450 O   0  0  0  0  0  0  0  0  0  0  0  0
    3.9660   -0.3470   -0.2670 O   0  0  0  0  0  0  0  0  0  0  0  0
  1  2  1  0
  2  3  1  0
  2  4  1  0
  4  5  1  0
  4  6  1  0
  6  7  1  0
  7  8  1  0
  8  9  1  0
M  END
