
     RDKit          3D

 24 24  0  0  0  0  0  0  0  0999 V2000
   -1.4890   -0.4810   -2.5670 O   0  0  0  0  0  0  0  0  0  0  0  0
   -0.5910   -0.8490   -1.5370 C   0  0  1  0  0  0  0  0  0  0  0  0
    0.7440   -0.1790   -1.7610 C   0  0  1  0  0  0  0  0  0  0  0  0
    0.5240    1.0270   -2.3700 O   0  0  0  0  0  0  0  0  0  0  0  0
    1.4900   -0.0810   -0.4520 C   0  0  1  0  0  0  0  0  0  0  0  0
    2.7880    0.2670   -0.5580 O   0  0  0  0  0  0  0  0  0  0  0  0
    3.9880   -0.6360   -0.2670 P   0  0  0  0  0  0  0  0  0  0  0  0
    5.0810    0.5210   -0.5430 O   0  0  0  0  0  0  0  0  0  0  0  0
    3.3910   -0.8430    1.2690 O   0  0  0  0  0  0  0  0  0  0  0  0
    4.9900   -1.8000   -0.0330 O   0  0  0  0  0  0  0  0  0  0  0  0
    0.7840    0.8140    0.5330 C   0  0  2  0  0  0  0  0  0  0  0  0
    1.1600    0.4200    1.8150 O   0  0  0  0  0  0  0  0  0  0  0  0
   -0.7170    0.7570    0.3850 C   0  0  1  0  0  0  0  0  0  0  0  0
   -1.1350    1.8060   -0.3810 O   0  0  0  0  0  0  0  0  0  0  0  0
   -2.1380    2.8940    0.2740 P   0  0  0  0  0  0  0  0  0  0  0  0
   -1.3520    2.9700    1.5900 O   0  0  0  0  0  0  0  0  0  0  0  0
   -2.9940    3.0930   -0.9880 O   0  0  0  0  0  0  0  0  0  0  0  0
   -1.7760    4.5500    0.1260 O   0  0  0  0  0  0  0  0  0  0  0  0
   -1.1940   -0.5450   -0.2080 C   0  0  2  0  0  0  0  0  0  0  0  0
   -1.0350   -1.6160    0.6190 O   0  0  0  0  0  0  0  0  0  0  0  0
   -2.3050   -2.3950    1.2070 P   0  0  0  0  0  0  0  0  0  0  0  0
   -3.1490   -2.2430   -0.0540 O   0  0  0  0  0  0  0  0  0  0  0  0
   -2.4710   -4.0810    0.9520 O   0  0  0  0  0  0  0  0  0  0  0  0
   -1.5390   -2.8010    2.4840 O   0  0  0  0  0  0  0  0  0  0  0  0
  2  1  1  6
  2  3  1  0
  2 19  1  0
  3  4  1  1
  3  5  1  0
  5  6  1  6
  5 11  1  0
  6  7  1  0
  7  8  1  0
  7  9  1  0
  7 10  1  0
 11 12  1  1
 11 13  1  0
 13 14  1  6
 13 19  1  0
 14 15  1  0
 15 16  1  0
 15 17  1  0
 15 18  1  0
 19 20  1  1
 20 21  1  0
 21 22  1  0
 21 23  1  0
 21 24  1  0
M  END
