
     RDKit          3D

  9  9  0  0  0  0  0  0  0  0999 V2000
    2.0950   -1.7900   -0.4600 O   0  0  0  0  0  0  0  0  0  0  0  0
    0.6610   -0.8850   -0.2350 P   0  0  0  0  0  0  0  0  0  0  0  0
   -0.8880   -1.5980   -0.1700 O   0  0  0  0  0  0  0  0  0  0  0  0
   -2.0070   -0.9900    0.2440 N   0  0  0  0  0  0  0  0  0  0  0  0
   -2.2480    0.2280    0.2320 O   0  0  0  0  0  0  0  0  0  0  0  0
   -1.9510    1.3920   -0.0250 O   0  0  0  0  0  0  0  0  0  0  0  0
   -0.7570    1.9480    0.0620 O   0  0  0  0  0  0  0  0  0  0  0  0
    0.6270    1.2160   -0.5980 P   0  0  0  0  0  0  0  0  0  0  0  0
    2.1940    1.9390   -0.5120 O   0  0  0  0  0  0  0  0  0  0  0  0
  1  2  1  0
  2  3  1  0
  2  8  1  0
  3  4  1  0
  4  5  1  0
  5  6  1  0
  6  7  1  0
  7  8  1  0
  8  9  1  0
M  END
