
     RDKit          3D

 44 48  0  0  0  0  0  0  0  0999 V2000
   -4.2700   -3.1310   -2.5300 C   0  0  0  0  0  0  0  0  0  0  0  0
   -5.0290   -3.5720   -1.3510 C   0  0  0  0  0  0  0  0  0  0  0  0
   -4.7700   -3.0380   -0.1400 C   0  0  0  0  0  0  0  0  0  0  0  0
   -5.3790   -3.3420    1.0110 N   0  0  0  0  0  0  0  0  0  0  0  0
   -4.8530   -2.6080    2.0010 C   0  0  0  0  0  0  0  0  0  0  0  0
   -5.2140   -2.6310    3.3450 O   0  0  0  0  0  0  0  0  0  0  0  0
   -6.2310   -3.5000    3.7570 C   0  0  0  0  0  0  0  0  0  0  0  0
   -5.8990   -4.9450    3.4770 C   0  0  0  0  0  0  0  0  0  0  0  0
   -3.8570   -1.8060    1.3970 C   0  0  0  0  0  0  0  0  0  0  0  0
   -3.1280   -0.9630    2.0750 C   0  0  0  0  0  0  0  0  0  0  0  0
   -2.0950   -0.0680    1.6960 C   0  0  0  0  0  0  0  0  0  0  0  0
   -1.5010    0.3740    0.6740 C   0  0  0  0  0  0  0  0  0  0  0  0
   -1.7330    0.0710   -0.6960 C   0  0  0  0  0  0  0  0  0  0  0  0
   -2.8750   -0.0030   -1.4830 C   0  0  0  0  0  0  0  0  0  0  0  0
   -2.4020   -0.2960   -2.7340 C   0  0  0  0  0  0  0  0  0  0  0  0
   -1.0930   -0.3910   -2.7170 O   0  0  0  0  0  0  0  0  0  0  0  0
   -0.6530   -0.1730   -1.4940 C   0  0  0  0  0  0  0  0  0  0  0  0
    0.7040   -0.1420   -0.8780 C   0  0  1  0  0  0  0  0  0  0  0  0
    1.6730    0.3040   -1.9810 C   0  0  0  0  0  0  0  0  0  0  0  0
    0.8770    0.5580    0.3210 N   0  0  0  0  0  0  0  0  0  0  0  0
    1.5880   -0.1240    1.3850 C   0  0  0  0  0  0  0  0  0  0  0  0
    3.0250   -0.3910    1.1900 C   0  0  2  0  0  0  0  0  0  0  0  0
    3.7790    0.7490    0.9210 O   0  0  0  0  0  0  0  0  0  0  0  0
    3.4330   -1.7070   -0.0210 P   0  0  0  0  0  0  0  0  0  0  0  0
    2.5530   -3.1870    0.3270 O   0  0  0  0  0  0  0  0  0  0  0  0
    3.2650   -4.2060   -0.3080 C   0  0  0  0  0  0  0  0  0  0  0  0
    2.5290   -5.5080   -0.0330 C   0  0  0  0  0  0  0  0  0  0  0  0
    5.1310   -2.0570    0.0120 O   0  0  0  0  0  0  0  0  0  0  0  0
    5.6150   -1.8000    1.2770 C   0  0  0  0  0  0  0  0  0  0  0  0
    7.1070   -2.1040    1.3310 C   0  0  0  0  0  0  0  0  0  0  0  0
   -0.2550    1.2700    0.8860 C   0  0  1  0  0  0  0  0  0  0  0  0
   -0.4780    2.6200    0.3800 C   0  0  0  0  0  0  0  0  0  0  0  0
   -1.5160    3.2620    0.7930 O   0  0  0  0  0  0  0  0  0  0  0  0
    0.3250    3.3370   -0.5350 N   0  0  0  0  0  0  0  0  0  0  0  0
   -0.0130    4.6940   -0.9670 C   0  0  2  0  0  0  0  0  0  0  0  0
   -0.2950    4.6620   -2.4510 C   0  0  0  0  0  0  0  0  0  0  0  0
   -0.0050    6.0980   -2.8580 C   0  0  0  0  0  0  0  0  0  0  0  0
    1.1750    6.4250   -1.9700 C   0  0  0  0  0  0  0  0  0  0  0  0
    2.1470    7.3860   -2.1760 C   0  0  0  0  0  0  0  0  0  0  0  0
    3.1610    7.5280   -1.2370 C   0  0  0  0  0  0  0  0  0  0  0  0
    3.1430    6.6940   -0.1400 C   0  0  0  0  0  0  0  0  0  0  0  0
    2.1780    5.7430    0.0600 C   0  0  0  0  0  0  0  0  0  0  0  0
    1.1600    5.5970   -0.8770 C   0  0  0  0  0  0  0  0  0  0  0  0
   -3.8930   -2.1370    0.1500 O   0  0  0  0  0  0  0  0  0  0  0  0
  1  2  1  0
  2  3  2  3
  3  4  1  0
  3 44  1  0
  4  5  2  0
  5  6  1  0
  5  9  1  0
  6  7  1  0
  7  8  1  0
  9 10  2  3
  9 44  1  0
 10 11  1  0
 11 12  2  3
 12 13  1  0
 12 31  1  0
 13 14  1  0
 13 17  2  0
 14 15  2  0
 15 16  1  0
 16 17  1  0
 17 18  1  0
 18 19  1  6
 18 20  1  0
 20 21  1  0
 20 31  1  0
 21 22  1  0
 22 23  1  6
 22 24  1  0
 24 25  1  0
 24 28  1  0
 25 26  1  0
 26 27  1  0
 28 29  1  0
 29 30  1  0
 31 32  1  6
 32 33  2  0
 32 34  1  0
 35 34  1  6
 35 36  1  0
 35 43  1  0
 36 37  1  0
 37 38  1  0
 38 39  2  0
 38 43  1  0
 39 40  1  0
 40 41  2  0
 41 42  1  0
 42 43  2  0
M  END
