
     RDKit          3D

 27 29  0  0  0  0  0  0  0  0999 V2000
   -5.5490    2.1990   -0.9140 N   0  0  0  0  0  0  0  0  0  0  0  0
   -4.3850    2.0290   -0.1490 C   0  0  0  0  0  0  0  0  0  0  0  0
   -4.2260    2.7380    0.9840 N   0  0  0  0  0  0  0  0  0  0  0  0
   -3.1120    2.5980    1.7480 C   0  0  0  0  0  0  0  0  0  0  0  0
   -2.1630    1.7400    1.3590 N   0  0  0  0  0  0  0  0  0  0  0  0
   -2.2440    0.9920    0.2390 C   0  0  0  0  0  0  0  0  0  0  0  0
   -3.3910    1.1480   -0.5300 C   0  0  0  0  0  0  0  0  0  0  0  0
   -3.2430    0.3170   -1.5690 N   0  0  0  0  0  0  0  0  0  0  0  0
   -2.0510   -0.3270   -1.4470 C   0  0  0  0  0  0  0  0  0  0  0  0
   -1.4320    0.0840   -0.3360 N   0  0  0  0  0  0  0  0  0  0  0  0
   -0.1750   -0.3220    0.1790 C   0  0  2  0  0  0  0  0  0  0  0  0
    0.8820    0.5140   -0.1710 O   0  0  0  0  0  0  0  0  0  0  0  0
    1.9430   -0.1460    0.4720 C   0  0  2  0  0  0  0  0  0  0  0  0
    3.2760    0.4100    0.0420 C   0  0  0  0  0  0  0  0  0  0  0  0
    3.2800    1.7670    0.3880 O   0  0  0  0  0  0  0  0  0  0  0  0
    4.6970    2.5450   -0.0210 P   0  0  1  0  0  0  0  0  0  0  0  0
    5.0590    3.5000    1.1180 O   0  0  0  0  0  0  0  0  0  0  0  0
    5.9490    1.4150   -0.1130 O   0  0  0  0  0  0  0  0  0  0  0  0
    4.5660    3.4680   -1.4180 O   0  0  0  0  0  0  0  0  0  0  0  0
    1.7750   -1.6000    0.0830 C   0  0  1  0  0  0  0  0  0  0  0  0
    1.9910   -2.4160    1.1960 O   0  0  0  0  0  0  0  0  0  0  0  0
    0.3000   -1.6640   -0.3370 C   0  0  1  0  0  0  0  0  0  0  0  0
   -0.3790   -2.6320    0.3890 O   0  0  0  0  0  0  0  0  0  0  0  0
   -1.2070   -3.7270   -0.5650 P   0  0  1  0  0  0  0  0  0  0  0  0
   -0.9860   -5.1120    0.0240 O   0  0  0  0  0  0  0  0  0  0  0  0
   -2.8610   -3.3890   -0.4480 O   0  0  0  0  0  0  0  0  0  0  0  0
   -0.7620   -3.6950   -2.1680 O   0  0  0  0  0  0  0  0  0  0  0  0
  1  2  1  0
  2  3  2  0
  2  7  1  0
  3  4  1  0
  4  5  2  0
  5  6  1  0
  6  7  2  0
  6 10  1  0
  7  8  1  0
  8  9  2  0
  9 10  1  0
 11 10  1  6
 11 12  1  0
 11 22  1  0
 12 13  1  0
 13 14  1  6
 13 20  1  0
 14 15  1  0
 15 16  1  0
 16 17  2  0
 16 18  1  6
 16 19  1  0
 20 21  1  1
 20 22  1  0
 22 23  1  1
 23 24  1  0
 24 25  2  0
 24 26  1  6
 24 27  1  0
M  END
