
     RDKit          3D

 44 47  0  0  0  0  0  0  0  0999 V2000
   10.8450    0.7160   -1.3460 C   0  0  0  0  0  0  0  0  0  0  0  0
   11.1790   -0.5740   -0.6570 C   0  0  0  0  0  0  0  0  0  0  0  0
   10.3170   -1.6320   -1.0340 O   0  0  0  0  0  0  0  0  0  0  0  0
    8.9410   -1.6250   -0.7460 C   0  0  0  0  0  0  0  0  0  0  0  0
    8.1000   -2.6730   -1.1040 C   0  0  0  0  0  0  0  0  0  0  0  0
    6.7550   -2.6510   -0.8080 C   0  0  0  0  0  0  0  0  0  0  0  0
    6.2120   -1.5610   -0.1280 C   0  0  0  0  0  0  0  0  0  0  0  0
    4.8140   -1.5790    0.3410 C   0  0  0  0  0  0  0  0  0  0  0  0
    4.5740   -2.3590    1.3470 O   0  0  0  0  0  0  0  0  0  0  0  0
    3.7110   -0.8750   -0.1480 N   0  0  0  0  0  0  0  0  0  0  0  0
    2.4230   -0.9970    0.4870 C   0  0  0  0  0  0  0  0  0  0  0  0
    2.3610   -1.7780    1.5070 O   0  0  0  0  0  0  0  0  0  0  0  0
    1.2220   -0.3130    0.0450 C   0  0  1  0  0  0  0  0  0  0  0  0
   -0.0220   -1.1180    0.2370 C   0  0  0  0  0  0  0  0  0  0  0  0
   -1.2440   -0.5120    0.3480 N   0  0  0  0  0  0  0  0  0  0  0  0
   -2.4430   -1.1950    0.5860 C   0  0  0  0  0  0  0  0  0  0  0  0
   -2.7380   -2.1080   -0.5990 C   0  0  1  0  0  0  0  0  0  0  0  0
   -1.8860   -3.1400   -0.7630 O   0  0  0  0  0  0  0  0  0  0  0  0
   -4.4640   -2.3920   -0.9120 P   0  0  0  0  0  0  0  0  0  0  0  0
   -5.2010   -0.8730   -1.6150 O   0  0  0  0  0  0  0  0  0  0  0  0
   -6.1300   -0.4300   -0.6600 C   0  0  0  0  0  0  0  0  0  0  0  0
   -6.7710    0.8100   -1.2160 C   0  0  0  0  0  0  0  0  0  0  0  0
   -5.5780   -2.9160    0.2490 O   0  0  0  0  0  0  0  0  0  0  0  0
   -6.0200   -4.2100   -0.0970 C   0  0  0  0  0  0  0  0  0  0  0  0
   -7.4930   -4.1660   -0.4230 C   0  0  0  0  0  0  0  0  0  0  0  0
   -1.3610    0.8980    0.1480 C   0  0  1  0  0  0  0  0  0  0  0  0
   -2.4450    1.3840    1.0450 C   0  0  0  0  0  0  0  0  0  0  0  0
   -2.3990    0.8850    2.3270 C   0  0  0  0  0  0  0  0  0  0  0  0
   -3.2150    1.2860    3.3250 C   0  0  0  0  0  0  0  0  0  0  0  0
   -4.1410    2.2750    2.9890 C   0  0  0  0  0  0  0  0  0  0  0  0
   -4.2120    2.7920    1.7290 C   0  0  0  0  0  0  0  0  0  0  0  0
   -3.3510    2.3450    0.7080 C   0  0  0  0  0  0  0  0  0  0  0  0
   -3.4720    2.7930   -0.6250 N   0  0  0  0  0  0  0  0  0  0  0  0
   -4.2540    3.8650   -1.0650 C   0  0  0  0  0  0  0  0  0  0  0  0
   -4.2990    4.1990   -2.5350 C   0  0  0  0  0  0  0  0  0  0  0  0
   -4.9560    4.6100   -0.3160 O   0  0  0  0  0  0  0  0  0  0  0  0
   -0.1680    1.6240    0.6300 C   0  0  0  0  0  0  0  0  0  0  0  0
   -0.3570    2.9100    1.1520 C   0  0  0  0  0  0  0  0  0  0  0  0
    0.7320    3.6270    1.6770 C   0  0  0  0  0  0  0  0  0  0  0  0
    1.9700    3.0110    1.6540 C   0  0  0  0  0  0  0  0  0  0  0  0
    2.1840    1.7610    1.1530 C   0  0  0  0  0  0  0  0  0  0  0  0
    1.0730    1.0500    0.6250 C   0  0  0  0  0  0  0  0  0  0  0  0
    7.0660   -0.5170    0.2260 C   0  0  0  0  0  0  0  0  0  0  0  0
    8.4350   -0.5380   -0.0820 C   0  0  0  0  0  0  0  0  0  0  0  0
  1  2  1  0
  2  3  1  0
  3  4  1  0
  4  5  2  0
  4 44  1  0
  5  6  1  0
  6  7  2  0
  7  8  1  0
  7 43  1  0
  8  9  2  0
  8 10  1  0
 10 11  1  0
 11 12  2  0
 13 11  1  1
 13 14  1  0
 13 42  1  0
 14 15  1  0
 15 16  1  0
 15 26  1  0
 16 17  1  0
 17 18  1  1
 17 19  1  0
 19 20  1  0
 19 23  1  0
 20 21  1  0
 21 22  1  0
 23 24  1  0
 24 25  1  0
 26 27  1  1
 26 37  1  0
 27 28  2  0
 27 32  1  0
 28 29  1  0
 29 30  2  0
 30 31  1  0
 31 32  2  0
 32 33  1  0
 33 34  1  0
 34 35  1  0
 34 36  2  0
 37 38  2  0
 37 42  1  0
 38 39  1  0
 39 40  2  0
 40 41  1  0
 41 42  2  0
 43 44  2  0
M  END
