
     RDKit          3D

 44 48  0  0  0  0  0  0  0  0999 V2000
   -1.4830    2.6390   -0.8570 C   0  0  0  0  0  0  0  0  0  0  0  0
   -0.7940    2.1190    0.4070 C   0  0  2  0  0  0  0  0  0  0  0  0
    0.0380    1.0340    0.0840 O   0  0  0  0  0  0  0  0  0  0  0  0
    1.4270    1.1820    0.2610 C   0  0  0  0  0  0  0  0  0  0  0  0
    1.8210    2.2700    0.7000 O   0  0  0  0  0  0  0  0  0  0  0  0
    2.3000    0.1130   -0.0580 N   0  0  0  0  0  0  0  0  0  0  0  0
    3.7020    0.1930    0.0980 C   0  0  0  0  0  0  0  0  0  0  0  0
    4.3900    1.1230    0.8170 C   0  0  0  0  0  0  0  0  0  0  0  0
    5.7880    1.1040    0.8740 C   0  0  0  0  0  0  0  0  0  0  0  0
    6.5460    0.1600    0.2190 C   0  0  0  0  0  0  0  0  0  0  0  0
    7.9390    0.2180    0.2920 N   0  0  0  0  0  0  0  0  0  0  0  0
    8.8640   -0.8380    0.1160 C   0  0  0  0  0  0  0  0  0  0  0  0
    8.5070   -2.1440    0.3090 C   0  0  0  0  0  0  0  0  0  0  0  0
    9.4750   -3.1300    0.0870 C   0  0  0  0  0  0  0  0  0  0  0  0
   10.7550   -2.8290   -0.3120 C   0  0  0  0  0  0  0  0  0  0  0  0
   11.1340   -1.4960   -0.5120 C   0  0  0  0  0  0  0  0  0  0  0  0
   12.4570   -1.2380   -0.9480 N   0  0  0  0  0  0  0  0  0  0  0  0
   13.1340   -0.0260   -0.6920 C   0  0  0  0  0  0  0  0  0  0  0  0
   14.2440    0.4370   -1.3710 C   0  0  0  0  0  0  0  0  0  0  0  0
   14.6190    1.6330   -0.7920 C   0  0  0  0  0  0  0  0  0  0  0  0
   13.7750    1.8740    0.1840 O   0  0  0  0  0  0  0  0  0  0  0  0
   12.8760    0.9060    0.2750 C   0  0  0  0  0  0  0  0  0  0  0  0
   10.1690   -0.5480   -0.2900 C   0  0  0  0  0  0  0  0  0  0  0  0
    5.8530   -0.7790   -0.5070 C   0  0  0  0  0  0  0  0  0  0  0  0
    4.4720   -0.7700   -0.5700 C   0  0  0  0  0  0  0  0  0  0  0  0
   -1.8060    1.7100    1.3970 C   0  0  0  0  0  0  0  0  0  0  0  0
   -2.6140    2.5560    1.8340 O   0  0  0  0  0  0  0  0  0  0  0  0
   -1.8650    0.4130    1.8400 O   0  0  0  0  0  0  0  0  0  0  0  0
   -2.7930   -0.0460    2.7810 C   0  0  0  0  0  0  0  0  0  0  0  0
   -4.1890    0.1480    2.2940 C   0  0  0  0  0  0  0  0  0  0  0  0
   -4.3730   -0.5780    1.0860 O   0  0  0  0  0  0  0  0  0  0  0  0
   -5.6120   -0.5400    0.4350 C   0  0  0  0  0  0  0  0  0  0  0  0
   -5.7660   -1.2460   -0.7130 C   0  0  0  0  0  0  0  0  0  0  0  0
   -6.9980   -1.2040   -1.3570 C   0  0  0  0  0  0  0  0  0  0  0  0
   -8.0400   -0.4630   -0.8440 C   0  0  0  0  0  0  0  0  0  0  0  0
   -9.3600   -0.4090   -1.5170 C   0  0  1  0  0  0  0  0  0  0  0  0
  -10.3520   -1.2960   -0.8060 C   0  0  0  0  0  0  0  0  0  0  0  0
  -11.0870   -0.6050    0.3150 C   0  0  2  0  0  0  0  0  0  0  0  0
  -12.3670   -1.4060    0.5480 C   0  0  0  0  0  0  0  0  0  0  0  0
  -11.5030    0.7920   -0.0420 C   0  0  0  0  0  0  0  0  0  0  0  0
  -11.2040    0.9860   -1.5230 C   0  0  0  0  0  0  0  0  0  0  0  0
   -9.8190    0.8990   -1.6390 O   0  0  0  0  0  0  0  0  0  0  0  0
   -7.8600    0.2510    0.3320 C   0  0  0  0  0  0  0  0  0  0  0  0
   -6.6350    0.2040    0.9650 C   0  0  0  0  0  0  0  0  0  0  0  0
  2  1  1  6
  2  3  1  0
  2 26  1  0
  3  4  1  0
  4  5  2  0
  4  6  1  0
  6  7  1  0
  7  8  2  0
  7 25  1  0
  8  9  1  0
  9 10  2  0
 10 11  1  0
 10 24  1  0
 11 12  1  0
 12 13  2  0
 12 23  1  0
 13 14  1  0
 14 15  2  0
 15 16  1  0
 16 17  1  0
 16 23  2  0
 17 18  1  0
 18 19  1  0
 18 22  2  0
 19 20  2  0
 20 21  1  0
 21 22  1  0
 24 25  2  0
 26 27  2  0
 26 28  1  0
 28 29  1  0
 29 30  1  0
 30 31  1  0
 31 32  1  0
 32 33  2  0
 32 44  1  0
 33 34  1  0
 34 35  2  0
 36 35  1  1
 35 43  1  0
 36 37  1  0
 36 42  1  0
 37 38  1  0
 38 39  1  6
 38 40  1  0
 40 41  1  0
 41 42  1  0
 43 44  2  0
M  END
