
     RDKit          3D

 43 46  0  0  0  0  0  0  0  0999 V2000
    4.7180   -3.5000    0.0350 C   0  0  0  0  0  0  0  0  0  0  0  0
    3.4790   -3.3890   -0.8450 C   0  0  0  0  0  0  0  0  0  0  0  0
    2.8340   -4.6230   -0.8750 O   0  0  0  0  0  0  0  0  0  0  0  0
    1.4150   -4.5690   -1.8640 P   0  0  0  0  0  0  0  0  0  0  0  0
    0.3990   -3.0950   -1.3850 C   0  0  0  0  0  0  0  0  0  0  0  0
   -1.0590   -3.4530   -1.2250 C   0  0  0  0  0  0  0  0  0  0  0  0
   -1.9460   -2.3150   -0.8210 C   0  0  2  0  0  0  0  0  0  0  0  0
   -3.3530   -2.8870   -0.7070 C   0  0  0  0  0  0  0  0  0  0  0  0
   -1.9600   -1.2650   -1.8530 C   0  0  0  0  0  0  0  0  0  0  0  0
   -2.4560    0.0710   -1.4590 C   0  0  0  0  0  0  0  0  0  0  0  0
   -1.3720    1.0140   -0.9980 C   0  0  1  0  0  0  0  0  0  0  0  0
   -1.6560    2.3790   -1.2470 N   0  0  0  0  0  0  0  0  0  0  0  0
   -0.6540    3.0700   -2.0630 C   0  0  0  0  0  0  0  0  0  0  0  0
   -0.0760    4.2820   -1.3780 C   0  0  0  0  0  0  0  0  0  0  0  0
   -1.0050    5.4490   -1.5770 C   0  0  0  0  0  0  0  0  0  0  0  0
   -0.3750    6.5450   -2.1150 C   0  0  0  0  0  0  0  0  0  0  0  0
   -1.0990    7.6800   -2.3520 C   0  0  0  0  0  0  0  0  0  0  0  0
   -2.4470    7.7080   -2.0470 C   0  0  0  0  0  0  0  0  0  0  0  0
   -3.0720    6.6050   -1.5080 C   0  0  0  0  0  0  0  0  0  0  0  0
   -2.3490    5.4550   -1.2660 C   0  0  0  0  0  0  0  0  0  0  0  0
   -3.1530    4.4010   -0.7080 N   0  0  0  0  0  0  0  0  0  0  0  0
   -2.8280    3.0140   -0.7500 C   0  0  0  0  0  0  0  0  0  0  0  0
   -3.6710    2.2350   -0.2960 O   0  0  0  0  0  0  0  0  0  0  0  0
   -1.1680    0.6490    0.4520 C   0  0  0  0  0  0  0  0  0  0  0  0
   -1.1780    1.5990    1.3570 C   0  0  0  0  0  0  0  0  0  0  0  0
   -1.0290    1.5330    2.7790 C   0  0  0  0  0  0  0  0  0  0  0  0
   -1.0460    2.6370    3.5410 C   0  0  0  0  0  0  0  0  0  0  0  0
   -0.9060    2.7290    5.0110 C   0  0  0  0  0  0  0  0  0  0  0  0
   -1.2460    4.0290    5.3170 O   0  0  0  0  0  0  0  0  0  0  0  0
   -1.7750    4.6340    4.2050 C   0  0  0  0  0  0  0  0  0  0  0  0
   -1.2020    3.9460    3.1080 O   0  0  0  0  0  0  0  0  0  0  0  0
   -0.8920   -0.7050    0.9240 C   0  0  0  0  0  0  0  0  0  0  0  0
    0.1140   -0.8510    1.7900 C   0  0  0  0  0  0  0  0  0  0  0  0
    0.5120   -2.1110    2.3540 C   0  0  0  0  0  0  0  0  0  0  0  0
    1.4480   -2.3890    3.1930 C   0  0  0  0  0  0  0  0  0  0  0  0
    2.3760   -1.4460    3.8040 C   0  0  0  0  0  0  0  0  0  0  0  0
    2.2730   -0.1290    3.4800 O   0  0  0  0  0  0  0  0  0  0  0  0
    1.6170   -3.7380    3.5820 O   0  0  0  0  0  0  0  0  0  0  0  0
    2.8800   -4.3500    3.6450 C   0  0  0  0  0  0  0  0  0  0  0  0
   -1.5630   -1.8950    0.4990 N   0  0  0  0  0  0  0  0  0  0  0  0
    1.9410   -4.3570   -3.5020 O   0  0  0  0  0  0  0  0  0  0  0  0
    3.0170   -5.1880   -3.8090 C   0  0  0  0  0  0  0  0  0  0  0  0
    3.4270   -4.9520   -5.2410 C   0  0  0  0  0  0  0  0  0  0  0  0
  1  2  1  0
  2  3  1  0
  3  4  1  0
  4  5  1  0
  4 41  1  0
  5  6  1  0
  6  7  1  0
  7  8  1  1
  7  9  1  0
  7 40  1  0
  9 10  1  0
 10 11  1  0
 11 12  1  1
 11 24  1  0
 12 13  1  0
 12 22  1  0
 13 14  1  0
 14 15  1  0
 15 16  2  0
 15 20  1  0
 16 17  1  0
 17 18  2  0
 18 19  1  0
 19 20  2  0
 20 21  1  0
 21 22  1  0
 22 23  2  0
 24 25  2  3
 24 32  1  0
 25 26  1  0
 26 27  2  3
 27 28  1  0
 27 31  1  0
 28 29  1  0
 29 30  1  0
 30 31  1  0
 32 33  2  3
 32 40  1  0
 33 34  1  0
 34 35  2  3
 35 36  1  0
 35 38  1  0
 36 37  1  0
 38 39  1  0
 41 42  1  0
 42 43  1  0
M  END
