
     RDKit          3D

 44 48  0  0  0  0  0  0  0  0999 V2000
    0.9280    0.0130    5.3010 C   0  0  0  0  0  0  0  0  0  0  0  0
    0.4280    0.5810    3.9980 C   0  0  0  0  0  0  0  0  0  0  0  0
    0.6630   -0.3740    3.0040 O   0  0  0  0  0  0  0  0  0  0  0  0
    0.0870    0.2750    1.5010 P   0  0  0  0  0  0  0  0  0  0  0  0
    1.1240   -0.2560    0.1880 O   0  0  0  0  0  0  0  0  0  0  0  0
    2.1760   -1.0450    0.6820 C   0  0  1  0  0  0  0  0  0  0  0  0
    1.9420   -2.4340    0.1160 C   0  0  0  0  0  0  0  0  0  0  0  0
    3.4360   -0.5000    0.2760 N   0  0  0  0  0  0  0  0  0  0  0  0
    3.9030    0.5570    0.8430 C   0  0  0  0  0  0  0  0  0  0  0  0
    3.1920    1.2000    1.8700 O   0  0  0  0  0  0  0  0  0  0  0  0
    3.4520    2.6150    1.9340 C   0  0  0  0  0  0  0  0  0  0  0  0
    4.9410    2.8310    2.0690 C   0  0  0  0  0  0  0  0  0  0  0  0
    5.7050    2.1820    0.9750 C   0  0  0  0  0  0  0  0  0  0  0  0
    6.9160    2.6610    0.5360 C   0  0  0  0  0  0  0  0  0  0  0  0
    7.6080    2.0050   -0.5010 C   0  0  0  0  0  0  0  0  0  0  0  0
    7.1100    0.8850   -1.1020 C   0  0  0  0  0  0  0  0  0  0  0  0
    7.8470    0.2250   -2.1720 C   0  0  0  0  0  0  0  0  0  0  0  0
    9.0040    0.6320   -2.6310 C   0  0  0  0  0  0  0  0  0  0  0  0
    9.8110    0.0200   -3.7080 C   0  0  2  0  0  0  0  0  0  0  0  0
   11.1740   -0.2690   -3.0940 C   0  0  0  0  0  0  0  0  0  0  0  0
   10.0620    0.9780   -4.7280 O   0  0  0  0  0  0  0  0  0  0  0  0
    9.2000   -1.0920   -4.2300 O   0  0  0  0  0  0  0  0  0  0  0  0
    7.9890   -1.5520   -3.7800 C   0  0  0  0  0  0  0  0  0  0  0  0
    7.2920   -0.9890   -2.8170 C   0  0  0  0  0  0  0  0  0  0  0  0
    5.8950    0.4310   -0.6400 C   0  0  0  0  0  0  0  0  0  0  0  0
    5.1900    1.0590    0.3830 C   0  0  0  0  0  0  0  0  0  0  0  0
   -1.5550   -0.4710    1.1560 C   0  0  0  0  0  0  0  0  0  0  0  0
   -2.1950   -1.2290    2.1130 C   0  0  0  0  0  0  0  0  0  0  0  0
   -3.4170   -1.8170    1.9250 C   0  0  0  0  0  0  0  0  0  0  0  0
   -4.0610   -1.6540    0.7190 C   0  0  0  0  0  0  0  0  0  0  0  0
   -5.3090   -2.2720    0.5150 N   0  0  0  0  0  0  0  0  0  0  0  0
   -6.1830   -1.9580   -0.5850 C   0  0  0  0  0  0  0  0  0  0  0  0
   -6.7480   -0.5760   -0.4740 C   0  0  1  0  0  0  0  0  0  0  0  0
   -7.6500   -0.3700   -1.6800 C   0  0  0  0  0  0  0  0  0  0  0  0
   -8.8110    0.3930   -1.2760 N   0  0  0  0  0  0  0  0  0  0  0  0
   -8.9120    1.7200   -1.7650 C   0  0  0  0  0  0  0  0  0  0  0  0
  -10.0580    2.5760   -1.4070 C   0  0  0  0  0  0  0  0  0  0  0  0
   -8.0050    2.2020   -2.5290 O   0  0  0  0  0  0  0  0  0  0  0  0
   -9.9070   -0.0120   -0.4270 C   0  0  0  0  0  0  0  0  0  0  0  0
   -9.6440   -1.3680    0.1960 C   0  0  0  0  0  0  0  0  0  0  0  0
   -8.3670   -1.3740    1.0010 C   0  0  0  0  0  0  0  0  0  0  0  0
   -7.4990   -0.3490    0.6660 O   0  0  0  0  0  0  0  0  0  0  0  0
   -3.4230   -0.8950   -0.2470 C   0  0  0  0  0  0  0  0  0  0  0  0
   -2.1920   -0.3050   -0.0510 C   0  0  0  0  0  0  0  0  0  0  0  0
  1  2  1  0
  2  3  1  0
  3  4  1  0
  4  5  1  0
  4 27  1  0
  5  6  1  0
  6  7  1  6
  6  8  1  0
  8  9  2  3
  9 10  1  0
  9 26  1  0
 10 11  1  0
 11 12  1  0
 12 13  1  0
 13 14  2  0
 13 26  1  0
 14 15  1  0
 15 16  2  0
 16 17  1  0
 16 25  1  0
 17 18  2  0
 17 24  1  0
 18 19  1  0
 19 20  1  1
 19 21  1  0
 19 22  1  0
 22 23  1  0
 23 24  2  0
 25 26  2  0
 27 28  2  0
 27 44  1  0
 28 29  1  0
 29 30  2  0
 30 31  1  0
 30 43  1  0
 31 32  1  0
 33 32  1  1
 33 34  1  0
 33 42  1  0
 34 35  1  0
 35 36  1  0
 35 39  1  0
 36 37  1  0
 36 38  2  0
 39 40  1  0
 40 41  1  0
 41 42  1  0
 43 44  2  0
M  END
