
     RDKit          3D

 44 48  0  0  0  0  0  0  0  0999 V2000
   -3.1800    6.4700   -0.5430 C   0  0  0  0  0  0  0  0  0  0  0  0
   -3.2480    5.0540   -0.5460 O   0  0  0  0  0  0  0  0  0  0  0  0
   -3.9840    4.4030    0.4290 C   0  0  0  0  0  0  0  0  0  0  0  0
   -4.5690    5.1250    1.2890 O   0  0  0  0  0  0  0  0  0  0  0  0
   -4.0960    2.9620    0.4870 C   0  0  0  0  0  0  0  0  0  0  0  0
   -3.4940    2.2070   -0.4060 C   0  0  0  0  0  0  0  0  0  0  0  0
   -3.5610    0.7480   -0.4100 C   0  0  1  0  0  0  0  0  0  0  0  0
   -4.3380    0.1830   -1.5430 C   0  0  0  0  0  0  0  0  0  0  0  0
   -5.7480    0.6530   -1.5270 C   0  0  0  0  0  0  0  0  0  0  0  0
   -6.2500    1.3680   -0.6320 O   0  0  0  0  0  0  0  0  0  0  0  0
   -6.6300    0.3030   -2.5680 O   0  0  0  0  0  0  0  0  0  0  0  0
   -7.9680    0.7450   -2.5650 C   0  0  0  0  0  0  0  0  0  0  0  0
   -2.2130    0.0860   -0.2670 C   0  0  0  0  0  0  0  0  0  0  0  0
   -1.0960    0.7510   -0.4050 C   0  0  0  0  0  0  0  0  0  0  0  0
    0.2130    0.1150   -0.2530 C   0  0  0  0  0  0  0  0  0  0  0  0
    0.2740   -1.1690    0.0580 C   0  0  0  0  0  0  0  0  0  0  0  0
    1.5260   -1.7580    0.1800 O   0  0  0  0  0  0  0  0  0  0  0  0
    2.5740   -1.5720   -0.7060 C   0  0  0  0  0  0  0  0  0  0  0  0
    3.5670   -0.6310   -0.6610 C   0  0  0  0  0  0  0  0  0  0  0  0
    3.7250    0.3700    0.3500 N   0  0  0  0  0  0  0  0  0  0  0  0
    4.7320    1.3420    0.4000 C   0  0  0  0  0  0  0  0  0  0  0  0
    5.5880    1.3420   -0.5440 O   0  0  0  0  0  0  0  0  0  0  0  0
    4.8760    2.3400    1.4310 C   0  0  0  0  0  0  0  0  0  0  0  0
    5.8490    3.3000    1.3310 C   0  0  0  0  0  0  0  0  0  0  0  0
    6.0070    4.2710    2.3090 C   0  0  0  0  0  0  0  0  0  0  0  0
    5.1800    4.2870    3.4120 C   0  0  0  0  0  0  0  0  0  0  0  0
    5.3560    5.5550    4.7290 P   0  0  0  0  0  0  0  0  0  0  0  0
    5.4610    7.0620    4.4380 O   0  0  0  0  0  0  0  0  0  0  0  0
    4.2030    3.3280    3.5200 C   0  0  0  0  0  0  0  0  0  0  0  0
    4.0590    2.3590    2.5240 C   0  0  0  0  0  0  0  0  0  0  0  0
    4.3520   -0.8400   -1.7290 N   0  0  0  0  0  0  0  0  0  0  0  0
    3.8950   -1.8880   -2.4620 C   0  0  0  0  0  0  0  0  0  0  0  0
    4.3820   -2.4590   -3.6350 C   0  0  0  0  0  0  0  0  0  0  0  0
    3.7420   -3.5340   -4.2060 C   0  0  0  0  0  0  0  0  0  0  0  0
    2.6150   -4.0100   -3.5730 C   0  0  0  0  0  0  0  0  0  0  0  0
    2.1260   -3.4390   -2.4000 C   0  0  0  0  0  0  0  0  0  0  0  0
    2.7770   -2.3490   -1.8210 C   0  0  0  0  0  0  0  0  0  0  0  0
   -0.9160   -1.8870    0.2690 N   0  0  0  0  0  0  0  0  0  0  0  0
   -0.9130   -3.2380    0.8920 C   0  0  0  0  0  0  0  0  0  0  0  0
    0.3970   -3.7660    1.2740 C   0  0  0  0  0  0  0  0  0  0  0  0
    0.3480   -5.1260    1.9390 C   0  0  1  0  0  0  0  0  0  0  0  0
   -0.4300   -5.2580    3.2370 C   0  0  0  0  0  0  0  0  0  0  0  0
   -0.8460   -5.9630    1.9800 C   0  0  0  0  0  0  0  0  0  0  0  0
   -2.2200   -1.3540   -0.0700 C   0  0  0  0  0  0  0  0  0  0  0  0
  1  2  1  0
  2  3  1  0
  3  4  2  0
  3  5  1  0
  5  6  2  3
  6  7  1  0
  7  8  1  6
  7 13  1  0
  8  9  1  0
  9 10  2  0
  9 11  1  0
 11 12  1  0
 13 14  2  0
 13 44  1  0
 14 15  1  0
 15 16  2  0
 16 17  1  0
 16 38  1  0
 17 18  1  0
 18 19  2  0
 18 37  1  0
 19 20  1  0
 19 31  1  0
 20 21  1  0
 21 22  2  0
 21 23  1  0
 23 24  2  0
 23 30  1  0
 24 25  1  0
 25 26  2  0
 26 27  1  0
 26 29  1  0
 27 28  2  0
 29 30  2  0
 31 32  1  0
 32 33  2  0
 32 37  1  0
 33 34  1  0
 34 35  2  0
 35 36  1  0
 36 37  2  0
 38 39  1  0
 38 44  1  0
 39 40  1  0
 41 40  1  6
 41 42  1  0
 41 43  1  0
 42 43  1  0
M  END
