
     RDKit          3D

 44 47  0  0  0  0  0  0  0  0999 V2000
   -2.5580    7.4920   -2.7990 C   0  0  0  0  0  0  0  0  0  0  0  0
   -2.9210    6.7130   -1.6870 O   0  0  0  0  0  0  0  0  0  0  0  0
   -2.4780    5.4350   -1.4800 C   0  0  0  0  0  0  0  0  0  0  0  0
   -1.6320    4.8490   -2.3830 C   0  0  0  0  0  0  0  0  0  0  0  0
   -1.1870    3.5640   -2.1740 C   0  0  0  0  0  0  0  0  0  0  0  0
   -1.5710    2.8390   -1.0700 C   0  0  0  0  0  0  0  0  0  0  0  0
   -1.1350    1.5550   -0.8480 O   0  0  0  0  0  0  0  0  0  0  0  0
   -0.2630    0.9690   -1.7880 C   0  0  0  0  0  0  0  0  0  0  0  0
    0.1020   -0.4550   -1.3790 C   0  0  0  0  0  0  0  0  0  0  0  0
    1.3560   -0.6860   -1.1720 C   0  0  0  0  0  0  0  0  0  0  0  0
    2.0710   -1.8780   -0.7900 C   0  0  0  0  0  0  0  0  0  0  0  0
    1.8510   -3.0490   -1.4900 C   0  0  0  0  0  0  0  0  0  0  0  0
    2.5370   -4.1750   -1.1030 C   0  0  0  0  0  0  0  0  0  0  0  0
    2.3190   -5.4470   -1.8400 C   0  0  0  0  0  0  0  0  0  0  0  0
    3.4160   -4.1420   -0.0500 C   0  0  0  0  0  0  0  0  0  0  0  0
    3.6340   -2.9490    0.6570 C   0  0  0  0  0  0  0  0  0  0  0  0
    2.9760   -1.8290    0.3000 C   0  0  0  0  0  0  0  0  0  0  0  0
    3.1090   -0.5730    0.9310 N   0  0  0  0  0  0  0  0  0  0  0  0
    3.9380   -0.2730    2.0280 C   0  0  0  0  0  0  0  0  0  0  0  0
    4.6440   -1.1650    2.5370 O   0  0  0  0  0  0  0  0  0  0  0  0
    3.9860    1.1140    2.5950 C   0  0  0  0  0  0  0  0  0  0  0  0
    3.3130    2.1650    2.1790 C   0  0  0  0  0  0  0  0  0  0  0  0
    3.6450    3.3430    3.0080 C   0  0  2  0  0  0  0  0  0  0  0  0
    4.5620    4.5350    1.9140 P   0  0  0  0  0  0  0  0  0  0  0  0
    6.0810    3.8690    1.4100 O   0  0  0  0  0  0  0  0  0  0  0  0
    3.6140    5.1150    0.6090 O   0  0  0  0  0  0  0  0  0  0  0  0
    4.6170    2.8150    3.9780 C   0  0  0  0  0  0  0  0  0  0  0  0
    4.7970    1.5390    3.7220 C   0  0  0  0  0  0  0  0  0  0  0  0
   -1.0520   -1.3560   -1.1680 C   0  0  0  0  0  0  0  0  0  0  0  0
   -2.2300   -0.9570   -1.5100 C   0  0  0  0  0  0  0  0  0  0  0  0
   -3.5600   -1.4440   -1.5070 C   0  0  0  0  0  0  0  0  0  0  0  0
   -4.4720   -0.5110   -1.9420 O   0  0  0  0  0  0  0  0  0  0  0  0
   -4.1870   -2.6280   -1.1790 N   0  0  0  0  0  0  0  0  0  0  0  0
   -5.6970   -2.6610   -1.2310 C   0  0  0  0  0  0  0  0  0  0  0  0
   -3.5830   -3.8700   -0.8560 C   0  0  0  0  0  0  0  0  0  0  0  0
   -0.8570   -2.5880   -0.4790 N   0  0  0  0  0  0  0  0  0  0  0  0
   -0.6770   -2.6680    0.9600 C   0  0  2  0  0  0  0  0  0  0  0  0
   -0.5330   -4.1170    1.3670 C   0  0  0  0  0  0  0  0  0  0  0  0
   -1.3590   -4.2160    2.5950 C   0  0  0  0  0  0  0  0  0  0  0  0
   -2.2540   -3.1900    2.6230 O   0  0  0  0  0  0  0  0  0  0  0  0
   -1.8270   -2.1940    1.7660 C   0  0  0  0  0  0  0  0  0  0  0  0
   -2.4210    3.4310   -0.1620 C   0  0  0  0  0  0  0  0  0  0  0  0
   -2.8330    2.6470    1.0270 C   0  0  0  0  0  0  0  0  0  0  0  0
   -2.8770    4.7390   -0.3700 C   0  0  0  0  0  0  0  0  0  0  0  0
  1  2  1  0
  2  3  1  0
  3  4  2  0
  3 44  1  0
  4  5  1  0
  5  6  2  0
  6  7  1  0
  6 42  1  0
  7  8  1  0
  8  9  1  0
  9 10  2  3
  9 29  1  0
 10 11  1  0
 11 12  2  0
 11 17  1  0
 12 13  1  0
 13 14  1  0
 13 15  2  0
 15 16  1  0
 16 17  2  0
 17 18  1  0
 18 19  1  0
 19 20  2  0
 19 21  1  0
 21 22  2  0
 21 28  1  0
 22 23  1  0
 23 24  1  6
 23 27  1  0
 24 25  1  0
 24 26  1  0
 27 28  2  0
 29 30  2  3
 29 36  1  0
 30 31  1  0
 31 32  2  0
 31 33  1  0
 33 34  1  0
 33 35  1  0
 37 36  1  6
 37 38  1  0
 37 41  1  0
 38 39  1  0
 39 40  1  0
 40 41  1  0
 42 43  1  0
 42 44  2  0
M  END
