
     RDKit          3D

 43 47  0  0  0  0  0  0  0  0999 V2000
    2.3500   -3.9690    4.3090 C   0  0  0  0  0  0  0  0  0  0  0  0
    1.4250   -3.5600    3.3300 O   0  0  0  0  0  0  0  0  0  0  0  0
    1.8060   -2.2260    3.0080 C   0  0  0  0  0  0  0  0  0  0  0  0
    0.9220   -1.6660    1.9900 C   0  0  0  0  0  0  0  0  0  0  0  0
    1.2700   -1.2360    0.8230 C   0  0  0  0  0  0  0  0  0  0  0  0
    2.7090   -1.3000    0.4730 C   0  0  0  0  0  0  0  0  0  0  0  0
    3.0660    0.0390   -0.2210 C   0  0  0  0  0  0  0  0  0  0  0  0
    2.2700    1.0660    0.4430 C   0  0  1  0  0  0  0  0  0  0  0  0
    2.9590    2.1880    0.9530 N   0  0  0  0  0  0  0  0  0  0  0  0
    3.9140    2.0710    1.9610 C   0  0  1  0  0  0  0  0  0  0  0  0
    5.2000    1.3890    1.6170 C   0  0  0  0  0  0  0  0  0  0  0  0
    5.9440    2.3990    2.5580 C   0  0  0  0  0  0  0  0  0  0  0  0
    4.7510    3.3200    2.2610 C   0  0  0  0  0  0  0  0  0  0  0  0
    1.1420    1.5890   -0.4530 C   0  0  2  0  0  0  0  0  0  0  0  0
    1.7520    2.1470   -1.5470 O   0  0  0  0  0  0  0  0  0  0  0  0
    1.7790    3.5260   -1.3860 C   0  0  0  0  0  0  0  0  0  0  0  0
    0.6120    3.7680   -0.4610 C   0  0  0  0  0  0  0  0  0  0  0  0
    0.5240    2.6020    0.2510 O   0  0  0  0  0  0  0  0  0  0  0  0
    0.2040    0.5200   -0.8780 C   0  0  1  0  0  0  0  0  0  0  0  0
    0.4570    0.1860   -2.2890 N   0  0  0  0  0  0  0  0  0  0  0  0
    0.1610    1.0540   -3.3660 C   0  0  0  0  0  0  0  0  0  0  0  0
    0.3890    0.8450   -4.7200 C   0  0  0  0  0  0  0  0  0  0  0  0
   -0.0570    1.9490   -5.4180 C   0  0  0  0  0  0  0  0  0  0  0  0
   -0.5510    2.8040   -4.4400 C   0  0  0  0  0  0  0  0  0  0  0  0
   -0.3920    2.2250   -3.2900 O   0  0  0  0  0  0  0  0  0  0  0  0
    0.1940   -0.7220   -0.0610 C   0  0  0  0  0  0  0  0  0  0  0  0
   -0.8600   -1.5210   -0.1580 C   0  0  0  0  0  0  0  0  0  0  0  0
   -1.9580   -1.1080   -0.9740 N   0  0  0  0  0  0  0  0  0  0  0  0
   -3.3240   -1.4440   -0.9070 C   0  0  1  0  0  0  0  0  0  0  0  0
   -3.6790   -2.9020   -1.0410 C   0  0  0  0  0  0  0  0  0  0  0  0
   -4.0440   -0.7330    0.2060 C   0  0  0  0  0  0  0  0  0  0  0  0
   -3.9730    0.7770   -0.0280 C   0  0  0  0  0  0  0  0  0  0  0  0
   -4.7720    1.1190   -1.6660 P   0  0  0  0  0  0  0  0  0  0  0  0
   -6.2650    1.9780   -1.4610 O   0  0  0  0  0  0  0  0  0  0  0  0
   -7.0240    1.4310   -0.4440 C   0  0  0  0  0  0  0  0  0  0  0  0
   -3.6900    1.9520   -2.7130 O   0  0  0  0  0  0  0  0  0  0  0  0
   -3.5520    3.2560   -2.2240 C   0  0  0  0  0  0  0  0  0  0  0  0
   -0.8240   -2.8600    0.4280 C   0  0  0  0  0  0  0  0  0  0  0  0
   -1.7480   -3.4290    1.2520 C   0  0  0  0  0  0  0  0  0  0  0  0
   -1.6020   -4.7470    1.6910 C   0  0  0  0  0  0  0  0  0  0  0  0
   -0.5370   -5.5310    1.3220 C   0  0  0  0  0  0  0  0  0  0  0  0
    0.4000   -4.9730    0.4940 C   0  0  0  0  0  0  0  0  0  0  0  0
    0.2540   -3.6940    0.0700 C   0  0  0  0  0  0  0  0  0  0  0  0
  1  2  1  0
  2  3  1  0
  3  4  1  0
  4  5  2  3
  5  6  1  0
  5 26  1  0
  6  7  1  0
  7  8  1  0
  8  9  1  6
  8 14  1  0
 10  9  1  6
 10 11  1  0
 10 13  1  0
 11 12  1  0
 12 13  1  0
 14 15  1  6
 14 18  1  0
 14 19  1  0
 15 16  1  0
 16 17  1  0
 17 18  1  0
 19 20  1  6
 19 26  1  0
 20 21  1  0
 21 22  2  0
 21 25  1  0
 22 23  1  0
 23 24  2  0
 24 25  1  0
 26 27  2  3
 27 28  1  0
 27 38  1  0
 28 29  1  0
 29 30  1  1
 29 31  1  0
 31 32  1  0
 32 33  1  0
 33 34  1  0
 33 36  1  0
 34 35  1  0
 36 37  1  0
 38 39  2  0
 38 43  1  0
 39 40  1  0
 40 41  2  0
 41 42  1  0
 42 43  2  0
M  END
