
     RDKit          3D

 22 23  0  0  0  0  0  0  0  0999 V2000
   -2.2900   -0.1890    3.4570 C   0  0  0  0  0  0  0  0  0  0  0  0
   -1.5540   -0.0480    2.3450 C   0  0  0  0  0  0  0  0  0  0  0  0
   -1.8790   -0.8020    1.1060 C   0  0  0  0  0  0  0  0  0  0  0  0
   -2.1040    0.1780    0.0370 N   0  0  0  0  0  0  0  0  0  0  0  0
   -1.0040    0.7940   -0.5760 C   0  0  0  0  0  0  0  0  0  0  0  0
   -1.4550    2.0120   -1.6820 S   0  0  0  0  0  0  0  0  0  0  0  0
    0.3660    0.6300   -0.4380 N   0  0  0  0  0  0  0  0  0  0  0  0
    1.1450   -0.2410    0.3610 C   0  0  0  0  0  0  0  0  0  0  0  0
    2.6160   -0.0720    0.0230 C   0  0  0  0  0  0  0  0  0  0  0  0
    2.9370    0.7320   -0.8460 O   0  0  0  0  0  0  0  0  0  0  0  0
    3.5430   -0.8480    0.7230 N   0  0  0  0  0  0  0  0  0  0  0  0
    4.9400   -0.7830    0.4760 C   0  0  0  0  0  0  0  0  0  0  0  0
    5.6540   -0.0310   -0.4310 C   0  0  0  0  0  0  0  0  0  0  0  0
    6.9940   -0.3170   -0.2840 C   0  0  0  0  0  0  0  0  0  0  0  0
    8.1780    0.2180   -1.0130 C   0  0  0  0  0  0  0  0  0  0  0  0
    7.0530   -1.2140    0.6860 O   0  0  0  0  0  0  0  0  0  0  0  0
    5.8910   -1.5050    1.1450 N   0  0  0  0  0  0  0  0  0  0  0  0
   -3.4920    0.3840   -0.2620 C   0  0  1  0  0  0  0  0  0  0  0  0
   -3.8880    1.3040   -1.3530 C   0  0  0  0  0  0  0  0  0  0  0  0
   -5.4230    1.0060   -1.4910 C   0  0  0  0  0  0  0  0  0  0  0  0
   -5.6110   -0.3780   -0.9410 C   0  0  0  0  0  0  0  0  0  0  0  0
   -4.1870   -0.9010   -0.7590 C   0  0  0  0  0  0  0  0  0  0  0  0
  1  2  2  0
  2  3  1  0
  3  4  1  0
  4  5  1  0
 18  4  1  6
  5  6  2  0
  5  7  1  0
  7  8  1  0
  8  9  1  0
  9 10  2  0
  9 11  1  0
 11 12  1  0
 12 13  1  0
 12 17  2  0
 13 14  2  0
 14 15  1  0
 14 16  1  0
 16 17  1  0
 18 19  1  0
 18 22  1  0
 19 20  1  0
 20 21  1  0
 21 22  1  0
M  END
