
     RDKit          3D

 25 27  0  0  0  0  0  0  0  0999 V2000
    1.3480   -1.8070    3.8340 N   0  0  0  0  0  0  0  0  0  0  0  0
    1.8340   -1.1510    2.6510 C   0  0  0  0  0  0  0  0  0  0  0  0
    3.0290   -0.8430    2.3460 N   0  0  0  0  0  0  0  0  0  0  0  0
    3.0420   -0.1920    1.0500 C   0  0  0  0  0  0  0  0  0  0  0  0
    4.2560    0.2830    0.4180 C   0  0  0  0  0  0  0  0  0  0  0  0
    4.3660    0.8770   -0.7390 C   0  0  0  0  0  0  0  0  0  0  0  0
    3.0450    1.2370   -1.8020 Cl  0  0  0  0  0  0  0  0  0  0  0  0
    5.7150    1.2780   -1.1900 C   0  0  0  0  0  0  0  0  0  0  0  0
    6.0030    1.8690   -2.2950 N   0  0  0  0  0  0  0  0  0  0  0  0
    7.3530    2.0970   -2.3990 O   0  0  0  0  0  0  0  0  0  0  0  0
    7.9210    1.6490   -1.1980 C   0  0  0  0  0  0  0  0  0  0  0  0
    6.8700    1.0590   -0.4530 O   0  0  0  0  0  0  0  0  0  0  0  0
    1.8490   -0.1270    0.6110 N   0  0  0  0  0  0  0  0  0  0  0  0
    0.9780   -0.7230    1.5740 C   0  0  0  0  0  0  0  0  0  0  0  0
   -0.3310   -0.8480    1.4840 C   0  0  0  0  0  0  0  0  0  0  0  0
   -1.0430   -0.3720    0.3490 N   0  0  0  0  0  0  0  0  0  0  0  0
   -2.4390   -0.5000    0.2420 C   0  0  0  0  0  0  0  0  0  0  0  0
   -3.0820   -1.0600    1.1930 O   0  0  0  0  0  0  0  0  0  0  0  0
   -3.2020   -0.0460   -0.8620 N   0  0  0  0  0  0  0  0  0  0  0  0
   -4.6160   -0.1860   -0.9500 C   0  0  0  0  0  0  0  0  0  0  0  0
   -5.3140   -0.8280   -1.8600 C   0  0  0  0  0  0  0  0  0  0  0  0
   -6.7430   -0.6810   -1.5150 C   0  0  0  0  0  0  0  0  0  0  0  0
   -6.7790    0.1230   -0.2970 C   0  0  0  0  0  0  0  0  0  0  0  0
   -7.9030    0.5210    0.4010 O   0  0  0  0  0  0  0  0  0  0  0  0
   -5.5300    0.3990    0.0130 C   0  0  0  0  0  0  0  0  0  0  0  0
  1  2  1  0
  2  3  2  0
  2 14  1  0
  3  4  1  0
  4  5  1  0
  4 13  2  0
  5  6  2  3
  6  7  1  0
  6  8  1  0
  8  9  2  0
  8 12  1  0
  9 10  1  0
 10 11  1  0
 11 12  1  0
 13 14  1  0
 14 15  2  3
 15 16  1  0
 16 17  1  0
 17 18  2  0
 17 19  1  0
 19 20  1  0
 20 21  2  0
 20 25  1  0
 21 22  1  0
 22 23  1  0
 23 24  1  0
 23 25  2  0
M  CHG  1  13   1
M  END
