
     RDKit          3D

 22 23  0  0  0  0  0  0  0  0999 V2000
   -6.9420    0.2010    1.1630 C   0  0  0  0  0  0  0  0  0  0  0  0
   -5.8000    0.6170    0.6310 C   0  0  0  0  0  0  0  0  0  0  0  0
   -4.7180    1.1660    1.4960 C   0  0  0  0  0  0  0  0  0  0  0  0
   -3.4980    0.3810    1.3750 N   0  0  0  0  0  0  0  0  0  0  0  0
   -2.8160    0.2240    0.1180 C   0  0  0  0  0  0  0  0  0  0  0  0
   -3.3100    0.7930   -0.8840 O   0  0  0  0  0  0  0  0  0  0  0  0
   -1.5990   -0.5760    0.0650 C   0  0  0  0  0  0  0  0  0  0  0  0
   -1.3880   -1.7500    0.7690 C   0  0  0  0  0  0  0  0  0  0  0  0
   -0.1670   -2.1730    0.4510 N   0  0  0  0  0  0  0  0  0  0  0  0
    0.4260   -1.3620   -0.4040 N   0  0  0  0  0  0  0  0  0  0  0  0
    1.7290   -1.4680   -0.9830 C   0  0  0  0  0  0  0  0  0  0  0  0
    2.7790   -0.7900   -0.1750 C   0  0  0  0  0  0  0  0  0  0  0  0
    2.4500   -0.2130    0.8840 O   0  0  0  0  0  0  0  0  0  0  0  0
    4.1050   -0.8420   -0.6650 N   0  0  0  0  0  0  0  0  0  0  0  0
    5.1550   -0.2190    0.0510 C   0  0  0  0  0  0  0  0  0  0  0  0
    5.2450    0.4860    1.2010 C   0  0  0  0  0  0  0  0  0  0  0  0
    6.4160    0.9550    1.6220 C   0  0  0  0  0  0  0  0  0  0  0  0
    7.5700    0.7160    0.8690 C   0  0  0  0  0  0  0  0  0  0  0  0
    6.8310   -0.2450   -0.5070 S   0  0  0  0  0  0  0  0  0  0  0  0
   -0.4410   -0.3710   -0.6560 C   0  0  0  0  0  0  0  0  0  0  0  0
   -0.2210    0.7970   -1.5680 C   0  0  0  0  0  0  0  0  0  0  0  0
   -0.9520    0.6550   -2.8660 C   0  0  0  0  0  0  0  0  0  0  0  0
  1  2  2  0
  2  3  1  0
  3  4  1  0
  4  5  1  0
  5  6  2  0
  5  7  1  0
  7  8  1  0
  7 20  2  0
  8  9  2  0
  9 10  1  0
 10 11  1  0
 10 20  1  0
 11 12  1  0
 12 13  2  0
 12 14  1  0
 14 15  1  0
 15 16  2  0
 15 19  1  0
 16 17  1  0
 17 18  2  0
 18 19  1  0
 20 21  1  0
 21 22  1  0
M  END
