
     RDKit          3D

 22 23  0  0  0  0  0  0  0  0999 V2000
   -1.5470    3.2400   -0.5460 C   0  0  0  0  0  0  0  0  0  0  0  0
   -2.0750    2.3360    0.2530 C   0  0  0  0  0  0  0  0  0  0  0  0
   -2.3780    0.9770   -0.2560 C   0  0  0  0  0  0  0  0  0  0  0  0
   -1.6720   -0.0420    0.4810 N   0  0  0  0  0  0  0  0  0  0  0  0
   -1.9830   -1.3720   -0.0130 C   0  0  0  0  0  0  0  0  0  0  0  0
   -3.4510   -1.6660    0.0910 C   0  0  0  0  0  0  0  0  0  0  0  0
   -4.1840   -2.2400    1.0460 C   0  0  0  0  0  0  0  0  0  0  0  0
   -5.5080   -2.3850    0.8840 C   0  0  0  0  0  0  0  0  0  0  0  0
   -6.0480   -1.9300   -0.2700 C   0  0  0  0  0  0  0  0  0  0  0  0
   -4.6460   -1.2730   -1.1630 S   0  0  0  0  0  0  0  0  0  0  0  0
   -0.2650    0.1430    0.5050 C   0  0  0  0  0  0  0  0  0  0  0  0
    0.4880   -0.0800   -0.7510 C   0  0  1  0  0  0  0  0  0  0  0  0
    0.0950    0.7430   -1.7920 O   0  0  0  0  0  0  0  0  0  0  0  0
    1.9500    0.2030   -0.5000 C   0  0  0  0  0  0  0  0  0  0  0  0
    2.5880    1.0530   -1.1890 O   0  0  0  0  0  0  0  0  0  0  0  0
    2.6940   -0.4550    0.5110 N   0  0  0  0  0  0  0  0  0  0  0  0
    4.0740   -0.1730    0.7430 C   0  0  0  0  0  0  0  0  0  0  0  0
    4.6510    0.7540   -0.0460 N   0  0  0  0  0  0  0  0  0  0  0  0
    5.9320    1.1100    0.0770 C   0  0  0  0  0  0  0  0  0  0  0  0
    6.6760    0.4820    1.0680 C   0  0  0  0  0  0  0  0  0  0  0  0
    6.0690   -0.4540    1.8550 C   0  0  0  0  0  0  0  0  0  0  0  0
    4.7720   -0.7890    1.7020 N   0  0  0  0  0  0  0  0  0  0  0  0
  1  2  2  0
  2  3  1  0
  3  4  1  0
  4  5  1  0
  4 11  1  0
  5  6  1  0
  6  7  2  0
  6 10  1  0
  7  8  1  0
  8  9  2  0
  9 10  1  0
 11 12  1  0
 12 13  1  6
 12 14  1  0
 14 15  2  0
 14 16  1  0
 16 17  1  0
 17 18  2  0
 17 22  1  0
 18 19  1  0
 19 20  2  0
 20 21  1  0
 21 22  2  0
M  END
