
     RDKit          3D

 25 27  0  0  0  0  0  0  0  0999 V2000
   -7.1560   -1.5370   -1.4120 N   0  0  0  0  0  0  0  0  0  0  0  0
   -6.2530   -1.2410   -0.5220 C   0  0  0  0  0  0  0  0  0  0  0  0
   -5.2710   -0.1470   -0.6040 C   0  0  0  0  0  0  0  0  0  0  0  0
   -4.4990   -0.2570    0.6470 C   0  0  0  0  0  0  0  0  0  0  0  0
   -3.3760    0.6350    1.0420 C   0  0  0  0  0  0  0  0  0  0  0  0
   -2.7840    0.4580    2.1280 O   0  0  0  0  0  0  0  0  0  0  0  0
   -2.9760    1.6590    0.2250 O   0  0  0  0  0  0  0  0  0  0  0  0
   -1.9170    2.5300    0.5560 C   0  0  0  0  0  0  0  0  0  0  0  0
   -0.6160    1.8350    0.7440 C   0  0  0  0  0  0  0  0  0  0  0  0
    0.2390    1.4390   -0.2140 N   0  0  0  0  0  0  0  0  0  0  0  0
    1.3200    0.8440    0.3390 C   0  0  0  0  0  0  0  0  0  0  0  0
    2.4730    0.2780   -0.3580 C   0  0  0  0  0  0  0  0  0  0  0  0
    2.5360    0.3190   -1.7350 C   0  0  0  0  0  0  0  0  0  0  0  0
    3.6400   -0.2250   -2.3570 C   0  0  0  0  0  0  0  0  0  0  0  0
    4.6490   -0.7920   -1.6170 C   0  0  0  0  0  0  0  0  0  0  0  0
    5.7500   -1.3340   -2.2700 O   0  0  0  0  0  0  0  0  0  0  0  0
    4.5890   -0.8340   -0.2420 C   0  0  0  0  0  0  0  0  0  0  0  0
    5.6100   -1.4060    0.4720 O   0  0  0  0  0  0  0  0  0  0  0  0
    5.6710   -1.5100    1.8760 C   0  0  0  0  0  0  0  0  0  0  0  0
    5.6360    0.1370    2.5510 Cl  0  0  0  0  0  0  0  0  0  0  0  0
    3.4750   -0.2860    0.3850 C   0  0  0  0  0  0  0  0  0  0  0  0
    1.1110    0.8830    1.6550 N   0  0  0  0  0  0  0  0  0  0  0  0
   -0.0460    1.4750    1.9080 N   0  0  0  0  0  0  0  0  0  0  0  0
   -4.9480   -1.2290    1.3260 N   0  0  0  0  0  0  0  0  0  0  0  0
   -6.0080   -1.8930    0.7110 N   0  0  0  0  0  0  0  0  0  0  0  0
  1  2  2  0
  2  3  1  0
  2 25  1  0
  3  4  1  0
  4  5  1  0
  4 24  2  0
  5  6  2  0
  5  7  1  0
  7  8  1  0
  8  9  1  0
  9 10  1  0
  9 23  2  0
 10 11  2  0
 11 12  1  0
 11 22  1  0
 12 13  2  0
 12 21  1  0
 13 14  1  0
 14 15  2  0
 15 16  1  0
 15 17  1  0
 17 18  1  0
 17 21  2  0
 18 19  1  0
 19 20  1  0
 22 23  1  0
 24 25  1  0
M  CHG  1  23   1
M  END
