
     RDKit          3D

 25 27  0  0  0  0  0  0  0  0999 V2000
    6.7570    1.7010   -0.7990 C   0  0  0  0  0  0  0  0  0  0  0  0
    6.3270    0.3900   -0.7430 O   0  0  0  0  0  0  0  0  0  0  0  0
    5.4560    0.1720    0.3300 C   0  0  2  0  0  0  0  0  0  0  0  0
    6.0900   -0.8620    1.2490 C   0  0  0  0  0  0  0  0  0  0  0  0
    4.1500   -0.3610   -0.1320 C   0  0  0  0  0  0  0  0  0  0  0  0
    2.9540    0.1020    0.3260 N   0  0  0  0  0  0  0  0  0  0  0  0
    1.9850   -0.5490   -0.2530 N   0  0  0  0  0  0  0  0  0  0  0  0
    0.5680   -0.4110   -0.0910 C   0  0  0  0  0  0  0  0  0  0  0  0
   -0.0470   -0.5270    1.1270 C   0  0  0  0  0  0  0  0  0  0  0  0
   -1.4040   -0.3930    1.2660 C   0  0  0  0  0  0  0  0  0  0  0  0
   -2.2370   -0.1290    0.1700 C   0  0  0  0  0  0  0  0  0  0  0  0
   -3.6250   -0.0100    0.4310 N   0  0  0  0  0  0  0  0  0  0  0  0
   -4.6520    0.2480   -0.4960 C   0  0  0  0  0  0  0  0  0  0  0  0
   -4.3660    0.3960   -1.6970 O   0  0  0  0  0  0  0  0  0  0  0  0
   -6.0570    0.3510   -0.1120 C   0  0  0  0  0  0  0  0  0  0  0  0
   -7.0800    0.5880   -0.9070 C   0  0  0  0  0  0  0  0  0  0  0  0
   -8.3030    0.6190   -0.1810 N   0  0  0  0  0  0  0  0  0  0  0  0
   -7.9980    0.0710    0.9910 O   0  0  0  0  0  0  0  0  0  0  0  0
   -6.6460    0.2220    1.1770 N   0  0  0  0  0  0  0  0  0  0  0  0
   -1.6320   -0.0150   -1.0360 C   0  0  0  0  0  0  0  0  0  0  0  0
   -0.2480   -0.1530   -1.1690 C   0  0  0  0  0  0  0  0  0  0  0  0
    0.4600    0.0100   -2.7670 Cl  0  0  0  0  0  0  0  0  0  0  0  0
    2.5490   -1.4390   -1.0910 C   0  0  0  0  0  0  0  0  0  0  0  0
    1.9080   -2.2580   -1.8340 O   0  0  0  0  0  0  0  0  0  0  0  0
    3.8800   -1.3200   -1.0130 N   0  0  0  0  0  0  0  0  0  0  0  0
  1  2  1  0
  2  3  1  0
  3  4  1  1
  3  5  1  0
  5  6  2  0
  5 25  1  0
  6  7  1  0
  7  8  1  0
  7 23  1  0
  8  9  2  0
  8 21  1  0
  9 10  1  0
 10 11  2  0
 11 12  1  0
 11 20  1  0
 12 13  1  0
 13 14  2  0
 13 15  1  0
 15 16  2  0
 15 19  1  0
 16 17  1  0
 17 18  1  0
 18 19  1  0
 20 21  2  0
 21 22  1  0
 23 24  2  0
 23 25  1  0
M  CHG  1  17   1
M  END
