
     RDKit          3D

 22 23  0  0  0  0  0  0  0  0999 V2000
    5.8040    1.7430   -1.2760 C   0  0  0  0  0  0  0  0  0  0  0  0
    5.3720    0.7560   -0.2680 N   0  0  0  0  0  0  0  0  0  0  0  0
    4.8880   -0.4140   -0.6310 N   0  0  0  0  0  0  0  0  0  0  0  0
    3.8700   -1.0850   -0.7480 C   0  0  0  0  0  0  0  0  0  0  0  0
    2.4770   -0.7590   -0.4590 C   0  0  0  0  0  0  0  0  0  0  0  0
    1.9100    0.3800    0.0200 C   0  0  0  0  0  0  0  0  0  0  0  0
    2.5890    1.6610    0.3970 C   0  0  0  0  0  0  0  0  0  0  0  0
    0.6350    0.1770    0.1050 O   0  0  0  0  0  0  0  0  0  0  0  0
    0.2460   -0.9840   -0.2640 C   0  0  0  0  0  0  0  0  0  0  0  0
   -1.0280   -1.5470   -0.3080 N   0  0  0  0  0  0  0  0  0  0  0  0
   -2.2850   -0.9960    0.0460 C   0  0  0  0  0  0  0  0  0  0  0  0
   -3.7850   -2.0230   -0.1130 S   0  0  0  0  0  0  0  0  0  0  0  0
   -4.9110   -0.8030    0.4510 C   0  0  0  0  0  0  0  0  0  0  0  0
   -6.4090   -0.9130    0.6050 C   0  0  0  0  0  0  0  0  0  0  0  0
   -4.0980    0.3020    0.7250 C   0  0  0  0  0  0  0  0  0  0  0  0
   -4.7690    1.5840    1.2540 C   0  0  0  0  0  0  0  0  0  0  0  0
   -2.7760    0.1420    0.4990 C   0  0  0  0  0  0  0  0  0  0  0  0
   -1.8750    1.2940    0.7710 C   0  0  0  0  0  0  0  0  0  0  0  0
   -1.1660    2.2090    1.0070 N   0  0  0  0  0  0  0  0  0  0  0  0
    1.4130   -1.6610   -0.6520 C   0  0  0  0  0  0  0  0  0  0  0  0
    1.5570   -3.0060   -1.1540 C   0  0  0  0  0  0  0  0  0  0  0  0
    0.6010   -3.7700   -1.3110 O   0  0  0  0  0  0  0  0  0  0  0  0
  1  2  1  0
  2  3  1  0
  3  4  2  3
  4  5  1  0
  5  6  2  0
  5 20  1  0
  6  7  1  0
  6  8  1  0
  8  9  1  0
  9 10  1  0
  9 20  2  0
 10 11  1  0
 11 12  1  0
 11 17  2  0
 12 13  1  0
 13 14  1  0
 13 15  2  0
 15 16  1  0
 15 17  1  0
 17 18  1  0
 18 19  3  0
 20 21  1  0
 21 22  2  0
M  END
