
     RDKit          3D

 22 23  0  0  0  0  0  0  0  0999 V2000
    8.4500   -0.1560   -0.0430 C   0  0  0  0  0  0  0  0  0  0  0  0
    8.1690    0.0650   -1.8190 S   0  0  0  0  0  0  0  0  0  0  0  0
    6.5020   -0.3950   -2.1990 C   0  0  0  0  0  0  0  0  0  0  0  0
    5.5540    0.5220   -2.2290 C   0  0  0  0  0  0  0  0  0  0  0  0
    4.1580    0.1310   -2.5490 C   0  0  0  0  0  0  0  0  0  0  0  0
    3.2470    0.4580   -1.4500 N   0  0  0  0  0  0  0  0  0  0  0  0
    2.9180   -0.3280   -0.4230 C   0  0  0  0  0  0  0  0  0  0  0  0
    2.0260    0.3490    0.4150 C   0  0  0  0  0  0  0  0  0  0  0  0
    1.4250   -0.1800    1.6630 C   0  0  0  0  0  0  0  0  0  0  0  0
    0.1480   -0.8240    1.4490 N   0  0  0  0  0  0  0  0  0  0  0  0
   -1.0230   -0.0910    1.2450 C   0  0  0  0  0  0  0  0  0  0  0  0
   -0.9550    1.1750    1.2500 O   0  0  0  0  0  0  0  0  0  0  0  0
   -2.3490   -0.7000    1.0210 C   0  0  0  0  0  0  0  0  0  0  0  0
   -2.4880   -1.9490    0.9990 O   0  0  0  0  0  0  0  0  0  0  0  0
   -3.4910    0.0930    0.8290 N   0  0  0  0  0  0  0  0  0  0  0  0
   -4.8240   -0.3760    0.6050 C   0  0  2  0  0  0  0  0  0  0  0  0
   -5.4800    0.1660   -0.6210 C   0  0  0  0  0  0  0  0  0  0  0  0
   -6.9370   -0.2420   -0.4000 C   0  0  0  0  0  0  0  0  0  0  0  0
   -7.1080   -0.3980    1.0970 C   0  0  0  0  0  0  0  0  0  0  0  0
   -5.7900    0.0940    1.7020 C   0  0  0  0  0  0  0  0  0  0  0  0
    1.8500    1.5820   -0.1810 C   0  0  0  0  0  0  0  0  0  0  0  0
    2.6110    1.6050   -1.3130 N   0  0  0  0  0  0  0  0  0  0  0  0
  1  2  1  0
  2  3  1  0
  3  4  2  3
  4  5  1  0
  5  6  1  0
  6  7  1  0
  6 22  1  0
  7  8  2  0
  8  9  1  0
  8 21  1  0
  9 10  1  0
 10 11  1  0
 11 12  2  0
 11 13  1  0
 13 14  2  0
 13 15  1  0
 16 15  1  1
 16 17  1  0
 16 20  1  0
 17 18  1  0
 18 19  1  0
 19 20  1  0
 21 22  2  0
M  END
