
     RDKit          3D

 28 31  0  0  0  0  0  0  0  0999 V2000
    7.4420   -2.5950    1.5360 C   0  0  0  0  0  0  0  0  0  0  0  0
    7.2060   -1.6500    0.4400 N   0  0  0  0  0  0  0  0  0  0  0  0
    6.0970   -0.9260    0.2240 C   0  0  0  0  0  0  0  0  0  0  0  0
    6.2920   -0.1760   -0.9030 C   0  0  0  0  0  0  0  0  0  0  0  0
    5.4530    0.7400   -1.5530 N   0  0  0  0  0  0  0  0  0  0  0  0
    4.1610    1.0240   -1.0200 C   0  0  0  0  0  0  0  0  0  0  0  0
    3.6940    0.5050    0.0190 O   0  0  0  0  0  0  0  0  0  0  0  0
    3.3210    1.9550   -1.6900 N   0  0  0  0  0  0  0  0  0  0  0  0
    2.0100    2.3180   -1.2480 C   0  0  0  0  0  0  0  0  0  0  0  0
    1.0800    3.0370   -1.5640 N   0  0  0  0  0  0  0  0  0  0  0  0
   -0.0220    3.1150   -0.8810 N   0  0  0  0  0  0  0  0  0  0  0  0
   -0.2710    2.5220    0.1090 C   0  0  0  0  0  0  0  0  0  0  0  0
   -1.3230    2.3070    1.1610 C   0  0  0  0  0  0  0  0  0  0  0  0
   -2.2620    1.2400    0.8180 C   0  0  0  0  0  0  0  0  0  0  0  0
   -3.5360    1.5050    0.3720 C   0  0  0  0  0  0  0  0  0  0  0  0
   -4.4080    0.5110    0.0530 C   0  0  0  0  0  0  0  0  0  0  0  0
   -4.0310   -0.7990    0.1720 C   0  0  0  0  0  0  0  0  0  0  0  0
   -2.7710   -1.1060    0.6120 C   0  0  0  0  0  0  0  0  0  0  0  0
   -1.9030   -0.0850    0.9300 C   0  0  0  0  0  0  0  0  0  0  0  0
   -0.6090   -0.4080    1.3830 O   0  0  0  0  0  0  0  0  0  0  0  0
   -5.0450   -1.8330   -0.1960 C   0  0  1  0  0  0  0  0  0  0  0  0
   -4.6820   -3.0950    0.2200 O   0  0  0  0  0  0  0  0  0  0  0  0
   -6.3520   -1.3760    0.4390 C   0  0  0  0  0  0  0  0  0  0  0  0
   -6.7940   -0.1470   -0.2980 C   0  0  0  0  0  0  0  0  0  0  0  0
   -5.7580    0.9160   -0.4190 C   0  0  0  0  0  0  0  0  0  0  0  0
    1.3510    1.5460    0.2810 S   0  0  0  0  0  0  0  0  0  0  0  0
    7.5690   -0.4800   -1.3600 C   0  0  0  0  0  0  0  0  0  0  0  0
    8.0710   -1.3750   -0.5090 N   0  0  0  0  0  0  0  0  0  0  0  0
  1  2  1  0
  2  3  1  0
  2 28  1  0
  3  4  2  0
  4  5  1  0
  4 27  1  0
  5  6  1  0
  6  7  2  0
  6  8  1  0
  8  9  1  0
  9 10  2  0
  9 26  1  0
 10 11  1  0
 11 12  2  0
 12 13  1  0
 12 26  1  0
 13 14  1  0
 14 15  2  0
 14 19  1  0
 15 16  1  0
 16 17  2  0
 16 25  1  0
 17 18  1  0
 17 21  1  0
 18 19  2  0
 19 20  1  0
 21 22  1  1
 21 23  1  0
 23 24  1  0
 24 25  1  0
 27 28  2  0
M  END
