
     RDKit          3D

 28 30  0  0  0  0  0  0  0  0999 V2000
   -8.3360   -1.1050    0.9260 C   0  0  0  0  0  0  0  0  0  0  0  0
   -7.8610   -0.1200   -0.0630 C   0  0  0  0  0  0  0  0  0  0  0  0
   -8.7120    0.6360   -0.8590 C   0  0  0  0  0  0  0  0  0  0  0  0
   -7.8780    1.4130   -1.6250 C   0  0  0  0  0  0  0  0  0  0  0  0
   -6.5500    1.1100   -1.2770 C   0  0  0  0  0  0  0  0  0  0  0  0
   -5.4010    1.7540   -1.8980 C   0  0  0  0  0  0  0  0  0  0  0  0
   -4.1590    1.5170   -1.6200 C   0  0  0  0  0  0  0  0  0  0  0  0
   -3.5770    0.6040   -0.6720 C   0  0  0  0  0  0  0  0  0  0  0  0
   -4.2180   -0.1710    0.0980 O   0  0  0  0  0  0  0  0  0  0  0  0
   -2.1420    0.4910   -0.5140 N   0  0  0  0  0  0  0  0  0  0  0  0
   -1.5750   -0.4080    0.4200 C   0  0  0  0  0  0  0  0  0  0  0  0
   -2.1880   -1.2540    1.2630 N   0  0  0  0  0  0  0  0  0  0  0  0
   -1.3130   -1.9220    1.9690 N   0  0  0  0  0  0  0  0  0  0  0  0
   -0.0480   -1.5400    1.6180 C   0  0  0  0  0  0  0  0  0  0  0  0
   -0.2110   -0.5900    0.6460 C   0  0  0  0  0  0  0  0  0  0  0  0
    0.7900    0.1300   -0.0570 N   0  0  0  0  0  0  0  0  0  0  0  0
    2.1870   -0.0300    0.1480 C   0  0  0  0  0  0  0  0  0  0  0  0
    2.5800   -0.8560    1.0010 O   0  0  0  0  0  0  0  0  0  0  0  0
    3.1470    0.7230   -0.5900 N   0  0  0  0  0  0  0  0  0  0  0  0
    4.5580    0.5570   -0.3810 C   0  0  0  0  0  0  0  0  0  0  0  0
    5.0700   -0.8290   -0.6580 C   0  0  0  0  0  0  0  0  0  0  0  0
    6.5700   -0.8820   -0.4080 C   0  0  0  0  0  0  0  0  0  0  0  0
    7.3140   -2.0670   -0.5900 C   0  0  0  0  0  0  0  0  0  0  0  0
    8.9770   -1.5730   -0.1670 S   0  0  0  0  0  0  0  0  0  0  0  0
    8.4500    0.2120    0.2120 C   0  0  0  0  0  0  0  0  0  0  0  0
    9.5370    1.1640    0.6550 C   0  0  0  0  0  0  0  0  0  0  0  0
    7.3090    0.1230   -0.0120 N   0  0  0  0  0  0  0  0  0  0  0  0
   -6.6250    0.2010   -0.3530 O   0  0  0  0  0  0  0  0  0  0  0  0
  1  2  1  0
  2  3  2  0
  2 28  1  0
  3  4  1  0
  4  5  2  0
  5  6  1  0
  5 28  1  0
  6  7  2  3
  7  8  1  0
  8  9  2  0
  8 10  1  0
 10 11  1  0
 11 12  2  0
 11 15  1  0
 12 13  1  0
 13 14  1  0
 14 15  2  0
 15 16  1  0
 16 17  1  0
 17 18  2  0
 17 19  1  0
 19 20  1  0
 20 21  1  0
 21 22  1  0
 22 23  2  0
 22 27  1  0
 23 24  1  0
 24 25  1  0
 25 26  1  0
 25 27  2  0
M  END
