
     RDKit          3D

 28 31  0  0  0  0  0  0  0  0999 V2000
   -1.3230   -0.0510    1.1920 O   0  0  0  0  0  0  0  0  0  0  0  0
   -1.2130   -1.1110    0.5350 C   0  0  0  0  0  0  0  0  0  0  0  0
    0.0740   -1.6160    0.2960 N   0  0  0  0  0  0  0  0  0  0  0  0
    1.1960   -0.9280    0.7940 C   0  0  0  0  0  0  0  0  0  0  0  0
    1.5050    0.0580    1.4290 N   0  0  0  0  0  0  0  0  0  0  0  0
    2.7000    0.4500    1.7470 C   0  0  0  0  0  0  0  0  0  0  0  0
    3.7490   -0.3010    1.3390 C   0  0  0  0  0  0  0  0  0  0  0  0
    5.1830   -0.2350    1.4670 C   0  0  0  0  0  0  0  0  0  0  0  0
    5.7480    0.5290    0.3270 C   0  0  0  0  0  0  0  0  0  0  0  0
    6.6150    0.0720   -0.5580 C   0  0  0  0  0  0  0  0  0  0  0  0
    6.9010    1.1640   -1.5090 C   0  0  0  0  0  0  0  0  0  0  0  0
    6.0880    2.3010   -1.0560 C   0  0  0  0  0  0  0  0  0  0  0  0
    5.4230    1.9140    0.0150 C   0  0  0  0  0  0  0  0  0  0  0  0
    2.9260   -1.6120    0.4700 S   0  0  0  0  0  0  0  0  0  0  0  0
   -2.3970   -1.7800    0.0450 C   0  0  0  0  0  0  0  0  0  0  0  0
   -3.6620   -1.3760    0.2220 C   0  0  0  0  0  0  0  0  0  0  0  0
   -3.9990   -0.1970    0.9390 N   0  0  0  0  0  0  0  0  0  0  0  0
   -4.2150    0.9360    0.3460 C   0  0  0  0  0  0  0  0  0  0  0  0
   -4.5330    2.0380    1.0490 N   0  0  0  0  0  0  0  0  0  0  0  0
   -4.7590    3.2200    0.4550 C   0  0  0  0  0  0  0  0  0  0  0  0
   -5.0590    4.2530    1.1290 O   0  0  0  0  0  0  0  0  0  0  0  0
   -4.6770    3.3540   -0.8810 N   0  0  0  0  0  0  0  0  0  0  0  0
   -4.3590    2.2580   -1.5940 C   0  0  0  0  0  0  0  0  0  0  0  0
   -4.2780    2.3680   -2.8510 O   0  0  0  0  0  0  0  0  0  0  0  0
   -4.1310    1.0660   -0.9900 N   0  0  0  0  0  0  0  0  0  0  0  0
   -4.5950   -2.3310   -0.4320 C   0  0  0  0  0  0  0  0  0  0  0  0
   -3.7490   -3.6100   -0.4650 C   0  0  0  0  0  0  0  0  0  0  0  0
   -2.3840   -3.0400   -0.7430 C   0  0  0  0  0  0  0  0  0  0  0  0
  1  2  2  0
  2  3  1  0
  2 15  1  0
  3  4  1  0
  4  5  2  0
  4 14  1  0
  5  6  1  0
  6  7  2  0
  7  8  1  0
  7 14  1  0
  8  9  1  0
  9 10  2  0
  9 13  1  0
 10 11  1  0
 11 12  1  0
 12 13  2  0
 15 16  2  0
 15 28  1  0
 16 17  1  0
 16 26  1  0
 17 18  2  3
 18 19  1  0
 18 25  1  0
 19 20  1  0
 20 21  2  0
 20 22  1  0
 22 23  1  0
 23 24  2  0
 23 25  1  0
 26 27  1  0
 27 28  1  0
M  END
