
     RDKit          3D

 20 21  0  0  0  0  0  0  0  0999 V2000
    3.5470    1.1120   -0.6340 N   0  0  0  0  0  0  0  0  0  0  0  0
    2.3570    1.7570   -0.1310 C   0  0  2  0  0  0  0  0  0  0  0  0
    2.3880    1.9600    1.3500 C   0  0  0  0  0  0  0  0  0  0  0  0
    2.5030    0.7790    2.0810 O   0  0  0  0  0  0  0  0  0  0  0  0
    1.0830    1.1830   -0.6700 C   0  0  0  0  0  0  0  0  0  0  0  0
    0.9060   -0.2910   -0.3470 C   0  0  2  0  0  0  0  0  0  0  0  0
    1.9970   -1.0020   -0.9130 O   0  0  0  0  0  0  0  0  0  0  0  0
   -0.3860   -0.8560   -0.7760 C   0  0  1  0  0  0  0  0  0  0  0  0
   -0.5070   -0.7460   -2.2470 N   0  0  0  0  0  0  0  0  0  0  0  0
   -0.4280   -2.3740   -0.5580 C   0  0  0  0  0  0  0  0  0  0  0  0
   -1.7680   -2.9190   -1.0130 C   0  0  0  0  0  0  0  0  0  0  0  0
   -2.8580   -2.1210   -0.3670 C   0  0  0  0  0  0  0  0  0  0  0  0
   -2.7610   -0.8070   -0.7060 O   0  0  0  0  0  0  0  0  0  0  0  0
   -1.5990   -0.2120   -0.2100 C   0  0  1  0  0  0  0  0  0  0  0  0
   -1.7050   -0.1810    1.2920 C   0  0  2  0  0  0  0  0  0  0  0  0
   -2.8810    0.4990    1.5840 O   0  0  0  0  0  0  0  0  0  0  0  0
   -2.5490    1.8750    1.6000 C   0  0  0  0  0  0  0  0  0  0  0  0
   -1.2150    1.7920    2.3090 C   0  0  0  0  0  0  0  0  0  0  0  0
   -0.7850    2.6890    3.0860 O   0  0  0  0  0  0  0  0  0  0  0  0
   -0.7060    0.5960    1.8890 O   0  0  0  0  0  0  0  0  0  0  0  0
  2  1  1  1
  2  3  1  0
  2  5  1  0
  3  4  1  0
  5  6  1  0
  6  7  1  6
  6  8  1  0
  8  9  1  6
  8 10  1  0
  8 14  1  0
 10 11  1  0
 11 12  1  0
 12 13  1  0
 14 13  1  6
 14 15  1  0
 15 16  1  6
 15 20  1  0
 16 17  1  0
 17 18  1  0
 18 19  2  0
 18 20  1  0
M  CHG  2   1   1   9   1
M  END
