
     RDKit          3D

 28 31  0  0  0  0  0  0  0  0999 V2000
   -3.9370   -1.5650    1.9400 N   0  0  0  0  0  0  0  0  0  0  0  0
   -3.0920   -1.3120    0.8350 C   0  0  0  0  0  0  0  0  0  0  0  0
   -2.3650   -2.2680    0.4950 O   0  0  0  0  0  0  0  0  0  0  0  0
   -3.0630    0.0190    0.1180 C   0  0  0  0  0  0  0  0  0  0  0  0
   -2.0860    0.2320   -0.8060 C   0  0  0  0  0  0  0  0  0  0  0  0
   -0.8120   -0.2470   -1.1130 N   0  0  0  0  0  0  0  0  0  0  0  0
    0.0680   -0.8560   -0.2270 C   0  0  0  0  0  0  0  0  0  0  0  0
   -0.0900   -1.0160    1.0030 O   0  0  0  0  0  0  0  0  0  0  0  0
    1.3090   -1.3760   -0.7360 N   0  0  0  0  0  0  0  0  0  0  0  0
    2.2690   -2.0230    0.1440 C   0  0  0  0  0  0  0  0  0  0  0  0
    3.4510   -2.4620   -0.6300 C   0  0  0  0  0  0  0  0  0  0  0  0
    3.5790   -3.6800   -1.2260 N   0  0  0  0  0  0  0  0  0  0  0  0
    4.7490   -3.7390   -1.8270 N   0  0  0  0  0  0  0  0  0  0  0  0
    5.3760   -2.5610   -1.6190 C   0  0  0  0  0  0  0  0  0  0  0  0
    4.5760   -1.7700   -0.8800 N   0  0  0  0  0  0  0  0  0  0  0  0
    4.7970   -0.4470   -0.4090 C   0  0  0  0  0  0  0  0  0  0  0  0
    5.7530   -0.1310    0.5370 C   0  0  0  0  0  0  0  0  0  0  0  0
    5.9680    1.1470    0.9940 C   0  0  0  0  0  0  0  0  0  0  0  0
    5.1950    2.1660    0.4860 C   0  0  0  0  0  0  0  0  0  0  0  0
    4.2260    1.8880   -0.4640 C   0  0  0  0  0  0  0  0  0  0  0  0
    4.0330    0.5850   -0.9060 C   0  0  0  0  0  0  0  0  0  0  0  0
   -2.6490    1.7950   -1.6020 S   0  0  0  0  0  0  0  0  0  0  0  0
   -4.1070    1.9780   -0.5990 C   0  0  0  0  0  0  0  0  0  0  0  0
   -4.0860    0.9150    0.2180 C   0  0  0  0  0  0  0  0  0  0  0  0
   -5.2890    0.8730    1.1730 C   0  0  0  0  0  0  0  0  0  0  0  0
   -6.4270    1.5140    0.3950 C   0  0  0  0  0  0  0  0  0  0  0  0
   -6.1110    2.8420    0.2610 O   0  0  0  0  0  0  0  0  0  0  0  0
   -5.1130    3.0720   -0.6450 C   0  0  0  0  0  0  0  0  0  0  0  0
  1  2  1  0
  2  3  2  0
  2  4  1  0
  4  5  2  0
  4 24  1  0
  5  6  1  0
  5 22  1  0
  6  7  1  0
  7  8  2  0
  7  9  1  0
  9 10  1  0
 10 11  1  0
 11 12  2  0
 11 15  1  0
 12 13  1  0
 13 14  2  0
 14 15  1  0
 15 16  1  0
 16 17  2  0
 16 21  1  0
 17 18  1  0
 18 19  2  0
 19 20  1  0
 20 21  2  0
 22 23  1  0
 23 24  2  0
 23 28  1  0
 24 25  1  0
 25 26  1  0
 26 27  1  0
 27 28  1  0
M  END
