
     RDKit          3D

 28 31  0  0  0  0  0  0  0  0999 V2000
    6.0100   -0.7890   -1.2870 O   0  0  0  0  0  0  0  0  0  0  0  0
    5.9690   -0.0730   -0.2580 C   0  0  0  0  0  0  0  0  0  0  0  0
    4.6790    0.3000    0.2890 N   0  0  0  0  0  0  0  0  0  0  0  0
    3.5100   -0.1830   -0.3970 C   0  0  0  0  0  0  0  0  0  0  0  0
    2.2900    0.2680    0.2600 C   0  0  0  0  0  0  0  0  0  0  0  0
    1.9830    1.0190    1.3420 C   0  0  0  0  0  0  0  0  0  0  0  0
    0.7080    1.1900    1.5980 N   0  0  0  0  0  0  0  0  0  0  0  0
   -0.2160    0.7880    1.0280 C   0  0  0  0  0  0  0  0  0  0  0  0
   -1.6700    0.7740    1.0190 N   0  0  0  0  0  0  0  0  0  0  0  0
   -2.4100    0.0900    0.0430 C   0  0  0  0  0  0  0  0  0  0  0  0
   -1.8070   -0.5530   -0.8850 O   0  0  0  0  0  0  0  0  0  0  0  0
   -3.8650    0.0820    0.0420 C   0  0  0  0  0  0  0  0  0  0  0  0
   -4.5470    0.7710    1.0030 C   0  0  0  0  0  0  0  0  0  0  0  0
   -5.9470    0.7470    0.9830 C   0  0  0  0  0  0  0  0  0  0  0  0
   -6.6420    1.4510    1.9640 O   0  0  0  0  0  0  0  0  0  0  0  0
   -6.6490    0.0520    0.0240 C   0  0  0  0  0  0  0  0  0  0  0  0
   -5.9600   -0.6410   -0.9420 C   0  0  0  0  0  0  0  0  0  0  0  0
   -4.5860   -0.6120   -0.9130 C   0  0  0  0  0  0  0  0  0  0  0  0
   -6.9600   -1.2910   -1.8350 C   0  0  0  0  0  0  0  0  0  0  0  0
   -8.1750   -1.4130   -0.9370 C   0  0  0  0  0  0  0  0  0  0  0  0
   -8.1100   -0.0990   -0.1730 C   0  0  0  0  0  0  0  0  0  0  0  0
    0.6750   -0.1650   -0.3490 S   0  0  0  0  0  0  0  0  0  0  0  0
    7.1700    0.3470    0.3370 N   0  0  0  0  0  0  0  0  0  0  0  0
    8.4380    0.0230   -0.1400 N   0  0  0  0  0  0  0  0  0  0  0  0
    9.6140    0.4180    0.4200 C   0  0  0  0  0  0  0  0  0  0  0  0
   10.6790   -0.0780   -0.3010 C   0  0  0  0  0  0  0  0  0  0  0  0
   10.1560   -0.7790   -1.3050 N   0  0  0  0  0  0  0  0  0  0  0  0
    8.8020   -0.7120   -1.1980 C   0  0  0  0  0  0  0  0  0  0  0  0
  1  2  2  0
  2  3  1  0
  2 23  1  0
  3  4  1  0
  4  5  1  0
  5  6  2  0
  5 22  1  0
  6  7  1  0
  7  8  2  0
  8  9  1  0
  8 22  1  0
  9 10  1  0
 10 11  2  0
 10 12  1  0
 12 13  2  0
 12 18  1  0
 13 14  1  0
 14 15  1  0
 14 16  2  0
 16 17  1  0
 16 21  1  0
 17 18  2  0
 17 19  1  0
 19 20  1  0
 20 21  1  0
 23 24  1  0
 24 25  1  0
 24 28  1  0
 25 26  2  0
 26 27  1  0
 27 28  2  0
M  END
