
     RDKit          3D

 34 35  0  0  0  0  0  0  0  0999 V2000
   -8.2060    0.2790    2.6720 C   0  0  0  0  0  0  0  0  0  0  0  0
   -6.9920    0.3680    1.7800 C   0  0  0  0  0  0  0  0  0  0  0  0
   -7.3130   -0.2310    0.4330 C   0  0  1  0  0  0  0  0  0  0  0  0
   -8.4560    0.5140   -0.2040 C   0  0  0  0  0  0  0  0  0  0  0  0
   -7.9780    1.8060   -0.8250 C   0  0  0  0  0  0  0  0  0  0  0  0
   -7.1650    1.5560   -2.0560 C   0  0  2  0  0  0  0  0  0  0  0  0
   -8.1530    1.6270   -3.5580 S   0  0  0  0  0  0  0  0  0  0  0  0
   -9.6370    1.6490   -3.2590 O   0  0  0  0  0  0  0  0  0  0  0  0
   -6.4840    0.2160   -1.8950 C   0  0  0  0  0  0  0  0  0  0  0  0
   -6.1180   -0.0230   -0.4870 C   0  0  0  0  0  0  0  0  0  0  0  0
   -4.9590   -0.0920    0.0200 N   0  0  0  0  0  0  0  0  0  0  0  0
   -3.7560    0.0620   -0.6360 N   0  0  0  0  0  0  0  0  0  0  0  0
   -2.4900    0.3150   -0.1300 C   0  0  0  0  0  0  0  0  0  0  0  0
   -2.3800    0.4410    1.1570 O   0  0  0  0  0  0  0  0  0  0  0  0
   -1.2420    0.4400   -0.9050 C   0  0  0  0  0  0  0  0  0  0  0  0
   -0.0700   -0.2010   -0.2930 C   0  0  0  0  0  0  0  0  0  0  0  0
    0.4090    0.3160    0.9950 C   0  0  0  0  0  0  0  0  0  0  0  0
    1.5200   -0.6060    1.4860 C   0  0  0  0  0  0  0  0  0  0  0  0
    2.6400   -0.7010    0.6020 C   0  0  0  0  0  0  0  0  0  0  0  0
    2.7730   -1.8330   -0.0830 C   0  0  0  0  0  0  0  0  0  0  0  0
    3.8430   -2.0980   -1.0170 C   0  0  0  0  0  0  0  0  0  0  0  0
    5.0780   -1.6380   -1.0550 C   0  0  0  0  0  0  0  0  0  0  0  0
    5.9630   -2.0790   -2.1320 C   0  0  0  0  0  0  0  0  0  0  0  0
    5.7310   -0.6710   -0.0670 C   0  0  0  0  0  0  0  0  0  0  0  0
    7.1140   -0.7950   -0.0940 C   0  0  0  0  0  0  0  0  0  0  0  0
    7.7540   -1.7360   -0.5110 O   0  0  0  0  0  0  0  0  0  0  0  0
    8.1380    0.4310    0.4650 N   0  0  0  0  0  0  0  0  0  0  0  0
    9.2830   -0.3330    0.6160 C   0  0  0  0  0  0  0  0  0  0  0  0
    9.5990   -1.4650    0.4650 O   0  0  0  0  0  0  0  0  0  0  0  0
   10.3620    0.5970    1.1220 N   0  0  0  0  0  0  0  0  0  0  0  0
   11.6750    0.1130    1.3840 C   0  0  0  0  0  0  0  0  0  0  0  0
    4.9930    0.1900    0.5690 C   0  0  0  0  0  0  0  0  0  0  0  0
    5.6640    1.1080    1.5170 C   0  0  0  0  0  0  0  0  0  0  0  0
    3.5440    0.4110    0.5110 O   0  0  0  0  0  0  0  0  0  0  0  0
  1  2  1  0
  3  2  1  1
  3  4  1  0
  3 10  1  0
  4  5  1  0
  5  6  1  0
  6  7  1  6
  6  9  1  0
  7  8  2  0
  9 10  1  0
 10 11  2  3
 11 12  1  0
 12 13  1  0
 13 14  2  0
 13 15  1  0
 15 16  1  0
 16 17  1  0
 17 18  1  0
 18 19  1  0
 19 20  2  0
 19 34  1  0
 20 21  1  0
 21 22  2  0
 22 23  1  0
 22 24  1  0
 24 25  1  0
 24 32  2  0
 25 26  2  0
 25 27  1  0
 27 28  1  0
 28 29  2  0
 28 30  1  0
 30 31  1  0
 32 33  1  0
 32 34  1  0
M  END
