
     RDKit          3D

 32 33  0  0  0  0  0  0  0  0999 V2000
   -4.9340   -0.6430   -2.4780 C   0  0  0  0  0  0  0  0  0  0  0  0
   -3.8300   -1.5420   -1.9360 C   0  0  1  0  0  0  0  0  0  0  0  0
   -3.0270   -0.8840   -0.9960 O   0  0  0  0  0  0  0  0  0  0  0  0
   -1.6700   -0.7020   -1.1210 C   0  0  0  0  0  0  0  0  0  0  0  0
   -1.1420   -1.1830   -2.1840 O   0  0  0  0  0  0  0  0  0  0  0  0
   -0.7740   -0.0330   -0.1910 C   0  0  2  0  0  0  0  0  0  0  0  0
   -1.1560    1.3720    0.1190 C   0  0  0  0  0  0  0  0  0  0  0  0
   -2.4630    1.5700    0.7410 C   0  0  0  0  0  0  0  0  0  0  0  0
   -3.2520    0.6630    1.0570 O   0  0  0  0  0  0  0  0  0  0  0  0
   -2.8460    2.8860    0.9980 O   0  0  0  0  0  0  0  0  0  0  0  0
   -4.0940    3.1760    1.5990 C   0  0  0  0  0  0  0  0  0  0  0  0
   -4.1820    4.6740    1.7290 C   0  0  0  0  0  0  0  0  0  0  0  0
   -5.1870    5.2360    2.2340 O   0  0  0  0  0  0  0  0  0  0  0  0
   -3.1580    5.5070    1.2980 O   0  0  0  0  0  0  0  0  0  0  0  0
    0.5530   -0.0240   -0.6020 O   0  0  0  0  0  0  0  0  0  0  0  0
    1.3870   -0.7030    0.2740 C   0  0  0  0  0  0  0  0  0  0  0  0
    2.8170   -0.7000   -0.1560 C   0  0  2  0  0  0  0  0  0  0  0  0
    3.5810   -1.3850    0.7470 O   0  0  0  0  0  0  0  0  0  0  0  0
    4.3850   -0.5170    1.4410 C   0  0  1  0  0  0  0  0  0  0  0  0
    3.8860   -0.2380    2.8420 C   0  0  0  0  0  0  0  0  0  0  0  0
    5.6730   -1.0810    1.4690 O   0  0  0  0  0  0  0  0  0  0  0  0
    6.0420   -0.9660    0.1300 C   0  0  2  0  0  0  0  0  0  0  0  0
    7.3330   -1.3640   -0.1160 O   0  0  0  0  0  0  0  0  0  0  0  0
    5.8730    0.5480   -0.0510 C   0  0  1  0  0  0  0  0  0  0  0  0
    5.8850    0.9260   -1.3680 O   0  0  0  0  0  0  0  0  0  0  0  0
    4.5410    0.7460    0.6360 C   0  0  1  0  0  0  0  0  0  0  0  0
    3.3860    0.6890   -0.3090 C   0  0  1  0  0  0  0  0  0  0  0  0
    3.7310    0.9640   -1.6130 O   0  0  0  0  0  0  0  0  0  0  0  0
   -4.4880   -2.7430   -1.3270 C   0  0  2  0  0  0  0  0  0  0  0  0
   -5.3030   -2.4270   -0.2500 O   0  0  0  0  0  0  0  0  0  0  0  0
   -3.5120   -3.8120   -0.9110 C   0  0  0  0  0  0  0  0  0  0  0  0
   -2.7010   -3.4070    0.1430 O   0  0  0  0  0  0  0  0  0  0  0  0
  2  1  1  1
  2  3  1  0
  2 29  1  0
  3  4  1  0
  4  5  2  0
  4  6  1  0
  6  7  1  6
  6 15  1  0
  7  8  1  0
  8  9  2  0
  8 10  1  0
 10 11  1  0
 11 12  1  0
 12 13  2  0
 12 14  1  0
 15 16  1  0
 17 16  1  1
 17 18  1  0
 17 27  1  0
 18 19  1  0
 19 20  1  1
 19 21  1  0
 26 19  1  1
 21 22  1  0
 22 23  1  1
 22 24  1  0
 24 25  1  6
 24 26  1  0
 26 27  1  0
 27 28  1  6
 29 30  1  1
 29 31  1  0
 31 32  1  0
M  END
