
     RDKit          3D

 33 34  0  0  0  0  0  0  0  0999 V2000
    2.5410   -0.3560   -0.3100 O   0  0  0  0  0  0  0  0  0  0  0  0
    2.3770    0.5890    0.4960 C   0  0  0  0  0  0  0  0  0  0  0  0
    3.5590    1.0690    1.0360 O   0  0  0  0  0  0  0  0  0  0  0  0
    4.7790    0.5520    0.7130 C   0  0  2  0  0  0  0  0  0  0  0  0
    5.3470   -0.1310    1.9660 C   0  0  0  0  0  0  0  0  0  0  0  0
    6.4660   -1.0080    1.5110 C   0  0  0  0  0  0  0  0  0  0  0  0
    7.0050   -0.4920    0.1790 C   0  0  0  0  0  0  0  0  0  0  0  0
    7.0290    0.8720    0.1000 O   0  0  0  0  0  0  0  0  0  0  0  0
    5.7980    1.4860    0.1500 C   0  0  1  0  0  0  0  0  0  0  0  0
    5.4040    1.8120   -1.2870 C   0  0  0  0  0  0  0  0  0  0  0  0
    5.3590    0.5810   -1.9650 O   0  0  0  0  0  0  0  0  0  0  0  0
    1.0450    1.1550    0.8500 C   0  0  2  0  0  0  0  0  0  0  0  0
    1.3220    2.2510    1.6990 O   0  0  0  0  0  0  0  0  0  0  0  0
    0.3010    0.0850    1.6610 C   0  0  1  0  0  0  0  0  0  0  0  0
   -0.8630    0.7010    2.1620 O   0  0  0  0  0  0  0  0  0  0  0  0
   -0.1340   -0.9850    0.6820 C   0  0  0  0  0  0  0  0  0  0  0  0
   -0.8450   -0.3130   -0.3640 O   0  0  0  0  0  0  0  0  0  0  0  0
   -1.3900   -0.9850   -1.4380 C   0  0  0  0  0  0  0  0  0  0  0  0
   -1.2470   -2.2350   -1.4810 O   0  0  0  0  0  0  0  0  0  0  0  0
   -2.1300   -0.2950   -2.5280 C   0  0  2  0  0  0  0  0  0  0  0  0
   -2.5800   -1.1960   -3.4890 O   0  0  0  0  0  0  0  0  0  0  0  0
   -1.3180    0.6390   -3.1920 O   0  0  0  0  0  0  0  0  0  0  0  0
   -3.2620    0.4770   -1.8830 C   0  0  0  0  0  0  0  0  0  0  0  0
   -4.1380   -0.5270   -1.1640 C   0  0  2  0  0  0  0  0  0  0  0  0
   -4.6580   -1.4720   -2.0410 O   0  0  0  0  0  0  0  0  0  0  0  0
   -5.3010    0.1440   -0.4850 C   0  0  2  0  0  0  0  0  0  0  0  0
   -6.1450    0.7760   -1.3870 O   0  0  0  0  0  0  0  0  0  0  0  0
   -4.8570    1.0690    0.6360 C   0  0  0  0  0  0  0  0  0  0  0  0
   -4.4630    0.1260    1.6000 O   0  0  0  0  0  0  0  0  0  0  0  0
   -5.2650   -0.9780    1.4420 C   0  0  1  0  0  0  0  0  0  0  0  0
   -6.2380   -1.0120    2.6030 C   0  0  0  0  0  0  0  0  0  0  0  0
   -7.0560   -2.1250    2.4560 O   0  0  0  0  0  0  0  0  0  0  0  0
   -5.9650   -0.8450    0.2500 O   0  0  0  0  0  0  0  0  0  0  0  0
  1  2  2  0
  2  3  1  0
  2 12  1  0
  4  3  1  1
  4  5  1  0
  4  9  1  0
  5  6  1  0
  6  7  1  0
  7  8  1  0
  8  9  1  0
  9 10  1  6
 10 11  1  0
 12 13  1  1
 12 14  1  0
 14 15  1  6
 14 16  1  0
 16 17  1  0
 17 18  1  0
 18 19  2  0
 18 20  1  0
 20 21  1  6
 20 22  1  0
 20 23  1  0
 23 24  1  0
 24 25  1  6
 24 26  1  0
 26 27  1  6
 26 28  1  0
 26 33  1  0
 28 29  1  0
 29 30  1  0
 30 31  1  1
 30 33  1  0
 31 32  1  0
M  END
