
     RDKit          3D

 32 34  0  0  0  0  0  0  0  0999 V2000
   -2.2040   -1.9230   -0.5290 C   0  0  0  0  0  0  0  0  0  0  0  0
   -1.9080   -0.4950   -0.7090 C   0  0  1  0  0  0  0  0  0  0  0  0
   -1.5310    0.2030    0.4460 O   0  0  0  0  0  0  0  0  0  0  0  0
   -0.7810   -0.3230   -1.5850 O   0  0  0  0  0  0  0  0  0  0  0  0
    0.3030   -0.8610   -0.9470 C   0  0  2  0  0  0  0  0  0  0  0  0
    1.1780    0.2240   -0.5350 O   0  0  0  0  0  0  0  0  0  0  0  0
    2.1790   -0.4980    0.0680 C   0  0  2  0  0  0  0  0  0  0  0  0
    3.3520    0.2700    0.2550 O   0  0  0  0  0  0  0  0  0  0  0  0
    3.8820    0.5170    1.5060 C   0  0  0  0  0  0  0  0  0  0  0  0
    3.2990    0.0430    2.5070 O   0  0  0  0  0  0  0  0  0  0  0  0
    5.1280    1.3300    1.7360 C   0  0  2  0  0  0  0  0  0  0  0  0
    5.5780    1.7360    0.4960 O   0  0  0  0  0  0  0  0  0  0  0  0
    6.1130    0.3890    2.3700 C   0  0  0  0  0  0  0  0  0  0  0  0
    7.3840    0.9080    2.6050 O   0  0  0  0  0  0  0  0  0  0  0  0
    8.2730    1.3220    1.6460 C   0  0  0  0  0  0  0  0  0  0  0  0
    8.0350    1.2700    0.4200 O   0  0  0  0  0  0  0  0  0  0  0  0
    9.5200    1.8350    2.0050 O   0  0  0  0  0  0  0  0  0  0  0  0
    2.4850   -1.6720   -0.8490 C   0  0  0  0  0  0  0  0  0  0  0  0
    1.2820   -1.5980   -1.8080 C   0  0  1  0  0  0  0  0  0  0  0  0
    0.9150   -2.8560   -2.2040 O   0  0  0  0  0  0  0  0  0  0  0  0
    1.7660   -0.7420   -2.9640 C   0  0  0  0  0  0  0  0  0  0  0  0
    2.8660   -1.3770   -3.5240 O   0  0  0  0  0  0  0  0  0  0  0  0
   -3.0780    0.2560   -1.3090 C   0  0  1  0  0  0  0  0  0  0  0  0
   -3.6100   -0.3810   -2.3990 O   0  0  0  0  0  0  0  0  0  0  0  0
   -4.0010    0.7330   -0.2660 C   0  0  1  0  0  0  0  0  0  0  0  0
   -5.1860    1.5110   -0.8940 C   0  0  0  0  0  0  0  0  0  0  0  0
   -6.2950    1.0880    0.0390 C   0  0  1  0  0  0  0  0  0  0  0  0
   -6.0480   -0.2980    0.0750 O   0  0  0  0  0  0  0  0  0  0  0  0
   -4.7190   -0.2320    0.5820 C   0  0  2  0  0  0  0  0  0  0  0  0
   -5.0460    0.4810    1.9160 C   0  0  0  0  0  0  0  0  0  0  0  0
   -5.9560    1.5770    1.4040 C   0  0  2  0  0  0  0  0  0  0  0  0
   -7.0670    1.7540    2.2190 O   0  0  0  0  0  0  0  0  0  0  0  0
  2  1  1  1
  2  3  1  0
  2  4  1  0
  2 23  1  0
  5  4  1  6
  5  6  1  0
  5 19  1  0
  6  7  1  0
  7  8  1  6
  7 18  1  0
  8  9  1  0
  9 10  2  0
  9 11  1  0
 11 12  1  6
 11 13  1  0
 13 14  1  0
 14 15  1  0
 15 16  2  0
 15 17  1  0
 18 19  1  0
 19 20  1  6
 19 21  1  0
 21 22  1  0
 23 24  1  6
 23 25  1  0
 25 26  1  6
 25 29  1  0
 27 26  1  6
 27 28  1  0
 27 31  1  0
 28 29  1  0
 29 30  1  1
 30 31  1  0
 31 32  1  1
M  END
