
     RDKit          3D

 32 33  0  0  0  0  0  0  0  0999 V2000
    4.3870   -0.7260   -1.1500 O   0  0  0  0  0  0  0  0  0  0  0  0
    5.1330   -0.4350   -0.2080 C   0  0  0  0  0  0  0  0  0  0  0  0
    6.5550   -0.8870   -0.2140 C   0  0  0  0  0  0  0  0  0  0  0  0
    6.8490   -1.6190   -1.3580 O   0  0  0  0  0  0  0  0  0  0  0  0
    4.6420    0.3090    0.8470 O   0  0  0  0  0  0  0  0  0  0  0  0
    3.3210    0.7820    0.9510 C   0  0  0  0  0  0  0  0  0  0  0  0
    2.3760   -0.3720    0.9590 C   0  0  1  0  0  0  0  0  0  0  0  0
    2.7380   -1.2380    2.1720 C   0  0  2  0  0  0  0  0  0  0  0  0
    3.7570   -2.1270    1.8400 O   0  0  0  0  0  0  0  0  0  0  0  0
    1.5290   -1.9090    2.7260 C   0  0  0  0  0  0  0  0  0  0  0  0
    0.4980   -2.1120    1.8610 O   0  0  0  0  0  0  0  0  0  0  0  0
   -0.0170   -1.0140    1.2500 C   0  0  1  0  0  0  0  0  0  0  0  0
   -1.1690   -0.5110    1.9000 O   0  0  0  0  0  0  0  0  0  0  0  0
   -1.7970    0.4150    1.0340 C   0  0  2  0  0  0  0  0  0  0  0  0
   -2.0830   -0.2030   -0.1360 O   0  0  0  0  0  0  0  0  0  0  0  0
   -3.3890   -0.3060   -0.4910 C   0  0  0  0  0  0  0  0  0  0  0  0
   -4.2430   -1.0710    0.4900 C   0  0  2  0  0  0  0  0  0  0  0  0
   -3.8370   -2.3640    0.6830 O   0  0  0  0  0  0  0  0  0  0  0  0
   -5.6960   -1.0910    0.0650 C   0  0  1  0  0  0  0  0  0  0  0  0
   -6.2160    0.1620   -0.1590 O   0  0  0  0  0  0  0  0  0  0  0  0
   -5.8490   -2.0030   -1.1350 C   0  0  0  0  0  0  0  0  0  0  0  0
   -7.2240   -2.1360   -1.4280 O   0  0  0  0  0  0  0  0  0  0  0  0
   -0.8580    1.6010    0.9050 C   0  0  2  0  0  0  0  0  0  0  0  0
   -1.4210    2.7030    0.3220 O   0  0  0  0  0  0  0  0  0  0  0  0
    0.4840    1.2000    0.3540 C   0  0  2  0  0  0  0  0  0  0  0  0
    0.5070    0.8280   -1.0790 C   0  0  0  0  0  0  0  0  0  0  0  0
    0.0800    1.8750   -2.0410 C   0  0  2  0  0  0  0  0  0  0  0  0
    0.1850    1.3050   -3.3340 O   0  0  0  0  0  0  0  0  0  0  0  0
    0.9050    3.1160   -2.0290 C   0  0  0  0  0  0  0  0  0  0  0  0
    2.2460    2.8830   -2.3040 O   0  0  0  0  0  0  0  0  0  0  0  0
    0.9770    0.1000    1.2370 C   0  0  2  0  0  0  0  0  0  0  0  0
    0.9980    0.6270    2.5520 O   0  0  0  0  0  0  0  0  0  0  0  0
  1  2  2  0
  2  3  1  0
  2  5  1  0
  3  4  1  0
  5  6  1  0
  7  6  1  1
  7  8  1  0
  7 31  1  0
  8  9  1  6
  8 10  1  0
 10 11  1  0
 12 11  1  1
 12 13  1  0
 12 31  1  0
 13 14  1  0
 14 15  1  6
 14 23  1  0
 15 16  1  0
 16 17  1  0
 17 18  1  6
 17 19  1  0
 19 20  1  6
 19 21  1  0
 21 22  1  0
 23 24  1  6
 23 25  1  0
 25 26  1  6
 25 31  1  0
 26 27  1  0
 27 28  1  6
 27 29  1  0
 29 30  1  0
 31 32  1  1
M  END
