
     RDKit          3D

 33 34  0  0  0  0  0  0  0  0999 V2000
   -4.5230    0.2210    1.3120 O   0  0  0  0  0  0  0  0  0  0  0  0
   -3.6880    0.1950    0.3350 C   0  0  0  0  0  0  0  0  0  0  0  0
   -3.6830    1.1550   -0.6630 O   0  0  0  0  0  0  0  0  0  0  0  0
   -2.6360    2.0870   -0.8890 C   0  0  0  0  0  0  0  0  0  0  0  0
   -2.9990    3.4480   -0.2780 C   0  0  0  0  0  0  0  0  0  0  0  0
   -1.9900    3.8790    0.5810 O   0  0  0  0  0  0  0  0  0  0  0  0
   -0.7780    4.0840   -0.0290 C   0  0  0  0  0  0  0  0  0  0  0  0
    0.3100    3.6640    0.9570 C   0  0  0  0  0  0  0  0  0  0  0  0
    1.5630    3.6300    0.3980 O   0  0  0  0  0  0  0  0  0  0  0  0
    2.2380    2.4210    0.5980 C   0  0  0  0  0  0  0  0  0  0  0  0
    1.5400    1.3910   -0.2570 C   0  0  1  0  0  0  0  0  0  0  0  0
    1.4230    1.9180   -1.5600 O   0  0  0  0  0  0  0  0  0  0  0  0
    2.2510    0.0870   -0.3740 C   0  0  1  0  0  0  0  0  0  0  0  0
    2.9700    0.0000   -1.5900 O   0  0  0  0  0  0  0  0  0  0  0  0
    3.1880   -0.1440    0.6310 O   0  0  0  0  0  0  0  0  0  0  0  0
    3.9810   -1.2180    0.1650 C   0  0  1  0  0  0  0  0  0  0  0  0
    5.0730   -1.4170    1.2130 C   0  0  0  0  0  0  0  0  0  0  0  0
    5.8830   -2.4730    0.7920 O   0  0  0  0  0  0  0  0  0  0  0  0
    3.1800   -2.3650    0.2050 O   0  0  0  0  0  0  0  0  0  0  0  0
    2.1360   -2.3200   -0.6990 C   0  0  0  0  0  0  0  0  0  0  0  0
    1.2830   -1.0970   -0.3390 C   0  0  1  0  0  0  0  0  0  0  0  0
    0.8130   -1.2920    1.0610 C   0  0  0  0  0  0  0  0  0  0  0  0
    1.8780   -1.5560    1.9140 O   0  0  0  0  0  0  0  0  0  0  0  0
    0.1950   -0.8750   -1.3380 C   0  0  1  0  0  0  0  0  0  0  0  0
    0.8110   -1.0670   -2.6060 O   0  0  0  0  0  0  0  0  0  0  0  0
   -0.9630   -1.7960   -1.1880 C   0  0  0  0  0  0  0  0  0  0  0  0
   -0.6820   -3.0210   -1.4220 O   0  0  0  0  0  0  0  0  0  0  0  0
   -2.1780   -1.3050   -0.8330 O   0  0  0  0  0  0  0  0  0  0  0  0
   -2.7390   -0.9460    0.3710 C   0  0  2  0  0  0  0  0  0  0  0  0
   -3.5310   -2.1520    0.9020 C   0  0  2  0  0  0  0  0  0  0  0  0
   -2.6730   -3.2350    1.0830 O   0  0  0  0  0  0  0  0  0  0  0  0
   -4.5990   -2.5550   -0.0910 C   0  0  0  0  0  0  0  0  0  0  0  0
   -5.5150   -1.5550   -0.3520 O   0  0  0  0  0  0  0  0  0  0  0  0
  1  2  2  0
  2  3  1  0
  2 29  1  0
  3  4  1  0
  4  5  1  0
  5  6  1  0
  6  7  1  0
  7  8  1  0
  8  9  1  0
  9 10  1  0
 10 11  1  0
 11 12  1  6
 11 13  1  0
 13 14  1  6
 13 15  1  0
 13 21  1  0
 15 16  1  0
 16 17  1  1
 16 19  1  0
 17 18  1  0
 19 20  1  0
 20 21  1  0
 21 22  1  1
 21 24  1  0
 22 23  1  0
 24 25  1  6
 24 26  1  0
 26 27  2  0
 26 28  1  0
 29 28  1  6
 29 30  1  0
 30 31  1  6
 30 32  1  0
 32 33  1  0
M  END
