
     RDKit          3D

 32 33  0  0  0  0  0  0  0  0999 V2000
    6.7460   -1.8370   -0.4650 O   0  0  0  0  0  0  0  0  0  0  0  0
    7.4820   -1.0690    0.2060 C   0  0  0  0  0  0  0  0  0  0  0  0
    6.8180   -0.1920    1.2090 C   0  0  0  0  0  0  0  0  0  0  0  0
    5.4310   -0.3750    1.2380 O   0  0  0  0  0  0  0  0  0  0  0  0
    4.5890   -0.1730    0.1720 C   0  0  0  0  0  0  0  0  0  0  0  0
    5.0940    0.2060   -0.9180 O   0  0  0  0  0  0  0  0  0  0  0  0
    3.1070   -0.3870    0.2660 C   0  0  1  0  0  0  0  0  0  0  0  0
    2.5610    0.5290    1.3130 C   0  0  0  0  0  0  0  0  0  0  0  0
    1.5430    1.4470    0.6300 C   0  0  2  0  0  0  0  0  0  0  0  0
    1.0820    2.3410    1.5780 O   0  0  0  0  0  0  0  0  0  0  0  0
    0.4260    0.5200    0.1480 C   0  0  1  0  0  0  0  0  0  0  0  0
    0.0580   -0.2440    1.2540 O   0  0  0  0  0  0  0  0  0  0  0  0
   -0.7280    1.3850   -0.3140 C   0  0  0  0  0  0  0  0  0  0  0  0
   -1.8010    0.5870   -0.6650 O   0  0  0  0  0  0  0  0  0  0  0  0
   -2.8580    1.4070   -1.0900 C   0  0  1  0  0  0  0  0  0  0  0  0
   -3.2440    1.1440   -2.3890 O   0  0  0  0  0  0  0  0  0  0  0  0
   -3.9900    1.1850   -0.1110 C   0  0  1  0  0  0  0  0  0  0  0  0
   -5.1570    2.0660   -0.3480 C   0  0  0  0  0  0  0  0  0  0  0  0
   -6.3560    1.4730   -0.5580 O   0  0  0  0  0  0  0  0  0  0  0  0
   -6.6100    0.3220    0.1520 C   0  0  1  0  0  0  0  0  0  0  0  0
   -7.3350   -0.6130   -0.7970 C   0  0  0  0  0  0  0  0  0  0  0  0
   -7.6750   -1.8220   -0.2480 O   0  0  0  0  0  0  0  0  0  0  0  0
   -5.3980   -0.2930    0.7720 C   0  0  1  0  0  0  0  0  0  0  0  0
   -5.5530   -1.6890    1.2530 C   0  0  0  0  0  0  0  0  0  0  0  0
   -6.6150   -1.7450    2.1570 O   0  0  0  0  0  0  0  0  0  0  0  0
   -4.3510   -0.1590   -0.1390 O   0  0  0  0  0  0  0  0  0  0  0  0
    0.9720   -0.3610   -0.9290 C   0  0  0  0  0  0  0  0  0  0  0  0
    2.4730   -0.2380   -1.0790 C   0  0  2  0  0  0  0  0  0  0  0  0
    2.8870   -1.3400   -1.8560 O   0  0  0  0  0  0  0  0  0  0  0  0
    8.8410   -1.0210    0.0440 O   0  0  0  0  0  0  0  0  0  0  0  0
    9.4970   -1.8310   -0.8880 C   0  0  0  0  0  0  0  0  0  0  0  0
    9.2820   -3.1800   -0.6130 O   0  0  0  0  0  0  0  0  0  0  0  0
  1  2  2  0
  2  3  1  0
  2 30  1  0
  3  4  1  0
  4  5  1  0
  5  6  2  0
  7  5  1  6
  7  8  1  0
  7 28  1  0
  8  9  1  0
  9 10  1  1
  9 11  1  0
 11 12  1  1
 11 13  1  0
 11 27  1  0
 13 14  1  0
 14 15  1  0
 15 16  1  6
 15 17  1  0
 17 18  1  6
 17 26  1  0
 18 19  1  0
 19 20  1  0
 20 21  1  6
 20 23  1  0
 21 22  1  0
 23 24  1  6
 23 26  1  0
 24 25  1  0
 27 28  1  0
 28 29  1  6
 30 31  1  0
 31 32  1  0
M  END
