
     RDKit          3D

 33 33  0  0  0  0  0  0  0  0999 V2000
   -2.2600   -2.5130    3.2740 O   0  0  0  0  0  0  0  0  0  0  0  0
   -2.5270   -2.2930    2.0440 C   0  0  0  0  0  0  0  0  0  0  0  0
   -1.3370   -2.2300    1.1420 C   0  0  0  0  0  0  0  0  0  0  0  0
   -0.2960   -1.5600    1.8000 O   0  0  0  0  0  0  0  0  0  0  0  0
    0.3100   -0.6120    0.9530 C   0  0  2  0  0  0  0  0  0  0  0  0
    1.6390   -0.5430    1.3520 O   0  0  0  0  0  0  0  0  0  0  0  0
    2.5050   -0.9860    0.2800 C   0  0  2  0  0  0  0  0  0  0  0  0
    3.1220   -2.2640    0.8750 C   0  0  0  0  0  0  0  0  0  0  0  0
    2.0650   -3.1400    1.1720 O   0  0  0  0  0  0  0  0  0  0  0  0
    3.5100    0.1180    0.1200 C   0  0  2  0  0  0  0  0  0  0  0  0
    2.7540    1.3510   -0.0290 O   0  0  0  0  0  0  0  0  0  0  0  0
    4.3130    0.0870   -1.1480 C   0  0  2  0  0  0  0  0  0  0  0  0
    5.1430   -1.0990   -1.4270 C   0  0  0  0  0  0  0  0  0  0  0  0
    6.0980   -1.4090   -0.4780 O   0  0  0  0  0  0  0  0  0  0  0  0
    5.0860    1.3940   -1.3280 C   0  0  0  0  0  0  0  0  0  0  0  0
    6.0340    1.6220   -0.1750 C   0  0  0  0  0  0  0  0  0  0  0  0
    6.6910    2.8280   -0.4230 O   0  0  0  0  0  0  0  0  0  0  0  0
   -0.3380    0.7350    1.0850 C   0  0  1  0  0  0  0  0  0  0  0  0
    0.3980    1.5290    1.9600 O   0  0  0  0  0  0  0  0  0  0  0  0
   -0.4840    1.4660   -0.2200 C   0  0  0  0  0  0  0  0  0  0  0  0
   -1.7520    1.3570   -0.7610 O   0  0  0  0  0  0  0  0  0  0  0  0
   -2.6610    2.2820   -0.2560 C   0  0  2  0  0  0  0  0  0  0  0  0
   -2.4040    2.6740    1.0330 O   0  0  0  0  0  0  0  0  0  0  0  0
   -4.0410    1.6170   -0.3770 C   0  0  1  0  0  0  0  0  0  0  0  0
   -4.8360    2.1780    0.5950 O   0  0  0  0  0  0  0  0  0  0  0  0
   -4.5400    1.9270   -1.7720 C   0  0  0  0  0  0  0  0  0  0  0  0
   -4.5190    3.3370   -1.8820 O   0  0  0  0  0  0  0  0  0  0  0  0
   -3.8580    0.2870   -0.1340 O   0  0  0  0  0  0  0  0  0  0  0  0
   -4.9770   -0.4810   -0.0670 C   0  0  0  0  0  0  0  0  0  0  0  0
   -4.6380   -1.8470   -0.6550 C   0  0  2  0  0  0  0  0  0  0  0  0
   -5.6380   -2.2980   -1.5020 O   0  0  0  0  0  0  0  0  0  0  0  0
   -4.3430   -2.8230    0.4580 C   0  0  0  0  0  0  0  0  0  0  0  0
   -3.7940   -2.1250    1.5610 O   0  0  0  0  0  0  0  0  0  0  0  0
  1  2  2  0
  2  3  1  0
  2 33  1  0
  3  4  1  0
  4  5  1  0
  5  6  1  1
  5 18  1  0
  6  7  1  0
  7  8  1  1
  7 10  1  0
  8  9  1  0
 10 11  1  6
 10 12  1  0
 12 13  1  1
 12 15  1  0
 13 14  1  0
 15 16  1  0
 16 17  1  0
 18 19  1  1
 18 20  1  0
 20 21  1  0
 21 22  1  0
 22 23  1  1
 22 24  1  0
 24 25  1  1
 24 26  1  0
 24 28  1  0
 26 27  1  0
 28 29  1  0
 29 30  1  0
 30 31  1  1
 30 32  1  0
 32 33  1  0
M  END
