
     RDKit          3D

 36 39  0  0  0  0  0  0  0  0999 V2000
  -11.9620   -2.9880   -0.3630 O   0  0  0  0  0  0  0  0  0  0  0  0
  -10.8480   -2.3890   -0.2290 C   0  0  0  0  0  0  0  0  0  0  0  0
   -9.8820   -2.6020   -1.1780 C   0  0  0  0  0  0  0  0  0  0  0  0
   -8.6690   -1.9730   -1.0670 C   0  0  0  0  0  0  0  0  0  0  0  0
   -8.4670   -1.1370    0.0150 C   0  0  0  0  0  0  0  0  0  0  0  0
   -9.4570   -0.9320    0.9680 C   0  0  0  0  0  0  0  0  0  0  0  0
  -10.6140   -1.5660    0.8120 N   0  0  0  0  0  0  0  0  0  0  0  0
   -9.1190   -0.0090    2.0820 C   0  0  0  0  0  0  0  0  0  0  0  0
   -8.6200    1.2720    1.4030 C   0  0  0  0  0  0  0  0  0  0  0  0
   -7.4660    1.0310    0.4910 C   0  0  0  0  0  0  0  0  0  0  0  0
   -7.1950   -0.4200    0.2210 C   0  0  2  0  0  0  0  0  0  0  0  0
   -6.3050   -0.6390   -0.8770 N   0  0  0  0  0  0  0  0  0  0  0  0
   -4.9880   -0.0740   -0.6560 C   0  0  0  0  0  0  0  0  0  0  0  0
   -4.2180   -0.1490   -1.9580 C   0  0  0  0  0  0  0  0  0  0  0  0
   -2.8240    0.4240   -1.8080 C   0  0  0  0  0  0  0  0  0  0  0  0
   -2.0560   -0.3320   -0.7760 C   0  0  0  0  0  0  0  0  0  0  0  0
   -0.6530    0.2270   -0.6110 C   0  0  0  0  0  0  0  0  0  0  0  0
   -0.6480    1.6490   -0.1840 C   0  0  0  0  0  0  0  0  0  0  0  0
    0.7580    2.1630   -0.0580 C   0  0  0  0  0  0  0  0  0  0  0  0
    1.5040    1.3600    0.9700 C   0  0  0  0  0  0  0  0  0  0  0  0
    2.9210    1.9020    1.1380 C   0  0  0  0  0  0  0  0  0  0  0  0
    3.6870    1.8330   -0.1460 C   0  0  0  0  0  0  0  0  0  0  0  0
    5.0750    2.3800    0.0850 C   0  0  0  0  0  0  0  0  0  0  0  0
    5.8730    1.6470    1.1100 C   0  0  0  0  0  0  0  0  0  0  0  0
    6.0960    0.2740    0.8220 N   0  0  0  0  0  0  0  0  0  0  0  0
    7.0190   -0.0310   -0.2270 C   0  0  1  0  0  0  0  0  0  0  0  0
    8.1430    0.9220   -0.4280 C   0  0  0  0  0  0  0  0  0  0  0  0
    9.3410    0.7190    0.4390 C   0  0  0  0  0  0  0  0  0  0  0  0
    9.1770   -0.3240    1.4980 C   0  0  0  0  0  0  0  0  0  0  0  0
    8.6180   -1.5470    0.8650 C   0  0  0  0  0  0  0  0  0  0  0  0
    9.1500   -2.7470    1.1280 N   0  0  0  0  0  0  0  0  0  0  0  0
    8.6440   -3.8490    0.5560 C   0  0  0  0  0  0  0  0  0  0  0  0
    9.1540   -4.9970    0.8090 O   0  0  0  0  0  0  0  0  0  0  0  0
    7.5730   -3.7460   -0.3070 C   0  0  0  0  0  0  0  0  0  0  0  0
    7.0160   -2.4850   -0.5820 C   0  0  0  0  0  0  0  0  0  0  0  0
    7.5550   -1.3750    0.0180 C   0  0  0  0  0  0  0  0  0  0  0  0
  1  2  2  0
  2  3  1  0
  2  7  1  0
  3  4  2  0
  4  5  1  0
  5  6  2  0
  5 11  1  0
  6  7  1  0
  6  8  1  0
  8  9  1  0
  9 10  1  0
 10 11  1  0
 11 12  1  6
 12 13  1  0
 13 14  1  0
 14 15  1  0
 15 16  1  0
 16 17  1  0
 17 18  1  0
 18 19  1  0
 19 20  1  0
 20 21  1  0
 21 22  1  0
 22 23  1  0
 23 24  1  0
 24 25  1  0
 26 25  1  1
 26 27  1  0
 26 36  1  0
 27 28  1  0
 28 29  1  0
 29 30  1  0
 30 31  1  0
 30 36  2  0
 31 32  1  0
 32 33  2  0
 32 34  1  0
 34 35  2  0
 35 36  1  0
M  CHG  2  12   1  25   1
M  END
