
     RDKit          3D

 37 40  0  0  0  0  0  0  0  0999 V2000
    3.6010   -4.6550   -0.7180 C   0  0  0  0  0  0  0  0  0  0  0  0
    2.7660   -3.4160   -0.5500 C   0  0  0  0  0  0  0  0  0  0  0  0
    1.5320   -3.2940   -1.1220 C   0  0  0  0  0  0  0  0  0  0  0  0
    0.7850   -2.1480   -0.9570 C   0  0  0  0  0  0  0  0  0  0  0  0
    1.2160   -1.0720   -0.2220 C   0  0  0  0  0  0  0  0  0  0  0  0
    0.4060    0.1480   -0.0380 C   0  0  0  0  0  0  0  0  0  0  0  0
   -0.8890    0.1000   -0.7130 N   0  0  0  0  0  0  0  0  0  0  0  0
   -1.4400    1.4640   -0.5810 C   0  0  0  0  0  0  0  0  0  0  0  0
   -1.5560    1.9210    0.8280 C   0  0  0  0  0  0  0  0  0  0  0  0
   -2.0880    0.9660    1.6780 O   0  0  0  0  0  0  0  0  0  0  0  0
   -2.6880   -0.0890    0.9850 C   0  0  1  0  0  0  0  0  0  0  0  0
   -4.0710    0.2390    0.5990 C   0  0  0  0  0  0  0  0  0  0  0  0
   -4.9150    0.8150    1.5690 C   0  0  0  0  0  0  0  0  0  0  0  0
   -4.4110    1.0370    2.7950 F   0  0  0  0  0  0  0  0  0  0  0  0
   -6.2160    1.1520    1.3060 C   0  0  0  0  0  0  0  0  0  0  0  0
   -6.7640    0.9390    0.0650 C   0  0  0  0  0  0  0  0  0  0  0  0
   -8.1290    1.2870   -0.2310 N   0  0  0  0  0  0  0  0  0  0  0  0
   -5.9740    0.3860   -0.8910 C   0  0  0  0  0  0  0  0  0  0  0  0
   -6.5500    0.1420   -2.2620 C   0  0  2  0  0  0  0  0  0  0  0  0
   -6.4380   -1.2220   -2.5380 F   0  0  0  0  0  0  0  0  0  0  0  0
   -5.7550    0.7920   -3.1740 F   0  0  0  0  0  0  0  0  0  0  0  0
   -4.6550    0.0450   -0.6210 C   0  0  0  0  0  0  0  0  0  0  0  0
   -3.9530   -0.4890   -1.6320 F   0  0  0  0  0  0  0  0  0  0  0  0
   -1.8140   -0.7740    0.0360 C   0  0  0  0  0  0  0  0  0  0  0  0
    2.4910   -1.1880    0.3710 C   0  0  0  0  0  0  0  0  0  0  0  0
    3.0370    0.1860    1.2590 S   0  0  1  0  0  0  0  0  0  0  0  0
    1.9300    0.9840    1.9090 O   0  0  0  0  0  0  0  0  0  0  0  0
    4.0560   -0.2080    2.2900 O   0  0  0  0  0  0  0  0  0  0  0  0
    3.8020    1.3020    0.1980 N   0  0  0  0  0  0  0  0  0  0  0  0
    5.1210    1.7600    0.2400 C   0  0  0  0  0  0  0  0  0  0  0  0
    5.4460    3.1020   -0.0230 C   0  0  0  0  0  0  0  0  0  0  0  0
    6.7390    3.5560    0.0040 C   0  0  0  0  0  0  0  0  0  0  0  0
    7.7510    2.6800    0.2960 C   0  0  0  0  0  0  0  0  0  0  0  0
    7.4580    1.4110    0.5460 N   0  0  0  0  0  0  0  0  0  0  0  0
    6.1710    0.9410    0.5230 C   0  0  0  0  0  0  0  0  0  0  0  0
    3.2340   -2.3310    0.2060 C   0  0  0  0  0  0  0  0  0  0  0  0
    4.5820   -2.5420    0.8140 C   0  0  0  0  0  0  0  0  0  0  0  0
  1  2  1  0
  2  3  2  0
  2 36  1  0
  3  4  1  0
  4  5  2  0
  5  6  1  0
  5 25  1  0
  6  7  1  0
  7  8  1  0
  7 24  1  0
  8  9  1  0
  9 10  1  0
 10 11  1  0
 11 12  1  6
 11 24  1  0
 12 13  2  0
 12 22  1  0
 13 14  1  0
 13 15  1  0
 15 16  2  0
 16 17  1  0
 16 18  1  0
 18 19  1  0
 18 22  2  0
 19 20  1  6
 19 21  1  0
 22 23  1  0
 25 26  1  0
 25 36  2  0
 26 27  2  0
 26 28  2  0
 26 29  1  6
 29 30  1  0
 30 31  2  0
 30 35  1  0
 31 32  1  0
 32 33  2  0
 33 34  1  0
 34 35  2  0
 36 37  1  0
M  CHG  1  17   1
M  END
