
     RDKit          3D

 36 39  0  0  0  0  0  0  0  0999 V2000
   -0.1730    3.5940    0.4390 C   0  0  0  0  0  0  0  0  0  0  0  0
    0.7410    2.4990    0.1950 O   0  0  0  0  0  0  0  0  0  0  0  0
    0.2800    1.3770   -0.4830 C   0  0  0  0  0  0  0  0  0  0  0  0
   -0.9140    1.4210   -0.8090 O   0  0  0  0  0  0  0  0  0  0  0  0
    1.1790    0.2100   -0.7890 C   0  0  0  0  0  0  0  0  0  0  0  0
    0.6320   -0.9190   -1.4420 C   0  0  0  0  0  0  0  0  0  0  0  0
   -0.7560   -1.3360   -1.4550 N   0  0  0  0  0  0  0  0  0  0  0  0
   -1.5430   -1.1890   -0.3040 C   0  0  0  0  0  0  0  0  0  0  0  0
   -0.9950   -0.8110    0.7830 O   0  0  0  0  0  0  0  0  0  0  0  0
   -2.9530   -1.4370   -0.2420 N   0  0  0  0  0  0  0  0  0  0  0  0
   -3.6100   -1.2770    1.0330 C   0  0  0  0  0  0  0  0  0  0  0  0
   -5.0810   -1.4400    1.0310 C   0  0  2  0  0  0  0  0  0  0  0  0
   -5.5170   -1.2690    2.5210 C   0  0  0  0  0  0  0  0  0  0  0  0
   -5.5240   -2.7870    0.6180 C   0  0  0  0  0  0  0  0  0  0  0  0
   -5.7820   -0.3350    0.3400 C   0  0  0  0  0  0  0  0  0  0  0  0
   -5.3560    0.9550    0.5420 C   0  0  0  0  0  0  0  0  0  0  0  0
   -6.0180    2.0050   -0.0990 C   0  0  0  0  0  0  0  0  0  0  0  0
   -7.0620    1.7650   -0.9100 N   0  0  0  0  0  0  0  0  0  0  0  0
   -7.4880    0.5200   -1.1150 C   0  0  0  0  0  0  0  0  0  0  0  0
   -6.8380   -0.5580   -0.4800 C   0  0  0  0  0  0  0  0  0  0  0  0
    1.9980   -1.8650   -1.8830 S   0  0  0  0  0  0  0  0  0  0  0  0
    3.2470   -0.7950   -1.2040 C   0  0  0  0  0  0  0  0  0  0  0  0
    2.5370    0.2180   -0.6900 C   0  0  0  0  0  0  0  0  0  0  0  0
    3.3510    1.3200   -0.0040 C   0  0  0  0  0  0  0  0  0  0  0  0
    4.6960    1.3720   -0.6430 C   0  0  0  0  0  0  0  0  0  0  0  0
    5.3590    0.1010   -0.6050 N   0  0  0  0  0  0  0  0  0  0  0  0
    6.6370   -0.0700    0.0100 C   0  0  0  0  0  0  0  0  0  0  0  0
    6.9420   -1.0980    0.8630 C   0  0  0  0  0  0  0  0  0  0  0  0
    8.1990   -1.2610    1.3990 C   0  0  0  0  0  0  0  0  0  0  0  0
    9.2010   -0.3930    1.0980 C   0  0  0  0  0  0  0  0  0  0  0  0
   10.4600   -0.5390    1.6170 F   0  0  0  0  0  0  0  0  0  0  0  0
    8.9310    0.6530    0.2430 C   0  0  0  0  0  0  0  0  0  0  0  0
    9.9310    1.5050   -0.0470 F   0  0  0  0  0  0  0  0  0  0  0  0
    7.6570    0.8050   -0.2920 C   0  0  0  0  0  0  0  0  0  0  0  0
    7.4510    1.8560   -1.1190 F   0  0  0  0  0  0  0  0  0  0  0  0
    4.7100   -1.0110   -1.2010 C   0  0  0  0  0  0  0  0  0  0  0  0
  1  2  1  0
  2  3  1  0
  3  4  2  0
  3  5  1  0
  5  6  2  0
  5 23  1  0
  6  7  1  0
  6 21  1  0
  7  8  1  0
  8  9  2  0
  8 10  1  0
 10 11  1  0
 11 12  1  0
 12 13  1  1
 12 14  1  0
 12 15  1  0
 15 16  2  0
 15 20  1  0
 16 17  1  0
 17 18  2  0
 18 19  1  0
 19 20  2  0
 21 22  1  0
 22 23  2  0
 22 36  1  0
 23 24  1  0
 24 25  1  0
 25 26  1  0
 26 27  1  0
 26 36  1  0
 27 28  2  0
 27 34  1  0
 28 29  1  0
 29 30  2  0
 30 31  1  0
 30 32  1  0
 32 33  1  0
 32 34  2  0
 34 35  1  0
M  CHG  1  18   1
M  END
