
     RDKit          3D

 37 40  0  0  0  0  0  0  0  0999 V2000
   -6.8560   -1.7450    3.1500 C   0  0  0  0  0  0  0  0  0  0  0  0
   -7.0050   -0.7620    2.3100 C   0  0  0  0  0  0  0  0  0  0  0  0
   -7.9040    0.3820    2.6490 C   0  0  0  0  0  0  0  0  0  0  0  0
   -8.9290    0.5390    1.7620 F   0  0  0  0  0  0  0  0  0  0  0  0
   -6.3230   -0.7070    1.0090 C   0  0  0  0  0  0  0  0  0  0  0  0
   -5.4820   -1.7150    0.5820 C   0  0  0  0  0  0  0  0  0  0  0  0
   -4.8480   -1.6300   -0.6610 C   0  0  0  0  0  0  0  0  0  0  0  0
   -5.0280   -0.5560   -1.5050 C   0  0  0  0  0  0  0  0  0  0  0  0
   -5.8660    0.4530   -1.0840 C   0  0  0  0  0  0  0  0  0  0  0  0
   -6.4910    0.3590    0.1520 C   0  0  0  0  0  0  0  0  0  0  0  0
   -5.9480    1.5320   -2.1120 C   0  0  0  0  0  0  0  0  0  0  0  0
   -4.7540    1.2690   -2.9690 C   0  0  0  0  0  0  0  0  0  0  0  0
   -4.4930   -0.2160   -2.8470 C   0  0  1  0  0  0  0  0  0  0  0  0
   -3.0650   -0.4830   -2.9840 C   0  0  0  0  0  0  0  0  0  0  0  0
   -2.6820   -1.2990   -3.8570 O   0  0  0  0  0  0  0  0  0  0  0  0
   -2.1710    0.2370   -2.0740 C   0  0  0  0  0  0  0  0  0  0  0  0
   -2.1260    1.0250   -1.1840 N   0  0  0  0  0  0  0  0  0  0  0  0
   -1.0580    1.4470   -0.5890 N   0  0  0  0  0  0  0  0  0  0  0  0
    0.0550    1.0740   -0.8810 C   0  0  0  0  0  0  0  0  0  0  0  0
    1.4330    1.2890   -0.4850 N   0  0  0  0  0  0  0  0  0  0  0  0
    2.5050    0.6120   -1.1220 C   0  0  0  0  0  0  0  0  0  0  0  0
    2.2330   -0.1890   -2.0470 O   0  0  0  0  0  0  0  0  0  0  0  0
    3.8970    0.8010   -0.7550 C   0  0  0  0  0  0  0  0  0  0  0  0
    4.1610    1.6020    0.1690 O   0  0  0  0  0  0  0  0  0  0  0  0
    4.9580    0.1220   -1.3940 N   0  0  0  0  0  0  0  0  0  0  0  0
    6.0990    0.1620   -0.5510 C   0  0  0  0  0  0  0  0  0  0  0  0
    7.0760    1.1480   -0.6690 C   0  0  0  0  0  0  0  0  0  0  0  0
    8.1580    1.1230    0.1870 C   0  0  0  0  0  0  0  0  0  0  0  0
    8.3010    0.1470    1.1590 C   0  0  0  0  0  0  0  0  0  0  0  0
    9.4590    0.1050    2.0880 C   0  0  0  0  0  0  0  0  0  0  0  0
    7.3370   -0.8190    1.2690 C   0  0  0  0  0  0  0  0  0  0  0  0
    7.4480   -1.8810    2.2920 C   0  0  2  0  0  0  0  0  0  0  0  0
    7.4850   -1.3690    3.5740 F   0  0  0  0  0  0  0  0  0  0  0  0
    8.5880   -2.6320    2.0710 F   0  0  0  0  0  0  0  0  0  0  0  0
    6.3160   -2.7020    2.2490 F   0  0  0  0  0  0  0  0  0  0  0  0
    6.2500   -0.7990    0.4140 C   0  0  0  0  0  0  0  0  0  0  0  0
   -0.3430   -0.1230   -2.2710 S   0  0  0  0  0  0  0  0  0  0  0  0
  1  2  2  0
  2  3  1  0
  2  5  1  0
  3  4  1  0
  5  6  2  0
  5 10  1  0
  6  7  1  0
  7  8  2  0
  8  9  1  0
  8 13  1  0
  9 10  2  0
  9 11  1  0
 11 12  1  0
 12 13  1  0
 13 14  1  1
 14 15  2  0
 14 16  1  0
 16 17  2  0
 16 37  1  0
 17 18  1  0
 18 19  2  0
 19 20  1  0
 19 37  1  0
 20 21  1  0
 21 22  2  0
 21 23  1  0
 23 24  2  0
 23 25  1  0
 25 26  1  0
 26 27  2  0
 26 36  1  0
 27 28  1  0
 28 29  2  0
 29 30  1  0
 29 31  1  0
 31 32  1  0
 31 36  2  0
 32 33  1  1
 32 34  1  0
 32 35  1  0
M  CHG  1  25   1
M  END
