
     RDKit          3D

 37 41  0  0  0  0  0  0  0  0999 V2000
   -1.1070   -2.2220    1.8010 C   0  0  0  0  0  0  0  0  0  0  0  0
   -0.1130   -1.2110    1.3640 C   0  0  0  0  0  0  0  0  0  0  0  0
    1.0070   -0.9030    2.0280 N   0  0  0  0  0  0  0  0  0  0  0  0
    1.6070    0.0430    1.2970 C   0  0  0  0  0  0  0  0  0  0  0  0
    2.8610    0.7040    1.6050 C   0  0  0  0  0  0  0  0  0  0  0  0
    3.4830    0.4040    2.6660 O   0  0  0  0  0  0  0  0  0  0  0  0
    3.4230    1.6860    0.7490 N   0  0  0  0  0  0  0  0  0  0  0  0
    4.6740    2.3000    1.1260 C   0  0  0  0  0  0  0  0  0  0  0  0
    5.7640    1.3410    0.8570 C   0  0  0  0  0  0  0  0  0  0  0  0
    6.4370    0.7180    1.8920 C   0  0  0  0  0  0  0  0  0  0  0  0
    7.4690   -0.1910    1.6650 C   0  0  0  0  0  0  0  0  0  0  0  0
    7.8370   -0.4840    0.3930 C   0  0  0  0  0  0  0  0  0  0  0  0
    7.1810    0.1240   -0.6570 C   0  0  0  0  0  0  0  0  0  0  0  0
    6.1460    1.0360   -0.4320 C   0  0  0  0  0  0  0  0  0  0  0  0
    7.6320   -0.2460   -2.0220 C   0  0  0  0  0  0  0  0  0  0  0  0
    9.1230   -0.1020   -2.0880 C   0  0  0  0  0  0  0  0  0  0  0  0
    9.8530   -0.6240   -0.8950 C   0  0  0  0  0  0  0  0  0  0  0  0
    8.9370   -1.4440    0.0260 C   0  0  0  0  0  0  0  0  0  0  0  0
    0.8560    0.3370    0.1550 C   0  0  0  0  0  0  0  0  0  0  0  0
   -0.2290   -0.4580    0.2050 C   0  0  0  0  0  0  0  0  0  0  0  0
   -1.3360   -0.5460   -0.7790 C   0  0  2  0  0  0  0  0  0  0  0  0
   -1.2200    0.6000   -1.7450 C   0  0  0  0  0  0  0  0  0  0  0  0
   -2.5980   -0.3790   -0.0200 N   0  0  0  0  0  0  0  0  0  0  0  0
   -3.8340   -0.4840   -0.7140 C   0  0  0  0  0  0  0  0  0  0  0  0
   -3.7960   -0.9480   -2.0300 C   0  0  0  0  0  0  0  0  0  0  0  0
   -4.9600   -1.1180   -2.7280 C   0  0  0  0  0  0  0  0  0  0  0  0
   -6.1970   -0.8510   -2.1950 C   0  0  0  0  0  0  0  0  0  0  0  0
   -7.4270   -1.0600   -3.0110 C   0  0  0  0  0  0  0  0  0  0  0  0
   -6.2150   -0.3930   -0.8950 C   0  0  0  0  0  0  0  0  0  0  0  0
   -5.0370   -0.2070   -0.1490 C   0  0  0  0  0  0  0  0  0  0  0  0
   -4.9190    0.2590    1.0840 C   0  0  0  0  0  0  0  0  0  0  0  0
   -5.9800    0.6660    2.0170 C   0  0  0  0  0  0  0  0  0  0  0  0
   -7.2800    0.6700    1.8370 C   0  0  0  0  0  0  0  0  0  0  0  0
   -8.0070    1.1340    2.9680 N   0  0  0  0  0  0  0  0  0  0  0  0
   -8.0290    0.2760    0.6770 N   0  0  0  0  0  0  0  0  0  0  0  0
   -9.4600    0.3710    0.7870 C   0  0  0  0  0  0  0  0  0  0  0  0
   -7.4630   -0.1840   -0.5310 C   0  0  0  0  0  0  0  0  0  0  0  0
  1  2  1  0
  2  3  1  0
  2 20  2  0
  3  4  1  0
  4  5  1  0
  4 19  2  0
  5  6  2  0
  5  7  1  0
  7  8  1  0
  8  9  1  0
  9 10  2  0
  9 14  1  0
 10 11  1  0
 11 12  2  0
 12 13  1  0
 12 18  1  0
 13 14  2  0
 13 15  1  0
 15 16  1  0
 16 17  1  0
 17 18  1  0
 19 20  1  0
 20 21  1  0
 21 22  1  6
 21 23  1  0
 23 24  1  0
 24 25  2  0
 24 30  1  0
 25 26  1  0
 26 27  2  0
 27 28  1  0
 27 29  1  0
 29 30  1  0
 29 37  2  0
 30 31  2  0
 31 32  1  0
 32 33  2  0
 33 34  1  0
 33 35  1  0
 35 36  1  0
 35 37  1  0
M  END
