
     RDKit          3D

 37 40  0  0  0  0  0  0  0  0999 V2000
   -0.2870   -0.3620    0.9300 O   0  0  0  0  0  0  0  0  0  0  0  0
   -1.4060   -0.2740    0.4020 C   0  0  0  0  0  0  0  0  0  0  0  0
   -2.2290   -1.3960    0.3590 N   0  0  0  0  0  0  0  0  0  0  0  0
   -1.8400   -2.6590    0.9110 C   0  0  0  0  0  0  0  0  0  0  0  0
   -0.8360   -2.8140    1.7870 C   0  0  0  0  0  0  0  0  0  0  0  0
   -0.5230   -4.0640    2.2860 C   0  0  0  0  0  0  0  0  0  0  0  0
   -1.2100   -5.1260    1.9040 N   0  0  0  0  0  0  0  0  0  0  0  0
   -2.2220   -5.0020    1.0300 C   0  0  0  0  0  0  0  0  0  0  0  0
   -2.5980   -3.7930    0.4850 C   0  0  0  0  0  0  0  0  0  0  0  0
   -3.6010   -3.6430   -0.3680 F   0  0  0  0  0  0  0  0  0  0  0  0
   -1.8270    1.0240   -0.1790 C   0  0  0  0  0  0  0  0  0  0  0  0
   -3.0400    1.1030   -0.7270 C   0  0  0  0  0  0  0  0  0  0  0  0
   -3.6150    2.3010   -1.3330 C   0  0  0  0  0  0  0  0  0  0  0  0
   -3.7770    3.4480   -0.5780 C   0  0  0  0  0  0  0  0  0  0  0  0
   -4.2930    4.6050   -1.1310 C   0  0  0  0  0  0  0  0  0  0  0  0
   -4.6510    4.6130   -2.4510 C   0  0  0  0  0  0  0  0  0  0  0  0
   -4.4970    3.4870   -3.2230 C   0  0  0  0  0  0  0  0  0  0  0  0
   -4.8690    3.5370   -4.5770 O   0  0  0  0  0  0  0  0  0  0  0  0
   -3.9820    2.3350   -2.6710 C   0  0  0  0  0  0  0  0  0  0  0  0
   -0.9830    2.1790   -0.3130 C   0  0  0  0  0  0  0  0  0  0  0  0
    0.1850    2.4200    0.0920 C   0  0  0  0  0  0  0  0  0  0  0  0
    1.4050    1.5120    1.0310 S   0  0  0  0  0  0  0  0  0  0  0  0
    2.7550    2.0830   -0.0960 C   0  0  0  0  0  0  0  0  0  0  0  0
    3.7430    1.3500   -0.3310 N   0  0  0  0  0  0  0  0  0  0  0  0
    4.1400    0.1140    0.0840 C   0  0  0  0  0  0  0  0  0  0  0  0
    4.1200   -1.0720   -0.6210 C   0  0  0  0  0  0  0  0  0  0  0  0
    4.6510   -2.2260   -0.0940 C   0  0  0  0  0  0  0  0  0  0  0  0
    5.2250   -2.2820    1.1430 C   0  0  0  0  0  0  0  0  0  0  0  0
    5.8050   -3.5570    1.6930 C   0  0  1  0  0  0  0  0  0  0  0  0
    4.7310   -4.3160    2.1170 F   0  0  0  0  0  0  0  0  0  0  0  0
    6.4820   -4.1770    0.6550 F   0  0  0  0  0  0  0  0  0  0  0  0
    6.6080   -3.2720    2.7680 F   0  0  0  0  0  0  0  0  0  0  0  0
    5.2570   -1.1370    1.8710 C   0  0  0  0  0  0  0  0  0  0  0  0
    4.7310    0.0310    1.3590 C   0  0  0  0  0  0  0  0  0  0  0  0
    2.3230    3.3920   -0.3610 N   0  0  0  0  0  0  0  0  0  0  0  0
    0.9660    3.6420   -0.2730 C   0  0  0  0  0  0  0  0  0  0  0  0
    0.3870    4.7270   -0.4580 O   0  0  0  0  0  0  0  0  0  0  0  0
  1  2  2  0
  2  3  1  0
  2 11  1  0
  3  4  1  0
  4  5  2  0
  4  9  1  0
  5  6  1  0
  6  7  2  0
  7  8  1  0
  8  9  2  0
  9 10  1  0
 11 12  2  3
 11 20  1  0
 12 13  1  0
 13 14  2  0
 13 19  1  0
 14 15  1  0
 15 16  2  0
 16 17  1  0
 17 18  1  0
 17 19  2  0
 20 21  2  3
 21 22  1  0
 21 36  1  0
 22 23  1  0
 23 24  2  3
 23 35  1  0
 24 25  1  0
 25 26  2  0
 25 34  1  0
 26 27  1  0
 27 28  2  0
 28 29  1  0
 28 33  1  0
 29 30  1  1
 29 31  1  0
 29 32  1  0
 33 34  2  0
 35 36  1  0
 36 37  2  0
M  CHG  1   7   1
M  END
