
     RDKit          3D

 37 40  0  0  0  0  0  0  0  0999 V2000
   -7.1370    0.9970   -2.0160 C   0  0  0  0  0  0  0  0  0  0  0  0
   -6.1670    0.8020   -0.9080 C   0  0  0  0  0  0  0  0  0  0  0  0
   -5.6940    1.9310   -0.2780 C   0  0  0  0  0  0  0  0  0  0  0  0
   -4.7810    1.7960    0.7670 C   0  0  0  0  0  0  0  0  0  0  0  0
   -4.3020    2.9400    1.4050 O   0  0  0  0  0  0  0  0  0  0  0  0
   -4.3510    0.5490    1.1730 C   0  0  0  0  0  0  0  0  0  0  0  0
   -3.4200    0.5080    2.2440 N   0  0  0  0  0  0  0  0  0  0  0  0
   -3.7910    0.4400    3.6270 C   0  0  1  0  0  0  0  0  0  0  0  0
   -4.5540    1.5740    3.8970 F   0  0  0  0  0  0  0  0  0  0  0  0
   -4.4950   -0.7180    3.8430 F   0  0  0  0  0  0  0  0  0  0  0  0
   -2.6850    0.4400    4.4470 F   0  0  0  0  0  0  0  0  0  0  0  0
   -4.8230   -0.5970    0.5430 C   0  0  0  0  0  0  0  0  0  0  0  0
   -4.3680   -1.8840    0.9700 N   0  0  0  0  0  0  0  0  0  0  0  0
   -3.3460   -2.4600    0.4520 C   0  0  0  0  0  0  0  0  0  0  0  0
   -2.6220   -1.8690   -0.5520 C   0  0  0  0  0  0  0  0  0  0  0  0
   -1.5270   -2.5030   -1.0960 C   0  0  0  0  0  0  0  0  0  0  0  0
   -0.6240   -1.7140   -2.3840 S   0  0  0  0  0  0  0  0  0  0  0  0
   -0.0050   -2.7990   -3.2510 O   0  0  0  0  0  0  0  0  0  0  0  0
    0.6660   -0.7400   -1.6860 C   0  0  0  0  0  0  0  0  0  0  0  0
    1.8900   -1.3190   -1.4960 C   0  0  0  0  0  0  0  0  0  0  0  0
    2.9740   -0.6340   -0.9530 C   0  0  0  0  0  0  0  0  0  0  0  0
    2.8620    0.6810   -0.5730 C   0  0  0  0  0  0  0  0  0  0  0  0
    3.9120    1.4880    0.0010 C   0  0  0  0  0  0  0  0  0  0  0  0
    3.5350    2.7180    0.2620 O   0  0  0  0  0  0  0  0  0  0  0  0
    5.2140    1.1900    0.3130 N   0  0  0  0  0  0  0  0  0  0  0  0
    6.0260    2.2930    0.8990 C   0  0  0  0  0  0  0  0  0  0  0  0
    7.2530    2.4620    0.0370 C   0  0  0  0  0  0  0  0  0  0  0  0
    8.0330    1.1580   -0.0350 C   0  0  1  0  0  0  0  0  0  0  0  0
    9.2520    1.3810    0.5890 F   0  0  0  0  0  0  0  0  0  0  0  0
    7.3220    0.0800    0.6960 C   0  0  0  0  0  0  0  0  0  0  0  0
    5.8900   -0.0520    0.1490 C   0  0  0  0  0  0  0  0  0  0  0  0
    1.5880    1.2400   -0.7830 C   0  0  0  0  0  0  0  0  0  0  0  0
    0.5280    0.5650   -1.3170 C   0  0  0  0  0  0  0  0  0  0  0  0
   -1.1620   -3.7390   -0.6230 C   0  0  0  0  0  0  0  0  0  0  0  0
   -1.9110   -4.3170    0.3940 C   0  0  0  0  0  0  0  0  0  0  0  0
   -2.9780   -3.6610    0.9000 N   0  0  0  0  0  0  0  0  0  0  0  0
   -5.7230   -0.4220   -0.4850 C   0  0  0  0  0  0  0  0  0  0  0  0
  1  2  1  0
  2  3  2  0
  2 37  1  0
  3  4  1  0
  4  5  1  0
  4  6  2  0
  6  7  1  0
  6 12  1  0
  7  8  1  0
  8  9  1  1
  8 10  1  0
  8 11  1  0
 12 13  1  0
 12 37  2  0
 13 14  2  3
 14 15  1  0
 14 36  1  0
 15 16  2  0
 17 16  1  1
 16 34  1  0
 17 18  2  0
 17 19  1  0
 19 20  2  0
 19 33  1  0
 20 21  1  0
 21 22  2  0
 22 23  1  0
 22 32  1  0
 23 24  2  0
 23 25  1  0
 25 26  1  0
 25 31  1  0
 26 27  1  0
 27 28  1  0
 28 29  1  1
 28 30  1  0
 30 31  1  0
 32 33  2  0
 34 35  2  0
 35 36  1  0
M  CHG  1  13   1
M  END
