
     RDKit          3D

 36 39  0  0  0  0  0  0  0  0999 V2000
    4.3440    0.4240    1.4780 O   0  0  0  0  0  0  0  0  0  0  0  0
    3.4110    0.5510    0.6650 C   0  0  0  0  0  0  0  0  0  0  0  0
    3.4580    1.5640   -0.3150 N   0  0  0  0  0  0  0  0  0  0  0  0
    4.5150    2.4740   -0.4630 C   0  0  0  0  0  0  0  0  0  0  0  0
    4.4320    3.6170   -1.6580 S   0  0  0  0  0  0  0  0  0  0  0  0
    5.6500    2.5040    0.3160 O   0  0  0  0  0  0  0  0  0  0  0  0
    6.6880    1.5780    0.1510 C   0  0  0  0  0  0  0  0  0  0  0  0
    7.7810    1.7010    0.9770 C   0  0  0  0  0  0  0  0  0  0  0  0
    8.8230    0.7940    0.8310 C   0  0  0  0  0  0  0  0  0  0  0  0
    8.7510   -0.1980   -0.1210 C   0  0  0  0  0  0  0  0  0  0  0  0
    7.6380   -0.3100   -0.9520 C   0  0  0  0  0  0  0  0  0  0  0  0
    6.5880    0.6050   -0.8020 C   0  0  0  0  0  0  0  0  0  0  0  0
    2.2510   -0.3750    0.7320 C   0  0  0  0  0  0  0  0  0  0  0  0
    2.3780   -1.7350    0.7450 C   0  0  0  0  0  0  0  0  0  0  0  0
    1.2810   -2.5660    0.7930 C   0  0  0  0  0  0  0  0  0  0  0  0
    0.0200   -2.0420    0.8300 N   0  0  0  0  0  0  0  0  0  0  0  0
   -0.1390   -0.7140    0.8230 C   0  0  0  0  0  0  0  0  0  0  0  0
   -1.4230   -0.1430    0.7980 N   0  0  0  0  0  0  0  0  0  0  0  0
   -2.6700   -0.7560    0.8480 C   0  0  0  0  0  0  0  0  0  0  0  0
   -2.8790   -1.8650    1.6730 C   0  0  0  0  0  0  0  0  0  0  0  0
   -4.1270   -2.4100    1.8230 C   0  0  0  0  0  0  0  0  0  0  0  0
   -5.2260   -1.8850    1.1720 C   0  0  0  0  0  0  0  0  0  0  0  0
   -6.5600   -2.4830    1.3540 C   0  0  2  0  0  0  0  0  0  0  0  0
   -6.4070   -3.8100    1.6670 F   0  0  0  0  0  0  0  0  0  0  0  0
   -7.3600   -2.3660    0.2340 F   0  0  0  0  0  0  0  0  0  0  0  0
   -7.2410   -1.8840    2.4050 F   0  0  0  0  0  0  0  0  0  0  0  0
   -4.9990   -0.7900    0.3660 C   0  0  0  0  0  0  0  0  0  0  0  0
   -3.7650   -0.2010    0.1720 C   0  0  0  0  0  0  0  0  0  0  0  0
   -3.6110    0.9510   -0.6930 C   0  0  0  0  0  0  0  0  0  0  0  0
   -2.5690    1.5810   -0.9220 O   0  0  0  0  0  0  0  0  0  0  0  0
   -4.8390    1.4300   -1.3790 C   0  0  0  0  0  0  0  0  0  0  0  0
   -5.6790    0.6870   -2.2050 C   0  0  0  0  0  0  0  0  0  0  0  0
   -6.7260    1.4850   -2.6200 C   0  0  0  0  0  0  0  0  0  0  0  0
   -6.5090    2.7120   -2.0370 C   0  0  0  0  0  0  0  0  0  0  0  0
   -5.3740    2.6480   -1.3020 N   0  0  0  0  0  0  0  0  0  0  0  0
    0.9880    0.1430    0.7710 C   0  0  0  0  0  0  0  0  0  0  0  0
  1  2  2  0
  2  3  1  0
  2 13  1  0
  3  4  1  0
  4  5  2  0
  4  6  1  0
  6  7  1  0
  7  8  2  0
  7 12  1  0
  8  9  1  0
  9 10  2  0
 10 11  1  0
 11 12  2  0
 13 14  2  0
 13 36  1  0
 14 15  1  0
 15 16  2  0
 16 17  1  0
 17 18  1  0
 17 36  2  0
 18 19  1  0
 19 20  2  0
 19 28  1  0
 20 21  1  0
 21 22  2  0
 22 23  1  0
 22 27  1  0
 23 24  1  1
 23 25  1  0
 23 26  1  0
 27 28  2  0
 28 29  1  0
 29 30  2  0
 29 31  1  0
 31 32  2  0
 31 35  1  0
 32 33  1  0
 33 34  2  0
 34 35  1  0
M  CHG  1  16   1
M  END
