
     RDKit          3D

 37 40  0  0  0  0  0  0  0  0999 V2000
    5.8230    0.6300    1.0100 C   0  0  0  0  0  0  0  0  0  0  0  0
    4.5490    0.4450    0.3070 C   0  0  0  0  0  0  0  0  0  0  0  0
    4.5130   -0.0950   -0.9890 C   0  0  0  0  0  0  0  0  0  0  0  0
    3.3340   -0.2550   -1.6580 C   0  0  0  0  0  0  0  0  0  0  0  0
    3.3310   -0.7880   -2.9310 O   0  0  0  0  0  0  0  0  0  0  0  0
    4.5160   -1.1760   -3.5680 C   0  0  0  0  0  0  0  0  0  0  0  0
    5.1210   -2.1520   -2.8100 F   0  0  0  0  0  0  0  0  0  0  0  0
    2.0990    0.1030   -1.1060 C   0  0  0  0  0  0  0  0  0  0  0  0
    0.9130   -0.0980   -1.8770 N   0  0  0  0  0  0  0  0  0  0  0  0
   -0.3980    0.1850   -1.5210 C   0  0  0  0  0  0  0  0  0  0  0  0
   -0.6130    0.6770   -0.3750 O   0  0  0  0  0  0  0  0  0  0  0  0
   -1.6030   -0.0280   -2.3410 C   0  0  0  0  0  0  0  0  0  0  0  0
   -2.8300   -0.2000   -1.7490 C   0  0  0  0  0  0  0  0  0  0  0  0
   -3.0630   -0.3190   -0.3080 C   0  0  0  0  0  0  0  0  0  0  0  0
   -3.9950    0.5590    0.1860 N   0  0  0  0  0  0  0  0  0  0  0  0
   -4.3620    0.5410    1.4710 C   0  0  0  0  0  0  0  0  0  0  0  0
   -5.3050    1.4340    1.9590 C   0  0  0  0  0  0  0  0  0  0  0  0
   -5.6670    1.3980    3.2880 C   0  0  0  0  0  0  0  0  0  0  0  0
   -5.0700    0.4590    4.1040 C   0  0  0  0  0  0  0  0  0  0  0  0
   -5.4310    0.4340    5.3960 F   0  0  0  0  0  0  0  0  0  0  0  0
   -4.1290   -0.4300    3.6110 C   0  0  0  0  0  0  0  0  0  0  0  0
   -3.7530   -0.4050    2.2680 C   0  0  0  0  0  0  0  0  0  0  0  0
   -2.8210   -1.2840    1.7720 C   0  0  0  0  0  0  0  0  0  0  0  0
   -2.2720   -2.1370    2.4900 O   0  0  0  0  0  0  0  0  0  0  0  0
   -2.4780   -1.2300    0.4500 N   0  0  0  0  0  0  0  0  0  0  0  0
   -1.5530   -2.2240   -0.0870 C   0  0  0  0  0  0  0  0  0  0  0  0
   -3.9420   -0.2330   -2.6040 C   0  0  0  0  0  0  0  0  0  0  0  0
   -3.8170   -0.1040   -3.9640 C   0  0  0  0  0  0  0  0  0  0  0  0
   -2.5730    0.0630   -4.5250 C   0  0  0  0  0  0  0  0  0  0  0  0
   -2.4330    0.1880   -5.8530 F   0  0  0  0  0  0  0  0  0  0  0  0
   -1.4770    0.0990   -3.7080 C   0  0  0  0  0  0  0  0  0  0  0  0
   -0.2670    0.2860   -4.3360 F   0  0  0  0  0  0  0  0  0  0  0  0
    2.1420    0.6260    0.1530 C   0  0  0  0  0  0  0  0  0  0  0  0
    3.3550    0.7960    0.8560 C   0  0  0  0  0  0  0  0  0  0  0  0
    3.2490    1.3560    2.2290 C   0  0  1  0  0  0  0  0  0  0  0  0
    2.0880    0.6790    2.8510 N   0  0  0  0  0  0  0  0  0  0  0  0
    4.6260    0.9990    3.3090 S   0  0  0  0  0  0  0  0  0  0  0  0
  1  2  1  0
  2  3  2  0
  2 34  1  0
  3  4  1  0
  4  5  1  0
  4  8  2  0
  5  6  1  0
  6  7  1  0
  8  9  1  0
  8 33  1  0
  9 10  1  0
 10 11  2  0
 10 12  1  0
 12 13  1  0
 12 31  2  0
 13 14  1  0
 13 27  2  0
 14 15  2  0
 14 25  1  0
 15 16  1  0
 16 17  2  0
 16 22  1  0
 17 18  1  0
 18 19  2  0
 19 20  1  0
 19 21  1  0
 21 22  2  0
 22 23  1  0
 23 24  2  0
 23 25  1  0
 25 26  1  0
 27 28  1  0
 28 29  2  0
 29 30  1  0
 29 31  1  0
 31 32  1  0
 33 34  2  0
 34 35  1  0
 35 36  1  1
 35 37  1  0
M  CHG  1  36   1
M  END
