
     RDKit          3D

 15 15  0  0  0  0  0  0  0  0999 V2000
    2.7290   -1.5630    1.0110 O   0  0  0  0  0  0  0  0  0  0  0  0
    2.9420   -0.4390    0.5020 C   0  0  0  0  0  0  0  0  0  0  0  0
    4.1580    0.3000    0.8770 C   0  0  0  0  0  0  0  0  0  0  0  0
    4.1920    1.5090    0.2010 O   0  0  0  0  0  0  0  0  0  0  0  0
    2.0510    0.0710   -0.3820 O   0  0  0  0  0  0  0  0  0  0  0  0
    0.8650   -0.4560   -0.8530 C   0  0  0  0  0  0  0  0  0  0  0  0
   -0.1590   -0.6550    0.2070 C   0  0  2  0  0  0  0  0  0  0  0  0
    0.1940   -1.5150    1.2120 O   0  0  0  0  0  0  0  0  0  0  0  0
   -1.5150   -1.0620   -0.3980 C   0  0  0  0  0  0  0  0  0  0  0  0
   -2.3900    0.0550    0.0670 C   0  0  2  0  0  0  0  0  0  0  0  0
   -3.6210    0.2560   -0.7700 C   0  0  0  0  0  0  0  0  0  0  0  0
   -4.2560    1.4160   -0.3040 O   0  0  0  0  0  0  0  0  0  0  0  0
   -1.5090    1.1570   -0.0420 O   0  0  0  0  0  0  0  0  0  0  0  0
   -0.4920    0.7170    0.8050 C   0  0  2  0  0  0  0  0  0  0  0  0
    0.6110    1.5530    0.8020 O   0  0  0  0  0  0  0  0  0  0  0  0
  1  2  2  0
  2  3  1  0
  2  5  1  0
  3  4  1  0
  5  6  1  0
  6  7  1  0
  7  8  1  1
  7  9  1  0
  7 14  1  0
  9 10  1  0
 10 11  1  6
 10 13  1  0
 11 12  1  0
 13 14  1  0
 14 15  1  6
M  END
