
     RDKit          3D

 22 24  0  0  0  0  0  0  0  0999 V2000
   -2.8010    2.8220    1.2110 C   0  0  0  0  0  0  0  0  0  0  0  0
   -2.4380    1.3780    0.9650 C   0  0  2  0  0  0  0  0  0  0  0  0
   -1.2850    1.3660   -0.0150 C   0  0  0  0  0  0  0  0  0  0  0  0
   -0.9180   -0.1140   -0.1910 C   0  0  1  0  0  0  0  0  0  0  0  0
   -1.8860   -0.6910   -1.1570 C   0  0  0  0  0  0  0  0  0  0  0  0
   -3.2720   -0.3940   -0.6690 C   0  0  0  0  0  0  0  0  0  0  0  0
   -4.2570   -1.0760   -1.2040 C   0  0  0  0  0  0  0  0  0  0  0  0
   -5.6600   -0.8780   -0.8120 C   0  0  0  0  0  0  0  0  0  0  0  0
   -5.8310    0.0910    0.1690 O   0  0  0  0  0  0  0  0  0  0  0  0
   -4.7950    0.7950    0.7200 C   0  0  0  0  0  0  0  0  0  0  0  0
   -3.5310    0.6070    0.3570 C   0  0  0  0  0  0  0  0  0  0  0  0
    0.5120   -0.1440   -0.6490 C   0  0  0  0  0  0  0  0  0  0  0  0
    1.3390   -0.4040    0.5990 C   0  0  2  0  0  0  0  0  0  0  0  0
    2.7060   -0.0570    0.4610 N   0  0  0  0  0  0  0  0  0  0  0  0
    3.5200   -1.0240   -0.2170 C   0  0  0  0  0  0  0  0  0  0  0  0
    4.7020   -0.3900   -0.8980 C   0  0  0  0  0  0  0  0  0  0  0  0
    5.6040    0.3300    0.0830 C   0  0  1  0  0  0  0  0  0  0  0  0
    6.6770    0.8940   -0.6020 O   0  0  0  0  0  0  0  0  0  0  0  0
    4.9200    1.3880    0.6910 O   0  0  0  0  0  0  0  0  0  0  0  0
    1.0620   -1.8060    1.0070 C   0  0  0  0  0  0  0  0  0  0  0  0
   -0.4420   -1.9520    1.1340 C   0  0  0  0  0  0  0  0  0  0  0  0
   -1.1000   -0.7290    1.0430 O   0  0  0  0  0  0  0  0  0  0  0  0
  2  1  1  6
  2  3  1  0
  2 11  1  0
  4  3  1  1
  4  5  1  0
  4 12  1  0
  4 22  1  0
  5  6  1  0
  6  7  2  0
  6 11  1  0
  7  8  1  0
  8  9  1  0
  9 10  1  0
 10 11  2  0
 12 13  1  0
 13 14  1  6
 13 20  1  0
 14 15  1  0
 15 16  1  0
 16 17  1  0
 17 18  1  6
 17 19  1  0
 20 21  1  0
 21 22  1  0
M  CHG  1  14   1
M  END
