
     RDKit          3D

 15 15  0  0  0  0  0  0  0  0999 V2000
    0.9780   -1.1130   -0.7450 O   0  0  0  0  0  0  0  0  0  0  0  0
    0.9050   -0.8640    0.4800 C   0  0  0  0  0  0  0  0  0  0  0  0
   -0.4240   -0.7020    1.1300 C   0  0  0  0  0  0  0  0  0  0  0  0
   -1.2200    0.3450    0.4410 C   0  0  1  0  0  0  0  0  0  0  0  0
   -0.5160    1.5670    0.5330 O   0  0  0  0  0  0  0  0  0  0  0  0
   -1.4050    0.1230   -1.0510 C   0  0  1  0  0  0  0  0  0  0  0  0
   -1.6190   -1.2090   -1.3780 O   0  0  0  0  0  0  0  0  0  0  0  0
   -2.6870    0.9300   -1.2460 C   0  0  0  0  0  0  0  0  0  0  0  0
   -3.4640    0.4010   -0.2180 O   0  0  0  0  0  0  0  0  0  0  0  0
   -2.6420    0.4540    0.8980 C   0  0  1  0  0  0  0  0  0  0  0  0
   -2.8900   -0.6010    1.7780 O   0  0  0  0  0  0  0  0  0  0  0  0
    2.0940   -0.7490    1.1870 O   0  0  0  0  0  0  0  0  0  0  0  0
    3.3690   -0.8930    0.6150 C   0  0  0  0  0  0  0  0  0  0  0  0
    3.6200    0.1000   -0.5020 C   0  0  0  0  0  0  0  0  0  0  0  0
    3.5320    1.4140   -0.0890 O   0  0  0  0  0  0  0  0  0  0  0  0
  1  2  2  0
  2  3  1  0
  2 12  1  0
  3  4  1  0
  4  5  1  6
  4  6  1  0
  4 10  1  0
  6  7  1  1
  6  8  1  0
  8  9  1  0
  9 10  1  0
 10 11  1  1
 12 13  1  0
 13 14  1  0
 14 15  1  0
M  END
