
     RDKit          3D

 15 15  0  0  0  0  0  0  0  0999 V2000
   -2.8640   -0.0600   -1.8060 O   0  0  0  0  0  0  0  0  0  0  0  0
   -2.5940    0.6120   -0.6140 C   0  0  0  0  0  0  0  0  0  0  0  0
   -1.8620   -0.2290    0.3630 C   0  0  2  0  0  0  0  0  0  0  0  0
   -2.6990   -1.3480    0.6230 O   0  0  0  0  0  0  0  0  0  0  0  0
   -1.7770    0.4880    1.6950 C   0  0  0  0  0  0  0  0  0  0  0  0
   -0.9920    1.6140    1.5950 O   0  0  0  0  0  0  0  0  0  0  0  0
   -0.5620   -0.7780   -0.0590 C   0  0  1  0  0  0  0  0  0  0  0  0
   -0.7210   -1.5710   -1.2210 O   0  0  0  0  0  0  0  0  0  0  0  0
    0.5310    0.1930   -0.3310 C   0  0  2  0  0  0  0  0  0  0  0  0
    0.1600    0.9780   -1.4170 O   0  0  0  0  0  0  0  0  0  0  0  0
    1.7710   -0.5920   -0.8000 C   0  0  1  0  0  0  0  0  0  0  0  0
    2.7510    0.3110   -1.1420 O   0  0  0  0  0  0  0  0  0  0  0  0
    3.3580    0.6300    0.0720 C   0  0  0  0  0  0  0  0  0  0  0  0
    3.3550   -0.7080    0.7740 C   0  0  0  0  0  0  0  0  0  0  0  0
    2.2100   -1.3010    0.3020 O   0  0  0  0  0  0  0  0  0  0  0  0
  1  2  1  0
  2  3  1  0
  3  4  1  1
  3  5  1  0
  3  7  1  0
  5  6  1  0
  7  8  1  6
  7  9  1  0
  9 10  1  6
  9 11  1  0
 11 12  1  1
 11 15  1  0
 12 13  1  0
 13 14  1  0
 14 15  1  0
M  END
