
     RDKit          3D

 15 15  0  0  0  0  0  0  0  0999 V2000
    4.4540   -2.1730    0.5280 O   0  0  0  0  0  0  0  0  0  0  0  0
    4.3340   -0.9600    0.8250 C   0  0  0  0  0  0  0  0  0  0  0  0
    5.3370   -0.2810    1.5430 O   0  0  0  0  0  0  0  0  0  0  0  0
    3.1760   -0.3120    0.4210 O   0  0  0  0  0  0  0  0  0  0  0  0
    2.1960   -1.0360   -0.2980 C   0  0  0  0  0  0  0  0  0  0  0  0
    1.0670   -0.0910   -0.5990 C   0  0  2  0  0  0  0  0  0  0  0  0
    0.3780    0.4280    0.6180 C   0  0  0  0  0  0  0  0  0  0  0  0
   -1.0450    0.7200    0.0690 C   0  0  2  0  0  0  0  0  0  0  0  0
   -1.2990    2.0760    0.2640 O   0  0  0  0  0  0  0  0  0  0  0  0
   -2.0420   -0.1400    0.7590 C   0  0  0  0  0  0  0  0  0  0  0  0
   -3.4240    0.1280    0.2790 C   0  0  0  0  0  0  0  0  0  0  0  0
   -4.3380   -0.7020    0.9800 O   0  0  0  0  0  0  0  0  0  0  0  0
   -0.8320    0.4300   -1.3740 C   0  0  2  0  0  0  0  0  0  0  0  0
   -1.9100    0.2590   -2.1700 O   0  0  0  0  0  0  0  0  0  0  0  0
    0.0340   -0.6970   -1.3100 O   0  0  0  0  0  0  0  0  0  0  0  0
  1  2  2  0
  2  3  1  0
  2  4  1  0
  4  5  1  0
  6  5  1  1
  6  7  1  0
  6 15  1  0
  7  8  1  0
  8  9  1  6
  8 10  1  0
  8 13  1  0
 10 11  1  0
 11 12  1  0
 13 14  1  1
 13 15  1  0
M  END
