
     RDKit          3D

 19 19  0  0  0  0  0  0  0  0999 V2000
    2.9200   -1.5980    2.6400 C   0  0  0  0  0  0  0  0  0  0  0  0
    1.7740   -2.1800    2.7860 C   0  0  0  0  0  0  0  0  0  0  0  0
    1.9110   -3.3730    3.7930 C   0  0  0  0  0  0  0  0  0  0  0  0
    0.5140   -1.9490    2.2510 C   0  0  0  0  0  0  0  0  0  0  0  0
   -0.4290   -2.9260    2.7670 C   0  0  0  0  0  0  0  0  0  0  0  0
   -0.1590   -1.0390    1.4130 C   0  0  0  0  0  0  0  0  0  0  0  0
    0.0200   -0.0300    0.6500 C   0  0  0  0  0  0  0  0  0  0  0  0
    1.4510    0.4180    0.5280 C   0  0  0  0  0  0  0  0  0  0  0  0
   -0.9070    0.3990   -0.3680 C   0  0  0  0  0  0  0  0  0  0  0  0
   -0.7870    1.5750   -0.8980 C   0  0  0  0  0  0  0  0  0  0  0  0
    0.1870    2.5240   -0.5070 C   0  0  0  0  0  0  0  0  0  0  0  0
    0.1330    3.5750   -1.3290 O   0  0  0  0  0  0  0  0  0  0  0  0
    1.1420    2.7950    0.3820 O   0  0  0  0  0  0  0  0  0  0  0  0
    1.9670    3.9030    0.5150 C   0  0  0  0  0  0  0  0  0  0  0  0
   -1.6750    2.1250   -2.0150 C   0  0  0  0  0  0  0  0  0  0  0  0
   -1.9640    1.1280   -3.0720 C   0  0  0  0  0  0  0  0  0  0  0  0
   -3.0800    0.1790   -2.6980 C   0  0  0  0  0  0  0  0  0  0  0  0
   -2.3730   -1.0000   -2.0210 C   0  0  0  0  0  0  0  0  0  0  0  0
   -1.8980   -0.5690   -0.7570 N   0  0  0  0  0  0  0  0  0  0  0  0
  1  2  2  0
  2  3  1  0
  2  4  1  0
  4  5  2  0
  4  6  1  0
  6  7  2  3
  7  8  1  0
  7  9  1  0
  9 10  2  0
  9 19  1  0
 10 11  1  0
 10 15  1  0
 11 12  2  0
 11 13  1  0
 13 14  1  0
 15 16  1  0
 16 17  1  0
 17 18  1  0
 18 19  1  0
M  END
