
     RDKit          3D

 19 20  0  0  0  0  0  0  0  0999 V2000
   -3.8210    2.8240   -0.5070 C   0  0  0  0  0  0  0  0  0  0  0  0
   -3.1020    1.6860   -0.4960 C   0  0  0  0  0  0  0  0  0  0  0  0
   -1.6520    1.5790   -0.3740 C   0  0  0  0  0  0  0  0  0  0  0  0
   -1.3770    0.1180   -0.4160 C   0  0  0  0  0  0  0  0  0  0  0  0
   -0.0370   -0.4190   -0.3220 C   0  0  0  0  0  0  0  0  0  0  0  0
    0.1870   -1.6580   -0.3560 O   0  0  0  0  0  0  0  0  0  0  0  0
    1.0650    0.5010   -0.1870 N   0  0  0  0  0  0  0  0  0  0  0  0
    2.3850   -0.0620   -0.0950 C   0  0  1  0  0  0  0  0  0  0  0  0
    3.3150    0.4210   -1.1630 C   0  0  0  0  0  0  0  0  0  0  0  0
    4.7400    0.5270   -0.7470 C   0  0  0  0  0  0  0  0  0  0  0  0
    5.1570   -0.5250    0.2580 C   0  0  0  0  0  0  0  0  0  0  0  0
    4.2220   -0.4850    1.3940 C   0  0  0  0  0  0  0  0  0  0  0  0
    4.4460   -1.0800    2.4130 O   0  0  0  0  0  0  0  0  0  0  0  0
    2.9880    0.3080    1.2600 C   0  0  0  0  0  0  0  0  0  0  0  0
   -2.4920   -0.5710   -0.5440 C   0  0  0  0  0  0  0  0  0  0  0  0
   -2.7010   -2.0420   -0.6290 C   0  0  0  0  0  0  0  0  0  0  0  0
   -3.5740   -2.4900    0.5330 C   0  0  0  0  0  0  0  0  0  0  0  0
   -3.6520    0.3520   -0.6030 C   0  0  0  0  0  0  0  0  0  0  0  0
   -4.9250    0.0280   -0.7290 C   0  0  0  0  0  0  0  0  0  0  0  0
  1  2  2  0
  2  3  1  0
  2 18  1  0
  3  4  1  0
  4  5  1  0
  4 15  2  0
  5  6  2  0
  5  7  1  0
  8  7  1  6
  8  9  1  0
  8 14  1  0
  9 10  1  0
 10 11  1  0
 11 12  1  0
 12 13  2  0
 12 14  1  0
 15 16  1  0
 15 18  1  0
 16 17  1  0
 18 19  2  0
M  END
