
     RDKit          3D

 19 19  0  0  0  0  0  0  0  0999 V2000
   -4.9970    0.2860   -1.5540 C   0  0  0  0  0  0  0  0  0  0  0  0
   -4.1690    0.1710   -2.5340 C   0  0  0  0  0  0  0  0  0  0  0  0
   -2.7590    0.2220   -2.6910 C   0  0  0  0  0  0  0  0  0  0  0  0
   -2.2970    0.0370   -3.9740 C   0  0  0  0  0  0  0  0  0  0  0  0
   -3.2350   -0.1950   -5.0870 C   0  0  0  0  0  0  0  0  0  0  0  0
   -1.6890    0.4440   -1.7470 C   0  0  0  0  0  0  0  0  0  0  0  0
   -0.4660    0.4330   -2.1830 O   0  0  0  0  0  0  0  0  0  0  0  0
   -1.8260    0.6780   -0.3660 N   0  0  0  0  0  0  0  0  0  0  0  0
   -0.6840    0.8930    0.5090 C   0  0  0  0  0  0  0  0  0  0  0  0
    0.2580   -0.2620    0.5460 C   0  0  0  0  0  0  0  0  0  0  0  0
    1.3930    0.0140    1.4560 C   0  0  0  0  0  0  0  0  0  0  0  0
    1.4650    1.1600    2.0970 C   0  0  0  0  0  0  0  0  0  0  0  0
    2.5940    1.4140    2.9910 C   0  0  0  0  0  0  0  0  0  0  0  0
    2.6700    2.5860    3.5940 C   0  0  0  0  0  0  0  0  0  0  0  0
    3.6500    0.4290    3.2440 C   0  0  0  0  0  0  0  0  0  0  0  0
    3.4690   -0.8160    2.4720 C   0  0  0  0  0  0  0  0  0  0  0  0
    2.4460   -1.0000    1.6650 C   0  0  0  0  0  0  0  0  0  0  0  0
    2.3290   -2.1980    0.9640 O   0  0  0  0  0  0  0  0  0  0  0  0
    3.2930   -3.2010    1.1910 C   0  0  0  0  0  0  0  0  0  0  0  0
  1  2  2  0
  2  3  1  0
  3  4  2  3
  3  6  1  0
  4  5  1  0
  6  7  2  0
  6  8  1  0
  8  9  1  0
  9 10  1  0
 10 11  1  0
 11 12  2  0
 11 17  1  0
 12 13  1  0
 13 14  2  0
 13 15  1  0
 15 16  1  0
 16 17  2  0
 17 18  1  0
 18 19  1  0
M  END
