
     RDKit          3D

 19 20  0  0  0  0  0  0  0  0999 V2000
    6.9180    0.9240   -1.2890 C   0  0  0  0  0  0  0  0  0  0  0  0
    5.4710    1.3930   -1.2580 C   0  0  0  0  0  0  0  0  0  0  0  0
    4.9210    1.0550    0.0980 C   0  0  0  0  0  0  0  0  0  0  0  0
    3.4850    1.4650    0.2750 C   0  0  0  0  0  0  0  0  0  0  0  0
    2.5720    0.7910   -0.7280 C   0  0  0  0  0  0  0  0  0  0  0  0
    2.5960   -0.6690   -0.6280 C   0  0  0  0  0  0  0  0  0  0  0  0
    1.4800   -1.3690   -0.3510 C   0  0  0  0  0  0  0  0  0  0  0  0
    0.1500   -0.8390   -0.1180 C   0  0  0  0  0  0  0  0  0  0  0  0
   -0.6590   -1.8420    0.1180 C   0  0  0  0  0  0  0  0  0  0  0  0
   -2.1080   -1.7840    0.4090 C   0  0  0  0  0  0  0  0  0  0  0  0
   -2.7600   -2.8340    0.6170 O   0  0  0  0  0  0  0  0  0  0  0  0
   -2.8040   -0.5470    0.4630 N   0  0  0  0  0  0  0  0  0  0  0  0
   -4.2070   -0.4310    0.7410 C   0  0  2  0  0  0  0  0  0  0  0  0
   -4.9940    0.2170   -0.3590 C   0  0  0  0  0  0  0  0  0  0  0  0
   -6.3490    0.4270    0.3310 C   0  0  0  0  0  0  0  0  0  0  0  0
   -5.9770    0.7530    1.7570 C   0  0  0  0  0  0  0  0  0  0  0  0
   -4.5200    0.4140    1.9300 C   0  0  0  0  0  0  0  0  0  0  0  0
    0.0900   -3.1140    0.0560 C   0  0  0  0  0  0  0  0  0  0  0  0
    1.3960   -2.7390   -0.2360 O   0  0  0  0  0  0  0  0  0  0  0  0
  1  2  1  0
  2  3  1  0
  3  4  1  0
  4  5  1  0
  5  6  1  0
  6  7  2  3
  7  8  1  0
  7 19  1  0
  8  9  2  0
  9 10  1  0
  9 18  1  0
 10 11  2  0
 10 12  1  0
 13 12  1  6
 13 14  1  0
 13 17  1  0
 14 15  1  0
 15 16  1  0
 16 17  1  0
 18 19  1  0
M  END
