
     RDKit          3D

 19 20  0  0  0  0  0  0  0  0999 V2000
   -5.0180    0.6730    0.9140 C   0  0  0  0  0  0  0  0  0  0  0  0
   -3.8090    0.6270    0.0030 C   0  0  2  0  0  0  0  0  0  0  0  0
   -3.9840    1.6030   -1.1660 C   0  0  0  0  0  0  0  0  0  0  0  0
   -3.7140   -0.6710   -0.5280 N   0  0  0  0  0  0  0  0  0  0  0  0
   -2.7900   -1.5020   -0.5090 C   0  0  0  0  0  0  0  0  0  0  0  0
   -1.4810   -1.1790    0.1740 C   0  0  1  0  0  0  0  0  0  0  0  0
   -1.0140   -2.3420    0.6850 O   0  0  0  0  0  0  0  0  0  0  0  0
   -0.6640   -0.4330   -0.8190 C   0  0  0  0  0  0  0  0  0  0  0  0
    0.5630    0.0130   -0.5120 O   0  0  0  0  0  0  0  0  0  0  0  0
    1.7290   -0.5910   -0.2240 C   0  0  0  0  0  0  0  0  0  0  0  0
    1.9840   -1.9380   -0.2050 C   0  0  0  0  0  0  0  0  0  0  0  0
    3.2250   -2.4500    0.1020 C   0  0  0  0  0  0  0  0  0  0  0  0
    4.2410   -1.5750    0.3980 C   0  0  0  0  0  0  0  0  0  0  0  0
    4.0340   -0.2150    0.3900 C   0  0  0  0  0  0  0  0  0  0  0  0
    5.0580    0.6800    0.6880 C   0  0  0  0  0  0  0  0  0  0  0  0
    4.8570    2.0400    0.6820 C   0  0  0  0  0  0  0  0  0  0  0  0
    3.6110    2.5410    0.3740 C   0  0  0  0  0  0  0  0  0  0  0  0
    2.5930    1.6350    0.0770 C   0  0  0  0  0  0  0  0  0  0  0  0
    2.7980    0.2890    0.0850 C   0  0  0  0  0  0  0  0  0  0  0  0
  2  1  1  1
  2  3  1  0
  2  4  1  0
  4  5  2  3
  5  6  1  0
  6  7  1  6
  6  8  1  0
  8  9  1  0
  9 10  1  0
 10 11  2  0
 10 19  1  0
 11 12  1  0
 12 13  2  0
 13 14  1  0
 14 15  2  0
 14 19  1  0
 15 16  1  0
 16 17  2  0
 17 18  1  0
 18 19  2  0
M  END
