
     RDKit          3D

 19 20  0  0  0  0  0  0  0  0999 V2000
   -0.2320   -2.9040   -0.3950 C   0  0  0  0  0  0  0  0  0  0  0  0
   -1.2830   -2.1960   -0.1460 C   0  0  0  0  0  0  0  0  0  0  0  0
   -2.5390   -2.9640    0.2120 C   0  0  0  0  0  0  0  0  0  0  0  0
   -1.3060   -0.7580   -0.1920 C   0  0  0  0  0  0  0  0  0  0  0  0
   -2.5040   -0.1870    0.0980 C   0  0  0  0  0  0  0  0  0  0  0  0
   -2.5990    1.2990    0.0710 C   0  0  1  0  0  0  0  0  0  0  0  0
   -2.7720    1.7800   -1.3410 C   0  0  0  0  0  0  0  0  0  0  0  0
   -3.7570    1.7150    0.9510 C   0  0  0  0  0  0  0  0  0  0  0  0
   -1.3520    1.8590    0.7170 C   0  0  0  0  0  0  0  0  0  0  0  0
   -0.1880    1.2960    0.4290 C   0  0  0  0  0  0  0  0  0  0  0  0
    1.0530    1.8430    1.0660 C   0  0  0  0  0  0  0  0  0  0  0  0
    2.2280    1.4170    0.2180 C   0  0  0  0  0  0  0  0  0  0  0  0
    2.1260   -0.1110    0.1230 C   0  0  2  0  0  0  0  0  0  0  0  0
    3.3990   -0.6390   -0.3600 C   0  0  0  0  0  0  0  0  0  0  0  0
    3.4890   -1.2610   -1.4480 O   0  0  0  0  0  0  0  0  0  0  0  0
    4.5550   -0.4620    0.3850 O   0  0  0  0  0  0  0  0  0  0  0  0
    5.8210   -0.9420   -0.0130 C   0  0  0  0  0  0  0  0  0  0  0  0
    1.0650   -0.3960   -0.7810 N   0  0  0  0  0  0  0  0  0  0  0  0
   -0.1930    0.1590   -0.5290 C   0  0  1  0  0  0  0  0  0  0  0  0
  1  2  2  0
  2  3  1  0
  2  4  1  0
  4  5  2  0
  4 19  1  0
  5  6  1  0
  6  7  1  6
  6  8  1  0
  6  9  1  0
  9 10  2  0
 10 11  1  0
 10 19  1  0
 11 12  1  0
 12 13  1  0
 13 14  1  6
 13 18  1  0
 14 15  2  0
 14 16  1  0
 16 17  1  0
 19 18  1  1
M  END
