
     RDKit          3D

  9 10  0  0  0  0  0  0  0  0999 V2000
   -2.4700    0.7360    0.4540 N   0  0  0  0  0  0  0  0  0  0  0  0
   -1.7610    0.0170   -0.6020 C   0  0  2  0  0  0  0  0  0  0  0  0
   -1.5590   -1.4030   -0.1150 C   0  0  0  0  0  0  0  0  0  0  0  0
   -0.1900   -1.3250    0.5000 C   0  0  0  0  0  0  0  0  0  0  0  0
    0.5660   -0.4820   -0.4110 N   0  0  0  0  0  0  0  0  0  0  0  0
    1.5800    0.2240    0.3350 C   0  0  2  0  0  0  0  0  0  0  0  0
    2.5540    0.9960   -0.5440 C   0  0  0  0  0  0  0  0  0  0  0  0
    2.9910   -0.1220    0.3640 C   0  0  0  0  0  0  0  0  0  0  0  0
   -0.3900    0.5530   -0.8380 C   0  0  0  0  0  0  0  0  0  0  0  0
  2  1  1  1
  2  3  1  0
  2  9  1  0
  3  4  1  0
  4  5  1  0
  6  5  1  6
  5  9  1  0
  6  7  1  0
  6  8  1  0
  7  8  1  0
M  CHG  1   1   1
M  END
