
     RDKit          3D

  9  9  0  0  0  0  0  0  0  0999 V2000
    2.5410   -0.4110    0.8430 C   0  0  0  0  0  0  0  0  0  0  0  0
    1.7640   -0.3220   -0.3570 N   0  0  0  0  0  0  0  0  0  0  0  0
    0.5570    0.4480   -0.3200 C   0  0  0  0  0  0  0  0  0  0  0  0
    0.4600    1.7650   -0.3770 C   0  0  0  0  0  0  0  0  0  0  0  0
   -0.9230    2.1880   -0.3130 C   0  0  0  0  0  0  0  0  0  0  0  0
   -1.6520    1.0900   -0.2170 C   0  0  0  0  0  0  0  0  0  0  0  0
   -0.7940   -0.0850   -0.2130 C   0  0  0  0  0  0  0  0  0  0  0  0
   -1.0970   -1.3580   -0.1340 C   0  0  0  0  0  0  0  0  0  0  0  0
   -2.4050   -1.8650   -0.0310 N   0  0  0  0  0  0  0  0  0  0  0  0
  1  2  1  0
  2  3  1  0
  3  4  2  0
  3  7  1  0
  4  5  1  0
  5  6  2  0
  6  7  1  0
  7  8  2  3
  8  9  1  0
M  END
