
     RDKit          3D

  9  9  0  0  0  0  0  0  0  0999 V2000
    2.2860   -1.5840   -0.2710 N   0  0  0  0  0  0  0  0  0  0  0  0
    0.9490   -1.2260   -0.0650 C   0  0  0  0  0  0  0  0  0  0  0  0
    0.5980    0.0430    0.0720 C   0  0  0  0  0  0  0  0  0  0  0  0
    1.5030    1.2110    0.0330 C   0  0  0  0  0  0  0  0  0  0  0  0
    0.7370    2.2680    0.2100 C   0  0  0  0  0  0  0  0  0  0  0  0
   -0.6600    1.8710    0.3700 C   0  0  0  0  0  0  0  0  0  0  0  0
   -0.7470    0.5540    0.2890 C   0  0  0  0  0  0  0  0  0  0  0  0
   -1.9990   -0.2710    0.3990 C   0  0  0  0  0  0  0  0  0  0  0  0
   -2.2130   -1.0310   -0.8150 N   0  0  0  0  0  0  0  0  0  0  0  0
  1  2  1  0
  2  3  2  3
  3  4  1  0
  3  7  1  0
  4  5  2  0
  5  6  1  0
  6  7  2  0
  7  8  1  0
  8  9  1  0
M  END
