
     RDKit          3D

  9  9  0  0  0  0  0  0  0  0999 V2000
   -2.4530    0.3640    0.6290 N   0  0  0  0  0  0  0  0  0  0  0  0
   -1.5260    0.1140   -0.4150 C   0  0  0  0  0  0  0  0  0  0  0  0
   -1.9830   -0.0010   -1.6110 N   0  0  0  0  0  0  0  0  0  0  0  0
   -0.1300    0.0080   -0.0420 C   0  0  0  0  0  0  0  0  0  0  0  0
    0.2770    0.1430    1.2580 C   0  0  0  0  0  0  0  0  0  0  0  0
    1.6160    0.0360    1.5770 C   0  0  0  0  0  0  0  0  0  0  0  0
    2.5610   -0.2060    0.6030 C   0  0  0  0  0  0  0  0  0  0  0  0
    2.1660   -0.3440   -0.7070 C   0  0  0  0  0  0  0  0  0  0  0  0
    0.8050   -0.2330   -1.0170 C   0  0  0  0  0  0  0  0  0  0  0  0
  1  2  1  0
  2  3  2  0
  2  4  1  0
  4  5  2  0
  4  9  1  0
  5  6  1  0
  6  7  2  0
  7  8  1  0
  8  9  2  0
M  CHG  1   3   1
M  END
