
     RDKit          3D

 23 26  0  0  0  0  0  0  0  0999 V2000
    0.1350    4.2790   -0.5840 C   0  0  0  0  0  0  0  0  0  0  0  0
    0.2760    2.9140   -0.9420 O   0  0  0  0  0  0  0  0  0  0  0  0
    1.0710    2.0310   -0.2220 C   0  0  0  0  0  0  0  0  0  0  0  0
    1.6520    2.5700    0.7840 O   0  0  0  0  0  0  0  0  0  0  0  0
    1.2630    0.6040   -0.5350 C   0  0  1  0  0  0  0  0  0  0  0  0
    2.3210    0.0690    0.3840 C   0  0  2  0  0  0  0  0  0  0  0  0
    3.6090    0.8050    0.0580 C   0  0  0  0  0  0  0  0  0  0  0  0
    2.5860   -1.3770    0.1470 C   0  0  0  0  0  0  0  0  0  0  0  0
    3.6870   -2.0980    0.2480 C   0  0  0  0  0  0  0  0  0  0  0  0
    3.3300   -3.4770   -0.1160 C   0  0  0  0  0  0  0  0  0  0  0  0
    1.9050   -3.4520   -0.4330 C   0  0  0  0  0  0  0  0  0  0  0  0
    1.4810   -2.1880   -0.2690 C   0  0  0  0  0  0  0  0  0  0  0  0
    0.1410   -1.6530   -0.4580 C   0  0  0  0  0  0  0  0  0  0  0  0
   -0.0270   -0.1890   -0.5130 C   0  0  2  0  0  0  0  0  0  0  0  0
   -0.6050    0.1020   -1.9130 C   0  0  0  0  0  0  0  0  0  0  0  0
   -1.9950   -0.3570   -2.0950 C   0  0  0  0  0  0  0  0  0  0  0  0
   -2.9270    0.3850   -1.1250 C   0  0  0  0  0  0  0  0  0  0  0  0
   -2.4330    0.0550    0.2360 C   0  0  2  0  0  0  0  0  0  0  0  0
   -2.8720   -1.3090    0.6140 C   0  0  0  0  0  0  0  0  0  0  0  0
   -3.0120    0.9890    1.3160 C   0  0  0  0  0  0  0  0  0  0  0  0
   -2.1440    0.5630    2.4980 C   0  0  0  0  0  0  0  0  0  0  0  0
   -0.8210    0.0630    1.9000 C   0  0  0  0  0  0  0  0  0  0  0  0
   -0.9880    0.3820    0.4640 C   0  0  1  0  0  0  0  0  0  0  0  0
  1  2  1  0
  2  3  1  0
  3  4  2  0
  5  3  1  1
  5  6  1  0
  5 14  1  0
  6  7  1  6
  6  8  1  0
  8  9  2  0
  8 12  1  0
  9 10  1  0
 10 11  1  0
 11 12  2  0
 12 13  1  0
 14 13  1  1
 14 15  1  0
 14 23  1  0
 15 16  1  0
 16 17  1  0
 17 18  1  0
 18 19  1  1
 18 20  1  0
 18 23  1  0
 20 21  1  0
 21 22  1  0
 23 22  1  1
M  END
