
     RDKit          3D

  9  9  0  0  0  0  0  0  0  0999 V2000
   -1.1940   -1.3150   -0.7190 C   0  0  0  0  0  0  0  0  0  0  0  0
   -0.5900   -0.1290   -0.0640 C   0  0  0  0  0  0  0  0  0  0  0  0
   -1.3570    0.8090    0.4630 C   0  0  0  0  0  0  0  0  0  0  0  0
   -2.7790    0.7440    0.4360 N   0  0  0  0  0  0  0  0  0  0  0  0
    0.8600   -0.0330   -0.0210 C   0  0  0  0  0  0  0  0  0  0  0  0
    1.5510    1.0260    0.5630 C   0  0  0  0  0  0  0  0  0  0  0  0
    2.8860    0.7370    0.3930 C   0  0  0  0  0  0  0  0  0  0  0  0
    2.9920   -0.4550   -0.2710 C   0  0  0  0  0  0  0  0  0  0  0  0
    1.7540   -0.9130   -0.5170 N   0  0  0  0  0  0  0  0  0  0  0  0
  1  2  1  0
  2  3  2  3
  2  5  1  0
  3  4  1  0
  5  6  2  0
  5  9  1  0
  6  7  1  0
  7  8  2  0
  8  9  1  0
M  CHG  1   4   1
M  END
