
     RDKit          3D

  9  9  0  0  0  0  0  0  0  0999 V2000
    2.4380   -0.9500   -0.3300 C   0  0  0  0  0  0  0  0  0  0  0  0
    1.7080    0.0290    0.1380 C   0  0  0  0  0  0  0  0  0  0  0  0
    2.3710    1.1130    0.7670 N   0  0  0  0  0  0  0  0  0  0  0  0
    0.2540    0.0520    0.0410 C   0  0  0  0  0  0  0  0  0  0  0  0
   -0.4290    1.0950    0.5460 C   0  0  0  0  0  0  0  0  0  0  0  0
   -1.8680    1.1110    0.4470 C   0  0  0  0  0  0  0  0  0  0  0  0
   -2.5390    0.1460   -0.1190 C   0  0  0  0  0  0  0  0  0  0  0  0
   -1.8690   -1.0240   -0.6940 C   0  0  0  0  0  0  0  0  0  0  0  0
   -0.4570   -0.9930   -0.5710 N   0  0  0  0  0  0  0  0  0  0  0  0
  1  2  2  0
  2  3  1  0
  2  4  1  0
  4  5  2  0
  4  9  1  0
  5  6  1  0
  6  7  2  0
  7  8  1  0
  8  9  1  0
M  END
