
     RDKit          3D

 34 34  0  0  0  0  0  0  0  0999 V2000
   -7.8630    0.5830    1.6920 C   0  0  0  0  0  0  0  0  0  0  0  0
   -7.4600    1.1900    0.4660 N   0  0  0  0  0  0  0  0  0  0  0  0
   -6.4550    0.4030   -0.2500 C   0  0  2  0  0  0  0  0  0  0  0  0
   -7.1650   -0.9040   -0.5700 C   0  0  0  0  0  0  0  0  0  0  0  0
   -5.2270    0.2700    0.5140 C   0  0  0  0  0  0  0  0  0  0  0  0
   -5.2580    0.7290    1.7110 O   0  0  0  0  0  0  0  0  0  0  0  0
   -3.9860   -0.3020    0.0920 N   0  0  0  0  0  0  0  0  0  0  0  0
   -3.8190   -0.8850   -1.2160 C   0  0  0  0  0  0  0  0  0  0  0  0
   -4.0770   -2.3660   -1.2100 C   0  0  0  0  0  0  0  0  0  0  0  0
   -3.9040   -2.8800   -2.5100 O   0  0  0  0  0  0  0  0  0  0  0  0
   -2.9610   -0.2570    1.0410 N   0  0  0  0  0  0  0  0  0  0  0  0
   -1.6070   -0.6010    0.8630 C   0  0  0  0  0  0  0  0  0  0  0  0
   -1.2670   -0.9960   -0.2720 O   0  0  0  0  0  0  0  0  0  0  0  0
   -0.6340   -0.4920    1.9980 C   0  0  0  0  0  0  0  0  0  0  0  0
    0.7460   -0.7610    1.5150 C   0  0  0  0  0  0  0  0  0  0  0  0
    1.1710    0.2760    0.5100 C   0  0  0  0  0  0  0  0  0  0  0  0
    2.4940    0.0460    0.0390 O   0  0  0  0  0  0  0  0  0  0  0  0
    3.5460    0.0740    0.9070 C   0  0  0  0  0  0  0  0  0  0  0  0
    3.3720    0.3090    2.1490 O   0  0  0  0  0  0  0  0  0  0  0  0
    4.9320   -0.1620    0.4660 C   0  0  0  0  0  0  0  0  0  0  0  0
    6.0420   -0.1680    1.2680 C   0  0  0  0  0  0  0  0  0  0  0  0
    7.1020   -0.4300    0.4890 N   0  0  0  0  0  0  0  0  0  0  0  0
    8.4970   -0.5300    0.9380 C   0  0  0  0  0  0  0  0  0  0  0  0
    6.6800   -0.5820   -0.7470 N   0  0  0  0  0  0  0  0  0  0  0  0
    5.3510   -0.4270   -0.8140 C   0  0  0  0  0  0  0  0  0  0  0  0
    4.5140   -0.5010   -1.9540 N   0  0  0  0  0  0  0  0  0  0  0  0
    4.2440    0.9390   -2.9710 P   0  0  0  0  0  0  0  0  0  0  0  0
    5.4400    1.0700   -4.2330 O   0  0  0  0  0  0  0  0  0  0  0  0
    4.0990    2.3920   -2.0710 O   0  0  0  0  0  0  0  0  0  0  0  0
    5.5240    2.7290   -1.1320 P   0  0  0  0  0  0  0  0  0  0  0  0
    6.8710    3.1700   -2.1080 O   0  0  0  0  0  0  0  0  0  0  0  0
    5.1960    3.8850    0.1220 O   0  0  0  0  0  0  0  0  0  0  0  0
    3.9000    4.9410   -0.2790 P   0  0  0  0  0  0  0  0  0  0  0  0
    2.7960    5.1870    0.7750 O   0  0  0  0  0  0  0  0  0  0  0  0
  1  2  1  0
  2  3  1  0
  3  4  1  1
  3  5  1  0
  5  6  2  0
  5  7  1  0
  7  8  1  0
  7 11  1  0
  8  9  1  0
  9 10  1  0
 11 12  1  0
 12 13  2  0
 12 14  1  0
 14 15  1  0
 15 16  1  0
 16 17  1  0
 17 18  1  0
 18 19  2  0
 18 20  1  0
 20 21  2  0
 20 25  1  0
 21 22  1  0
 22 23  1  0
 22 24  1  0
 24 25  2  0
 25 26  1  0
 26 27  1  0
 27 28  1  0
 27 29  1  0
 29 30  1  0
 30 31  1  0
 30 32  1  0
 32 33  1  0
 33 34  2  0
M  END
