
     RDKit          3D

 33 33  0  0  0  0  0  0  0  0999 V2000
   -0.9260    5.5440    3.3290 C   0  0  0  0  0  0  0  0  0  0  0  0
   -0.2580    4.5990    2.5570 O   0  0  0  0  0  0  0  0  0  0  0  0
   -0.8150    3.7480    1.6210 C   0  0  0  0  0  0  0  0  0  0  0  0
   -2.1660    3.8070    1.4030 C   0  0  0  0  0  0  0  0  0  0  0  0
   -2.6660    2.9250    0.4500 C   0  0  0  0  0  0  0  0  0  0  0  0
   -1.8620    2.0800   -0.2060 N   0  0  0  0  0  0  0  0  0  0  0  0
   -0.5640    1.9770   -0.0420 C   0  0  0  0  0  0  0  0  0  0  0  0
    0.3550    1.1140   -0.7290 N   0  0  0  0  0  0  0  0  0  0  0  0
    1.3300    1.8010   -1.5500 C   0  0  0  0  0  0  0  0  0  0  0  0
    1.2380    1.4600   -2.9630 C   0  0  0  0  0  0  0  0  0  0  0  0
    2.1800    2.1410   -3.8510 N   0  0  0  0  0  0  0  0  0  0  0  0
    0.4810    0.6760   -3.5520 O   0  0  0  0  0  0  0  0  0  0  0  0
    0.4590   -0.2920   -0.5910 C   0  0  2  0  0  0  0  0  0  0  0  0
   -0.6090   -1.0940    0.0120 C   0  0  0  0  0  0  0  0  0  0  0  0
   -1.9220   -1.1640   -0.6130 C   0  0  0  0  0  0  0  0  0  0  0  0
   -2.2130   -0.5090   -1.6620 N   0  0  0  0  0  0  0  0  0  0  0  0
   -2.9530   -2.0200   -0.0550 N   0  0  0  0  0  0  0  0  0  0  0  0
   -2.9220   -2.5140    1.2950 C   0  0  0  0  0  0  0  0  0  0  0  0
   -4.0430   -2.4000   -0.9100 C   0  0  0  0  0  0  0  0  0  0  0  0
   -5.3810   -1.8320   -0.4870 C   0  0  0  0  0  0  0  0  0  0  0  0
   -6.3270   -2.2880   -1.4140 O   0  0  0  0  0  0  0  0  0  0  0  0
    1.7590   -0.5530    0.1800 C   0  0  0  0  0  0  0  0  0  0  0  0
    2.3970    0.3800    0.6940 O   0  0  0  0  0  0  0  0  0  0  0  0
    2.2670   -1.8670    0.3260 N   0  0  0  0  0  0  0  0  0  0  0  0
    3.7940   -2.2330    1.2300 P   0  0  0  0  0  0  0  0  0  0  0  0
    5.1100   -1.7820    0.2030 O   0  0  0  0  0  0  0  0  0  0  0  0
    3.9140   -3.8990    1.6040 O   0  0  0  0  0  0  0  0  0  0  0  0
    5.4220   -4.5040    1.0000 P   0  0  0  0  0  0  0  0  0  0  0  0
    6.6780   -3.9050    2.0650 O   0  0  0  0  0  0  0  0  0  0  0  0
    5.7000   -3.7430   -0.5580 O   0  0  0  0  0  0  0  0  0  0  0  0
    7.3830   -3.5820   -0.9030 P   0  0  0  0  0  0  0  0  0  0  0  0
    8.0460   -2.2040   -1.2410 O   0  0  0  0  0  0  0  0  0  0  0  0
   -0.0270    2.8620    0.9240 C   0  0  0  0  0  0  0  0  0  0  0  0
  1  2  1  0
  2  3  1  0
  3  4  2  0
  3 33  1  0
  4  5  1  0
  5  6  2  0
  6  7  1  0
  7  8  1  0
  7 33  2  0
  8  9  1  0
  8 13  1  0
  9 10  1  0
 10 11  1  0
 10 12  2  0
 13 14  1  1
 13 22  1  0
 14 15  1  0
 15 16  2  0
 15 17  1  0
 17 18  1  0
 17 19  1  0
 19 20  1  0
 20 21  1  0
 22 23  2  0
 22 24  1  0
 24 25  1  0
 25 26  1  0
 25 27  1  0
 27 28  1  0
 28 29  1  0
 28 30  1  0
 30 31  1  0
 31 32  2  0
M  END
