
     RDKit          3D

 35 38  0  0  0  0  0  0  0  0999 V2000
   -5.7300    1.2530    2.2310 N   0  0  0  0  0  0  0  0  0  0  0  0
   -4.5650    0.4310    1.8940 C   0  0  1  0  0  0  0  0  0  0  0  0
   -5.0030   -0.9360    1.9250 N   0  0  0  0  0  0  0  0  0  0  0  0
   -4.0410   -1.8760    1.3800 C   0  0  0  0  0  0  0  0  0  0  0  0
   -3.6520   -1.5840    0.0580 O   0  0  0  0  0  0  0  0  0  0  0  0
   -2.3200   -1.8360   -0.3660 C   0  0  0  0  0  0  0  0  0  0  0  0
   -2.2960   -2.6350   -1.3670 O   0  0  0  0  0  0  0  0  0  0  0  0
   -1.3200   -1.2550    0.2780 O   0  0  0  0  0  0  0  0  0  0  0  0
   -0.0570   -0.7650    0.1160 C   0  0  0  0  0  0  0  0  0  0  0  0
    0.8010   -0.9070    1.2320 C   0  0  0  0  0  0  0  0  0  0  0  0
    0.3750   -1.5000    2.4990 C   0  0  0  0  0  0  0  0  0  0  0  0
    1.1490   -2.4870    3.1200 C   0  0  0  0  0  0  0  0  0  0  0  0
    0.4950   -2.8130    4.2660 C   0  0  0  0  0  0  0  0  0  0  0  0
   -0.5770   -2.0910    4.3360 O   0  0  0  0  0  0  0  0  0  0  0  0
   -0.6900   -1.2940    3.3050 C   0  0  0  0  0  0  0  0  0  0  0  0
    2.0880   -0.4410    1.0970 C   0  0  0  0  0  0  0  0  0  0  0  0
    2.5910    0.1460   -0.0330 C   0  0  0  0  0  0  0  0  0  0  0  0
    3.9030    0.6020   -0.1270 O   0  0  0  0  0  0  0  0  0  0  0  0
    4.3570    1.1970   -1.3200 C   0  0  0  0  0  0  0  0  0  0  0  0
    5.7940    1.6280   -1.2390 C   0  0  0  0  0  0  0  0  0  0  0  0
    6.0660    2.8670    0.1080 P   0  0  0  0  0  0  0  0  0  0  0  0
    5.9410    2.0540    1.6560 O   0  0  0  0  0  0  0  0  0  0  0  0
    4.8420    4.0900   -0.0250 O   0  0  0  0  0  0  0  0  0  0  0  0
    1.7270    0.2720   -1.1030 C   0  0  0  0  0  0  0  0  0  0  0  0
    0.4230   -0.1650   -1.0510 C   0  0  0  0  0  0  0  0  0  0  0  0
   -0.3890    0.0640   -2.2480 N   0  0  0  0  0  0  0  0  0  0  0  0
    0.0000   -0.6550   -3.5320 C   0  0  0  0  0  0  0  0  0  0  0  0
   -1.1900   -0.1270   -4.6480 S   0  0  0  0  0  0  0  0  0  0  0  0
   -1.2700   -0.6050   -6.2770 N   0  0  0  0  0  0  0  0  0  0  0  0
   -2.0800    0.9190   -3.5420 N   0  0  0  0  0  0  0  0  0  0  0  0
   -1.5030    0.8740   -2.3670 C   0  0  0  0  0  0  0  0  0  0  0  0
   -2.0610    1.7700   -1.3570 N   0  0  0  0  0  0  0  0  0  0  0  0
   -1.9280    3.5490   -1.6930 Cl  0  0  0  0  0  0  0  0  0  0  0  0
   -2.6740    1.4060   -0.1820 N   0  0  0  0  0  0  0  0  0  0  0  0
   -4.1430    0.7710    0.1280 P   0  0  0  0  0  0  0  0  0  0  0  0
  2  1  1  6
  2  3  1  0
  2 35  1  0
  3  4  1  0
  4  5  1  0
  5  6  1  0
  6  7  2  0
  6  8  1  0
  8  9  1  0
  9 10  2  0
  9 25  1  0
 10 11  1  0
 10 16  1  0
 11 12  1  0
 11 15  2  0
 12 13  2  0
 13 14  1  0
 14 15  1  0
 16 17  2  0
 17 18  1  0
 17 24  1  0
 18 19  1  0
 19 20  1  0
 20 21  1  0
 21 22  1  0
 21 23  1  0
 24 25  2  0
 25 26  1  0
 26 27  1  0
 26 31  1  0
 27 28  2  0
 28 29  1  0
 28 30  1  0
 30 31  2  0
 31 32  1  0
 32 33  1  0
 32 34  1  0
 34 35  2  0
M  END
