
     RDKit          3D

 35 35  0  0  0  0  0  0  0  0999 V2000
   -6.9950   -3.0470    1.2960 C   0  0  0  0  0  0  0  0  0  0  0  0
   -5.6340   -3.6150    1.6200 C   0  0  0  0  0  0  0  0  0  0  0  0
   -4.7350   -3.5020    0.4280 C   0  0  0  0  0  0  0  0  0  0  0  0
   -4.5760   -2.0570    0.0290 C   0  0  0  0  0  0  0  0  0  0  0  0
   -5.1670   -1.1570    0.6830 O   0  0  0  0  0  0  0  0  0  0  0  0
   -3.7980   -1.6820   -1.0390 O   0  0  0  0  0  0  0  0  0  0  0  0
   -3.6140   -0.3480   -1.4560 C   0  0  0  0  0  0  0  0  0  0  0  0
   -2.9960    0.5370   -0.4040 C   0  0  1  0  0  0  0  0  0  0  0  0
   -1.6450    0.0810    0.0180 C   0  0  0  0  0  0  0  0  0  0  0  0
   -0.9130    0.0530   -1.1660 O   0  0  0  0  0  0  0  0  0  0  0  0
    0.5630   -0.3730   -1.0940 P   0  0  0  0  0  0  0  0  0  0  0  0
    0.2610   -1.7650   -0.3190 O   0  0  0  0  0  0  0  0  0  0  0  0
    0.6210   -0.4130   -2.7420 O   0  0  0  0  0  0  0  0  0  0  0  0
    2.0800   -0.6160   -1.0320 O   0  0  0  0  0  0  0  0  0  0  0  0
    2.7320   -0.6590    0.1910 C   0  0  1  0  0  0  0  0  0  0  0  0
    3.4280   -1.9720    0.4370 C   0  0  2  0  0  0  0  0  0  0  0  0
    2.5380   -3.0390    0.4930 O   0  0  0  0  0  0  0  0  0  0  0  0
    4.0820   -1.8780    1.8010 C   0  0  1  0  0  0  0  0  0  0  0  0
    4.5240   -3.1240    2.2440 O   0  0  0  0  0  0  0  0  0  0  0  0
    5.2110   -0.9050    1.7210 C   0  0  2  0  0  0  0  0  0  0  0  0
    5.2270   -0.1200    2.8930 O   0  0  0  0  0  0  0  0  0  0  0  0
    5.1320    0.0150    0.5200 C   0  0  1  0  0  0  0  0  0  0  0  0
    5.7500   -0.5090   -0.5740 O   0  0  0  0  0  0  0  0  0  0  0  0
    7.0650    0.1490   -1.1750 P   0  0  0  0  0  0  0  0  0  0  0  0
    6.6400    0.1210   -2.6470 O   0  0  0  0  0  0  0  0  0  0  0  0
    8.4210   -0.7470   -1.5050 O   0  0  0  0  0  0  0  0  0  0  0  0
    7.1870    1.8530   -1.3290 O   0  0  0  0  0  0  0  0  0  0  0  0
    3.7400    0.4520    0.2180 C   0  0  1  0  0  0  0  0  0  0  0  0
    3.7590    1.1550   -0.9930 O   0  0  0  0  0  0  0  0  0  0  0  0
   -2.8900    1.8370   -1.0080 O   0  0  0  0  0  0  0  0  0  0  0  0
   -3.5870    2.9310   -0.5280 C   0  0  0  0  0  0  0  0  0  0  0  0
   -4.3280    2.7530    0.4670 O   0  0  0  0  0  0  0  0  0  0  0  0
   -3.4090    4.2240   -1.2190 C   0  0  0  0  0  0  0  0  0  0  0  0
   -4.2260    5.3230   -0.5800 C   0  0  0  0  0  0  0  0  0  0  0  0
   -5.6770    4.9600   -0.6320 C   0  0  0  0  0  0  0  0  0  0  0  0
  1  2  1  0
  2  3  1  0
  3  4  1  0
  4  5  2  0
  4  6  1  0
  6  7  1  0
  8  7  1  6
  8  9  1  0
  8 30  1  0
  9 10  1  0
 10 11  1  0
 11 12  1  0
 11 13  1  0
 11 14  1  0
 15 14  1  6
 15 16  1  0
 15 28  1  0
 16 17  1  1
 16 18  1  0
 18 19  1  6
 18 20  1  0
 20 21  1  1
 20 22  1  0
 22 23  1  6
 22 28  1  0
 23 24  1  0
 24 25  1  0
 24 26  1  0
 24 27  1  0
 28 29  1  6
 30 31  1  0
 31 32  2  0
 31 33  1  0
 33 34  1  0
 34 35  1  0
M  END
