
     RDKit          3D

 34 35  0  0  0  0  0  0  0  0999 V2000
   -1.3910    5.0670   -0.2200 N   0  0  0  0  0  0  0  0  0  0  0  0
   -0.9400    3.8740    0.2860 C   0  0  0  0  0  0  0  0  0  0  0  0
    0.2430    3.8920    0.7980 O   0  0  0  0  0  0  0  0  0  0  0  0
   -1.6570    2.5930    0.2960 C   0  0  0  0  0  0  0  0  0  0  0  0
   -0.9720    1.4740    0.4500 N   0  0  0  0  0  0  0  0  0  0  0  0
   -1.7760    0.3540    0.4240 C   0  0  0  0  0  0  0  0  0  0  0  0
   -1.1280   -0.9580    0.5800 C   0  0  1  0  0  0  0  0  0  0  0  0
   -1.9680   -2.1390    0.4560 C   0  0  0  0  0  0  0  0  0  0  0  0
   -1.1710   -3.4100    0.6200 C   0  0  0  0  0  0  0  0  0  0  0  0
   -0.9960   -3.9950    1.8390 C   0  0  0  0  0  0  0  0  0  0  0  0
   -0.2500   -5.1570    1.9050 C   0  0  0  0  0  0  0  0  0  0  0  0
    0.3020   -5.7100    0.7720 C   0  0  0  0  0  0  0  0  0  0  0  0
    0.1140   -5.1140   -0.4120 N   0  0  0  0  0  0  0  0  0  0  0  0
   -0.6200   -3.9650   -0.4950 C   0  0  0  0  0  0  0  0  0  0  0  0
    0.0010   -0.9890   -0.2710 O   0  0  0  0  0  0  0  0  0  0  0  0
    1.1880   -1.0710    0.4080 C   0  0  0  0  0  0  0  0  0  0  0  0
    2.3900   -1.1040   -0.4860 C   0  0  0  0  0  0  0  0  0  0  0  0
    3.5690   -1.1870    0.2600 O   0  0  0  0  0  0  0  0  0  0  0  0
    4.9670   -1.2270   -0.7290 P   0  0  0  0  0  0  0  0  0  0  0  0
    5.3730   -2.8130   -1.2690 O   0  0  0  0  0  0  0  0  0  0  0  0
    4.9180   -0.1300   -2.0460 O   0  0  0  0  0  0  0  0  0  0  0  0
    5.6410    1.4010   -1.6310 P   0  0  0  0  0  0  0  0  0  0  0  0
    5.9550    1.4730    0.0940 O   0  0  0  0  0  0  0  0  0  0  0  0
    7.1700    1.4850   -2.4600 O   0  0  0  0  0  0  0  0  0  0  0  0
    8.2860    2.5230   -1.6190 P   0  0  0  0  0  0  0  0  0  0  0  0
    7.7310    3.8920   -1.1160 O   0  0  0  0  0  0  0  0  0  0  0  0
   -3.0010    0.8560    0.2450 N   0  0  0  0  0  0  0  0  0  0  0  0
   -4.1440    0.0230    0.1520 C   0  0  0  0  0  0  0  0  0  0  0  0
   -5.2890    0.4870   -0.0100 O   0  0  0  0  0  0  0  0  0  0  0  0
   -2.9590    2.2350    0.1640 C   0  0  0  0  0  0  0  0  0  0  0  0
   -4.0850    3.1220    0.0540 C   0  0  0  0  0  0  0  0  0  0  0  0
   -3.9030    4.5480    0.2320 N   0  0  0  0  0  0  0  0  0  0  0  0
   -5.2840    2.7220   -0.1440 N   0  0  0  0  0  0  0  0  0  0  0  0
   -6.3250    3.6050   -0.2420 O   0  0  0  0  0  0  0  0  0  0  0  0
  1  2  1  0
  2  3  2  0
  2  4  1  0
  4  5  1  0
  4 30  2  0
  5  6  2  0
  6  7  1  0
  6 27  1  0
  7  8  1  6
  7 15  1  0
  8  9  1  0
  9 10  2  0
  9 14  1  0
 10 11  1  0
 11 12  2  0
 12 13  1  0
 13 14  2  0
 15 16  1  0
 16 17  1  0
 17 18  1  0
 18 19  1  0
 19 20  1  0
 19 21  1  0
 21 22  1  0
 22 23  1  0
 22 24  1  0
 24 25  1  0
 25 26  2  0
 27 28  1  0
 27 30  1  0
 28 29  2  0
 30 31  1  0
 31 32  1  0
 31 33  2  3
 33 34  1  0
M  END
