
     RDKit          3D

 33 34  0  0  0  0  0  0  0  0999 V2000
    4.7860    2.6330   -1.7020 C   0  0  0  0  0  0  0  0  0  0  0  0
    4.1820    1.9000   -0.5560 N   0  0  0  0  0  0  0  0  0  0  0  0
    5.0510    1.5900    0.4900 C   0  0  0  0  0  0  0  0  0  0  0  0
    6.3340    1.9040    0.3330 N   0  0  0  0  0  0  0  0  0  0  0  0
    7.2660    1.6440    1.2950 O   0  0  0  0  0  0  0  0  0  0  0  0
    2.8270    1.6350   -0.6040 C   0  0  0  0  0  0  0  0  0  0  0  0
    2.1690    2.1000   -1.6240 O   0  0  0  0  0  0  0  0  0  0  0  0
    2.0680    0.8700    0.4020 C   0  0  1  0  0  0  0  0  0  0  0  0
    0.9510    0.1150   -0.2000 C   0  0  0  0  0  0  0  0  0  0  0  0
    0.8490   -1.1630   -0.4070 C   0  0  0  0  0  0  0  0  0  0  0  0
   -0.3240   -1.7330   -1.0100 N   0  0  0  0  0  0  0  0  0  0  0  0
   -1.4670   -0.9260   -1.3570 C   0  0  0  0  0  0  0  0  0  0  0  0
   -2.1830   -0.3960   -0.1410 C   0  0  0  0  0  0  0  0  0  0  0  0
   -1.6870   -0.7300    0.9580 O   0  0  0  0  0  0  0  0  0  0  0  0
   -3.3250    0.4130   -0.2950 N   0  0  0  0  0  0  0  0  0  0  0  0
   -3.7970    0.7280   -1.6240 C   0  0  0  0  0  0  0  0  0  0  0  0
   -3.1890    1.9750   -2.1530 C   0  0  0  0  0  0  0  0  0  0  0  0
   -2.2590    2.7320   -1.3940 N   0  0  0  0  0  0  0  0  0  0  0  0
   -3.4700    2.4170   -3.2970 O   0  0  0  0  0  0  0  0  0  0  0  0
   -4.0280    0.9220    0.8310 C   0  0  2  0  0  0  0  0  0  0  0  0
   -3.2270    1.6170    1.9040 C   0  0  0  0  0  0  0  0  0  0  0  0
   -4.1260    0.9620    2.9300 C   0  0  0  0  0  0  0  0  0  0  0  0
   -4.4440   -0.0950    1.8980 C   0  0  0  0  0  0  0  0  0  0  0  0
   -0.3820   -3.1540   -1.2840 C   0  0  0  0  0  0  0  0  0  0  0  0
   -0.2290   -4.1930    0.2350 P   0  0  0  0  0  0  0  0  0  0  0  0
   -1.5110   -5.3520    0.3730 O   0  0  0  0  0  0  0  0  0  0  0  0
   -0.0200   -3.2680    1.6640 O   0  0  0  0  0  0  0  0  0  0  0  0
    1.9170   -2.0110   -0.0320 N   0  0  0  0  0  0  0  0  0  0  0  0
    3.0720   -1.4110    1.1790 P   0  0  0  0  0  0  0  0  0  0  0  0
    4.6700   -1.8100    0.6360 O   0  0  0  0  0  0  0  0  0  0  0  0
    4.5320   -3.2920   -0.2930 P   0  0  0  0  0  0  0  0  0  0  0  0
    3.7960   -4.5400    0.2850 O   0  0  0  0  0  0  0  0  0  0  0  0
    2.8190    0.2710    1.3350 O   0  0  0  0  0  0  0  0  0  0  0  0
  1  2  1  0
  2  3  1  0
  2  6  1  0
  3  4  2  3
  4  5  1  0
  6  7  2  0
  8  6  1  6
  8  9  1  0
  8 33  1  0
  9 10  2  0
 10 11  1  0
 10 28  1  0
 11 12  1  0
 11 24  1  0
 12 13  1  0
 13 14  2  0
 13 15  1  0
 15 16  1  0
 20 15  1  6
 16 17  1  0
 17 18  1  0
 17 19  2  0
 20 21  1  0
 20 23  1  0
 21 22  1  0
 22 23  1  0
 24 25  1  0
 25 26  1  0
 25 27  1  0
 28 29  1  0
 29 30  1  0
 29 33  1  0
 30 31  1  0
 31 32  2  0
M  END
