
     RDKit          3D

 34 35  0  0  0  0  0  0  0  0999 V2000
    3.8230   -2.4950   -2.9160 C   0  0  0  0  0  0  0  0  0  0  0  0
    4.1070   -3.1650   -1.6060 C   0  0  0  0  0  0  0  0  0  0  0  0
    3.3730   -2.4940   -0.4540 C   0  0  0  0  0  0  0  0  0  0  0  0
    2.0030   -2.5540   -0.6920 O   0  0  0  0  0  0  0  0  0  0  0  0
    1.0710   -1.8320    0.5410 P   0  0  0  0  0  0  0  0  0  0  0  0
    1.7670   -1.8250    2.0820 O   0  0  0  0  0  0  0  0  0  0  0  0
    2.3480   -0.3060    2.6160 P   0  0  0  0  0  0  0  0  0  0  0  0
    3.7010    0.2720    1.7230 O   0  0  0  0  0  0  0  0  0  0  0  0
    2.8680   -0.5230    4.2800 O   0  0  0  0  0  0  0  0  0  0  0  0
    3.6130    0.9300    4.8740 P   0  0  0  0  0  0  0  0  0  0  0  0
    4.5160    0.7630    6.1290 O   0  0  0  0  0  0  0  0  0  0  0  0
    0.3800   -0.2300    0.0640 N   0  0  0  0  0  0  0  0  0  0  0  0
    1.0200    0.3860   -1.0500 C   0  0  0  0  0  0  0  0  0  0  0  0
    0.5870    1.6950   -1.4830 C   0  0  0  0  0  0  0  0  0  0  0  0
   -0.2330    1.9460   -2.5670 C   0  0  0  0  0  0  0  0  0  0  0  0
   -0.4140    3.2790   -2.6710 N   0  0  0  0  0  0  0  0  0  0  0  0
    0.2390    3.9020   -1.7220 N   0  0  0  0  0  0  0  0  0  0  0  0
    0.2600    5.3190   -1.5440 C   0  0  0  0  0  0  0  0  0  0  0  0
    0.9160    5.8080   -0.6040 O   0  0  0  0  0  0  0  0  0  0  0  0
   -0.4250    6.1690   -2.3820 O   0  0  0  0  0  0  0  0  0  0  0  0
    0.8530    2.9730   -0.9890 C   0  0  0  0  0  0  0  0  0  0  0  0
   -0.6840    0.2610    0.8240 C   0  0  0  0  0  0  0  0  0  0  0  0
   -0.5300    1.3570    1.5510 N   0  0  0  0  0  0  0  0  0  0  0  0
   -1.9940   -0.2960    0.9680 N   0  0  0  0  0  0  0  0  0  0  0  0
   -2.2040   -1.2790    2.0120 C   0  0  0  0  0  0  0  0  0  0  0  0
   -2.4500   -2.6720    1.5530 C   0  0  0  0  0  0  0  0  0  0  0  0
   -3.5380   -2.8820    0.7410 O   0  0  0  0  0  0  0  0  0  0  0  0
   -3.0430    0.1000    0.0910 C   0  0  2  0  0  0  0  0  0  0  0  0
   -4.4440   -0.1180    0.4970 C   0  0  0  0  0  0  0  0  0  0  0  0
   -4.9530   -0.4120    1.7630 N   0  0  0  0  0  0  0  0  0  0  0  0
   -5.3220   -0.0220   -0.4330 O   0  0  0  0  0  0  0  0  0  0  0  0
   -2.7910   -0.1740   -1.3840 C   0  0  0  0  0  0  0  0  0  0  0  0
   -3.2160    1.1020   -1.7340 O   0  0  0  0  0  0  0  0  0  0  0  0
   -2.9240    1.5120   -0.4460 C   0  0  0  0  0  0  0  0  0  0  0  0
  1  2  1  0
  2  3  1  0
  3  4  1  0
  4  5  1  0
  5  6  1  0
  5 12  1  0
  6  7  1  0
  7  8  1  0
  7  9  1  0
  9 10  1  0
 10 11  2  0
 12 13  1  0
 12 22  1  0
 13 14  1  0
 14 15  1  0
 14 21  2  0
 15 16  2  0
 16 17  1  0
 17 18  1  0
 17 21  1  0
 18 19  2  0
 18 20  1  0
 22 23  2  0
 22 24  1  0
 24 25  1  0
 28 24  1  1
 25 26  1  0
 26 27  1  0
 28 29  1  0
 28 32  1  0
 28 34  1  0
 29 30  1  0
 29 31  2  0
 32 33  1  0
 33 34  1  0
M  END
