
     RDKit          3D

 42 46  0  0  0  0  0  0  0  0999 V2000
   -7.0520   -1.9440    1.7240 C   0  0  0  0  0  0  0  0  0  0  0  0
   -6.3990   -0.5540    1.2980 C   0  0  1  0  0  0  0  0  0  0  0  0
   -4.9480   -0.8620    1.4330 C   0  0  0  0  0  0  0  0  0  0  0  0
   -3.9940    0.0780    0.7260 C   0  0  0  0  0  0  0  0  0  0  0  0
   -2.7560   -0.2310    0.3350 C   0  0  0  0  0  0  0  0  0  0  0  0
   -1.9250    0.5940   -0.2700 C   0  0  0  0  0  0  0  0  0  0  0  0
   -0.5920    0.6940   -0.7640 C   0  0  0  0  0  0  0  0  0  0  0  0
   -0.1190    1.6270   -1.2590 O   0  0  0  0  0  0  0  0  0  0  0  0
    0.2540   -0.7510   -0.5140 N   0  0  0  0  0  0  0  0  0  0  0  0
    1.5690   -0.1460   -0.9840 C   0  0  0  0  0  0  0  0  0  0  0  0
    1.7990    0.8950   -1.4790 O   0  0  0  0  0  0  0  0  0  0  0  0
    2.6120   -1.0970   -0.7050 N   0  0  0  0  0  0  0  0  0  0  0  0
    3.9740   -0.8590   -0.8980 C   0  0  0  0  0  0  0  0  0  0  0  0
    4.5230    0.3510   -0.9930 C   0  0  0  0  0  0  0  0  0  0  0  0
    5.8640    0.5770   -1.1700 C   0  0  0  0  0  0  0  0  0  0  0  0
    6.7280   -0.5590   -1.2590 C   0  0  0  0  0  0  0  0  0  0  0  0
    8.1520   -0.3150   -1.3910 C   0  0  0  0  0  0  0  0  0  0  0  0
    8.5960    0.8640   -1.6180 O   0  0  0  0  0  0  0  0  0  0  0  0
    9.0490   -1.3940   -1.2640 N   0  0  0  0  0  0  0  0  0  0  0  0
   10.4440   -1.3900   -1.3270 C   0  0  0  0  0  0  0  0  0  0  0  0
   11.2720   -0.7140   -0.3200 C   0  0  1  0  0  0  0  0  0  0  0  0
   11.4380    0.7580   -0.2910 C   0  0  0  0  0  0  0  0  0  0  0  0
   10.7550    1.1110    1.0140 C   0  0  0  0  0  0  0  0  0  0  0  0
   10.2450   -0.1800    1.5400 C   0  0  0  0  0  0  0  0  0  0  0  0
   11.0670   -1.1480    0.9960 O   0  0  0  0  0  0  0  0  0  0  0  0
    6.1410   -1.7670   -1.1620 C   0  0  0  0  0  0  0  0  0  0  0  0
    4.8020   -2.0010   -0.9830 C   0  0  0  0  0  0  0  0  0  0  0  0
   -2.9750    2.1420   -0.3710 S   0  0  0  0  0  0  0  0  0  0  0  0
   -4.4130    1.3940    0.4650 C   0  0  0  0  0  0  0  0  0  0  0  0
   -5.5500    2.0070    0.7950 C   0  0  0  0  0  0  0  0  0  0  0  0
   -6.5300    2.5170    1.0650 C   0  0  0  0  0  0  0  0  0  0  0  0
   -7.7090    3.1320    1.3990 C   0  0  0  0  0  0  0  0  0  0  0  0
   -8.7330    2.2360    1.8010 O   0  0  0  0  0  0  0  0  0  0  0  0
   -9.5910    1.4230    1.1370 C   0  0  0  0  0  0  0  0  0  0  0  0
  -10.9250    1.5420    1.6010 C   0  0  0  0  0  0  0  0  0  0  0  0
  -11.9930    0.8490    1.1070 C   0  0  0  0  0  0  0  0  0  0  0  0
  -11.7500   -0.0360    0.0700 C   0  0  0  0  0  0  0  0  0  0  0  0
  -10.4740   -0.1600   -0.3800 C   0  0  0  0  0  0  0  0  0  0  0  0
   -9.3420    0.5370    0.1070 C   0  0  0  0  0  0  0  0  0  0  0  0
   -8.0780    0.2510   -0.5040 N   0  0  0  0  0  0  0  0  0  0  0  0
   -6.8810   -0.2680   -0.0720 C   0  0  0  0  0  0  0  0  0  0  0  0
   -5.9750   -0.5830   -0.9710 O   0  0  0  0  0  0  0  0  0  0  0  0
  2  1  1  6
  2  3  1  0
  2 41  1  0
  3  4  1  0
  4  5  1  0
  4 29  2  0
  5  6  2  0
  6  7  1  0
  6 28  1  0
  7  8  2  0
  7  9  1  0
  9 10  1  0
 10 11  2  0
 10 12  1  0
 12 13  1  0
 13 14  2  0
 13 27  1  0
 14 15  1  0
 15 16  2  0
 16 17  1  0
 16 26  1  0
 17 18  2  0
 17 19  1  0
 19 20  1  0
 21 20  1  6
 21 22  1  0
 21 25  1  0
 22 23  1  0
 23 24  1  0
 24 25  1  0
 26 27  2  0
 28 29  1  0
 29 30  1  0
 30 31  3  0
 31 32  1  0
 32 33  1  0
 33 34  1  0
 34 35  2  0
 34 39  1  0
 35 36  1  0
 36 37  2  0
 37 38  1  0
 38 39  2  0
 39 40  1  0
 40 41  1  0
 41 42  2  0
M  END
