
     RDKit          3D

 42 45  0  0  0  0  0  0  0  0999 V2000
   -0.3340   -5.5960    0.6500 C   0  0  0  0  0  0  0  0  0  0  0  0
    0.7250   -4.7370    0.9060 O   0  0  0  0  0  0  0  0  0  0  0  0
    1.4790   -4.5150   -0.2070 C   0  0  0  0  0  0  0  0  0  0  0  0
    0.7720   -3.7460   -1.2530 C   0  0  0  0  0  0  0  0  0  0  0  0
    0.4060   -2.4280   -0.7940 N   0  0  0  0  0  0  0  0  0  0  0  0
   -0.8770   -2.1920   -0.2520 C   0  0  0  0  0  0  0  0  0  0  0  0
   -1.9460   -1.8590   -1.2380 C   0  0  1  0  0  0  0  0  0  0  0  0
   -3.2940   -1.9480   -0.5120 C   0  0  0  0  0  0  0  0  0  0  0  0
   -4.2780   -0.9840   -1.1690 C   0  0  0  0  0  0  0  0  0  0  0  0
   -3.6700    0.3510   -1.0220 C   0  0  0  0  0  0  0  0  0  0  0  0
   -4.2400    1.4050   -0.5000 C   0  0  0  0  0  0  0  0  0  0  0  0
   -5.6000    1.4040    0.0340 C   0  0  0  0  0  0  0  0  0  0  0  0
   -6.1730    0.5060    0.9230 C   0  0  0  0  0  0  0  0  0  0  0  0
   -7.4730    0.8770    1.1520 C   0  0  0  0  0  0  0  0  0  0  0  0
   -7.6620    2.0200    0.3780 C   0  0  0  0  0  0  0  0  0  0  0  0
   -6.5520    2.2880   -0.2510 O   0  0  0  0  0  0  0  0  0  0  0  0
   -8.9620    2.6940    0.3830 C   0  0  1  0  0  0  0  0  0  0  0  0
   -9.1250    3.3120   -0.8800 O   0  0  0  0  0  0  0  0  0  0  0  0
  -10.1490    1.8470    0.6430 C   0  0  1  0  0  0  0  0  0  0  0  0
  -11.1170    1.8820   -0.5480 C   0  0  0  0  0  0  0  0  0  0  0  0
   -9.8090    0.4250    0.9370 C   0  0  0  0  0  0  0  0  0  0  0  0
   -8.6450    0.4190    1.9390 C   0  0  0  0  0  0  0  0  0  0  0  0
   -2.2500    0.4450   -1.5240 C   0  0  0  0  0  0  0  0  0  0  0  0
   -1.7830   -0.7450   -1.9880 O   0  0  0  0  0  0  0  0  0  0  0  0
    1.3880   -1.3980   -0.9600 C   0  0  0  0  0  0  0  0  0  0  0  0
    1.1540   -0.2090   -0.5980 O   0  0  0  0  0  0  0  0  0  0  0  0
    2.6860   -1.6510   -1.5400 C   0  0  0  0  0  0  0  0  0  0  0  0
    3.6030   -0.7090   -1.7010 C   0  0  0  0  0  0  0  0  0  0  0  0
    3.3660    0.6090   -1.3110 O   0  0  0  0  0  0  0  0  0  0  0  0
    4.4190    1.5480   -1.2400 C   0  0  0  0  0  0  0  0  0  0  0  0
    5.4890    1.1170   -0.2650 C   0  0  0  0  0  0  0  0  0  0  0  0
    6.5680    2.1180   -0.2150 C   0  0  0  0  0  0  0  0  0  0  0  0
    6.4440    3.1600   -0.9280 O   0  0  0  0  0  0  0  0  0  0  0  0
    7.7320    1.9260    0.6160 N   0  0  0  0  0  0  0  0  0  0  0  0
    7.8060    0.7160    1.3970 C   0  0  0  0  0  0  0  0  0  0  0  0
    8.8130    0.9070    2.5080 C   0  0  0  0  0  0  0  0  0  0  0  0
   10.4060    1.1160    1.7000 S   0  0  2  0  0  0  0  0  0  0  0  0
   10.7230   -0.1960    1.0540 O   0  0  0  0  0  0  0  0  0  0  0  0
   11.4610    1.4750    2.6780 O   0  0  0  0  0  0  0  0  0  0  0  0
   10.1340    2.4010    0.4810 C   0  0  1  0  0  0  0  0  0  0  0  0
   10.4320    1.9320   -0.9120 C   0  0  0  0  0  0  0  0  0  0  0  0
    8.7270    2.9510    0.6020 C   0  0  0  0  0  0  0  0  0  0  0  0
  1  2  1  0
  2  3  1  0
  3  4  1  0
  4  5  1  0
  5  6  1  0
  5 25  1  0
  7  6  1  1
  7  8  1  0
  7 24  1  0
  8  9  1  0
  9 10  1  0
 10 11  2  3
 10 23  1  0
 11 12  1  0
 12 13  2  0
 12 16  1  0
 13 14  1  0
 14 15  2  0
 14 22  1  0
 15 16  1  0
 15 17  1  0
 17 18  1  6
 17 19  1  0
 19 20  1  6
 19 21  1  0
 21 22  1  0
 23 24  1  0
 25 26  2  0
 25 27  1  0
 27 28  2  3
 28 29  1  0
 29 30  1  0
 30 31  1  0
 31 32  1  0
 32 33  2  0
 32 34  1  0
 34 35  1  0
 34 42  1  0
 35 36  1  0
 37 36  1  1
 37 38  2  0
 37 39  2  0
 37 40  1  0
 40 41  1  6
 40 42  1  0
M  END
