
     RDKit          3D

 42 45  0  0  0  0  0  0  0  0999 V2000
   -5.3160    1.8690    4.8810 C   0  0  0  0  0  0  0  0  0  0  0  0
   -6.0040    1.7170    3.6920 O   0  0  0  0  0  0  0  0  0  0  0  0
   -5.7680    0.8650    2.6680 C   0  0  0  0  0  0  0  0  0  0  0  0
   -4.6170    0.0050    2.8870 C   0  0  0  0  0  0  0  0  0  0  0  0
   -3.6460   -0.2510    1.8650 C   0  0  0  0  0  0  0  0  0  0  0  0
   -3.9610   -1.5930    1.2290 C   0  0  0  0  0  0  0  0  0  0  0  0
   -2.5780    0.4500    1.3910 C   0  0  0  0  0  0  0  0  0  0  0  0
   -2.7820    1.8340    0.7890 C   0  0  0  0  0  0  0  0  0  0  0  0
   -1.1990    0.1710    1.3470 N   0  0  0  0  0  0  0  0  0  0  0  0
   -0.5540   -0.7480    0.5430 C   0  0  0  0  0  0  0  0  0  0  0  0
    0.9590   -0.6700    0.6820 C   0  0  0  0  0  0  0  0  0  0  0  0
    1.4130    0.3130   -0.3480 C   0  0  0  0  0  0  0  0  0  0  0  0
    2.8530    0.5330   -0.3760 C   0  0  0  0  0  0  0  0  0  0  0  0
    3.4240    1.5160    0.3940 C   0  0  0  0  0  0  0  0  0  0  0  0
    4.8110    1.7360    0.3760 C   0  0  0  0  0  0  0  0  0  0  0  0
    5.5910    0.9430   -0.4340 C   0  0  0  0  0  0  0  0  0  0  0  0
    5.0380   -0.0470   -1.2140 C   0  0  0  0  0  0  0  0  0  0  0  0
    3.6530   -0.2520   -1.1820 C   0  0  0  0  0  0  0  0  0  0  0  0
    5.9350   -0.8600   -2.0590 C   0  0  0  0  0  0  0  0  0  0  0  0
    7.1220   -1.2720   -1.2490 C   0  0  0  0  0  0  0  0  0  0  0  0
    7.6760   -0.2350   -0.3360 C   0  0  1  0  0  0  0  0  0  0  0  0
    9.1120   -0.0960   -0.4890 N   0  0  0  0  0  0  0  0  0  0  0  0
    9.9340   -0.4260    0.9690 S   0  0  1  0  0  0  0  0  0  0  0  0
    9.1410   -1.3950    1.8240 O   0  0  0  0  0  0  0  0  0  0  0  0
   11.2780   -1.0500    0.7300 O   0  0  0  0  0  0  0  0  0  0  0  0
   10.1410    0.9740    1.9110 O   0  0  0  0  0  0  0  0  0  0  0  0
    7.0560    1.1360   -0.4860 C   0  0  0  0  0  0  0  0  0  0  0  0
   -1.1470   -1.6430   -0.2570 N   0  0  0  0  0  0  0  0  0  0  0  0
   -2.0250   -1.8800   -1.1540 C   0  0  0  0  0  0  0  0  0  0  0  0
   -2.4110   -3.1930   -1.0380 O   0  0  0  0  0  0  0  0  0  0  0  0
   -2.8150   -1.4230   -2.2470 C   0  0  0  0  0  0  0  0  0  0  0  0
   -2.5110   -2.1940   -3.3990 C   0  0  0  0  0  0  0  0  0  0  0  0
   -2.9940   -2.0470   -4.6620 C   0  0  0  0  0  0  0  0  0  0  0  0
   -3.8890   -1.0300   -4.8620 C   0  0  0  0  0  0  0  0  0  0  0  0
   -4.1910   -0.2940   -3.7880 C   0  0  0  0  0  0  0  0  0  0  0  0
   -3.7150   -0.4060   -2.4310 C   0  0  0  0  0  0  0  0  0  0  0  0
   -4.3220    0.5530   -1.6420 N   0  0  0  0  0  0  0  0  0  0  0  0
   -5.2590    0.9460   -0.8100 C   0  0  0  0  0  0  0  0  0  0  0  0
   -5.4440    2.3420   -1.0110 O   0  0  0  0  0  0  0  0  0  0  0  0
   -6.1570    0.6480    0.1700 C   0  0  0  0  0  0  0  0  0  0  0  0
   -6.5190    0.7750    1.4920 C   0  0  0  0  0  0  0  0  0  0  0  0
   -8.0140    0.8040    1.8890 C   0  0  0  0  0  0  0  0  0  0  0  0
  1  2  1  0
  2  3  1  0
  3  4  2  0
  3 41  1  0
  4  5  1  0
  5  6  1  0
  5  7  2  0
  7  8  1  0
  7  9  1  0
  9 10  2  0
 10 11  1  0
 10 28  1  0
 11 12  1  0
 12 13  1  0
 13 14  2  0
 13 18  1  0
 14 15  1  0
 15 16  2  0
 16 17  1  0
 16 27  1  0
 17 18  2  0
 17 19  1  0
 19 20  1  0
 20 21  1  0
 21 22  1  6
 21 27  1  0
 22 23  1  0
 23 24  2  0
 23 25  2  0
 23 26  1  1
 28 29  1  0
 29 30  2  0
 29 31  1  0
 31 32  2  0
 31 36  1  0
 32 33  1  0
 33 34  2  0
 34 35  1  0
 35 36  2  0
 36 37  1  0
 37 38  1  0
 38 39  2  0
 38 40  1  0
 40 41  2  0
 41 42  1  0
M  END
