
     RDKit          3D

 42 45  0  0  0  0  0  0  0  0999 V2000
   -5.7470    0.5160    1.1150 C   0  0  0  0  0  0  0  0  0  0  0  0
   -6.6650   -0.1960    0.1630 C   0  0  0  0  0  0  0  0  0  0  0  0
   -6.0380   -0.6830   -1.0920 C   0  0  2  0  0  0  0  0  0  0  0  0
   -7.0360   -1.3820   -2.0020 C   0  0  0  0  0  0  0  0  0  0  0  0
   -7.6360   -2.4790   -1.4370 O   0  0  0  0  0  0  0  0  0  0  0  0
   -4.8040   -1.4990   -0.9720 C   0  0  2  0  0  0  0  0  0  0  0  0
   -4.9480   -2.7640   -0.1740 C   0  0  0  0  0  0  0  0  0  0  0  0
   -3.6280   -3.5020   -0.1530 C   0  0  0  0  0  0  0  0  0  0  0  0
   -2.6640   -2.9850   -1.2170 C   0  0  0  0  0  0  0  0  0  0  0  0
   -2.4120   -1.5960   -0.9220 N   0  0  0  0  0  0  0  0  0  0  0  0
   -1.0910   -1.0520   -0.9580 C   0  0  0  0  0  0  0  0  0  0  0  0
   -0.1680   -1.8680   -1.2510 O   0  0  0  0  0  0  0  0  0  0  0  0
   -0.8400    0.3520   -0.6700 C   0  0  0  0  0  0  0  0  0  0  0  0
    0.2120    0.6320    0.3920 C   0  0  2  0  0  0  0  0  0  0  0  0
   -0.2730   -0.0520    1.6480 C   0  0  0  0  0  0  0  0  0  0  0  0
    0.1760    2.1300    0.5530 C   0  0  0  0  0  0  0  0  0  0  0  0
   -0.2370    2.7210    1.5660 O   0  0  0  0  0  0  0  0  0  0  0  0
    0.6340    2.8890   -0.5070 O   0  0  0  0  0  0  0  0  0  0  0  0
    0.6490    4.3120   -0.4770 C   0  0  0  0  0  0  0  0  0  0  0  0
   -0.6400    4.8860   -0.2960 C   0  0  0  0  0  0  0  0  0  0  0  0
   -1.1260    6.1800   -0.0820 C   0  0  0  0  0  0  0  0  0  0  0  0
   -2.4270    6.4010    0.0540 C   0  0  0  0  0  0  0  0  0  0  0  0
   -3.3110    5.3400   -0.0160 C   0  0  0  0  0  0  0  0  0  0  0  0
   -2.2310    3.9300   -0.2940 S   0  0  0  0  0  0  0  0  0  0  0  0
    1.5790    0.2930   -0.0150 C   0  0  0  0  0  0  0  0  0  0  0  0
    1.8070   -0.2510   -1.1670 O   0  0  0  0  0  0  0  0  0  0  0  0
    2.7480    0.5040    0.7510 N   0  0  0  0  0  0  0  0  0  0  0  0
    2.8280    1.1080    2.0590 C   0  0  0  0  0  0  0  0  0  0  0  0
    3.5250    0.1210    3.0020 C   0  0  0  0  0  0  0  0  0  0  0  0
    3.8210   -1.0580    2.3590 O   0  0  0  0  0  0  0  0  0  0  0  0
    4.6410   -0.8780    1.2590 C   0  0  2  0  0  0  0  0  0  0  0  0
    6.0060   -0.4650    1.7330 C   0  0  0  0  0  0  0  0  0  0  0  0
    6.9010   -0.2680    0.6470 O   0  0  0  0  0  0  0  0  0  0  0  0
    7.2270   -1.2590   -0.2430 C   0  0  0  0  0  0  0  0  0  0  0  0
    7.2060   -2.5600    0.0720 C   0  0  0  0  0  0  0  0  0  0  0  0
    7.5570   -3.6280   -0.8880 C   0  0  0  0  0  0  0  0  0  0  0  0
    7.9110   -3.1410   -2.1510 O   0  0  0  0  0  0  0  0  0  0  0  0
    7.9430   -1.8170   -2.5080 C   0  0  0  0  0  0  0  0  0  0  0  0
    7.6160   -0.9000   -1.5990 C   0  0  0  0  0  0  0  0  0  0  0  0
    7.6690    0.4150   -2.0290 O   0  0  0  0  0  0  0  0  0  0  0  0
    4.0770    0.0880    0.2320 C   0  0  0  0  0  0  0  0  0  0  0  0
   -3.5760   -0.7640   -0.5560 C   0  0  0  0  0  0  0  0  0  0  0  0
  1  2  1  0
  3  2  1  1
  3  4  1  0
  3  6  1  0
  4  5  1  0
  6  7  1  1
  6 42  1  0
  7  8  1  0
  8  9  1  0
  9 10  1  0
 10 11  1  0
 10 42  1  0
 11 12  2  0
 11 13  1  0
 13 14  1  0
 14 15  1  1
 14 16  1  0
 14 25  1  0
 16 17  2  0
 16 18  1  0
 18 19  1  0
 19 20  1  0
 20 21  2  0
 20 24  1  0
 21 22  1  0
 22 23  2  0
 23 24  1  0
 25 26  2  0
 25 27  1  0
 27 28  1  0
 27 41  1  0
 28 29  1  0
 29 30  1  0
 30 31  1  0
 31 32  1  1
 31 41  1  0
 32 33  1  0
 33 34  1  0
 34 35  2  0
 34 39  1  0
 35 36  1  0
 36 37  1  0
 37 38  1  0
 38 39  2  0
 39 40  1  0
M  END
