
     RDKit          3D

 42 45  0  0  0  0  0  0  0  0999 V2000
   -0.3560    1.3820    2.3400 C   0  0  0  0  0  0  0  0  0  0  0  0
    0.0960    1.4180    0.9080 C   0  0  0  0  0  0  0  0  0  0  0  0
   -0.1260    0.3120    0.1890 O   0  0  0  0  0  0  0  0  0  0  0  0
    0.2000    0.1410   -1.0670 C   0  0  1  0  0  0  0  0  0  0  0  0
    1.1110   -0.9670   -1.5030 C   0  0  0  0  0  0  0  0  0  0  0  0
    2.3690   -1.0000   -0.9820 O   0  0  0  0  0  0  0  0  0  0  0  0
    2.5300   -1.2220    0.3450 C   0  0  0  0  0  0  0  0  0  0  0  0
    3.9960   -1.2000    0.7120 C   0  0  0  0  0  0  0  0  0  0  0  0
    4.2850   -1.3740    1.8940 O   0  0  0  0  0  0  0  0  0  0  0  0
    4.9900   -0.9890   -0.2550 N   0  0  0  0  0  0  0  0  0  0  0  0
    6.3810   -0.9370   -0.0680 C   0  0  0  0  0  0  0  0  0  0  0  0
    6.9500   -0.8680    1.1640 C   0  0  0  0  0  0  0  0  0  0  0  0
    8.3360   -0.8330    1.2800 C   0  0  0  0  0  0  0  0  0  0  0  0
    9.1960   -0.8630    0.2060 C   0  0  0  0  0  0  0  0  0  0  0  0
   10.6610   -0.7810    0.4150 C   0  0  2  0  0  0  0  0  0  0  0  0
   10.9380   -1.1770    1.8920 C   0  0  0  0  0  0  0  0  0  0  0  0
   11.2220    0.6060    0.3110 C   0  0  0  0  0  0  0  0  0  0  0  0
   11.0100    1.4350   -1.2030 S   0  0  2  0  0  0  0  0  0  0  0  0
   11.8510    0.8340   -2.2990 O   0  0  0  0  0  0  0  0  0  0  0  0
   11.5900    2.8440   -1.0140 O   0  0  0  0  0  0  0  0  0  0  0  0
    8.6140   -0.9330   -1.0420 C   0  0  0  0  0  0  0  0  0  0  0  0
    9.4070   -0.9740   -2.1890 O   0  0  0  0  0  0  0  0  0  0  0  0
    7.2430   -0.9680   -1.1640 C   0  0  0  0  0  0  0  0  0  0  0  0
   -0.9570    0.1960   -2.0710 C   0  0  0  0  0  0  0  0  0  0  0  0
   -1.9850   -0.8100   -1.8450 C   0  0  0  0  0  0  0  0  0  0  0  0
   -1.8030   -1.9680   -2.2860 O   0  0  0  0  0  0  0  0  0  0  0  0
   -3.2050   -0.5800   -1.1490 N   0  0  0  0  0  0  0  0  0  0  0  0
   -4.1630   -1.6570   -0.9900 C   0  0  0  0  0  0  0  0  0  0  0  0
   -5.4620   -1.1430   -1.5720 C   0  0  0  0  0  0  0  0  0  0  0  0
   -6.0100    0.0200   -0.7700 C   0  0  2  0  0  0  0  0  0  0  0  0
   -6.8940   -0.6180    0.2710 C   0  0  0  0  0  0  0  0  0  0  0  0
   -7.5850    0.2790    1.2140 C   0  0  1  0  0  0  0  0  0  0  0  0
   -8.5280    1.2690    0.5850 C   0  0  0  0  0  0  0  0  0  0  0  0
   -9.7690    1.3660    1.4840 C   0  0  0  0  0  0  0  0  0  0  0  0
  -10.5620    0.2500    1.4180 O   0  0  0  0  0  0  0  0  0  0  0  0
   -9.7810   -0.9010    1.4850 C   0  0  0  0  0  0  0  0  0  0  0  0
   -8.4360   -0.6190    2.1170 C   0  0  0  0  0  0  0  0  0  0  0  0
   -6.8240    0.7560   -1.6220 O   0  0  0  0  0  0  0  0  0  0  0  0
   -6.0810    1.8150   -2.0880 C   0  0  0  0  0  0  0  0  0  0  0  0
   -5.3490    2.2730   -0.8490 C   0  0  0  0  0  0  0  0  0  0  0  0
   -4.9630    0.9270   -0.2370 C   0  0  2  0  0  0  0  0  0  0  0  0
   -3.5600    0.6760   -0.5750 C   0  0  0  0  0  0  0  0  0  0  0  0
  1  2  1  0
  2  3  1  0
  3  4  1  0
  4  5  1  1
  4 24  1  0
  5  6  1  0
  6  7  1  0
  7  8  1  0
  8  9  2  0
  8 10  1  0
 10 11  1  0
 11 12  2  0
 11 23  1  0
 12 13  1  0
 13 14  2  0
 14 15  1  0
 14 21  1  0
 15 16  1  1
 15 17  1  0
 18 17  1  1
 18 19  2  0
 18 20  2  0
 21 22  1  0
 21 23  2  0
 24 25  1  0
 25 26  2  0
 25 27  1  0
 27 28  1  0
 27 42  1  0
 28 29  1  0
 29 30  1  0
 30 31  1  1
 30 38  1  0
 30 41  1  0
 32 31  1  6
 32 33  1  0
 32 37  1  0
 33 34  1  0
 34 35  1  0
 35 36  1  0
 36 37  1  0
 38 39  1  0
 39 40  1  0
 41 40  1  6
 41 42  1  0
M  END
