
     RDKit          3D

 47 51  0  0  0  0  0  0  0  0999 V2000
    8.0020   -4.6170    1.5230 C   0  0  0  0  0  0  0  0  0  0  0  0
    7.0390   -5.0140    0.3980 C   0  0  0  0  0  0  0  0  0  0  0  0
    6.2240   -3.8030    0.0850 C   0  0  0  0  0  0  0  0  0  0  0  0
    6.7600   -2.9290   -0.8610 C   0  0  0  0  0  0  0  0  0  0  0  0
    6.0260   -1.8060   -1.1230 C   0  0  0  0  0  0  0  0  0  0  0  0
    4.8130   -1.5170   -0.5020 C   0  0  0  0  0  0  0  0  0  0  0  0
    4.1900   -0.3340   -0.8500 O   0  0  0  0  0  0  0  0  0  0  0  0
    4.7770    0.5870   -1.7370 C   0  0  0  0  0  0  0  0  0  0  0  0
    4.2880   -2.3850    0.4310 C   0  0  0  0  0  0  0  0  0  0  0  0
    3.1280   -2.1840    1.0730 O   0  0  0  0  0  0  0  0  0  0  0  0
    2.2260   -1.0550    0.9660 C   0  0  2  0  0  0  0  0  0  0  0  0
    2.9150   -0.0510    1.8880 C   0  0  0  0  0  0  0  0  0  0  0  0
    2.2830    1.2850    1.8970 C   0  0  0  0  0  0  0  0  0  0  0  0
    2.2250    1.7350    0.5520 O   0  0  0  0  0  0  0  0  0  0  0  0
    1.6800    2.9240    0.1850 C   0  0  0  0  0  0  0  0  0  0  0  0
    1.1180    3.8280    1.0650 C   0  0  0  0  0  0  0  0  0  0  0  0
    0.5850    5.0070    0.6550 C   0  0  0  0  0  0  0  0  0  0  0  0
    0.5860    5.3470   -0.6890 C   0  0  0  0  0  0  0  0  0  0  0  0
    1.1390    4.4670   -1.5950 C   0  0  0  0  0  0  0  0  0  0  0  0
    1.6720    3.2840   -1.1600 C   0  0  0  0  0  0  0  0  0  0  0  0
    0.9060   -1.5220    1.4150 C   0  0  0  0  0  0  0  0  0  0  0  0
   -0.3050   -0.7040    1.3210 C   0  0  0  0  0  0  0  0  0  0  0  0
   -0.8420    0.0950    2.2860 C   0  0  0  0  0  0  0  0  0  0  0  0
   -2.0170    0.7910    2.1100 C   0  0  0  0  0  0  0  0  0  0  0  0
   -2.7520    0.7230    0.9140 C   0  0  0  0  0  0  0  0  0  0  0  0
   -3.9910    1.3880    0.8440 N   0  0  0  0  0  0  0  0  0  0  0  0
   -4.4280    2.3950    1.8280 C   0  0  2  0  0  0  0  0  0  0  0  0
   -3.4940    3.5330    1.9830 C   0  0  0  0  0  0  0  0  0  0  0  0
   -3.3790    4.0960    3.3790 C   0  0  0  0  0  0  0  0  0  0  0  0
   -4.6910    3.9830    3.9840 N   0  0  0  0  0  0  0  0  0  0  0  0
   -5.0100    2.5860    4.2610 C   0  0  0  0  0  0  0  0  0  0  0  0
   -4.9780    1.7440    3.0290 C   0  0  0  0  0  0  0  0  0  0  0  0
   -2.2410   -0.0740   -0.0900 C   0  0  0  0  0  0  0  0  0  0  0  0
   -2.9260   -0.1700   -1.3690 C   0  0  0  0  0  0  0  0  0  0  0  0
   -3.9590    0.6530   -1.4480 O   0  0  0  0  0  0  0  0  0  0  0  0
   -2.7640   -0.9130   -2.4920 N   0  0  0  0  0  0  0  0  0  0  0  0
   -1.7690   -1.8510   -2.8850 C   0  0  0  0  0  0  0  0  0  0  0  0
   -2.2610   -3.1980   -2.3280 C   0  0  0  0  0  0  0  0  0  0  0  0
   -3.7890   -3.1070   -2.3600 C   0  0  2  0  0  0  0  0  0  0  0  0
   -4.3100   -4.3720   -2.3700 O   0  0  0  0  0  0  0  0  0  0  0  0
   -4.2390   -2.3680   -3.6080 C   0  0  0  0  0  0  0  0  0  0  0  0
   -3.9280   -0.8800   -3.4770 C   0  0  2  0  0  0  0  0  0  0  0  0
   -3.5540   -0.2300   -4.7200 C   0  0  0  0  0  0  0  0  0  0  0  0
   -4.3850   -0.1670   -5.8730 N   0  0  0  0  0  0  0  0  0  0  0  0
   -2.4170    0.3270   -4.8090 O   0  0  0  0  0  0  0  0  0  0  0  0
   -1.0510   -0.7620    0.1190 C   0  0  0  0  0  0  0  0  0  0  0  0
    5.0450   -3.5360    0.6960 C   0  0  0  0  0  0  0  0  0  0  0  0
  1  2  1  0
  2  3  1  0
  3  4  2  0
  3 47  1  0
  4  5  1  0
  5  6  2  0
  6  7  1  0
  6  9  1  0
  7  8  1  0
  9 10  1  0
  9 47  2  0
 10 11  1  0
 11 12  1  1
 11 21  1  0
 12 13  1  0
 13 14  1  0
 14 15  1  0
 15 16  2  0
 15 20  1  0
 16 17  1  0
 17 18  2  0
 18 19  1  0
 19 20  2  0
 21 22  1  0
 22 23  2  0
 22 46  1  0
 23 24  1  0
 24 25  2  0
 25 26  1  0
 25 33  1  0
 27 26  1  1
 27 28  1  0
 27 32  1  0
 28 29  1  0
 29 30  1  0
 30 31  1  0
 31 32  1  0
 33 34  1  0
 33 46  2  0
 34 35  2  0
 34 36  1  0
 36 37  1  0
 36 42  1  0
 37 38  1  0
 38 39  1  0
 39 40  1  6
 39 41  1  0
 41 42  1  0
 42 43  1  6
 43 44  1  0
 43 45  2  0
M  END
