
     RDKit          3D

 47 50  0  0  0  0  0  0  0  0999 V2000
   -3.2330   -0.9990   -6.3700 C   0  0  0  0  0  0  0  0  0  0  0  0
   -4.1240   -2.0120   -5.7350 C   0  0  0  0  0  0  0  0  0  0  0  0
   -4.9850   -1.4590   -4.6580 C   0  0  1  0  0  0  0  0  0  0  0  0
   -5.9160   -2.6420   -4.2560 C   0  0  0  0  0  0  0  0  0  0  0  0
   -6.5800   -3.0070   -5.4020 O   0  0  0  0  0  0  0  0  0  0  0  0
   -4.3500   -1.0880   -3.3980 N   0  0  0  0  0  0  0  0  0  0  0  0
   -3.3040   -0.2510   -3.0730 C   0  0  0  0  0  0  0  0  0  0  0  0
   -2.6800    0.3160   -3.9930 O   0  0  0  0  0  0  0  0  0  0  0  0
   -2.8530    0.0540   -1.6800 C   0  0  0  0  0  0  0  0  0  0  0  0
   -3.5080   -0.4400   -0.6980 C   0  0  0  0  0  0  0  0  0  0  0  0
   -3.4630   -0.3910    0.7570 C   0  0  1  0  0  0  0  0  0  0  0  0
   -4.9880   -0.1150    1.1500 C   0  0  0  0  0  0  0  0  0  0  0  0
   -3.2070   -1.6630    1.3790 C   0  0  0  0  0  0  0  0  0  0  0  0
   -3.0100   -2.6960    1.8970 N   0  0  0  0  0  0  0  0  0  0  0  0
   -1.5310    0.6460   -1.5920 C   0  0  0  0  0  0  0  0  0  0  0  0
   -0.9960    1.2210   -2.6070 O   0  0  0  0  0  0  0  0  0  0  0  0
   -0.7770    0.6150   -0.4490 N   0  0  0  0  0  0  0  0  0  0  0  0
    0.5700    1.1230   -0.1060 C   0  0  2  0  0  0  0  0  0  0  0  0
    1.1370    0.0880    0.7590 C   0  0  0  0  0  0  0  0  0  0  0  0
    0.3450   -0.9360    0.9810 O   0  0  0  0  0  0  0  0  0  0  0  0
    2.3980   -0.0280    1.4010 N   0  0  0  0  0  0  0  0  0  0  0  0
    2.5960   -1.1710    2.2000 C   0  0  0  0  0  0  0  0  0  0  0  0
    1.5270   -1.7050    2.8830 C   0  0  0  0  0  0  0  0  0  0  0  0
    1.6030   -2.8360    3.6720 C   0  0  0  0  0  0  0  0  0  0  0  0
    2.8400   -3.4620    3.7800 C   0  0  0  0  0  0  0  0  0  0  0  0
    3.9070   -2.9500    3.1190 C   0  0  0  0  0  0  0  0  0  0  0  0
    3.7950   -1.8000    2.3280 C   0  0  0  0  0  0  0  0  0  0  0  0
    5.0520   -1.2180    1.8440 C   0  0  0  0  0  0  0  0  0  0  0  0
    5.1820   -0.0450    1.4480 O   0  0  0  0  0  0  0  0  0  0  0  0
    6.2070   -2.1020    1.8540 C   0  0  0  0  0  0  0  0  0  0  0  0
    6.0580   -3.3240    1.2060 C   0  0  0  0  0  0  0  0  0  0  0  0
    7.0840   -4.2780    1.3480 C   0  0  0  0  0  0  0  0  0  0  0  0
    8.1600   -4.0120    2.0780 C   0  0  0  0  0  0  0  0  0  0  0  0
    8.3430   -2.7970    2.7390 C   0  0  0  0  0  0  0  0  0  0  0  0
    7.3050   -1.8570    2.5850 C   0  0  0  0  0  0  0  0  0  0  0  0
    0.5100    2.5040    0.3380 C   0  0  0  0  0  0  0  0  0  0  0  0
    1.1080    3.4900   -0.4620 C   0  0  0  0  0  0  0  0  0  0  0  0
    1.1150    4.8310   -0.1960 C   0  0  0  0  0  0  0  0  0  0  0  0
    1.7910    5.6930   -1.0910 O   0  0  0  0  0  0  0  0  0  0  0  0
    1.6520    7.1010   -0.9000 C   0  0  0  0  0  0  0  0  0  0  0  0
    0.5060    5.3030    0.9200 C   0  0  0  0  0  0  0  0  0  0  0  0
   -0.1040    4.3460    1.7600 C   0  0  0  0  0  0  0  0  0  0  0  0
   -0.6830    4.8670    2.9020 C   0  0  0  0  0  0  0  0  0  0  0  0
   -1.2850    3.9870    3.8000 C   0  0  0  0  0  0  0  0  0  0  0  0
   -1.2670    2.6520    3.5090 C   0  0  0  0  0  0  0  0  0  0  0  0
   -0.6820    2.1250    2.3590 C   0  0  0  0  0  0  0  0  0  0  0  0
   -0.0960    3.0060    1.4740 C   0  0  0  0  0  0  0  0  0  0  0  0
  1  2  1  0
  3  2  1  6
  3  4  1  0
  3  6  1  0
  4  5  1  0
  6  7  1  0
  7  8  2  0
  7  9  1  0
  9 10  2  3
  9 15  1  0
 10 11  1  0
 11 12  1  1
 11 13  1  0
 13 14  3  0
 15 16  2  0
 15 17  1  0
 18 17  1  1
 18 19  1  0
 18 36  1  0
 19 20  2  0
 19 21  1  0
 21 22  1  0
 22 23  2  0
 22 27  1  0
 23 24  1  0
 24 25  2  0
 25 26  1  0
 26 27  2  0
 27 28  1  0
 28 29  2  0
 28 30  1  0
 30 31  2  0
 30 35  1  0
 31 32  1  0
 32 33  2  0
 33 34  1  0
 34 35  2  0
 36 37  2  0
 36 47  1  0
 37 38  1  0
 38 39  1  0
 38 41  2  0
 39 40  1  0
 41 42  1  0
 42 43  2  0
 42 47  1  0
 43 44  1  0
 44 45  2  0
 45 46  1  0
 46 47  2  0
M  END
