
     RDKit          3D

 47 51  0  0  0  0  0  0  0  0999 V2000
   -2.3120   -1.4060    3.9470 C   0  0  0  0  0  0  0  0  0  0  0  0
   -1.4470   -0.8080    2.8900 C   0  0  0  0  0  0  0  0  0  0  0  0
   -1.7150   -1.2520    1.5820 O   0  0  0  0  0  0  0  0  0  0  0  0
   -2.9540   -1.1030    0.9620 C   0  0  0  0  0  0  0  0  0  0  0  0
   -3.8260   -0.5280    1.6850 O   0  0  0  0  0  0  0  0  0  0  0  0
   -3.2740   -1.5420   -0.3740 C   0  0  1  0  0  0  0  0  0  0  0  0
   -2.9700   -0.6640   -1.5350 C   0  0  0  0  0  0  0  0  0  0  0  0
   -1.5930   -0.2400   -1.7740 C   0  0  1  0  0  0  0  0  0  0  0  0
   -1.4850    0.6040   -3.0910 C   0  0  0  0  0  0  0  0  0  0  0  0
   -0.2530    1.1600   -3.1970 O   0  0  0  0  0  0  0  0  0  0  0  0
    0.8020    0.6070   -2.5230 C   0  0  1  0  0  0  0  0  0  0  0  0
    1.9670    1.5940   -2.6420 C   0  0  0  0  0  0  0  0  0  0  0  0
    3.0990    1.3080   -1.9910 O   0  0  0  0  0  0  0  0  0  0  0  0
    4.0510    0.3490   -1.9480 C   0  0  0  0  0  0  0  0  0  0  0  0
    4.0610   -0.7750   -2.7400 C   0  0  0  0  0  0  0  0  0  0  0  0
    5.0560   -1.7550   -2.6750 C   0  0  0  0  0  0  0  0  0  0  0  0
    6.0890   -1.6100   -1.7830 C   0  0  0  0  0  0  0  0  0  0  0  0
    7.1810   -2.5910   -1.6350 C   0  0  0  0  0  0  0  0  0  0  0  0
    7.0100   -3.3960   -0.4150 C   0  0  0  0  0  0  0  0  0  0  0  0
    6.8580   -4.0290    0.5320 N   0  0  0  0  0  0  0  0  0  0  0  0
    6.1040   -0.4930   -0.9800 C   0  0  0  0  0  0  0  0  0  0  0  0
    7.2370   -0.3280   -0.0040 C   0  0  0  0  0  0  0  0  0  0  0  0
    7.0770    0.8620    0.7210 O   0  0  0  0  0  0  0  0  0  0  0  0
    5.1280    0.4700   -1.0400 C   0  0  0  0  0  0  0  0  0  0  0  0
    0.6150    0.3740   -1.0430 C   0  0  0  0  0  0  0  0  0  0  0  0
   -0.8760    0.5750   -0.8580 N   0  0  0  0  0  0  0  0  0  0  0  0
   -1.1970    1.5140    0.0990 C   0  0  0  0  0  0  0  0  0  0  0  0
   -0.1810    2.0400    0.7260 O   0  0  0  0  0  0  0  0  0  0  0  0
   -2.4540    2.0140    0.5190 N   0  0  0  0  0  0  0  0  0  0  0  0
   -2.4890    3.0250    1.5550 C   0  0  0  0  0  0  0  0  0  0  0  0
   -1.8590    4.2770    1.0390 C   0  0  0  0  0  0  0  0  0  0  0  0
   -1.4090    4.4340   -0.2400 C   0  0  0  0  0  0  0  0  0  0  0  0
   -0.8460    5.6140   -0.7000 C   0  0  0  0  0  0  0  0  0  0  0  0
   -0.7430    6.6600    0.1740 C   0  0  0  0  0  0  0  0  0  0  0  0
   -1.1710    6.5830    1.4710 C   0  0  0  0  0  0  0  0  0  0  0  0
   -1.7370    5.3800    1.9140 C   0  0  0  0  0  0  0  0  0  0  0  0
   -2.1590    5.2520    3.1320 O   0  0  0  0  0  0  0  0  0  0  0  0
   -2.5070    5.3560    4.3780 C   0  0  0  0  0  0  0  0  0  0  0  0
   -2.9470   -2.9860   -0.6180 C   0  0  0  0  0  0  0  0  0  0  0  0
   -2.4790   -3.5370   -1.7860 C   0  0  0  0  0  0  0  0  0  0  0  0
   -2.3010   -4.8650   -1.6430 N   0  0  0  0  0  0  0  0  0  0  0  0
   -2.6460   -5.2150   -0.3900 C   0  0  0  0  0  0  0  0  0  0  0  0
   -2.6540   -6.4260    0.2750 C   0  0  0  0  0  0  0  0  0  0  0  0
   -3.0710   -6.4400    1.5830 C   0  0  0  0  0  0  0  0  0  0  0  0
   -3.4780   -5.3100    2.2550 C   0  0  0  0  0  0  0  0  0  0  0  0
   -3.4570   -4.1170    1.5620 C   0  0  0  0  0  0  0  0  0  0  0  0
   -3.0470   -4.0540    0.2510 C   0  0  0  0  0  0  0  0  0  0  0  0
  1  2  1  0
  2  3  1  0
  3  4  1  0
  4  5  2  0
  4  6  1  0
  6  7  1  6
  6 39  1  0
  8  7  1  1
  8  9  1  0
  8 26  1  0
  9 10  1  0
 10 11  1  0
 11 12  1  1
 11 25  1  0
 12 13  1  0
 13 14  1  0
 14 15  2  0
 14 24  1  0
 15 16  1  0
 16 17  2  0
 17 18  1  0
 17 21  1  0
 18 19  1  0
 19 20  3  0
 21 22  1  0
 21 24  2  0
 22 23  1  0
 25 26  1  0
 26 27  1  0
 27 28  2  0
 27 29  1  0
 29 30  1  0
 30 31  1  0
 31 32  2  0
 31 36  1  0
 32 33  1  0
 33 34  2  0
 34 35  1  0
 35 36  2  0
 36 37  1  0
 37 38  1  0
 39 40  2  0
 39 47  1  0
 40 41  1  0
 41 42  1  0
 42 43  2  0
 42 47  1  0
 43 44  1  0
 44 45  2  0
 45 46  1  0
 46 47  2  0
M  END
