
     RDKit          3D

 47 50  0  0  0  0  0  0  0  0999 V2000
   10.9060   -3.7710    2.6670 C   0  0  0  0  0  0  0  0  0  0  0  0
    9.5400   -3.8100    2.6420 O   0  0  0  0  0  0  0  0  0  0  0  0
    8.9410   -2.9790    1.6920 C   0  0  0  0  0  0  0  0  0  0  0  0
    9.2400   -1.5250    1.8760 C   0  0  0  0  0  0  0  0  0  0  0  0
    8.6680   -0.7020    0.9650 O   0  0  0  0  0  0  0  0  0  0  0  0
    7.4220   -0.3510    0.5880 C   0  0  0  0  0  0  0  0  0  0  0  0
    6.2620   -0.8270    1.1470 C   0  0  0  0  0  0  0  0  0  0  0  0
    5.0130   -0.3900    0.6770 C   0  0  0  0  0  0  0  0  0  0  0  0
    4.8700    0.5110   -0.3350 C   0  0  0  0  0  0  0  0  0  0  0  0
    3.6210    1.0320   -0.8640 C   0  0  0  0  0  0  0  0  0  0  0  0
    2.4100    0.5310   -0.3040 N   0  0  0  0  0  0  0  0  0  0  0  0
    1.1300    1.0240   -0.6960 C   0  0  0  0  0  0  0  0  0  0  0  0
    1.0120    1.9250   -1.5430 O   0  0  0  0  0  0  0  0  0  0  0  0
   -0.1170    0.4610   -0.0880 C   0  0  0  0  0  0  0  0  0  0  0  0
   -1.3170    1.2730   -0.4810 C   0  0  0  0  0  0  0  0  0  0  0  0
   -2.5780    0.7260    0.1330 C   0  0  1  0  0  0  0  0  0  0  0  0
   -3.7610    1.5690   -0.2170 C   0  0  0  0  0  0  0  0  0  0  0  0
   -3.8850    2.2260   -1.4100 C   0  0  0  0  0  0  0  0  0  0  0  0
   -4.9920    3.0420   -1.7040 C   0  0  0  0  0  0  0  0  0  0  0  0
   -6.0110    3.2250   -0.8100 C   0  0  0  0  0  0  0  0  0  0  0  0
   -7.1520    4.0450   -1.0140 N   0  0  0  0  0  0  0  0  0  0  0  0
   -7.4980    4.7710   -2.1600 C   0  0  0  0  0  0  0  0  0  0  0  0
   -6.7470    4.7270   -3.1580 O   0  0  0  0  0  0  0  0  0  0  0  0
   -8.7190    5.5930   -2.2390 C   0  0  0  0  0  0  0  0  0  0  0  0
   -9.0900    6.3160   -3.3700 N   0  0  0  0  0  0  0  0  0  0  0  0
   -9.4770    5.6430   -1.2170 O   0  0  0  0  0  0  0  0  0  0  0  0
   -5.8770    2.5480    0.4130 C   0  0  0  0  0  0  0  0  0  0  0  0
   -6.9040    2.7150    1.3490 O   0  0  0  0  0  0  0  0  0  0  0  0
   -6.8090    2.0560    2.5800 C   0  0  0  0  0  0  0  0  0  0  0  0
   -4.7920    1.7560    0.6850 C   0  0  0  0  0  0  0  0  0  0  0  0
   -2.7940   -0.6650   -0.1610 N   0  0  2  0  0  0  0  0  0  0  0  0
   -3.1940   -0.9390   -1.5180 C   0  0  0  0  0  0  0  0  0  0  0  0
   -3.7460   -1.2040    0.7960 C   0  0  0  0  0  0  0  0  0  0  0  0
   -3.7620   -2.6640    0.8940 C   0  0  0  0  0  0  0  0  0  0  0  0
   -2.9540   -3.4880    0.1610 C   0  0  0  0  0  0  0  0  0  0  0  0
   -2.9970   -4.8720    0.2700 C   0  0  0  0  0  0  0  0  0  0  0  0
   -2.0950   -5.7480   -0.5540 C   0  0  0  0  0  0  0  0  0  0  0  0
   -3.8930   -5.4190    1.1570 C   0  0  0  0  0  0  0  0  0  0  0  0
   -4.7210   -4.6070    1.9100 C   0  0  0  0  0  0  0  0  0  0  0  0
   -4.6530   -3.2310    1.7760 C   0  0  0  0  0  0  0  0  0  0  0  0
   -5.5130   -2.4930    2.5650 O   0  0  0  0  0  0  0  0  0  0  0  0
    6.0620    0.9890   -0.8950 C   0  0  0  0  0  0  0  0  0  0  0  0
    5.9850    1.9090   -1.9230 C   0  0  0  0  0  0  0  0  0  0  0  0
    7.1400    2.4010   -2.4940 C   0  0  0  0  0  0  0  0  0  0  0  0
    8.3820    1.9880   -2.0520 C   0  0  0  0  0  0  0  0  0  0  0  0
    8.4700    1.0730   -1.0300 C   0  0  0  0  0  0  0  0  0  0  0  0
    7.2940    0.5840   -0.4630 C   0  0  0  0  0  0  0  0  0  0  0  0
  1  2  1  0
  2  3  1  0
  3  4  1  0
  4  5  1  0
  5  6  1  0
  6  7  2  0
  6 47  1  0
  7  8  1  0
  8  9  2  0
  9 10  1  0
  9 42  1  0
 10 11  1  0
 11 12  1  0
 12 13  2  0
 12 14  1  0
 14 15  1  0
 16 15  1  6
 16 17  1  0
 16 31  1  0
 17 18  2  0
 17 30  1  0
 18 19  1  0
 19 20  2  0
 20 21  1  0
 20 27  1  0
 21 22  1  0
 22 23  2  0
 22 24  1  0
 24 25  1  0
 24 26  2  0
 27 28  1  0
 27 30  2  0
 28 29  1  0
 31 32  1  6
 31 33  1  0
 33 34  1  0
 34 35  2  0
 34 40  1  0
 35 36  1  0
 36 37  1  0
 36 38  2  0
 38 39  1  0
 39 40  2  0
 40 41  1  0
 42 43  2  0
 42 47  1  0
 43 44  1  0
 44 45  2  0
 45 46  1  0
 46 47  2  0
M  CHG  1  31   1
M  END
