
     RDKit          3D

 47 51  0  0  0  0  0  0  0  0999 V2000
   -7.6870    1.5670    0.3620 C   0  0  0  0  0  0  0  0  0  0  0  0
   -7.6150    0.3100   -0.0700 C   0  0  0  0  0  0  0  0  0  0  0  0
   -7.3950   -0.0300   -1.4920 C   0  0  0  0  0  0  0  0  0  0  0  0
   -6.1610   -0.8070   -1.6040 N   0  0  0  0  0  0  0  0  0  0  0  0
   -5.9200   -1.1480   -2.9850 C   0  0  0  0  0  0  0  0  0  0  0  0
   -4.6050   -0.8380   -3.5010 C   0  0  0  0  0  0  0  0  0  0  0  0
   -4.4230   -0.5420   -4.6980 O   0  0  0  0  0  0  0  0  0  0  0  0
   -3.4410   -0.8620   -2.6390 C   0  0  0  0  0  0  0  0  0  0  0  0
   -3.7400   -0.5310   -1.2930 C   0  0  0  0  0  0  0  0  0  0  0  0
   -2.7630   -0.5750   -0.3610 C   0  0  0  0  0  0  0  0  0  0  0  0
   -3.0150   -0.2840    0.9500 C   0  0  0  0  0  0  0  0  0  0  0  0
   -4.3590   -0.1060    1.4630 C   0  0  1  0  0  0  0  0  0  0  0  0
   -4.3620   -1.1630    2.6580 C   0  0  0  0  0  0  0  0  0  0  0  0
   -4.7380    1.1250    2.1370 C   0  0  0  0  0  0  0  0  0  0  0  0
   -5.6280    1.0960    3.1840 C   0  0  0  0  0  0  0  0  0  0  0  0
   -6.0330    2.2290    3.8670 C   0  0  0  0  0  0  0  0  0  0  0  0
   -5.5370    3.4200    3.4970 N   0  0  0  0  0  0  0  0  0  0  0  0
   -4.6650    3.5190    2.4840 C   0  0  0  0  0  0  0  0  0  0  0  0
   -4.2750    2.4060    1.8220 C   0  0  0  0  0  0  0  0  0  0  0  0
   -1.9120   -0.3520    1.8150 C   0  0  0  0  0  0  0  0  0  0  0  0
   -2.0150    0.0030    3.2320 C   0  0  0  0  0  0  0  0  0  0  0  0
   -0.6490   -0.7040    1.3650 C   0  0  0  0  0  0  0  0  0  0  0  0
   -0.4440   -0.9970    0.0400 C   0  0  0  0  0  0  0  0  0  0  0  0
    0.9430   -1.3320   -0.3470 C   0  0  0  0  0  0  0  0  0  0  0  0
    1.5790   -0.0930   -0.9300 C   0  0  0  0  0  0  0  0  0  0  0  0
    3.0070   -0.2900   -1.3800 C   0  0  2  0  0  0  0  0  0  0  0  0
    3.9380   -0.6800   -0.3350 C   0  0  0  0  0  0  0  0  0  0  0  0
    3.5670   -0.7420    0.8850 O   0  0  0  0  0  0  0  0  0  0  0  0
    5.3080   -1.0290   -0.5120 N   0  0  0  0  0  0  0  0  0  0  0  0
    6.1640   -1.4140    0.5500 C   0  0  1  0  0  0  0  0  0  0  0  0
    6.6020   -2.8580    0.4910 C   0  0  0  0  0  0  0  0  0  0  0  0
    7.3060   -3.1610   -0.6740 O   0  0  0  0  0  0  0  0  0  0  0  0
    7.3850   -0.5730    0.6170 C   0  0  0  0  0  0  0  0  0  0  0  0
    7.1890    0.8890    0.8380 C   0  0  2  0  0  0  0  0  0  0  0  0
    8.6090    1.4920    0.8710 C   0  0  0  0  0  0  0  0  0  0  0  0
    6.5560    1.2190    2.1750 C   0  0  0  0  0  0  0  0  0  0  0  0
    6.4640    1.6170   -0.2400 C   0  0  0  0  0  0  0  0  0  0  0  0
    3.3800    0.9230   -2.1810 C   0  0  0  0  0  0  0  0  0  0  0  0
    2.8250    0.6450   -3.5620 C   0  0  0  0  0  0  0  0  0  0  0  0
    2.9970   -0.7540   -3.6670 O   0  0  0  0  0  0  0  0  0  0  0  0
    3.0790   -1.3720   -2.4330 C   0  0  0  0  0  0  0  0  0  0  0  0
    3.1920   -2.6110   -2.2920 O   0  0  0  0  0  0  0  0  0  0  0  0
   -1.4840   -0.9370   -0.8260 C   0  0  0  0  0  0  0  0  0  0  0  0
   -1.2270   -1.2430   -2.1090 N   0  0  0  0  0  0  0  0  0  0  0  0
   -2.1900   -1.2120   -3.0240 C   0  0  0  0  0  0  0  0  0  0  0  0
   -2.0020   -1.4890   -4.2170 O   0  0  0  0  0  0  0  0  0  0  0  0
   -5.0430    0.0070   -1.0650 C   0  0  0  0  0  0  0  0  0  0  0  0
  1  2  2  0
  2  3  1  0
  3  4  1  0
  4  5  1  0
  4 47  1  0
  5  6  1  0
  6  7  2  0
  6  8  1  0
  8  9  2  0
  8 45  1  0
  9 10  1  0
  9 47  1  0
 10 11  2  0
 10 43  1  0
 11 12  1  0
 11 20  1  0
 12 13  1  1
 12 14  1  0
 14 15  2  0
 14 19  1  0
 15 16  1  0
 16 17  2  0
 17 18  1  0
 18 19  2  0
 20 21  1  0
 20 22  2  0
 22 23  1  0
 23 24  1  0
 23 43  2  0
 24 25  1  0
 26 25  1  1
 26 27  1  0
 26 38  1  0
 26 41  1  0
 27 28  2  0
 27 29  1  0
 29 30  1  0
 30 31  1  6
 30 33  1  0
 31 32  1  0
 33 34  1  0
 34 35  1  1
 34 36  1  0
 34 37  1  0
 38 39  1  0
 39 40  1  0
 40 41  1  0
 41 42  2  0
 43 44  1  0
 44 45  1  0
 45 46  2  0
M  END
