
     RDKit          3D

 41 45  0  0  0  0  0  0  0  0999 V2000
    3.3980   -2.7570   -1.6640 C   0  0  0  0  0  0  0  0  0  0  0  0
    3.4170   -1.4300   -0.8760 C   0  0  2  0  0  0  0  0  0  0  0  0
    4.3290   -0.5370   -1.7340 C   0  0  0  0  0  0  0  0  0  0  0  0
    4.1340   -1.6610    0.4070 C   0  0  1  0  0  0  0  0  0  0  0  0
    5.1140   -0.6410    0.6160 O   0  0  0  0  0  0  0  0  0  0  0  0
    6.4630   -0.8450    0.6580 C   0  0  0  0  0  0  0  0  0  0  0  0
    6.8990   -2.0110    0.5060 O   0  0  0  0  0  0  0  0  0  0  0  0
    7.3450    0.3340    0.8850 C   0  0  0  0  0  0  0  0  0  0  0  0
    8.7950   -0.1030    0.8960 C   0  0  0  0  0  0  0  0  0  0  0  0
    9.6440    1.0940    1.1220 C   0  0  0  0  0  0  0  0  0  0  0  0
   10.8890    0.9340    1.1650 O   0  0  0  0  0  0  0  0  0  0  0  0
    9.1360    2.3730    1.2880 O   0  0  0  0  0  0  0  0  0  0  0  0
    3.2840   -1.8770    1.6070 C   0  0  0  0  0  0  0  0  0  0  0  0
    1.8590   -1.5070    1.5060 C   0  0  0  0  0  0  0  0  0  0  0  0
    1.6110   -0.3330    0.5390 C   0  0  1  0  0  0  0  0  0  0  0  0
    2.3850    0.8140    1.0200 C   0  0  0  0  0  0  0  0  0  0  0  0
    2.0300   -0.9190   -0.7890 C   0  0  1  0  0  0  0  0  0  0  0  0
    1.6060   -0.0540   -1.9490 C   0  0  0  0  0  0  0  0  0  0  0  0
    0.0940   -0.0640   -1.9310 C   0  0  0  0  0  0  0  0  0  0  0  0
   -0.4520    0.5570   -0.6600 C   0  0  2  0  0  0  0  0  0  0  0  0
   -0.0720    2.0150   -0.7410 C   0  0  0  0  0  0  0  0  0  0  0  0
    0.1180   -0.1830    0.4810 C   0  0  2  0  0  0  0  0  0  0  0  0
   -0.4570    0.3190    1.7440 C   0  0  0  0  0  0  0  0  0  0  0  0
    0.2180    0.6160    2.7640 O   0  0  0  0  0  0  0  0  0  0  0  0
   -1.8950    0.4670    1.7820 C   0  0  0  0  0  0  0  0  0  0  0  0
   -2.5880    0.5620    0.6780 C   0  0  0  0  0  0  0  0  0  0  0  0
   -4.0540    0.7100    0.8640 C   0  0  2  0  0  0  0  0  0  0  0  0
   -4.6300   -0.6700    1.0810 C   0  0  0  0  0  0  0  0  0  0  0  0
   -6.0690   -0.7990    0.7170 C   0  0  1  0  0  0  0  0  0  0  0  0
   -6.4390   -2.2680    0.6950 C   0  0  0  0  0  0  0  0  0  0  0  0
   -6.8970   -0.1620    1.7710 C   0  0  0  0  0  0  0  0  0  0  0  0
   -6.3480    0.3690    2.7700 O   0  0  0  0  0  0  0  0  0  0  0  0
   -8.2820   -0.1110    1.7290 O   0  0  0  0  0  0  0  0  0  0  0  0
   -6.4130   -0.1450   -0.6090 C   0  0  0  0  0  0  0  0  0  0  0  0
   -6.1600    1.3110   -0.4110 C   0  0  0  0  0  0  0  0  0  0  0  0
   -4.7000    1.5670   -0.1350 C   0  0  1  0  0  0  0  0  0  0  0  0
   -4.6870    3.0300    0.3760 C   0  0  0  0  0  0  0  0  0  0  0  0
   -4.0200    1.6370   -1.4800 C   0  0  0  0  0  0  0  0  0  0  0  0
   -2.5350    1.7130   -1.4040 C   0  0  0  0  0  0  0  0  0  0  0  0
   -1.9630    0.5100   -0.6300 C   0  0  1  0  0  0  0  0  0  0  0  0
   -2.3590   -0.6760   -1.4750 C   0  0  0  0  0  0  0  0  0  0  0  0
  2  1  1  6
  2  3  1  0
  2  4  1  0
  2 17  1  0
  4  5  1  1
  4 13  1  0
  5  6  1  0
  6  7  2  0
  6  8  1  0
  8  9  1  0
  9 10  1  0
 10 11  2  0
 10 12  1  0
 13 14  1  0
 14 15  1  0
 15 16  1  1
 15 17  1  0
 15 22  1  0
 17 18  1  6
 18 19  1  0
 19 20  1  0
 20 21  1  1
 20 22  1  0
 20 40  1  0
 22 23  1  1
 23 24  2  0
 23 25  1  0
 25 26  2  0
 26 27  1  0
 26 40  1  0
 27 28  1  6
 27 36  1  0
 28 29  1  0
 29 30  1  6
 29 31  1  0
 29 34  1  0
 31 32  2  0
 31 33  1  0
 34 35  1  0
 35 36  1  0
 36 37  1  1
 36 38  1  0
 38 39  1  0
 39 40  1  0
 40 41  1  6
M  END
