
     RDKit          3D

 47 50  0  0  0  0  0  0  0  0999 V2000
   -5.1860    0.7380   -4.1700 C   0  0  0  0  0  0  0  0  0  0  0  0
   -5.6220   -0.3030   -4.9130 O   0  0  0  0  0  0  0  0  0  0  0  0
   -6.5120   -1.1930   -4.4080 C   0  0  0  0  0  0  0  0  0  0  0  0
   -6.0110   -1.9440   -3.2240 C   0  0  0  0  0  0  0  0  0  0  0  0
   -5.6980   -1.0700   -2.1760 O   0  0  0  0  0  0  0  0  0  0  0  0
   -5.2190   -1.5470   -0.9900 C   0  0  0  0  0  0  0  0  0  0  0  0
   -5.0310   -2.7500   -0.7330 O   0  0  0  0  0  0  0  0  0  0  0  0
   -4.8930   -0.5280    0.0910 C   0  0  2  0  0  0  0  0  0  0  0  0
   -4.3920   -1.2770    1.2130 N   0  0  0  0  0  0  0  0  0  0  0  0
   -2.9690   -1.3530    1.4530 C   0  0  0  0  0  0  0  0  0  0  0  0
   -2.2210   -0.7610    0.6710 O   0  0  0  0  0  0  0  0  0  0  0  0
   -2.4550   -2.0800    2.5430 N   0  0  0  0  0  0  0  0  0  0  0  0
   -1.0960   -2.2540    2.8810 C   0  0  0  0  0  0  0  0  0  0  0  0
   -0.0260   -1.7460    2.1840 C   0  0  0  0  0  0  0  0  0  0  0  0
    1.3110   -1.9570    2.5530 C   0  0  0  0  0  0  0  0  0  0  0  0
    2.3980   -1.3900    1.7710 C   0  0  0  0  0  0  0  0  0  0  0  0
    2.1980   -0.4560    0.9780 O   0  0  0  0  0  0  0  0  0  0  0  0
    3.7510   -1.8760    1.8720 N   0  0  0  0  0  0  0  0  0  0  0  0
    4.8190   -1.3190    1.1040 C   0  0  0  0  0  0  0  0  0  0  0  0
    6.1010   -1.9960    1.3480 C   0  0  0  0  0  0  0  0  0  0  0  0
    6.2810   -3.0550    2.1970 C   0  0  0  0  0  0  0  0  0  0  0  0
    7.5280   -3.6740    2.3900 C   0  0  0  0  0  0  0  0  0  0  0  0
    8.5900   -3.1760    1.6860 C   0  0  0  0  0  0  0  0  0  0  0  0
    8.4400   -2.0950    0.8110 C   0  0  0  0  0  0  0  0  0  0  0  0
    7.2180   -1.4940    0.6270 C   0  0  0  0  0  0  0  0  0  0  0  0
    6.9830   -0.3950   -0.2320 N   0  0  0  0  0  0  0  0  0  0  0  0
    7.9410    0.2430   -1.0620 C   0  0  0  0  0  0  0  0  0  0  0  0
    9.1160   -0.1590   -1.0730 O   0  0  0  0  0  0  0  0  0  0  0  0
    7.5530    1.3970   -1.9220 C   0  0  1  0  0  0  0  0  0  0  0  0
    6.4390    1.0410   -2.8920 C   0  0  0  0  0  0  0  0  0  0  0  0
    6.3190    2.2240   -3.7990 C   0  0  0  0  0  0  0  0  0  0  0  0
    6.3430    3.4320   -3.2800 C   0  0  0  0  0  0  0  0  0  0  0  0
    6.4830    3.6570   -1.8260 C   0  0  0  0  0  0  0  0  0  0  0  0
    7.0910    2.5240   -1.0670 C   0  0  0  0  0  0  0  0  0  0  0  0
    1.5120   -2.7170    3.6790 C   0  0  0  0  0  0  0  0  0  0  0  0
    0.4710   -3.2450    4.4090 C   0  0  0  0  0  0  0  0  0  0  0  0
   -0.8290   -3.0240    4.0250 C   0  0  0  0  0  0  0  0  0  0  0  0
   -1.9570   -3.6080    4.8190 C   0  0  0  0  0  0  0  0  0  0  0  0
   -6.0340    0.2040    0.3810 O   0  0  0  0  0  0  0  0  0  0  0  0
   -6.2130    1.5250    0.0970 C   0  0  0  0  0  0  0  0  0  0  0  0
   -7.4210    2.1690    0.4390 C   0  0  0  0  0  0  0  0  0  0  0  0
   -7.7010    3.4700    0.2000 C   0  0  0  0  0  0  0  0  0  0  0  0
   -8.9910    4.1220    0.5660 C   0  0  0  0  0  0  0  0  0  0  0  0
   -6.7300    4.2490   -0.4310 C   0  0  0  0  0  0  0  0  0  0  0  0
   -5.5260    3.6890   -0.7940 C   0  0  0  0  0  0  0  0  0  0  0  0
   -4.5010    4.5220   -1.4640 C   0  0  0  0  0  0  0  0  0  0  0  0
   -5.3010    2.3490   -0.5220 C   0  0  0  0  0  0  0  0  0  0  0  0
  1  2  1  0
  2  3  1  0
  3  4  1  0
  4  5  1  0
  5  6  1  0
  6  7  2  0
  6  8  1  0
  8  9  1  1
  8 39  1  0
  9 10  1  0
 10 11  2  0
 10 12  1  0
 12 13  1  0
 13 14  2  0
 13 37  1  0
 14 15  1  0
 15 16  1  0
 15 35  2  0
 16 17  2  0
 16 18  1  0
 18 19  1  0
 19 20  1  0
 20 21  2  0
 20 25  1  0
 21 22  1  0
 22 23  2  0
 23 24  1  0
 24 25  2  0
 25 26  1  0
 26 27  1  0
 27 28  2  0
 29 27  1  1
 29 30  1  0
 29 34  1  0
 30 31  1  0
 31 32  2  0
 32 33  1  0
 33 34  1  0
 35 36  1  0
 36 37  2  0
 37 38  1  0
 39 40  1  0
 40 41  2  0
 40 47  1  0
 41 42  1  0
 42 43  1  0
 42 44  2  0
 44 45  1  0
 45 46  1  0
 45 47  2  0
M  END
