
     RDKit          3D

 28 31  0  0  0  0  0  0  0  0999 V2000
   -5.7190    2.9230    0.1000 C   0  0  0  0  0  0  0  0  0  0  0  0
   -5.5420    1.6820    0.9400 C   0  0  0  0  0  0  0  0  0  0  0  0
   -4.8200    0.6120    0.2110 C   0  0  0  0  0  0  0  0  0  0  0  0
   -5.4520   -0.3470   -0.5550 C   0  0  0  0  0  0  0  0  0  0  0  0
   -4.6890   -1.3240   -1.2120 C   0  0  0  0  0  0  0  0  0  0  0  0
   -3.3170   -1.3220   -1.0900 C   0  0  0  0  0  0  0  0  0  0  0  0
   -2.6690   -0.3860   -0.3400 C   0  0  0  0  0  0  0  0  0  0  0  0
   -3.4590    0.5770    0.3040 C   0  0  0  0  0  0  0  0  0  0  0  0
   -1.2030   -0.3550   -0.1930 C   0  0  1  0  0  0  0  0  0  0  0  0
   -0.7910   -0.1160    1.1630 N   0  0  0  0  0  0  0  0  0  0  0  0
    0.5650    0.0470    1.5530 C   0  0  0  0  0  0  0  0  0  0  0  0
    0.9160    0.1430    2.8900 C   0  0  0  0  0  0  0  0  0  0  0  0
    2.2030    0.3070    3.2800 C   0  0  0  0  0  0  0  0  0  0  0  0
    3.1910    0.3820    2.3410 C   0  0  0  0  0  0  0  0  0  0  0  0
    2.9010    0.2930    1.0010 C   0  0  0  0  0  0  0  0  0  0  0  0
    1.5870    0.1260    0.6240 C   0  0  0  0  0  0  0  0  0  0  0  0
    3.9710    0.3730   -0.0170 C   0  0  0  0  0  0  0  0  0  0  0  0
    3.6910    0.0370   -1.2150 N   0  0  0  0  0  0  0  0  0  0  0  0
    4.6270    0.0700   -2.2820 C   0  0  0  0  0  0  0  0  0  0  0  0
    4.9580    1.1430   -2.8580 O   0  0  0  0  0  0  0  0  0  0  0  0
    5.2410   -1.1720   -2.7420 C   0  0  0  0  0  0  0  0  0  0  0  0
    4.9460   -2.2850   -2.2000 O   0  0  0  0  0  0  0  0  0  0  0  0
    5.2890    0.8360    0.4130 C   0  0  0  0  0  0  0  0  0  0  0  0
    5.2290    1.5280    1.7580 C   0  0  0  0  0  0  0  0  0  0  0  0
    4.6010    0.5620    2.7530 C   0  0  0  0  0  0  0  0  0  0  0  0
   -0.5240   -1.6370   -0.6220 C   0  0  0  0  0  0  0  0  0  0  0  0
   -1.4760   -2.8000   -0.7810 C   0  0  0  0  0  0  0  0  0  0  0  0
   -2.5440   -2.3660   -1.7900 C   0  0  0  0  0  0  0  0  0  0  0  0
  1  2  1  0
  2  3  1  0
  3  4  2  0
  3  8  1  0
  4  5  1  0
  5  6  2  0
  6  7  1  0
  6 28  1  0
  7  8  2  0
  7  9  1  0
  9 10  1  1
  9 26  1  0
 10 11  1  0
 11 12  2  0
 11 16  1  0
 12 13  1  0
 13 14  2  0
 14 15  1  0
 14 25  1  0
 15 16  2  0
 15 17  1  0
 17 18  2  3
 17 23  1  0
 18 19  1  0
 19 20  2  0
 19 21  1  0
 21 22  2  0
 23 24  1  0
 24 25  1  0
 26 27  1  0
 27 28  1  0
M  END
