
     RDKit          3D

 28 31  0  0  0  0  0  0  0  0999 V2000
    8.3980    1.9710   -1.2390 C   0  0  0  0  0  0  0  0  0  0  0  0
    7.2220    1.2220   -0.7600 C   0  0  0  0  0  0  0  0  0  0  0  0
    5.9760    1.4540   -1.2550 C   0  0  0  0  0  0  0  0  0  0  0  0
    4.8850    0.7160   -0.7690 C   0  0  0  0  0  0  0  0  0  0  0  0
    5.0250   -0.2380    0.1940 C   0  0  0  0  0  0  0  0  0  0  0  0
    3.9300   -1.0170    0.7210 C   0  0  0  0  0  0  0  0  0  0  0  0
    2.6980   -0.8610    0.3030 C   0  0  0  0  0  0  0  0  0  0  0  0
    1.6450   -1.6880    0.8850 C   0  0  0  0  0  0  0  0  0  0  0  0
    0.3900   -1.5480    0.4780 C   0  0  0  0  0  0  0  0  0  0  0  0
   -0.0850   -0.5950   -0.5560 C   0  0  0  0  0  0  0  0  0  0  0  0
   -1.5270   -0.8420   -0.6250 N   0  0  0  0  0  0  0  0  0  0  0  0
   -1.8600   -1.7670    0.2090 C   0  0  0  0  0  0  0  0  0  0  0  0
   -3.2620   -2.2710    0.3990 C   0  0  0  0  0  0  0  0  0  0  0  0
   -3.5860   -2.0290    1.7330 O   0  0  0  0  0  0  0  0  0  0  0  0
   -3.4920   -0.6550    1.9400 C   0  0  0  0  0  0  0  0  0  0  0  0
   -4.4550    0.0050    1.0330 C   0  0  0  0  0  0  0  0  0  0  0  0
   -4.1650    1.1540    0.3320 C   0  0  0  0  0  0  0  0  0  0  0  0
   -5.1260    1.7040   -0.4910 C   0  0  0  0  0  0  0  0  0  0  0  0
   -6.3760    1.1500   -0.6450 C   0  0  0  0  0  0  0  0  0  0  0  0
   -6.6680    0.0010    0.0550 C   0  0  0  0  0  0  0  0  0  0  0  0
   -5.7090   -0.5630    0.8870 C   0  0  0  0  0  0  0  0  0  0  0  0
   -8.0060   -0.3440   -0.2890 N   0  0  0  0  0  0  0  0  0  0  0  0
   -8.6990    0.8110   -0.8250 C   0  0  0  0  0  0  0  0  0  0  0  0
   -7.5370    1.5790   -1.4690 C   0  0  0  0  0  0  0  0  0  0  0  0
   -0.7400   -2.2300    0.9020 O   0  0  0  0  0  0  0  0  0  0  0  0
    6.3190   -0.4500    0.6800 C   0  0  0  0  0  0  0  0  0  0  0  0
    7.3820    0.2650    0.2100 C   0  0  0  0  0  0  0  0  0  0  0  0
    8.7220   -0.0110    0.7680 C   0  0  0  0  0  0  0  0  0  0  0  0
  1  2  1  0
  2  3  2  0
  2 27  1  0
  3  4  1  0
  4  5  2  0
  5  6  1  0
  5 26  1  0
  6  7  2  3
  7  8  1  0
  8  9  2  3
  9 10  1  0
  9 25  1  0
 10 11  1  0
 11 12  2  0
 12 13  1  0
 12 25  1  0
 13 14  1  0
 14 15  1  0
 15 16  1  0
 16 17  2  0
 16 21  1  0
 17 18  1  0
 18 19  2  0
 19 20  1  0
 19 24  1  0
 20 21  2  0
 20 22  1  0
 22 23  1  0
 23 24  1  0
 26 27  2  0
 27 28  1  0
M  END
