
     RDKit          3D

 28 31  0  0  0  0  0  0  0  0999 V2000
   -7.4490   -0.2920    2.1010 C   0  0  0  0  0  0  0  0  0  0  0  0
   -6.9620    0.3690    0.8810 C   0  0  0  0  0  0  0  0  0  0  0  0
   -7.7790    0.9070    0.0930 O   0  0  0  0  0  0  0  0  0  0  0  0
   -5.5360    0.4440    0.5100 C   0  0  0  0  0  0  0  0  0  0  0  0
   -4.6680    1.4370    0.8580 C   0  0  0  0  0  0  0  0  0  0  0  0
   -4.9890    2.6440    1.6840 C   0  0  0  0  0  0  0  0  0  0  0  0
   -3.4690    1.1140    0.3140 N   0  0  0  0  0  0  0  0  0  0  0  0
   -3.5250   -0.0370   -0.3660 C   0  0  0  0  0  0  0  0  0  0  0  0
   -2.4890   -0.7440   -1.0880 C   0  0  0  0  0  0  0  0  0  0  0  0
   -2.7720   -1.8370   -1.6890 O   0  0  0  0  0  0  0  0  0  0  0  0
   -1.0930   -0.2690   -1.1700 C   0  0  2  0  0  0  0  0  0  0  0  0
   -0.2660   -1.1870   -2.0710 C   0  0  0  0  0  0  0  0  0  0  0  0
    0.4630   -2.2390   -1.2480 C   0  0  0  0  0  0  0  0  0  0  0  0
    1.5580   -1.6040   -0.4980 N   0  0  0  0  0  0  0  0  0  0  0  0
    2.7260   -1.5810   -1.3610 C   0  0  0  0  0  0  0  0  0  0  0  0
    3.9090   -0.9530   -0.7210 C   0  0  0  0  0  0  0  0  0  0  0  0
    4.8010   -1.6900    0.0450 C   0  0  0  0  0  0  0  0  0  0  0  0
    5.8960   -1.0870    0.6270 C   0  0  0  0  0  0  0  0  0  0  0  0
    6.1640    0.2670    0.4810 C   0  0  0  0  0  0  0  0  0  0  0  0
    5.2930    1.0050   -0.2720 C   0  0  0  0  0  0  0  0  0  0  0  0
    4.1770    0.3860   -0.8630 C   0  0  0  0  0  0  0  0  0  0  0  0
    5.7590    2.4130   -0.2880 C   0  0  0  0  0  0  0  0  0  0  0  0
    7.2280    2.2900    0.0180 C   0  0  0  0  0  0  0  0  0  0  0  0
    7.2910    1.1150    1.0110 C   0  0  0  0  0  0  0  0  0  0  0  0
    1.1170   -0.2660   -0.1400 C   0  0  0  0  0  0  0  0  0  0  0  0
   -0.3830   -0.2840    0.1790 C   0  0  0  0  0  0  0  0  0  0  0  0
   -4.8460   -0.4580   -0.2370 C   0  0  0  0  0  0  0  0  0  0  0  0
   -5.4010   -1.6930   -0.8210 C   0  0  0  0  0  0  0  0  0  0  0  0
  1  2  1  0
  2  3  2  0
  2  4  1  0
  4  5  2  0
  4 27  1  0
  5  6  1  0
  5  7  1  0
  7  8  1  0
  8  9  1  0
  8 27  2  0
  9 10  2  0
 11  9  1  1
 11 12  1  0
 11 26  1  0
 12 13  1  0
 13 14  1  0
 14 15  1  0
 14 25  1  0
 15 16  1  0
 16 17  2  0
 16 21  1  0
 17 18  1  0
 18 19  2  0
 19 20  1  0
 19 24  1  0
 20 21  2  0
 20 22  1  0
 22 23  1  0
 23 24  1  0
 25 26  1  0
 27 28  1  0
M  END
