
     RDKit          3D

 28 31  0  0  0  0  0  0  0  0999 V2000
    7.4970   -1.1040   -0.7890 C   0  0  0  0  0  0  0  0  0  0  0  0
    6.7210   -0.9670    0.5000 C   0  0  0  0  0  0  0  0  0  0  0  0
    5.8140    0.1350    0.5100 N   0  0  0  0  0  0  0  0  0  0  0  0
    6.2700    1.4000    0.9800 C   0  0  0  0  0  0  0  0  0  0  0  0
    7.2290    1.5350    1.7810 O   0  0  0  0  0  0  0  0  0  0  0  0
    5.5710    2.6330    0.4950 C   0  0  0  0  0  0  0  0  0  0  0  0
    4.0760    2.4750    0.5820 C   0  0  0  0  0  0  0  0  0  0  0  0
    3.6100    1.1440    0.1250 C   0  0  0  0  0  0  0  0  0  0  0  0
    2.2910    1.0680   -0.2720 C   0  0  0  0  0  0  0  0  0  0  0  0
    1.7900   -0.1490   -0.7300 C   0  0  0  0  0  0  0  0  0  0  0  0
    0.3890   -0.2370   -1.0950 N   0  0  0  0  0  0  0  0  0  0  0  0
   -0.5870   -0.1790   -0.0700 C   0  0  0  0  0  0  0  0  0  0  0  0
   -0.1540   -0.0760    1.1330 O   0  0  0  0  0  0  0  0  0  0  0  0
   -2.0100   -0.2330   -0.3320 C   0  0  0  0  0  0  0  0  0  0  0  0
   -2.7500   -1.1360    0.4550 C   0  0  0  0  0  0  0  0  0  0  0  0
   -4.0730   -1.2640    0.2210 C   0  0  0  0  0  0  0  0  0  0  0  0
   -4.7220   -0.5430   -0.7580 C   0  0  0  0  0  0  0  0  0  0  0  0
   -3.9860    0.3350   -1.5180 C   0  0  0  0  0  0  0  0  0  0  0  0
   -2.6120    0.4990   -1.3090 C   0  0  0  0  0  0  0  0  0  0  0  0
   -1.8890    1.4980   -2.1370 C   0  0  0  0  0  0  0  0  0  0  0  0
   -6.1800   -0.7640   -0.8890 C   0  0  0  0  0  0  0  0  0  0  0  0
   -6.7460   -0.5070    0.5180 C   0  0  2  0  0  0  0  0  0  0  0  0
   -6.1810    0.8150    1.0300 C   0  0  0  0  0  0  0  0  0  0  0  0
   -6.2140   -1.5750    1.4320 C   0  0  0  0  0  0  0  0  0  0  0  0
   -4.9520   -2.2230    0.9830 C   0  0  0  0  0  0  0  0  0  0  0  0
    2.6390   -1.2280   -0.7670 C   0  0  0  0  0  0  0  0  0  0  0  0
    3.9570   -1.1670   -0.3730 C   0  0  0  0  0  0  0  0  0  0  0  0
    4.4570    0.0320    0.0810 C   0  0  0  0  0  0  0  0  0  0  0  0
  1  2  1  0
  2  3  1  0
  3  4  1  0
  3 28  1  0
  4  5  2  0
  4  6  1  0
  6  7  1  0
  7  8  1  0
  8  9  2  0
  8 28  1  0
  9 10  1  0
 10 11  1  0
 10 26  2  0
 11 12  1  0
 12 13  2  0
 12 14  1  0
 14 15  2  0
 14 19  1  0
 15 16  1  0
 16 17  2  0
 16 25  1  0
 17 18  1  0
 17 21  1  0
 18 19  2  0
 19 20  1  0
 21 22  1  0
 22 23  1  1
 22 24  1  0
 24 25  1  0
 26 27  1  0
 27 28  2  0
M  END
