
     RDKit          3D

 28 31  0  0  0  0  0  0  0  0999 V2000
   -8.2380    1.9500   -1.2310 C   0  0  0  0  0  0  0  0  0  0  0  0
   -6.9930    1.2540   -0.8020 C   0  0  0  0  0  0  0  0  0  0  0  0
   -5.7880    1.7880   -1.1770 C   0  0  0  0  0  0  0  0  0  0  0  0
   -4.6150    1.1280   -0.7750 C   0  0  0  0  0  0  0  0  0  0  0  0
   -4.6240   -0.0210   -0.0220 C   0  0  0  0  0  0  0  0  0  0  0  0
   -3.4910   -0.6700    0.4920 N   0  0  0  0  0  0  0  0  0  0  0  0
   -2.1720   -0.5960   -0.0040 C   0  0  0  0  0  0  0  0  0  0  0  0
   -1.9990    0.1240   -1.0580 O   0  0  0  0  0  0  0  0  0  0  0  0
   -1.0300   -1.2460    0.5650 C   0  0  0  0  0  0  0  0  0  0  0  0
   -1.3300   -1.9090    1.6820 O   0  0  0  0  0  0  0  0  0  0  0  0
    0.2940   -1.2870    0.1490 N   0  0  0  0  0  0  0  0  0  0  0  0
    0.8220   -0.6850   -1.0660 C   0  0  0  0  0  0  0  0  0  0  0  0
    2.3130   -0.8660   -1.1790 C   0  0  0  0  0  0  0  0  0  0  0  0
    2.9550   -0.3920    0.1070 C   0  0  2  0  0  0  0  0  0  0  0  0
    4.3030    0.1170    0.0680 C   0  0  0  0  0  0  0  0  0  0  0  0
    5.2740   -0.4510    0.8590 C   0  0  0  0  0  0  0  0  0  0  0  0
    5.0270   -1.7350    1.5620 C   0  0  0  0  0  0  0  0  0  0  0  0
    6.5580    0.0780    0.9600 C   0  0  0  0  0  0  0  0  0  0  0  0
    6.9370    1.1870    0.2790 C   0  0  0  0  0  0  0  0  0  0  0  0
    5.9750    1.7970   -0.5410 C   0  0  0  0  0  0  0  0  0  0  0  0
    4.7140    1.2760   -0.6320 C   0  0  0  0  0  0  0  0  0  0  0  0
    3.6720    1.9840   -1.4280 C   0  0  0  0  0  0  0  0  0  0  0  0
    7.3630    2.3910   -0.4550 C   0  0  0  0  0  0  0  0  0  0  0  0
    2.2960   -0.8650    1.3460 C   0  0  0  0  0  0  0  0  0  0  0  0
    1.2790   -1.9830    0.9960 C   0  0  0  0  0  0  0  0  0  0  0  0
   -5.8580   -0.5300    0.3370 C   0  0  0  0  0  0  0  0  0  0  0  0
   -5.9130   -1.7710    1.1230 C   0  0  0  0  0  0  0  0  0  0  0  0
   -7.0370    0.0990   -0.0480 C   0  0  0  0  0  0  0  0  0  0  0  0
  1  2  1  0
  2  3  2  0
  2 28  1  0
  3  4  1  0
  4  5  2  0
  5  6  1  0
  5 26  1  0
  6  7  1  0
  7  8  2  0
  7  9  1  0
  9 10  2  0
  9 11  1  0
 11 12  1  0
 11 25  1  0
 12 13  1  0
 13 14  1  0
 14 15  1  1
 14 24  1  0
 15 16  2  0
 15 21  1  0
 16 17  1  0
 16 18  1  0
 18 19  2  0
 19 20  1  0
 19 23  1  0
 20 21  2  0
 20 23  1  0
 21 22  1  0
 24 25  1  0
 26 27  1  0
 26 28  2  0
M  END
