
     RDKit          3D

 28 31  0  0  0  0  0  0  0  0999 V2000
    8.8760    0.2210   -0.2920 C   0  0  0  0  0  0  0  0  0  0  0  0
    7.5520   -0.4080   -0.1280 C   0  0  0  0  0  0  0  0  0  0  0  0
    6.3740    0.1500   -0.2900 C   0  0  0  0  0  0  0  0  0  0  0  0
    5.3080   -0.7970   -0.0360 C   0  0  0  0  0  0  0  0  0  0  0  0
    3.8500   -0.5110   -0.1150 C   0  0  0  0  0  0  0  0  0  0  0  0
    3.3900    0.7250   -0.5000 C   0  0  0  0  0  0  0  0  0  0  0  0
    2.0470    1.0380   -0.5800 C   0  0  0  0  0  0  0  0  0  0  0  0
    1.1090    0.0850   -0.2640 C   0  0  0  0  0  0  0  0  0  0  0  0
   -0.3330    0.3090   -0.3290 C   0  0  2  0  0  0  0  0  0  0  0  0
   -0.9110   -0.1060   -1.6900 C   0  0  0  0  0  0  0  0  0  0  0  0
   -2.3760   -0.0150   -1.5890 C   0  0  0  0  0  0  0  0  0  0  0  0
   -3.0570   -0.6210   -2.4560 O   0  0  0  0  0  0  0  0  0  0  0  0
   -3.0530    0.7330   -0.5510 C   0  0  0  0  0  0  0  0  0  0  0  0
   -4.3980    0.6380   -0.2930 C   0  0  0  0  0  0  0  0  0  0  0  0
   -5.2380   -0.3570   -1.0130 C   0  0  0  0  0  0  0  0  0  0  0  0
   -6.3650   -0.8110   -0.0680 C   0  0  2  0  0  0  0  0  0  0  0  0
   -7.2130    0.3810    0.3260 C   0  0  0  0  0  0  0  0  0  0  0  0
   -5.8400   -1.5420    1.1330 C   0  0  0  0  0  0  0  0  0  0  0  0
   -4.9300    1.4170    0.6520 N   0  0  0  0  0  0  0  0  0  0  0  0
   -4.1960    2.2820    1.3540 C   0  0  0  0  0  0  0  0  0  0  0  0
   -4.7330    3.0220    2.2570 O   0  0  0  0  0  0  0  0  0  0  0  0
   -2.8790    2.3690    1.1000 N   0  0  0  0  0  0  0  0  0  0  0  0
   -2.2560    1.6320    0.1730 C   0  0  0  0  0  0  0  0  0  0  0  0
   -0.7860    1.7140   -0.1030 C   0  0  0  0  0  0  0  0  0  0  0  0
    1.5650   -1.1580    0.1240 C   0  0  0  0  0  0  0  0  0  0  0  0
    2.9150   -1.4720    0.2030 C   0  0  0  0  0  0  0  0  0  0  0  0
    5.8590   -1.9440    0.2840 C   0  0  0  0  0  0  0  0  0  0  0  0
    7.3230   -1.8080    0.2540 C   0  0  0  0  0  0  0  0  0  0  0  0
  1  2  1  0
  2  3  2  0
  2 28  1  0
  3  4  1  0
  4  5  1  0
  4 27  2  0
  5  6  2  0
  5 26  1  0
  6  7  1  0
  7  8  2  0
  9  8  1  6
  8 25  1  0
  9 10  1  0
  9 24  1  0
 10 11  1  0
 11 12  2  0
 11 13  1  0
 13 14  1  0
 13 23  2  0
 14 15  1  0
 14 19  2  0
 15 16  1  0
 16 17  1  1
 16 18  1  0
 19 20  1  0
 20 21  2  0
 20 22  1  0
 22 23  1  0
 23 24  1  0
 25 26  2  0
 27 28  1  0
M  END
