
     RDKit          3D

 28 31  0  0  0  0  0  0  0  0999 V2000
   -7.2700   -0.2360    0.7670 C   0  0  0  0  0  0  0  0  0  0  0  0
   -5.7920   -0.0780    0.6630 C   0  0  0  0  0  0  0  0  0  0  0  0
   -4.9910   -0.0210    1.7740 C   0  0  0  0  0  0  0  0  0  0  0  0
   -3.6020    0.1280    1.6680 C   0  0  0  0  0  0  0  0  0  0  0  0
   -2.9900    0.2210    0.4380 C   0  0  0  0  0  0  0  0  0  0  0  0
   -1.5330    0.3780    0.2950 C   0  0  0  0  0  0  0  0  0  0  0  0
   -0.9640    0.4660   -0.9210 N   0  0  0  0  0  0  0  0  0  0  0  0
    0.3590    0.6070   -1.0690 C   0  0  0  0  0  0  0  0  0  0  0  0
    0.8790    0.6890   -2.2110 O   0  0  0  0  0  0  0  0  0  0  0  0
    1.2080    0.6680    0.0360 C   0  0  0  0  0  0  0  0  0  0  0  0
    2.6260    0.8790   -0.1960 C   0  0  0  0  0  0  0  0  0  0  0  0
    3.5900    0.0810    0.1730 C   0  0  0  0  0  0  0  0  0  0  0  0
    3.3070   -1.1540    0.8730 C   0  0  0  0  0  0  0  0  0  0  0  0
    2.1680   -1.5870    1.1570 O   0  0  0  0  0  0  0  0  0  0  0  0
    4.4470   -2.0040    1.3020 C   0  0  0  0  0  0  0  0  0  0  0  0
    5.6810   -1.6460    1.0510 C   0  0  0  0  0  0  0  0  0  0  0  0
    6.0270   -0.4140    0.3470 C   0  0  0  0  0  0  0  0  0  0  0  0
    7.3490   -0.1150    0.1250 C   0  0  0  0  0  0  0  0  0  0  0  0
    7.7110    1.0390   -0.5370 C   0  0  0  0  0  0  0  0  0  0  0  0
    6.7220    1.8830   -0.9670 C   0  0  0  0  0  0  0  0  0  0  0  0
    5.3990    1.5650   -0.7340 C   0  0  0  0  0  0  0  0  0  0  0  0
    4.9940    0.4270   -0.0800 C   0  0  0  0  0  0  0  0  0  0  0  0
    0.6080    0.5770    1.2630 C   0  0  0  0  0  0  0  0  0  0  0  0
   -0.7460    0.4340    1.3790 N   0  0  0  0  0  0  0  0  0  0  0  0
   -3.7920    0.1640   -0.6760 C   0  0  0  0  0  0  0  0  0  0  0  0
   -3.1970    0.2590   -2.0280 C   0  0  0  0  0  0  0  0  0  0  0  0
   -5.1840    0.0150   -0.5590 C   0  0  0  0  0  0  0  0  0  0  0  0
   -6.0200   -0.0430   -1.8040 C   0  0  0  0  0  0  0  0  0  0  0  0
  1  2  1  0
  2  3  2  0
  2 27  1  0
  3  4  1  0
  4  5  2  0
  5  6  1  0
  5 25  1  0
  6  7  2  0
  6 24  1  0
  7  8  1  0
  8  9  2  0
  8 10  1  0
 10 11  1  0
 10 23  2  0
 11 12  2  3
 12 13  1  0
 12 22  1  0
 13 14  2  0
 13 15  1  0
 15 16  2  0
 16 17  1  0
 17 18  2  0
 17 22  1  0
 18 19  1  0
 19 20  2  0
 20 21  1  0
 21 22  2  0
 23 24  1  0
 25 26  1  0
 25 27  2  0
 27 28  1  0
M  END
