
     RDKit          3D

 43 46  0  0  0  0  0  0  0  0999 V2000
   -6.0940    5.6870    0.3580 C   0  0  0  0  0  0  0  0  0  0  0  0
   -5.7310    5.0610   -0.8360 O   0  0  0  0  0  0  0  0  0  0  0  0
   -4.4800    4.8860   -1.3220 N   0  0  0  0  0  0  0  0  0  0  0  0
   -3.6740    3.9440   -1.0560 C   0  0  0  0  0  0  0  0  0  0  0  0
   -4.0640    2.8920   -0.1300 C   0  0  0  0  0  0  0  0  0  0  0  0
   -3.2580    1.8820    0.1840 C   0  0  0  0  0  0  0  0  0  0  0  0
   -3.7190    0.8660    1.1180 C   0  0  0  0  0  0  0  0  0  0  0  0
   -3.4090   -0.4310    1.0630 C   0  0  0  0  0  0  0  0  0  0  0  0
   -2.5890   -0.9800    0.0810 O   0  0  0  0  0  0  0  0  0  0  0  0
   -2.0770   -2.2100    0.5010 C   0  0  2  0  0  0  0  0  0  0  0  0
   -1.8890   -3.1970   -0.6230 C   0  0  0  0  0  0  0  0  0  0  0  0
   -0.7700   -4.1330   -0.2130 C   0  0  0  0  0  0  0  0  0  0  0  0
    0.5660   -3.5390   -0.6800 C   0  0  0  0  0  0  0  0  0  0  0  0
    1.5880   -3.7370    0.3250 N   0  0  0  0  0  0  0  0  0  0  0  0
    2.1810   -2.7230    1.1150 C   0  0  0  0  0  0  0  0  0  0  0  0
    2.2620   -2.9670    2.3740 O   0  0  0  0  0  0  0  0  0  0  0  0
    2.6730   -1.5250    0.6930 O   0  0  0  0  0  0  0  0  0  0  0  0
    2.1180   -0.5870   -0.1620 C   0  0  1  0  0  0  0  0  0  0  0  0
    0.9030   -0.1470    0.3140 O   0  0  0  0  0  0  0  0  0  0  0  0
    0.2120    0.6960   -0.4840 C   0  0  2  0  0  0  0  0  0  0  0  0
    1.0100    1.7310   -1.2120 C   0  0  0  0  0  0  0  0  0  0  0  0
    2.4700    1.5100   -1.2680 C   0  0  0  0  0  0  0  0  0  0  0  0
    3.0200    0.6640   -0.1400 C   0  0  2  0  0  0  0  0  0  0  0  0
    4.3820    0.3240   -0.4020 N   0  0  0  0  0  0  0  0  0  0  0  0
    4.9080   -0.4210   -1.5340 C   0  0  0  0  0  0  0  0  0  0  0  0
    6.1170   -1.1360   -0.9900 C   0  0  0  0  0  0  0  0  0  0  0  0
    6.5840   -0.2410    0.0480 N   0  0  0  0  0  0  0  0  0  0  0  0
    7.9000   -0.2400    0.6360 C   0  0  0  0  0  0  0  0  0  0  0  0
    8.0690   -0.4380    1.9000 N   0  0  0  0  0  0  0  0  0  0  0  0
    5.5300    0.6450    0.4020 C   0  0  0  0  0  0  0  0  0  0  0  0
    5.6010    1.5530    1.2740 O   0  0  0  0  0  0  0  0  0  0  0  0
   -0.8150    1.4170    0.3610 C   0  0  0  0  0  0  0  0  0  0  0  0
   -1.9870    1.7260   -0.3260 O   0  0  0  0  0  0  0  0  0  0  0  0
   -3.1320   -2.7310    1.3450 N   0  0  0  0  0  0  0  0  0  0  0  0
   -3.5230   -4.0790    1.6260 C   0  0  0  0  0  0  0  0  0  0  0  0
   -2.7830   -4.4880    2.7480 O   0  0  0  0  0  0  0  0  0  0  0  0
   -3.0550   -3.7060    3.7550 O   0  0  0  0  0  0  0  0  0  0  0  0
   -3.7640   -1.5840    1.8920 C   0  0  0  0  0  0  0  0  0  0  0  0
   -4.5130   -1.5420    2.9220 O   0  0  0  0  0  0  0  0  0  0  0  0
   -2.4260    3.9320   -1.6550 O   0  0  0  0  0  0  0  0  0  0  0  0
   -2.1060    4.9590   -2.5300 C   0  0  0  0  0  0  0  0  0  0  0  0
   -2.9020    5.8880   -2.7940 O   0  0  0  0  0  0  0  0  0  0  0  0
   -0.8320    4.8940   -3.1050 O   0  0  0  0  0  0  0  0  0  0  0  0
  1  2  1  0
  2  3  1  0
  3  4  2  3
  4  5  1  0
  4 40  1  0
  5  6  2  3
  6  7  1  0
  6 33  1  0
  7  8  2  0
  8  9  1  0
  8 38  1  0
  9 10  1  0
 10 11  1  6
 10 34  1  0
 11 12  1  0
 12 13  1  0
 13 14  1  0
 14 15  1  0
 15 16  2  0
 15 17  1  0
 18 17  1  1
 18 19  1  0
 18 23  1  0
 19 20  1  0
 20 21  1  1
 20 32  1  0
 21 22  1  0
 22 23  1  0
 23 24  1  6
 24 25  1  0
 24 30  1  0
 25 26  1  0
 26 27  1  0
 27 28  1  0
 27 30  1  0
 28 29  2  0
 30 31  2  0
 32 33  1  0
 34 35  1  0
 34 38  1  0
 35 36  1  0
 36 37  1  0
 38 39  2  0
 40 41  1  0
 41 42  2  0
 41 43  1  0
M  END
