
     RDKit          3D

 44 48  0  0  0  0  0  0  0  0999 V2000
    3.9480   -0.0100   -1.7470 C   0  0  0  0  0  0  0  0  0  0  0  0
    3.1830   -0.6680   -0.6180 C   0  0  1  0  0  0  0  0  0  0  0  0
    4.2850   -1.1900    0.3320 C   0  0  0  0  0  0  0  0  0  0  0  0
    3.6110   -1.7970    1.4430 O   0  0  0  0  0  0  0  0  0  0  0  0
    4.3000   -2.3650    2.4790 C   0  0  0  0  0  0  0  0  0  0  0  0
    5.5610   -2.3530    2.4510 O   0  0  0  0  0  0  0  0  0  0  0  0
    3.7000   -2.9690    3.5840 O   0  0  0  0  0  0  0  0  0  0  0  0
    2.3550    0.3020    0.1910 C   0  0  0  0  0  0  0  0  0  0  0  0
    2.3440    1.6950   -0.2750 C   0  0  0  0  0  0  0  0  0  0  0  0
    1.1030    2.2920   -0.6540 N   0  0  0  0  0  0  0  0  0  0  0  0
    1.2070    3.6600   -1.1160 C   0  0  0  0  0  0  0  0  0  0  0  0
    2.2940    4.2840   -1.1810 O   0  0  0  0  0  0  0  0  0  0  0  0
    0.0810    4.3520   -1.5150 O   0  0  0  0  0  0  0  0  0  0  0  0
   -0.2060    1.7250   -0.6390 C   0  0  2  0  0  0  0  0  0  0  0  0
   -0.6880    1.4930   -2.0710 C   0  0  0  0  0  0  0  0  0  0  0  0
    0.3920    1.0550   -3.0000 C   0  0  0  0  0  0  0  0  0  0  0  0
    0.7560   -0.2760   -2.9920 O   0  0  0  0  0  0  0  0  0  0  0  0
   -0.0790   -1.4050   -3.0840 C   0  0  0  0  0  0  0  0  0  0  0  0
    0.0880   -2.2810   -3.9880 O   0  0  0  0  0  0  0  0  0  0  0  0
   -1.1990   -1.6680   -2.1610 C   0  0  0  0  0  0  0  0  0  0  0  0
   -1.0970   -1.7660   -0.8490 C   0  0  0  0  0  0  0  0  0  0  0  0
    0.0920   -2.1010   -0.1000 N   0  0  0  0  0  0  0  0  0  0  0  0
    1.3800   -2.4460   -0.5090 C   0  0  0  0  0  0  0  0  0  0  0  0
    1.6590   -3.7220   -0.3900 O   0  0  0  0  0  0  0  0  0  0  0  0
    2.4270   -1.7370   -1.0090 O   0  0  0  0  0  0  0  0  0  0  0  0
   -2.4780   -1.5080   -0.3700 C   0  0  2  0  0  0  0  0  0  0  0  0
   -2.8160   -2.0300    0.9440 C   0  0  0  0  0  0  0  0  0  0  0  0
   -2.5810   -3.2420    1.1980 O   0  0  0  0  0  0  0  0  0  0  0  0
   -3.3760   -1.2060    1.8700 O   0  0  0  0  0  0  0  0  0  0  0  0
   -2.9030   -0.0290    2.4490 C   0  0  1  0  0  0  0  0  0  0  0  0
   -4.0060    0.3340    3.4910 C   0  0  0  0  0  0  0  0  0  0  0  0
   -1.6890   -0.1750    3.2720 C   0  0  0  0  0  0  0  0  0  0  0  0
   -1.2090    1.1450    3.5360 O   0  0  0  0  0  0  0  0  0  0  0  0
   -0.8300    1.8500    2.4030 C   0  0  0  0  0  0  0  0  0  0  0  0
    0.2630    2.4590    2.3280 O   0  0  0  0  0  0  0  0  0  0  0  0
   -1.7750    1.8710    1.2490 N   0  0  0  0  0  0  0  0  0  0  0  0
   -1.2130    2.6010    0.1410 C   0  0  0  0  0  0  0  0  0  0  0  0
   -2.9270    1.1600    1.5100 C   0  0  0  0  0  0  0  0  0  0  0  0
   -4.1470    1.2610    1.1200 O   0  0  0  0  0  0  0  0  0  0  0  0
   -3.3280   -1.9010   -1.4590 N   0  0  0  0  0  0  0  0  0  0  0  0
   -4.6410   -2.1750   -1.7300 C   0  0  0  0  0  0  0  0  0  0  0  0
   -4.7140   -2.2070   -3.0700 N   0  0  0  0  0  0  0  0  0  0  0  0
   -3.5140   -1.9700   -3.5780 N   0  0  0  0  0  0  0  0  0  0  0  0
   -2.6180   -1.7790   -2.5630 C   0  0  0  0  0  0  0  0  0  0  0  0
  2  1  1  6
  2  3  1  0
  2  8  1  0
  2 25  1  0
  3  4  1  0
  4  5  1  0
  5  6  2  0
  5  7  1  0
  8  9  1  0
  9 10  1  0
 10 11  1  0
 10 14  1  0
 11 12  2  0
 11 13  1  0
 14 15  1  0
 14 37  1  6
 15 16  1  0
 16 17  1  0
 17 18  1  0
 18 19  2  0
 18 20  1  0
 20 21  2  0
 20 44  1  0
 21 22  1  0
 21 26  1  0
 22 23  1  0
 23 24  2  0
 23 25  1  0
 26 27  1  0
 26 40  1  6
 27 28  2  0
 27 29  1  0
 29 30  1  0
 30 31  1  1
 30 32  1  0
 30 38  1  0
 32 33  1  0
 33 34  1  0
 34 35  2  0
 34 36  1  0
 36 37  1  0
 36 38  1  0
 38 39  2  0
 40 41  1  0
 40 44  1  0
 41 42  2  0
 42 43  1  0
 43 44  2  0
M  END
