
     RDKit          3D

 43 46  0  0  0  0  0  0  0  0999 V2000
    2.2770   -8.0860    1.9240 C   0  0  0  0  0  0  0  0  0  0  0  0
    1.2510   -7.0650    1.5540 C   0  0  0  0  0  0  0  0  0  0  0  0
    1.7810   -6.0890    0.6570 O   0  0  0  0  0  0  0  0  0  0  0  0
    0.9630   -5.0580    0.2050 C   0  0  0  0  0  0  0  0  0  0  0  0
   -0.2170   -5.0460    0.6210 O   0  0  0  0  0  0  0  0  0  0  0  0
    1.3920   -4.0940   -0.6470 O   0  0  0  0  0  0  0  0  0  0  0  0
    0.7500   -3.0030   -1.1850 C   0  0  0  0  0  0  0  0  0  0  0  0
    0.4030   -1.8990   -0.2280 C   0  0  1  0  0  0  0  0  0  0  0  0
    1.6820   -1.2880    0.3000 C   0  0  0  0  0  0  0  0  0  0  0  0
    1.4790   -0.1810    1.2620 C   0  0  0  0  0  0  0  0  0  0  0  0
    2.6910    0.3000    1.7090 O   0  0  0  0  0  0  0  0  0  0  0  0
    3.5290    0.8040    0.7330 C   0  0  0  0  0  0  0  0  0  0  0  0
    4.8240    1.3340    1.3650 C   0  0  0  0  0  0  0  0  0  0  0  0
    5.7030    1.8530    0.4030 O   0  0  0  0  0  0  0  0  0  0  0  0
    5.4150    2.9010   -0.4300 C   0  0  0  0  0  0  0  0  0  0  0  0
    4.2950    3.4680   -0.3590 O   0  0  0  0  0  0  0  0  0  0  0  0
    6.3720    3.3720   -1.3920 N   0  0  0  0  0  0  0  0  0  0  0  0
    5.9890    4.4790   -2.2290 C   0  0  0  0  0  0  0  0  0  0  0  0
    7.0990    4.8640   -3.1920 C   0  0  0  0  0  0  0  0  0  0  0  0
    6.6880    5.9330   -3.9780 O   0  0  0  0  0  0  0  0  0  0  0  0
   -0.4500   -0.8630   -0.9400 C   0  0  0  0  0  0  0  0  0  0  0  0
   -1.8090   -0.9760   -0.3510 N   0  0  0  0  0  0  0  0  0  0  0  0
   -2.7980   -0.0060   -0.5220 C   0  0  0  0  0  0  0  0  0  0  0  0
   -2.4270    0.9540   -1.3460 O   0  0  0  0  0  0  0  0  0  0  0  0
   -4.0720    0.1280    0.0060 N   0  0  0  0  0  0  0  0  0  0  0  0
   -4.7200   -0.6670    1.0000 C   0  0  0  0  0  0  0  0  0  0  0  0
   -6.0290   -1.2370    0.4920 C   0  0  0  0  0  0  0  0  0  0  0  0
   -6.7560   -0.2910   -0.2180 O   0  0  0  0  0  0  0  0  0  0  0  0
   -6.0450    0.3410   -1.2280 C   0  0  0  0  0  0  0  0  0  0  0  0
   -4.9690    1.1840   -0.5160 C   0  0  1  0  0  0  0  0  0  0  0  0
   -5.7220    1.8590    0.6320 C   0  0  0  0  0  0  0  0  0  0  0  0
   -4.8560    2.3960    1.6020 O   0  0  0  0  0  0  0  0  0  0  0  0
   -3.9940    3.4790    1.4360 C   0  0  0  0  0  0  0  0  0  0  0  0
   -3.5420    4.3450    2.4030 C   0  0  0  0  0  0  0  0  0  0  0  0
   -2.7420    5.2300    1.8260 O   0  0  0  0  0  0  0  0  0  0  0  0
   -2.6660    4.9670    0.5430 N   0  0  0  0  0  0  0  0  0  0  0  0
   -3.4100    3.9070    0.2450 C   0  0  0  0  0  0  0  0  0  0  0  0
   -3.5920    3.3020   -1.0490 N   0  0  0  0  0  0  0  0  0  0  0  0
   -4.3390    2.1370   -1.4030 C   0  0  0  0  0  0  0  0  0  0  0  0
   -4.4620    1.9190   -2.6370 O   0  0  0  0  0  0  0  0  0  0  0  0
   -1.7860   -2.2470    0.2750 C   0  0  0  0  0  0  0  0  0  0  0  0
   -2.7270   -3.0950    0.3490 O   0  0  0  0  0  0  0  0  0  0  0  0
   -0.4610   -2.3700    0.8060 N   0  0  0  0  0  0  0  0  0  0  0  0
  1  2  1  0
  2  3  1  0
  3  4  1  0
  4  5  2  0
  4  6  1  0
  6  7  1  0
  8  7  1  6
  8  9  1  0
  8 21  1  0
  8 43  1  0
  9 10  1  0
 10 11  1  0
 11 12  1  0
 12 13  1  0
 13 14  1  0
 14 15  1  0
 15 16  2  0
 15 17  1  0
 17 18  1  0
 18 19  1  0
 19 20  1  0
 21 22  1  0
 22 23  1  0
 22 41  1  0
 23 24  2  0
 23 25  1  0
 25 26  1  0
 25 30  1  0
 26 27  1  0
 27 28  1  0
 28 29  1  0
 30 29  1  6
 30 31  1  0
 30 39  1  0
 31 32  1  0
 32 33  1  0
 33 34  2  0
 33 37  1  0
 34 35  1  0
 35 36  1  0
 36 37  2  0
 37 38  1  0
 38 39  1  0
 39 40  2  0
 41 42  2  0
 41 43  1  0
M  END
