
     RDKit          3D

 43 45  0  0  0  0  0  0  0  0999 V2000
    5.9600    1.9920    3.2930 C   0  0  0  0  0  0  0  0  0  0  0  0
    6.1480    0.7710    2.4130 C   0  0  0  0  0  0  0  0  0  0  0  0
    5.3580    0.9740    1.2060 N   0  0  0  0  0  0  0  0  0  0  0  0
    5.8440    1.5980    0.0150 C   0  0  0  0  0  0  0  0  0  0  0  0
    4.6170    1.9110   -0.8090 C   0  0  0  0  0  0  0  0  0  0  0  0
    3.5830    0.9780   -0.3110 N   0  0  0  0  0  0  0  0  0  0  0  0
    2.5230    0.6690   -1.0840 O   0  0  0  0  0  0  0  0  0  0  0  0
    1.3800   -0.0260   -0.7420 C   0  0  0  0  0  0  0  0  0  0  0  0
    1.3290   -0.4190    0.4440 O   0  0  0  0  0  0  0  0  0  0  0  0
    0.3370   -0.2620   -1.7140 N   0  0  0  0  0  0  0  0  0  0  0  0
    0.5640    0.2580   -3.0700 C   0  0  0  0  0  0  0  0  0  0  0  0
    0.7020   -0.9200   -3.9970 C   0  0  0  0  0  0  0  0  0  0  0  0
   -0.3730   -1.8520   -3.7440 N   0  0  0  0  0  0  0  0  0  0  0  0
   -1.3330   -1.6490   -2.7400 C   0  0  0  0  0  0  0  0  0  0  0  0
   -2.5170   -1.9970   -2.8390 O   0  0  0  0  0  0  0  0  0  0  0  0
   -0.8850   -0.9600   -1.4470 C   0  0  1  0  0  0  0  0  0  0  0  0
   -0.6010   -2.1630   -0.5830 C   0  0  0  0  0  0  0  0  0  0  0  0
    0.5650   -2.5740   -0.5610 O   0  0  0  0  0  0  0  0  0  0  0  0
   -1.5960   -2.8010    0.1670 N   0  0  0  0  0  0  0  0  0  0  0  0
   -1.4450   -3.9390    0.9950 C   0  0  0  0  0  0  0  0  0  0  0  0
   -2.3500   -4.2460    1.9890 C   0  0  0  0  0  0  0  0  0  0  0  0
   -2.1950   -5.3700    2.7530 C   0  0  0  0  0  0  0  0  0  0  0  0
   -1.1240   -6.2240    2.5450 C   0  0  0  0  0  0  0  0  0  0  0  0
   -0.2120   -5.9460    1.5680 C   0  0  0  0  0  0  0  0  0  0  0  0
   -0.3960   -4.7960    0.8060 C   0  0  0  0  0  0  0  0  0  0  0  0
   -2.0450   -0.1570   -1.0390 C   0  0  2  0  0  0  0  0  0  0  0  0
   -2.3690    0.8320   -2.1250 C   0  0  0  0  0  0  0  0  0  0  0  0
   -2.1630    2.0610   -1.8470 O   0  0  0  0  0  0  0  0  0  0  0  0
   -2.8560    0.5150   -3.3580 O   0  0  0  0  0  0  0  0  0  0  0  0
   -3.1190    1.5520   -4.2940 C   0  0  0  0  0  0  0  0  0  0  0  0
   -2.0950    0.4870    0.2560 C   0  0  0  0  0  0  0  0  0  0  0  0
   -1.3910    0.2300    1.2310 O   0  0  0  0  0  0  0  0  0  0  0  0
   -3.0420    1.5030    0.4160 O   0  0  0  0  0  0  0  0  0  0  0  0
   -3.2410    2.2320    1.5490 C   0  0  0  0  0  0  0  0  0  0  0  0
   -2.5150    1.9840    2.5570 O   0  0  0  0  0  0  0  0  0  0  0  0
   -4.2590    3.2840    1.6310 C   0  0  0  0  0  0  0  0  0  0  0  0
   -4.9820    3.4950    0.6280 O   0  0  0  0  0  0  0  0  0  0  0  0
   -4.4700    4.0770    2.7820 N   0  0  0  0  0  0  0  0  0  0  0  0
   -5.4790    5.0770    2.7700 C   0  0  0  0  0  0  0  0  0  0  0  0
   -6.1840    5.2350    1.7250 O   0  0  0  0  0  0  0  0  0  0  0  0
   -5.7450    5.9060    3.8480 O   0  0  0  0  0  0  0  0  0  0  0  0
    3.9930    0.6000    0.9840 C   0  0  0  0  0  0  0  0  0  0  0  0
    3.3330    0.0270    1.8610 O   0  0  0  0  0  0  0  0  0  0  0  0
  1  2  1  0
  2  3  1  0
  3  4  1  0
  3 42  1  0
  4  5  1  0
  5  6  1  0
  6  7  1  0
  6 42  1  0
  7  8  1  0
  8  9  2  0
  8 10  1  0
 10 11  1  0
 10 16  1  0
 11 12  1  0
 12 13  1  0
 13 14  1  0
 14 15  2  0
 14 16  1  0
 16 17  1  1
 16 26  1  0
 17 18  2  0
 17 19  1  0
 19 20  1  0
 20 21  2  0
 20 25  1  0
 21 22  1  0
 22 23  2  0
 23 24  1  0
 24 25  2  0
 26 27  1  6
 26 31  1  0
 27 28  2  0
 27 29  1  0
 29 30  1  0
 31 32  2  0
 31 33  1  0
 33 34  1  0
 34 35  2  0
 34 36  1  0
 36 37  2  0
 36 38  1  0
 38 39  1  0
 39 40  2  0
 39 41  1  0
 42 43  2  0
M  END
