
     RDKit          3D

 43 47  0  0  0  0  0  0  0  0999 V2000
   -2.1030   -4.8650   -0.3410 O   0  0  0  0  0  0  0  0  0  0  0  0
   -1.3570   -4.1430    0.4520 C   0  0  0  0  0  0  0  0  0  0  0  0
   -1.9050   -2.8390    0.6230 N   0  0  0  0  0  0  0  0  0  0  0  0
   -1.1490   -1.6270    0.4070 C   0  0  0  0  0  0  0  0  0  0  0  0
   -1.5290   -0.4510    1.2180 C   0  0  1  0  0  0  0  0  0  0  0  0
   -2.9640   -0.1230    1.0600 C   0  0  0  0  0  0  0  0  0  0  0  0
   -3.3670    0.1990   -0.2330 O   0  0  0  0  0  0  0  0  0  0  0  0
   -4.6880    0.5210   -0.4860 C   0  0  0  0  0  0  0  0  0  0  0  0
   -5.5020    0.5130    0.4740 O   0  0  0  0  0  0  0  0  0  0  0  0
   -5.1890    0.8760   -1.8430 C   0  0  2  0  0  0  0  0  0  0  0  0
   -4.5830    2.2370   -2.1880 C   0  0  0  0  0  0  0  0  0  0  0  0
   -5.6660    3.0510   -2.4680 O   0  0  0  0  0  0  0  0  0  0  0  0
   -6.6720    2.5320   -1.6790 C   0  0  0  0  0  0  0  0  0  0  0  0
   -6.5350    1.1520   -1.8160 O   0  0  0  0  0  0  0  0  0  0  0  0
   -1.2070   -0.6600    2.6980 C   0  0  0  0  0  0  0  0  0  0  0  0
   -1.6900    0.4930    3.3320 O   0  0  0  0  0  0  0  0  0  0  0  0
   -0.9850    1.6170    2.9850 C   0  0  0  0  0  0  0  0  0  0  0  0
   -1.0490    1.9190    1.5050 C   0  0  0  0  0  0  0  0  0  0  0  0
   -0.6470    0.6680    0.8220 N   0  0  0  0  0  0  0  0  0  0  0  0
    0.4160    0.6270   -0.0670 C   0  0  0  0  0  0  0  0  0  0  0  0
    0.3490    1.5320   -0.9930 O   0  0  0  0  0  0  0  0  0  0  0  0
    1.6030   -0.2440   -0.1610 C   0  0  2  0  0  0  0  0  0  0  0  0
    2.7850    0.6420   -0.3500 C   0  0  0  0  0  0  0  0  0  0  0  0
    2.7060    1.9600   -0.0010 C   0  0  0  0  0  0  0  0  0  0  0  0
    3.8050    2.8160   -0.1840 C   0  0  0  0  0  0  0  0  0  0  0  0
    4.9810    2.3310   -0.7190 C   0  0  0  0  0  0  0  0  0  0  0  0
    6.0870    3.1760   -0.9070 O   0  0  0  0  0  0  0  0  0  0  0  0
    7.0200    3.3710    0.0020 O   0  0  0  0  0  0  0  0  0  0  0  0
    7.7190    2.2760    0.2610 O   0  0  0  0  0  0  0  0  0  0  0  0
    8.9310    2.5850    0.6810 O   0  0  0  0  0  0  0  0  0  0  0  0
    5.0630    0.9910   -1.0740 C   0  0  0  0  0  0  0  0  0  0  0  0
    3.9680    0.1740   -0.8840 C   0  0  0  0  0  0  0  0  0  0  0  0
    1.4790   -1.1720   -1.2940 N   0  0  0  0  0  0  0  0  0  0  0  0
    0.9420   -0.8440   -2.4770 C   0  0  0  0  0  0  0  0  0  0  0  0
    0.9730   -1.9440   -3.3010 C   0  0  0  0  0  0  0  0  0  0  0  0
    1.5360   -2.8890   -2.5600 N   0  0  0  0  0  0  0  0  0  0  0  0
    1.8520   -2.4310   -1.3260 C   0  0  0  0  0  0  0  0  0  0  0  0
    2.4790   -3.2030   -0.3060 N   0  0  0  0  0  0  0  0  0  0  0  0
    2.1080   -3.4620    1.0300 C   0  0  0  0  0  0  0  0  0  0  0  0
    2.9510   -3.0030    1.9200 O   0  0  0  0  0  0  0  0  0  0  0  0
    0.9670   -4.1440    1.6090 C   0  0  0  0  0  0  0  0  0  0  0  0
    1.0220   -4.2900    2.9240 O   0  0  0  0  0  0  0  0  0  0  0  0
   -0.1890   -4.6790    1.0110 N   0  0  0  0  0  0  0  0  0  0  0  0
  1  2  2  0
  2  3  1  0
  2 43  1  0
  3  4  1  0
  4  5  1  0
  5  6  1  1
  5 15  1  0
  5 19  1  0
  6  7  1  0
  7  8  1  0
  8  9  2  0
 10  8  1  1
 10 11  1  0
 10 14  1  0
 11 12  1  0
 12 13  1  0
 13 14  1  0
 15 16  1  0
 16 17  1  0
 17 18  1  0
 18 19  1  0
 19 20  1  0
 20 21  2  0
 20 22  1  0
 22 23  1  6
 22 33  1  0
 23 24  2  0
 23 32  1  0
 24 25  1  0
 25 26  2  0
 26 27  1  0
 26 31  1  0
 27 28  1  0
 28 29  1  0
 29 30  1  0
 31 32  2  0
 33 34  1  0
 33 37  1  0
 34 35  2  0
 35 36  1  0
 36 37  2  0
 37 38  1  0
 38 39  1  0
 39 40  2  0
 39 41  1  0
 41 42  2  0
 41 43  1  0
M  END
