
     RDKit          3D

 43 45  0  0  0  0  0  0  0  0999 V2000
    5.7960    1.0340    0.1030 C   0  0  0  0  0  0  0  0  0  0  0  0
    4.4830    1.0580   -0.6500 C   0  0  1  0  0  0  0  0  0  0  0  0
    4.7910    0.6190   -2.0620 C   0  0  0  0  0  0  0  0  0  0  0  0
    3.6070    0.1680    0.0090 O   0  0  0  0  0  0  0  0  0  0  0  0
    2.3030   -0.0680   -0.3960 C   0  0  0  0  0  0  0  0  0  0  0  0
    1.8930    0.5440   -1.3970 O   0  0  0  0  0  0  0  0  0  0  0  0
    1.4000   -1.0120    0.3120 C   0  0  2  0  0  0  0  0  0  0  0  0
    1.8280   -2.3960   -0.0480 C   0  0  0  0  0  0  0  0  0  0  0  0
    0.8770   -3.5150    0.1860 C   0  0  0  0  0  0  0  0  0  0  0  0
   -0.2500   -3.1860    0.9570 N   0  0  0  0  0  0  0  0  0  0  0  0
   -0.7070   -1.8120    1.0830 C   0  0  0  0  0  0  0  0  0  0  0  0
   -0.0430   -0.8200    0.1610 C   0  0  2  0  0  0  0  0  0  0  0  0
   -0.4860   -1.1090   -1.2360 C   0  0  0  0  0  0  0  0  0  0  0  0
    0.3520   -1.4340   -2.1070 O   0  0  0  0  0  0  0  0  0  0  0  0
   -1.8540   -1.0240   -1.6090 N   0  0  0  0  0  0  0  0  0  0  0  0
   -2.3510   -1.2860   -2.9140 C   0  0  0  0  0  0  0  0  0  0  0  0
   -2.1570   -2.6500   -3.4630 C   0  0  0  0  0  0  0  0  0  0  0  0
   -0.8780   -3.1010   -3.5990 O   0  0  0  0  0  0  0  0  0  0  0  0
   -0.5780    0.5230    0.5950 C   0  0  0  0  0  0  0  0  0  0  0  0
   -0.1980    1.5520   -0.3720 N   0  0  0  0  0  0  0  0  0  0  0  0
   -1.0620    2.2190   -1.0460 C   0  0  0  0  0  0  0  0  0  0  0  0
   -2.4150    1.9890   -0.8810 O   0  0  0  0  0  0  0  0  0  0  0  0
   -0.6000    3.2400   -2.0030 C   0  0  0  0  0  0  0  0  0  0  0  0
   -1.0620    4.5700   -1.7800 N   0  0  0  0  0  0  0  0  0  0  0  0
   -2.4280    4.9070   -1.8210 C   0  0  0  0  0  0  0  0  0  0  0  0
   -3.3160    4.0650   -2.0600 O   0  0  0  0  0  0  0  0  0  0  0  0
   -2.8730    6.2190   -1.5940 O   0  0  0  0  0  0  0  0  0  0  0  0
   -1.2350    0.7820    1.5640 N   0  0  0  0  0  0  0  0  0  0  0  0
   -1.8950    0.4460    2.7230 C   0  0  0  0  0  0  0  0  0  0  0  0
   -2.3860    1.4490    3.6060 C   0  0  0  0  0  0  0  0  0  0  0  0
   -3.0390    1.1220    4.7680 C   0  0  0  0  0  0  0  0  0  0  0  0
   -3.2270   -0.2250    5.0900 C   0  0  0  0  0  0  0  0  0  0  0  0
   -2.7440   -1.1730    4.2220 C   0  0  0  0  0  0  0  0  0  0  0  0
   -2.1440   -0.7630    3.1550 N   0  0  0  0  0  0  0  0  0  0  0  0
   -2.8850   -2.6220    4.5190 C   0  0  0  0  0  0  0  0  0  0  0  0
   -3.7480   -2.9110    5.3690 O   0  0  0  0  0  0  0  0  0  0  0  0
   -2.0640   -3.5400    3.8450 O   0  0  0  0  0  0  0  0  0  0  0  0
   -2.0710   -3.8280    2.5320 O   0  0  0  0  0  0  0  0  0  0  0  0
   -1.0230   -4.1320    1.6860 C   0  0  0  0  0  0  0  0  0  0  0  0
   -0.6670   -5.3610    1.4990 O   0  0  0  0  0  0  0  0  0  0  0  0
    3.9780    2.4460   -0.6420 C   0  0  0  0  0  0  0  0  0  0  0  0
    2.8800    2.6770   -0.0870 O   0  0  0  0  0  0  0  0  0  0  0  0
    4.6650    3.4900   -1.2190 O   0  0  0  0  0  0  0  0  0  0  0  0
  2  1  1  1
  2  3  1  0
  2  4  1  0
  2 41  1  0
  4  5  1  0
  5  6  2  0
  7  5  1  6
  7  8  1  0
  7 12  1  0
  8  9  1  0
  9 10  1  0
 10 11  1  0
 10 39  1  0
 11 12  1  0
 12 13  1  6
 12 19  1  0
 13 14  2  0
 13 15  1  0
 15 16  1  0
 16 17  1  0
 17 18  1  0
 19 20  1  0
 19 28  2  0
 20 21  2  3
 21 22  1  0
 21 23  1  0
 23 24  1  0
 24 25  1  0
 25 26  2  0
 25 27  1  0
 28 29  1  0
 29 30  2  0
 29 34  1  0
 30 31  1  0
 31 32  2  0
 32 33  1  0
 33 34  2  0
 33 35  1  0
 35 36  2  0
 35 37  1  0
 37 38  1  0
 38 39  1  0
 39 40  2  0
 41 42  2  0
 41 43  1  0
M  END
