
     RDKit          3D

 16 17  0  0  0  0  0  0  0  0999 V2000
   -2.6950    0.0280    1.2330 C   0  0  0  0  0  0  0  0  0  0  0  0
   -1.8350    0.5230    0.0670 C   0  0  2  0  0  0  0  0  0  0  0  0
   -2.8930    0.2790   -1.1250 C   0  0  0  0  0  0  0  0  0  0  0  0
   -0.7400   -0.4970   -0.0910 C   0  0  0  0  0  0  0  0  0  0  0  0
   -1.0220   -1.8010   -0.5110 C   0  0  0  0  0  0  0  0  0  0  0  0
    0.6040   -2.5700   -0.7450 S   0  0  0  0  0  0  0  0  0  0  0  0
    1.4900   -1.1660   -0.3110 C   0  0  0  0  0  0  0  0  0  0  0  0
    2.9200   -1.1990   -0.2670 C   0  0  0  0  0  0  0  0  0  0  0  0
    3.3980   -2.2880   -0.6110 O   0  0  0  0  0  0  0  0  0  0  0  0
    3.7700   -0.2600    0.0860 N   0  0  0  0  0  0  0  0  0  0  0  0
    3.4390    1.0790    0.0640 C   0  0  0  0  0  0  0  0  0  0  0  0
    4.3690    1.8510   -0.1720 O   0  0  0  0  0  0  0  0  0  0  0  0
    2.2110    1.6490    0.2870 N   0  0  0  0  0  0  0  0  0  0  0  0
    0.9960    1.0720    0.4410 C   0  0  0  0  0  0  0  0  0  0  0  0
    0.1940    1.7850    1.0590 O   0  0  0  0  0  0  0  0  0  0  0  0
    0.5890   -0.2140   -0.0060 C   0  0  0  0  0  0  0  0  0  0  0  0
  2  1  1  1
  2  3  1  0
  2  4  1  0
  4  5  2  0
  4 16  1  0
  5  6  1  0
  6  7  1  0
  7  8  1  0
  7 16  2  0
  8  9  2  0
  8 10  1  0
 10 11  1  0
 11 12  2  0
 11 13  1  0
 13 14  1  0
 14 15  2  0
 14 16  1  0
M  END
