
     RDKit          3D

  8  8  0  0  0  0  0  0  0  0999 V2000
    3.0330   -0.5210    0.1750 C   0  0  0  0  0  0  0  0  0  0  0  0
    1.9720    0.5040    0.0240 C   0  0  0  0  0  0  0  0  0  0  0  0
    0.6940    0.2440    0.1200 C   0  0  0  0  0  0  0  0  0  0  0  0
   -0.2760    1.3380   -0.0480 C   0  0  0  0  0  0  0  0  0  0  0  0
   -1.6990    0.9140   -0.1170 C   0  0  0  0  0  0  0  0  0  0  0  0
   -1.9280   -0.4530   -0.6620 C   0  0  0  0  0  0  0  0  0  0  0  0
   -1.5850   -1.4960    0.4060 C   0  0  0  0  0  0  0  0  0  0  0  0
    0.2500   -1.4590    0.4550 S   0  0  0  0  0  0  0  0  0  0  0  0
  1  2  1  0
  2  3  2  3
  3  4  1  0
  3  8  1  0
  4  5  1  0
  5  6  1  0
  6  7  1  0
  7  8  1  0
M  END
