
     RDKit          3D

  8  8  0  0  0  0  0  0  0  0999 V2000
    2.7310   -0.5470    0.4740 C   0  0  0  0  0  0  0  0  0  0  0  0
    1.2680   -0.3010    0.1890 C   0  0  0  0  0  0  0  0  0  0  0  0
    0.9400    0.9100   -0.2130 C   0  0  0  0  0  0  0  0  0  0  0  0
   -0.3140    1.5460   -0.5820 C   0  0  0  0  0  0  0  0  0  0  0  0
   -1.5420    1.1440   -0.3360 C   0  0  0  0  0  0  0  0  0  0  0  0
   -1.9880   -0.0500    0.3730 C   0  0  0  0  0  0  0  0  0  0  0  0
   -1.4320   -1.3310   -0.2200 C   0  0  0  0  0  0  0  0  0  0  0  0
    0.2020   -1.6960    0.4440 S   0  0  0  0  0  0  0  0  0  0  0  0
  1  2  1  0
  2  3  2  0
  2  8  1  0
  3  4  1  0
  4  5  2  0
  5  6  1  0
  6  7  1  0
  7  8  1  0
M  END
