
     RDKit          3D

  8  8  0  0  0  0  0  0  0  0999 V2000
   -2.7910   -0.4760   -0.1340 C   0  0  0  0  0  0  0  0  0  0  0  0
   -1.7510    0.6070   -0.2330 C   0  0  0  0  0  0  0  0  0  0  0  0
   -0.3670    0.0790   -0.1870 C   0  0  0  0  0  0  0  0  0  0  0  0
   -0.1690   -1.2440   -0.0680 C   0  0  0  0  0  0  0  0  0  0  0  0
    1.4700   -1.9530   -0.0060 S   0  0  0  0  0  0  0  0  0  0  0  0
    2.6460   -0.5810   -0.1550 C   0  0  0  0  0  0  0  0  0  0  0  0
    1.9750    0.5140   -0.9460 C   0  0  0  0  0  0  0  0  0  0  0  0
    0.7410    1.0590   -0.2750 C   0  0  0  0  0  0  0  0  0  0  0  0
  1  2  1  0
  2  3  1  0
  3  4  2  0
  3  8  1  0
  4  5  1  0
  5  6  1  0
  6  7  1  0
  7  8  1  0
M  END
