
     RDKit          3D

 16 16  0  0  0  0  0  0  0  0999 V2000
    3.0960    0.1530    0.7500 O   0  0  0  0  0  0  0  0  0  0  0  0
    3.1220   -0.0250   -0.5030 C   0  0  0  0  0  0  0  0  0  0  0  0
    4.3720   -0.3410   -1.1510 N   0  0  0  0  0  0  0  0  0  0  0  0
    5.4890   -0.4440   -0.4200 O   0  0  0  0  0  0  0  0  0  0  0  0
    1.9230    0.0910   -1.2250 N   0  0  0  0  0  0  0  0  0  0  0  0
    0.6090    0.4230   -0.6600 C   0  0  1  0  0  0  0  0  0  0  0  0
   -0.2590   -0.7560   -0.5330 C   0  0  0  0  0  0  0  0  0  0  0  0
   -1.5760   -0.4340    0.0340 C   0  0  0  0  0  0  0  0  0  0  0  0
   -1.8860   -0.6520    1.3540 C   0  0  0  0  0  0  0  0  0  0  0  0
   -3.1300   -0.3110    1.8610 C   0  0  0  0  0  0  0  0  0  0  0  0
   -4.0930    0.2540    1.0590 C   0  0  0  0  0  0  0  0  0  0  0  0
   -3.7880    0.4730   -0.2640 C   0  0  0  0  0  0  0  0  0  0  0  0
   -2.5560    0.1390   -0.7790 C   0  0  0  0  0  0  0  0  0  0  0  0
    0.7350    1.3150    0.4840 C   0  0  0  0  0  0  0  0  0  0  0  0
    1.6880    2.1430    0.5260 O   0  0  0  0  0  0  0  0  0  0  0  0
   -0.1250    1.3240    1.5430 O   0  0  0  0  0  0  0  0  0  0  0  0
  1  2  2  0
  2  3  1  0
  2  5  1  0
  3  4  1  0
  5  6  1  0
  6  7  1  1
  6 14  1  0
  7  8  1  0
  8  9  2  0
  8 13  1  0
  9 10  1  0
 10 11  2  0
 11 12  1  0
 12 13  2  0
 14 15  2  0
 14 16  1  0
M  END
