
     RDKit          3D

 16 16  0  0  0  0  0  0  0  0999 V2000
    5.2780   -0.5290    0.4310 C   0  0  0  0  0  0  0  0  0  0  0  0
    4.6990   -0.5690   -0.9770 C   0  0  0  0  0  0  0  0  0  0  0  0
    3.2870   -0.6860   -0.9380 O   0  0  0  0  0  0  0  0  0  0  0  0
    2.4780    0.2610   -0.3260 C   0  0  0  0  0  0  0  0  0  0  0  0
    2.9760    1.2670    0.2210 O   0  0  0  0  0  0  0  0  0  0  0  0
    1.0330    0.1100   -0.3040 N   0  0  0  0  0  0  0  0  0  0  0  0
    0.2130    1.0710    0.3170 C   0  0  0  0  0  0  0  0  0  0  0  0
    0.8490    2.0610    0.8440 O   0  0  0  0  0  0  0  0  0  0  0  0
   -1.2220    1.0380    0.4070 C   0  0  0  0  0  0  0  0  0  0  0  0
   -1.7630    2.0920    1.0600 C   0  0  0  0  0  0  0  0  0  0  0  0
   -3.5070    2.2390    1.2780 S   0  0  0  0  0  0  0  0  0  0  0  0
   -4.3220    0.8510    0.5340 C   0  0  0  0  0  0  0  0  0  0  0  0
   -3.3710   -0.0830   -0.0800 C   0  0  0  0  0  0  0  0  0  0  0  0
   -4.0340   -1.3020   -0.7360 C   0  0  0  0  0  0  0  0  0  0  0  0
   -2.0560    0.0080   -0.1280 C   0  0  0  0  0  0  0  0  0  0  0  0
   -1.4540   -1.1280   -0.8280 N   0  0  0  0  0  0  0  0  0  0  0  0
  1  2  1  0
  2  3  1  0
  3  4  1  0
  4  5  2  0
  4  6  1  0
  6  7  1  0
  7  8  2  0
  7  9  1  0
  9 10  2  0
  9 15  1  0
 10 11  1  0
 11 12  1  0
 12 13  1  0
 13 14  1  0
 13 15  2  0
 15 16  1  0
M  END
