
     RDKit          3D

 18 19  0  0  0  0  0  0  0  0999 V2000
   -2.3460    3.1600    0.3390 C   0  0  0  0  0  0  0  0  0  0  0  0
   -1.6790    1.8700    0.0880 C   0  0  0  0  0  0  0  0  0  0  0  0
   -2.1750    0.6720    0.2490 C   0  0  0  0  0  0  0  0  0  0  0  0
   -3.5390    0.5760    0.7340 C   0  0  0  0  0  0  0  0  0  0  0  0
   -4.1520    1.8480    1.7590 Cl  0  0  0  0  0  0  0  0  0  0  0  0
   -4.3660   -0.4450    0.4720 C   0  0  0  0  0  0  0  0  0  0  0  0
   -4.1480   -1.6460   -0.3070 C   0  0  0  0  0  0  0  0  0  0  0  0
   -2.9900   -2.1660   -0.7390 C   0  0  0  0  0  0  0  0  0  0  0  0
   -1.6240   -1.6330   -0.5250 C   0  0  0  0  0  0  0  0  0  0  0  0
   -0.5850   -2.6460   -0.8300 C   0  0  0  0  0  0  0  0  0  0  0  0
   -1.2490   -0.4380   -0.1090 C   0  0  0  0  0  0  0  0  0  0  0  0
    0.1360   -0.1930   -0.0050 N   0  0  0  0  0  0  0  0  0  0  0  0
    1.0490    0.0130   -1.0920 C   0  0  0  0  0  0  0  0  0  0  0  0
    2.4470    0.2560   -0.5120 C   0  0  2  0  0  0  0  0  0  0  0  0
    2.9480   -0.8930    0.3080 C   0  0  0  0  0  0  0  0  0  0  0  0
    4.3170   -0.6600    0.8790 C   0  0  0  0  0  0  0  0  0  0  0  0
    2.8000    1.6160   -0.0430 C   0  0  0  0  0  0  0  0  0  0  0  0
    3.3490    1.0670   -1.3480 C   0  0  0  0  0  0  0  0  0  0  0  0
  1  2  1  0
  2  3  2  3
  3  4  1  0
  3 11  1  0
  4  5  1  0
  4  6  2  0
  6  7  1  0
  7  8  2  0
  8  9  1  0
  9 10  1  0
  9 11  2  0
 11 12  1  0
 12 13  1  0
 14 13  1  6
 14 15  1  0
 14 17  1  0
 14 18  1  0
 15 16  1  0
 17 18  1  0
M  END
