
     RDKit          3D

 23 25  0  0  0  0  0  0  0  0999 V2000
   -5.7490    1.1460    1.1700 C   0  0  0  0  0  0  0  0  0  0  0  0
   -4.9430    1.7040    0.0330 C   0  0  0  0  0  0  0  0  0  0  0  0
   -3.6580    1.0290   -0.1330 N   0  0  0  0  0  0  0  0  0  0  0  0
   -3.6520   -0.3420   -0.4830 C   0  0  0  0  0  0  0  0  0  0  0  0
   -4.8530   -0.9870   -0.7970 C   0  0  0  0  0  0  0  0  0  0  0  0
   -4.8910   -2.3080   -1.1940 C   0  0  0  0  0  0  0  0  0  0  0  0
   -3.7110   -2.9970   -1.2780 C   0  0  0  0  0  0  0  0  0  0  0  0
   -2.4990   -2.3730   -0.9670 C   0  0  0  0  0  0  0  0  0  0  0  0
   -2.4650   -1.0570   -0.5730 C   0  0  0  0  0  0  0  0  0  0  0  0
   -1.2590   -0.3970   -0.1740 N   0  0  0  0  0  0  0  0  0  0  0  0
    0.0560   -0.8440   -0.3940 C   0  0  0  0  0  0  0  0  0  0  0  0
    0.2500   -1.9200   -1.0250 O   0  0  0  0  0  0  0  0  0  0  0  0
    1.2730   -0.1380    0.0630 C   0  0  0  0  0  0  0  0  0  0  0  0
    2.4490   -0.3990   -0.6280 C   0  0  0  0  0  0  0  0  0  0  0  0
    3.6430    0.2410   -0.2920 C   0  0  0  0  0  0  0  0  0  0  0  0
    3.6140    1.1280    0.7370 C   0  0  0  0  0  0  0  0  0  0  0  0
    2.4450    1.3750    1.4090 N   0  0  0  0  0  0  0  0  0  0  0  0
    1.2970    0.7630    1.0890 C   0  0  0  0  0  0  0  0  0  0  0  0
    0.2360    1.0210    1.7430 O   0  0  0  0  0  0  0  0  0  0  0  0
    4.9630    1.7000    0.9710 C   0  0  0  0  0  0  0  0  0  0  0  0
    5.7750    1.2660   -0.1940 C   0  0  0  0  0  0  0  0  0  0  0  0
    5.0080    0.1610   -0.8700 C   0  0  1  0  0  0  0  0  0  0  0  0
    5.6090   -1.1230   -0.5120 N   0  0  0  0  0  0  0  0  0  0  0  0
  1  2  1  0
  2  3  1  0
  3  4  1  0
  4  5  2  0
  4  9  1  0
  5  6  1  0
  6  7  2  0
  7  8  1  0
  8  9  2  0
  9 10  1  0
 10 11  1  0
 11 12  2  0
 11 13  1  0
 13 14  2  0
 13 18  1  0
 14 15  1  0
 15 16  2  0
 15 22  1  0
 16 17  1  0
 16 20  1  0
 17 18  1  0
 18 19  2  0
 20 21  1  0
 21 22  1  0
 22 23  1  1
M  CHG  1  23   1
M  END
