
     RDKit          3D

 18 19  0  0  0  0  0  0  0  0999 V2000
    6.0090   -1.9480   -0.5530 N   0  0  0  0  0  0  0  0  0  0  0  0
    4.9590   -2.7300   -1.2010 C   0  0  0  0  0  0  0  0  0  0  0  0
    3.6550   -2.1910   -0.7280 C   0  0  0  0  0  0  0  0  0  0  0  0
    3.0200   -2.6770    0.3970 C   0  0  0  0  0  0  0  0  0  0  0  0
    1.8140   -2.1810    0.8380 C   0  0  0  0  0  0  0  0  0  0  0  0
    1.1820   -1.1530    0.1520 C   0  0  0  0  0  0  0  0  0  0  0  0
   -0.0980   -0.6190    0.6130 C   0  0  0  0  0  0  0  0  0  0  0  0
   -0.7610    0.3460    0.0280 C   0  0  0  0  0  0  0  0  0  0  0  0
   -2.0310    0.7960    0.5800 C   0  0  0  0  0  0  0  0  0  0  0  0
   -2.6710    1.7680   -0.0330 C   0  0  0  0  0  0  0  0  0  0  0  0
   -3.9430    2.2740    0.4520 C   0  0  0  0  0  0  0  0  0  0  0  0
   -4.6020    3.2690   -0.1720 C   0  0  0  0  0  0  0  0  0  0  0  0
   -5.8380    3.5570    0.5440 C   0  0  0  0  0  0  0  0  0  0  0  0
   -5.8550    2.6220    1.6760 C   0  0  0  0  0  0  0  0  0  0  0  0
   -4.7480    1.8920    1.5990 C   0  0  0  0  0  0  0  0  0  0  0  0
   -4.3720    0.6380    2.7750 Cl  0  0  0  0  0  0  0  0  0  0  0  0
    1.8160   -0.6720   -0.9650 C   0  0  0  0  0  0  0  0  0  0  0  0
    3.0420   -1.1730   -1.4180 C   0  0  0  0  0  0  0  0  0  0  0  0
  1  2  1  0
  2  3  1  0
  3  4  2  0
  3 18  1  0
  4  5  1  0
  5  6  2  0
  6  7  1  0
  6 17  1  0
  7  8  2  3
  8  9  1  0
  9 10  2  3
 10 11  1  0
 11 12  2  0
 11 15  1  0
 12 13  1  0
 13 14  1  0
 14 15  2  0
 15 16  1  0
 17 18  2  0
M  CHG  1   1   1
M  END
