
     RDKit          3D

 23 25  0  0  0  0  0  0  0  0999 V2000
   -2.2790   -1.6180   -0.4500 C   0  0  0  0  0  0  0  0  0  0  0  0
   -2.9890   -0.5210   -0.3970 C   0  0  0  0  0  0  0  0  0  0  0  0
   -4.0250   -0.3390   -1.3900 N   0  0  0  0  0  0  0  0  0  0  0  0
   -5.2650   -0.9210   -1.2330 N   0  0  0  0  0  0  0  0  0  0  0  0
   -2.8510    0.5700    0.5400 C   0  0  0  0  0  0  0  0  0  0  0  0
   -3.9190    1.4620    0.7340 C   0  0  0  0  0  0  0  0  0  0  0  0
   -3.8210    2.5180    1.6100 C   0  0  0  0  0  0  0  0  0  0  0  0
   -2.6490    2.7020    2.3080 C   0  0  0  0  0  0  0  0  0  0  0  0
   -1.5780    1.8520    2.1480 C   0  0  0  0  0  0  0  0  0  0  0  0
   -0.3860    2.0130    2.8370 O   0  0  0  0  0  0  0  0  0  0  0  0
   -1.7090    0.7820    1.2450 C   0  0  0  0  0  0  0  0  0  0  0  0
   -0.6200   -0.0490    1.1020 O   0  0  0  0  0  0  0  0  0  0  0  0
    0.3500    0.3030    0.1380 C   0  0  0  0  0  0  0  0  0  0  0  0
    0.2210    1.4370   -0.6390 C   0  0  0  0  0  0  0  0  0  0  0  0
    1.1660    1.7910   -1.5870 C   0  0  0  0  0  0  0  0  0  0  0  0
    2.2780    0.9970   -1.7750 C   0  0  0  0  0  0  0  0  0  0  0  0
    2.4320   -0.1470   -1.0090 C   0  0  0  0  0  0  0  0  0  0  0  0
    1.4730   -0.4690   -0.0750 C   0  0  0  0  0  0  0  0  0  0  0  0
    1.6560   -1.6480    0.6970 N   0  0  0  0  0  0  0  0  0  0  0  0
    2.7160   -2.5960    0.4080 C   0  0  0  0  0  0  0  0  0  0  0  0
    3.9390   -1.9280   -0.1370 C   0  0  0  0  0  0  0  0  0  0  0  0
    3.6390   -0.9670   -1.2450 C   0  0  2  0  0  0  0  0  0  0  0  0
    4.8150   -0.1090   -1.4000 N   0  0  0  0  0  0  0  0  0  0  0  0
  1  2  2  0
  2  3  1  0
  2  5  1  0
  3  4  1  0
  5  6  2  0
  5 11  1  0
  6  7  1  0
  7  8  2  0
  8  9  1  0
  9 10  1  0
  9 11  2  0
 11 12  1  0
 12 13  1  0
 13 14  2  0
 13 18  1  0
 14 15  1  0
 15 16  2  0
 16 17  1  0
 17 18  2  0
 17 22  1  0
 18 19  1  0
 19 20  1  0
 20 21  1  0
 21 22  1  0
 22 23  1  1
M  CHG  1  23   1
M  END
