
     RDKit          3D

 23 25  0  0  0  0  0  0  0  0999 V2000
    7.8470    0.3100   -0.8500 C   0  0  0  0  0  0  0  0  0  0  0  0
    6.4200   -0.1480   -0.8090 C   0  0  0  0  0  0  0  0  0  0  0  0
    6.0680   -0.8980   -1.7240 O   0  0  0  0  0  0  0  0  0  0  0  0
    5.5380    0.2520    0.2090 N   0  0  0  0  0  0  0  0  0  0  0  0
    4.1740   -0.1160    0.3480 C   0  0  0  0  0  0  0  0  0  0  0  0
    3.5310   -0.9430   -0.5330 C   0  0  0  0  0  0  0  0  0  0  0  0
    2.1970   -1.2450   -0.3110 C   0  0  0  0  0  0  0  0  0  0  0  0
    1.4630   -0.7660    0.7480 C   0  0  0  0  0  0  0  0  0  0  0  0
    0.0300   -1.1130    0.9520 C   0  0  0  0  0  0  0  0  0  0  0  0
   -0.7960   -0.1490    0.2780 N   0  0  0  0  0  0  0  0  0  0  0  0
   -2.2210   -0.2680    0.3270 C   0  0  0  0  0  0  0  0  0  0  0  0
   -2.8100   -1.3060    1.0200 C   0  0  0  0  0  0  0  0  0  0  0  0
   -4.1850   -1.4250    1.0710 C   0  0  0  0  0  0  0  0  0  0  0  0
   -5.0000   -0.5190    0.4360 C   0  0  0  0  0  0  0  0  0  0  0  0
   -4.4390    0.5280   -0.2650 C   0  0  0  0  0  0  0  0  0  0  0  0
   -3.0510    0.6320   -0.3050 C   0  0  0  0  0  0  0  0  0  0  0  0
   -5.5230    1.3440   -0.8440 C   0  0  0  0  0  0  0  0  0  0  0  0
   -5.3670    2.5130   -1.6370 N   0  0  0  0  0  0  0  0  0  0  0  0
   -6.6530    0.8140   -0.5090 N   0  0  0  0  0  0  0  0  0  0  0  0
   -6.4680   -0.3630    0.2960 C   0  0  0  0  0  0  0  0  0  0  0  0
    2.1420    0.0640    1.6170 C   0  0  0  0  0  0  0  0  0  0  0  0
    3.4470    0.3860    1.4380 C   0  0  0  0  0  0  0  0  0  0  0  0
    4.1430    1.2250    2.3130 O   0  0  0  0  0  0  0  0  0  0  0  0
  1  2  1  0
  2  3  2  0
  2  4  1  0
  4  5  1  0
  5  6  2  0
  5 22  1  0
  6  7  1  0
  7  8  2  0
  8  9  1  0
  8 21  1  0
  9 10  1  0
 10 11  1  0
 11 12  2  0
 11 16  1  0
 12 13  1  0
 13 14  2  0
 14 15  1  0
 14 20  1  0
 15 16  2  0
 15 17  1  0
 17 18  1  0
 17 19  2  0
 19 20  1  0
 21 22  2  0
 22 23  1  0
M  CHG  1  19   1
M  END
