
     RDKit          3D

 23 25  0  0  0  0  0  0  0  0999 V2000
   -4.7610   -2.4610   -0.7440 C   0  0  0  0  0  0  0  0  0  0  0  0
   -3.7250   -1.4640   -0.3090 C   0  0  0  0  0  0  0  0  0  0  0  0
   -4.0980   -0.2390    0.1960 C   0  0  0  0  0  0  0  0  0  0  0  0
   -3.2180    0.6860    0.5980 N   0  0  0  0  0  0  0  0  0  0  0  0
   -1.8740    0.4620    0.5280 C   0  0  0  0  0  0  0  0  0  0  0  0
   -0.9220    1.5140    0.9980 C   0  0  0  0  0  0  0  0  0  0  0  0
   -1.7170    2.6450    1.4520 N   0  0  0  0  0  0  0  0  0  0  0  0
   -1.4780   -0.7550    0.0270 C   0  0  0  0  0  0  0  0  0  0  0  0
   -0.0330   -1.0550   -0.0880 C   0  0  1  0  0  0  0  0  0  0  0  0
    0.1360   -2.4180   -0.2870 O   0  0  0  0  0  0  0  0  0  0  0  0
    0.5670   -0.3450   -1.2500 C   0  0  0  0  0  0  0  0  0  0  0  0
    0.0070   -0.2390   -2.4980 C   0  0  0  0  0  0  0  0  0  0  0  0
    0.8340    0.4700   -3.2680 N   0  0  0  0  0  0  0  0  0  0  0  0
    1.8780    0.8050   -2.5490 N   0  0  0  0  0  0  0  0  0  0  0  0
    1.7670    0.3300   -1.2970 C   0  0  0  0  0  0  0  0  0  0  0  0
    2.7360    0.4950   -0.2130 C   0  0  0  0  0  0  0  0  0  0  0  0
    3.3120    1.7200    0.0330 C   0  0  0  0  0  0  0  0  0  0  0  0
    4.2380    1.9140    1.0470 C   0  0  0  0  0  0  0  0  0  0  0  0
    4.6160    0.8590    1.8560 C   0  0  0  0  0  0  0  0  0  0  0  0
    4.0420   -0.3690    1.6140 C   0  0  0  0  0  0  0  0  0  0  0  0
    4.4150   -1.4570    2.4280 O   0  0  0  0  0  0  0  0  0  0  0  0
    3.1150   -0.5560    0.5950 C   0  0  0  0  0  0  0  0  0  0  0  0
   -2.3880   -1.7310   -0.3970 C   0  0  0  0  0  0  0  0  0  0  0  0
  1  2  1  0
  2  3  2  0
  2 23  1  0
  3  4  1  0
  4  5  2  0
  5  6  1  0
  5  8  1  0
  6  7  1  0
  8  9  1  0
  8 23  2  0
  9 10  1  6
  9 11  1  0
 11 12  2  0
 11 15  1  0
 12 13  1  0
 13 14  1  0
 14 15  2  0
 15 16  1  0
 16 17  2  0
 16 22  1  0
 17 18  1  0
 18 19  2  0
 19 20  1  0
 20 21  1  0
 20 22  2  0
M  CHG  1   7   1
M  END
