
     RDKit          3D

 25 25  0  0  0  0  0  0  0  0999 V2000
   -0.3090   -2.7600    3.0960 C   0  0  0  0  0  0  0  0  0  0  0  0
   -0.5620   -2.6010    1.7540 O   0  0  0  0  0  0  0  0  0  0  0  0
   -0.9960   -1.3170    1.4650 C   0  0  2  0  0  0  0  0  0  0  0  0
   -2.2980   -1.1050    2.1380 C   0  0  0  0  0  0  0  0  0  0  0  0
   -2.8680    0.0440    2.1100 O   0  0  0  0  0  0  0  0  0  0  0  0
   -3.0130   -2.0650    2.8320 O   0  0  0  0  0  0  0  0  0  0  0  0
   -1.3550   -1.2630   -0.0350 C   0  0  0  0  0  0  0  0  0  0  0  0
   -1.3660    0.1300   -0.5590 C   0  0  2  0  0  0  0  0  0  0  0  0
   -1.5780    0.1170   -1.9500 O   0  0  0  0  0  0  0  0  0  0  0  0
   -2.6390    0.6880   -2.5980 C   0  0  0  0  0  0  0  0  0  0  0  0
   -2.7130    0.5830   -4.0800 C   0  0  0  0  0  0  0  0  0  0  0  0
   -3.5060    1.2760   -1.9050 O   0  0  0  0  0  0  0  0  0  0  0  0
   -0.0220    0.8250   -0.2850 C   0  0  1  0  0  0  0  0  0  0  0  0
   -0.3780    2.2260    0.0360 N   0  0  0  0  0  0  0  0  0  0  0  0
   -0.0160    3.2900   -0.8300 C   0  0  0  0  0  0  0  0  0  0  0  0
   -0.3870    4.7100   -0.4860 C   0  0  0  0  0  0  0  0  0  0  0  0
    0.6130    3.0290   -1.8780 O   0  0  0  0  0  0  0  0  0  0  0  0
    0.7080    0.1830    0.8360 C   0  0  2  0  0  0  0  0  0  0  0  0
    1.8250   -0.7460    0.5210 C   0  0  2  0  0  0  0  0  0  0  0  0
    2.5380   -0.9360    1.7650 O   0  0  0  0  0  0  0  0  0  0  0  0
    2.8710   -0.2900   -0.4250 C   0  0  2  0  0  0  0  0  0  0  0  0
    2.4330   -0.0830   -1.7220 O   0  0  0  0  0  0  0  0  0  0  0  0
    3.8820   -1.4490   -0.5330 C   0  0  0  0  0  0  0  0  0  0  0  0
    4.3930   -1.7460    0.7260 O   0  0  0  0  0  0  0  0  0  0  0  0
   -0.1350   -0.3340    1.8140 O   0  0  0  0  0  0  0  0  0  0  0  0
  1  2  1  0
  3  2  1  1
  3  4  1  0
  3  7  1  0
  3 25  1  0
  4  5  2  0
  4  6  1  0
  7  8  1  0
  8  9  1  6
  8 13  1  0
  9 10  1  0
 10 11  1  0
 10 12  2  0
 13 14  1  1
 13 18  1  0
 14 15  1  0
 15 16  1  0
 15 17  2  0
 18 19  1  0
 18 25  1  6
 19 20  1  1
 19 21  1  0
 21 22  1  6
 21 23  1  0
 23 24  1  0
M  END
