
     RDKit          3D

 11 11  0  0  0  0  0  0  0  0999 V2000
    2.5690   -0.8130    0.1320 C   0  0  0  0  0  0  0  0  0  0  0  0
    1.5550   -0.5330   -0.8390 O   0  0  0  0  0  0  0  0  0  0  0  0
    0.3300   -0.0180   -0.4440 C   0  0  0  0  0  0  0  0  0  0  0  0
    0.1480    1.3460   -0.3730 C   0  0  0  0  0  0  0  0  0  0  0  0
    1.1850    2.2390   -0.6960 O   0  0  0  0  0  0  0  0  0  0  0  0
   -1.0940    1.7920    0.0270 C   0  0  0  0  0  0  0  0  0  0  0  0
   -2.0590    0.9370    0.3260 O   0  0  0  0  0  0  0  0  0  0  0  0
   -1.8870   -0.3670    0.2600 C   0  0  0  0  0  0  0  0  0  0  0  0
   -2.8450   -1.2020    0.5570 N   0  0  0  0  0  0  0  0  0  0  0  0
   -0.6790   -0.9060   -0.1300 C   0  0  0  0  0  0  0  0  0  0  0  0
   -0.5040   -2.2810   -0.1990 O   0  0  0  0  0  0  0  0  0  0  0  0
  1  2  1  0
  2  3  1  0
  3  4  1  0
  3 10  2  0
  4  5  1  0
  4  6  2  0
  6  7  1  0
  7  8  1  0
  8  9  2  0
  8 10  1  0
 10 11  1  0
M  END
