
     RDKit          3D

 10 10  0  0  0  0  0  0  0  0999 V2000
    2.4220   -0.8300    0.0040 C   0  0  0  0  0  0  0  0  0  0  0  0
    1.4840   -0.0840    0.7030 O   0  0  0  0  0  0  0  0  0  0  0  0
    0.1990    0.2100    0.2570 C   0  0  0  0  0  0  0  0  0  0  0  0
   -0.6800   -0.7610    0.2730 C   0  0  0  0  0  0  0  0  0  0  0  0
   -0.2740   -2.0520    0.7420 O   0  0  0  0  0  0  0  0  0  0  0  0
   -2.0670   -0.5870   -0.1690 C   0  0  0  0  0  0  0  0  0  0  0  0
   -2.3520    0.6920   -0.6000 O   0  0  0  0  0  0  0  0  0  0  0  0
   -1.4260    1.7010   -0.6130 C   0  0  0  0  0  0  0  0  0  0  0  0
   -0.1750    1.5330   -0.2120 C   0  0  0  0  0  0  0  0  0  0  0  0
    0.7510    2.5420   -0.2250 O   0  0  0  0  0  0  0  0  0  0  0  0
  1  2  1  0
  2  3  1  0
  3  4  2  0
  3  9  1  0
  4  5  1  0
  4  6  1  0
  6  7  1  0
  7  8  1  0
  8  9  2  0
  9 10  1  0
M  END
