
     RDKit          3D

 11 11  0  0  0  0  0  0  0  0999 V2000
    3.5980    0.3460   -0.0000 N   0  0  0  0  0  0  0  0  0  0  0  0
    2.2030    0.6030    0.0100 C   0  0  0  0  0  0  0  0  0  0  0  0
    1.8450    1.8040   -0.0790 O   0  0  0  0  0  0  0  0  0  0  0  0
    1.2670   -0.5000    0.1190 C   0  0  0  0  0  0  0  0  0  0  0  0
   -0.0270   -0.2640    0.1280 C   0  0  0  0  0  0  0  0  0  0  0  0
   -1.0260   -1.3750    0.2390 C   0  0  0  0  0  0  0  0  0  0  0  0
   -2.0470   -1.0690   -0.6590 O   0  0  0  0  0  0  0  0  0  0  0  0
   -2.6880    0.0830   -0.2020 C   0  0  0  0  0  0  0  0  0  0  0  0
   -1.7910    1.2640   -0.3100 C   0  0  0  0  0  0  0  0  0  0  0  0
   -2.1650    2.3960   -0.6790 O   0  0  0  0  0  0  0  0  0  0  0  0
   -0.4520    1.0560    0.0320 O   0  0  0  0  0  0  0  0  0  0  0  0
  1  2  1  0
  2  3  2  0
  2  4  1  0
  4  5  2  3
  5  6  1  0
  5 11  1  0
  6  7  1  0
  7  8  1  0
  8  9  1  0
  9 10  2  0
  9 11  1  0
M  END
