
     RDKit          3D

 11 11  0  0  0  0  0  0  0  0999 V2000
    2.6940    0.2210   -0.1720 N   0  0  0  0  0  0  0  0  0  0  0  0
    1.3120   -0.0860   -0.1510 C   0  0  0  0  0  0  0  0  0  0  0  0
    0.5290    0.9690    0.0500 C   0  0  0  0  0  0  0  0  0  0  0  0
    1.1950    2.1740    0.2030 O   0  0  0  0  0  0  0  0  0  0  0  0
   -0.9300    0.9620    0.1210 C   0  0  0  0  0  0  0  0  0  0  0  0
   -1.4930    2.2250    0.1090 O   0  0  0  0  0  0  0  0  0  0  0  0
   -1.7570   -0.0740    0.1930 C   0  0  0  0  0  0  0  0  0  0  0  0
   -3.1040    0.2230    0.2500 O   0  0  0  0  0  0  0  0  0  0  0  0
   -1.3320   -1.5040    0.2170 C   0  0  0  0  0  0  0  0  0  0  0  0
   -0.3840   -1.6310   -0.8250 O   0  0  0  0  0  0  0  0  0  0  0  0
    0.9040   -1.4910   -0.3480 C   0  0  0  0  0  0  0  0  0  0  0  0
  1  2  1  0
  2  3  2  0
  2 11  1  0
  3  4  1  0
  3  5  1  0
  5  6  1  0
  5  7  2  0
  7  8  1  0
  7  9  1  0
  9 10  1  0
 10 11  1  0
M  END
