
     RDKit          3D

 11 11  0  0  0  0  0  0  0  0999 V2000
    2.5460   -0.5420   -0.1120 C   0  0  0  0  0  0  0  0  0  0  0  0
    1.5270   -0.2140   -1.0660 O   0  0  0  0  0  0  0  0  0  0  0  0
    0.2900    0.1160   -0.5290 C   0  0  0  0  0  0  0  0  0  0  0  0
    0.0300    1.4370   -0.2260 C   0  0  0  0  0  0  0  0  0  0  0  0
    0.9950    2.4240   -0.4560 O   0  0  0  0  0  0  0  0  0  0  0  0
   -1.2120    1.7170    0.3050 C   0  0  0  0  0  0  0  0  0  0  0  0
   -2.1390    0.7650    0.5240 N   0  0  0  0  0  0  0  0  0  0  0  0
   -1.9160   -0.5300    0.2390 C   0  0  0  0  0  0  0  0  0  0  0  0
   -2.8820   -1.5120    0.4700 O   0  0  0  0  0  0  0  0  0  0  0  0
   -0.6820   -0.8470   -0.2940 C   0  0  0  0  0  0  0  0  0  0  0  0
   -0.4190   -2.1700   -0.5990 O   0  0  0  0  0  0  0  0  0  0  0  0
  1  2  1  0
  2  3  1  0
  3  4  2  0
  3 10  1  0
  4  5  1  0
  4  6  1  0
  6  7  2  0
  7  8  1  0
  8  9  1  0
  8 10  2  0
 10 11  1  0
M  END
