
     RDKit          3D

 11 11  0  0  0  0  0  0  0  0999 V2000
    2.2780   -0.7410   -1.4400 O   0  0  0  0  0  0  0  0  0  0  0  0
    2.6190   -0.3750   -0.2680 C   0  0  0  0  0  0  0  0  0  0  0  0
    3.9630   -0.3730    0.0840 O   0  0  0  0  0  0  0  0  0  0  0  0
    1.6110    0.0090    0.6130 N   0  0  0  0  0  0  0  0  0  0  0  0
    0.2420   -0.0040    0.2230 C   0  0  0  0  0  0  0  0  0  0  0  0
   -0.5020    1.0800    0.2270 C   0  0  0  0  0  0  0  0  0  0  0  0
   -1.9120    1.0520   -0.1800 C   0  0  0  0  0  0  0  0  0  0  0  0
   -2.5220   -0.2870    0.1360 C   0  0  0  0  0  0  0  0  0  0  0  0
   -1.7340   -1.2640   -0.5340 O   0  0  0  0  0  0  0  0  0  0  0  0
   -0.3910   -1.2800   -0.1830 C   0  0  0  0  0  0  0  0  0  0  0  0
    0.3390   -2.2980   -0.1830 O   0  0  0  0  0  0  0  0  0  0  0  0
  1  2  2  0
  2  3  1  0
  2  4  1  0
  4  5  1  0
  5  6  2  0
  5 10  1  0
  6  7  1  0
  7  8  1  0
  8  9  1  0
  9 10  1  0
 10 11  2  0
M  END
