
     RDKit          3D

 23 23  0  0  0  0  0  0  0  0999 V2000
    3.6720   -2.8600    0.1580 C   0  0  0  0  0  0  0  0  0  0  0  0
    3.4930   -1.9490   -0.8550 O   0  0  0  0  0  0  0  0  0  0  0  0
    3.3500   -0.6400   -0.3690 C   0  0  1  0  0  0  0  0  0  0  0  0
    4.4950    0.1690   -0.8920 C   0  0  0  0  0  0  0  0  0  0  0  0
    5.7960   -0.4320   -0.4110 C   0  0  0  0  0  0  0  0  0  0  0  0
    7.2600    0.5310   -1.0250 P   0  0  0  0  0  0  0  0  0  0  0  0
    7.7720    1.8160   -0.3390 O   0  0  0  0  0  0  0  0  0  0  0  0
    2.1110   -0.1320   -0.7790 O   0  0  0  0  0  0  0  0  0  0  0  0
    1.1940    0.2020    0.6560 P   0  0  0  0  0  0  0  0  0  0  0  0
    1.8750    1.6310    1.3760 O   0  0  0  0  0  0  0  0  0  0  0  0
    1.5580    2.6800    0.4970 C   0  0  0  0  0  0  0  0  0  0  0  0
    0.1210    3.0490    0.5290 C   0  0  0  0  0  0  0  0  0  0  0  0
   -0.8210    1.9570    0.2390 C   0  0  0  0  0  0  0  0  0  0  0  0
   -0.5370    0.6600    0.2460 C   0  0  0  0  0  0  0  0  0  0  0  0
   -1.5250   -0.3960   -0.0510 C   0  0  0  0  0  0  0  0  0  0  0  0
   -2.8800    0.2360   -0.3460 C   0  0  0  0  0  0  0  0  0  0  0  0
   -3.9170   -0.7880   -0.6580 C   0  0  2  0  0  0  0  0  0  0  0  0
   -4.1420   -1.7640    0.4770 C   0  0  0  0  0  0  0  0  0  0  0  0
   -3.5310   -1.6410   -1.8600 C   0  0  0  0  0  0  0  0  0  0  0  0
   -5.1420   -0.1530   -0.9260 O   0  0  0  0  0  0  0  0  0  0  0  0
   -5.8320    0.6400   -0.0310 C   0  0  0  0  0  0  0  0  0  0  0  0
   -5.3870    0.8390    1.1120 O   0  0  0  0  0  0  0  0  0  0  0  0
   -7.0440    1.2500   -0.3550 O   0  0  0  0  0  0  0  0  0  0  0  0
  1  2  1  0
  2  3  1  0
  3  4  1  6
  3  8  1  0
  4  5  1  0
  5  6  1  0
  6  7  2  0
  8  9  1  0
  9 10  1  0
  9 14  1  0
 10 11  1  0
 11 12  1  0
 12 13  1  0
 13 14  2  0
 14 15  1  0
 15 16  1  0
 16 17  1  0
 17 18  1  1
 17 19  1  0
 17 20  1  0
 20 21  1  0
 21 22  2  0
 21 23  1  0
M  END
