
     RDKit          3D

 24 23  0  0  0  0  0  0  0  0999 V2000
    1.8780   -4.1790   -3.6570 C   0  0  0  0  0  0  0  0  0  0  0  0
    0.7360   -4.1310   -2.9970 C   0  0  0  0  0  0  0  0  0  0  0  0
    0.2830   -2.9180   -2.3690 C   0  0  0  0  0  0  0  0  0  0  0  0
   -0.8520   -2.8760   -1.7160 C   0  0  0  0  0  0  0  0  0  0  0  0
   -1.8270   -4.4470   -1.6450 P   0  0  0  0  0  0  0  0  0  0  0  0
   -3.2700   -4.3670   -2.2350 O   0  0  0  0  0  0  0  0  0  0  0  0
   -1.3540   -1.6620   -1.0830 C   0  0  0  0  0  0  0  0  0  0  0  0
   -2.4880   -1.7060   -0.4470 C   0  0  0  0  0  0  0  0  0  0  0  0
   -3.0880   -0.5540    0.2230 C   0  0  0  0  0  0  0  0  0  0  0  0
   -4.2310   -0.6020    0.8700 C   0  0  0  0  0  0  0  0  0  0  0  0
   -4.7950    0.5880    1.5290 C   0  0  0  0  0  0  0  0  0  0  0  0
   -6.1500    0.8690    0.9020 C   0  0  0  0  0  0  0  0  0  0  0  0
   -0.6070   -0.4980   -1.1780 O   0  0  0  0  0  0  0  0  0  0  0  0
    0.3390   -0.1670   -0.2200 C   0  0  0  0  0  0  0  0  0  0  0  0
    0.4670   -0.9960    0.7340 O   0  0  0  0  0  0  0  0  0  0  0  0
    1.1670    1.0750   -0.2770 C   0  0  0  0  0  0  0  0  0  0  0  0
    1.9950    1.1020    0.8570 O   0  0  0  0  0  0  0  0  0  0  0  0
    2.8790    2.1290    1.0900 C   0  0  0  0  0  0  0  0  0  0  0  0
    2.9160    3.0590    0.2280 O   0  0  0  0  0  0  0  0  0  0  0  0
    3.7200    2.2150    2.1870 O   0  0  0  0  0  0  0  0  0  0  0  0
    4.5980    3.3150    2.3430 C   0  0  0  0  0  0  0  0  0  0  0  0
    5.3780    3.1230    3.6430 C   0  0  0  0  0  0  0  0  0  0  0  0
    6.5520    4.5220    3.9290 P   0  0  0  0  0  0  0  0  0  0  0  0
    6.4500    5.7630    3.0120 O   0  0  0  0  0  0  0  0  0  0  0  0
  1  2  2  0
  2  3  1  0
  3  4  2  3
  4  5  1  0
  4  7  1  0
  5  6  2  0
  7  8  2  3
  7 13  1  0
  8  9  1  0
  9 10  2  3
 10 11  1  0
 11 12  1  0
 13 14  1  0
 14 15  2  0
 14 16  1  0
 16 17  1  0
 17 18  1  0
 18 19  2  0
 18 20  1  0
 20 21  1  0
 21 22  1  0
 22 23  1  0
 23 24  2  0
M  END
