
     RDKit          3D

 27 29  0  0  0  0  0  0  0  0999 V2000
   -4.5810    4.3090    0.4920 N   0  0  0  0  0  0  0  0  0  0  0  0
   -3.6350    3.4010   -0.0670 C   0  0  0  0  0  0  0  0  0  0  0  0
   -3.5050    3.2670   -1.4000 N   0  0  0  0  0  0  0  0  0  0  0  0
   -2.6180    2.4160   -1.9520 C   0  0  0  0  0  0  0  0  0  0  0  0
   -1.8200    1.6570   -1.1780 N   0  0  0  0  0  0  0  0  0  0  0  0
   -1.8870    1.7300    0.1550 C   0  0  0  0  0  0  0  0  0  0  0  0
   -2.8100    2.6170    0.7150 C   0  0  0  0  0  0  0  0  0  0  0  0
   -2.6650    2.4870    2.0300 N   0  0  0  0  0  0  0  0  0  0  0  0
   -1.7170    1.5810    2.3060 C   0  0  0  0  0  0  0  0  0  0  0  0
   -1.2170    1.0960    1.1430 N   0  0  0  0  0  0  0  0  0  0  0  0
   -0.1910    0.1130    1.0450 C   0  0  2  0  0  0  0  0  0  0  0  0
    1.0520    0.6410    0.7090 O   0  0  0  0  0  0  0  0  0  0  0  0
    1.8270   -0.5310    0.6610 C   0  0  2  0  0  0  0  0  0  0  0  0
    3.1650   -0.2000    0.0940 C   0  0  0  0  0  0  0  0  0  0  0  0
    3.9960   -1.2980    0.0090 O   0  0  0  0  0  0  0  0  0  0  0  0
    5.4330   -0.7500   -0.6400 P   0  0  0  0  0  0  0  0  0  0  0  0
    5.5600    0.8580   -0.9530 O   0  0  0  0  0  0  0  0  0  0  0  0
    5.9200   -0.6180    0.8080 O   0  0  0  0  0  0  0  0  0  0  0  0
    4.8670   -1.1500   -2.0180 O   0  0  0  0  0  0  0  0  0  0  0  0
    1.0170   -1.4480   -0.2250 C   0  0  1  0  0  0  0  0  0  0  0  0
    1.1320   -2.7380    0.3120 O   0  0  0  0  0  0  0  0  0  0  0  0
   -0.4080   -0.9150   -0.0220 C   0  0  1  0  0  0  0  0  0  0  0  0
   -1.1930   -1.9160    0.4800 O   0  0  0  0  0  0  0  0  0  0  0  0
   -2.5300   -2.3390   -0.2980 P   0  0  0  0  0  0  0  0  0  0  0  0
   -1.9880   -2.1240   -1.7020 O   0  0  0  0  0  0  0  0  0  0  0  0
   -3.7500   -1.2180   -0.5680 O   0  0  0  0  0  0  0  0  0  0  0  0
   -2.8290   -3.9560   -0.6390 O   0  0  0  0  0  0  0  0  0  0  0  0
  1  2  1  0
  2  3  2  0
  2  7  1  0
  3  4  1  0
  4  5  2  0
  5  6  1  0
  6  7  2  0
  6 10  1  0
  7  8  1  0
  8  9  2  0
  9 10  1  0
 11 10  1  6
 11 12  1  0
 11 22  1  0
 12 13  1  0
 13 14  1  6
 13 20  1  0
 14 15  1  0
 15 16  1  0
 16 17  1  0
 16 18  1  0
 16 19  1  0
 20 21  1  1
 20 22  1  0
 22 23  1  1
 23 24  1  0
 24 25  1  0
 24 26  1  0
 24 27  1  0
M  END
