
     RDKit          3D

 21 21  0  0  0  0  0  0  0  0999 V2000
    2.7700   -0.5600    0.3160 O   0  0  0  0  0  0  0  0  0  0  0  0
    2.7930    0.7320    0.5010 C   0  0  0  0  0  0  0  0  0  0  0  0
    1.6040    1.3240    0.8500 O   0  0  0  0  0  0  0  0  0  0  0  0
    0.4710    0.4460    0.9810 C   0  0  0  0  0  0  0  0  0  0  0  0
    0.4000   -0.1880   -0.2300 O   0  0  0  0  0  0  0  0  0  0  0  0
   -0.5240   -1.0440   -0.2840 O   0  0  0  0  0  0  0  0  0  0  0  0
   -1.6680   -0.7820    0.3750 C   0  0  0  0  0  0  0  0  0  0  0  0
   -2.1860    0.5310   -0.0490 O   0  0  0  0  0  0  0  0  0  0  0  0
   -3.3810    0.5270    0.2410 O   0  0  0  0  0  0  0  0  0  0  0  0
   -4.3700    1.2010   -0.3890 C   0  0  0  0  0  0  0  0  0  0  0  0
   -5.3410   -0.0550   -0.6960 C   0  0  0  0  0  0  0  0  0  0  0  0
   -4.4270   -0.8920   -1.4140 O   0  0  0  0  0  0  0  0  0  0  0  0
   -4.7750   -2.1080   -1.5220 O   0  0  0  0  0  0  0  0  0  0  0  0
   -5.4240   -2.5630   -0.4750 O   0  0  0  0  0  0  0  0  0  0  0  0
    4.0170    1.2960    0.2760 O   0  0  0  0  0  0  0  0  0  0  0  0
    5.1130    0.7820   -0.3240 C   0  0  1  0  0  0  0  0  0  0  0  0
    6.1770    0.3130    0.5280 C   0  0  0  0  0  0  0  0  0  0  0  0
    5.8420   -0.9820    0.9820 O   0  0  0  0  0  0  0  0  0  0  0  0
    5.2890   -1.5330   -0.1110 O   0  0  0  0  0  0  0  0  0  0  0  0
    4.6090   -0.6700   -0.8130 C   0  0  0  0  0  0  0  0  0  0  0  0
    3.6690   -0.7140   -1.6940 O   0  0  0  0  0  0  0  0  0  0  0  0
  1  2  2  0
  2  3  1  0
  2 15  1  0
  3  4  1  0
  4  5  1  0
  5  6  1  0
  6  7  1  0
  7  8  1  0
  8  9  1  0
  9 10  1  0
 10 11  1  0
 11 12  1  0
 12 13  1  0
 13 14  1  0
 16 15  1  1
 16 17  1  0
 16 20  1  0
 17 18  1  0
 18 19  1  0
 19 20  1  0
 20 21  2  0
M  END
