
     RDKit          3D

 27 29  0  0  0  0  0  0  0  0999 V2000
    6.6870   -1.7990   -0.2100 N   0  0  0  0  0  0  0  0  0  0  0  0
    5.4360   -1.2100   -0.4910 C   0  0  0  0  0  0  0  0  0  0  0  0
    5.1740   -0.5120   -1.6080 N   0  0  0  0  0  0  0  0  0  0  0  0
    3.9530    0.0250   -1.8120 C   0  0  0  0  0  0  0  0  0  0  0  0
    2.9710   -0.1230   -0.9040 N   0  0  0  0  0  0  0  0  0  0  0  0
    3.1600   -0.8060    0.2340 C   0  0  0  0  0  0  0  0  0  0  0  0
    4.4240   -1.3570    0.4350 C   0  0  0  0  0  0  0  0  0  0  0  0
    4.3800   -1.9760    1.6060 N   0  0  0  0  0  0  0  0  0  0  0  0
    3.1520   -1.8240    2.1170 C   0  0  0  0  0  0  0  0  0  0  0  0
    2.3840   -1.1010    1.2800 N   0  0  0  0  0  0  0  0  0  0  0  0
    1.0280   -0.7470    1.5010 C   0  0  2  0  0  0  0  0  0  0  0  0
    0.1580   -1.2730    0.5150 O   0  0  0  0  0  0  0  0  0  0  0  0
   -0.9890   -0.5940    0.8360 C   0  0  2  0  0  0  0  0  0  0  0  0
   -2.1880   -0.9440    0.0520 C   0  0  0  0  0  0  0  0  0  0  0  0
   -2.0800   -0.7380   -1.2910 O   0  0  0  0  0  0  0  0  0  0  0  0
   -3.4220   -1.1330   -2.1410 P   0  0  0  0  0  0  0  0  0  0  0  0
   -4.1540   -2.5650   -2.0400 O   0  0  0  0  0  0  0  0  0  0  0  0
   -4.3590   -0.3350   -1.2400 O   0  0  0  0  0  0  0  0  0  0  0  0
   -3.8690   -0.0510   -3.3990 O   0  0  0  0  0  0  0  0  0  0  0  0
   -0.5620    0.8400    0.7550 C   0  0  1  0  0  0  0  0  0  0  0  0
   -1.4700    1.6160    1.4200 O   0  0  0  0  0  0  0  0  0  0  0  0
   -2.0180    2.8330    0.5180 P   0  0  0  0  0  0  0  0  0  0  0  0
   -2.0080    2.7050   -1.1570 O   0  0  0  0  0  0  0  0  0  0  0  0
   -3.4780    2.4120    0.5600 O   0  0  0  0  0  0  0  0  0  0  0  0
   -2.3690    4.3020    1.2280 O   0  0  0  0  0  0  0  0  0  0  0  0
    0.7900    0.7660    1.4520 C   0  0  1  0  0  0  0  0  0  0  0  0
    0.6900    1.1860    2.7810 O   0  0  0  0  0  0  0  0  0  0  0  0
  1  2  1  0
  2  3  2  0
  2  7  1  0
  3  4  1  0
  4  5  2  0
  5  6  1  0
  6  7  2  0
  6 10  1  0
  7  8  1  0
  8  9  2  0
  9 10  1  0
 11 10  1  6
 11 12  1  0
 11 26  1  0
 12 13  1  0
 13 14  1  6
 13 20  1  0
 14 15  1  0
 15 16  1  0
 16 17  1  0
 16 18  1  0
 16 19  1  0
 20 21  1  1
 20 26  1  0
 21 22  1  0
 22 23  1  0
 22 24  1  0
 22 25  1  0
 26 27  1  1
M  END
