
     RDKit          3D

 19 20  0  0  0  0  0  0  0  0999 V2000
   -2.0360   -0.1470    1.2250 C   0  0  0  0  0  0  0  0  0  0  0  0
   -1.4670    0.3110   -0.0640 C   0  0  1  0  0  0  0  0  0  0  0  0
   -0.1530    1.0300    0.0470 C   0  0  0  0  0  0  0  0  0  0  0  0
    0.8770    0.0310   -0.1240 N   0  0  0  0  0  0  0  0  0  0  0  0
    2.2660    0.2560   -0.1460 C   0  0  0  0  0  0  0  0  0  0  0  0
    3.1210   -0.6640   -0.3000 O   0  0  0  0  0  0  0  0  0  0  0  0
    2.8180    1.5430    0.0050 O   0  0  0  0  0  0  0  0  0  0  0  0
    4.1630    1.7440   -0.0180 O   0  0  0  0  0  0  0  0  0  0  0  0
    4.9680    1.1510    0.9440 C   0  0  0  0  0  0  0  0  0  0  0  0
    4.4120    0.4360    1.8160 O   0  0  0  0  0  0  0  0  0  0  0  0
    6.3410    1.2940    1.0050 O   0  0  0  0  0  0  0  0  0  0  0  0
    0.2290   -1.2520   -0.2710 C   0  0  0  0  0  0  0  0  0  0  0  0
   -1.0150   -0.8580   -0.9600 C   0  0  1  0  0  0  0  0  0  0  0  0
   -2.0620   -1.7820   -1.0820 N   0  0  0  0  0  0  0  0  0  0  0  0
   -3.3450   -1.2790   -1.4160 C   0  0  0  0  0  0  0  0  0  0  0  0
   -4.2730   -2.0450   -1.8120 O   0  0  0  0  0  0  0  0  0  0  0  0
   -3.5810    0.1440   -1.2970 N   0  0  0  0  0  0  0  0  0  0  0  0
   -2.5090    0.9950   -0.8440 C   0  0  0  0  0  0  0  0  0  0  0  0
   -2.5290    2.2010   -1.1280 O   0  0  0  0  0  0  0  0  0  0  0  0
  2  1  1  1
  2  3  1  0
  2 13  1  0
  2 18  1  0
  3  4  1  0
  4  5  1  0
  4 12  1  0
  5  6  2  0
  5  7  1  0
  7  8  1  0
  8  9  1  0
  9 10  2  0
  9 11  1  0
 13 12  1  1
 13 14  1  0
 14 15  1  0
 15 16  2  0
 15 17  1  0
 17 18  1  0
 18 19  2  0
M  END
