
     RDKit          3D

 21 21  0  0  0  0  0  0  0  0999 V2000
   -5.0870    1.9060    0.3660 O   0  0  0  0  0  0  0  0  0  0  0  0
   -3.8810    1.5600    0.2690 C   0  0  0  0  0  0  0  0  0  0  0  0
   -3.4600    0.1110    0.2680 C   0  0  0  0  0  0  0  0  0  0  0  0
   -3.1160   -0.2860   -1.0130 O   0  0  0  0  0  0  0  0  0  0  0  0
   -1.9550   -0.8620   -1.4630 C   0  0  0  0  0  0  0  0  0  0  0  0
   -1.5430   -0.4770   -2.5850 O   0  0  0  0  0  0  0  0  0  0  0  0
   -1.2950   -1.7860   -0.7440 O   0  0  0  0  0  0  0  0  0  0  0  0
   -0.7500   -1.7870    0.5260 C   0  0  0  0  0  0  0  0  0  0  0  0
   -0.0680   -0.6390    0.8840 O   0  0  0  0  0  0  0  0  0  0  0  0
    0.9640   -0.2980    0.0540 C   0  0  2  0  0  0  0  0  0  0  0  0
    2.1460   -1.2460    0.1480 C   0  0  0  0  0  0  0  0  0  0  0  0
    3.1060   -0.7510   -0.7620 O   0  0  0  0  0  0  0  0  0  0  0  0
    4.1810   -1.5010   -0.7640 O   0  0  0  0  0  0  0  0  0  0  0  0
    4.8280   -1.4760    0.3650 O   0  0  0  0  0  0  0  0  0  0  0  0
    5.5120   -0.3910    0.5570 O   0  0  0  0  0  0  0  0  0  0  0  0
    1.4600    1.0460    0.4540 C   0  0  0  0  0  0  0  0  0  0  0  0
    2.6910    1.2920    0.6410 O   0  0  0  0  0  0  0  0  0  0  0  0
    0.5750    2.0760    0.6350 O   0  0  0  0  0  0  0  0  0  0  0  0
   -0.5870    2.3150   -0.0990 C   0  0  0  0  0  0  0  0  0  0  0  0
   -1.6750    2.2130    0.7590 O   0  0  0  0  0  0  0  0  0  0  0  0
   -2.8380    2.4800    0.1550 O   0  0  0  0  0  0  0  0  0  0  0  0
  1  2  2  0
  2  3  1  0
  2 21  1  0
  3  4  1  0
  4  5  1  0
  5  6  2  0
  5  7  1  0
  7  8  1  0
  8  9  1  0
  9 10  1  0
 10 11  1  1
 10 16  1  0
 11 12  1  0
 12 13  1  0
 13 14  1  0
 14 15  1  0
 16 17  2  0
 16 18  1  0
 18 19  1  0
 19 20  1  0
 20 21  1  0
M  END
