
     RDKit          3D

 19 20  0  0  0  0  0  0  0  0999 V2000
    2.5730   -1.8620   -1.9830 N   0  0  0  0  0  0  0  0  0  0  0  0
    1.5570   -0.9370   -1.5630 C   0  0  0  0  0  0  0  0  0  0  0  0
    1.3060   -0.9590   -0.0770 C   0  0  2  0  0  0  0  0  0  0  0  0
    2.4810   -0.4760    0.7170 C   0  0  0  0  0  0  0  0  0  0  0  0
    2.8790    0.7980    0.3480 O   0  0  0  0  0  0  0  0  0  0  0  0
    4.2390    1.3410    1.2760 P   0  0  0  0  0  0  0  0  0  0  0  0
    4.4260    3.0520    1.0350 O   0  0  0  0  0  0  0  0  0  0  0  0
    5.6560    0.5650    0.6110 O   0  0  0  0  0  0  0  0  0  0  0  0
    0.8950   -2.2440    0.2870 O   0  0  0  0  0  0  0  0  0  0  0  0
   -0.4690   -2.2440    0.2970 N   0  0  0  0  0  0  0  0  0  0  0  0
   -0.9530   -1.0600    0.2360 C   0  0  0  0  0  0  0  0  0  0  0  0
   -2.3880   -0.6580    0.2240 C   0  0  1  0  0  0  0  0  0  0  0  0
   -2.6180    0.2220    1.4240 C   0  0  0  0  0  0  0  0  0  0  0  0
   -3.9260    0.9180    1.4260 C   0  0  0  0  0  0  0  0  0  0  0  0
   -4.3980    1.3280    0.1450 N   0  0  0  0  0  0  0  0  0  0  0  0
   -3.6330    1.1210   -1.0100 C   0  0  0  0  0  0  0  0  0  0  0  0
   -3.7180    1.8540   -2.0420 O   0  0  0  0  0  0  0  0  0  0  0  0
   -2.6740    0.0140   -1.0720 C   0  0  0  0  0  0  0  0  0  0  0  0
    0.1460   -0.1880    0.1810 O   0  0  0  0  0  0  0  0  0  0  0  0
  1  2  1  0
  3  2  1  6
  3  4  1  0
  3  9  1  0
  3 19  1  0
  4  5  1  0
  5  6  1  0
  6  7  1  0
  6  8  1  0
  9 10  1  0
 10 11  2  0
 12 11  1  6
 11 19  1  0
 12 13  1  0
 12 18  1  0
 13 14  1  0
 14 15  1  0
 15 16  1  0
 16 17  2  0
 16 18  1  0
M  END
