
     RDKit          3D

 21 22  0  0  0  0  0  0  0  0999 V2000
   -7.5160    0.3950   -0.1580 O   0  0  0  0  0  0  0  0  0  0  0  0
   -6.1290   -0.2940   -0.3480 P   0  0  0  0  0  0  0  0  0  0  0  0
   -4.7380    0.7050   -0.4300 O   0  0  0  0  0  0  0  0  0  0  0  0
   -3.5800    0.0500   -0.0110 C   0  0  0  0  0  0  0  0  0  0  0  0
   -2.3750    0.9530   -0.0940 C   0  0  0  0  0  0  0  0  0  0  0  0
   -1.1690    0.2960    0.3350 N   0  0  0  0  0  0  0  0  0  0  0  0
   -0.8360    0.3950    1.7380 C   0  0  0  0  0  0  0  0  0  0  0  0
   -1.5640    1.0310    2.5380 O   0  0  0  0  0  0  0  0  0  0  0  0
    0.3290   -0.2540    2.1290 O   0  0  0  0  0  0  0  0  0  0  0  0
    1.1340   -0.9570    1.2420 C   0  0  0  0  0  0  0  0  0  0  0  0
    1.8740   -1.9150    1.5850 O   0  0  0  0  0  0  0  0  0  0  0  0
    1.0950   -0.5300   -0.1790 C   0  0  2  0  0  0  0  0  0  0  0  0
    1.8570   -1.4690   -1.0770 C   0  0  0  0  0  0  0  0  0  0  0  0
    2.5090   -0.5630   -1.9440 O   0  0  0  0  0  0  0  0  0  0  0  0
    2.8400    0.5260   -1.1640 C   0  0  2  0  0  0  0  0  0  0  0  0
    4.1330    0.3380   -0.4370 C   0  0  0  0  0  0  0  0  0  0  0  0
    4.1340    0.4000    0.8280 O   0  0  0  0  0  0  0  0  0  0  0  0
    5.3220    0.1010   -1.0720 O   0  0  0  0  0  0  0  0  0  0  0  0
    1.7590    0.7580   -0.2490 N   0  0  0  0  0  0  0  0  0  0  0  0
   -0.3360   -0.4260   -0.5600 C   0  0  0  0  0  0  0  0  0  0  0  0
   -0.8360   -0.9260   -1.5980 O   0  0  0  0  0  0  0  0  0  0  0  0
  1  2  2  0
  2  3  1  0
  3  4  1  0
  4  5  1  0
  5  6  1  0
  6  7  1  0
  6 20  1  0
  7  8  2  0
  7  9  1  0
  9 10  1  0
 10 11  2  0
 10 12  1  0
 12 13  1  6
 12 19  1  0
 12 20  1  0
 13 14  1  0
 14 15  1  0
 15 16  1  1
 15 19  1  0
 16 17  2  0
 16 18  1  0
 20 21  2  0
M  END
