
     RDKit          3D

 20 20  0  0  0  0  0  0  0  0999 V2000
    6.2770    0.1580   -0.6940 C   0  0  0  0  0  0  0  0  0  0  0  0
    4.9710   -0.3660   -0.8300 O   0  0  0  0  0  0  0  0  0  0  0  0
    3.9220    0.2510   -0.1990 C   0  0  0  0  0  0  0  0  0  0  0  0
    4.1520    1.2740    0.4890 O   0  0  0  0  0  0  0  0  0  0  0  0
    2.6110   -0.1940   -0.2770 O   0  0  0  0  0  0  0  0  0  0  0  0
    1.5530    0.4350    0.3640 C   0  0  0  0  0  0  0  0  0  0  0  0
    1.8170    1.4560    1.0450 O   0  0  0  0  0  0  0  0  0  0  0  0
    0.2290   -0.0100    0.2880 N   0  0  0  0  0  0  0  0  0  0  0  0
   -0.2280   -1.1570   -0.4470 C   0  0  0  0  0  0  0  0  0  0  0  0
   -1.6450   -0.8630   -0.8610 C   0  0  1  0  0  0  0  0  0  0  0  0
   -2.6340   -2.4220   -0.8590 P   0  0  0  0  0  0  0  0  0  0  0  0
   -4.2160   -2.2140   -1.4750 O   0  0  0  0  0  0  0  0  0  0  0  0
   -2.5610   -3.2720    0.6220 O   0  0  0  0  0  0  0  0  0  0  0  0
   -2.1270    0.1420    0.1500 C   0  0  2  0  0  0  0  0  0  0  0  0
   -2.6980    1.3770   -0.5490 C   0  0  0  0  0  0  0  0  0  0  0  0
   -1.6210    1.9450   -1.3520 N   0  0  0  0  0  0  0  0  0  0  0  0
   -0.9160    0.5780    0.9170 C   0  0  1  0  0  0  0  0  0  0  0  0
   -1.0080    0.2410    2.3610 C   0  0  0  0  0  0  0  0  0  0  0  0
   -0.1450   -0.4840    2.9090 O   0  0  0  0  0  0  0  0  0  0  0  0
   -2.0600    0.7310    3.1170 O   0  0  0  0  0  0  0  0  0  0  0  0
  1  2  1  0
  2  3  1  0
  3  4  2  0
  3  5  1  0
  5  6  1  0
  6  7  2  0
  6  8  1  0
  8  9  1  0
  8 17  1  0
  9 10  1  0
 10 11  1  1
 10 14  1  0
 11 12  1  0
 11 13  1  0
 14 15  1  6
 14 17  1  0
 15 16  1  0
 17 18  1  1
 18 19  2  0
 18 20  1  0
M  END
