
     RDKit          3D

 27 29  0  0  0  0  0  0  0  0999 V2000
    7.5630   -0.5510    0.4110 N   0  0  0  0  0  0  0  0  0  0  0  0
    6.5920    0.4820    0.4780 C   0  0  0  0  0  0  0  0  0  0  0  0
    6.9340    1.7530    0.5810 N   0  0  0  0  0  0  0  0  0  0  0  0
    5.8900    2.6600    0.5320 C   0  0  0  0  0  0  0  0  0  0  0  0
    4.6440    2.2440    0.3930 N   0  0  0  0  0  0  0  0  0  0  0  0
    4.3070    0.9630    0.2880 C   0  0  0  0  0  0  0  0  0  0  0  0
    5.2970    0.0180    0.3330 C   0  0  0  0  0  0  0  0  0  0  0  0
    4.7290   -1.2170    0.1690 N   0  0  0  0  0  0  0  0  0  0  0  0
    3.4150   -0.9860    0.0060 C   0  0  0  0  0  0  0  0  0  0  0  0
    3.1360    0.3010    0.0790 N   0  0  0  0  0  0  0  0  0  0  0  0
    1.8630    0.9700   -0.1950 C   0  0  2  0  0  0  0  0  0  0  0  0
    1.0140    0.6620    0.8460 O   0  0  0  0  0  0  0  0  0  0  0  0
   -0.1800    0.4630    0.3700 C   0  0  2  0  0  0  0  0  0  0  0  0
   -1.0240   -0.5560    1.2650 C   0  0  0  0  0  0  0  0  0  0  0  0
   -2.2960   -0.1960    0.9270 O   0  0  0  0  0  0  0  0  0  0  0  0
   -3.4620   -1.1110    0.4800 P   0  0  0  0  0  0  0  0  0  0  0  0
   -3.9320   -0.7960   -1.1670 O   0  0  0  0  0  0  0  0  0  0  0  0
   -4.0680   -2.4650    1.1640 O   0  0  0  0  0  0  0  0  0  0  0  0
   -4.6080   -0.3190    0.9750 O   0  0  0  0  0  0  0  0  0  0  0  0
   -5.9070    0.2470    0.1770 P   0  0  0  0  0  0  0  0  0  0  0  0
   -6.2560    1.9150    0.2390 O   0  0  0  0  0  0  0  0  0  0  0  0
   -6.8700    0.0480    1.3310 O   0  0  0  0  0  0  0  0  0  0  0  0
   -6.7220   -0.6420   -0.9290 O   0  0  0  0  0  0  0  0  0  0  0  0
    0.1320   -0.4450   -0.9060 C   0  0  1  0  0  0  0  0  0  0  0  0
   -0.8640   -0.4450   -1.8320 O   0  0  0  0  0  0  0  0  0  0  0  0
    1.3320    0.2920   -1.4370 C   0  0  1  0  0  0  0  0  0  0  0  0
    0.9350    1.2900   -2.3060 O   0  0  0  0  0  0  0  0  0  0  0  0
  1  2  1  0
  2  3  2  0
  2  7  1  0
  3  4  1  0
  4  5  2  0
  5  6  1  0
  6  7  2  0
  6 10  1  0
  7  8  1  0
  8  9  2  0
  9 10  1  0
 11 10  1  1
 11 12  1  0
 11 26  1  0
 12 13  1  0
 13 14  1  1
 13 24  1  0
 14 15  1  0
 15 16  1  0
 16 17  1  0
 16 18  1  0
 16 19  1  0
 19 20  1  0
 20 21  1  0
 20 22  1  0
 20 23  1  0
 24 25  1  6
 24 26  1  0
 26 27  1  6
M  END
