
     RDKit          3D

 20 21  0  0  0  0  0  0  0  0999 V2000
   -1.9010   -2.0620   -1.2720 O   0  0  0  0  0  0  0  0  0  0  0  0
   -2.5770   -1.2860   -0.5350 C   0  0  0  0  0  0  0  0  0  0  0  0
   -3.7360   -1.6990    0.1860 N   0  0  0  0  0  0  0  0  0  0  0  0
   -4.7900   -0.7320    0.4770 C   0  0  0  0  0  0  0  0  0  0  0  0
   -4.2360    0.6380    0.6740 C   0  0  2  0  0  0  0  0  0  0  0  0
   -5.2500    1.5760    0.8570 O   0  0  0  0  0  0  0  0  0  0  0  0
   -3.3550    1.0050   -0.4950 C   0  0  0  0  0  0  0  0  0  0  0  0
   -2.1840    0.0730   -0.4050 N   0  0  0  0  0  0  0  0  0  0  0  0
   -0.9040    0.5880   -0.2730 C   0  0  0  0  0  0  0  0  0  0  0  0
   -0.8510    1.8830   -0.3800 O   0  0  0  0  0  0  0  0  0  0  0  0
    0.3450   -0.0710   -0.0380 C   0  0  0  0  0  0  0  0  0  0  0  0
    0.6540   -1.3210    0.1660 C   0  0  0  0  0  0  0  0  0  0  0  0
    2.0520   -1.4450    0.3430 O   0  0  0  0  0  0  0  0  0  0  0  0
    2.5520   -0.1670    0.6630 C   0  0  1  0  0  0  0  0  0  0  0  0
    3.9300   -0.0020    0.0780 C   0  0  0  0  0  0  0  0  0  0  0  0
    4.4520    1.2470    0.3740 O   0  0  0  0  0  0  0  0  0  0  0  0
    6.0490    1.3400   -0.3460 P   0  0  0  0  0  0  0  0  0  0  0  0
    7.2680    1.3340    0.8860 O   0  0  0  0  0  0  0  0  0  0  0  0
    6.2920    0.0870   -1.5050 O   0  0  0  0  0  0  0  0  0  0  0  0
    1.5930    0.6440    0.0130 O   0  0  0  0  0  0  0  0  0  0  0  0
  1  2  2  0
  2  3  1  0
  2  8  1  0
  3  4  1  0
  4  5  1  0
  5  6  1  6
  5  7  1  0
  7  8  1  0
  8  9  1  0
  9 10  2  0
  9 11  1  0
 11 12  2  0
 11 20  1  0
 12 13  1  0
 13 14  1  0
 14 15  1  6
 14 20  1  0
 15 16  1  0
 16 17  1  0
 17 18  1  0
 17 19  1  0
M  END
