
     RDKit          3D

 20 21  0  0  0  0  0  0  0  0999 V2000
   -6.2500   -0.0250   -0.7690 O   0  0  0  0  0  0  0  0  0  0  0  0
   -5.1190    0.3980   -0.4380 C   0  0  0  0  0  0  0  0  0  0  0  0
   -3.8530    0.1150   -1.1520 C   0  0  0  0  0  0  0  0  0  0  0  0
   -2.8500    0.2590   -0.0030 C   0  0  2  0  0  0  0  0  0  0  0  0
   -3.4310    1.4080    0.7520 C   0  0  0  0  0  0  0  0  0  0  0  0
   -4.8180    1.2010    0.6410 O   0  0  0  0  0  0  0  0  0  0  0  0
   -1.5740    0.4570   -0.4430 O   0  0  0  0  0  0  0  0  0  0  0  0
   -0.8320   -0.6790   -0.2160 C   0  0  1  0  0  0  0  0  0  0  0  0
    0.4080   -0.3970    0.5640 C   0  0  0  0  0  0  0  0  0  0  0  0
    0.8110   -1.2420    1.3800 O   0  0  0  0  0  0  0  0  0  0  0  0
    1.0900    0.8120    0.3650 N   0  0  0  0  0  0  0  0  0  0  0  0
    2.2840    1.1210    1.0820 C   0  0  0  0  0  0  0  0  0  0  0  0
    3.4230    0.1460    0.7970 C   0  0  0  0  0  0  0  0  0  0  0  0
    3.6970    0.1810   -0.5750 O   0  0  0  0  0  0  0  0  0  0  0  0
    4.9650   -0.8250   -1.0910 P   0  0  0  0  0  0  0  0  0  0  0  0
    5.4930   -1.9540    0.0750 O   0  0  0  0  0  0  0  0  0  0  0  0
    6.3640    0.1390   -1.5640 O   0  0  0  0  0  0  0  0  0  0  0  0
   -1.6360   -1.6460    0.4820 N   0  0  0  0  0  0  0  0  0  0  0  0
   -2.8410   -0.9540    0.8440 C   0  0  0  0  0  0  0  0  0  0  0  0
   -3.7040   -1.2700    1.6780 O   0  0  0  0  0  0  0  0  0  0  0  0
  1  2  2  0
  2  3  1  0
  2  6  1  0
  4  3  1  6
  4  5  1  0
  4  7  1  0
  4 19  1  0
  5  6  1  0
  7  8  1  0
  8  9  1  1
  8 18  1  0
  9 10  2  0
  9 11  1  0
 11 12  1  0
 12 13  1  0
 13 14  1  0
 14 15  1  0
 15 16  1  0
 15 17  1  0
 18 19  1  0
 19 20  2  0
M  END
