
     RDKit          3D

 20 21  0  0  0  0  0  0  0  0999 V2000
    3.2310   -0.1420   -3.0920 N   0  0  0  0  0  0  0  0  0  0  0  0
    2.7530    0.1210   -1.9230 C   0  0  0  0  0  0  0  0  0  0  0  0
    1.4540   -0.4180   -1.6010 N   0  0  0  0  0  0  0  0  0  0  0  0
    0.9340   -0.6550   -0.4450 C   0  0  0  0  0  0  0  0  0  0  0  0
   -0.4300   -1.2140   -0.4330 C   0  0  0  0  0  0  0  0  0  0  0  0
   -1.1640   -1.4920   -1.4950 C   0  0  0  0  0  0  0  0  0  0  0  0
   -2.4090   -2.0110   -1.0950 O   0  0  0  0  0  0  0  0  0  0  0  0
   -2.5290   -1.8440    0.2920 C   0  0  2  0  0  0  0  0  0  0  0  0
   -3.3910   -0.6890    0.6810 C   0  0  0  0  0  0  0  0  0  0  0  0
   -4.6950   -0.8030    0.2060 O   0  0  0  0  0  0  0  0  0  0  0  0
   -5.6920    0.5110    0.6440 P   0  0  0  0  0  0  0  0  0  0  0  0
   -4.8070    1.9600    0.9630 O   0  0  0  0  0  0  0  0  0  0  0  0
   -6.9920    0.7770   -0.4660 O   0  0  0  0  0  0  0  0  0  0  0  0
   -1.1970   -1.5510    0.6710 O   0  0  0  0  0  0  0  0  0  0  0  0
    1.5360   -0.4330    0.7860 O   0  0  0  0  0  0  0  0  0  0  0  0
    2.9030   -0.0950    1.0350 C   0  0  0  0  0  0  0  0  0  0  0  0
    3.2750    1.1990    0.3190 C   0  0  1  0  0  0  0  0  0  0  0  0
    4.5390    1.7570    0.9100 C   0  0  0  0  0  0  0  0  0  0  0  0
    5.5420    0.7920    0.7850 O   0  0  0  0  0  0  0  0  0  0  0  0
    3.5010    0.8940   -1.0570 O   0  0  0  0  0  0  0  0  0  0  0  0
  1  2  2  0
  2  3  1  0
  2 20  1  0
  3  4  2  0
  4  5  1  0
  4 15  1  0
  5  6  2  0
  5 14  1  0
  6  7  1  0
  7  8  1  0
  8  9  1  6
  8 14  1  0
  9 10  1  0
 10 11  1  0
 11 12  1  0
 11 13  1  0
 15 16  1  0
 16 17  1  0
 17 18  1  1
 17 20  1  0
 18 19  1  0
M  END
