
     RDKit          3D

 41 44  0  0  0  0  0  0  0  0999 V2000
    8.5970    1.1380   -0.8800 C   0  0  0  0  0  0  0  0  0  0  0  0
    7.1330    0.0820   -0.8860 S   0  0  0  0  0  0  0  0  0  0  0  0
    5.7240    1.0720   -0.3160 C   0  0  0  0  0  0  0  0  0  0  0  0
    5.9220    2.3100    0.0020 C   0  0  0  0  0  0  0  0  0  0  0  0
    4.9660    3.2610    0.4700 C   0  0  0  0  0  0  0  0  0  0  0  0
    5.0800    4.4960    0.8030 C   0  0  0  0  0  0  0  0  0  0  0  0
    6.2060    5.3950    0.8360 C   0  0  0  0  0  0  0  0  0  0  0  0
    7.7410    4.6880    0.3230 S   0  0  0  0  0  0  0  0  0  0  0  0
    8.2590    5.2970   -0.9720 O   0  0  0  0  0  0  0  0  0  0  0  0
    4.4630    0.3870   -0.2590 C   0  0  0  0  0  0  0  0  0  0  0  0
    4.2160   -0.9590   -0.5950 C   0  0  0  0  0  0  0  0  0  0  0  0
    2.8870   -1.2320   -0.4080 C   0  0  0  0  0  0  0  0  0  0  0  0
    2.3570   -0.0820    0.0270 N   0  0  0  0  0  0  0  0  0  0  0  0
    3.2720    0.8510    0.1110 N   0  0  0  0  0  0  0  0  0  0  0  0
    0.9570   -0.3350    0.2330 C   0  0  0  0  0  0  0  0  0  0  0  0
    0.1420    0.5370    0.6450 O   0  0  0  0  0  0  0  0  0  0  0  0
    0.6560   -1.7170   -0.1020 C   0  0  0  0  0  0  0  0  0  0  0  0
   -0.6110   -2.4330   -0.0530 C   0  0  0  0  0  0  0  0  0  0  0  0
   -1.6990   -1.8220    0.3380 C   0  0  0  0  0  0  0  0  0  0  0  0
   -2.9660   -2.5500    0.3840 C   0  0  0  0  0  0  0  0  0  0  0  0
   -4.0520   -1.9530    0.7710 C   0  0  0  0  0  0  0  0  0  0  0  0
   -4.0950   -0.5750    1.1720 N   0  0  0  0  0  0  0  0  0  0  0  0
   -4.9280    0.3730    0.4760 C   0  0  0  0  0  0  0  0  0  0  0  0
   -5.5960   -0.0570   -0.4750 O   0  0  0  0  0  0  0  0  0  0  0  0
   -4.9850    1.7310    0.8560 N   0  0  0  0  0  0  0  0  0  0  0  0
   -5.7570    2.7260    0.2390 C   0  0  0  0  0  0  0  0  0  0  0  0
   -6.4630    2.5790   -0.9140 C   0  0  0  0  0  0  0  0  0  0  0  0
   -7.2240    3.6310   -1.4590 C   0  0  0  0  0  0  0  0  0  0  0  0
   -7.2770    4.8540   -0.8340 C   0  0  0  0  0  0  0  0  0  0  0  0
   -6.5670    5.0200    0.3350 C   0  0  0  0  0  0  0  0  0  0  0  0
   -6.6200    6.3470    1.0200 C   0  0  0  0  0  0  0  0  0  0  0  0
   -5.8320    3.9790    0.8470 C   0  0  0  0  0  0  0  0  0  0  0  0
   -0.6920   -3.7650   -0.4160 O   0  0  0  0  0  0  0  0  0  0  0  0
   -0.4860   -4.7020    0.6530 C   0  0  0  0  0  0  0  0  0  0  0  0
   -0.5930   -6.1030    0.1750 C   0  0  0  0  0  0  0  0  0  0  0  0
   -1.8120   -6.7290    0.1960 C   0  0  0  0  0  0  0  0  0  0  0  0
   -1.9950   -8.0260   -0.2280 C   0  0  0  0  0  0  0  0  0  0  0  0
   -0.8780   -8.6940   -0.6900 C   0  0  0  0  0  0  0  0  0  0  0  0
    0.3530   -8.0670   -0.7140 C   0  0  0  0  0  0  0  0  0  0  0  0
    0.5160   -6.7630   -0.2820 C   0  0  0  0  0  0  0  0  0  0  0  0
    1.8400   -2.2360   -0.4860 C   0  0  0  0  0  0  0  0  0  0  0  0
  1  2  1  0
  2  3  1  0
  3  4  2  3
  3 10  1  0
  4  5  1  0
  5  6  2  3
  6  7  1  0
  7  8  1  0
  8  9  2  0
 10 11  1  0
 10 14  2  0
 11 12  2  0
 12 13  1  0
 12 41  1  0
 13 14  1  0
 13 15  1  0
 15 16  2  0
 15 17  1  0
 17 18  1  0
 17 41  2  0
 18 19  2  3
 18 33  1  0
 19 20  1  0
 20 21  2  3
 21 22  1  0
 22 23  1  0
 23 24  2  0
 23 25  1  0
 25 26  1  0
 26 27  2  0
 26 32  1  0
 27 28  1  0
 28 29  2  0
 29 30  1  0
 30 31  1  0
 30 32  2  0
 33 34  1  0
 34 35  1  0
 35 36  2  0
 35 40  1  0
 36 37  1  0
 37 38  2  0
 38 39  1  0
 39 40  2  0
M  END
