
     RDKit          3D

 41 42  0  0  0  0  0  0  0  0999 V2000
   -6.8010    1.1790    3.5540 C   0  0  0  0  0  0  0  0  0  0  0  0
   -5.9260   -0.0450    3.5960 C   0  0  0  0  0  0  0  0  0  0  0  0
   -5.6100   -0.5050    4.7070 O   0  0  0  0  0  0  0  0  0  0  0  0
   -5.4760   -0.6380    2.4110 N   0  0  0  0  0  0  0  0  0  0  0  0
   -4.5990   -1.8160    2.3470 C   0  0  2  0  0  0  0  0  0  0  0  0
   -3.5810   -1.6750    1.2290 C   0  0  0  0  0  0  0  0  0  0  0  0
   -3.6090   -2.5220    0.2990 O   0  0  0  0  0  0  0  0  0  0  0  0
   -2.6420   -0.6440    1.1810 N   0  0  0  0  0  0  0  0  0  0  0  0
   -1.7120   -0.5200    0.0090 C   0  0  1  0  0  0  0  0  0  0  0  0
   -2.6400   -0.1370   -1.0720 C   0  0  0  0  0  0  0  0  0  0  0  0
   -2.3400    0.1680   -2.4280 C   0  0  0  0  0  0  0  0  0  0  0  0
   -2.1370   -0.7850   -3.4100 C   0  0  0  0  0  0  0  0  0  0  0  0
   -2.0050   -0.4370   -4.7460 C   0  0  0  0  0  0  0  0  0  0  0  0
   -2.0760    0.8870   -5.1330 C   0  0  0  0  0  0  0  0  0  0  0  0
   -2.2790    1.8390   -4.1580 C   0  0  0  0  0  0  0  0  0  0  0  0
   -2.4060    1.5050   -2.8380 C   0  0  0  0  0  0  0  0  0  0  0  0
   -0.5920    0.3850    0.3990 C   0  0  1  0  0  0  0  0  0  0  0  0
   -0.0360   -0.2560    1.5640 O   0  0  0  0  0  0  0  0  0  0  0  0
    0.5340    0.2780   -0.6140 C   0  0  0  0  0  0  0  0  0  0  0  0
    1.8120    0.8430   -0.0910 N   0  0  2  0  0  0  0  0  0  0  0  0
    2.2370    1.9460   -0.8760 C   0  0  0  0  0  0  0  0  0  0  0  0
    2.1660    3.3210   -0.1800 C   0  0  1  0  0  0  0  0  0  0  0  0
    3.0760    3.3700    0.9990 C   0  0  0  0  0  0  0  0  0  0  0  0
    3.1090    4.7410    1.6180 C   0  0  0  0  0  0  0  0  0  0  0  0
    3.0370    5.8810    0.6610 C   0  0  0  0  0  0  0  0  0  0  0  0
    3.4930    5.4170   -0.6970 C   0  0  0  0  0  0  0  0  0  0  0  0
    2.5360    4.3690   -1.1750 C   0  0  0  0  0  0  0  0  0  0  0  0
    2.6960   -0.2580   -0.0220 N   0  0  0  0  0  0  0  0  0  0  0  0
    3.8230   -0.5450   -0.8090 C   0  0  0  0  0  0  0  0  0  0  0  0
    4.1710    0.2500   -1.7120 O   0  0  0  0  0  0  0  0  0  0  0  0
    4.6150   -1.7390   -0.6010 C   0  0  1  0  0  0  0  0  0  0  0  0
    5.1700   -1.8540    0.7310 N   0  0  0  0  0  0  0  0  0  0  0  0
    4.5440   -2.8300    1.5810 C   0  0  0  0  0  0  0  0  0  0  0  0
    4.9520   -3.1010    2.9600 C   0  0  0  0  0  0  0  0  0  0  0  0
    3.5760   -3.5270    1.1400 O   0  0  0  0  0  0  0  0  0  0  0  0
    4.2800   -3.0180   -1.2870 C   0  0  1  0  0  0  0  0  0  0  0  0
    4.2780   -2.7200   -2.8320 C   0  0  0  0  0  0  0  0  0  0  0  0
    5.6000   -3.8760   -1.1080 C   0  0  0  0  0  0  0  0  0  0  0  0
   -5.6130   -2.8210    1.6180 C   0  0  2  0  0  0  0  0  0  0  0  0
   -5.9450   -2.1500    0.2870 C   0  0  0  0  0  0  0  0  0  0  0  0
   -6.8230   -3.0400    2.4280 C   0  0  0  0  0  0  0  0  0  0  0  0
  1  2  1  0
  2  3  2  0
  2  4  1  0
  5  4  1  6
  5  6  1  0
  5 39  1  0
  6  7  2  0
  6  8  1  0
  8  9  1  0
  9 10  1  6
  9 17  1  0
 10 11  1  0
 11 12  2  0
 11 16  1  0
 12 13  1  0
 13 14  2  0
 14 15  1  0
 15 16  2  0
 17 18  1  1
 17 19  1  0
 20 19  1  6
 20 21  1  0
 20 28  1  0
 22 21  1  6
 22 23  1  0
 22 27  1  0
 23 24  1  0
 24 25  1  0
 25 26  1  0
 26 27  1  0
 28 29  1  0
 29 30  2  0
 29 31  1  0
 31 32  1  1
 31 36  1  0
 32 33  1  0
 33 34  1  0
 33 35  2  0
 36 37  1  6
 36 38  1  0
 39 40  1  6
 39 41  1  0
M  CHG  1  20   1
M  END
