
     RDKit          3D

 41 45  0  0  0  0  0  0  0  0999 V2000
   -0.3260   -2.6570    0.9040 C   0  0  0  0  0  0  0  0  0  0  0  0
   -1.7440   -2.3150    0.6540 C   0  0  0  0  0  0  0  0  0  0  0  0
   -2.7600   -3.1990    0.9280 C   0  0  0  0  0  0  0  0  0  0  0  0
   -4.0850   -2.8910    0.7010 C   0  0  0  0  0  0  0  0  0  0  0  0
   -4.4310   -1.6680    0.1870 C   0  0  0  0  0  0  0  0  0  0  0  0
   -5.8460   -1.3200   -0.0660 C   0  0  0  0  0  0  0  0  0  0  0  0
   -6.2880   -0.1810   -0.5480 C   0  0  0  0  0  0  0  0  0  0  0  0
   -7.6990   -0.1960   -0.6590 N   0  0  0  0  0  0  0  0  0  0  0  0
   -8.1970   -1.4200   -0.1260 C   0  0  0  0  0  0  0  0  0  0  0  0
   -6.9770   -2.2260    0.1920 C   0  0  0  0  0  0  0  0  0  0  0  0
   -3.4230   -0.7620   -0.0960 C   0  0  0  0  0  0  0  0  0  0  0  0
   -2.1020   -1.0610    0.1270 C   0  0  0  0  0  0  0  0  0  0  0  0
   -1.0150   -0.1660   -0.1520 N   0  0  0  0  0  0  0  0  0  0  0  0
   -1.1820    1.1320   -0.6690 C   0  0  0  0  0  0  0  0  0  0  0  0
   -2.3250    1.5210   -0.8900 O   0  0  0  0  0  0  0  0  0  0  0  0
   -0.0040    2.0030   -0.9370 C   0  0  0  0  0  0  0  0  0  0  0  0
    1.2600    1.4280   -0.6390 N   0  0  0  0  0  0  0  0  0  0  0  0
    2.5450    1.9540   -0.7590 C   0  0  0  0  0  0  0  0  0  0  0  0
    2.6800    3.1120   -1.2090 O   0  0  0  0  0  0  0  0  0  0  0  0
    3.8010    1.2610   -0.3920 C   0  0  0  0  0  0  0  0  0  0  0  0
    4.0870    0.1060    0.1360 C   0  0  0  0  0  0  0  0  0  0  0  0
    3.1670   -0.9630    0.5790 C   0  0  0  0  0  0  0  0  0  0  0  0
    3.8160   -2.0190    1.4360 C   0  0  1  0  0  0  0  0  0  0  0  0
    3.7770   -1.5160    2.8840 C   0  0  0  0  0  0  0  0  0  0  0  0
    2.9940   -3.3000    1.4270 C   0  0  0  0  0  0  0  0  0  0  0  0
    5.1920   -2.3400    1.0910 C   0  0  0  0  0  0  0  0  0  0  0  0
    6.0620   -1.1690    0.7100 C   0  0  0  0  0  0  0  0  0  0  0  0
    7.8250   -1.3630    0.8870 S   0  0  0  0  0  0  0  0  0  0  0  0
    8.7880   -0.0710    0.5560 F   0  0  0  0  0  0  0  0  0  0  0  0
    5.5310   -0.0740    0.2760 C   0  0  0  0  0  0  0  0  0  0  0  0
    6.0940    1.1900   -0.2570 C   0  0  0  0  0  0  0  0  0  0  0  0
    7.3090    1.4870   -0.3330 O   0  0  0  0  0  0  0  0  0  0  0  0
    5.0100    1.9360   -0.6360 O   0  0  0  0  0  0  0  0  0  0  0  0
   -0.2020    3.2020   -1.4080 C   0  0  0  0  0  0  0  0  0  0  0  0
   -1.5300    3.7340   -1.6850 C   0  0  0  0  0  0  0  0  0  0  0  0
   -1.7100    4.9890   -2.1770 C   0  0  0  0  0  0  0  0  0  0  0  0
   -0.5780    5.8430   -2.4430 C   0  0  0  0  0  0  0  0  0  0  0  0
    0.6580    5.3780   -2.1960 C   0  0  0  0  0  0  0  0  0  0  0  0
    1.7690    6.2650   -2.4760 C   0  0  0  0  0  0  0  0  0  0  0  0
    2.9820    5.9700   -2.2950 O   0  0  0  0  0  0  0  0  0  0  0  0
    0.8190    4.0990   -1.6960 O   0  0  0  0  0  0  0  0  0  0  0  0
  1  2  1  0
  2  3  2  0
  2 12  1  0
  3  4  1  0
  4  5  2  0
  5  6  1  0
  5 11  1  0
  6  7  2  0
  6 10  1  0
  7  8  1  0
  8  9  1  0
  9 10  1  0
 11 12  2  0
 12 13  1  0
 13 14  1  0
 14 15  2  0
 14 16  1  0
 16 17  1  0
 16 34  2  3
 17 18  1  0
 18 19  2  0
 18 20  1  0
 20 21  2  0
 20 33  1  0
 21 22  1  0
 21 30  1  0
 22 23  1  0
 23 24  1  1
 23 25  1  0
 23 26  1  0
 26 27  1  0
 27 28  1  0
 27 30  2  0
 28 29  1  0
 30 31  1  0
 31 32  2  0
 31 33  1  0
 34 35  1  0
 34 41  1  0
 35 36  2  0
 36 37  1  0
 37 38  2  0
 38 39  1  0
 38 41  1  0
 39 40  2  0
M  END
