
     RDKit          3D

 41 45  0  0  0  0  0  0  0  0999 V2000
   -9.7740    2.8390    0.7230 C   0  0  0  0  0  0  0  0  0  0  0  0
   -9.6980    1.6830   -0.0710 O   0  0  0  0  0  0  0  0  0  0  0  0
   -8.5430    0.9230   -0.0740 C   0  0  0  0  0  0  0  0  0  0  0  0
   -7.4390    1.2490    0.6780 C   0  0  0  0  0  0  0  0  0  0  0  0
   -6.2980    0.4350    0.6300 C   0  0  0  0  0  0  0  0  0  0  0  0
   -6.2410   -0.6890   -0.1500 C   0  0  0  0  0  0  0  0  0  0  0  0
   -5.1450   -1.5750   -0.2500 N   0  0  0  0  0  0  0  0  0  0  0  0
   -4.0090   -1.5920    0.5820 C   0  0  0  0  0  0  0  0  0  0  0  0
   -3.9160   -0.7690    1.5160 O   0  0  0  0  0  0  0  0  0  0  0  0
   -2.9130   -2.6070    0.3410 C   0  0  2  0  0  0  0  0  0  0  0  0
   -3.4490   -3.9910    0.5410 C   0  0  0  0  0  0  0  0  0  0  0  0
   -1.7310   -2.2600    1.1770 C   0  0  0  0  0  0  0  0  0  0  0  0
   -1.2390   -0.9160    0.8050 C   0  0  0  0  0  0  0  0  0  0  0  0
   -0.3080   -0.7230   -0.1750 N   0  0  0  0  0  0  0  0  0  0  0  0
   -0.0550    0.5670   -0.2880 N   0  0  0  0  0  0  0  0  0  0  0  0
   -0.8010    1.2450    0.6010 C   0  0  0  0  0  0  0  0  0  0  0  0
   -0.8310    2.7230    0.8160 C   0  0  0  0  0  0  0  0  0  0  0  0
    0.4380    3.0950    2.0760 S   0  0  0  0  0  0  0  0  0  0  0  0
    2.0250    2.7290    1.3770 C   0  0  0  0  0  0  0  0  0  0  0  0
    2.5720    1.4840    1.5040 C   0  0  0  0  0  0  0  0  0  0  0  0
    3.8260    1.1980    0.9500 C   0  0  0  0  0  0  0  0  0  0  0  0
    4.5140    2.1960    0.2660 C   0  0  0  0  0  0  0  0  0  0  0  0
    5.7520    1.9780   -0.3020 O   0  0  0  0  0  0  0  0  0  0  0  0
    6.3880    0.7420   -0.2240 C   0  0  0  0  0  0  0  0  0  0  0  0
    7.7170    0.7610   -0.9180 C   0  0  0  0  0  0  0  0  0  0  0  0
    8.1020    1.9220   -1.4990 C   0  0  0  0  0  0  0  0  0  0  0  0
    9.2920    2.0780   -2.1650 C   0  0  0  0  0  0  0  0  0  0  0  0
   10.1230    0.9540   -2.2260 C   0  0  0  0  0  0  0  0  0  0  0  0
    9.7020   -0.2180   -1.6220 C   0  0  0  0  0  0  0  0  0  0  0  0
   10.4650   -1.8460   -1.4820 S   0  0  0  0  0  0  0  0  0  0  0  0
    9.1600   -2.6020   -0.5590 C   0  0  0  0  0  0  0  0  0  0  0  0
    9.1660   -3.9970   -0.1030 C   0  0  0  0  0  0  0  0  0  0  0  0
    8.2620   -1.6030   -0.4230 C   0  0  0  0  0  0  0  0  0  0  0  0
    8.5290   -0.3960   -0.9570 C   0  0  0  0  0  0  0  0  0  0  0  0
    3.9640    3.4500    0.1370 C   0  0  0  0  0  0  0  0  0  0  0  0
    2.7140    3.7020    0.7000 C   0  0  0  0  0  0  0  0  0  0  0  0
   -1.5190    0.3050    1.2580 N   0  0  0  0  0  0  0  0  0  0  0  0
   -7.3990   -0.9660   -0.8930 C   0  0  0  0  0  0  0  0  0  0  0  0
   -8.5260   -0.2060   -0.8770 C   0  0  0  0  0  0  0  0  0  0  0  0
   -9.6610   -0.5230   -1.6370 O   0  0  0  0  0  0  0  0  0  0  0  0
   -9.6430   -1.6740   -2.4540 C   0  0  0  0  0  0  0  0  0  0  0  0
  1  2  1  0
  2  3  1  0
  3  4  2  0
  3 39  1  0
  4  5  1  0
  5  6  2  0
  6  7  1  0
  6 38  1  0
  7  8  1  0
  8  9  2  0
  8 10  1  0
 10 11  1  1
 10 12  1  0
 12 13  1  0
 13 14  2  0
 13 37  1  0
 14 15  1  0
 15 16  1  0
 16 17  1  0
 16 37  2  0
 17 18  1  0
 18 19  1  0
 19 20  2  0
 19 36  1  0
 20 21  1  0
 21 22  2  0
 22 23  1  0
 22 35  1  0
 23 24  1  0
 24 25  1  0
 25 26  2  0
 25 34  1  0
 26 27  1  0
 27 28  2  0
 28 29  1  0
 29 30  1  0
 29 34  2  0
 30 31  1  0
 31 32  1  0
 31 33  2  0
 33 34  1  0
 35 36  2  0
 38 39  2  0
 39 40  1  0
 40 41  1  0
M  END
