
     RDKit          3D

 41 45  0  0  0  0  0  0  0  0999 V2000
   -6.9210   -5.1760    1.8990 C   0  0  0  0  0  0  0  0  0  0  0  0
   -6.1850   -4.5540    0.9420 O   0  0  0  0  0  0  0  0  0  0  0  0
   -4.7970   -4.3530    0.9750 C   0  0  0  0  0  0  0  0  0  0  0  0
   -3.9230   -4.8130    1.8570 C   0  0  0  0  0  0  0  0  0  0  0  0
   -2.5690   -4.4750    1.7820 C   0  0  0  0  0  0  0  0  0  0  0  0
   -2.1990   -3.6340    0.7630 C   0  0  0  0  0  0  0  0  0  0  0  0
   -0.4900   -2.9910    0.9170 S   0  0  0  0  0  0  0  0  0  0  0  0
   -0.8220   -1.1620    0.9110 C   0  0  0  0  0  0  0  0  0  0  0  0
   -1.7420   -0.4800    1.5430 N   0  0  0  0  0  0  0  0  0  0  0  0
   -1.7710    0.7810    1.0810 N   0  0  0  0  0  0  0  0  0  0  0  0
   -0.8460    0.9170    0.1370 C   0  0  0  0  0  0  0  0  0  0  0  0
   -0.3400    2.1040   -1.0630 S   0  0  0  0  0  0  0  0  0  0  0  0
    0.7530    3.3210   -0.3210 C   0  0  0  0  0  0  0  0  0  0  0  0
   -0.0690    4.5050   -0.0450 C   0  0  0  0  0  0  0  0  0  0  0  0
   -1.3440    4.4030   -0.1940 O   0  0  0  0  0  0  0  0  0  0  0  0
    0.4050    5.7960    0.3600 N   0  0  0  0  0  0  0  0  0  0  0  0
   -0.5810    6.8000    0.4180 C   0  0  0  0  0  0  0  0  0  0  0  0
   -0.5250    7.9600   -0.2930 C   0  0  0  0  0  0  0  0  0  0  0  0
   -1.7130    8.7730   -0.0020 C   0  0  0  0  0  0  0  0  0  0  0  0
   -2.5020    7.9650    0.9500 C   0  0  0  0  0  0  0  0  0  0  0  0
   -1.8020    6.8470    1.1490 C   0  0  0  0  0  0  0  0  0  0  0  0
   -0.2510   -0.3690    0.0560 N   0  0  0  0  0  0  0  0  0  0  0  0
    0.7600   -0.5650   -0.8900 C   0  0  0  0  0  0  0  0  0  0  0  0
    0.2890   -0.5970   -2.2380 C   0  0  0  0  0  0  0  0  0  0  0  0
    1.2010   -0.6670   -3.2130 C   0  0  0  0  0  0  0  0  0  0  0  0
    2.5220   -0.7060   -2.8980 C   0  0  0  0  0  0  0  0  0  0  0  0
    2.9580   -0.6740   -1.6320 C   0  0  0  0  0  0  0  0  0  0  0  0
    2.0460   -0.6040   -0.5250 C   0  0  0  0  0  0  0  0  0  0  0  0
    2.6360   -0.3630    0.7590 C   0  0  0  0  0  0  0  0  0  0  0  0
    3.7940   -0.9230    1.1530 C   0  0  0  0  0  0  0  0  0  0  0  0
    4.4380   -1.9030    0.3040 C   0  0  0  0  0  0  0  0  0  0  0  0
    3.8190   -2.6190   -0.4910 O   0  0  0  0  0  0  0  0  0  0  0  0
    5.8900   -1.9860    0.3840 C   0  0  0  0  0  0  0  0  0  0  0  0
    6.7690   -1.2650    1.0160 C   0  0  0  0  0  0  0  0  0  0  0  0
    8.1210   -1.7710    0.7220 C   0  0  0  0  0  0  0  0  0  0  0  0
    7.9020   -2.9760   -0.1120 C   0  0  0  0  0  0  0  0  0  0  0  0
    6.5780   -3.0600   -0.3030 C   0  0  0  0  0  0  0  0  0  0  0  0
   -3.0890   -3.1400   -0.1820 C   0  0  0  0  0  0  0  0  0  0  0  0
   -4.3470   -3.4670   -0.1250 C   0  0  0  0  0  0  0  0  0  0  0  0
   -5.4240   -3.1610   -0.8530 O   0  0  0  0  0  0  0  0  0  0  0  0
   -5.7720   -2.3230   -1.9490 C   0  0  0  0  0  0  0  0  0  0  0  0
  1  2  1  0
  2  3  1  0
  3  4  2  0
  3 39  1  0
  4  5  1  0
  5  6  2  0
  6  7  1  0
  6 38  1  0
  7  8  1  0
  8  9  2  0
  8 22  1  0
  9 10  1  0
 10 11  2  0
 11 12  1  0
 11 22  1  0
 12 13  1  0
 13 14  1  0
 14 15  2  0
 14 16  1  0
 16 17  1  0
 17 18  2  0
 17 21  1  0
 18 19  1  0
 19 20  1  0
 20 21  2  0
 22 23  1  0
 23 24  2  0
 23 28  1  0
 24 25  1  0
 25 26  2  0
 26 27  1  0
 27 28  2  0
 28 29  1  0
 29 30  2  3
 30 31  1  0
 31 32  2  0
 31 33  1  0
 33 34  2  0
 33 37  1  0
 34 35  1  0
 35 36  1  0
 36 37  2  0
 38 39  2  0
 39 40  1  0
 40 41  1  0
M  END
