
     RDKit          3D

 41 45  0  0  0  0  0  0  0  0999 V2000
   -9.3780    0.5010   -1.8670 C   0  0  0  0  0  0  0  0  0  0  0  0
  -10.1360    1.3100   -0.8310 C   0  0  0  0  0  0  0  0  0  0  0  0
   -9.2670    1.5510    0.4270 C   0  0  0  0  0  0  0  0  0  0  0  0
   -8.7050    0.2290    0.7960 C   0  0  0  0  0  0  0  0  0  0  0  0
   -9.5900   -1.1070    1.6620 S   0  0  0  0  0  0  0  0  0  0  0  0
   -8.1740   -2.2960    1.4990 C   0  0  0  0  0  0  0  0  0  0  0  0
   -8.1840   -3.6060    1.8540 C   0  0  0  0  0  0  0  0  0  0  0  0
   -8.1730   -4.8850    2.2120 N   0  0  0  0  0  0  0  0  0  0  0  0
   -7.3320   -1.5080    0.8430 C   0  0  0  0  0  0  0  0  0  0  0  0
   -7.4550   -0.3220    0.4620 C   0  0  0  0  0  0  0  0  0  0  0  0
   -6.3590    0.4420   -0.3270 C   0  0  0  0  0  0  0  0  0  0  0  0
   -5.2990    0.9620    0.5320 C   0  0  1  0  0  0  0  0  0  0  0  0
   -5.5750    1.9630    1.5560 C   0  0  0  0  0  0  0  0  0  0  0  0
   -4.4180   -0.4850    1.2400 S   0  0  0  0  0  0  0  0  0  0  0  0
   -3.0560   -0.9110    0.0620 C   0  0  0  0  0  0  0  0  0  0  0  0
   -2.9820   -0.2930   -1.1240 C   0  0  0  0  0  0  0  0  0  0  0  0
   -1.6890   -0.2140   -1.7900 C   0  0  0  0  0  0  0  0  0  0  0  0
   -0.6960   -0.7880   -1.1420 C   0  0  0  0  0  0  0  0  0  0  0  0
    0.6930   -0.3380   -1.4440 N   0  0  0  0  0  0  0  0  0  0  0  0
    1.0530    0.6650   -0.4800 C   0  0  0  0  0  0  0  0  0  0  0  0
    0.0230    1.0100    0.3400 O   0  0  0  0  0  0  0  0  0  0  0  0
    2.1930    1.3950   -0.1340 C   0  0  0  0  0  0  0  0  0  0  0  0
    3.4950    1.0830   -0.4210 O   0  0  0  0  0  0  0  0  0  0  0  0
    4.1130   -0.1130   -0.3010 C   0  0  0  0  0  0  0  0  0  0  0  0
    3.6290   -1.3530   -0.1500 C   0  0  0  0  0  0  0  0  0  0  0  0
    4.4220   -2.4930   -0.0230 C   0  0  0  0  0  0  0  0  0  0  0  0
    5.7600   -2.3320   -0.0710 N   0  0  0  0  0  0  0  0  0  0  0  0
    6.3420   -1.1500   -0.2390 C   0  0  0  0  0  0  0  0  0  0  0  0
    7.8080   -0.8610   -0.2140 C   0  0  0  0  0  0  0  0  0  0  0  0
    8.2470   -0.5040   -1.4700 C   0  0  0  0  0  0  0  0  0  0  0  0
    9.4700    0.0480   -1.7200 C   0  0  0  0  0  0  0  0  0  0  0  0
   10.2360    0.2020   -0.5820 C   0  0  0  0  0  0  0  0  0  0  0  0
    9.8370   -0.1670    0.6290 C   0  0  0  0  0  0  0  0  0  0  0  0
    8.5660   -0.7490    0.8840 C   0  0  0  0  0  0  0  0  0  0  0  0
   10.7300    0.0590    1.7180 O   0  0  0  0  0  0  0  0  0  0  0  0
   11.9480    0.7390    1.5720 C   0  0  0  0  0  0  0  0  0  0  0  0
   12.4570    0.8730    0.1880 C   0  0  0  0  0  0  0  0  0  0  0  0
   11.5110    0.7470   -0.8170 O   0  0  0  0  0  0  0  0  0  0  0  0
    5.5530   -0.0680   -0.3450 C   0  0  0  0  0  0  0  0  0  0  0  0
   -0.7680   -1.4750    0.0620 C   0  0  0  0  0  0  0  0  0  0  0  0
   -2.0000   -1.5210    0.6570 N   0  0  0  0  0  0  0  0  0  0  0  0
  1  2  1  0
  2  3  1  0
  3  4  1  0
  4  5  1  0
  4 10  2  0
  5  6  1  0
  6  7  1  0
  6  9  2  0
  7  8  3  0
  9 10  1  0
 10 11  1  0
 11 12  1  0
 12 13  1  1
 12 14  1  0
 14 15  1  0
 15 16  2  0
 15 41  1  0
 16 17  1  0
 17 18  2  0
 18 19  1  0
 18 40  1  0
 19 20  1  0
 20 21  2  0
 20 22  1  0
 22 23  1  0
 23 24  1  0
 24 25  2  0
 24 39  1  0
 25 26  1  0
 26 27  2  0
 27 28  1  0
 28 29  1  0
 28 39  2  0
 29 30  2  0
 29 34  1  0
 30 31  1  0
 31 32  2  0
 32 33  1  0
 32 38  1  0
 33 34  2  0
 33 35  1  0
 35 36  1  0
 36 37  1  0
 37 38  1  0
 40 41  2  0
M  END
