
     RDKit          3D

 41 45  0  0  0  0  0  0  0  0999 V2000
   -6.3260    4.3900    1.8740 C   0  0  0  0  0  0  0  0  0  0  0  0
   -5.1220    5.2540    1.4940 C   0  0  0  0  0  0  0  0  0  0  0  0
   -4.2980    4.5920    0.5160 N   0  0  0  0  0  0  0  0  0  0  0  0
   -3.5850    3.4140    0.8580 C   0  0  0  0  0  0  0  0  0  0  0  0
   -3.5130    3.0050    2.1750 C   0  0  0  0  0  0  0  0  0  0  0  0
   -2.8240    1.8630    2.5870 C   0  0  0  0  0  0  0  0  0  0  0  0
   -2.1970    1.1350    1.5990 C   0  0  0  0  0  0  0  0  0  0  0  0
   -1.3830   -0.0420    1.8650 N   0  0  0  0  0  0  0  0  0  0  0  0
   -1.9830   -1.3130    1.6900 C   0  0  0  0  0  0  0  0  0  0  0  0
   -1.9630   -2.0540    0.4530 C   0  0  0  0  0  0  0  0  0  0  0  0
   -0.8330   -2.7180    0.0160 C   0  0  0  0  0  0  0  0  0  0  0  0
   -0.8630   -3.4600   -1.1300 C   0  0  0  0  0  0  0  0  0  0  0  0
   -2.0500   -3.5450   -1.8560 C   0  0  0  0  0  0  0  0  0  0  0  0
   -1.9960   -4.3210   -2.9920 O   0  0  0  0  0  0  0  0  0  0  0  0
   -3.2060   -2.9010   -1.4680 C   0  0  0  0  0  0  0  0  0  0  0  0
   -4.3630   -3.0140   -2.2080 O   0  0  0  0  0  0  0  0  0  0  0  0
   -5.6090   -2.4110   -1.8700 C   0  0  0  0  0  0  0  0  0  0  0  0
   -6.1650   -2.8720   -0.5560 C   0  0  0  0  0  0  0  0  0  0  0  0
   -3.1270   -2.1700   -0.3190 C   0  0  0  0  0  0  0  0  0  0  0  0
    0.2420    0.2430    2.1980 S   0  0  1  0  0  0  0  0  0  0  0  0
    0.5820    1.5270    2.8710 O   0  0  0  0  0  0  0  0  0  0  0  0
    0.6750   -0.8730    3.2760 O   0  0  0  0  0  0  0  0  0  0  0  0
    1.3670   -0.0540    0.8890 C   0  0  0  0  0  0  0  0  0  0  0  0
    1.1710   -0.2360   -0.4590 C   0  0  0  0  0  0  0  0  0  0  0  0
    2.3870   -0.2750   -1.0840 C   0  0  0  0  0  0  0  0  0  0  0  0
    2.6300   -0.4570   -2.5530 C   0  0  0  0  0  0  0  0  0  0  0  0
    3.3590   -0.1180   -0.1570 N   0  0  0  0  0  0  0  0  0  0  0  0
    4.7480   -0.0550   -0.5030 C   0  0  0  0  0  0  0  0  0  0  0  0
    5.3390    1.1910   -0.6340 C   0  0  0  0  0  0  0  0  0  0  0  0
    6.6980    1.2930   -0.9800 C   0  0  0  0  0  0  0  0  0  0  0  0
    7.4950    0.1890   -1.2000 C   0  0  0  0  0  0  0  0  0  0  0  0
    6.8830   -1.0500   -1.0650 C   0  0  0  0  0  0  0  0  0  0  0  0
    5.5260   -1.1520   -0.7200 C   0  0  0  0  0  0  0  0  0  0  0  0
    7.5570   -2.1630   -1.2470 C   0  0  0  0  0  0  0  0  0  0  0  0
    9.2880   -2.2040   -1.6760 S   0  0  0  0  0  0  0  0  0  0  0  0
    9.7860   -0.4560   -1.7870 C   0  0  0  0  0  0  0  0  0  0  0  0
    8.7030    0.3900   -1.4980 N   0  0  0  0  0  0  0  0  0  0  0  0
    2.7570    0.0140    1.0280 C   0  0  0  0  0  0  0  0  0  0  0  0
    3.4450    0.2350    2.3070 C   0  0  0  0  0  0  0  0  0  0  0  0
   -2.2500    1.5110    0.2620 C   0  0  0  0  0  0  0  0  0  0  0  0
   -2.9470    2.6560   -0.0910 C   0  0  0  0  0  0  0  0  0  0  0  0
  1  2  1  0
  2  3  1  0
  3  4  1  0
  4  5  2  0
  4 41  1  0
  5  6  1  0
  6  7  2  0
  7  8  1  0
  7 40  1  0
  8  9  1  0
 20  8  1  6
  9 10  1  0
 10 11  2  0
 10 19  1  0
 11 12  1  0
 12 13  2  0
 13 14  1  0
 13 15  1  0
 15 16  1  0
 15 19  2  0
 16 17  1  0
 17 18  1  0
 20 21  2  0
 20 22  2  0
 20 23  1  0
 23 24  1  0
 23 38  2  0
 24 25  2  0
 25 26  1  0
 25 27  1  0
 27 28  1  0
 27 38  1  0
 28 29  1  0
 28 33  2  0
 29 30  2  0
 30 31  1  0
 31 32  1  0
 31 37  2  0
 32 33  1  0
 32 34  2  0
 34 35  1  0
 35 36  1  0
 36 37  1  0
 38 39  1  0
 40 41  2  0
M  END
