
     RDKit          3D

 41 45  0  0  0  0  0  0  0  0999 V2000
   10.9240   -1.0240    1.0990 C   0  0  0  0  0  0  0  0  0  0  0  0
   10.0860   -1.4380    0.0370 O   0  0  0  0  0  0  0  0  0  0  0  0
    8.9260   -0.7730   -0.2900 C   0  0  0  0  0  0  0  0  0  0  0  0
    8.4790    0.3400    0.3760 C   0  0  0  0  0  0  0  0  0  0  0  0
    7.2870    0.9820    0.0020 C   0  0  0  0  0  0  0  0  0  0  0  0
    6.5140    0.5440   -1.0300 C   0  0  0  0  0  0  0  0  0  0  0  0
    5.3110    1.1560   -1.4100 N   0  0  0  0  0  0  0  0  0  0  0  0
    4.5880    2.1290   -0.6900 C   0  0  0  0  0  0  0  0  0  0  0  0
    4.9920    2.5310    0.4030 O   0  0  0  0  0  0  0  0  0  0  0  0
    3.3140    2.6900   -1.2430 C   0  0  2  0  0  0  0  0  0  0  0  0
    2.6970    3.6610   -0.2730 C   0  0  0  0  0  0  0  0  0  0  0  0
    2.3540    1.5710   -1.5350 C   0  0  0  0  0  0  0  0  0  0  0  0
    2.0780    0.8280   -0.2570 C   0  0  0  0  0  0  0  0  0  0  0  0
    2.5800    1.0850    0.9580 N   0  0  0  0  0  0  0  0  0  0  0  0
    2.1300    0.2350    1.8350 N   0  0  0  0  0  0  0  0  0  0  0  0
    1.3020   -0.6170    1.1920 C   0  0  0  0  0  0  0  0  0  0  0  0
    0.6320   -1.7280    1.9050 C   0  0  0  0  0  0  0  0  0  0  0  0
   -0.9280   -1.2240    2.6310 S   0  0  0  0  0  0  0  0  0  0  0  0
   -2.2090   -0.8930    1.4510 C   0  0  0  0  0  0  0  0  0  0  0  0
   -2.0960   -1.0570    0.0910 C   0  0  0  0  0  0  0  0  0  0  0  0
   -3.1390   -0.7760   -0.8000 C   0  0  0  0  0  0  0  0  0  0  0  0
   -4.3530   -0.3100   -0.3180 C   0  0  0  0  0  0  0  0  0  0  0  0
   -5.3660   -0.0330   -1.1760 O   0  0  0  0  0  0  0  0  0  0  0  0
   -6.6450    0.4080   -0.9690 C   0  0  0  0  0  0  0  0  0  0  0  0
   -7.4950   -0.5520   -0.2240 C   0  0  0  0  0  0  0  0  0  0  0  0
   -7.0290   -1.7920    0.1110 C   0  0  0  0  0  0  0  0  0  0  0  0
   -7.7520   -2.7490    0.7680 C   0  0  0  0  0  0  0  0  0  0  0  0
   -9.0620   -2.4190    1.1130 C   0  0  0  0  0  0  0  0  0  0  0  0
   -9.5490   -1.1530    0.7730 C   0  0  0  0  0  0  0  0  0  0  0  0
  -11.1500   -0.3930    1.0450 S   0  0  0  0  0  0  0  0  0  0  0  0
  -10.7360    1.1500    0.2600 C   0  0  0  0  0  0  0  0  0  0  0  0
  -11.6370    2.3190    0.1070 C   0  0  0  0  0  0  0  0  0  0  0  0
   -9.4340    0.9830   -0.1460 C   0  0  0  0  0  0  0  0  0  0  0  0
   -8.8350   -0.1970    0.1200 C   0  0  0  0  0  0  0  0  0  0  0  0
   -4.4830   -0.1400    1.0410 C   0  0  0  0  0  0  0  0  0  0  0  0
   -3.4490   -0.4200    1.9060 C   0  0  0  0  0  0  0  0  0  0  0  0
    1.2830   -0.2390   -0.0880 N   0  0  0  0  0  0  0  0  0  0  0  0
    6.9810   -0.5970   -1.7040 C   0  0  0  0  0  0  0  0  0  0  0  0
    8.1430   -1.2190   -1.3360 C   0  0  0  0  0  0  0  0  0  0  0  0
    8.6000   -2.3610   -2.0180 O   0  0  0  0  0  0  0  0  0  0  0  0
    7.8150   -2.8330   -3.0860 C   0  0  0  0  0  0  0  0  0  0  0  0
  1  2  1  0
  2  3  1  0
  3  4  2  0
  3 39  1  0
  4  5  1  0
  5  6  2  0
  6  7  1  0
  6 38  1  0
  7  8  1  0
  8  9  2  0
  8 10  1  0
 10 11  1  1
 10 12  1  0
 12 13  1  0
 13 14  2  0
 13 37  1  0
 14 15  1  0
 15 16  1  0
 16 17  1  0
 16 37  2  0
 17 18  1  0
 18 19  1  0
 19 20  2  0
 19 36  1  0
 20 21  1  0
 21 22  2  0
 22 23  1  0
 22 35  1  0
 23 24  1  0
 24 25  1  0
 25 26  2  0
 25 34  1  0
 26 27  1  0
 27 28  2  0
 28 29  1  0
 29 30  1  0
 29 34  2  0
 30 31  1  0
 31 32  1  0
 31 33  2  0
 33 34  1  0
 35 36  2  0
 38 39  2  0
 39 40  1  0
 40 41  1  0
M  END
