
     RDKit          3D

 41 45  0  0  0  0  0  0  0  0999 V2000
   -0.8900   -4.0770   -1.6410 C   0  0  0  0  0  0  0  0  0  0  0  0
   -1.3710   -3.1530   -0.6920 O   0  0  0  0  0  0  0  0  0  0  0  0
   -0.6450   -2.0500   -0.3400 C   0  0  0  0  0  0  0  0  0  0  0  0
    0.5950   -1.8390   -0.9360 C   0  0  0  0  0  0  0  0  0  0  0  0
    1.3860   -0.7450   -0.6300 C   0  0  0  0  0  0  0  0  0  0  0  0
    0.9150    0.1540    0.2980 C   0  0  0  0  0  0  0  0  0  0  0  0
    1.6930    1.3810    0.6720 C   0  0  0  0  0  0  0  0  0  0  0  0
    2.7930    1.6180   -0.2250 N   0  0  0  0  0  0  0  0  0  0  0  0
    4.0390    0.9460   -0.1840 C   0  0  0  0  0  0  0  0  0  0  0  0
    4.2730    0.0710    0.6720 O   0  0  0  0  0  0  0  0  0  0  0  0
    5.0850    1.2900   -1.1770 C   0  0  0  0  0  0  0  0  0  0  0  0
    5.9230    2.7710   -0.5440 S   0  0  0  0  0  0  0  0  0  0  0  0
    6.8360    2.4390    0.9510 C   0  0  0  0  0  0  0  0  0  0  0  0
    6.2360    2.5380    2.2100 C   0  0  0  0  0  0  0  0  0  0  0  0
    6.9690    2.2840    3.3370 C   0  0  0  0  0  0  0  0  0  0  0  0
    8.2910    1.9280    3.3050 C   0  0  0  0  0  0  0  0  0  0  0  0
    8.8930    1.8270    2.0670 C   0  0  0  0  0  0  0  0  0  0  0  0
    8.1680    2.0790    0.9260 C   0  0  0  0  0  0  0  0  0  0  0  0
   -0.3070   -0.0630    0.8800 C   0  0  0  0  0  0  0  0  0  0  0  0
   -1.1300   -1.1660    0.5870 C   0  0  0  0  0  0  0  0  0  0  0  0
   -2.3380   -1.2570    1.2470 O   0  0  0  0  0  0  0  0  0  0  0  0
   -3.5640   -1.2950    0.6030 C   0  0  0  0  0  0  0  0  0  0  0  0
   -4.1810   -0.1690    0.1180 C   0  0  0  0  0  0  0  0  0  0  0  0
   -3.5410    1.1160    0.2760 N   0  0  0  0  0  0  0  0  0  0  0  0
   -2.6890    1.6140   -0.7280 C   0  0  0  0  0  0  0  0  0  0  0  0
   -2.3940    0.9400   -1.8480 N   0  0  0  0  0  0  0  0  0  0  0  0
   -1.6010    1.3320   -2.8160 C   0  0  0  0  0  0  0  0  0  0  0  0
   -0.9810    2.5750   -2.7020 C   0  0  0  0  0  0  0  0  0  0  0  0
   -1.2310    3.3240   -1.5900 C   0  0  0  0  0  0  0  0  0  0  0  0
   -2.0750    2.8680   -0.5970 C   0  0  0  0  0  0  0  0  0  0  0  0
   -2.3770    3.6350    0.5900 C   0  0  0  0  0  0  0  0  0  0  0  0
   -1.2130    3.9580    1.6630 S   0  0  0  0  0  0  0  0  0  0  0  0
   -5.4020   -0.2360   -0.5150 C   0  0  0  0  0  0  0  0  0  0  0  0
   -6.0290    1.0380   -1.0250 C   0  0  0  0  0  0  0  0  0  0  0  0
   -5.9950   -1.4190   -0.6580 N   0  0  0  0  0  0  0  0  0  0  0  0
   -5.4140   -2.5390   -0.1920 C   0  0  0  0  0  0  0  0  0  0  0  0
   -5.8100   -3.8710   -0.2050 C   0  0  0  0  0  0  0  0  0  0  0  0
   -4.8090   -4.5720    0.4260 C   0  0  0  0  0  0  0  0  0  0  0  0
   -4.7680   -6.0280    0.6620 C   0  0  0  0  0  0  0  0  0  0  0  0
   -3.8700   -3.7560    0.8010 O   0  0  0  0  0  0  0  0  0  0  0  0
   -4.1960   -2.5220    0.4480 C   0  0  0  0  0  0  0  0  0  0  0  0
  1  2  1  0
  2  3  1  0
  3  4  2  0
  3 20  1  0
  4  5  1  0
  5  6  2  0
  6  7  1  0
  6 19  1  0
  7  8  1  0
  8  9  1  0
  9 10  2  0
  9 11  1  0
 11 12  1  0
 12 13  1  0
 13 14  2  0
 13 18  1  0
 14 15  1  0
 15 16  2  0
 16 17  1  0
 17 18  2  0
 19 20  2  0
 20 21  1  0
 21 22  1  0
 22 23  1  0
 22 41  2  0
 23 24  1  0
 23 33  2  0
 24 25  1  0
 25 26  2  0
 25 30  1  0
 26 27  1  0
 27 28  2  0
 28 29  1  0
 29 30  2  0
 30 31  1  0
 31 32  2  0
 33 34  1  0
 33 35  1  0
 35 36  2  0
 36 37  1  0
 36 41  1  0
 37 38  2  0
 38 39  1  0
 38 40  1  0
 40 41  1  0
M  END
