
     RDKit          3D

 41 45  0  0  0  0  0  0  0  0999 V2000
    4.0780   -4.0450   -3.0370 C   0  0  0  0  0  0  0  0  0  0  0  0
    4.3970   -3.8820   -1.5820 C   0  0  0  0  0  0  0  0  0  0  0  0
    4.2990   -2.4880   -1.1460 N   0  0  0  0  0  0  0  0  0  0  0  0
    5.3370   -1.4890   -1.1400 C   0  0  0  0  0  0  0  0  0  0  0  0
    4.6900   -0.2650   -0.5870 C   0  0  0  0  0  0  0  0  0  0  0  0
    3.4450   -0.4510   -0.3030 C   0  0  0  0  0  0  0  0  0  0  0  0
    2.4700    0.4850    0.2510 C   0  0  0  0  0  0  0  0  0  0  0  0
    0.7780   -0.0030    0.6540 S   0  0  0  0  0  0  0  0  0  0  0  0
    0.2780    1.5990    1.2450 C   0  0  0  0  0  0  0  0  0  0  0  0
   -1.0790    1.9310    1.7660 C   0  0  0  0  0  0  0  0  0  0  0  0
   -2.0890    2.5050    0.4040 S   0  0  0  0  0  0  0  0  0  0  0  0
   -2.3650    1.1660   -0.7350 C   0  0  0  0  0  0  0  0  0  0  0  0
   -1.5730    0.8780   -1.7590 N   0  0  0  0  0  0  0  0  0  0  0  0
   -2.0890   -0.1920   -2.4040 C   0  0  0  0  0  0  0  0  0  0  0  0
   -3.2650   -0.5900   -1.7400 C   0  0  0  0  0  0  0  0  0  0  0  0
   -4.1340   -1.6890   -2.1670 C   0  0  0  0  0  0  0  0  0  0  0  0
   -5.1590   -2.2270   -1.4470 C   0  0  0  0  0  0  0  0  0  0  0  0
   -5.9700   -3.2410   -1.9710 C   0  0  0  0  0  0  0  0  0  0  0  0
   -5.7170   -3.6950   -3.2330 C   0  0  0  0  0  0  0  0  0  0  0  0
   -4.6860   -3.1700   -3.9820 C   0  0  0  0  0  0  0  0  0  0  0  0
   -3.9120   -2.1850   -3.4540 C   0  0  0  0  0  0  0  0  0  0  0  0
   -3.4080    0.2530   -0.7320 N   0  0  0  0  0  0  0  0  0  0  0  0
   -4.4200    0.3890    0.2840 C   0  0  0  0  0  0  0  0  0  0  0  0
   -4.1360   -0.3970    1.4990 C   0  0  0  0  0  0  0  0  0  0  0  0
   -3.1130   -1.1030    1.5770 O   0  0  0  0  0  0  0  0  0  0  0  0
   -5.0580   -0.3490    2.6170 C   0  0  0  0  0  0  0  0  0  0  0  0
   -4.9690   -1.0120    3.8320 C   0  0  0  0  0  0  0  0  0  0  0  0
   -6.0730   -0.6460    4.5580 C   0  0  0  0  0  0  0  0  0  0  0  0
   -6.8140    0.2050    3.8280 N   0  0  0  0  0  0  0  0  0  0  0  0
   -6.2220    0.3980    2.6560 C   0  0  0  0  0  0  0  0  0  0  0  0
    1.4030    2.3630    1.0950 C   0  0  0  0  0  0  0  0  0  0  0  0
    2.5100    1.7840    0.5870 C   0  0  0  0  0  0  0  0  0  0  0  0
    3.7320    2.6070    0.3530 C   0  0  0  0  0  0  0  0  0  0  0  0
    4.1840    3.2970    1.3740 C   0  0  0  0  0  0  0  0  0  0  0  0
    3.5470    3.2870    2.7090 C   0  0  0  0  0  0  0  0  0  0  0  0
    5.3650    4.1070    1.1780 C   0  0  0  0  0  0  0  0  0  0  0  0
    5.8220    4.7760    2.1300 O   0  0  0  0  0  0  0  0  0  0  0  0
    6.0140    4.1660   -0.0410 O   0  0  0  0  0  0  0  0  0  0  0  0
    7.1610    4.9820   -0.1490 C   0  0  0  0  0  0  0  0  0  0  0  0
    3.1400   -1.8380   -0.6350 C   0  0  0  0  0  0  0  0  0  0  0  0
    2.0370   -2.4420   -0.5150 O   0  0  0  0  0  0  0  0  0  0  0  0
  1  2  1  0
  2  3  1  0
  3  4  1  0
  3 40  1  0
  4  5  1  0
  5  6  2  0
  6  7  1  0
  6 40  1  0
  7  8  1  0
  7 32  2  0
  8  9  1  0
  9 10  1  0
  9 31  2  0
 10 11  1  0
 11 12  1  0
 12 13  2  0
 12 22  1  0
 13 14  1  0
 14 15  2  0
 15 16  1  0
 15 22  1  0
 16 17  2  0
 16 21  1  0
 17 18  1  0
 18 19  2  0
 19 20  1  0
 20 21  2  0
 22 23  1  0
 23 24  1  0
 24 25  2  0
 24 26  1  0
 26 27  1  0
 26 30  2  0
 27 28  2  0
 28 29  1  0
 29 30  1  0
 31 32  1  0
 32 33  1  0
 33 34  2  3
 34 35  1  0
 34 36  1  0
 36 37  2  0
 36 38  1  0
 38 39  1  0
 40 41  2  0
M  END
