
     RDKit          3D

 41 45  0  0  0  0  0  0  0  0999 V2000
   -9.7960    2.1820   -0.1860 C   0  0  0  0  0  0  0  0  0  0  0  0
  -10.3080    1.2940    0.9450 C   0  0  0  0  0  0  0  0  0  0  0  0
  -10.0070   -0.0930    0.7450 N   0  0  0  0  0  0  0  0  0  0  0  0
   -8.6340   -0.4860    0.5820 C   0  0  0  0  0  0  0  0  0  0  0  0
   -8.1690   -1.7760    0.4000 C   0  0  0  0  0  0  0  0  0  0  0  0
   -6.8110   -1.6680    0.2920 C   0  0  0  0  0  0  0  0  0  0  0  0
   -5.7850   -2.7420    0.0960 C   0  0  1  0  0  0  0  0  0  0  0  0
   -5.5040   -2.7560   -1.3920 C   0  0  0  0  0  0  0  0  0  0  0  0
   -4.2920   -2.3640    1.0200 S   0  0  0  0  0  0  0  0  0  0  0  0
   -3.4250   -0.9350    0.4090 C   0  0  0  0  0  0  0  0  0  0  0  0
   -3.7740    0.3200    0.8340 N   0  0  0  0  0  0  0  0  0  0  0  0
   -3.1510    1.4320    0.4180 C   0  0  0  0  0  0  0  0  0  0  0  0
   -3.5900    2.7690    0.9280 C   0  0  0  0  0  0  0  0  0  0  0  0
   -2.1130    1.3260   -0.4770 C   0  0  0  0  0  0  0  0  0  0  0  0
   -1.7210    0.0870   -0.9370 C   0  0  0  0  0  0  0  0  0  0  0  0
   -2.3800   -1.0640   -0.4920 C   0  0  0  0  0  0  0  0  0  0  0  0
   -1.9200   -2.3760   -0.9670 C   0  0  0  0  0  0  0  0  0  0  0  0
   -0.6620   -2.3250   -1.8060 C   0  0  0  0  0  0  0  0  0  0  0  0
    0.4180   -1.7690   -1.0170 N   0  0  0  0  0  0  0  0  0  0  0  0
    1.7190   -1.5770   -1.5440 C   0  0  0  0  0  0  0  0  0  0  0  0
    1.8890   -1.9170   -2.7430 O   0  0  0  0  0  0  0  0  0  0  0  0
    2.8090   -1.0180   -0.7630 C   0  0  0  0  0  0  0  0  0  0  0  0
    2.8800   -0.5960    0.5380 C   0  0  0  0  0  0  0  0  0  0  0  0
    4.0420   -0.1180    0.9880 C   0  0  0  0  0  0  0  0  0  0  0  0
    5.1220   -0.0510    0.1860 C   0  0  0  0  0  0  0  0  0  0  0  0
    6.4420    0.5150    0.3710 C   0  0  0  0  0  0  0  0  0  0  0  0
    6.6230    1.2980    1.4360 C   0  0  0  0  0  0  0  0  0  0  0  0
    7.8470    2.0010    1.8560 C   0  0  0  0  0  0  0  0  0  0  0  0
    8.8890    2.3890    1.1170 C   0  0  0  0  0  0  0  0  0  0  0  0
   10.0110    3.0910    1.7860 C   0  0  0  0  0  0  0  0  0  0  0  0
    9.7080    3.1970    3.1300 O   0  0  0  0  0  0  0  0  0  0  0  0
    8.9890    2.1670   -0.2870 O   0  0  0  0  0  0  0  0  0  0  0  0
    8.6190    0.9290   -0.8810 C   0  0  0  0  0  0  0  0  0  0  0  0
    9.5060    0.4990   -1.8290 C   0  0  0  0  0  0  0  0  0  0  0  0
    9.2960   -0.6940   -2.4920 C   0  0  0  0  0  0  0  0  0  0  0  0
    8.1780   -1.4280   -2.1720 C   0  0  0  0  0  0  0  0  0  0  0  0
    7.2730   -1.0020   -1.2130 C   0  0  0  0  0  0  0  0  0  0  0  0
    7.4890    0.1780   -0.5690 C   0  0  0  0  0  0  0  0  0  0  0  0
    4.4600   -0.7300   -1.3860 S   0  0  0  0  0  0  0  0  0  0  0  0
   -6.5210   -0.3800    0.4070 N   0  0  0  0  0  0  0  0  0  0  0  0
   -7.5880    0.2890    0.5750 O   0  0  0  0  0  0  0  0  0  0  0  0
  1  2  1  0
  2  3  1  0
  3  4  1  0
  4  5  2  0
  4 41  1  0
  5  6  1  0
  6  7  1  0
  6 40  2  0
  7  8  1  6
  7  9  1  0
  9 10  1  0
 10 11  2  0
 10 16  1  0
 11 12  1  0
 12 13  1  0
 12 14  2  0
 14 15  1  0
 15 16  2  0
 16 17  1  0
 17 18  1  0
 18 19  1  0
 19 20  1  0
 20 21  2  0
 20 22  1  0
 22 23  2  0
 22 39  1  0
 23 24  1  0
 24 25  2  0
 25 26  1  0
 25 39  1  0
 26 27  2  0
 26 38  1  0
 27 28  1  0
 28 29  2  0
 29 30  1  0
 29 32  1  0
 30 31  1  0
 32 33  1  0
 33 34  2  0
 33 38  1  0
 34 35  1  0
 35 36  2  0
 36 37  1  0
 37 38  2  0
 40 41  1  0
M  END
