
     RDKit          3D

 41 44  0  0  0  0  0  0  0  0999 V2000
    4.4310   -4.1610    0.8520 C   0  0  0  0  0  0  0  0  0  0  0  0
    5.9030   -3.7440   -0.1220 S   0  0  0  0  0  0  0  0  0  0  0  0
    5.7600   -2.1050   -0.7880 C   0  0  0  0  0  0  0  0  0  0  0  0
    6.7500   -1.6010   -1.4820 C   0  0  0  0  0  0  0  0  0  0  0  0
    7.9500   -2.3870   -1.6940 C   0  0  0  0  0  0  0  0  0  0  0  0
    8.9580   -1.9240   -2.3930 C   0  0  0  0  0  0  0  0  0  0  0  0
   10.1620   -2.7770   -2.5700 C   0  0  0  0  0  0  0  0  0  0  0  0
   10.4780   -3.1050   -4.3070 S   0  0  0  0  0  0  0  0  0  0  0  0
   11.2670   -4.3800   -4.4880 O   0  0  0  0  0  0  0  0  0  0  0  0
    4.5670   -1.3340   -0.5260 C   0  0  0  0  0  0  0  0  0  0  0  0
    4.3630   -0.0250   -0.8880 C   0  0  0  0  0  0  0  0  0  0  0  0
    3.0860    0.3710   -0.4670 C   0  0  0  0  0  0  0  0  0  0  0  0
    2.5810   -0.7030    0.1210 N   0  0  0  0  0  0  0  0  0  0  0  0
    3.4320   -1.7140    0.0980 N   0  0  0  0  0  0  0  0  0  0  0  0
    1.2590   -0.2890    0.5590 C   0  0  0  0  0  0  0  0  0  0  0  0
    0.5280   -1.1000    1.1550 O   0  0  0  0  0  0  0  0  0  0  0  0
    1.0250    1.0760    0.1950 C   0  0  0  0  0  0  0  0  0  0  0  0
   -0.0910    1.9660    0.4090 C   0  0  0  0  0  0  0  0  0  0  0  0
   -1.2340    1.7990    0.9590 C   0  0  0  0  0  0  0  0  0  0  0  0
   -1.8970    0.7130    1.5790 C   0  0  0  0  0  0  0  0  0  0  0  0
   -3.1490    0.9400    2.0610 C   0  0  0  0  0  0  0  0  0  0  0  0
   -3.9070   -0.0740    2.7000 N   0  0  0  0  0  0  0  0  0  0  0  0
   -5.1870   -0.4120    2.1060 C   0  0  0  0  0  0  0  0  0  0  0  0
   -5.5340    0.2080    1.0850 O   0  0  0  0  0  0  0  0  0  0  0  0
   -5.9560   -1.4100    2.7110 N   0  0  0  0  0  0  0  0  0  0  0  0
   -7.2090   -1.8180    2.2510 C   0  0  0  0  0  0  0  0  0  0  0  0
   -7.9790   -1.1280    1.3680 C   0  0  0  0  0  0  0  0  0  0  0  0
   -9.2270   -1.5960    0.9270 C   0  0  0  0  0  0  0  0  0  0  0  0
   -9.6770   -2.8000    1.4140 C   0  0  0  0  0  0  0  0  0  0  0  0
   -8.9140   -3.5170    2.3110 C   0  0  0  0  0  0  0  0  0  0  0  0
   -9.4250   -4.8110    2.8200 C   0  0  0  0  0  0  0  0  0  0  0  0
   -7.7040   -3.0380    2.7220 C   0  0  0  0  0  0  0  0  0  0  0  0
    0.0830    3.3250   -0.0800 O   0  0  0  0  0  0  0  0  0  0  0  0
   -0.7270    3.8050   -1.1130 C   0  0  0  0  0  0  0  0  0  0  0  0
   -0.3030    5.2050   -1.3700 C   0  0  0  0  0  0  0  0  0  0  0  0
    0.7520    5.8040   -0.6770 C   0  0  0  0  0  0  0  0  0  0  0  0
    1.1290    7.1010   -0.9200 C   0  0  0  0  0  0  0  0  0  0  0  0
    0.4900    7.8740   -1.8540 C   0  0  0  0  0  0  0  0  0  0  0  0
   -0.5530    7.2980   -2.5470 C   0  0  0  0  0  0  0  0  0  0  0  0
   -0.9440    5.9900   -2.3120 C   0  0  0  0  0  0  0  0  0  0  0  0
    2.1650    1.4920   -0.4460 C   0  0  0  0  0  0  0  0  0  0  0  0
  1  2  1  0
  2  3  1  0
  3  4  2  3
  3 10  1  0
  4  5  1  0
  5  6  2  3
  6  7  1  0
  7  8  1  0
  8  9  2  0
 10 11  1  0
 10 14  2  0
 11 12  2  0
 12 13  1  0
 12 41  1  0
 13 14  1  0
 13 15  1  0
 15 16  2  0
 15 17  1  0
 17 18  1  0
 17 41  2  0
 18 19  2  3
 18 33  1  0
 19 20  1  0
 20 21  2  3
 21 22  1  0
 22 23  1  0
 23 24  2  0
 23 25  1  0
 25 26  1  0
 26 27  2  0
 26 32  1  0
 27 28  1  0
 28 29  2  0
 29 30  1  0
 30 31  1  0
 30 32  2  0
 33 34  1  0
 34 35  1  0
 35 36  2  0
 35 40  1  0
 36 37  1  0
 37 38  2  0
 38 39  1  0
 39 40  2  0
M  END
