
     RDKit          3D

 41 42  0  0  0  0  0  0  0  0999 V2000
    7.3880   -3.9160    1.5880 C   0  0  0  0  0  0  0  0  0  0  0  0
    6.6710   -2.6200    1.8050 C   0  0  0  0  0  0  0  0  0  0  0  0
    6.9910   -1.9760    2.8230 O   0  0  0  0  0  0  0  0  0  0  0  0
    5.6820   -2.1560    0.8940 N   0  0  0  0  0  0  0  0  0  0  0  0
    4.9950   -0.9250    1.0570 C   0  0  2  0  0  0  0  0  0  0  0  0
    3.5760   -0.8140    0.7380 C   0  0  0  0  0  0  0  0  0  0  0  0
    2.9920   -1.7640    0.2040 O   0  0  0  0  0  0  0  0  0  0  0  0
    2.8630    0.3930    1.0460 N   0  0  0  0  0  0  0  0  0  0  0  0
    1.4810    0.6610    0.8220 C   0  0  1  0  0  0  0  0  0  0  0  0
    1.3110    1.9690    0.1160 C   0  0  0  0  0  0  0  0  0  0  0  0
    2.1470    2.0480   -1.1060 C   0  0  0  0  0  0  0  0  0  0  0  0
    3.3350    2.7870   -1.0010 C   0  0  0  0  0  0  0  0  0  0  0  0
    4.2490    2.8330   -2.0510 C   0  0  0  0  0  0  0  0  0  0  0  0
    3.9910    2.1480   -3.2190 C   0  0  0  0  0  0  0  0  0  0  0  0
    2.8300    1.4310   -3.3260 C   0  0  0  0  0  0  0  0  0  0  0  0
    1.9430    1.4020   -2.2650 C   0  0  0  0  0  0  0  0  0  0  0  0
    0.5820   -0.4760    0.4410 C   0  0  1  0  0  0  0  0  0  0  0  0
    0.8980   -1.4220    1.5770 O   0  0  0  0  0  0  0  0  0  0  0  0
   -0.8590   -0.2280    0.7770 C   0  0  0  0  0  0  0  0  0  0  0  0
   -1.7700    0.4770   -0.0190 N   0  0  2  0  0  0  0  0  0  0  0  0
   -2.4590    1.4710    0.9050 C   0  0  0  0  0  0  0  0  0  0  0  0
   -3.4560    2.3090    0.1860 C   0  0  1  0  0  0  0  0  0  0  0  0
   -4.2510    3.1130    1.2260 C   0  0  0  0  0  0  0  0  0  0  0  0
   -4.9470    4.2770    0.5270 C   0  0  0  0  0  0  0  0  0  0  0  0
   -3.9220    5.3840    0.3510 C   0  0  0  0  0  0  0  0  0  0  0  0
   -2.5610    4.6720    0.3130 C   0  0  0  0  0  0  0  0  0  0  0  0
   -2.7110    3.4610   -0.5700 C   0  0  0  0  0  0  0  0  0  0  0  0
   -2.9240   -0.3610   -0.2540 N   0  0  0  0  0  0  0  0  0  0  0  0
   -2.7740   -1.7670   -0.5580 C   0  0  0  0  0  0  0  0  0  0  0  0
   -1.6340   -2.2850   -0.6890 O   0  0  0  0  0  0  0  0  0  0  0  0
   -3.9940   -2.5800   -0.6790 C   0  0  1  0  0  0  0  0  0  0  0  0
   -4.5730   -2.9170    0.6060 N   0  0  0  0  0  0  0  0  0  0  0  0
   -4.4510   -4.1020    1.3170 C   0  0  0  0  0  0  0  0  0  0  0  0
   -5.1210   -4.3010    2.6480 C   0  0  0  0  0  0  0  0  0  0  0  0
   -3.7710   -5.0230    0.8350 O   0  0  0  0  0  0  0  0  0  0  0  0
   -4.9410   -2.5030   -1.7940 C   0  0  1  0  0  0  0  0  0  0  0  0
   -4.3300   -2.8880   -3.1200 C   0  0  0  0  0  0  0  0  0  0  0  0
   -5.9540   -3.6570   -1.5000 C   0  0  0  0  0  0  0  0  0  0  0  0
    5.7820    0.1480    0.2470 C   0  0  2  0  0  0  0  0  0  0  0  0
    5.9030   -0.2850   -1.1720 C   0  0  0  0  0  0  0  0  0  0  0  0
    7.0190    0.5020    0.9710 C   0  0  0  0  0  0  0  0  0  0  0  0
  1  2  1  0
  2  3  2  0
  2  4  1  0
  5  4  1  6
  5  6  1  0
  5 39  1  0
  6  7  2  0
  6  8  1  0
  8  9  1  0
  9 10  1  6
  9 17  1  0
 10 11  1  0
 11 12  2  0
 11 16  1  0
 12 13  1  0
 13 14  2  0
 14 15  1  0
 15 16  2  0
 17 18  1  1
 17 19  1  0
 20 19  1  1
 20 21  1  0
 20 28  1  0
 22 21  1  1
 22 23  1  0
 22 27  1  0
 23 24  1  0
 24 25  1  0
 25 26  1  0
 26 27  1  0
 28 29  1  0
 29 30  2  0
 29 31  1  0
 31 32  1  1
 31 36  1  0
 32 33  1  0
 33 34  1  0
 33 35  2  0
 36 37  1  6
 36 38  1  0
 39 40  1  6
 39 41  1  0
M  CHG  1  20   1
M  END
