
     RDKit          3D

 43 46  0  0  0  0  0  0  0  0999 V2000
   -1.0340    7.3630   -1.2310 C   0  0  0  0  0  0  0  0  0  0  0  0
   -1.0740    5.8740   -1.4600 C   0  0  0  0  0  0  0  0  0  0  0  0
   -0.6760    5.2490   -0.2580 O   0  0  0  0  0  0  0  0  0  0  0  0
   -0.6080    3.8460   -0.1400 C   0  0  0  0  0  0  0  0  0  0  0  0
   -0.9270    3.2250   -1.1820 O   0  0  0  0  0  0  0  0  0  0  0  0
   -0.2240    3.2300    1.0180 O   0  0  0  0  0  0  0  0  0  0  0  0
   -0.1180    1.8860    1.2190 C   0  0  0  0  0  0  0  0  0  0  0  0
    0.9280    1.1270    0.4550 C   0  0  1  0  0  0  0  0  0  0  0  0
    2.2830    1.5630    0.9170 C   0  0  0  0  0  0  0  0  0  0  0  0
    3.4460    0.9130    0.2700 C   0  0  0  0  0  0  0  0  0  0  0  0
    3.5650   -0.4570    0.4670 O   0  0  0  0  0  0  0  0  0  0  0  0
    3.7760   -0.8180    1.7590 C   0  0  0  0  0  0  0  0  0  0  0  0
    5.0700   -0.4710    2.3970 C   0  0  0  0  0  0  0  0  0  0  0  0
    6.2270   -1.0090    1.8810 O   0  0  0  0  0  0  0  0  0  0  0  0
    6.8200   -0.9540    0.6740 C   0  0  0  0  0  0  0  0  0  0  0  0
    6.2900   -0.3040   -0.2440 O   0  0  0  0  0  0  0  0  0  0  0  0
    8.0530   -1.6540    0.4930 N   0  0  0  0  0  0  0  0  0  0  0  0
    8.7750   -1.6860   -0.7360 C   0  0  0  0  0  0  0  0  0  0  0  0
    8.0060   -2.3550   -1.8200 C   0  0  0  0  0  0  0  0  0  0  0  0
    6.8090   -1.7910   -2.1550 O   0  0  0  0  0  0  0  0  0  0  0  0
    0.6310   -0.3530    0.7440 C   0  0  0  0  0  0  0  0  0  0  0  0
   -0.6350   -0.4130   -0.0730 N   0  0  0  0  0  0  0  0  0  0  0  0
   -1.8200   -0.9560    0.4230 C   0  0  0  0  0  0  0  0  0  0  0  0
   -1.7760   -1.5220    1.5900 O   0  0  0  0  0  0  0  0  0  0  0  0
   -3.0980   -0.9810   -0.1740 N   0  0  0  0  0  0  0  0  0  0  0  0
   -3.3420   -0.1280   -1.3780 C   0  0  0  0  0  0  0  0  0  0  0  0
   -4.7230    0.4850   -1.2560 C   0  0  0  0  0  0  0  0  0  0  0  0
   -5.2710    0.4560   -0.0120 O   0  0  0  0  0  0  0  0  0  0  0  0
   -5.2900   -0.7090    0.6840 C   0  0  0  0  0  0  0  0  0  0  0  0
   -4.2470   -1.7330    0.2040 C   0  0  1  0  0  0  0  0  0  0  0  0
   -4.8790   -2.3600   -1.0650 C   0  0  0  0  0  0  0  0  0  0  0  0
   -6.2960   -2.3900   -0.9240 O   0  0  0  0  0  0  0  0  0  0  0  0
   -7.0190   -3.1950   -0.0210 C   0  0  0  0  0  0  0  0  0  0  0  0
   -8.3090   -3.6370   -0.1690 C   0  0  0  0  0  0  0  0  0  0  0  0
   -8.5870   -4.3510    0.8960 O   0  0  0  0  0  0  0  0  0  0  0  0
   -7.5610   -4.3960    1.7150 N   0  0  0  0  0  0  0  0  0  0  0  0
   -6.5440   -3.6890    1.1950 C   0  0  0  0  0  0  0  0  0  0  0  0
   -5.2480   -3.4920    1.7620 N   0  0  0  0  0  0  0  0  0  0  0  0
   -4.1000   -2.8670    1.1140 C   0  0  0  0  0  0  0  0  0  0  0  0
   -3.0180   -3.4040    1.4150 O   0  0  0  0  0  0  0  0  0  0  0  0
   -0.1730    0.1230   -1.2880 C   0  0  0  0  0  0  0  0  0  0  0  0
   -0.5330   -0.2590   -2.4400 O   0  0  0  0  0  0  0  0  0  0  0  0
    0.7820    1.1760   -0.9750 N   0  0  0  0  0  0  0  0  0  0  0  0
  1  2  1  0
  2  3  1  0
  3  4  1  0
  4  5  2  0
  4  6  1  0
  6  7  1  0
  8  7  1  1
  8  9  1  0
  8 21  1  0
  8 43  1  0
  9 10  1  0
 10 11  1  0
 11 12  1  0
 12 13  1  0
 13 14  1  0
 14 15  1  0
 15 16  2  0
 15 17  1  0
 17 18  1  0
 18 19  1  0
 19 20  1  0
 21 22  1  0
 22 23  1  0
 22 41  1  0
 23 24  2  0
 23 25  1  0
 25 26  1  0
 25 30  1  0
 26 27  1  0
 27 28  1  0
 28 29  1  0
 30 29  1  1
 30 31  1  0
 30 39  1  0
 31 32  1  0
 32 33  1  0
 33 34  2  0
 33 37  1  0
 34 35  1  0
 35 36  1  0
 36 37  2  0
 37 38  1  0
 38 39  1  0
 39 40  2  0
 41 42  2  0
 41 43  1  0
M  END
