
     RDKit          3D

 43 45  0  0  0  0  0  0  0  0999 V2000
    4.6830    0.4960   -2.0090 C   0  0  0  0  0  0  0  0  0  0  0  0
    4.1880    0.8550   -0.6030 C   0  0  1  0  0  0  0  0  0  0  0  0
    4.1480    2.3400   -0.4990 C   0  0  0  0  0  0  0  0  0  0  0  0
    2.9840    0.1910   -0.4260 O   0  0  0  0  0  0  0  0  0  0  0  0
    2.1660    0.2110    0.6910 C   0  0  0  0  0  0  0  0  0  0  0  0
    2.6090    0.9430    1.6440 O   0  0  0  0  0  0  0  0  0  0  0  0
    0.9180   -0.4890    0.8670 C   0  0  2  0  0  0  0  0  0  0  0  0
    1.0170   -1.9410    0.5230 C   0  0  0  0  0  0  0  0  0  0  0  0
    0.4460   -2.3590   -0.7700 C   0  0  0  0  0  0  0  0  0  0  0  0
    0.2480   -1.3040   -1.7480 N   0  0  0  0  0  0  0  0  0  0  0  0
   -0.0430    0.0560   -1.2720 C   0  0  0  0  0  0  0  0  0  0  0  0
   -0.3080    0.0920    0.1860 C   0  0  2  0  0  0  0  0  0  0  0  0
   -0.4910    1.5290    0.5650 C   0  0  0  0  0  0  0  0  0  0  0  0
   -1.5040    1.9280    1.2270 O   0  0  0  0  0  0  0  0  0  0  0  0
    0.4340    2.5460    0.2240 N   0  0  0  0  0  0  0  0  0  0  0  0
    0.2160    3.9430    0.6210 C   0  0  0  0  0  0  0  0  0  0  0  0
    1.3270    4.8230    0.1480 C   0  0  0  0  0  0  0  0  0  0  0  0
    1.3970    4.7550   -1.2530 O   0  0  0  0  0  0  0  0  0  0  0  0
   -1.4870   -0.6110    0.6920 C   0  0  0  0  0  0  0  0  0  0  0  0
   -1.3390   -1.2280    1.9970 N   0  0  0  0  0  0  0  0  0  0  0  0
   -1.9900   -2.2360    2.4000 C   0  0  0  0  0  0  0  0  0  0  0  0
   -2.9190   -2.8090    1.5430 O   0  0  0  0  0  0  0  0  0  0  0  0
   -1.7850   -2.8240    3.7720 C   0  0  0  0  0  0  0  0  0  0  0  0
   -3.0380   -2.7870    4.4970 N   0  0  0  0  0  0  0  0  0  0  0  0
   -3.1970   -3.2590    5.8080 C   0  0  0  0  0  0  0  0  0  0  0  0
   -2.2120   -3.7470    6.4120 O   0  0  0  0  0  0  0  0  0  0  0  0
   -4.3990   -3.2220    6.5020 O   0  0  0  0  0  0  0  0  0  0  0  0
   -2.5840   -0.7250    0.1370 N   0  0  0  0  0  0  0  0  0  0  0  0
   -3.2540   -0.3670   -1.0180 C   0  0  0  0  0  0  0  0  0  0  0  0
   -4.3610    0.4720   -1.0660 C   0  0  0  0  0  0  0  0  0  0  0  0
   -5.0030    0.7970   -2.2450 C   0  0  0  0  0  0  0  0  0  0  0  0
   -4.5050    0.2540   -3.4030 C   0  0  0  0  0  0  0  0  0  0  0  0
   -3.4090   -0.5790   -3.3810 C   0  0  0  0  0  0  0  0  0  0  0  0
   -2.8500   -0.8420   -2.2090 N   0  0  0  0  0  0  0  0  0  0  0  0
   -2.8430   -1.1610   -4.6290 C   0  0  0  0  0  0  0  0  0  0  0  0
   -3.6560   -1.2210   -5.5820 O   0  0  0  0  0  0  0  0  0  0  0  0
   -1.5490   -1.5830   -4.7010 O   0  0  0  0  0  0  0  0  0  0  0  0
   -0.4570   -1.1750   -4.0820 O   0  0  0  0  0  0  0  0  0  0  0  0
    0.3510   -1.6370   -3.1180 C   0  0  0  0  0  0  0  0  0  0  0  0
    1.3110   -2.4460   -3.4080 O   0  0  0  0  0  0  0  0  0  0  0  0
    5.2600    0.3380    0.3190 C   0  0  0  0  0  0  0  0  0  0  0  0
    5.0410   -0.5840    1.1330 O   0  0  0  0  0  0  0  0  0  0  0  0
    6.5280    0.8830    0.2830 O   0  0  0  0  0  0  0  0  0  0  0  0
  2  1  1  6
  2  3  1  0
  2  4  1  0
  2 41  1  0
  4  5  1  0
  5  6  2  0
  7  5  1  6
  7  8  1  0
  7 12  1  0
  8  9  1  0
  9 10  1  0
 10 11  1  0
 10 39  1  0
 11 12  1  0
 12 13  1  1
 12 19  1  0
 13 14  2  0
 13 15  1  0
 15 16  1  0
 16 17  1  0
 17 18  1  0
 19 20  1  0
 19 28  2  0
 20 21  2  3
 21 22  1  0
 21 23  1  0
 23 24  1  0
 24 25  1  0
 25 26  2  0
 25 27  1  0
 28 29  1  0
 29 30  2  0
 29 34  1  0
 30 31  1  0
 31 32  2  0
 32 33  1  0
 33 34  2  0
 33 35  1  0
 35 36  2  0
 35 37  1  0
 37 38  1  0
 38 39  1  0
 39 40  2  0
 41 42  2  0
 41 43  1  0
M  END
