
     RDKit          3D

 43 46  0  0  0  0  0  0  0  0999 V2000
   -7.8600    2.8420    1.0850 C   0  0  0  0  0  0  0  0  0  0  0  0
   -8.8900    2.5630    0.0260 C   0  0  0  0  0  0  0  0  0  0  0  0
   -8.8190    1.2570   -0.4740 O   0  0  0  0  0  0  0  0  0  0  0  0
   -7.7050    0.7150   -1.1000 C   0  0  0  0  0  0  0  0  0  0  0  0
   -6.6820    1.4380   -1.2340 O   0  0  0  0  0  0  0  0  0  0  0  0
   -7.6440   -0.5790   -1.5920 O   0  0  0  0  0  0  0  0  0  0  0  0
   -6.4680   -1.0520   -2.2150 C   0  0  0  0  0  0  0  0  0  0  0  0
   -5.3590   -0.9770   -1.2390 C   0  0  0  0  0  0  0  0  0  0  0  0
   -5.4500   -0.5520   -0.0280 O   0  0  0  0  0  0  0  0  0  0  0  0
   -4.2770   -0.6100    0.5930 C   0  0  0  0  0  0  0  0  0  0  0  0
   -4.1080   -0.2400    1.8010 N   0  0  0  0  0  0  0  0  0  0  0  0
   -3.3630   -1.1020   -0.2560 N   0  0  0  0  0  0  0  0  0  0  0  0
   -2.0340   -1.3550   -0.1270 C   0  0  0  0  0  0  0  0  0  0  0  0
   -1.3590   -1.3190    0.9730 C   0  0  0  0  0  0  0  0  0  0  0  0
   -1.6570   -1.0260    2.3410 C   0  0  0  0  0  0  0  0  0  0  0  0
   -2.1370   -1.9000    3.3360 C   0  0  0  0  0  0  0  0  0  0  0  0
   -2.2780   -1.2370    4.4960 N   0  0  0  0  0  0  0  0  0  0  0  0
   -1.8880    0.0340    4.2140 C   0  0  0  0  0  0  0  0  0  0  0  0
   -1.5320    0.1460    2.9710 O   0  0  0  0  0  0  0  0  0  0  0  0
   -1.3490   -1.8630   -1.2540 C   0  0  0  0  0  0  0  0  0  0  0  0
   -0.0670   -1.8750   -1.4640 C   0  0  0  0  0  0  0  0  0  0  0  0
    1.0590   -1.4210   -0.7680 C   0  0  0  0  0  0  0  0  0  0  0  0
    2.3350   -1.6270   -1.1870 C   0  0  0  0  0  0  0  0  0  0  0  0
    3.4990   -1.1800   -0.5040 N   0  0  0  0  0  0  0  0  0  0  0  0
    4.5660   -1.5130   -1.1160 C   0  0  0  0  0  0  0  0  0  0  0  0
    5.8730   -1.1870   -0.6440 N   0  0  0  0  0  0  0  0  0  0  0  0
    6.0180   -0.1080    0.3030 C   0  0  2  0  0  0  0  0  0  0  0  0
    7.4710    0.1480    0.6460 C   0  0  0  0  0  0  0  0  0  0  0  0
    8.2290    0.4870   -0.4450 O   0  0  0  0  0  0  0  0  0  0  0  0
    7.8350    1.6110   -1.1130 C   0  0  0  0  0  0  0  0  0  0  0  0
    7.8480    2.8580   -0.2540 C   0  0  0  0  0  0  0  0  0  0  0  0
    7.4350    3.9750   -0.9930 O   0  0  0  0  0  0  0  0  0  0  0  0
    7.4350    5.0590   -0.2860 O   0  0  0  0  0  0  0  0  0  0  0  0
    5.3510   -0.4590    1.6070 C   0  0  0  0  0  0  0  0  0  0  0  0
    4.7770   -1.5610    1.7890 O   0  0  0  0  0  0  0  0  0  0  0  0
    5.3590    0.4480    2.6550 O   0  0  0  0  0  0  0  0  0  0  0  0
    4.2190   -2.2120   -2.2640 O   0  0  0  0  0  0  0  0  0  0  0  0
    2.8140   -2.3130   -2.3550 C   0  0  0  0  0  0  0  0  0  0  0  0
    2.1820   -2.8820   -3.2710 O   0  0  0  0  0  0  0  0  0  0  0  0
   -2.1520   -2.0790   -2.4230 C   0  0  0  0  0  0  0  0  0  0  0  0
   -1.7100   -2.5400   -3.5120 N   0  0  0  0  0  0  0  0  0  0  0  0
   -3.4330   -1.8050   -2.4320 O   0  0  0  0  0  0  0  0  0  0  0  0
   -4.0360   -1.3320   -1.4080 C   0  0  0  0  0  0  0  0  0  0  0  0
  1  2  1  0
  2  3  1  0
  3  4  1  0
  4  5  2  0
  4  6  1  0
  6  7  1  0
  7  8  1  0
  8  9  1  0
  8 43  2  0
  9 10  1  0
 10 11  2  0
 10 12  1  0
 12 13  1  0
 12 43  1  0
 13 14  2  3
 13 20  1  0
 14 15  1  0
 15 16  2  0
 15 19  1  0
 16 17  1  0
 17 18  2  0
 18 19  1  0
 20 21  2  3
 20 40  1  0
 21 22  1  0
 22 23  2  3
 23 24  1  0
 23 38  1  0
 24 25  2  0
 25 26  1  0
 25 37  1  0
 26 27  1  0
 27 28  1  1
 27 34  1  0
 28 29  1  0
 29 30  1  0
 30 31  1  0
 31 32  1  0
 32 33  1  0
 34 35  2  0
 34 36  1  0
 37 38  1  0
 38 39  2  0
 40 41  2  0
 40 42  1  0
 42 43  1  0
M  END
