
     RDKit          3D

 43 46  0  0  0  0  0  0  0  0999 V2000
   -5.6250   -6.2000    1.7220 C   0  0  0  0  0  0  0  0  0  0  0  0
   -5.2330   -4.8480    1.5440 O   0  0  0  0  0  0  0  0  0  0  0  0
   -5.5960   -4.1390    0.4320 N   0  0  0  0  0  0  0  0  0  0  0  0
   -4.7990   -3.2430   -0.0910 C   0  0  0  0  0  0  0  0  0  0  0  0
   -3.5050   -2.9820    0.5020 C   0  0  0  0  0  0  0  0  0  0  0  0
   -2.6210   -2.0920    0.0410 C   0  0  0  0  0  0  0  0  0  0  0  0
   -2.9250   -1.3010   -1.1410 C   0  0  0  0  0  0  0  0  0  0  0  0
   -2.7700    0.0070   -1.2500 C   0  0  0  0  0  0  0  0  0  0  0  0
   -2.2810    0.7750   -0.1960 O   0  0  0  0  0  0  0  0  0  0  0  0
   -1.6830    1.9630   -0.7410 C   0  0  2  0  0  0  0  0  0  0  0  0
   -1.6400    2.9960    0.3560 C   0  0  0  0  0  0  0  0  0  0  0  0
   -0.3110    3.7070    0.2460 C   0  0  0  0  0  0  0  0  0  0  0  0
    0.5200    3.4980    1.4890 C   0  0  0  0  0  0  0  0  0  0  0  0
    1.9190    3.7760    1.2650 N   0  0  0  0  0  0  0  0  0  0  0  0
    2.6950    3.2090    0.2490 C   0  0  0  0  0  0  0  0  0  0  0  0
    3.5490    3.9440   -0.3340 O   0  0  0  0  0  0  0  0  0  0  0  0
    2.6190    1.8970   -0.1910 O   0  0  0  0  0  0  0  0  0  0  0  0
    2.3680    0.7940    0.6570 C   0  0  1  0  0  0  0  0  0  0  0  0
    1.1400    0.2850    0.3470 O   0  0  0  0  0  0  0  0  0  0  0  0
    0.7440   -0.8270    1.0220 C   0  0  2  0  0  0  0  0  0  0  0  0
    1.7750   -1.6990    1.5980 C   0  0  0  0  0  0  0  0  0  0  0  0
    3.1930   -1.3520    1.3740 C   0  0  0  0  0  0  0  0  0  0  0  0
    3.3840   -0.3050    0.3060 C   0  0  2  0  0  0  0  0  0  0  0  0
    4.7210    0.1950    0.2490 N   0  0  0  0  0  0  0  0  0  0  0  0
    5.4460    0.8410    1.3190 C   0  0  0  0  0  0  0  0  0  0  0  0
    6.8160    1.1390    0.7990 C   0  0  0  0  0  0  0  0  0  0  0  0
    6.9430    0.3620   -0.4380 N   0  0  0  0  0  0  0  0  0  0  0  0
    8.1420   -0.0710   -1.0450 C   0  0  0  0  0  0  0  0  0  0  0  0
    8.3480   -1.3210   -1.2140 N   0  0  0  0  0  0  0  0  0  0  0  0
    5.5900    0.1470   -0.8770 C   0  0  0  0  0  0  0  0  0  0  0  0
    5.2930   -0.0470   -2.0970 O   0  0  0  0  0  0  0  0  0  0  0  0
   -0.1790   -1.6090    0.0870 C   0  0  0  0  0  0  0  0  0  0  0  0
   -1.3950   -1.9180    0.6960 O   0  0  0  0  0  0  0  0  0  0  0  0
   -2.6290    2.2660   -1.7880 N   0  0  0  0  0  0  0  0  0  0  0  0
   -3.1340    3.5380   -2.2590 C   0  0  0  0  0  0  0  0  0  0  0  0
   -4.2890    3.9290   -1.5710 O   0  0  0  0  0  0  0  0  0  0  0  0
   -5.1940    2.9930   -1.7730 O   0  0  0  0  0  0  0  0  0  0  0  0
   -3.0080    0.9840   -2.3180 C   0  0  0  0  0  0  0  0  0  0  0  0
   -3.4580    0.7330   -3.4760 O   0  0  0  0  0  0  0  0  0  0  0  0
   -5.3050   -2.6060   -1.2160 O   0  0  0  0  0  0  0  0  0  0  0  0
   -6.5670   -2.9140   -1.7310 C   0  0  0  0  0  0  0  0  0  0  0  0
   -7.2750   -3.7880   -1.1730 O   0  0  0  0  0  0  0  0  0  0  0  0
   -7.0590   -2.2600   -2.8660 O   0  0  0  0  0  0  0  0  0  0  0  0
  1  2  1  0
  2  3  1  0
  3  4  2  3
  4  5  1  0
  4 40  1  0
  5  6  2  3
  6  7  1  0
  6 33  1  0
  7  8  2  0
  8  9  1  0
  8 38  1  0
  9 10  1  0
 10 11  1  1
 10 34  1  0
 11 12  1  0
 12 13  1  0
 13 14  1  0
 14 15  1  0
 15 16  2  0
 15 17  1  0
 18 17  1  6
 18 19  1  0
 18 23  1  0
 19 20  1  0
 20 21  1  6
 20 32  1  0
 21 22  1  0
 22 23  1  0
 23 24  1  1
 24 25  1  0
 24 30  1  0
 25 26  1  0
 26 27  1  0
 27 28  1  0
 27 30  1  0
 28 29  2  0
 30 31  2  0
 32 33  1  0
 34 35  1  0
 34 38  1  0
 35 36  1  0
 36 37  1  0
 38 39  2  0
 40 41  1  0
 41 42  2  0
 41 43  1  0
M  END
