
     RDKit          3D

 43 47  0  0  0  0  0  0  0  0999 V2000
   -6.4410   -0.1630    2.1510 O   0  0  0  0  0  0  0  0  0  0  0  0
   -5.9440    0.5950    3.0110 C   0  0  0  0  0  0  0  0  0  0  0  0
   -4.8950    1.6020    2.7140 C   0  0  0  0  0  0  0  0  0  0  0  0
   -4.5520    1.5480    1.2110 C   0  0  1  0  0  0  0  0  0  0  0  0
   -4.1070    0.2500    0.9660 O   0  0  0  0  0  0  0  0  0  0  0  0
   -2.9170   -0.2850    0.6230 C   0  0  0  0  0  0  0  0  0  0  0  0
   -2.4390   -1.3950    1.3440 C   0  0  0  0  0  0  0  0  0  0  0  0
   -1.2420   -1.9600    1.0220 C   0  0  0  0  0  0  0  0  0  0  0  0
   -0.4550   -1.4990    0.0100 C   0  0  0  0  0  0  0  0  0  0  0  0
    0.7440   -2.2170   -0.2210 N   0  0  0  0  0  0  0  0  0  0  0  0
    1.9300   -1.5480   -0.4000 C   0  0  0  0  0  0  0  0  0  0  0  0
    1.8110   -0.2830   -0.3180 O   0  0  0  0  0  0  0  0  0  0  0  0
    3.2630   -1.8060   -0.6420 N   0  0  0  0  0  0  0  0  0  0  0  0
    4.0810   -2.8420   -0.9640 C   0  0  0  0  0  0  0  0  0  0  0  0
    3.5060   -3.9600   -1.0240 O   0  0  0  0  0  0  0  0  0  0  0  0
    5.4870   -2.6500   -1.2230 C   0  0  0  0  0  0  0  0  0  0  0  0
    6.2670   -3.4350   -2.0670 C   0  0  0  0  0  0  0  0  0  0  0  0
    7.4880   -2.9140   -2.1000 N   0  0  0  0  0  0  0  0  0  0  0  0
    7.5560   -1.8360   -1.3300 N   0  0  0  0  0  0  0  0  0  0  0  0
    8.3370   -0.8560   -0.8760 C   0  0  0  0  0  0  0  0  0  0  0  0
    7.5330   -0.0800   -0.0300 C   0  0  0  0  0  0  0  0  0  0  0  0
    8.0250    1.1300    0.6950 C   0  0  2  0  0  0  0  0  0  0  0  0
    6.8860    1.9850    1.1240 C   0  0  0  0  0  0  0  0  0  0  0  0
    6.8980    3.0650    0.2770 O   0  0  0  0  0  0  0  0  0  0  0  0
    7.9000    2.8620   -0.6520 C   0  0  0  0  0  0  0  0  0  0  0  0
    8.7650    1.9270   -0.1460 O   0  0  0  0  0  0  0  0  0  0  0  0
    6.3550   -0.5980   -0.0100 O   0  0  0  0  0  0  0  0  0  0  0  0
    6.3240   -1.6570   -0.7780 C   0  0  0  0  0  0  0  0  0  0  0  0
   -0.8870   -0.4200   -0.7120 C   0  0  0  0  0  0  0  0  0  0  0  0
   -2.1120    0.1710   -0.3960 C   0  0  0  0  0  0  0  0  0  0  0  0
   -2.4610    1.3180   -1.2920 C   0  0  0  0  0  0  0  0  0  0  0  0
   -2.3190    0.7980   -2.5930 O   0  0  0  0  0  0  0  0  0  0  0  0
   -3.3210    1.1590   -3.4520 C   0  0  0  0  0  0  0  0  0  0  0  0
   -4.7060    1.1930   -2.8490 C   0  0  0  0  0  0  0  0  0  0  0  0
   -4.8520    0.1130   -1.9750 O   0  0  0  0  0  0  0  0  0  0  0  0
   -5.8970   -0.1080   -1.1000 C   0  0  0  0  0  0  0  0  0  0  0  0
   -6.3620   -1.3040   -0.9920 O   0  0  0  0  0  0  0  0  0  0  0  0
   -6.5160    0.8810   -0.2970 N   0  0  0  0  0  0  0  0  0  0  0  0
   -5.8160    1.8570    0.4810 C   0  0  0  0  0  0  0  0  0  0  0  0
   -6.2630    3.0240    0.5660 O   0  0  0  0  0  0  0  0  0  0  0  0
   -6.4540    0.4430    4.3500 N   0  0  0  0  0  0  0  0  0  0  0  0
   -7.4030   -0.4490    4.6830 O   0  0  0  0  0  0  0  0  0  0  0  0
   -7.7740   -1.2310    3.7200 O   0  0  0  0  0  0  0  0  0  0  0  0
  1  2  2  0
  2  3  1  0
  2 41  1  0
  4  3  1  1
  4  5  1  0
  4 39  1  0
  5  6  1  0
  6  7  2  0
  6 30  1  0
  7  8  1  0
  8  9  2  0
  9 10  1  0
  9 29  1  0
 10 11  1  0
 11 12  2  0
 11 13  1  0
 13 14  1  0
 14 15  2  0
 14 16  1  0
 16 17  1  0
 16 28  2  0
 17 18  2  0
 18 19  1  0
 19 20  1  0
 19 28  1  0
 20 21  2  0
 22 21  1  6
 21 27  1  0
 22 23  1  0
 22 26  1  0
 23 24  1  0
 24 25  1  0
 25 26  1  0
 27 28  1  0
 29 30  2  0
 30 31  1  0
 31 32  1  0
 32 33  1  0
 33 34  1  0
 34 35  1  0
 35 36  1  0
 36 37  2  0
 36 38  1  0
 38 39  1  0
 39 40  2  0
 41 42  1  0
 42 43  1  0
M  END
