
     RDKit          3D

 43 45  0  0  0  0  0  0  0  0999 V2000
   -4.9600   -5.2450    0.5130 C   0  0  0  0  0  0  0  0  0  0  0  0
   -5.1250   -3.7520    0.4460 C   0  0  0  0  0  0  0  0  0  0  0  0
   -3.9080   -3.1050    0.8710 N   0  0  0  0  0  0  0  0  0  0  0  0
   -3.5840   -2.7190    2.2200 C   0  0  0  0  0  0  0  0  0  0  0  0
   -2.2560   -2.0120    2.1620 C   0  0  0  0  0  0  0  0  0  0  0  0
   -2.0250   -1.7320    0.7380 N   0  0  0  0  0  0  0  0  0  0  0  0
   -1.2370   -0.7310    0.2240 O   0  0  0  0  0  0  0  0  0  0  0  0
   -1.3910   -0.1400   -0.9990 C   0  0  0  0  0  0  0  0  0  0  0  0
   -2.3920   -0.6240   -1.6740 O   0  0  0  0  0  0  0  0  0  0  0  0
   -0.6570    0.8720   -1.6110 N   0  0  0  0  0  0  0  0  0  0  0  0
   -1.0450    1.3250   -2.9680 C   0  0  0  0  0  0  0  0  0  0  0  0
    0.0030    0.9110   -3.9860 C   0  0  0  0  0  0  0  0  0  0  0  0
    1.2850    1.2870   -3.3990 N   0  0  0  0  0  0  0  0  0  0  0  0
    1.3840    1.8930   -2.1260 C   0  0  0  0  0  0  0  0  0  0  0  0
    2.2490    2.7670   -1.9150 O   0  0  0  0  0  0  0  0  0  0  0  0
    0.4730    1.5200   -0.9990 C   0  0  1  0  0  0  0  0  0  0  0  0
   -0.1090    2.7850   -0.3790 C   0  0  0  0  0  0  0  0  0  0  0  0
   -1.3510    2.9580   -0.4000 O   0  0  0  0  0  0  0  0  0  0  0  0
    0.6880    3.7760    0.2200 N   0  0  0  0  0  0  0  0  0  0  0  0
    0.2720    4.9800    0.8340 C   0  0  0  0  0  0  0  0  0  0  0  0
   -1.0170    5.2330    1.2090 C   0  0  0  0  0  0  0  0  0  0  0  0
   -1.3730    6.4620    1.7980 C   0  0  0  0  0  0  0  0  0  0  0  0
   -0.3960    7.4090    1.9910 C   0  0  0  0  0  0  0  0  0  0  0  0
    0.9070    7.1490    1.6100 C   0  0  0  0  0  0  0  0  0  0  0  0
    1.2770    5.9570    1.0340 C   0  0  0  0  0  0  0  0  0  0  0  0
    1.1090    0.6720    0.0430 C   0  0  2  0  0  0  0  0  0  0  0  0
    2.3030    1.2410    0.6960 C   0  0  0  0  0  0  0  0  0  0  0  0
    2.3250    1.5370    1.9140 O   0  0  0  0  0  0  0  0  0  0  0  0
    3.4620    1.4690   -0.0280 O   0  0  0  0  0  0  0  0  0  0  0  0
    4.6040    2.0070    0.5760 C   0  0  0  0  0  0  0  0  0  0  0  0
    1.4320   -0.6790   -0.4740 C   0  0  0  0  0  0  0  0  0  0  0  0
    1.1910   -1.0140   -1.6600 O   0  0  0  0  0  0  0  0  0  0  0  0
    2.0190   -1.6290    0.3480 O   0  0  0  0  0  0  0  0  0  0  0  0
    2.3420   -2.9110   -0.0860 C   0  0  0  0  0  0  0  0  0  0  0  0
    2.0950   -3.2340   -1.2720 O   0  0  0  0  0  0  0  0  0  0  0  0
    2.9580   -3.8870    0.7940 C   0  0  0  0  0  0  0  0  0  0  0  0
    3.2330   -3.6300    2.0000 O   0  0  0  0  0  0  0  0  0  0  0  0
    3.2620   -5.1740    0.2840 N   0  0  0  0  0  0  0  0  0  0  0  0
    3.8620   -6.1240    1.1420 C   0  0  0  0  0  0  0  0  0  0  0  0
    4.1130   -5.8220    2.3210 O   0  0  0  0  0  0  0  0  0  0  0  0
    4.1820   -7.3920    0.7060 O   0  0  0  0  0  0  0  0  0  0  0  0
   -2.7940   -2.7200    0.0630 C   0  0  0  0  0  0  0  0  0  0  0  0
   -2.5130   -3.1770   -1.0850 O   0  0  0  0  0  0  0  0  0  0  0  0
  1  2  1  0
  2  3  1  0
  3  4  1  0
  3 42  1  0
  4  5  1  0
  5  6  1  0
  6  7  1  0
  6 42  1  0
  7  8  1  0
  8  9  2  0
  8 10  1  0
 10 11  1  0
 10 16  1  0
 11 12  1  0
 12 13  1  0
 13 14  1  0
 14 15  2  0
 14 16  1  0
 16 17  1  1
 16 26  1  0
 17 18  2  0
 17 19  1  0
 19 20  1  0
 20 21  2  0
 20 25  1  0
 21 22  1  0
 22 23  2  0
 23 24  1  0
 24 25  2  0
 26 27  1  6
 26 31  1  0
 27 28  2  0
 27 29  1  0
 29 30  1  0
 31 32  2  0
 31 33  1  0
 33 34  1  0
 34 35  2  0
 34 36  1  0
 36 37  2  0
 36 38  1  0
 38 39  1  0
 39 40  2  0
 39 41  1  0
 42 43  2  0
M  END
