
     RDKit          3D

 44 48  0  0  0  0  0  0  0  0999 V2000
    8.6950   -1.5460   -2.7160 N   0  0  0  0  0  0  0  0  0  0  0  0
    9.1520   -0.3020   -2.2150 C   0  0  0  0  0  0  0  0  0  0  0  0
   10.1160    0.3160   -2.7390 O   0  0  0  0  0  0  0  0  0  0  0  0
    8.4480    0.2430   -1.0460 C   0  0  0  0  0  0  0  0  0  0  0  0
    8.8560    1.4500   -0.5170 C   0  0  0  0  0  0  0  0  0  0  0  0
    8.1700    1.9290    0.5810 C   0  0  0  0  0  0  0  0  0  0  0  0
    7.1050    1.2400    1.1510 C   0  0  0  0  0  0  0  0  0  0  0  0
    6.7360    0.0710    0.6120 N   0  0  0  0  0  0  0  0  0  0  0  0
    5.6320   -0.6480    1.1990 C   0  0  2  0  0  0  0  0  0  0  0  0
    4.8220   -1.2210    0.2510 O   0  0  0  0  0  0  0  0  0  0  0  0
    3.5250   -1.2040    0.6790 C   0  0  2  0  0  0  0  0  0  0  0  0
    2.6610   -0.3600   -0.2600 C   0  0  0  0  0  0  0  0  0  0  0  0
    3.1460    0.9570   -0.2900 O   0  0  0  0  0  0  0  0  0  0  0  0
    2.2410    1.9310   -1.3010 P   0  0  1  0  0  0  0  0  0  0  0  0
    1.7890    3.1840   -0.5480 O   0  0  0  0  0  0  0  0  0  0  0  0
    3.1450    2.4860   -2.6290 O   0  0  0  0  0  0  0  0  0  0  0  0
    0.8540    1.1860   -1.8830 O   0  0  0  0  0  0  0  0  0  0  0  0
   -0.5260    1.6070   -0.9900 P   0  0  1  0  0  0  0  0  0  0  0  0
   -0.0470    2.0090    0.3860 O   0  0  0  0  0  0  0  0  0  0  0  0
   -1.3370    2.8970   -1.7240 O   0  0  0  0  0  0  0  0  0  0  0  0
   -1.4920    0.2490   -0.8690 O   0  0  0  0  0  0  0  0  0  0  0  0
   -2.4530    0.4320    0.1060 C   0  0  0  0  0  0  0  0  0  0  0  0
   -3.3470   -0.7900    0.2380 C   0  0  1  0  0  0  0  0  0  0  0  0
   -4.2960   -0.5700    1.2230 O   0  0  0  0  0  0  0  0  0  0  0  0
   -5.4670   -1.1570    0.8420 C   0  0  1  0  0  0  0  0  0  0  0  0
   -6.5840   -0.2290    1.0040 N   0  0  0  0  0  0  0  0  0  0  0  0
   -6.4810    1.0750    1.2960 C   0  0  0  0  0  0  0  0  0  0  0  0
   -7.7240    1.5840    1.3610 N   0  0  0  0  0  0  0  0  0  0  0  0
   -8.6220    0.6030    1.1100 C   0  0  0  0  0  0  0  0  0  0  0  0
  -10.0000    0.5740    1.0510 C   0  0  0  0  0  0  0  0  0  0  0  0
  -10.7590    1.7470    1.2800 N   0  0  0  0  0  0  0  0  0  0  0  0
  -10.5960   -0.5990    0.7690 N   0  0  0  0  0  0  0  0  0  0  0  0
   -9.8720   -1.7070    0.5520 C   0  0  0  0  0  0  0  0  0  0  0  0
   -8.5270   -1.7160    0.6010 N   0  0  0  0  0  0  0  0  0  0  0  0
   -7.8820   -0.5610    0.8810 C   0  0  0  0  0  0  0  0  0  0  0  0
   -5.3640   -1.6680   -0.5560 C   0  0  2  0  0  0  0  0  0  0  0  0
   -5.1180   -3.0560   -0.5610 O   0  0  0  0  0  0  0  0  0  0  0  0
   -4.1040   -0.9920   -1.0550 C   0  0  2  0  0  0  0  0  0  0  0  0
   -3.3910   -1.7570   -1.9470 O   0  0  0  0  0  0  0  0  0  0  0  0
    3.4670   -0.5940    2.0480 C   0  0  1  0  0  0  0  0  0  0  0  0
    3.5230   -1.6370    2.9740 O   0  0  0  0  0  0  0  0  0  0  0  0
    4.7630    0.2190    2.0650 C   0  0  1  0  0  0  0  0  0  0  0  0
    5.2450    0.3550    3.3620 O   0  0  0  0  0  0  0  0  0  0  0  0
    7.3980   -0.3990   -0.4540 C   0  0  0  0  0  0  0  0  0  0  0  0
  1  2  1  0
  2  3  2  0
  2  4  1  0
  4  5  2  0
  4 44  1  0
  5  6  1  0
  6  7  2  0
  7  8  1  0
  9  8  1  6
  8 44  2  0
  9 10  1  0
  9 42  1  0
 10 11  1  0
 11 12  1  6
 11 40  1  0
 12 13  1  0
 13 14  1  0
 14 15  2  0
 14 16  1  6
 14 17  1  0
 17 18  1  0
 18 19  2  0
 18 20  1  6
 18 21  1  0
 21 22  1  0
 23 22  1  6
 23 24  1  0
 23 38  1  0
 24 25  1  0
 25 26  1  6
 25 36  1  0
 26 27  1  0
 26 35  1  0
 27 28  2  0
 28 29  1  0
 29 30  2  0
 29 35  1  0
 30 31  1  0
 30 32  1  0
 32 33  2  0
 33 34  1  0
 34 35  2  0
 36 37  1  1
 36 38  1  0
 38 39  1  6
 40 41  1  1
 40 42  1  0
 42 43  1  1
M  CHG  2   8   1  16  -1
M  END
