
     RDKit          3D

 43 46  0  0  0  0  0  0  0  0999 V2000
   -6.8210    4.5460   -0.7170 C   0  0  0  0  0  0  0  0  0  0  0  0
   -5.9830    3.6240   -0.0390 O   0  0  0  0  0  0  0  0  0  0  0  0
   -5.5330    2.4690   -0.6550 C   0  0  0  0  0  0  0  0  0  0  0  0
   -5.9310    2.2460   -1.9590 C   0  0  0  0  0  0  0  0  0  0  0  0
   -5.5070    1.1200   -2.5980 C   0  0  0  0  0  0  0  0  0  0  0  0
   -4.6840    0.2040   -1.9530 C   0  0  0  0  0  0  0  0  0  0  0  0
   -4.2660    0.3880   -0.6630 C   0  0  0  0  0  0  0  0  0  0  0  0
   -3.3740   -0.5250    0.0770 C   0  0  0  0  0  0  0  0  0  0  0  0
   -1.8920   -0.0470   -0.0180 C   0  0  2  0  0  0  0  0  0  0  0  0
   -1.5890   -0.0770   -1.5040 C   0  0  0  0  0  0  0  0  0  0  0  0
   -1.1400    0.9360   -2.0280 N   0  0  0  0  0  0  0  0  0  0  0  0
   -0.7840    2.2410   -1.6400 C   0  0  0  0  0  0  0  0  0  0  0  0
   -0.2780    2.6500   -0.6340 N   0  0  0  0  0  0  0  0  0  0  0  0
    0.2790    2.5360    0.6430 C   0  0  0  0  0  0  0  0  0  0  0  0
   -0.3460    3.4080    1.4260 O   0  0  0  0  0  0  0  0  0  0  0  0
    1.2640    1.7030    1.0240 O   0  0  0  0  0  0  0  0  0  0  0  0
    2.2030    1.4220    1.9440 C   0  0  0  0  0  0  0  0  0  0  0  0
    3.1840    0.2770    1.6780 C   0  0  1  0  0  0  0  0  0  0  0  0
    3.4490   -0.0480    0.4370 O   0  0  0  0  0  0  0  0  0  0  0  0
    2.7400   -0.7080   -0.4520 C   0  0  0  0  0  0  0  0  0  0  0  0
    3.5550   -0.7530   -1.7690 C   0  0  0  0  0  0  0  0  0  0  0  0
    2.8680   -1.4350   -2.7410 O   0  0  0  0  0  0  0  0  0  0  0  0
    3.5770   -1.4630   -3.8340 O   0  0  0  0  0  0  0  0  0  0  0  0
    4.8680   -1.5990   -3.6050 O   0  0  0  0  0  0  0  0  0  0  0  0
    4.4860    0.9950    1.9740 O   0  0  0  0  0  0  0  0  0  0  0  0
    5.6370    0.2730    1.8440 C   0  0  0  0  0  0  0  0  0  0  0  0
    5.5860   -0.9340    1.4880 O   0  0  0  0  0  0  0  0  0  0  0  0
    6.8900    0.8170    2.0910 O   0  0  0  0  0  0  0  0  0  0  0  0
    3.0780   -0.7540    2.7470 C   0  0  0  0  0  0  0  0  0  0  0  0
    3.3380   -0.1940    3.9090 O   0  0  0  0  0  0  0  0  0  0  0  0
    2.7880   -2.0970    2.8230 N   0  0  0  0  0  0  0  0  0  0  0  0
    3.8310   -2.9300    3.5050 C   0  0  0  0  0  0  0  0  0  0  0  0
    1.6570   -2.8440    2.3700 C   0  0  0  0  0  0  0  0  0  0  0  0
    1.5230   -4.0690    2.7950 O   0  0  0  0  0  0  0  0  0  0  0  0
    0.5460   -2.4360    1.4360 C   0  0  0  0  0  0  0  0  0  0  0  0
   -0.0900   -1.3070    1.3810 C   0  0  0  0  0  0  0  0  0  0  0  0
   -0.9950   -1.1170    0.2920 N   0  0  0  0  0  0  0  0  0  0  0  0
   -1.2380   -2.0850   -0.7150 C   0  0  0  0  0  0  0  0  0  0  0  0
   -2.0080   -1.4790   -1.6140 N   0  0  0  0  0  0  0  0  0  0  0  0
   -0.5820   -3.3460   -0.6920 N   0  0  0  0  0  0  0  0  0  0  0  0
    0.3050   -3.5000    0.3920 C   0  0  0  0  0  0  0  0  0  0  0  0
    0.9330   -4.6160    0.4810 O   0  0  0  0  0  0  0  0  0  0  0  0
   -4.7210    1.5570   -0.0320 C   0  0  0  0  0  0  0  0  0  0  0  0
  1  2  1  0
  2  3  1  0
  3  4  2  0
  3 43  1  0
  4  5  1  0
  5  6  2  0
  6  7  1  0
  7  8  1  0
  7 43  2  0
  9  8  1  6
  9 10  1  0
  9 37  1  0
 10 11  2  0
 10 39  1  0
 11 12  1  0
 12 13  2  0
 13 14  1  0
 14 15  2  0
 14 16  1  0
 16 17  1  0
 17 18  1  0
 18 19  1  6
 18 25  1  0
 18 29  1  0
 19 20  1  0
 20 21  1  0
 21 22  1  0
 22 23  1  0
 23 24  1  0
 25 26  1  0
 26 27  2  0
 26 28  1  0
 29 30  2  0
 29 31  1  0
 31 32  1  0
 31 33  1  0
 33 34  2  0
 33 35  1  0
 35 36  2  0
 35 41  1  0
 36 37  1  0
 37 38  1  0
 38 39  2  0
 38 40  1  0
 40 41  1  0
 41 42  2  0
M  END
