
     RDKit          3D

 43 45  0  0  0  0  0  0  0  0999 V2000
    1.5590   -1.6440    1.5180 C   0  0  0  0  0  0  0  0  0  0  0  0
    0.9610   -1.7270    0.1140 C   0  0  1  0  0  0  0  0  0  0  0  0
    1.9850   -2.2780   -0.8420 C   0  0  0  0  0  0  0  0  0  0  0  0
    3.3820   -2.0420   -0.4420 C   0  0  0  0  0  0  0  0  0  0  0  0
    3.8020   -0.6610   -0.7370 N   0  0  0  0  0  0  0  0  0  0  0  0
    5.1000   -0.6170   -1.4120 C   0  0  0  0  0  0  0  0  0  0  0  0
    6.0930   -1.2900   -0.6050 C   0  0  0  0  0  0  0  0  0  0  0  0
    6.4780   -0.9610    0.7630 C   0  0  0  0  0  0  0  0  0  0  0  0
    7.3230    0.2090    0.7440 O   0  0  0  0  0  0  0  0  0  0  0  0
    8.4000   -0.4090    1.4140 O   0  0  0  0  0  0  0  0  0  0  0  0
    3.1920    0.5350   -0.2850 C   0  0  0  0  0  0  0  0  0  0  0  0
    3.8970    1.5300   -0.1850 O   0  0  0  0  0  0  0  0  0  0  0  0
    1.7510    0.6890    0.0510 N   0  0  0  0  0  0  0  0  0  0  0  0
    1.6440    1.9140    0.8070 C   0  0  0  0  0  0  0  0  0  0  0  0
    0.9340    3.0560    0.1860 C   0  0  2  0  0  0  0  0  0  0  0  0
    1.6360    4.2000   -0.1900 N   0  0  0  0  0  0  0  0  0  0  0  0
    1.2310    5.5220    0.0470 C   0  0  0  0  0  0  0  0  0  0  0  0
    0.1920    5.7060    0.7070 O   0  0  0  0  0  0  0  0  0  0  0  0
    1.9420    6.6390   -0.4050 O   0  0  0  0  0  0  0  0  0  0  0  0
   -0.3720    3.2740    0.9090 C   0  0  0  0  0  0  0  0  0  0  0  0
   -1.4640    3.6210   -0.0820 C   0  0  0  0  0  0  0  0  0  0  0  0
   -2.7500    3.8650    0.6760 C   0  0  0  0  0  0  0  0  0  0  0  0
   -3.4090    2.6130    0.7470 O   0  0  0  0  0  0  0  0  0  0  0  0
   -4.4350    2.5840   -0.1810 C   0  0  0  0  0  0  0  0  0  0  0  0
   -4.5010    1.2250   -0.8850 C   0  0  0  0  0  0  0  0  0  0  0  0
   -5.5820    0.5210   -0.2320 N   0  0  0  0  0  0  0  0  0  0  0  0
   -5.4810   -0.6890    0.4760 C   0  0  0  0  0  0  0  0  0  0  0  0
   -6.2470   -0.7750    1.5070 O   0  0  0  0  0  0  0  0  0  0  0  0
   -4.5850   -1.7930    0.1280 C   0  0  0  0  0  0  0  0  0  0  0  0
   -3.5030   -1.7080   -0.5640 O   0  0  0  0  0  0  0  0  0  0  0  0
   -3.0020   -2.9090   -0.6580 N   0  0  0  0  0  0  0  0  0  0  0  0
   -3.7370   -3.8110   -0.0210 C   0  0  0  0  0  0  0  0  0  0  0  0
   -3.5470   -5.0600    0.1050 O   0  0  0  0  0  0  0  0  0  0  0  0
   -4.7860   -3.1420    0.5060 C   0  0  0  0  0  0  0  0  0  0  0  0
   -5.9160   -3.6640    1.1850 N   0  0  0  0  0  0  0  0  0  0  0  0
   -6.5280   -4.8410    0.6850 C   0  0  0  0  0  0  0  0  0  0  0  0
   -6.0180   -5.3930   -0.3530 O   0  0  0  0  0  0  0  0  0  0  0  0
   -1.7860   -3.1950   -1.4150 C   0  0  0  0  0  0  0  0  0  0  0  0
   -0.7640   -3.5070   -0.3480 C   0  0  0  0  0  0  0  0  0  0  0  0
   -0.6050   -4.7370   -0.1610 O   0  0  0  0  0  0  0  0  0  0  0  0
   -0.1920   -2.4480    0.2250 O   0  0  0  0  0  0  0  0  0  0  0  0
    0.7930   -0.2730   -0.3100 C   0  0  0  0  0  0  0  0  0  0  0  0
   -0.2700   -0.1740   -0.9700 O   0  0  0  0  0  0  0  0  0  0  0  0
  2  1  1  1
  2  3  1  0
  2 41  1  0
  2 42  1  0
  3  4  1  0
  4  5  1  0
  5  6  1  0
  5 11  1  0
  6  7  1  0
  7  8  1  0
  8  9  1  0
  9 10  1  0
 11 12  2  0
 11 13  1  0
 13 14  1  0
 13 42  1  0
 14 15  1  0
 15 16  1  1
 15 20  1  0
 16 17  1  0
 17 18  2  0
 17 19  1  0
 20 21  1  0
 21 22  1  0
 22 23  1  0
 23 24  1  0
 24 25  1  0
 25 26  1  0
 26 27  1  0
 27 28  2  0
 27 29  1  0
 29 30  1  0
 29 34  2  0
 30 31  1  0
 31 32  1  0
 31 38  1  0
 32 33  2  0
 32 34  1  0
 34 35  1  0
 35 36  1  0
 36 37  2  0
 38 39  1  0
 39 40  2  0
 39 41  1  0
 42 43  2  0
M  END
