
     RDKit          3D

 23 24  0  0  0  0  0  0  0  0999 V2000
    4.4820    1.5520    0.9310 C   0  0  0  0  0  0  0  0  0  0  0  0
    3.5780    1.5220   -0.2590 C   0  0  0  0  0  0  0  0  0  0  0  0
    2.4000    0.9220   -0.2970 C   0  0  0  0  0  0  0  0  0  0  0  0
    1.8700    0.2530    0.7600 O   0  0  0  0  0  0  0  0  0  0  0  0
    1.4310   -0.9920    1.0520 C   0  0  0  0  0  0  0  0  0  0  0  0
    1.5100   -2.0760    0.0350 C   0  0  0  0  0  0  0  0  0  0  0  0
    0.6340   -3.1290    0.3630 O   0  0  0  0  0  0  0  0  0  0  0  0
   -0.6180   -3.0240    0.9440 C   0  0  0  0  0  0  0  0  0  0  0  0
   -0.8250   -3.7750    1.9850 O   0  0  0  0  0  0  0  0  0  0  0  0
   -1.5280   -2.1730    0.4130 O   0  0  0  0  0  0  0  0  0  0  0  0
   -2.4620   -2.2730   -0.5910 C   0  0  0  0  0  0  0  0  0  0  0  0
   -2.4100   -1.2110   -1.6650 C   0  0  0  0  0  0  0  0  0  0  0  0
   -2.8660    0.0520   -1.2520 O   0  0  0  0  0  0  0  0  0  0  0  0
   -2.5080    0.7300   -0.0800 C   0  0  0  0  0  0  0  0  0  0  0  0
   -1.2380    0.9480    0.2410 C   0  0  0  0  0  0  0  0  0  0  0  0
   -1.2390    1.6800    1.5300 C   0  0  0  0  0  0  0  0  0  0  0  0
   -2.6580    1.8460    1.8870 C   0  0  0  0  0  0  0  0  0  0  0  0
   -3.3820    1.2870    0.9390 C   0  0  0  0  0  0  0  0  0  0  0  0
   -4.7880    1.2980    1.0210 O   0  0  0  0  0  0  0  0  0  0  0  0
   -0.3150    0.4710   -0.6400 O   0  0  0  0  0  0  0  0  0  0  0  0
    0.3730    0.8100   -1.7190 C   0  0  0  0  0  0  0  0  0  0  0  0
    1.6930    1.0360   -1.5880 C   0  0  0  0  0  0  0  0  0  0  0  0
    2.3820    1.3890   -2.7490 O   0  0  0  0  0  0  0  0  0  0  0  0
  1  2  1  0
  2  3  2  3
  3  4  1  0
  3 22  1  0
  4  5  1  0
  5  6  1  0
  6  7  1  0
  7  8  1  0
  8  9  2  0
  8 10  1  0
 10 11  1  0
 11 12  1  0
 12 13  1  0
 13 14  1  0
 14 15  2  0
 14 18  1  0
 15 16  1  0
 15 20  1  0
 16 17  1  0
 17 18  2  0
 18 19  1  0
 20 21  1  0
 21 22  2  0
 22 23  1  0
M  END
