
     RDKit          3D

 23 24  0  0  0  0  0  0  0  0999 V2000
    5.0030    2.5810   -0.2420 C   0  0  0  0  0  0  0  0  0  0  0  0
    4.5730    1.3340   -0.0370 C   0  0  0  0  0  0  0  0  0  0  0  0
    3.2410    1.1140    0.4680 C   0  0  0  0  0  0  0  0  0  0  0  0
    2.8120   -0.1060    0.6710 C   0  0  0  0  0  0  0  0  0  0  0  0
    1.5330   -0.2980    1.1560 O   0  0  0  0  0  0  0  0  0  0  0  0
    0.4590   -0.4370    0.2920 C   0  0  0  0  0  0  0  0  0  0  0  0
    0.6800   -0.3830   -0.9410 O   0  0  0  0  0  0  0  0  0  0  0  0
   -0.9270   -0.6470    0.8410 C   0  0  0  0  0  0  0  0  0  0  0  0
   -1.9330   -0.7710   -0.2660 C   0  0  1  0  0  0  0  0  0  0  0  0
   -1.6900   -1.8250   -1.1220 O   0  0  0  0  0  0  0  0  0  0  0  0
   -3.3070   -0.8430    0.3740 C   0  0  2  0  0  0  0  0  0  0  0  0
   -3.4680   -2.0970    1.1960 C   0  0  0  0  0  0  0  0  0  0  0  0
   -4.3370   -0.8240   -0.5820 O   0  0  0  0  0  0  0  0  0  0  0  0
   -5.0820    0.3380   -0.3430 C   0  0  0  0  0  0  0  0  0  0  0  0
   -6.2830    0.5680   -0.6280 O   0  0  0  0  0  0  0  0  0  0  0  0
   -4.0920    1.2330    0.3340 C   0  0  1  0  0  0  0  0  0  0  0  0
   -4.7670    2.3180    1.1290 C   0  0  0  0  0  0  0  0  0  0  0  0
   -3.4430    0.3070    1.1500 O   0  0  0  0  0  0  0  0  0  0  0  0
    3.6680   -1.2380    0.3910 C   0  0  0  0  0  0  0  0  0  0  0  0
    3.2310   -2.5590    0.6020 O   0  0  0  0  0  0  0  0  0  0  0  0
    4.8850   -1.0960   -0.0680 C   0  0  0  0  0  0  0  0  0  0  0  0
    5.4680    0.2120   -0.3320 C   0  0  1  0  0  0  0  0  0  0  0  0
    5.7560    0.2730   -1.7040 O   0  0  0  0  0  0  0  0  0  0  0  0
  1  2  2  0
  2  3  1  0
  2 22  1  0
  3  4  2  0
  4  5  1  0
  4 19  1  0
  5  6  1  0
  6  7  2  0
  6  8  1  0
  8  9  1  0
  9 10  1  1
  9 11  1  0
 11 12  1  1
 11 13  1  0
 11 18  1  0
 13 14  1  0
 14 15  2  0
 14 16  1  0
 16 17  1  1
 16 18  1  0
 19 20  1  0
 19 21  2  0
 21 22  1  0
 22 23  1  6
M  END
