
     RDKit          3D

 23 24  0  0  0  0  0  0  0  0999 V2000
    4.0960    1.7860    1.6910 C   0  0  0  0  0  0  0  0  0  0  0  0
    3.6510    0.9690    0.5320 C   0  0  0  0  0  0  0  0  0  0  0  0
    4.5910    0.4360   -0.2540 C   0  0  0  0  0  0  0  0  0  0  0  0
    4.2770   -0.3320   -1.3450 O   0  0  0  0  0  0  0  0  0  0  0  0
    2.9540   -0.5750   -1.6570 C   0  0  0  0  0  0  0  0  0  0  0  0
    2.6680   -0.9320   -2.8220 O   0  0  0  0  0  0  0  0  0  0  0  0
    1.8570   -0.4290   -0.6700 C   0  0  1  0  0  0  0  0  0  0  0  0
    1.8340   -1.6110    0.1050 O   0  0  0  0  0  0  0  0  0  0  0  0
    0.7020   -2.3280    0.4130 C   0  0  0  0  0  0  0  0  0  0  0  0
    0.5140   -2.7200    1.5890 O   0  0  0  0  0  0  0  0  0  0  0  0
   -0.2850   -2.6380   -0.6200 C   0  0  0  0  0  0  0  0  0  0  0  0
   -1.0500   -1.5420   -0.9800 O   0  0  0  0  0  0  0  0  0  0  0  0
   -2.1830   -1.4680   -0.1850 C   0  0  1  0  0  0  0  0  0  0  0  0
   -1.9710   -2.0600    1.0420 O   0  0  0  0  0  0  0  0  0  0  0  0
   -2.4610    0.0300   -0.0100 C   0  0  2  0  0  0  0  0  0  0  0  0
   -2.1090    0.3980    1.3900 C   0  0  0  0  0  0  0  0  0  0  0  0
   -3.9740    0.1750   -0.1490 C   0  0  0  0  0  0  0  0  0  0  0  0
   -4.3330   -0.2880   -1.4230 O   0  0  0  0  0  0  0  0  0  0  0  0
   -1.8100    0.8330   -1.0730 C   0  0  0  0  0  0  0  0  0  0  0  0
   -0.7160    1.7470   -0.6460 C   0  0  0  0  0  0  0  0  0  0  0  0
   -0.0010    1.3720    0.4870 O   0  0  0  0  0  0  0  0  0  0  0  0
    1.3450    1.5440    0.7450 C   0  0  0  0  0  0  0  0  0  0  0  0
    2.2420    0.7290    0.2200 C   0  0  0  0  0  0  0  0  0  0  0  0
  1  2  1  0
  2  3  2  0
  2 23  1  0
  3  4  1  0
  4  5  1  0
  5  6  2  0
  5  7  1  0
  7  8  1  1
  7 23  1  0
  8  9  1  0
  9 10  2  0
  9 11  1  0
 11 12  1  0
 12 13  1  0
 13 14  1  1
 13 15  1  0
 15 16  1  1
 15 17  1  0
 15 19  1  0
 17 18  1  0
 19 20  1  0
 20 21  1  0
 21 22  1  0
 22 23  2  0
M  END
