
     RDKit          3D

 23 24  0  0  0  0  0  0  0  0999 V2000
    4.9860   -3.1710   -1.0570 C   0  0  0  0  0  0  0  0  0  0  0  0
    5.3260   -1.8020   -1.5360 C   0  0  0  0  0  0  0  0  0  0  0  0
    4.3280   -0.8450   -1.2560 O   0  0  0  0  0  0  0  0  0  0  0  0
    3.8920   -0.5260    0.0170 C   0  0  0  0  0  0  0  0  0  0  0  0
    4.4240   -1.1300    0.9760 O   0  0  0  0  0  0  0  0  0  0  0  0
    2.8450    0.4790    0.2960 C   0  0  1  0  0  0  0  0  0  0  0  0
    1.5330    0.0480   -0.3750 C   0  0  0  0  0  0  0  0  0  0  0  0
    0.4210    0.6590    0.4090 C   0  0  2  0  0  0  0  0  0  0  0  0
   -0.7690    0.8210   -0.3380 O   0  0  0  0  0  0  0  0  0  0  0  0
   -1.9620    0.2170   -0.0100 C   0  0  0  0  0  0  0  0  0  0  0  0
   -1.9730   -0.5140    1.0110 O   0  0  0  0  0  0  0  0  0  0  0  0
   -3.1870    0.4120   -0.8160 C   0  0  0  0  0  0  0  0  0  0  0  0
   -4.3480   -0.1480   -0.5380 C   0  0  0  0  0  0  0  0  0  0  0  0
   -4.6390   -1.0050    0.5390 O   0  0  0  0  0  0  0  0  0  0  0  0
   -5.3500    0.2380   -1.5160 C   0  0  0  0  0  0  0  0  0  0  0  0
   -6.6380    0.0240   -1.4910 C   0  0  0  0  0  0  0  0  0  0  0  0
   -7.2830   -0.6480   -0.4570 O   0  0  0  0  0  0  0  0  0  0  0  0
   -4.5950    0.9420   -2.5760 C   0  0  0  0  0  0  0  0  0  0  0  0
   -3.3510    1.1630   -1.9420 O   0  0  0  0  0  0  0  0  0  0  0  0
    0.9090    1.9600    0.9950 C   0  0  0  0  0  0  0  0  0  0  0  0
    1.9110    1.6370    2.0670 C   0  0  1  0  0  0  0  0  0  0  0  0
    1.1430    1.2290    3.3080 C   0  0  0  0  0  0  0  0  0  0  0  0
    2.6600    0.5430    1.6700 O   0  0  0  0  0  0  0  0  0  0  0  0
  1  2  1  0
  2  3  1  0
  3  4  1  0
  4  5  2  0
  6  4  1  1
  6  7  1  0
  6 23  1  0
  7  8  1  0
  8  9  1  6
  8 20  1  0
  9 10  1  0
 10 11  2  0
 10 12  1  0
 12 13  2  0
 12 19  1  0
 13 14  1  0
 13 15  1  0
 15 16  2  3
 15 18  1  0
 16 17  1  0
 18 19  1  0
 20 21  1  0
 21 22  1  1
 21 23  1  0
M  END
