
     RDKit          3D

 23 24  0  0  0  0  0  0  0  0999 V2000
    4.1730   -0.4970    1.6820 O   0  0  0  0  0  0  0  0  0  0  0  0
    3.9630   -0.7280    0.4640 C   0  0  0  0  0  0  0  0  0  0  0  0
    4.1770    0.3790   -0.5160 C   0  0  0  0  0  0  0  0  0  0  0  0
    2.9260    1.2340   -0.6400 C   0  0  0  0  0  0  0  0  0  0  0  0
    2.1740    1.0000    0.5020 O   0  0  0  0  0  0  0  0  0  0  0  0
    1.2680    1.7840    1.1380 C   0  0  0  0  0  0  0  0  0  0  0  0
    1.3860    2.1480    2.3470 O   0  0  0  0  0  0  0  0  0  0  0  0
    0.0620    2.2650    0.4220 C   0  0  0  0  0  0  0  0  0  0  0  0
   -0.5730    1.2720   -0.4510 C   0  0  0  0  0  0  0  0  0  0  0  0
   -0.3040    1.2970   -1.6410 O   0  0  0  0  0  0  0  0  0  0  0  0
   -1.5290    0.2220   -0.0160 C   0  0  2  0  0  0  0  0  0  0  0  0
   -2.9030    0.4620   -0.5770 C   0  0  0  0  0  0  0  0  0  0  0  0
   -3.5290    1.7550   -0.1860 C   0  0  0  0  0  0  0  0  0  0  0  0
   -2.8420    2.8800   -0.5670 O   0  0  0  0  0  0  0  0  0  0  0  0
   -1.5080   -0.0730    1.4360 C   0  0  0  0  0  0  0  0  0  0  0  0
   -1.6550   -1.5870    1.5930 C   0  0  0  0  0  0  0  0  0  0  0  0
   -1.6450   -2.1380    0.1850 C   0  0  0  0  0  0  0  0  0  0  0  0
   -1.0120   -1.0870   -0.6370 C   0  0  1  0  0  0  0  0  0  0  0  0
   -1.5990   -1.1370   -1.9260 O   0  0  0  0  0  0  0  0  0  0  0  0
    0.3210   -1.1000   -0.8240 O   0  0  0  0  0  0  0  0  0  0  0  0
    1.1000   -1.9880   -0.1640 C   0  0  0  0  0  0  0  0  0  0  0  0
    2.4390   -2.1290   -0.9010 C   0  0  0  0  0  0  0  0  0  0  0  0
    3.5440   -1.9480   -0.0380 O   0  0  0  0  0  0  0  0  0  0  0  0
  1  2  2  0
  2  3  1  0
  2 23  1  0
  3  4  1  0
  4  5  1  0
  5  6  1  0
  6  7  2  0
  6  8  1  0
  8  9  1  0
  9 10  2  0
  9 11  1  0
 11 12  1  6
 11 15  1  0
 11 18  1  0
 12 13  1  0
 13 14  1  0
 15 16  1  0
 16 17  1  0
 17 18  1  0
 18 19  1  6
 18 20  1  0
 20 21  1  0
 21 22  1  0
 22 23  1  0
M  END
