
     RDKit          3D

 23 24  0  0  0  0  0  0  0  0999 V2000
    2.8670   -4.0740    0.2570 C   0  0  0  0  0  0  0  0  0  0  0  0
    2.7180   -2.6980    0.4160 O   0  0  0  0  0  0  0  0  0  0  0  0
    1.5600   -2.2390   -0.1860 C   0  0  1  0  0  0  0  0  0  0  0  0
    0.6320   -1.7830    0.7800 O   0  0  0  0  0  0  0  0  0  0  0  0
   -0.6580   -2.0710    0.3330 C   0  0  0  0  0  0  0  0  0  0  0  0
   -1.7030   -1.2730    1.0640 C   0  0  0  0  0  0  0  0  0  0  0  0
   -2.2090   -0.0890    0.3510 C   0  0  2  0  0  0  0  0  0  0  0  0
   -3.7460   -0.1740    0.3590 C   0  0  0  0  0  0  0  0  0  0  0  0
   -3.9730   -1.0480   -0.8550 C   0  0  0  0  0  0  0  0  0  0  0  0
   -2.7930   -1.1510   -1.5370 O   0  0  0  0  0  0  0  0  0  0  0  0
   -2.0150   -0.0850   -1.1310 C   0  0  0  0  0  0  0  0  0  0  0  0
   -1.8650    1.2350    0.9560 C   0  0  0  0  0  0  0  0  0  0  0  0
   -0.3970    1.5690    0.9000 C   0  0  0  0  0  0  0  0  0  0  0  0
    0.0700    1.6790   -0.3860 O   0  0  0  0  0  0  0  0  0  0  0  0
    1.3050    2.2490   -0.5190 C   0  0  1  0  0  0  0  0  0  0  0  0
    1.8440    1.7710   -1.7390 O   0  0  0  0  0  0  0  0  0  0  0  0
    1.2360    3.7630   -0.6900 C   0  0  0  0  0  0  0  0  0  0  0  0
    0.6440    4.4030    0.3670 O   0  0  0  0  0  0  0  0  0  0  0  0
    2.3020    1.8490    0.5440 C   0  0  0  0  0  0  0  0  0  0  0  0
    2.7950    0.4520    0.3810 C   0  0  0  0  0  0  0  0  0  0  0  0
    2.5630   -0.0920   -0.8930 O   0  0  0  0  0  0  0  0  0  0  0  0
    1.8270   -1.1890   -1.1950 C   0  0  0  0  0  0  0  0  0  0  0  0
    1.3550   -1.3320   -2.3450 O   0  0  0  0  0  0  0  0  0  0  0  0
  1  2  1  0
  3  2  1  1
  3  4  1  0
  3 22  1  0
  4  5  1  0
  5  6  1  0
  7  6  1  1
  7  8  1  0
  7 11  1  0
  7 12  1  0
  8  9  1  0
  9 10  1  0
 10 11  1  0
 12 13  1  0
 13 14  1  0
 14 15  1  0
 15 16  1  6
 15 17  1  0
 15 19  1  0
 17 18  1  0
 19 20  1  0
 20 21  1  0
 21 22  1  0
 22 23  2  0
M  END
