
     RDKit          3D

 23 24  0  0  0  0  0  0  0  0999 V2000
   -5.4480    2.0510    1.6070 C   0  0  0  0  0  0  0  0  0  0  0  0
   -5.1650    1.2090    0.5210 O   0  0  0  0  0  0  0  0  0  0  0  0
   -4.7600   -0.0930    0.7120 C   0  0  0  0  0  0  0  0  0  0  0  0
   -4.6440   -0.5250    1.8880 O   0  0  0  0  0  0  0  0  0  0  0  0
   -4.4470   -1.0290   -0.3900 C   0  0  1  0  0  0  0  0  0  0  0  0
   -4.6020   -0.4680   -1.6370 O   0  0  0  0  0  0  0  0  0  0  0  0
   -3.0190   -1.5130   -0.1740 C   0  0  0  0  0  0  0  0  0  0  0  0
   -2.1250   -0.2790   -0.2060 C   0  0  0  0  0  0  0  0  0  0  0  0
   -0.6760   -0.7080    0.0070 C   0  0  1  0  0  0  0  0  0  0  0  0
   -0.6280   -1.3290    1.2470 O   0  0  0  0  0  0  0  0  0  0  0  0
    0.6680   -1.5940    1.6650 C   0  0  0  0  0  0  0  0  0  0  0  0
    1.6330   -0.9340    0.8640 O   0  0  0  0  0  0  0  0  0  0  0  0
    1.8120   -0.8590   -0.4770 C   0  0  0  0  0  0  0  0  0  0  0  0
    2.7450   -0.1620   -1.0330 C   0  0  0  0  0  0  0  0  0  0  0  0
    3.7680    0.6600   -0.4800 C   0  0  0  0  0  0  0  0  0  0  0  0
    4.6060    1.2700   -1.3340 C   0  0  0  0  0  0  0  0  0  0  0  0
    5.7080    2.1450   -0.9410 C   0  0  0  0  0  0  0  0  0  0  0  0
    5.7910    2.2740    0.4420 O   0  0  0  0  0  0  0  0  0  0  0  0
    4.9670    1.6760    1.3330 C   0  0  0  0  0  0  0  0  0  0  0  0
    3.9780    0.8890    0.9260 C   0  0  0  0  0  0  0  0  0  0  0  0
    3.2170    0.3460    1.9330 O   0  0  0  0  0  0  0  0  0  0  0  0
    0.8930   -1.6190   -1.4360 C   0  0  0  0  0  0  0  0  0  0  0  0
   -0.3950   -1.6580   -0.9630 O   0  0  0  0  0  0  0  0  0  0  0  0
  1  2  1  0
  2  3  1  0
  3  4  2  0
  3  5  1  0
  5  6  1  6
  5  7  1  0
  7  8  1  0
  9  8  1  6
  9 10  1  0
  9 23  1  0
 10 11  1  0
 11 12  1  0
 12 13  1  0
 13 14  2  3
 13 22  1  0
 14 15  1  0
 15 16  2  0
 15 20  1  0
 16 17  1  0
 17 18  1  0
 18 19  1  0
 19 20  2  0
 20 21  1  0
 22 23  1  0
M  END
