
     RDKit          3D

 16 16  0  0  0  0  0  0  0  0999 V2000
    4.0400   -0.4920   -0.8360 N   0  0  0  0  0  0  0  0  0  0  0  0
    3.1150    0.3570   -0.2190 C   0  0  0  0  0  0  0  0  0  0  0  0
    3.4950    1.4600    0.2220 O   0  0  0  0  0  0  0  0  0  0  0  0
    1.6860    0.0080   -0.0610 C   0  0  0  0  0  0  0  0  0  0  0  0
    1.3510   -1.0800   -0.5050 O   0  0  0  0  0  0  0  0  0  0  0  0
    0.7690    0.8460    0.5490 N   0  0  0  0  0  0  0  0  0  0  0  0
   -0.6210    0.7420    0.7920 C   0  0  0  0  0  0  0  0  0  0  0  0
   -1.3920    1.9480    1.9120 S   0  0  0  0  0  0  0  0  0  0  0  0
   -3.0740    1.2650    1.7310 C   0  0  0  0  0  0  0  0  0  0  0  0
   -4.4850    1.9060    2.5420 Cl  0  0  0  0  0  0  0  0  0  0  0  0
   -2.8890    0.2330    0.8710 C   0  0  0  0  0  0  0  0  0  0  0  0
   -4.3680   -0.7300    0.4540 Cl  0  0  0  0  0  0  0  0  0  0  0  0
   -1.6580   -0.0440    0.3860 C   0  0  0  0  0  0  0  0  0  0  0  0
   -1.4370   -1.3560   -0.8170 S   0  0  1  0  0  0  0  0  0  0  0  0
   -1.0780   -2.6180   -0.1650 O   0  0  0  0  0  0  0  0  0  0  0  0
   -2.8100   -1.6290   -1.4820 O   0  0  0  0  0  0  0  0  0  0  0  0
  1  2  1  0
  2  3  2  0
  2  4  1  0
  4  5  2  0
  4  6  1  0
  6  7  1  0
  7  8  1  0
  7 13  2  0
  8  9  1  0
  9 10  1  0
  9 11  2  0
 11 12  1  0
 11 13  1  0
 14 13  1  1
 14 15  2  0
 14 16  2  0
M  END
