
     RDKit          3D

 20 20  0  0  0  0  0  0  0  0999 V2000
    1.7060    4.0290    0.5000 C   0  0  0  0  0  0  0  0  0  0  0  0
    0.7120    3.2010    0.7320 C   0  0  0  0  0  0  0  0  0  0  0  0
    0.1320    2.4020   -0.4310 C   0  0  0  0  0  0  0  0  0  0  0  0
    0.2740    0.9520   -0.1410 C   0  0  0  0  0  0  0  0  0  0  0  0
    1.5160    0.3930   -0.5310 C   0  0  0  0  0  0  0  0  0  0  0  0
    1.8840   -0.8600   -0.1590 C   0  0  0  0  0  0  0  0  0  0  0  0
    3.1220   -1.5260   -0.4820 C   0  0  0  0  0  0  0  0  0  0  0  0
    3.2270   -2.7740   -0.0400 O   0  0  0  0  0  0  0  0  0  0  0  0
    4.2440   -1.0570   -1.1960 C   0  0  0  0  0  0  0  0  0  0  0  0
    4.5560    0.0500   -1.7700 C   0  0  0  0  0  0  0  0  0  0  0  0
    0.9390   -1.5620    0.6430 C   0  0  0  0  0  0  0  0  0  0  0  0
   -0.2550   -1.0610    1.0300 C   0  0  0  0  0  0  0  0  0  0  0  0
   -1.1440   -1.7770    1.8090 O   0  0  0  0  0  0  0  0  0  0  0  0
   -0.9320   -3.0770    2.2870 C   0  0  0  0  0  0  0  0  0  0  0  0
   -0.7630   -4.1120    1.2030 C   0  0  0  0  0  0  0  0  0  0  0  0
   -0.6100    0.2570    0.6170 C   0  0  0  0  0  0  0  0  0  0  0  0
   -1.9890    0.5850    0.9060 C   0  0  0  0  0  0  0  0  0  0  0  0
   -2.9530    1.0920    0.2340 C   0  0  0  0  0  0  0  0  0  0  0  0
   -3.0110    1.5420   -1.1690 C   0  0  0  0  0  0  0  0  0  0  0  0
   -4.1690    0.7980   -1.8490 C   0  0  0  0  0  0  0  0  0  0  0  0
  1  2  2  0
  2  3  1  0
  3  4  1  0
  4  5  2  0
  4 16  1  0
  5  6  1  0
  6  7  1  0
  6 11  2  0
  7  8  2  0
  7  9  1  0
  9 10  2  0
 11 12  1  0
 12 13  1  0
 12 16  2  0
 13 14  1  0
 14 15  1  0
 16 17  1  0
 17 18  2  3
 18 19  1  0
 19 20  1  0
M  END
