
     RDKit          3D

 20 20  0  0  0  0  0  0  0  0999 V2000
   -4.7300    3.7940   -0.1540 C   0  0  0  0  0  0  0  0  0  0  0  0
   -4.0570    2.5270    0.3180 C   0  0  0  0  0  0  0  0  0  0  0  0
   -3.4340    1.8540   -0.8930 C   0  0  0  0  0  0  0  0  0  0  0  0
   -2.7490    0.5850   -0.4810 C   0  0  0  0  0  0  0  0  0  0  0  0
   -3.4270   -0.6210   -0.4670 C   0  0  0  0  0  0  0  0  0  0  0  0
   -2.8170   -1.8020   -0.0910 C   0  0  0  0  0  0  0  0  0  0  0  0
   -3.5830   -3.0760   -0.0900 C   0  0  0  0  0  0  0  0  0  0  0  0
   -4.2300   -3.2860    1.2580 C   0  0  0  0  0  0  0  0  0  0  0  0
   -1.4770   -1.7530    0.2810 C   0  0  0  0  0  0  0  0  0  0  0  0
   -0.7660   -0.5730    0.2810 C   0  0  0  0  0  0  0  0  0  0  0  0
    0.6750   -0.5690    0.6900 C   0  0  0  0  0  0  0  0  0  0  0  0
    1.4580   -0.7780   -0.4110 O   0  0  0  0  0  0  0  0  0  0  0  0
    2.8290   -0.8000   -0.1720 C   0  0  1  0  0  0  0  0  0  0  0  0
    3.2610   -2.2300   -0.4320 C   0  0  0  0  0  0  0  0  0  0  0  0
    3.4790    0.1860   -1.0650 C   0  0  1  0  0  0  0  0  0  0  0  0
    2.9840    1.4560   -0.7980 O   0  0  0  0  0  0  0  0  0  0  0  0
    4.9640    0.2160   -1.0240 C   0  0  0  0  0  0  0  0  0  0  0  0
    5.5710    0.5350    0.3090 C   0  0  0  0  0  0  0  0  0  0  0  0
    5.2000    1.8700    0.8660 C   0  0  0  0  0  0  0  0  0  0  0  0
   -1.4240    0.5790   -0.1040 C   0  0  0  0  0  0  0  0  0  0  0  0
  1  2  1  0
  2  3  1  0
  3  4  1  0
  4  5  2  0
  4 20  1  0
  5  6  1  0
  6  7  1  0
  6  9  2  0
  7  8  1  0
  9 10  1  0
 10 11  1  0
 10 20  2  0
 11 12  1  0
 12 13  1  0
 13 14  1  6
 13 15  1  0
 15 16  1  1
 15 17  1  0
 17 18  1  0
 18 19  1  0
M  END
