
     RDKit          3D

 20 20  0  0  0  0  0  0  0  0999 V2000
   -4.8320   -1.2920   -1.0560 C   0  0  0  0  0  0  0  0  0  0  0  0
   -3.6170   -1.4980   -0.5560 C   0  0  0  0  0  0  0  0  0  0  0  0
   -3.2060   -0.8630    0.6910 C   0  0  0  0  0  0  0  0  0  0  0  0
   -2.0260    0.0440    0.6260 C   0  0  2  0  0  0  0  0  0  0  0  0
   -2.2240    1.2040   -0.3450 C   0  0  0  0  0  0  0  0  0  0  0  0
   -3.4000    1.9790    0.1260 C   0  0  0  0  0  0  0  0  0  0  0  0
   -3.3240    3.2570    0.4780 C   0  0  0  0  0  0  0  0  0  0  0  0
   -0.7080   -0.5860    0.5480 C   0  0  0  0  0  0  0  0  0  0  0  0
    0.1410   -0.3460    1.4310 O   0  0  0  0  0  0  0  0  0  0  0  0
   -0.2470   -1.5220   -0.5160 C   0  0  0  0  0  0  0  0  0  0  0  0
    1.2130   -1.8580   -0.3270 C   0  0  0  0  0  0  0  0  0  0  0  0
    2.1080   -0.7000   -0.3930 C   0  0  0  0  0  0  0  0  0  0  0  0
    1.7070    0.5650   -0.7440 C   0  0  0  0  0  0  0  0  0  0  0  0
    2.6000    1.6340   -0.7980 C   0  0  0  0  0  0  0  0  0  0  0  0
    3.9170    1.4550   -0.4980 C   0  0  0  0  0  0  0  0  0  0  0  0
    4.8770    2.5550   -0.5450 C   0  0  0  0  0  0  0  0  0  0  0  0
    6.0830    2.3940   -0.2720 O   0  0  0  0  0  0  0  0  0  0  0  0
    4.3330    0.1720   -0.1400 C   0  0  0  0  0  0  0  0  0  0  0  0
    3.4350   -0.8810   -0.0910 C   0  0  0  0  0  0  0  0  0  0  0  0
    3.9170   -2.2260    0.2940 C   0  0  0  0  0  0  0  0  0  0  0  0
  1  2  2  0
  2  3  1  0
  4  3  1  6
  4  5  1  0
  4  8  1  0
  5  6  1  0
  6  7  2  0
  8  9  2  0
  8 10  1  0
 10 11  1  0
 11 12  1  0
 12 13  2  0
 12 19  1  0
 13 14  1  0
 14 15  2  0
 15 16  1  0
 15 18  1  0
 16 17  2  0
 18 19  2  0
 19 20  1  0
M  END
