
     RDKit          3D

 20 20  0  0  0  0  0  0  0  0999 V2000
   -2.7050   -2.9930    0.4260 C   0  0  0  0  0  0  0  0  0  0  0  0
   -2.0800   -1.7290    0.4980 O   0  0  0  0  0  0  0  0  0  0  0  0
   -2.8280   -0.6040    0.2480 C   0  0  0  0  0  0  0  0  0  0  0  0
   -4.1770   -0.6610   -0.0740 C   0  0  0  0  0  0  0  0  0  0  0  0
   -4.9400    0.4530   -0.3260 C   0  0  0  0  0  0  0  0  0  0  0  0
   -6.3710    0.4010   -0.6670 C   0  0  0  0  0  0  0  0  0  0  0  0
   -4.3200    1.6900   -0.2540 C   0  0  0  0  0  0  0  0  0  0  0  0
   -5.1220    2.9080   -0.5230 C   0  0  0  0  0  0  0  0  0  0  0  0
   -2.9870    1.7800    0.0610 C   0  0  0  0  0  0  0  0  0  0  0  0
   -2.2390    0.6210    0.3130 C   0  0  0  0  0  0  0  0  0  0  0  0
   -0.8330    0.8540    0.6360 C   0  0  0  0  0  0  0  0  0  0  0  0
    0.0060   -0.3510    0.8720 C   0  0  0  0  0  0  0  0  0  0  0  0
    1.4170    0.1650    1.1880 C   0  0  0  0  0  0  0  0  0  0  0  0
    2.3780   -0.9430    1.4480 C   0  0  0  0  0  0  0  0  0  0  0  0
    3.7300   -0.3430    1.7440 C   0  0  0  0  0  0  0  0  0  0  0  0
    4.3150    0.4750    0.6500 C   0  0  0  0  0  0  0  0  0  0  0  0
    4.5620   -0.2450   -0.6310 C   0  0  2  0  0  0  0  0  0  0  0  0
    5.5180   -1.4070   -0.4780 C   0  0  0  0  0  0  0  0  0  0  0  0
    5.2160    0.6800   -1.6680 C   0  0  0  0  0  0  0  0  0  0  0  0
    3.4000   -0.7050   -1.2360 O   0  0  0  0  0  0  0  0  0  0  0  0
  1  2  1  0
  2  3  1  0
  3  4  2  0
  3 10  1  0
  4  5  1  0
  5  6  1  0
  5  7  2  0
  7  8  1  0
  7  9  1  0
  9 10  2  0
 10 11  1  0
 11 12  1  0
 12 13  1  0
 13 14  1  0
 14 15  1  0
 15 16  1  0
 16 17  1  0
 17 18  1  1
 17 19  1  0
 17 20  1  0
M  END
