
     RDKit          3D

 20 20  0  0  0  0  0  0  0  0999 V2000
    5.7510    1.0560   -1.2430 C   0  0  0  0  0  0  0  0  0  0  0  0
    4.3880    0.5710   -1.6640 C   0  0  0  0  0  0  0  0  0  0  0  0
    4.2890   -0.9070   -1.4720 C   0  0  0  0  0  0  0  0  0  0  0  0
    4.5120   -1.2470   -0.0220 C   0  0  0  0  0  0  0  0  0  0  0  0
    3.4980   -0.5910    0.8800 C   0  0  0  0  0  0  0  0  0  0  0  0
    2.1040   -1.0280    0.5190 C   0  0  0  0  0  0  0  0  0  0  0  0
    1.0840   -0.3930    1.4060 C   0  0  0  0  0  0  0  0  0  0  0  0
    1.4460    0.3660    2.2770 O   0  0  0  0  0  0  0  0  0  0  0  0
   -0.3480   -0.7130    1.1920 C   0  0  0  0  0  0  0  0  0  0  0  0
   -1.1660    0.0500    2.2090 C   0  0  1  0  0  0  0  0  0  0  0  0
   -0.9680    1.4020    2.0600 O   0  0  0  0  0  0  0  0  0  0  0  0
   -2.6280   -0.3300    2.1550 C   0  0  0  0  0  0  0  0  0  0  0  0
   -3.1990   -0.0430    0.8160 C   0  0  0  0  0  0  0  0  0  0  0  0
   -3.1760   -0.9900   -0.1800 C   0  0  0  0  0  0  0  0  0  0  0  0
   -3.7240   -0.6700   -1.4150 C   0  0  0  0  0  0  0  0  0  0  0  0
   -3.7170   -1.6680   -2.5140 C   0  0  0  0  0  0  0  0  0  0  0  0
   -4.2800    0.5850   -1.6230 C   0  0  0  0  0  0  0  0  0  0  0  0
   -4.3010    1.5230   -0.6320 C   0  0  0  0  0  0  0  0  0  0  0  0
   -4.9090    2.8450   -0.9160 C   0  0  0  0  0  0  0  0  0  0  0  0
   -3.7540    1.2090    0.6070 C   0  0  0  0  0  0  0  0  0  0  0  0
  1  2  1  0
  2  3  1  0
  3  4  1  0
  4  5  1  0
  5  6  1  0
  6  7  1  0
  7  8  2  0
  7  9  1  0
  9 10  1  0
 10 11  1  6
 10 12  1  0
 12 13  1  0
 13 14  2  0
 13 20  1  0
 14 15  1  0
 15 16  1  0
 15 17  2  0
 17 18  1  0
 18 19  1  0
 18 20  2  0
M  END
