
     RDKit          3D

 20 20  0  0  0  0  0  0  0  0999 V2000
    4.4870   -0.6810   -1.2870 C   0  0  0  0  0  0  0  0  0  0  0  0
    4.9830    0.4770   -0.4770 C   0  0  0  0  0  0  0  0  0  0  0  0
    3.8540    1.1150    0.2450 C   0  0  0  0  0  0  0  0  0  0  0  0
    4.0620    2.2940    1.1410 C   0  0  0  0  0  0  0  0  0  0  0  0
    2.6480    0.6130    0.0810 C   0  0  0  0  0  0  0  0  0  0  0  0
    1.4810    1.2260    0.7890 C   0  0  0  0  0  0  0  0  0  0  0  0
    0.8520    0.1820    1.6800 C   0  0  0  0  0  0  0  0  0  0  0  0
    0.4090   -0.9880    0.8900 C   0  0  0  0  0  0  0  0  0  0  0  0
    1.3330   -2.0400    0.8450 C   0  0  0  0  0  0  0  0  0  0  0  0
    1.0300   -3.1710    0.1420 C   0  0  0  0  0  0  0  0  0  0  0  0
   -0.1800   -3.2730   -0.5190 C   0  0  0  0  0  0  0  0  0  0  0  0
   -1.0930   -2.2590   -0.4880 C   0  0  0  0  0  0  0  0  0  0  0  0
   -2.3850   -2.3750   -1.1960 C   0  0  0  0  0  0  0  0  0  0  0  0
   -0.7940   -1.0940    0.2300 C   0  0  0  0  0  0  0  0  0  0  0  0
   -1.7390   -0.1220    0.2240 O   0  0  0  0  0  0  0  0  0  0  0  0
   -1.9180    0.8310   -0.7650 C   0  0  0  0  0  0  0  0  0  0  0  0
   -3.0940    1.7140   -0.3010 C   0  0  0  0  0  0  0  0  0  0  0  0
   -4.2910    0.8220   -0.1520 C   0  0  0  0  0  0  0  0  0  0  0  0
   -5.5170    1.5750    0.3040 C   0  0  0  0  0  0  0  0  0  0  0  0
   -6.5780    0.6580    0.4120 O   0  0  0  0  0  0  0  0  0  0  0  0
  1  2  1  0
  2  3  1  0
  3  4  1  0
  3  5  2  3
  5  6  1  0
  6  7  1  0
  7  8  1  0
  8  9  2  0
  8 14  1  0
  9 10  1  0
 10 11  2  0
 11 12  1  0
 12 13  1  0
 12 14  2  0
 14 15  1  0
 15 16  1  0
 16 17  1  0
 17 18  1  0
 18 19  1  0
 19 20  1  0
M  END
