
     RDKit          3D

 20 20  0  0  0  0  0  0  0  0999 V2000
    3.8460    2.9070   -0.7380 C   0  0  0  0  0  0  0  0  0  0  0  0
    4.4700    1.7810   -0.9820 C   0  0  0  0  0  0  0  0  0  0  0  0
    3.8430    0.5000   -0.6970 C   0  0  0  0  0  0  0  0  0  0  0  0
    4.5060   -0.5960   -0.9580 C   0  0  0  0  0  0  0  0  0  0  0  0
    5.8620   -0.5240   -1.5310 C   0  0  0  0  0  0  0  0  0  0  0  0
    2.4780    0.5320   -0.1270 C   0  0  0  0  0  0  0  0  0  0  0  0
    1.8800   -0.8180    0.1280 C   0  0  2  0  0  0  0  0  0  0  0  0
    1.7620   -1.5840   -1.0220 O   0  0  0  0  0  0  0  0  0  0  0  0
    0.4460   -0.6600    0.6810 C   0  0  0  0  0  0  0  0  0  0  0  0
   -0.0660   -2.0370    0.9040 C   0  0  0  0  0  0  0  0  0  0  0  0
   -1.4230   -2.2140    1.4700 C   0  0  0  0  0  0  0  0  0  0  0  0
   -2.5250   -1.7640    0.9060 O   0  0  0  0  0  0  0  0  0  0  0  0
   -3.1460   -0.6520    0.5830 C   0  0  0  0  0  0  0  0  0  0  0  0
   -2.6920    0.6130    0.8470 C   0  0  0  0  0  0  0  0  0  0  0  0
   -3.3950    1.7690    0.4850 C   0  0  0  0  0  0  0  0  0  0  0  0
   -2.8630    3.1040    0.7920 C   0  0  0  0  0  0  0  0  0  0  0  0
   -4.6110    1.6450   -0.1710 C   0  0  0  0  0  0  0  0  0  0  0  0
   -5.1030    0.3920   -0.4550 C   0  0  0  0  0  0  0  0  0  0  0  0
   -4.3800   -0.7000   -0.0820 C   0  0  0  0  0  0  0  0  0  0  0  0
   -4.9180   -2.0450   -0.3920 C   0  0  0  0  0  0  0  0  0  0  0  0
  1  2  2  0
  2  3  1  0
  3  4  2  3
  3  6  1  0
  4  5  1  0
  6  7  1  0
  7  8  1  6
  7  9  1  0
  9 10  1  0
 10 11  1  0
 11 12  1  0
 12 13  1  0
 13 14  2  0
 13 19  1  0
 14 15  1  0
 15 16  1  0
 15 17  2  0
 17 18  1  0
 18 19  2  0
 19 20  1  0
M  END
