
     RDKit          3D

 20 20  0  0  0  0  0  0  0  0999 V2000
    2.7280    2.9330    0.8350 C   0  0  0  0  0  0  0  0  0  0  0  0
    3.0580    1.5680    0.2450 C   0  0  0  0  0  0  0  0  0  0  0  0
    2.2190    1.3040   -0.9630 C   0  0  0  0  0  0  0  0  0  0  0  0
    2.5350   -0.0550   -1.5570 C   0  0  0  0  0  0  0  0  0  0  0  0
    3.8980   -0.2740   -1.9500 C   0  0  0  0  0  0  0  0  0  0  0  0
    4.3570   -1.3330   -2.4410 O   0  0  0  0  0  0  0  0  0  0  0  0
    1.5670   -0.9080   -1.6490 C   0  0  0  0  0  0  0  0  0  0  0  0
    1.6930   -2.2660   -2.2000 C   0  0  0  0  0  0  0  0  0  0  0  0
    1.4320   -3.3500   -1.1640 C   0  0  0  0  0  0  0  0  0  0  0  0
    0.2920   -0.5020   -1.1870 O   0  0  0  0  0  0  0  0  0  0  0  0
   -0.0090   -0.6740    0.1480 C   0  0  0  0  0  0  0  0  0  0  0  0
   -1.3730   -0.2020    0.5190 C   0  0  0  0  0  0  0  0  0  0  0  0
   -1.7880   -0.3280    1.8500 C   0  0  0  0  0  0  0  0  0  0  0  0
   -0.8230   -0.9340    2.8080 C   0  0  0  0  0  0  0  0  0  0  0  0
   -3.0210    0.0760    2.2880 C   0  0  0  0  0  0  0  0  0  0  0  0
   -3.8980    0.6330    1.3850 C   0  0  0  0  0  0  0  0  0  0  0  0
   -5.2500    1.0880    1.8100 C   0  0  0  0  0  0  0  0  0  0  0  0
   -3.5380    0.7790    0.0640 C   0  0  0  0  0  0  0  0  0  0  0  0
   -2.2700    0.3570   -0.3570 C   0  0  0  0  0  0  0  0  0  0  0  0
   -1.8910    0.5190   -1.7790 C   0  0  0  0  0  0  0  0  0  0  0  0
  1  2  1  0
  2  3  1  0
  3  4  1  0
  4  5  1  0
  4  7  2  3
  5  6  2  0
  7  8  1  0
  7 10  1  0
  8  9  1  0
 10 11  1  0
 11 12  1  0
 12 13  2  0
 12 19  1  0
 13 14  1  0
 13 15  1  0
 15 16  2  0
 16 17  1  0
 16 18  1  0
 18 19  2  0
 19 20  1  0
M  END
