
     RDKit          3D

 20 21  0  0  0  0  0  0  0  0999 V2000
    6.4600    1.4620    0.9900 C   0  0  0  0  0  0  0  0  0  0  0  0
    5.2780    1.6020    0.4700 C   0  0  0  0  0  0  0  0  0  0  0  0
    4.8690    0.8750   -0.7880 C   0  0  0  0  0  0  0  0  0  0  0  0
    3.6810    0.0130   -0.4350 C   0  0  0  0  0  0  0  0  0  0  0  0
    2.4760    0.0810   -0.9660 C   0  0  0  0  0  0  0  0  0  0  0  0
    2.1210    1.0600   -2.0290 C   0  0  0  0  0  0  0  0  0  0  0  0
    1.5810   -0.9020   -0.3850 C   0  0  0  0  0  0  0  0  0  0  0  0
    0.2500   -1.1280   -0.6880 O   0  0  0  0  0  0  0  0  0  0  0  0
   -0.7990   -0.3180   -0.1580 C   0  0  0  0  0  0  0  0  0  0  0  0
   -2.0830   -0.8660   -0.7070 C   0  0  0  0  0  0  0  0  0  0  0  0
   -3.2990   -0.1250   -0.2460 C   0  0  2  0  0  0  0  0  0  0  0  0
   -4.5070   -0.8060   -0.8910 C   0  0  0  0  0  0  0  0  0  0  0  0
   -4.4990   -2.1250   -0.4470 O   0  0  0  0  0  0  0  0  0  0  0  0
   -3.3030    1.3260   -0.5880 C   0  0  0  0  0  0  0  0  0  0  0  0
   -4.0110    2.0360    0.5530 C   0  0  0  0  0  0  0  0  0  0  0  0
   -4.5570    0.9140    1.4360 C   0  0  0  0  0  0  0  0  0  0  0  0
   -3.4990   -0.1510    1.2330 C   0  0  0  0  0  0  0  0  0  0  0  0
    2.2760   -1.5710    0.5160 C   0  0  0  0  0  0  0  0  0  0  0  0
    1.7060   -2.6840    1.3460 C   0  0  0  0  0  0  0  0  0  0  0  0
    3.6620   -1.0620    0.5730 C   0  0  0  0  0  0  0  0  0  0  0  0
  1  2  2  0
  2  3  1  0
  3  4  1  0
  4  5  2  0
  4 20  1  0
  5  6  1  0
  5  7  1  0
  7  8  1  0
  7 18  2  0
  8  9  1  0
  9 10  1  0
 11 10  1  1
 11 12  1  0
 11 14  1  0
 11 17  1  0
 12 13  1  0
 14 15  1  0
 15 16  1  0
 16 17  1  0
 18 19  1  0
 18 20  1  0
M  END
