
     RDKit          3D

 20 20  0  0  0  0  0  0  0  0999 V2000
    3.8580   -0.8110   -2.7530 C   0  0  0  0  0  0  0  0  0  0  0  0
    4.0970   -1.1260   -1.5050 C   0  0  0  0  0  0  0  0  0  0  0  0
    3.8220   -0.3600   -0.3170 C   0  0  0  0  0  0  0  0  0  0  0  0
    4.1810   -0.8910    0.8560 C   0  0  0  0  0  0  0  0  0  0  0  0
    3.9330   -0.1670    2.1110 C   0  0  0  0  0  0  0  0  0  0  0  0
    3.1960    0.9710   -0.2520 C   0  0  0  0  0  0  0  0  0  0  0  0
    1.7860    1.0240   -0.7390 C   0  0  0  0  0  0  0  0  0  0  0  0
    0.8810    0.1020    0.0680 C   0  0  0  0  0  0  0  0  0  0  0  0
   -0.5320    0.2140   -0.4960 C   0  0  2  0  0  0  0  0  0  0  0  0
   -0.9970    1.6020   -0.3490 C   0  0  0  0  0  0  0  0  0  0  0  0
   -0.4920    2.3620    0.5050 O   0  0  0  0  0  0  0  0  0  0  0  0
   -2.0030    2.1260   -1.1350 O   0  0  0  0  0  0  0  0  0  0  0  0
   -2.4290    3.4600   -0.9680 C   0  0  0  0  0  0  0  0  0  0  0  0
   -2.9560    3.7210    0.4220 C   0  0  0  0  0  0  0  0  0  0  0  0
   -1.4580   -0.7210    0.2620 C   0  0  1  0  0  0  0  0  0  0  0  0
   -2.8560   -0.6530   -0.2650 C   0  0  0  0  0  0  0  0  0  0  0  0
   -3.8040   -1.3510    0.7100 C   0  0  0  0  0  0  0  0  0  0  0  0
   -3.1120   -2.5200    1.3290 C   0  0  0  0  0  0  0  0  0  0  0  0
   -2.1360   -3.0740    0.3150 C   0  0  0  0  0  0  0  0  0  0  0  0
   -0.9640   -2.1510    0.1840 C   0  0  0  0  0  0  0  0  0  0  0  0
  1  2  2  0
  2  3  1  0
  3  4  2  3
  3  6  1  0
  4  5  1  0
  6  7  1  0
  7  8  1  0
  9  8  1  1
  9 10  1  0
  9 15  1  0
 10 11  2  0
 10 12  1  0
 12 13  1  0
 13 14  1  0
 15 16  1  6
 15 20  1  0
 16 17  1  0
 17 18  1  0
 18 19  1  0
 19 20  1  0
M  END
