
     RDKit          3D

 20 20  0  0  0  0  0  0  0  0999 V2000
   -4.3540    2.4290    0.4150 C   0  0  0  0  0  0  0  0  0  0  0  0
   -3.3540    1.9880   -0.5930 C   0  0  0  0  0  0  0  0  0  0  0  0
   -2.5930    0.7430   -0.1830 C   0  0  0  0  0  0  0  0  0  0  0  0
   -2.8470   -0.3370   -0.8710 C   0  0  0  0  0  0  0  0  0  0  0  0
   -2.1860   -1.6410   -0.5850 C   0  0  0  0  0  0  0  0  0  0  0  0
   -3.8250   -0.3910   -1.9690 C   0  0  0  0  0  0  0  0  0  0  0  0
   -4.8080   -1.3590   -1.6090 O   0  0  0  0  0  0  0  0  0  0  0  0
   -1.5630    0.8000    0.8200 C   0  0  0  0  0  0  0  0  0  0  0  0
   -0.7510   -0.3970    0.9410 O   0  0  0  0  0  0  0  0  0  0  0  0
    0.4510   -0.3020    0.1860 C   0  0  0  0  0  0  0  0  0  0  0  0
    1.2970   -1.5370    0.3190 C   0  0  0  0  0  0  0  0  0  0  0  0
    2.5390   -1.3240   -0.5210 C   0  0  2  0  0  0  0  0  0  0  0  0
    3.4630   -2.5330   -0.4470 C   0  0  0  0  0  0  0  0  0  0  0  0
    4.3320   -2.4670   -1.7070 C   0  0  0  0  0  0  0  0  0  0  0  0
    4.8960   -1.0700   -1.8070 C   0  0  0  0  0  0  0  0  0  0  0  0
    4.7680   -0.3150   -0.5060 C   0  0  0  0  0  0  0  0  0  0  0  0
    3.3410   -0.1310   -0.0700 C   0  0  0  0  0  0  0  0  0  0  0  0
   -1.2310    1.7680    1.6320 C   0  0  0  0  0  0  0  0  0  0  0  0
   -0.0520    1.4280    2.5820 C   0  0  0  0  0  0  0  0  0  0  0  0
   -1.7390    3.1070    1.8580 C   0  0  0  0  0  0  0  0  0  0  0  0
  1  2  1  0
  2  3  1  0
  3  4  2  3
  3  8  1  0
  4  5  1  0
  4  6  1  0
  6  7  1  0
  8  9  1  0
  8 18  2  3
  9 10  1  0
 10 11  1  0
 12 11  1  1
 12 13  1  0
 12 17  1  0
 13 14  1  0
 14 15  1  0
 15 16  1  0
 16 17  1  0
 18 19  1  0
 18 20  1  0
M  END
