
     RDKit          3D

 20 20  0  0  0  0  0  0  0  0999 V2000
   -5.8330    2.4470    1.2940 C   0  0  0  0  0  0  0  0  0  0  0  0
   -4.8840    1.7260    0.7200 C   0  0  0  0  0  0  0  0  0  0  0  0
   -5.1800    0.7690   -0.4000 C   0  0  0  0  0  0  0  0  0  0  0  0
   -4.4340    1.1210   -1.6310 C   0  0  0  0  0  0  0  0  0  0  0  0
   -2.9670    1.1990   -1.5940 C   0  0  0  0  0  0  0  0  0  0  0  0
   -2.1190    0.0330   -1.3040 C   0  0  0  0  0  0  0  0  0  0  0  0
   -2.2320   -0.6600    0.0040 C   0  0  0  0  0  0  0  0  0  0  0  0
   -1.2520   -1.6830    0.1370 O   0  0  0  0  0  0  0  0  0  0  0  0
    0.0780   -1.3790    0.2340 C   0  0  0  0  0  0  0  0  0  0  0  0
    0.5900   -0.1210    0.2750 C   0  0  0  0  0  0  0  0  0  0  0  0
    1.9740    0.0600    0.3670 C   0  0  0  0  0  0  0  0  0  0  0  0
    2.8620   -0.9750    0.4190 C   0  0  0  0  0  0  0  0  0  0  0  0
    4.2990   -0.7690    0.5500 C   0  0  2  0  0  0  0  0  0  0  0  0
    4.8050   -1.1970    1.7830 O   0  0  0  0  0  0  0  0  0  0  0  0
    4.7720    0.5840    0.1740 C   0  0  0  0  0  0  0  0  0  0  0  0
    4.5230    0.9420   -1.2390 C   0  0  0  0  0  0  0  0  0  0  0  0
    3.8920    2.0340   -1.5940 C   0  0  0  0  0  0  0  0  0  0  0  0
    2.3450   -2.2820    0.3790 C   0  0  0  0  0  0  0  0  0  0  0  0
    3.2410   -3.4570    0.4330 C   0  0  0  0  0  0  0  0  0  0  0  0
    0.9890   -2.4470    0.2890 C   0  0  0  0  0  0  0  0  0  0  0  0
  1  2  2  0
  2  3  1  0
  3  4  1  0
  4  5  1  0
  5  6  1  0
  6  7  1  0
  7  8  1  0
  8  9  1  0
  9 10  2  0
  9 20  1  0
 10 11  1  0
 11 12  2  0
 12 13  1  0
 12 18  1  0
 13 14  1  1
 13 15  1  0
 15 16  1  0
 16 17  2  0
 18 19  1  0
 18 20  2  0
M  END
