
     RDKit          3D

 20 20  0  0  0  0  0  0  0  0999 V2000
    5.9400   -0.7190    0.2870 C   0  0  0  0  0  0  0  0  0  0  0  0
    4.9590   -1.8270   -0.0060 C   0  0  0  0  0  0  0  0  0  0  0  0
    3.5740   -1.2960   -0.3670 C   0  0  0  0  0  0  0  0  0  0  0  0
    3.0370   -0.4780    0.7810 C   0  0  0  0  0  0  0  0  0  0  0  0
    1.6700    0.0100    0.3850 C   0  0  0  0  0  0  0  0  0  0  0  0
    1.5370    1.1900   -0.3000 C   0  0  0  0  0  0  0  0  0  0  0  0
    0.2750    1.6400   -0.6440 C   0  0  0  0  0  0  0  0  0  0  0  0
    0.1950    2.9240   -1.3810 C   0  0  0  0  0  0  0  0  0  0  0  0
   -0.8440    0.8940   -0.2930 C   0  0  0  0  0  0  0  0  0  0  0  0
   -2.1750    1.4410   -0.6330 C   0  0  0  0  0  0  0  0  0  0  0  0
   -2.5130    2.6300    0.2770 C   0  0  0  0  0  0  0  0  0  0  0  0
   -3.8960    3.1230   -0.1130 C   0  0  0  0  0  0  0  0  0  0  0  0
   -4.2490    4.2130    0.6840 O   0  0  0  0  0  0  0  0  0  0  0  0
   -0.7450   -0.2910    0.3900 C   0  0  0  0  0  0  0  0  0  0  0  0
   -1.8370   -1.1790    0.7360 C   0  0  0  0  0  0  0  0  0  0  0  0
   -2.2660   -2.1910   -0.2540 C   0  0  1  0  0  0  0  0  0  0  0  0
   -2.7350   -1.7480   -1.5800 C   0  0  0  0  0  0  0  0  0  0  0  0
   -1.2390   -3.3240   -0.4030 C   0  0  0  0  0  0  0  0  0  0  0  0
   -3.3760   -2.8600    0.3500 O   0  0  0  0  0  0  0  0  0  0  0  0
    0.5460   -0.7080    0.7190 C   0  0  0  0  0  0  0  0  0  0  0  0
  1  2  1  0
  2  3  1  0
  3  4  1  0
  4  5  1  0
  5  6  2  0
  5 20  1  0
  6  7  1  0
  7  8  1  0
  7  9  2  0
  9 10  1  0
  9 14  1  0
 10 11  1  0
 11 12  1  0
 12 13  1  0
 14 15  1  0
 14 20  2  0
 15 16  1  0
 16 17  1  6
 16 18  1  0
 16 19  1  0
M  END
