
     RDKit          3D

 20 20  0  0  0  0  0  0  0  0999 V2000
   -4.3430   -2.3040   -0.2290 C   0  0  0  0  0  0  0  0  0  0  0  0
   -3.6760   -1.8000    0.8250 O   0  0  0  0  0  0  0  0  0  0  0  0
   -2.3150   -1.6960    0.8020 C   0  0  2  0  0  0  0  0  0  0  0  0
   -1.6820   -3.0930    0.5590 C   0  0  0  0  0  0  0  0  0  0  0  0
   -1.8740   -1.3590    2.2260 C   0  0  0  0  0  0  0  0  0  0  0  0
   -1.7490   -0.7220   -0.2060 C   0  0  2  0  0  0  0  0  0  0  0  0
   -2.2120   -1.2860   -1.4520 O   0  0  0  0  0  0  0  0  0  0  0  0
   -0.2840   -0.7450   -0.3770 C   0  0  0  0  0  0  0  0  0  0  0  0
    0.6420   -0.4670    0.7120 C   0  0  0  0  0  0  0  0  0  0  0  0
    2.0900   -0.5450    0.2370 C   0  0  0  0  0  0  0  0  0  0  0  0
    2.4250    0.4260   -0.8440 C   0  0  0  0  0  0  0  0  0  0  0  0
    3.8900    0.2710   -1.2330 C   0  0  0  0  0  0  0  0  0  0  0  0
    4.8130    0.5250   -0.0810 C   0  0  1  0  0  0  0  0  0  0  0  0
    6.2360    0.3370   -0.6060 C   0  0  0  0  0  0  0  0  0  0  0  0
    4.6340    1.9620    0.3930 C   0  0  0  0  0  0  0  0  0  0  0  0
   -2.4470    0.5570   -0.1680 C   0  0  2  0  0  0  0  0  0  0  0  0
   -1.8950    1.5850   -1.1710 C   0  0  0  0  0  0  0  0  0  0  0  0
   -2.6370    2.8460   -0.7800 C   0  0  0  0  0  0  0  0  0  0  0  0
   -3.4310    2.5380    0.4650 C   0  0  0  0  0  0  0  0  0  0  0  0
   -2.6070    1.3610    1.0420 C   0  0  0  0  0  0  0  0  0  0  0  0
  1  2  1  0
  2  3  1  0
  3  4  1  6
  3  5  1  0
  3  6  1  0
  6  7  1  6
  6  8  1  0
  6 16  1  0
  8  9  1  0
  9 10  1  0
 10 11  1  0
 11 12  1  0
 12 13  1  0
 13 14  1  6
 13 15  1  0
 16 17  1  6
 16 20  1  0
 17 18  1  0
 18 19  1  0
 19 20  1  0
M  END
