
     RDKit          3D

 20 20  0  0  0  0  0  0  0  0999 V2000
   -3.9460    1.7090    2.1080 C   0  0  0  0  0  0  0  0  0  0  0  0
   -2.6720    1.3880    1.2310 C   0  0  0  0  0  0  0  0  0  0  0  0
   -2.8360   -0.0300    0.8810 C   0  0  0  0  0  0  0  0  0  0  0  0
   -1.9280   -0.7960    0.0600 C   0  0  1  0  0  0  0  0  0  0  0  0
   -1.8400   -0.2000   -1.3500 C   0  0  0  0  0  0  0  0  0  0  0  0
   -3.0250   -0.2050   -2.2170 C   0  0  0  0  0  0  0  0  0  0  0  0
   -4.2640    0.5050   -1.8690 C   0  0  0  0  0  0  0  0  0  0  0  0
   -0.4940   -0.9040    0.4800 C   0  0  0  0  0  0  0  0  0  0  0  0
    0.4100    0.0490    0.0750 C   0  0  0  0  0  0  0  0  0  0  0  0
    1.7970   -0.0810    0.2820 C   0  0  0  0  0  0  0  0  0  0  0  0
    2.7470    0.9050   -0.2710 C   0  0  2  0  0  0  0  0  0  0  0  0
    2.4330    1.0790   -1.7960 C   0  0  0  0  0  0  0  0  0  0  0  0
    2.5190   -0.1360   -2.4540 O   0  0  0  0  0  0  0  0  0  0  0  0
    4.0480    0.3770   -0.3270 O   0  0  0  0  0  0  0  0  0  0  0  0
    5.0190    1.2210    0.1530 C   0  0  0  0  0  0  0  0  0  0  0  0
    6.3630    0.4990    0.0510 C   0  0  0  0  0  0  0  0  0  0  0  0
    2.2060   -1.2300    0.9280 C   0  0  0  0  0  0  0  0  0  0  0  0
    1.2970   -2.1870    1.3350 C   0  0  0  0  0  0  0  0  0  0  0  0
   -0.0670   -2.0510    1.1240 C   0  0  0  0  0  0  0  0  0  0  0  0
   -1.0160   -3.1130    1.6220 C   0  0  0  0  0  0  0  0  0  0  0  0
  1  2  1  0
  2  3  1  0
  4  3  1  1
  4  5  1  0
  4  8  1  0
  5  6  1  0
  6  7  1  0
  8  9  2  0
  8 19  1  0
  9 10  1  0
 10 11  1  0
 10 17  2  0
 11 12  1  6
 11 14  1  0
 12 13  1  0
 14 15  1  0
 15 16  1  0
 17 18  1  0
 18 19  2  0
 19 20  1  0
M  END
