
     RDKit          3D

 20 20  0  0  0  0  0  0  0  0999 V2000
   -2.8990   -3.4920   -1.1630 C   0  0  0  0  0  0  0  0  0  0  0  0
   -2.5650   -2.5280   -0.3590 C   0  0  0  0  0  0  0  0  0  0  0  0
   -1.4820   -2.5870    0.6380 C   0  0  0  0  0  0  0  0  0  0  0  0
   -0.3990   -1.6090    0.3360 C   0  0  0  0  0  0  0  0  0  0  0  0
    0.7930   -2.0600   -0.1610 C   0  0  0  0  0  0  0  0  0  0  0  0
    1.7880   -1.1540   -0.4480 C   0  0  0  0  0  0  0  0  0  0  0  0
    3.0740   -1.5090   -1.0110 C   0  0  0  0  0  0  0  0  0  0  0  0
    3.9430   -0.6380   -1.2130 O   0  0  0  0  0  0  0  0  0  0  0  0
    3.3720   -2.8870   -1.3530 C   0  0  0  0  0  0  0  0  0  0  0  0
    4.5660   -3.1660   -1.8740 C   0  0  0  0  0  0  0  0  0  0  0  0
    1.5540    0.1770   -0.2220 C   0  0  0  0  0  0  0  0  0  0  0  0
    0.3380    0.6550    0.2910 C   0  0  0  0  0  0  0  0  0  0  0  0
    0.1510    1.9790    0.5100 O   0  0  0  0  0  0  0  0  0  0  0  0
    0.9750    3.0720    0.3450 C   0  0  0  0  0  0  0  0  0  0  0  0
    2.2120    3.1130    1.2180 C   0  0  0  0  0  0  0  0  0  0  0  0
   -0.6570   -0.2560    0.5700 C   0  0  0  0  0  0  0  0  0  0  0  0
   -1.8990    0.1100    1.1860 C   0  0  0  0  0  0  0  0  0  0  0  0
   -2.6360    1.1490    0.9360 C   0  0  0  0  0  0  0  0  0  0  0  0
   -2.5420    2.2580    0.0160 C   0  0  0  0  0  0  0  0  0  0  0  0
   -2.4410    3.6380    0.6310 C   0  0  0  0  0  0  0  0  0  0  0  0
  1  2  2  0
  2  3  1  0
  3  4  1  0
  4  5  2  0
  4 16  1  0
  5  6  1  0
  6  7  1  0
  6 11  2  0
  7  8  2  0
  7  9  1  0
  9 10  2  0
 11 12  1  0
 12 13  1  0
 12 16  2  0
 13 14  1  0
 14 15  1  0
 16 17  1  0
 17 18  2  3
 18 19  1  0
 19 20  1  0
M  END
