
     RDKit          3D

 20 20  0  0  0  0  0  0  0  0999 V2000
    5.3280    2.2780   -0.6070 C   0  0  0  0  0  0  0  0  0  0  0  0
    5.0200    1.2130    0.4310 C   0  0  0  0  0  0  0  0  0  0  0  0
    4.3640    0.0400   -0.1310 C   0  0  0  0  0  0  0  0  0  0  0  0
    5.1530   -0.6970   -1.2040 C   0  0  0  0  0  0  0  0  0  0  0  0
    3.1940   -0.4140    0.2050 C   0  0  0  0  0  0  0  0  0  0  0  0
    2.3500    0.2070    1.2230 C   0  0  0  0  0  0  0  0  0  0  0  0
    0.9170    0.4710    0.7880 C   0  0  0  0  0  0  0  0  0  0  0  0
    0.1760   -0.7640    0.4440 C   0  0  0  0  0  0  0  0  0  0  0  0
    0.6470   -1.9830    0.8390 C   0  0  0  0  0  0  0  0  0  0  0  0
   -0.0610   -3.1160    0.5010 C   0  0  0  0  0  0  0  0  0  0  0  0
   -1.2130   -3.0110   -0.2160 C   0  0  0  0  0  0  0  0  0  0  0  0
   -1.6900   -1.7550   -0.6170 C   0  0  0  0  0  0  0  0  0  0  0  0
   -2.9340   -1.7660   -1.4170 C   0  0  0  0  0  0  0  0  0  0  0  0
   -1.0040   -0.6180   -0.2920 C   0  0  0  0  0  0  0  0  0  0  0  0
   -1.4270    0.6510   -0.6580 O   0  0  0  0  0  0  0  0  0  0  0  0
   -2.1820    1.5420    0.0650 C   0  0  0  0  0  0  0  0  0  0  0  0
   -3.5810    1.2450    0.4480 C   0  0  0  0  0  0  0  0  0  0  0  0
   -4.5880    1.1720   -0.6420 C   0  0  0  0  0  0  0  0  0  0  0  0
   -5.9540    0.8250   -0.1140 C   0  0  0  0  0  0  0  0  0  0  0  0
   -6.0440   -0.3970    0.5180 O   0  0  0  0  0  0  0  0  0  0  0  0
  1  2  1  0
  2  3  1  0
  3  4  1  0
  3  5  2  3
  5  6  1  0
  6  7  1  0
  7  8  1  0
  8  9  2  0
  8 14  1  0
  9 10  1  0
 10 11  2  0
 11 12  1  0
 12 13  1  0
 12 14  2  0
 14 15  1  0
 15 16  1  0
 16 17  1  0
 17 18  1  0
 18 19  1  0
 19 20  1  0
M  END
