
     RDKit          3D

 26 29  0  0  0  0  0  0  0  0999 V2000
    4.2980    0.7140    1.8220 C   0  0  0  0  0  0  0  0  0  0  0  0
    4.8410   -0.2720    0.7800 C   0  0  2  0  0  0  0  0  0  0  0  0
    4.5210   -1.6800    1.1210 C   0  0  0  0  0  0  0  0  0  0  0  0
    6.3920   -0.1580    0.9470 C   0  0  0  0  0  0  0  0  0  0  0  0
    4.5150    0.1580   -0.5890 C   0  0  0  0  0  0  0  0  0  0  0  0
    5.4980    0.4170   -1.5110 N   0  0  0  0  0  0  0  0  0  0  0  0
    4.9610    0.7900   -2.6490 N   0  0  0  0  0  0  0  0  0  0  0  0
    3.6510    0.7950   -2.5350 C   0  0  0  0  0  0  0  0  0  0  0  0
    2.7490    1.1360   -3.5330 O   0  0  0  0  0  0  0  0  0  0  0  0
    3.3280    0.3900   -1.2160 C   0  0  0  0  0  0  0  0  0  0  0  0
    1.9800    0.2570   -0.7520 C   0  0  0  0  0  0  0  0  0  0  0  0
    1.4360   -0.1940    0.3320 C   0  0  0  0  0  0  0  0  0  0  0  0
   -0.0030   -0.2470    0.6230 C   0  0  0  0  0  0  0  0  0  0  0  0
   -0.3910   -0.6530    1.8760 N   0  0  0  0  0  0  0  0  0  0  0  0
   -1.6930   -0.6220    1.8810 N   0  0  0  0  0  0  0  0  0  0  0  0
   -2.1460   -0.2120    0.6820 C   0  0  0  0  0  0  0  0  0  0  0  0
   -1.0850    0.0230   -0.1090 N   0  0  0  0  0  0  0  0  0  0  0  0
   -1.2380    0.4600   -1.4960 C   0  0  0  0  0  0  0  0  0  0  0  0
   -2.6890    0.3420   -1.9330 C   0  0  0  0  0  0  0  0  0  0  0  0
   -3.5860    0.8190   -0.9270 N   0  0  0  0  0  0  0  0  0  0  0  0
   -3.5690   -0.0150    0.2460 C   0  0  2  0  0  0  0  0  0  0  0  0
   -4.2250    0.7980    1.3650 C   0  0  0  0  0  0  0  0  0  0  0  0
   -5.6630    0.9950    0.9440 C   0  0  0  0  0  0  0  0  0  0  0  0
   -6.3290   -0.3580    0.9620 C   0  0  0  0  0  0  0  0  0  0  0  0
   -5.6890   -1.3580    0.0660 C   0  0  0  0  0  0  0  0  0  0  0  0
   -4.1930   -1.3540    0.0840 C   0  0  0  0  0  0  0  0  0  0  0  0
  2  1  1  1
  2  3  1  0
  2  4  1  0
  2  5  1  0
  5  6  1  0
  5 10  2  0
  6  7  1  0
  7  8  2  0
  8  9  1  0
  8 10  1  0
 10 11  1  0
 11 12  2  3
 12 13  1  0
 13 14  2  0
 13 17  1  0
 14 15  1  0
 15 16  2  0
 16 17  1  0
 16 21  1  0
 17 18  1  0
 18 19  1  0
 19 20  1  0
 20 21  1  0
 21 22  1  1
 21 26  1  0
 22 23  1  0
 23 24  1  0
 24 25  1  0
 25 26  1  0
M  END
