
     RDKit          3D

 20 20  0  0  0  0  0  0  0  0999 V2000
    6.7360    0.0310   -0.4710 C   0  0  0  0  0  0  0  0  0  0  0  0
    5.8820    0.4610    0.6890 C   0  0  0  0  0  0  0  0  0  0  0  0
    4.7230   -0.5010    0.8390 C   0  0  0  0  0  0  0  0  0  0  0  0
    3.8700   -0.5220   -0.4180 C   0  0  0  0  0  0  0  0  0  0  0  0
    3.2980    0.8060   -0.7390 C   0  0  0  0  0  0  0  0  0  0  0  0
    2.4620    1.4060    0.3010 C   0  0  0  0  0  0  0  0  0  0  0  0
    1.2300    0.7100    0.6380 C   0  0  0  0  0  0  0  0  0  0  0  0
    0.4460    1.2090    1.4800 O   0  0  0  0  0  0  0  0  0  0  0  0
    0.7960   -0.5590    0.0650 C   0  0  0  0  0  0  0  0  0  0  0  0
   -0.7050   -0.7240    0.3010 C   0  0  1  0  0  0  0  0  0  0  0  0
   -1.0320   -0.7080    1.6290 O   0  0  0  0  0  0  0  0  0  0  0  0
   -1.4360    0.3330   -0.4440 C   0  0  0  0  0  0  0  0  0  0  0  0
   -2.9100    0.1400   -0.1920 C   0  0  0  0  0  0  0  0  0  0  0  0
   -3.5650    0.7430    0.8540 C   0  0  0  0  0  0  0  0  0  0  0  0
   -4.9120    0.5420    1.0470 C   0  0  0  0  0  0  0  0  0  0  0  0
   -5.6450    1.1770    2.1630 C   0  0  0  0  0  0  0  0  0  0  0  0
   -5.6290   -0.2660    0.1970 C   0  0  0  0  0  0  0  0  0  0  0  0
   -4.9750   -0.8700   -0.8500 C   0  0  0  0  0  0  0  0  0  0  0  0
   -5.7040   -1.7630   -1.8130 C   0  0  0  0  0  0  0  0  0  0  0  0
   -3.6280   -0.6690   -1.0430 C   0  0  0  0  0  0  0  0  0  0  0  0
  1  2  1  0
  2  3  1  0
  3  4  1  0
  4  5  1  0
  5  6  1  0
  6  7  1  0
  7  8  2  0
  7  9  1  0
  9 10  1  0
 10 11  1  1
 10 12  1  0
 12 13  1  0
 13 14  2  0
 13 20  1  0
 14 15  1  0
 15 16  1  0
 15 17  2  0
 17 18  1  0
 18 19  1  0
 18 20  2  0
M  END
