
     RDKit          3D

 20 20  0  0  0  0  0  0  0  0999 V2000
   -3.8790    0.9570    3.5360 C   0  0  0  0  0  0  0  0  0  0  0  0
   -2.9200    0.7930    2.5100 O   0  0  0  0  0  0  0  0  0  0  0  0
   -3.3640    0.3580    1.2750 C   0  0  0  0  0  0  0  0  0  0  0  0
   -4.6960    0.0770    0.9960 C   0  0  0  0  0  0  0  0  0  0  0  0
   -5.0710   -0.3550   -0.2620 C   0  0  0  0  0  0  0  0  0  0  0  0
   -6.4930   -0.6510   -0.5540 C   0  0  0  0  0  0  0  0  0  0  0  0
   -4.1610   -0.5250   -1.2810 C   0  0  0  0  0  0  0  0  0  0  0  0
   -4.5480   -0.9860   -2.6360 C   0  0  0  0  0  0  0  0  0  0  0  0
   -2.8250   -0.2360   -0.9740 C   0  0  0  0  0  0  0  0  0  0  0  0
   -2.4340    0.1950    0.2710 C   0  0  0  0  0  0  0  0  0  0  0  0
   -1.0100    0.4930    0.5620 C   0  0  0  0  0  0  0  0  0  0  0  0
   -0.2070    0.2920   -0.6930 C   0  0  0  0  0  0  0  0  0  0  0  0
    1.2580    0.5850   -0.4950 C   0  0  0  0  0  0  0  0  0  0  0  0
    1.8190   -0.3240    0.5530 C   0  0  0  0  0  0  0  0  0  0  0  0
    3.3100   -0.0810    0.7880 C   0  0  0  0  0  0  0  0  0  0  0  0
    4.1110   -0.3140   -0.4460 C   0  0  0  0  0  0  0  0  0  0  0  0
    5.5780   -0.0970   -0.2630 C   0  0  1  0  0  0  0  0  0  0  0  0
    5.9280    1.2990    0.1650 C   0  0  0  0  0  0  0  0  0  0  0  0
    6.1980   -1.1260    0.6580 C   0  0  0  0  0  0  0  0  0  0  0  0
    6.1800   -0.2910   -1.5270 O   0  0  0  0  0  0  0  0  0  0  0  0
  1  2  1  0
  2  3  1  0
  3  4  2  0
  3 10  1  0
  4  5  1  0
  5  6  1  0
  5  7  2  0
  7  8  1  0
  7  9  1  0
  9 10  2  0
 10 11  1  0
 11 12  1  0
 12 13  1  0
 13 14  1  0
 14 15  1  0
 15 16  1  0
 16 17  1  0
 17 18  1  1
 17 19  1  0
 17 20  1  0
M  END
