
     RDKit          3D

 20 20  0  0  0  0  0  0  0  0999 V2000
    4.5740    0.9050   -2.8080 C   0  0  0  0  0  0  0  0  0  0  0  0
    3.4980    1.3710   -3.7750 C   0  0  0  0  0  0  0  0  0  0  0  0
    2.3390    0.4250   -3.6370 C   0  0  0  0  0  0  0  0  0  0  0  0
    1.8530    0.5270   -2.1630 C   0  0  0  0  0  0  0  0  0  0  0  0
    0.7140   -0.3970   -1.9930 C   0  0  0  0  0  0  0  0  0  0  0  0
    0.0300   -0.4960   -0.8530 O   0  0  0  0  0  0  0  0  0  0  0  0
   -0.7490    0.3070   -0.0940 C   0  0  0  0  0  0  0  0  0  0  0  0
   -0.9670    1.6420   -0.4830 C   0  0  0  0  0  0  0  0  0  0  0  0
   -1.7920    2.3340    0.3670 C   0  0  0  0  0  0  0  0  0  0  0  0
   -2.4020    1.9050    1.4830 C   0  0  0  0  0  0  0  0  0  0  0  0
   -3.2970    2.7270    2.3300 C   0  0  1  0  0  0  0  0  0  0  0  0
   -3.7160    3.9120    1.4660 C   0  0  0  0  0  0  0  0  0  0  0  0
   -4.4530    2.0160    2.6720 O   0  0  0  0  0  0  0  0  0  0  0  0
   -2.1520    0.5560    1.8380 C   0  0  0  0  0  0  0  0  0  0  0  0
   -1.3250   -0.2520    1.0600 C   0  0  0  0  0  0  0  0  0  0  0  0
   -0.9580   -1.6090    1.5000 C   0  0  1  0  0  0  0  0  0  0  0  0
   -1.9540   -2.6720    1.1250 C   0  0  0  0  0  0  0  0  0  0  0  0
    0.4590   -1.9960    1.5000 C   0  0  0  0  0  0  0  0  0  0  0  0
    0.5570   -3.4550    1.9550 C   0  0  0  0  0  0  0  0  0  0  0  0
    1.9800   -3.9090    2.1050 C   0  0  0  0  0  0  0  0  0  0  0  0
  1  2  1  0
  2  3  1  0
  3  4  1  0
  4  5  1  0
  5  6  1  0
  6  7  1  0
  7  8  2  0
  7 15  1  0
  8  9  1  0
  9 10  2  0
 10 11  1  0
 10 14  1  0
 11 12  1  6
 11 13  1  0
 14 15  2  0
 15 16  1  0
 16 17  1  6
 16 18  1  0
 18 19  1  0
 19 20  1  0
M  END
