
     RDKit          3D

 20 20  0  0  0  0  0  0  0  0999 V2000
   -5.4520    0.9880   -0.3220 C   0  0  0  0  0  0  0  0  0  0  0  0
   -4.5260    2.1320    0.0320 C   0  0  0  0  0  0  0  0  0  0  0  0
   -3.4380    1.6710    0.9930 C   0  0  0  0  0  0  0  0  0  0  0  0
   -2.6160    0.5970    0.4080 C   0  0  0  0  0  0  0  0  0  0  0  0
   -3.0050   -0.7080    0.6050 C   0  0  0  0  0  0  0  0  0  0  0  0
   -2.2860   -1.7470    0.0880 C   0  0  0  0  0  0  0  0  0  0  0  0
   -2.7600   -3.1340    0.3370 C   0  0  0  0  0  0  0  0  0  0  0  0
   -2.1760   -3.7170    1.6020 C   0  0  0  0  0  0  0  0  0  0  0  0
   -1.1500   -1.4540   -0.6420 C   0  0  0  0  0  0  0  0  0  0  0  0
   -0.7160   -0.1680   -0.8700 C   0  0  0  0  0  0  0  0  0  0  0  0
    0.4890    0.0660   -1.6520 C   0  0  0  0  0  0  0  0  0  0  0  0
    1.6830   -0.0290   -1.0330 O   0  0  0  0  0  0  0  0  0  0  0  0
    1.9600    0.7910    0.0150 C   0  0  1  0  0  0  0  0  0  0  0  0
    2.1680    0.0640    1.3260 C   0  0  0  0  0  0  0  0  0  0  0  0
    3.0840    1.7170   -0.3170 C   0  0  1  0  0  0  0  0  0  0  0  0
    3.3240    2.5270    0.7920 O   0  0  0  0  0  0  0  0  0  0  0  0
    4.3260    1.0880   -0.8120 C   0  0  0  0  0  0  0  0  0  0  0  0
    4.9980    0.1250    0.0860 C   0  0  0  0  0  0  0  0  0  0  0  0
    6.2510   -0.3820   -0.6480 C   0  0  0  0  0  0  0  0  0  0  0  0
   -1.4660    0.8530   -0.3340 C   0  0  0  0  0  0  0  0  0  0  0  0
  1  2  1  0
  2  3  1  0
  3  4  1  0
  4  5  2  0
  4 20  1  0
  5  6  1  0
  6  7  1  0
  6  9  2  0
  7  8  1  0
  9 10  1  0
 10 11  1  0
 10 20  2  0
 11 12  1  0
 12 13  1  0
 13 14  1  1
 13 15  1  0
 15 16  1  1
 15 17  1  0
 17 18  1  0
 18 19  1  0
M  END
