
     RDKit          3D

 20 20  0  0  0  0  0  0  0  0999 V2000
   -4.6770    1.4700    1.1250 C   0  0  0  0  0  0  0  0  0  0  0  0
   -4.7180    0.4080    0.0720 C   0  0  0  0  0  0  0  0  0  0  0  0
   -3.9180   -0.8110    0.3740 C   0  0  0  0  0  0  0  0  0  0  0  0
   -2.4760   -0.5720    0.5510 C   0  0  0  0  0  0  0  0  0  0  0  0
   -2.0430    0.0710    1.7750 C   0  0  0  0  0  0  0  0  0  0  0  0
   -0.8330    0.2860    2.0090 O   0  0  0  0  0  0  0  0  0  0  0  0
   -1.6050   -0.9480   -0.3250 C   0  0  0  0  0  0  0  0  0  0  0  0
   -1.9460   -1.6420   -1.5730 C   0  0  0  0  0  0  0  0  0  0  0  0
   -1.5260   -0.8620   -2.8200 C   0  0  0  0  0  0  0  0  0  0  0  0
   -0.2520   -0.7020   -0.1160 O   0  0  0  0  0  0  0  0  0  0  0  0
    0.4790    0.3930   -0.5180 C   0  0  0  0  0  0  0  0  0  0  0  0
    1.8950    0.2570   -0.1110 C   0  0  0  0  0  0  0  0  0  0  0  0
    2.7160    1.3390   -0.4340 C   0  0  0  0  0  0  0  0  0  0  0  0
    2.2240    2.5400   -1.1140 C   0  0  0  0  0  0  0  0  0  0  0  0
    4.0440    1.2600   -0.0920 C   0  0  0  0  0  0  0  0  0  0  0  0
    4.5340    0.1370    0.5490 C   0  0  0  0  0  0  0  0  0  0  0  0
    5.9890    0.0890    0.9060 C   0  0  0  0  0  0  0  0  0  0  0  0
    3.7240   -0.9260    0.8650 C   0  0  0  0  0  0  0  0  0  0  0  0
    2.3670   -0.8570    0.5210 C   0  0  0  0  0  0  0  0  0  0  0  0
    1.5570   -2.0450    0.8650 C   0  0  0  0  0  0  0  0  0  0  0  0
  1  2  1  0
  2  3  1  0
  3  4  1  0
  4  5  1  0
  4  7  2  3
  5  6  2  0
  7  8  1  0
  7 10  1  0
  8  9  1  0
 10 11  1  0
 11 12  1  0
 12 13  2  0
 12 19  1  0
 13 14  1  0
 13 15  1  0
 15 16  2  0
 16 17  1  0
 16 18  1  0
 18 19  2  0
 19 20  1  0
M  END
