
     RDKit          3D

 25 27  0  0  0  0  0  0  0  0999 V2000
   -5.5710   -0.4610    1.9080 C   0  0  0  0  0  0  0  0  0  0  0  0
   -5.0040   -1.1150    0.6680 C   0  0  0  0  0  0  0  0  0  0  0  0
   -3.9380   -0.3170    0.0200 C   0  0  0  0  0  0  0  0  0  0  0  0
   -2.6270   -0.7110    0.1390 C   0  0  0  0  0  0  0  0  0  0  0  0
   -1.6580    0.0740   -0.4950 C   0  0  0  0  0  0  0  0  0  0  0  0
   -0.3430   -0.3100   -0.3900 C   0  0  0  0  0  0  0  0  0  0  0  0
    0.6170    0.4360   -1.0040 C   0  0  0  0  0  0  0  0  0  0  0  0
    2.0390    0.1120   -0.9530 C   0  0  0  0  0  0  0  0  0  0  0  0
    2.6670   -0.0970   -2.0440 O   0  0  0  0  0  0  0  0  0  0  0  0
    2.7730    0.0070    0.2420 N   0  0  0  0  0  0  0  0  0  0  0  0
    4.1200   -0.3130    0.4340 C   0  0  0  0  0  0  0  0  0  0  0  0
    4.6920   -0.1350    1.6780 C   0  0  0  0  0  0  0  0  0  0  0  0
    6.0070   -0.4520    1.9810 C   0  0  0  0  0  0  0  0  0  0  0  0
    6.7700   -0.9780    0.9470 C   0  0  0  0  0  0  0  0  0  0  0  0
    8.1040   -1.3060    1.2340 O   0  0  0  0  0  0  0  0  0  0  0  0
    6.2290   -1.1640   -0.2960 C   0  0  0  0  0  0  0  0  0  0  0  0
    4.9060   -0.8330   -0.5540 C   0  0  0  0  0  0  0  0  0  0  0  0
    0.2250    1.5450   -1.7050 C   0  0  0  0  0  0  0  0  0  0  0  0
    1.0820    2.2520   -2.2770 O   0  0  0  0  0  0  0  0  0  0  0  0
   -1.0590    1.9290   -1.8140 N   0  0  0  0  0  0  0  0  0  0  0  0
   -2.0040    1.1950   -1.2100 C   0  0  0  0  0  0  0  0  0  0  0  0
   -3.3280    1.5620   -1.3090 C   0  0  0  0  0  0  0  0  0  0  0  0
   -4.3040    0.8230   -0.7060 C   0  0  0  0  0  0  0  0  0  0  0  0
   -5.7200    1.1440   -0.7780 C   0  0  0  0  0  0  0  0  0  0  0  0
   -6.7050    0.2400   -1.6960 S   0  0  0  0  0  0  0  0  0  0  0  0
  1  2  1  0
  2  3  1  0
  3  4  2  0
  3 23  1  0
  4  5  1  0
  5  6  1  0
  5 21  2  0
  6  7  2  0
  7  8  1  0
  7 18  1  0
  8  9  2  0
  8 10  1  0
 10 11  1  0
 11 12  2  0
 11 17  1  0
 12 13  1  0
 13 14  2  0
 14 15  1  0
 14 16  1  0
 16 17  2  0
 18 19  2  0
 18 20  1  0
 20 21  1  0
 21 22  1  0
 22 23  2  0
 23 24  1  0
 24 25  2  0
M  END
