
     RDKit          3D

 14 14  0  0  0  0  0  0  0  0999 V2000
    4.4890   -0.9650    0.3770 C   0  0  0  0  0  0  0  0  0  0  0  0
    2.8910   -0.2560    0.9260 S   0  0  0  0  0  0  0  0  0  0  0  0
    1.8750    0.0800   -0.5310 C   0  0  0  0  0  0  0  0  0  0  0  0
    0.5580    0.6680   -0.0260 C   0  0  1  0  0  0  0  0  0  0  0  0
    0.8800    1.9230    0.7240 C   0  0  0  0  0  0  0  0  0  0  0  0
    1.5650    2.7790   -0.1270 O   0  0  0  0  0  0  0  0  0  0  0  0
   -0.3240    0.8700   -1.2120 C   0  0  0  0  0  0  0  0  0  0  0  0
   -0.8910   -0.3720   -1.4040 O   0  0  0  0  0  0  0  0  0  0  0  0
   -0.8920   -1.0500   -0.2150 C   0  0  2  0  0  0  0  0  0  0  0  0
   -2.3040   -1.3240    0.2660 C   0  0  2  0  0  0  0  0  0  0  0  0
   -2.9890   -2.0600   -0.7200 O   0  0  0  0  0  0  0  0  0  0  0  0
   -3.0860   -0.0410    0.4500 C   0  0  0  0  0  0  0  0  0  0  0  0
   -4.3790   -0.4360    0.8620 O   0  0  0  0  0  0  0  0  0  0  0  0
   -0.1560   -0.3040    0.7530 N   0  0  0  0  0  0  0  0  0  0  0  0
  1  2  1  0
  2  3  1  0
  4  3  1  6
  4  5  1  0
  4  7  1  0
  4 14  1  0
  5  6  1  0
  7  8  1  0
  8  9  1  0
  9 10  1  0
  9 14  1  1
 10 11  1  6
 10 12  1  0
 12 13  1  0
M  END
