
     RDKit          3D

 25 27  0  0  0  0  0  0  0  0999 V2000
   -4.0480    0.7210   -1.7540 C   0  0  0  0  0  0  0  0  0  0  0  0
   -3.7460    0.2300   -0.3540 C   0  0  2  0  0  0  0  0  0  0  0  0
   -4.3680   -1.1280   -0.0810 C   0  0  0  0  0  0  0  0  0  0  0  0
   -4.4750    1.2020    0.5920 C   0  0  0  0  0  0  0  0  0  0  0  0
   -4.3360    0.7280    2.0240 C   0  0  0  0  0  0  0  0  0  0  0  0
   -3.4090    1.7020    2.7070 C   0  0  0  0  0  0  0  0  0  0  0  0
   -2.0990    1.6570    2.0570 C   0  0  0  0  0  0  0  0  0  0  0  0
   -1.2240    2.4710    2.5100 O   0  0  0  0  0  0  0  0  0  0  0  0
   -1.5800    0.8490    0.9700 C   0  0  0  0  0  0  0  0  0  0  0  0
   -0.2090    0.7050    1.0190 C   0  0  0  0  0  0  0  0  0  0  0  0
    0.5130   -0.0310    0.0700 C   0  0  0  0  0  0  0  0  0  0  0  0
    1.9050   -0.0830    0.2590 N   0  0  0  0  0  0  0  0  0  0  0  0
    2.8340   -0.7570   -0.5570 C   0  0  0  0  0  0  0  0  0  0  0  0
    2.4470   -1.3810   -1.5500 O   0  0  0  0  0  0  0  0  0  0  0  0
    4.2680   -0.7530   -0.2780 C   0  0  0  0  0  0  0  0  0  0  0  0
    5.0110   -0.1690    0.7240 C   0  0  0  0  0  0  0  0  0  0  0  0
    6.3380   -0.3580    0.6990 C   0  0  0  0  0  0  0  0  0  0  0  0
    6.8920   -1.0870   -0.2700 C   0  0  0  0  0  0  0  0  0  0  0  0
    8.2960   -1.4710   -0.5670 C   0  0  0  0  0  0  0  0  0  0  0  0
    8.8180   -0.4710   -1.3970 O   0  0  0  0  0  0  0  0  0  0  0  0
    5.5080   -1.5630   -1.2340 S   0  0  0  0  0  0  0  0  0  0  0  0
   -0.2160   -0.6100   -0.9240 C   0  0  0  0  0  0  0  0  0  0  0  0
   -1.6150   -0.4880   -1.0090 C   0  0  0  0  0  0  0  0  0  0  0  0
   -2.2600   -1.1330   -2.0900 N   0  0  0  0  0  0  0  0  0  0  0  0
   -2.2890    0.2430   -0.0590 C   0  0  0  0  0  0  0  0  0  0  0  0
  2  1  1  6
  2  3  1  0
  2  4  1  0
  2 25  1  0
  4  5  1  0
  5  6  1  0
  6  7  1  0
  7  8  2  0
  7  9  1  0
  9 10  2  0
  9 25  1  0
 10 11  1  0
 11 12  1  0
 11 22  2  0
 12 13  1  0
 13 14  2  0
 13 15  1  0
 15 16  2  0
 15 21  1  0
 16 17  1  0
 17 18  2  0
 18 19  1  0
 18 21  1  0
 19 20  1  0
 22 23  1  0
 23 24  1  0
 23 25  2  0
M  END
