
     RDKit          3D

 14 14  0  0  0  0  0  0  0  0999 V2000
    0.6880   -0.8140    2.2740 C   0  0  0  0  0  0  0  0  0  0  0  0
    0.2220   -0.0050    1.0550 C   0  0  2  0  0  0  0  0  0  0  0  0
   -1.0630   -0.4140    0.7970 O   0  0  0  0  0  0  0  0  0  0  0  0
   -1.6820    0.2030   -0.2480 C   0  0  1  0  0  0  0  0  0  0  0  0
   -2.7370   -0.7680   -0.7940 C   0  0  0  0  0  0  0  0  0  0  0  0
   -2.4760    1.3940    0.2960 C   0  0  0  0  0  0  0  0  0  0  0  0
   -0.8000    0.6620   -1.3480 C   0  0  2  0  0  0  0  0  0  0  0  0
   -1.4770    0.4360   -2.5680 O   0  0  0  0  0  0  0  0  0  0  0  0
    0.5140   -0.0410   -1.4360 C   0  0  0  0  0  0  0  0  0  0  0  0
    1.1740   -0.2460   -0.1000 C   0  0  1  0  0  0  0  0  0  0  0  0
    2.3420    0.5610    0.1010 N   0  0  0  0  0  0  0  0  0  0  0  0
    3.7790   -0.2960    0.3440 S   0  0  1  0  0  0  0  0  0  0  0  0
    4.7120    0.5570    1.1590 O   0  0  0  0  0  0  0  0  0  0  0  0
    3.5850   -1.5720    1.1430 O   0  0  0  0  0  0  0  0  0  0  0  0
  2  1  1  1
  2  3  1  0
  2 10  1  0
  3  4  1  0
  4  5  1  6
  4  6  1  0
  4  7  1  0
  7  8  1  6
  7  9  1  0
  9 10  1  0
 10 11  1  1
 12 11  1  1
 12 13  2  0
 12 14  2  0
M  END
