
     RDKit          3D

 25 27  0  0  0  0  0  0  0  0999 V2000
   -2.8980   -1.5270   -2.5940 C   0  0  0  0  0  0  0  0  0  0  0  0
   -3.8810   -1.0230   -1.6030 C   0  0  0  0  0  0  0  0  0  0  0  0
   -3.6800   -0.0150   -0.7710 C   0  0  0  0  0  0  0  0  0  0  0  0
   -2.2650    0.9820   -0.5960 S   0  0  2  0  0  0  0  0  0  0  0  0
   -2.6950    2.4060   -0.4250 O   0  0  0  0  0  0  0  0  0  0  0  0
   -1.4660    0.9420   -1.8880 O   0  0  0  0  0  0  0  0  0  0  0  0
   -1.2300    0.5380    0.6700 N   0  0  0  0  0  0  0  0  0  0  0  0
    0.0840    0.0790    0.3970 C   0  0  0  0  0  0  0  0  0  0  0  0
    0.4050   -0.8330   -0.5820 C   0  0  0  0  0  0  0  0  0  0  0  0
    1.6940   -1.2570   -0.8220 C   0  0  0  0  0  0  0  0  0  0  0  0
    2.7100   -0.7310   -0.0270 C   0  0  0  0  0  0  0  0  0  0  0  0
    2.4410    0.1850    0.9670 C   0  0  0  0  0  0  0  0  0  0  0  0
    1.1240    0.5860    1.1740 C   0  0  0  0  0  0  0  0  0  0  0  0
    3.1910    0.9450    1.9780 C   0  0  0  0  0  0  0  0  0  0  0  0
    4.4150    1.4070    2.0170 C   0  0  0  0  0  0  0  0  0  0  0  0
    5.5950    1.4190    1.1520 C   0  0  0  0  0  0  0  0  0  0  0  0
    5.4990    0.5460   -0.0560 C   0  0  0  0  0  0  0  0  0  0  0  0
    5.1540   -0.8820    0.2730 C   0  0  0  0  0  0  0  0  0  0  0  0
    3.9640   -1.3640   -0.5020 C   0  0  0  0  0  0  0  0  0  0  0  0
   -4.9080    0.1530    0.0050 C   0  0  0  0  0  0  0  0  0  0  0  0
   -5.2000    0.9950    0.9710 C   0  0  0  0  0  0  0  0  0  0  0  0
   -4.3750    1.9880    1.5290 N   0  0  0  0  0  0  0  0  0  0  0  0
   -5.8520   -0.8870   -0.4820 C   0  0  0  0  0  0  0  0  0  0  0  0
   -7.1590   -1.0960   -0.0180 O   0  0  0  0  0  0  0  0  0  0  0  0
   -5.2430   -1.5620   -1.4150 C   0  0  0  0  0  0  0  0  0  0  0  0
  1  2  1  0
  2  3  2  0
  2 25  1  0
  3  4  1  0
  3 20  1  0
  4  5  2  0
  4  6  2  0
  4  7  1  1
  7  8  1  0
  8  9  2  0
  8 13  1  0
  9 10  1  0
 10 11  2  0
 11 12  1  0
 11 19  1  0
 12 13  2  0
 12 14  1  0
 14 15  2  0
 15 16  1  0
 16 17  1  0
 17 18  1  0
 18 19  1  0
 20 21  2  3
 20 23  1  0
 21 22  1  0
 23 24  1  0
 23 25  2  0
M  END
