
     RDKit          3D

 25 27  0  0  0  0  0  0  0  0999 V2000
    7.5860   -0.8620    0.0160 C   0  0  0  0  0  0  0  0  0  0  0  0
    6.1040   -1.0160   -0.2400 C   0  0  0  0  0  0  0  0  0  0  0  0
    5.4170    0.3210    0.0160 C   0  0  0  0  0  0  0  0  0  0  0  0
    3.9580    0.2290   -0.2200 C   0  0  0  0  0  0  0  0  0  0  0  0
    3.1300    0.4870    0.7680 C   0  0  0  0  0  0  0  0  0  0  0  0
    3.6320    0.8710    2.1190 C   0  0  0  0  0  0  0  0  0  0  0  0
    1.6920    0.3830    0.5180 C   0  0  0  0  0  0  0  0  0  0  0  0
    0.3260    0.6830    1.6600 S   0  0  0  0  0  0  0  0  0  0  0  0
   -0.9420    0.3110    0.4360 C   0  0  0  0  0  0  0  0  0  0  0  0
   -2.3880    0.3730    0.7450 C   0  0  0  0  0  0  0  0  0  0  0  0
   -2.7710    0.6890    1.8780 O   0  0  0  0  0  0  0  0  0  0  0  0
   -3.3120    0.0660   -0.2780 N   0  0  0  0  0  0  0  0  0  0  0  0
   -4.7160    0.0750   -0.1570 C   0  0  0  0  0  0  0  0  0  0  0  0
   -5.4260    0.3800    0.9580 C   0  0  0  0  0  0  0  0  0  0  0  0
   -6.8170    0.3590    0.9740 C   0  0  0  0  0  0  0  0  0  0  0  0
   -7.5020    0.6890    2.1740 N   0  0  0  0  0  0  0  0  0  0  0  0
   -7.4910    0.0250   -0.1580 C   0  0  0  0  0  0  0  0  0  0  0  0
   -6.8280   -0.2930   -1.3150 C   0  0  0  0  0  0  0  0  0  0  0  0
   -5.4500   -0.2640   -1.3010 C   0  0  0  0  0  0  0  0  0  0  0  0
   -4.7570   -0.5850   -2.4720 O   0  0  0  0  0  0  0  0  0  0  0  0
   -0.2780    0.0120   -0.6590 C   0  0  0  0  0  0  0  0  0  0  0  0
    1.0850    0.0430   -0.6350 C   0  0  0  0  0  0  0  0  0  0  0  0
    1.9770   -0.2870   -1.8300 C   0  0  0  0  0  0  0  0  0  0  0  0
    3.3690   -0.1250   -1.4880 C   0  0  0  0  0  0  0  0  0  0  0  0
    4.2060   -0.3210   -2.4370 O   0  0  0  0  0  0  0  0  0  0  0  0
  1  2  1  0
  2  3  1  0
  3  4  1  0
  4  5  2  0
  4 24  1  0
  5  6  1  0
  5  7  1  0
  7  8  1  0
  7 22  2  0
  8  9  1  0
  9 10  1  0
  9 21  2  0
 10 11  2  0
 10 12  1  0
 12 13  1  0
 13 14  2  0
 13 19  1  0
 14 15  1  0
 15 16  1  0
 15 17  2  0
 17 18  1  0
 18 19  2  0
 19 20  1  0
 21 22  1  0
 22 23  1  0
 23 24  1  0
 24 25  2  0
M  END
