
     RDKit          3D

 25 28  0  0  0  0  0  0  0  0999 V2000
   -1.4520   -2.5510   -0.1760 N   0  0  0  0  0  0  0  0  0  0  0  0
   -0.4120   -1.6170   -0.3820 C   0  0  0  0  0  0  0  0  0  0  0  0
    0.8240   -1.8820    0.2620 C   0  0  0  0  0  0  0  0  0  0  0  0
    1.8820   -1.0450    0.0760 C   0  0  0  0  0  0  0  0  0  0  0  0
    3.0880   -1.2940    0.6950 C   0  0  0  0  0  0  0  0  0  0  0  0
    3.2150   -2.3090    1.4470 O   0  0  0  0  0  0  0  0  0  0  0  0
    4.1230   -0.4190    0.4700 C   0  0  0  0  0  0  0  0  0  0  0  0
    5.3510   -0.6110    1.0580 C   0  0  0  0  0  0  0  0  0  0  0  0
    6.4010    0.2580    0.8440 C   0  0  0  0  0  0  0  0  0  0  0  0
    6.2550    1.3730    0.0160 C   0  0  0  0  0  0  0  0  0  0  0  0
    5.0270    1.5580   -0.5670 C   0  0  0  0  0  0  0  0  0  0  0  0
    3.9680    0.6920   -0.3570 C   0  0  0  0  0  0  0  0  0  0  0  0
    2.7710    0.8650   -0.9200 N   0  0  0  0  0  0  0  0  0  0  0  0
    1.7040    0.0530   -0.7510 C   0  0  0  0  0  0  0  0  0  0  0  0
    0.5120    0.3110   -1.3720 C   0  0  0  0  0  0  0  0  0  0  0  0
   -0.5810   -0.5380   -1.1900 C   0  0  0  0  0  0  0  0  0  0  0  0
   -2.0870   -0.1280   -2.0660 S   0  0  0  0  0  0  0  0  0  0  0  0
   -3.0210    1.1370   -1.2310 C   0  0  0  0  0  0  0  0  0  0  0  0
   -3.8620    0.6510   -0.1500 C   0  0  0  0  0  0  0  0  0  0  0  0
   -4.0620   -0.6120    0.0880 C   0  0  0  0  0  0  0  0  0  0  0  0
   -4.9220   -1.1500    1.1980 C   0  0  0  0  0  0  0  0  0  0  0  0
   -5.4540   -0.1350    1.9820 O   0  0  0  0  0  0  0  0  0  0  0  0
   -5.2570    1.1950    1.7450 C   0  0  0  0  0  0  0  0  0  0  0  0
   -4.5120    1.6110    0.7500 C   0  0  0  0  0  0  0  0  0  0  0  0
   -4.2800    2.9700    0.4660 O   0  0  0  0  0  0  0  0  0  0  0  0
  1  2  1  0
  2  3  2  0
  2 16  1  0
  3  4  1  0
  4  5  1  0
  4 14  2  0
  5  6  2  0
  5  7  1  0
  7  8  2  0
  7 12  1  0
  8  9  1  0
  9 10  2  0
 10 11  1  0
 11 12  2  0
 12 13  1  0
 13 14  1  0
 14 15  1  0
 15 16  2  0
 16 17  1  0
 17 18  1  0
 18 19  1  0
 19 20  2  0
 19 24  1  0
 20 21  1  0
 21 22  1  0
 22 23  1  0
 23 24  2  0
 24 25  1  0
M  END
