
     RDKit          3D

 25 27  0  0  0  0  0  0  0  0999 V2000
    7.5950   -0.1020    0.6060 C   0  0  0  0  0  0  0  0  0  0  0  0
    6.1140    0.1020    0.4330 C   0  0  0  0  0  0  0  0  0  0  0  0
    5.4160    0.8820    1.3040 C   0  0  0  0  0  0  0  0  0  0  0  0
    4.0410    1.0320    1.0900 C   0  0  0  0  0  0  0  0  0  0  0  0
    3.4520    0.4000    0.0270 C   0  0  0  0  0  0  0  0  0  0  0  0
    1.9970    0.5500   -0.2110 C   0  0  0  0  0  0  0  0  0  0  0  0
    1.3000   -0.5520    0.5370 C   0  0  0  0  0  0  0  0  0  0  0  0
   -0.0940   -0.5200    0.3890 O   0  0  0  0  0  0  0  0  0  0  0  0
   -0.8250    0.5700    0.8140 C   0  0  0  0  0  0  0  0  0  0  0  0
   -0.2520    1.5480    1.3420 O   0  0  0  0  0  0  0  0  0  0  0  0
   -2.2970    0.6140    0.6590 C   0  0  0  0  0  0  0  0  0  0  0  0
   -2.8850   -0.4170    0.1040 C   0  0  0  0  0  0  0  0  0  0  0  0
   -4.3350   -0.4470   -0.0830 C   0  0  0  0  0  0  0  0  0  0  0  0
   -4.8000   -1.6160   -0.6880 C   0  0  0  0  0  0  0  0  0  0  0  0
   -6.1530   -1.7170   -0.8960 C   0  0  0  0  0  0  0  0  0  0  0  0
   -6.9710   -0.6730   -0.5040 C   0  0  0  0  0  0  0  0  0  0  0  0
   -8.7710   -0.4190   -0.5990 S   0  0  0  0  0  0  0  0  0  0  0  0
   -8.7260    1.2480    0.1900 C   0  0  0  0  0  0  0  0  0  0  0  0
   -9.7420    1.9450    0.3960 O   0  0  0  0  0  0  0  0  0  0  0  0
   -7.4240    1.4080    0.4200 N   0  0  0  0  0  0  0  0  0  0  0  0
   -6.5510    0.5010    0.0980 C   0  0  0  0  0  0  0  0  0  0  0  0
   -5.1270    0.5890    0.3100 C   0  0  0  0  0  0  0  0  0  0  0  0
    4.1850   -0.3770   -0.8290 C   0  0  0  0  0  0  0  0  0  0  0  0
    5.5450   -0.5450   -0.6440 C   0  0  0  0  0  0  0  0  0  0  0  0
    6.2810   -1.3570   -1.5480 N   0  0  0  0  0  0  0  0  0  0  0  0
  1  2  1  0
  2  3  2  0
  2 24  1  0
  3  4  1  0
  4  5  2  0
  5  6  1  0
  5 23  1  0
  6  7  1  0
  7  8  1  0
  8  9  1  0
  9 10  2  0
  9 11  1  0
 11 12  2  3
 12 13  1  0
 13 14  2  0
 13 22  1  0
 14 15  1  0
 15 16  2  0
 16 17  1  0
 16 21  1  0
 17 18  1  0
 18 19  2  0
 18 20  1  0
 20 21  1  0
 21 22  2  0
 23 24  2  0
 24 25  1  0
M  END
