
     RDKit          3D

 37 40  0  0  0  0  0  0  0  0999 V2000
    6.0090    2.7960   -0.2060 C   0  0  0  0  0  0  0  0  0  0  0  0
    5.0230    1.7460   -0.5140 C   0  0  0  0  0  0  0  0  0  0  0  0
    4.6120    1.6230   -1.7940 C   0  0  0  0  0  0  0  0  0  0  0  0
    3.6490    0.6750   -2.3700 C   0  0  0  0  0  0  0  0  0  0  0  0
    2.7400   -0.0440   -1.6870 C   0  0  0  0  0  0  0  0  0  0  0  0
    2.4490   -0.1020   -0.2520 C   0  0  0  0  0  0  0  0  0  0  0  0
    1.1960   -0.6680    0.1200 N   0  0  0  0  0  0  0  0  0  0  0  0
   -0.0400   -0.0850   -0.3510 C   0  0  0  0  0  0  0  0  0  0  0  0
    0.0640    0.9180   -1.0860 O   0  0  0  0  0  0  0  0  0  0  0  0
   -1.2960   -0.5870   -0.0240 N   0  0  0  0  0  0  0  0  0  0  0  0
   -2.5630   -0.1000   -0.4240 C   0  0  0  0  0  0  0  0  0  0  0  0
   -2.7760    1.0300   -1.1620 C   0  0  0  0  0  0  0  0  0  0  0  0
   -4.0410    1.4810   -1.5490 C   0  0  0  0  0  0  0  0  0  0  0  0
   -5.1580    0.7870   -1.1920 C   0  0  0  0  0  0  0  0  0  0  0  0
   -4.9730   -0.3560   -0.4470 C   0  0  0  0  0  0  0  0  0  0  0  0
   -6.3890   -1.2930    0.0440 S   0  0  2  0  0  0  0  0  0  0  0  0
   -6.0650   -2.7340    0.2000 O   0  0  0  0  0  0  0  0  0  0  0  0
   -7.5550   -1.0620   -0.9440 N   0  0  0  0  0  0  0  0  0  0  0  0
   -8.5930   -0.5360   -0.4500 C   0  0  0  0  0  0  0  0  0  0  0  0
   -9.9400   -1.1480   -0.6160 C   0  0  0  0  0  0  0  0  0  0  0  0
  -10.4740   -1.4990    0.7580 C   0  0  0  0  0  0  0  0  0  0  0  0
  -11.7250   -2.0730    0.6870 F   0  0  0  0  0  0  0  0  0  0  0  0
   -8.4930    0.7210    0.3190 C   0  0  0  0  0  0  0  0  0  0  0  0
   -7.4190    0.6630    1.3920 C   0  0  0  0  0  0  0  0  0  0  0  0
   -6.9460   -0.6920    1.5760 N   0  0  0  0  0  0  0  0  0  0  0  0
   -3.7280   -0.7990   -0.0670 C   0  0  0  0  0  0  0  0  0  0  0  0
    3.2470    0.3270    0.7150 C   0  0  0  0  0  0  0  0  0  0  0  0
    4.5880    0.9530    0.6190 C   0  0  0  0  0  0  0  0  0  0  0  0
    5.4120    0.7640    1.5830 C   0  0  0  0  0  0  0  0  0  0  0  0
    6.7240    1.1830    1.7920 N   0  0  0  0  0  0  0  0  0  0  0  0
    7.8010    0.3600    1.3760 C   0  0  0  0  0  0  0  0  0  0  0  0
    7.5750   -0.8450    0.7500 C   0  0  0  0  0  0  0  0  0  0  0  0
    8.6310   -1.6630    0.3410 C   0  0  0  0  0  0  0  0  0  0  0  0
    9.9200   -1.2360    0.5770 C   0  0  0  0  0  0  0  0  0  0  0  0
   11.1030   -2.0510    0.1760 C   0  0  0  0  0  0  0  0  0  0  0  0
   10.0930   -0.0570    1.1870 N   0  0  0  0  0  0  0  0  0  0  0  0
    9.0780    0.7250    1.5790 N   0  0  0  0  0  0  0  0  0  0  0  0
  1  2  1  0
  2  3  2  0
  2 28  1  0
  3  4  1  0
  4  5  2  0
  5  6  1  0
  6  7  1  0
  6 27  2  0
  7  8  1  0
  8  9  2  0
  8 10  1  0
 10 11  1  0
 11 12  2  0
 11 26  1  0
 12 13  1  0
 13 14  2  0
 14 15  1  0
 16 15  1  6
 15 26  2  0
 16 17  2  0
 16 18  2  0
 16 25  1  0
 18 19  2  0
 19 20  1  0
 19 23  1  0
 20 21  1  0
 21 22  1  0
 23 24  1  0
 24 25  1  0
 27 28  1  0
 28 29  2  3
 29 30  1  0
 30 31  1  0
 31 32  2  0
 31 37  1  0
 32 33  1  0
 33 34  2  0
 34 35  1  0
 34 36  1  0
 36 37  2  0
M  CHG  1  18   1
M  END
