
     RDKit          3D

 37 40  0  0  0  0  0  0  0  0999 V2000
   -3.9270   -4.6930   -0.6700 C   0  0  0  0  0  0  0  0  0  0  0  0
   -5.0020   -4.1800   -0.1670 C   0  0  0  0  0  0  0  0  0  0  0  0
   -5.4100   -2.8120   -0.1270 C   0  0  0  0  0  0  0  0  0  0  0  0
   -6.5810   -2.4860    0.4890 C   0  0  0  0  0  0  0  0  0  0  0  0
   -6.7830   -1.0930    0.4240 O   0  0  0  0  0  0  0  0  0  0  0  0
   -5.3510   -0.5910    0.4330 C   0  0  0  0  0  0  0  0  0  0  0  0
   -4.9050   -1.5020   -0.6540 C   0  0  1  0  0  0  0  0  0  0  0  0
   -3.5740   -1.4800   -1.1910 C   0  0  0  0  0  0  0  0  0  0  0  0
   -3.4720   -2.0460   -2.4990 C   0  0  0  0  0  0  0  0  0  0  0  0
   -4.6970   -2.4310   -3.2550 C   0  0  0  0  0  0  0  0  0  0  0  0
   -2.2650   -2.2000   -3.0400 N   0  0  0  0  0  0  0  0  0  0  0  0
   -1.1380   -1.8450   -2.4050 C   0  0  0  0  0  0  0  0  0  0  0  0
    0.3040   -2.1000   -3.1690 S   0  0  0  0  0  0  0  0  0  0  0  0
   -1.1570   -1.3150   -1.2000 N   0  0  0  0  0  0  0  0  0  0  0  0
   -0.0390   -0.9220   -0.4810 N   0  0  0  0  0  0  0  0  0  0  0  0
    0.9790   -0.3020   -0.9160 C   0  0  0  0  0  0  0  0  0  0  0  0
    2.1110    0.0660   -0.0640 C   0  0  0  0  0  0  0  0  0  0  0  0
    3.1940    0.7090   -0.6000 C   0  0  0  0  0  0  0  0  0  0  0  0
    4.2950    1.0830    0.1730 C   0  0  0  0  0  0  0  0  0  0  0  0
    4.3440    0.8240    1.5120 C   0  0  0  0  0  0  0  0  0  0  0  0
    5.4470    1.1770    2.3760 C   0  0  0  0  0  0  0  0  0  0  0  0
    5.2940    0.8600    3.6240 O   0  0  0  0  0  0  0  0  0  0  0  0
    6.6560    1.8060    2.0780 N   0  0  0  0  0  0  0  0  0  0  0  0
    7.1730    2.2920    0.8410 C   0  0  0  0  0  0  0  0  0  0  0  0
    8.5300    2.9170    1.1530 C   0  0  0  0  0  0  0  0  0  0  0  0
    8.9790    2.1120    2.3550 C   0  0  0  0  0  0  0  0  0  0  0  0
    7.6650    2.0700    3.1340 C   0  0  0  0  0  0  0  0  0  0  0  0
    3.2210    0.1640    2.0390 C   0  0  0  0  0  0  0  0  0  0  0  0
    2.1430   -0.2020    1.2760 C   0  0  0  0  0  0  0  0  0  0  0  0
   -2.3920   -1.1280   -0.5880 C   0  0  0  0  0  0  0  0  0  0  0  0
   -2.3830   -0.4310    0.6210 N   0  0  0  0  0  0  0  0  0  0  0  0
   -2.7190    0.7200    0.9800 C   0  0  0  0  0  0  0  0  0  0  0  0
   -2.5920    1.1560    2.3640 N   0  0  0  0  0  0  0  0  0  0  0  0
   -3.1520    1.6850    0.0100 N   0  0  0  0  0  0  0  0  0  0  0  0
   -2.4920    1.8790   -1.2380 C   0  0  0  0  0  0  0  0  0  0  0  0
   -3.2540    2.9840   -1.9930 C   0  0  0  0  0  0  0  0  0  0  0  0
   -4.5730    2.5720   -2.1860 F   0  0  0  0  0  0  0  0  0  0  0  0
  1  2  2  0
  2  3  1  0
  3  4  2  0
  3  7  1  0
  4  5  1  0
  5  6  1  0
  6  7  1  0
  7  8  1  1
  8  9  1  0
  8 30  2  0
  9 10  1  0
  9 11  2  0
 11 12  1  0
 12 13  2  0
 12 14  1  0
 14 15  1  0
 14 30  1  0
 15 16  2  3
 16 17  1  0
 17 18  2  0
 17 29  1  0
 18 19  1  0
 19 20  2  0
 20 21  1  0
 20 28  1  0
 21 22  2  0
 21 23  1  0
 23 24  1  0
 23 27  1  0
 24 25  1  0
 25 26  1  0
 26 27  1  0
 28 29  2  0
 30 31  1  0
 31 32  2  3
 32 33  1  0
 32 34  1  0
 34 35  1  0
 35 36  1  0
 36 37  1  0
M  CHG  1  11   1
M  END
