
     RDKit          3D

 37 40  0  0  0  0  0  0  0  0999 V2000
   -9.2950    2.9980    2.7200 C   0  0  0  0  0  0  0  0  0  0  0  0
   -8.9050    1.7740    2.0320 C   0  0  0  0  0  0  0  0  0  0  0  0
   -7.7440    1.3380    1.7680 C   0  0  0  0  0  0  0  0  0  0  0  0
   -6.4350    1.8880    2.0470 C   0  0  0  0  0  0  0  0  0  0  0  0
   -6.1760    3.0800    2.6510 C   0  0  0  0  0  0  0  0  0  0  0  0
   -4.8590    3.4960    2.8680 C   0  0  0  0  0  0  0  0  0  0  0  0
   -3.8210    2.6970    2.4720 C   0  0  0  0  0  0  0  0  0  0  0  0
   -4.0730    1.4780    1.8560 C   0  0  0  0  0  0  0  0  0  0  0  0
   -3.0000    0.6390    1.4110 N   0  0  0  0  0  0  0  0  0  0  0  0
   -3.0620   -0.7630    1.7020 C   0  0  0  0  0  0  0  0  0  0  0  0
   -2.8680   -1.5090    0.3780 C   0  0  0  0  0  0  0  0  0  0  0  0
   -1.5500   -1.1980   -0.0930 N   0  0  0  0  0  0  0  0  0  0  0  0
   -0.7670   -2.1610   -0.7950 C   0  0  0  0  0  0  0  0  0  0  0  0
    0.4970   -1.8150   -1.2820 C   0  0  0  0  0  0  0  0  0  0  0  0
    1.2640   -2.7450   -1.9450 C   0  0  0  0  0  0  0  0  0  0  0  0
    2.5990   -2.4120   -2.4940 C   0  0  1  0  0  0  0  0  0  0  0  0
    2.5000   -1.9290   -3.9210 C   0  0  0  0  0  0  0  0  0  0  0  0
    3.3590   -1.5490   -1.6390 N   0  0  0  0  0  0  0  0  0  0  0  0
    4.7250   -1.4900   -2.1410 C   0  0  0  0  0  0  0  0  0  0  0  0
    5.5810   -0.6250   -1.3070 C   0  0  0  0  0  0  0  0  0  0  0  0
    6.1620    0.4270   -1.8060 C   0  0  0  0  0  0  0  0  0  0  0  0
    7.0190    1.3400   -1.0800 C   0  0  0  0  0  0  0  0  0  0  0  0
    7.5610    2.4640   -1.7930 C   0  0  0  0  0  0  0  0  0  0  0  0
    8.0110    3.3710   -2.3890 N   0  0  0  0  0  0  0  0  0  0  0  0
    7.3130    1.2000    0.1840 C   0  0  0  0  0  0  0  0  0  0  0  0
    8.2190    2.2150    0.8270 C   0  0  0  0  0  0  0  0  0  0  0  0
    7.5460    2.8380    1.8650 F   0  0  0  0  0  0  0  0  0  0  0  0
    6.8520    0.1730    1.0190 N   0  0  0  0  0  0  0  0  0  0  0  0
    5.8050   -1.0350    0.3930 S   0  0  2  0  0  0  0  0  0  0  0  0
    6.4330   -2.4120    0.4730 O   0  0  0  0  0  0  0  0  0  0  0  0
    4.4750   -1.0430    1.1000 O   0  0  0  0  0  0  0  0  0  0  0  0
    0.7390   -4.0180   -2.1060 C   0  0  0  0  0  0  0  0  0  0  0  0
   -0.5190   -4.3260   -1.6100 C   0  0  0  0  0  0  0  0  0  0  0  0
   -1.2290   -3.3940   -0.9750 N   0  0  0  0  0  0  0  0  0  0  0  0
   -0.9720    0.1110    0.1310 C   0  0  0  0  0  0  0  0  0  0  0  0
   -1.8860    1.1460    0.6740 C   0  0  0  0  0  0  0  0  0  0  0  0
   -5.3490    1.1470    1.6810 N   0  0  0  0  0  0  0  0  0  0  0  0
  1  2  1  0
  2  3  2  3
  3  4  1  0
  4  5  2  0
  4 37  1  0
  5  6  1  0
  6  7  2  0
  7  8  1  0
  8  9  1  0
  8 37  2  0
  9 10  1  0
  9 36  1  0
 10 11  1  0
 11 12  1  0
 12 13  1  0
 12 35  1  0
 13 14  2  0
 13 34  1  0
 14 15  1  0
 15 16  1  0
 15 32  2  0
 16 17  1  6
 16 18  1  0
 18 19  1  0
 19 20  1  0
 20 21  2  0
 20 29  1  0
 21 22  1  0
 22 23  1  0
 22 25  2  0
 23 24  3  0
 25 26  1  0
 25 28  1  0
 26 27  1  0
 29 28  1  1
 29 30  2  0
 29 31  2  0
 32 33  1  0
 33 34  2  0
 35 36  1  0
M  CHG  1  34   1
M  END
