
     RDKit          3D

 36 39  0  0  0  0  0  0  0  0999 V2000
   -4.8280   -2.9870   -2.3580 C   0  0  0  0  0  0  0  0  0  0  0  0
   -5.6960   -2.0780   -1.7410 N   0  0  2  0  0  0  0  0  0  0  0  0
   -7.1120   -2.3420   -1.9900 C   0  0  0  0  0  0  0  0  0  0  0  0
   -5.4070   -0.7130   -1.3830 C   0  0  0  0  0  0  0  0  0  0  0  0
   -3.9310   -0.4960   -1.0940 C   0  0  0  0  0  0  0  0  0  0  0  0
   -3.6170   -0.0100    0.1960 C   0  0  0  0  0  0  0  0  0  0  0  0
   -4.6840    0.2890    1.1250 C   0  0  0  0  0  0  0  0  0  0  0  0
   -5.5680    1.2280    1.1050 C   0  0  0  0  0  0  0  0  0  0  0  0
   -5.7450    2.2880    0.1260 C   0  0  0  0  0  0  0  0  0  0  0  0
   -6.5360    3.2350    0.6420 C   0  0  0  0  0  0  0  0  0  0  0  0
   -6.9550    2.8820    2.0110 C   0  0  0  0  0  0  0  0  0  0  0  0
   -6.6630    1.4270    2.1230 C   0  0  0  0  0  0  0  0  0  0  0  0
   -2.2590    0.1140    0.5800 C   0  0  0  0  0  0  0  0  0  0  0  0
   -1.2380   -0.2260   -0.2670 C   0  0  0  0  0  0  0  0  0  0  0  0
    0.1410   -0.3730    0.1470 N   0  0  0  0  0  0  0  0  0  0  0  0
    0.7060   -0.2040    1.4070 C   0  0  0  0  0  0  0  0  0  0  0  0
    0.0540    0.5470    2.2200 O   0  0  0  0  0  0  0  0  0  0  0  0
    1.9470   -0.8350    1.8360 C   0  0  0  0  0  0  0  0  0  0  0  0
    3.1190   -0.2370    2.4010 C   0  0  0  0  0  0  0  0  0  0  0  0
    4.1130    0.3670    1.5160 C   0  0  0  0  0  0  0  0  0  0  0  0
    5.2060    0.7580    2.1790 N   0  0  0  0  0  0  0  0  0  0  0  0
    6.3860    1.3730    1.6900 N   0  0  0  0  0  0  0  0  0  0  0  0
    6.6080    1.6630    0.3200 C   0  0  0  0  0  0  0  0  0  0  0  0
    7.6120    1.2440   -0.2810 N   0  0  0  0  0  0  0  0  0  0  0  0
    8.7070    0.4710    0.1070 C   0  0  0  0  0  0  0  0  0  0  0  0
    9.9800    0.6180   -0.3780 C   0  0  0  0  0  0  0  0  0  0  0  0
   10.9700   -0.2420    0.0170 C   0  0  0  0  0  0  0  0  0  0  0  0
   10.7660   -1.2450    0.8590 N   0  0  0  0  0  0  0  0  0  0  0  0
    9.5270   -1.4080    1.3430 C   0  0  0  0  0  0  0  0  0  0  0  0
    8.4980   -0.5740    0.9880 C   0  0  0  0  0  0  0  0  0  0  0  0
    5.4500    2.6270   -0.6870 S   0  0  0  0  0  0  0  0  0  0  0  0
    3.8140    1.7920   -0.5490 C   0  0  0  0  0  0  0  0  0  0  0  0
    4.0230    0.4380    0.0710 C   0  0  0  0  0  0  0  0  0  0  0  0
   -1.5830   -0.6610   -1.4750 N   0  0  0  0  0  0  0  0  0  0  0  0
   -2.8990   -0.7910   -1.8880 C   0  0  0  0  0  0  0  0  0  0  0  0
   -3.0530   -1.1980   -3.0910 O   0  0  0  0  0  0  0  0  0  0  0  0
  2  1  1  6
  2  3  1  0
  2  4  1  0
  4  5  1  0
  5  6  2  0
  5 35  1  0
  6  7  1  0
  6 13  1  0
  7  8  2  3
  8  9  1  0
  8 12  1  0
  9 10  2  0
 10 11  1  0
 11 12  1  0
 13 14  2  0
 14 15  1  0
 14 34  1  0
 15 16  1  0
 16 17  2  0
 16 18  1  0
 18 19  1  0
 19 20  1  0
 20 21  2  0
 20 33  1  0
 21 22  1  0
 22 23  1  0
 23 24  2  3
 23 31  1  0
 24 25  1  0
 25 26  2  0
 25 30  1  0
 26 27  1  0
 27 28  2  0
 28 29  1  0
 29 30  2  0
 31 32  1  0
 32 33  1  0
 34 35  1  0
 35 36  2  0
M  CHG  1   2   1
M  END
