
     RDKit          3D

 37 41  0  0  0  0  0  0  0  0999 V2000
    2.4890   -0.8910   -0.2640 C   0  0  0  0  0  0  0  0  0  0  0  0
    2.9580   -1.1160    1.1250 C   0  0  0  0  0  0  0  0  0  0  0  0
    2.1940   -0.7390    2.1260 C   0  0  0  0  0  0  0  0  0  0  0  0
    0.8940   -0.1060    2.0350 C   0  0  0  0  0  0  0  0  0  0  0  0
    0.6160    1.0810    2.7180 C   0  0  0  0  0  0  0  0  0  0  0  0
   -0.6750    1.4170    2.4660 N   0  0  0  0  0  0  0  0  0  0  0  0
   -1.2030    0.4870    1.6580 C   0  0  0  0  0  0  0  0  0  0  0  0
   -2.5640    0.5060    1.1560 C   0  0  0  0  0  0  0  0  0  0  0  0
   -2.8850    0.0190   -0.0550 C   0  0  0  0  0  0  0  0  0  0  0  0
   -1.8620   -0.4800   -0.7490 F   0  0  0  0  0  0  0  0  0  0  0  0
   -4.2360    0.0270   -0.5830 C   0  0  0  0  0  0  0  0  0  0  0  0
   -4.4730   -0.5050   -1.8490 C   0  0  0  0  0  0  0  0  0  0  0  0
   -3.4320   -1.0620   -2.7140 C   0  0  1  0  0  0  0  0  0  0  0  0
   -2.4540   -0.1750   -3.1050 F   0  0  0  0  0  0  0  0  0  0  0  0
   -2.9050   -2.2490   -2.2310 F   0  0  0  0  0  0  0  0  0  0  0  0
   -4.0500   -1.4370   -3.9060 F   0  0  0  0  0  0  0  0  0  0  0  0
   -5.8120   -0.4540   -2.2630 C   0  0  0  0  0  0  0  0  0  0  0  0
   -6.8330    0.0580   -1.5400 C   0  0  0  0  0  0  0  0  0  0  0  0
   -6.5520    0.5750   -0.2930 C   0  0  0  0  0  0  0  0  0  0  0  0
   -7.6020    1.0940    0.4390 C   0  0  0  0  0  0  0  0  0  0  0  0
   -7.3610    1.6150    1.6850 C   0  0  0  0  0  0  0  0  0  0  0  0
   -6.0770    1.6060    2.1760 C   0  0  0  0  0  0  0  0  0  0  0  0
   -5.0140    1.0880    1.4530 C   0  0  0  0  0  0  0  0  0  0  0  0
   -5.2560    0.5630    0.1910 C   0  0  0  0  0  0  0  0  0  0  0  0
   -3.6460    1.0650    1.9550 C   0  0  0  0  0  0  0  0  0  0  0  0
   -3.4190    1.5470    3.1150 O   0  0  0  0  0  0  0  0  0  0  0  0
   -0.2300   -0.4190    1.4180 N   0  0  0  0  0  0  0  0  0  0  0  0
    4.5430   -1.8450    1.4890 S   0  0  0  0  0  0  0  0  0  0  0  0
    5.6990   -1.7870    0.1760 C   0  0  0  0  0  0  0  0  0  0  0  0
    6.6680   -2.6510    0.0060 N   0  0  0  0  0  0  0  0  0  0  0  0
    7.4270   -2.3310   -1.1550 C   0  0  0  0  0  0  0  0  0  0  0  0
    8.5880   -2.5910   -1.4820 O   0  0  0  0  0  0  0  0  0  0  0  0
    6.4670   -1.5340   -2.0080 C   0  0  0  0  0  0  0  0  0  0  0  0
    5.7660   -0.8650   -0.8880 N   0  0  0  0  0  0  0  0  0  0  0  0
    5.3150    0.4740   -0.9340 C   0  0  0  0  0  0  0  0  0  0  0  0
    6.4920    1.4690   -0.9780 C   0  0  0  0  0  0  0  0  0  0  0  0
    7.2850    1.3170    0.1560 O   0  0  0  0  0  0  0  0  0  0  0  0
  1  2  1  0
  2  3  2  3
  2 28  1  0
  3  4  1  0
  4  5  2  0
  4 27  1  0
  5  6  1  0
  6  7  1  0
  7  8  1  0
  7 27  2  0
  8  9  2  0
  8 25  1  0
  9 10  1  0
  9 11  1  0
 11 12  2  0
 11 24  1  0
 12 13  1  0
 12 17  1  0
 13 14  1  6
 13 15  1  0
 13 16  1  0
 17 18  2  0
 18 19  1  0
 19 20  2  0
 19 24  1  0
 20 21  1  0
 21 22  2  0
 22 23  1  0
 23 24  2  0
 23 25  1  0
 25 26  2  0
 28 29  1  0
 29 30  2  0
 29 34  1  0
 30 31  1  0
 31 32  2  0
 31 33  1  0
 33 34  1  0
 34 35  1  0
 35 36  1  0
 36 37  1  0
M  CHG  1  27   1
M  END
