
     RDKit          3D

 36 40  0  0  0  0  0  0  0  0999 V2000
   10.7150    0.6160   -0.3350 N   0  0  0  0  0  0  0  0  0  0  0  0
    9.6820    0.3610    0.1370 C   0  0  0  0  0  0  0  0  0  0  0  0
    8.3930    0.0680    0.7330 C   0  0  0  0  0  0  0  0  0  0  0  0
    7.8290    0.8140    1.7360 C   0  0  0  0  0  0  0  0  0  0  0  0
    6.6020    0.5170    2.3050 C   0  0  0  0  0  0  0  0  0  0  0  0
    5.8860   -0.5660    1.8710 C   0  0  0  0  0  0  0  0  0  0  0  0
    4.3690   -1.0770    2.5080 S   0  0  2  0  0  0  0  0  0  0  0  0
    4.3660   -0.9840    4.0250 O   0  0  0  0  0  0  0  0  0  0  0  0
    4.2300   -2.5730    2.2220 O   0  0  0  0  0  0  0  0  0  0  0  0
    2.9940   -0.2880    1.9100 N   0  0  0  0  0  0  0  0  0  0  0  0
    2.5880   -0.2900    0.5520 C   0  0  0  0  0  0  0  0  0  0  0  0
    3.4690    0.1090   -0.4140 C   0  0  0  0  0  0  0  0  0  0  0  0
    3.1210    0.1640   -1.7590 C   0  0  0  0  0  0  0  0  0  0  0  0
    1.8500   -0.1900   -2.1610 C   0  0  0  0  0  0  0  0  0  0  0  0
    0.9570   -0.5920   -1.2040 C   0  0  0  0  0  0  0  0  0  0  0  0
   -0.4060   -0.9680   -1.5810 C   0  0  1  0  0  0  0  0  0  0  0  0
   -1.4540   -0.2690   -0.7680 C   0  0  0  0  0  0  0  0  0  0  0  0
   -2.6130   -0.9630   -0.4180 C   0  0  0  0  0  0  0  0  0  0  0  0
   -2.7530   -2.2650   -0.8450 O   0  0  0  0  0  0  0  0  0  0  0  0
   -3.5790   -0.3300    0.3410 C   0  0  0  0  0  0  0  0  0  0  0  0
   -3.4200    0.9740    0.7600 C   0  0  0  0  0  0  0  0  0  0  0  0
   -2.3090    1.5710    0.3980 O   0  0  0  0  0  0  0  0  0  0  0  0
   -1.3610    1.0220   -0.3200 C   0  0  0  0  0  0  0  0  0  0  0  0
   -0.3100    1.6570   -0.6350 O   0  0  0  0  0  0  0  0  0  0  0  0
   -4.1880    1.9850    1.5620 C   0  0  0  0  0  0  0  0  0  0  0  0
   -5.4240    2.4720    0.8750 C   0  0  0  0  0  0  0  0  0  0  0  0
   -6.6360    1.6140    1.2390 C   0  0  0  0  0  0  0  0  0  0  0  0
   -6.5510    0.3260    0.4440 C   0  0  0  0  0  0  0  0  0  0  0  0
   -5.8430   -0.7280    1.2870 C   0  0  0  0  0  0  0  0  0  0  0  0
   -4.6770   -1.3240    0.5290 C   0  0  0  0  0  0  0  0  0  0  0  0
   -0.7500   -0.8030   -3.0260 C   0  0  2  0  0  0  0  0  0  0  0  0
   -0.7190    0.4550   -3.7640 C   0  0  0  0  0  0  0  0  0  0  0  0
   -2.0470   -0.1830   -3.4360 C   0  0  0  0  0  0  0  0  0  0  0  0
    1.3240   -0.6370    0.1150 C   0  0  0  0  0  0  0  0  0  0  0  0
    6.4610   -1.3220    0.8510 C   0  0  0  0  0  0  0  0  0  0  0  0
    7.6730   -1.0410    0.2790 C   0  0  0  0  0  0  0  0  0  0  0  0
  1  2  3  0
  2  3  1  0
  3  4  2  0
  3 36  1  0
  4  5  1  0
  5  6  2  0
  6  7  1  0
  6 35  1  0
  7  8  2  0
  7  9  2  0
  7 10  1  6
 10 11  1  0
 11 12  2  0
 11 34  1  0
 12 13  1  0
 13 14  2  0
 14 15  1  0
 16 15  1  6
 15 34  2  0
 16 17  1  0
 16 31  1  0
 17 18  2  0
 17 23  1  0
 18 19  1  0
 18 20  1  0
 20 21  2  0
 20 30  1  0
 21 22  1  0
 21 25  1  0
 22 23  1  0
 23 24  2  0
 25 26  1  0
 26 27  1  0
 27 28  1  0
 28 29  1  0
 29 30  1  0
 31 32  1  1
 31 33  1  0
 32 33  1  0
 35 36  2  0
M  END
