
     RDKit          3D

 37 41  0  0  0  0  0  0  0  0999 V2000
    3.9820    3.3360   -2.2820 C   0  0  0  0  0  0  0  0  0  0  0  0
    3.7120    1.9810   -2.5750 N   0  0  0  0  0  0  0  0  0  0  0  0
    3.3320    0.9600   -1.9720 C   0  0  0  0  0  0  0  0  0  0  0  0
    2.9790    0.7170   -0.6100 C   0  0  0  0  0  0  0  0  0  0  0  0
    3.0340    1.7060    0.2540 C   0  0  0  0  0  0  0  0  0  0  0  0
    2.7520    1.8350    1.7050 C   0  0  0  0  0  0  0  0  0  0  0  0
    3.2570    2.9790    2.1270 C   0  0  0  0  0  0  0  0  0  0  0  0
    3.9130    3.8550    1.3310 F   0  0  0  0  0  0  0  0  0  0  0  0
    2.0980    1.0850    2.7690 C   0  0  0  0  0  0  0  0  0  0  0  0
    2.7500   -0.2530    3.0400 C   0  0  0  0  0  0  0  0  0  0  0  0
    2.3640   -1.2420    2.0590 N   0  0  0  0  0  0  0  0  0  0  0  0
    2.3670   -1.3790    0.6570 C   0  0  0  0  0  0  0  0  0  0  0  0
    2.0200   -2.7780    0.2040 C   0  0  0  0  0  0  0  0  0  0  0  0
    0.8980   -2.9870   -0.5030 C   0  0  0  0  0  0  0  0  0  0  0  0
   -0.2700   -2.2990   -0.8640 N   0  0  0  0  0  0  0  0  0  0  0  0
   -0.7830   -1.0810   -0.4030 C   0  0  0  0  0  0  0  0  0  0  0  0
   -0.1830   -0.4620    0.4700 O   0  0  0  0  0  0  0  0  0  0  0  0
   -2.0150   -0.5340   -0.9390 N   0  0  0  0  0  0  0  0  0  0  0  0
   -2.4970    0.7080   -0.4410 C   0  0  0  0  0  0  0  0  0  0  0  0
   -1.8750    1.4280    0.5170 N   0  0  0  0  0  0  0  0  0  0  0  0
   -2.5630    2.5280    0.7630 N   0  0  0  0  0  0  0  0  0  0  0  0
   -2.1570    3.5300    1.7540 C   0  0  0  0  0  0  0  0  0  0  0  0
   -3.6450    2.5490   -0.0270 C   0  0  0  0  0  0  0  0  0  0  0  0
   -3.6090    1.4090   -0.7840 C   0  0  0  0  0  0  0  0  0  0  0  0
   -4.6070    1.0010   -1.8040 C   0  0  2  0  0  0  0  0  0  0  0  0
   -5.7070    1.9910   -1.9850 C   0  0  0  0  0  0  0  0  0  0  0  0
   -6.8400    1.6850   -1.0680 C   0  0  0  0  0  0  0  0  0  0  0  0
   -6.5110    0.7680    0.0690 C   0  0  0  0  0  0  0  0  0  0  0  0
   -5.7050   -0.4310   -0.3570 C   0  0  0  0  0  0  0  0  0  0  0  0
   -5.0980   -0.2680   -1.5880 O   0  0  0  0  0  0  0  0  0  0  0  0
    1.0630   -4.7740   -0.9050 S   0  0  0  0  0  0  0  0  0  0  0  0
    2.5770   -5.0220   -0.0930 C   0  0  0  0  0  0  0  0  0  0  0  0
    2.8800   -3.8140    0.4180 C   0  0  0  0  0  0  0  0  0  0  0  0
    4.2210   -3.9950    1.1420 C   0  0  0  0  0  0  0  0  0  0  0  0
    4.1810   -5.4420    1.4990 C   0  0  0  0  0  0  0  0  0  0  0  0
    3.6280   -6.0570    0.2320 C   0  0  0  0  0  0  0  0  0  0  0  0
    2.5890   -0.6820   -0.3800 N   0  0  0  0  0  0  0  0  0  0  0  0
  1  2  1  0
  2  3  2  3
  3  4  1  0
  4  5  2  0
  4 37  1  0
  5  6  1  0
  6  7  2  3
  6  9  1  0
  7  8  1  0
  9 10  1  0
 10 11  1  0
 11 12  1  0
 12 13  1  0
 12 37  2  0
 13 14  2  0
 13 33  1  0
 14 15  1  0
 14 31  1  0
 15 16  1  0
 16 17  2  0
 16 18  1  0
 18 19  1  0
 19 20  2  0
 19 24  1  0
 20 21  1  0
 21 22  1  0
 21 23  1  0
 23 24  2  0
 25 24  1  1
 25 26  1  0
 25 30  1  0
 26 27  1  0
 27 28  1  0
 28 29  1  0
 29 30  1  0
 31 32  1  0
 32 33  2  0
 32 36  1  0
 33 34  1  0
 34 35  1  0
 35 36  1  0
M  CHG  1   2   1
M  END
