
     RDKit          3D

 37 40  0  0  0  0  0  0  0  0999 V2000
    5.8440    0.0490    5.0970 C   0  0  0  0  0  0  0  0  0  0  0  0
    6.1860    0.5050    3.8050 O   0  0  0  0  0  0  0  0  0  0  0  0
    5.3530    0.2180    2.7310 C   0  0  0  0  0  0  0  0  0  0  0  0
    4.1810   -0.5000    2.8460 C   0  0  0  0  0  0  0  0  0  0  0  0
    3.3870   -0.7630    1.7540 C   0  0  0  0  0  0  0  0  0  0  0  0
    3.7850   -0.2890    0.5250 C   0  0  0  0  0  0  0  0  0  0  0  0
    2.9870   -0.5170   -0.6620 C   0  0  0  0  0  0  0  0  0  0  0  0
    1.6970   -0.3410   -0.6760 C   0  0  0  0  0  0  0  0  0  0  0  0
    0.8620    0.2010    0.7940 S   0  0  0  0  0  0  0  0  0  0  0  0
   -0.8900    0.3440    0.3840 C   0  0  0  0  0  0  0  0  0  0  0  0
   -1.3730    1.5450   -0.1160 C   0  0  0  0  0  0  0  0  0  0  0  0
   -2.7070    1.6830   -0.4360 C   0  0  0  0  0  0  0  0  0  0  0  0
   -3.5810    0.6260   -0.2640 C   0  0  0  0  0  0  0  0  0  0  0  0
   -5.0410    0.7550   -0.6120 C   0  0  1  0  0  0  0  0  0  0  0  0
   -5.4520   -0.3970   -1.4080 C   0  0  0  0  0  0  0  0  0  0  0  0
   -4.9360   -0.7230   -2.6790 N   0  0  0  0  0  0  0  0  0  0  0  0
   -6.3430   -1.0670   -0.7900 N   0  0  0  0  0  0  0  0  0  0  0  0
   -6.6760   -0.4980    0.4890 C   0  0  0  0  0  0  0  0  0  0  0  0
   -7.5710   -0.9920    1.3360 C   0  0  0  0  0  0  0  0  0  0  0  0
   -8.2650   -2.1300    1.0220 F   0  0  0  0  0  0  0  0  0  0  0  0
   -7.8120   -0.3950    2.4980 F   0  0  0  0  0  0  0  0  0  0  0  0
   -5.8590    0.6850    0.6540 C   0  0  0  0  0  0  0  0  0  0  0  0
   -5.7660    1.5590    1.6220 C   0  0  0  0  0  0  0  0  0  0  0  0
   -6.4660    1.5530    2.7730 F   0  0  0  0  0  0  0  0  0  0  0  0
   -4.8620    2.5890    1.4420 F   0  0  0  0  0  0  0  0  0  0  0  0
   -3.0710   -0.5490    0.2320 C   0  0  0  0  0  0  0  0  0  0  0  0
   -1.7340   -0.7130    0.5620 C   0  0  0  0  0  0  0  0  0  0  0  0
    0.9590   -0.5990   -1.9320 C   0  0  0  0  0  0  0  0  0  0  0  0
   -0.3670   -0.4710   -2.1260 N   0  0  0  0  0  0  0  0  0  0  0  0
   -0.6180   -0.7950   -3.3760 N   0  0  0  0  0  0  0  0  0  0  0  0
    0.5250   -1.1290   -3.9900 C   0  0  0  0  0  0  0  0  0  0  0  0
    0.6320   -1.5520   -5.4130 C   0  0  0  0  0  0  0  0  0  0  0  0
    1.4540   -0.9960   -3.0760 O   0  0  0  0  0  0  0  0  0  0  0  0
    4.9750    0.4440    0.3920 C   0  0  0  0  0  0  0  0  0  0  0  0
    5.7550    0.6960    1.4870 C   0  0  0  0  0  0  0  0  0  0  0  0
    6.9320    1.4180    1.3710 O   0  0  0  0  0  0  0  0  0  0  0  0
    7.3320    1.9000    0.1060 C   0  0  0  0  0  0  0  0  0  0  0  0
  1  2  1  0
  2  3  1  0
  3  4  2  0
  3 35  1  0
  4  5  1  0
  5  6  2  0
  6  7  1  0
  6 34  1  0
  7  8  2  3
  8  9  1  0
  8 28  1  0
  9 10  1  0
 10 11  2  0
 10 27  1  0
 11 12  1  0
 12 13  2  0
 14 13  1  1
 13 26  1  0
 14 15  1  0
 14 22  1  0
 15 16  1  0
 15 17  2  0
 17 18  1  0
 18 19  2  3
 18 22  1  0
 19 20  1  0
 19 21  1  0
 22 23  2  3
 23 24  1  0
 23 25  1  0
 26 27  2  0
 28 29  2  0
 28 33  1  0
 29 30  1  0
 30 31  2  0
 31 32  1  0
 31 33  1  0
 34 35  2  0
 35 36  1  0
 36 37  1  0
M  CHG  1  17   1
M  END
