
     RDKit          3D

 37 40  0  0  0  0  0  0  0  0999 V2000
   -7.3220   -1.8040    0.7750 C   0  0  0  0  0  0  0  0  0  0  0  0
   -7.5920   -0.5700    1.2370 O   0  0  0  0  0  0  0  0  0  0  0  0
   -6.6690    0.4080    1.4030 C   0  0  0  0  0  0  0  0  0  0  0  0
   -5.7430    0.5060    0.2080 C   0  0  0  0  0  0  0  0  0  0  0  0
   -4.5280   -0.1790    0.2990 C   0  0  0  0  0  0  0  0  0  0  0  0
   -3.5200    0.0470   -0.6150 C   0  0  0  0  0  0  0  0  0  0  0  0
   -2.1690   -0.3860   -0.4480 N   0  0  0  0  0  0  0  0  0  0  0  0
   -1.6560   -1.2870    0.4450 C   0  0  0  0  0  0  0  0  0  0  0  0
   -2.5680   -1.9100    1.1470 O   0  0  0  0  0  0  0  0  0  0  0  0
   -0.3230   -1.6970    0.8160 C   0  0  0  0  0  0  0  0  0  0  0  0
   -0.0550   -3.1350    1.9130 S   0  0  0  0  0  0  0  0  0  0  0  0
    1.6730   -2.8290    2.1360 C   0  0  0  0  0  0  0  0  0  0  0  0
    2.5290   -3.5800    2.9220 C   0  0  0  0  0  0  0  0  0  0  0  0
    3.8510   -3.2200    3.0260 C   0  0  0  0  0  0  0  0  0  0  0  0
    4.1880   -2.1210    2.3100 C   0  0  0  0  0  0  0  0  0  0  0  0
    5.5060   -1.6820    2.3610 F   0  0  0  0  0  0  0  0  0  0  0  0
    3.3510   -1.3320    1.5020 C   0  0  0  0  0  0  0  0  0  0  0  0
    4.0250   -0.2360    0.9100 N   0  0  0  0  0  0  0  0  0  0  0  0
    4.6080   -0.2210   -0.3860 C   0  0  0  0  0  0  0  0  0  0  0  0
    5.0550    1.1090   -0.8160 C   0  0  2  0  0  0  0  0  0  0  0  0
    5.8110    1.0630   -2.1320 C   0  0  0  0  0  0  0  0  0  0  0  0
    6.9980    0.2930   -2.1430 N   0  0  0  0  0  0  0  0  0  0  0  0
    5.8200    1.8740    0.1910 C   0  0  0  0  0  0  0  0  0  0  0  0
    5.4200    1.7300    1.5300 N   0  0  0  0  0  0  0  0  0  0  0  0
    4.2870    0.9210    1.7470 C   0  0  0  0  0  0  0  0  0  0  0  0
    3.5110    1.2310    2.6820 O   0  0  0  0  0  0  0  0  0  0  0  0
    1.9950   -1.6890    1.3980 C   0  0  0  0  0  0  0  0  0  0  0  0
    0.9660   -1.1220    0.7300 C   0  0  0  0  0  0  0  0  0  0  0  0
    1.0070    0.1560   -0.1350 C   0  0  1  0  0  0  0  0  0  0  0  0
   -0.0670    0.9560    0.3850 F   0  0  0  0  0  0  0  0  0  0  0  0
    2.0330    0.9750    0.0930 F   0  0  0  0  0  0  0  0  0  0  0  0
    0.7570   -0.1100   -1.4360 F   0  0  0  0  0  0  0  0  0  0  0  0
   -3.8080    0.9720   -1.6230 C   0  0  0  0  0  0  0  0  0  0  0  0
   -2.8100    1.2110   -2.6790 C   0  0  0  0  0  0  0  0  0  0  0  0
   -5.0080    1.6360   -1.7010 C   0  0  0  0  0  0  0  0  0  0  0  0
   -5.9920    1.4190   -0.7890 C   0  0  0  0  0  0  0  0  0  0  0  0
   -7.3460    2.0810   -0.8390 C   0  0  0  0  0  0  0  0  0  0  0  0
  1  2  1  0
  2  3  1  0
  3  4  1  0
  4  5  2  0
  4 36  1  0
  5  6  1  0
  6  7  1  0
  6 33  2  0
  7  8  1  0
  8  9  2  0
  8 10  1  0
 10 11  1  0
 10 28  2  0
 11 12  1  0
 12 13  2  0
 12 27  1  0
 13 14  1  0
 14 15  2  0
 15 16  1  0
 15 17  1  0
 17 18  1  0
 17 27  2  0
 18 19  1  0
 18 25  1  0
 19 20  1  0
 20 21  1  6
 20 23  1  0
 21 22  1  0
 23 24  1  0
 24 25  1  0
 25 26  2  0
 27 28  1  0
 28 29  1  0
 29 30  1  1
 29 31  1  0
 29 32  1  0
 33 34  1  0
 33 35  1  0
 35 36  2  0
 36 37  1  0
M  CHG  1  24   1
M  END
