
     RDKit          3D

 42 45  0  0  0  0  0  0  0  0999 V2000
   -8.7090   -3.9930   -3.0260 C   0  0  0  0  0  0  0  0  0  0  0  0
   -7.9780   -3.0410   -3.7970 O   0  0  0  0  0  0  0  0  0  0  0  0
   -7.3820   -1.9880   -3.1120 C   0  0  0  0  0  0  0  0  0  0  0  0
   -8.0140   -0.8050   -2.8840 C   0  0  0  0  0  0  0  0  0  0  0  0
   -9.3230   -0.6020   -3.3440 O   0  0  0  0  0  0  0  0  0  0  0  0
   -7.4020    0.2320   -2.1990 C   0  0  0  0  0  0  0  0  0  0  0  0
   -6.1260    0.0740   -1.7340 C   0  0  0  0  0  0  0  0  0  0  0  0
   -5.4610   -1.1290   -1.9570 C   0  0  0  0  0  0  0  0  0  0  0  0
   -4.0660   -1.2010   -1.4020 C   0  0  0  0  0  0  0  0  0  0  0  0
   -3.3280   -0.5290   -0.8190 N   0  0  0  0  0  0  0  0  0  0  0  0
   -2.1110   -0.7720   -0.4030 C   0  0  0  0  0  0  0  0  0  0  0  0
   -1.2200    0.1590    0.3470 C   0  0  0  0  0  0  0  0  0  0  0  0
    0.0200   -0.2430    0.7640 C   0  0  0  0  0  0  0  0  0  0  0  0
    0.8640    0.6220    1.4680 C   0  0  0  0  0  0  0  0  0  0  0  0
    0.4620    1.9170    1.7620 C   0  0  0  0  0  0  0  0  0  0  0  0
    1.2040    2.7470    2.4060 O   0  0  0  0  0  0  0  0  0  0  0  0
    2.2430    3.2250    3.0560 C   0  0  0  0  0  0  0  0  0  0  0  0
    3.5150    3.2090    2.2260 C   0  0  0  0  0  0  0  0  0  0  0  0
    3.9930    2.0320    1.7800 O   0  0  0  0  0  0  0  0  0  0  0  0
    4.4990    0.9160    2.3490 C   0  0  0  0  0  0  0  0  0  0  0  0
    4.6500    0.8050    3.7020 C   0  0  0  0  0  0  0  0  0  0  0  0
    5.1790   -0.3580    4.2610 C   0  0  0  0  0  0  0  0  0  0  0  0
    5.5410   -1.3830    3.4330 C   0  0  0  0  0  0  0  0  0  0  0  0
    5.3880   -1.2730    2.0490 C   0  0  0  0  0  0  0  0  0  0  0  0
    4.8770   -0.1440    1.5140 C   0  0  0  0  0  0  0  0  0  0  0  0
    4.6680    0.0350    0.1160 N   0  0  0  0  0  0  0  0  0  0  0  0
    5.9210    0.0270   -1.0360 S   0  0  1  0  0  0  0  0  0  0  0  0
    5.3170    0.2560   -2.4200 O   0  0  0  0  0  0  0  0  0  0  0  0
    6.8580    1.2030   -0.8370 O   0  0  0  0  0  0  0  0  0  0  0  0
    6.8160   -1.4880   -1.1180 C   0  0  2  0  0  0  0  0  0  0  0  0
    7.8950   -1.4080   -2.2110 C   0  0  0  0  0  0  0  0  0  0  0  0
    5.9470   -2.5780   -1.5310 N   0  0  0  0  0  0  0  0  0  0  0  0
   -0.8150    2.3150    1.3260 C   0  0  0  0  0  0  0  0  0  0  0  0
   -1.1720    3.6130    1.6420 O   0  0  0  0  0  0  0  0  0  0  0  0
   -1.8430    3.8090    2.8920 C   0  0  0  0  0  0  0  0  0  0  0  0
   -1.6290    1.4450    0.6340 C   0  0  0  0  0  0  0  0  0  0  0  0
   -2.8870    1.9160    0.2330 O   0  0  0  0  0  0  0  0  0  0  0  0
   -2.9540    2.5460   -1.0430 C   0  0  0  0  0  0  0  0  0  0  0  0
   -1.6450   -2.0410   -0.7200 C   0  0  0  0  0  0  0  0  0  0  0  0
   -3.0690   -2.7590   -1.6120 S   0  0  0  0  0  0  0  0  0  0  0  0
   -6.0510   -2.1410   -2.6230 C   0  0  0  0  0  0  0  0  0  0  0  0
   -5.4860   -3.3270   -2.8820 O   0  0  0  0  0  0  0  0  0  0  0  0
  1  2  1  0
  2  3  1  0
  3  4  2  0
  3 41  1  0
  4  5  1  0
  4  6  1  0
  6  7  2  0
  7  8  1  0
  8  9  1  0
  8 41  2  0
  9 10  2  0
  9 40  1  0
 10 11  1  0
 11 12  1  0
 11 39  2  0
 12 13  2  0
 12 36  1  0
 13 14  1  0
 14 15  2  0
 15 16  1  0
 15 33  1  0
 16 17  1  0
 17 18  1  0
 18 19  1  0
 19 20  1  0
 20 21  2  0
 20 25  1  0
 21 22  1  0
 22 23  2  0
 23 24  1  0
 24 25  2  0
 25 26  1  0
 27 26  1  1
 27 28  2  0
 27 29  2  0
 27 30  1  0
 30 31  1  6
 30 32  1  0
 33 34  1  0
 33 36  2  0
 34 35  1  0
 36 37  1  0
 37 38  1  0
 39 40  1  0
 41 42  1  0
M  END
