
     RDKit          3D

 42 45  0  0  0  0  0  0  0  0999 V2000
    9.6760    2.7520   -1.1510 C   0  0  0  0  0  0  0  0  0  0  0  0
    8.7950    1.7660   -0.4500 C   0  0  0  0  0  0  0  0  0  0  0  0
    9.1720    1.0750    0.6940 C   0  0  0  0  0  0  0  0  0  0  0  0
    8.1810    0.2700    1.0510 O   0  0  0  0  0  0  0  0  0  0  0  0
    7.1950    0.3920    0.2280 C   0  0  0  0  0  0  0  0  0  0  0  0
    5.9510   -0.3380    0.3140 C   0  0  0  0  0  0  0  0  0  0  0  0
    5.8130   -1.2400    1.2260 O   0  0  0  0  0  0  0  0  0  0  0  0
    4.9060   -0.0750   -0.5730 N   0  0  0  0  0  0  0  0  0  0  0  0
    3.5940   -0.7000   -0.6650 C   0  0  2  0  0  0  0  0  0  0  0  0
    2.5740    0.3460   -0.4600 C   0  0  0  0  0  0  0  0  0  0  0  0
    1.5740    0.2560    0.4240 C   0  0  0  0  0  0  0  0  0  0  0  0
    0.6230    1.4390    0.4980 C   0  0  0  0  0  0  0  0  0  0  0  0
   -0.6570    1.0210   -0.2770 C   0  0  0  0  0  0  0  0  0  0  0  0
   -1.4810    2.2320   -0.4000 N   0  0  0  0  0  0  0  0  0  0  0  0
   -2.9070    2.1630   -1.2050 S   0  0  1  0  0  0  0  0  0  0  0  0
   -2.8470    2.9080   -2.5570 O   0  0  0  0  0  0  0  0  0  0  0  0
   -3.2090    0.6890   -1.6720 O   0  0  0  0  0  0  0  0  0  0  0  0
   -4.3350    2.6410   -0.3460 C   0  0  0  0  0  0  0  0  0  0  0  0
   -4.4190    3.8700    0.1460 C   0  0  0  0  0  0  0  0  0  0  0  0
   -3.4530    4.8830    0.0470 C   0  0  0  0  0  0  0  0  0  0  0  0
   -2.3400    4.8960   -0.5250 O   0  0  0  0  0  0  0  0  0  0  0  0
   -5.5210    1.8010   -0.3640 C   0  0  0  0  0  0  0  0  0  0  0  0
   -6.6360    2.5390   -0.8890 C   0  0  0  0  0  0  0  0  0  0  0  0
   -7.8700    1.9700   -1.0570 C   0  0  0  0  0  0  0  0  0  0  0  0
   -8.0810    0.6600   -0.7230 C   0  0  0  0  0  0  0  0  0  0  0  0
   -9.3410    0.0970   -0.9080 O   0  0  0  0  0  0  0  0  0  0  0  0
   -7.0110   -0.0790   -0.1990 C   0  0  0  0  0  0  0  0  0  0  0  0
   -7.3110   -1.4990    0.0310 C   0  0  0  0  0  0  0  0  0  0  0  0
   -7.5440   -1.7940    1.3980 N   0  0  0  0  0  0  0  0  0  0  0  0
   -7.9620   -3.3850    1.7510 S   0  0  1  0  0  0  0  0  0  0  0  0
   -8.2430   -4.1840    0.4600 O   0  0  0  0  0  0  0  0  0  0  0  0
   -6.9450   -4.1330    2.5480 O   0  0  0  0  0  0  0  0  0  0  0  0
   -5.7720    0.5210   -0.0390 C   0  0  0  0  0  0  0  0  0  0  0  0
    1.4420   -0.8510    1.2070 O   0  0  0  0  0  0  0  0  0  0  0  0
    2.3500   -1.9220    1.0880 C   0  0  0  0  0  0  0  0  0  0  0  0
    2.1600   -3.0190    1.8960 C   0  0  0  0  0  0  0  0  0  0  0  0
    2.9890   -4.1220    1.8360 C   0  0  0  0  0  0  0  0  0  0  0  0
    4.0290   -4.1070    0.9350 C   0  0  0  0  0  0  0  0  0  0  0  0
    4.8920   -5.3140    0.8540 C   0  0  0  0  0  0  0  0  0  0  0  0
    4.2090   -2.9930    0.1290 C   0  0  0  0  0  0  0  0  0  0  0  0
    3.3890   -1.8740    0.1770 C   0  0  0  0  0  0  0  0  0  0  0  0
    7.5230    1.3230   -0.7450 C   0  0  0  0  0  0  0  0  0  0  0  0
  1  2  1  0
  2  3  2  0
  2 42  1  0
  3  4  1  0
  4  5  1  0
  5  6  1  0
  5 42  2  0
  6  7  2  0
  6  8  1  0
  9  8  1  1
  9 10  1  0
  9 41  1  0
 10 11  2  0
 11 12  1  0
 11 34  1  0
 12 13  1  0
 13 14  1  0
 15 14  1  1
 15 16  2  0
 15 17  2  0
 15 18  1  0
 18 19  2  3
 18 22  1  0
 19 20  1  0
 20 21  2  0
 22 23  2  0
 22 33  1  0
 23 24  1  0
 24 25  2  0
 25 26  1  0
 25 27  1  0
 27 28  1  0
 27 33  2  0
 28 29  1  0
 30 29  1  6
 30 31  2  0
 30 32  2  0
 34 35  1  0
 35 36  2  0
 35 41  1  0
 36 37  1  0
 37 38  2  0
 38 39  1  0
 38 40  1  0
 40 41  2  0
M  END
