
     RDKit          3D

 42 45  0  0  0  0  0  0  0  0999 V2000
  -10.7630   -2.8810    0.8550 C   0  0  0  0  0  0  0  0  0  0  0  0
   -9.8660   -1.9730    1.4180 O   0  0  0  0  0  0  0  0  0  0  0  0
   -9.6500   -0.7280    0.8060 C   0  0  0  0  0  0  0  0  0  0  0  0
  -10.3100   -0.3730   -0.3460 C   0  0  0  0  0  0  0  0  0  0  0  0
  -10.0490    0.8610   -0.8940 C   0  0  0  0  0  0  0  0  0  0  0  0
   -9.1390    1.7060   -0.2780 C   0  0  0  0  0  0  0  0  0  0  0  0
   -8.4600    1.3770    0.8820 C   0  0  0  0  0  0  0  0  0  0  0  0
   -7.5460    2.1750    1.5210 O   0  0  0  0  0  0  0  0  0  0  0  0
   -7.1020    3.3990    1.0260 C   0  0  0  0  0  0  0  0  0  0  0  0
   -6.2450    3.1600   -0.2390 C   0  0  0  0  0  0  0  0  0  0  0  0
   -5.1660    2.3320    0.2860 O   0  0  0  0  0  0  0  0  0  0  0  0
   -4.1940    1.8680   -0.6420 C   0  0  0  0  0  0  0  0  0  0  0  0
   -4.3380    2.2000   -1.8240 O   0  0  0  0  0  0  0  0  0  0  0  0
   -3.1420    1.0670   -0.1640 N   0  0  0  0  0  0  0  0  0  0  0  0
   -2.0990    0.5110   -0.9400 C   0  0  0  0  0  0  0  0  0  0  0  0
   -2.0060    0.6870   -2.2840 C   0  0  0  0  0  0  0  0  0  0  0  0
   -0.9440    0.0840   -2.9670 C   0  0  0  0  0  0  0  0  0  0  0  0
   -0.0240   -0.6650   -2.2950 C   0  0  0  0  0  0  0  0  0  0  0  0
   -0.0950   -0.8640   -0.9040 C   0  0  0  0  0  0  0  0  0  0  0  0
    0.7490   -1.5600   -0.2240 O   0  0  0  0  0  0  0  0  0  0  0  0
    1.7510   -2.2980    0.0690 C   0  0  0  0  0  0  0  0  0  0  0  0
    3.1460   -1.7290   -0.2840 C   0  0  2  0  0  0  0  0  0  0  0  0
    4.0980   -2.6630    0.4890 C   0  0  0  0  0  0  0  0  0  0  0  0
    4.1910   -1.9760    1.6740 O   0  0  0  0  0  0  0  0  0  0  0  0
    4.0730   -0.6280    1.3850 C   0  0  1  0  0  0  0  0  0  0  0  0
    5.4620   -0.1250    1.0640 C   0  0  0  0  0  0  0  0  0  0  0  0
    6.0420    1.0340    1.3910 C   0  0  0  0  0  0  0  0  0  0  0  0
    7.3140    1.2680    1.0080 C   0  0  0  0  0  0  0  0  0  0  0  0
    7.9650    0.3210    0.3050 C   0  0  0  0  0  0  0  0  0  0  0  0
    9.2550    0.1700   -0.2740 N   0  0  0  0  0  0  0  0  0  0  0  0
   10.2500    1.1530   -0.2310 C   0  0  0  0  0  0  0  0  0  0  0  0
    9.9280    2.2290    0.3630 O   0  0  0  0  0  0  0  0  0  0  0  0
   11.6030    1.0880   -0.7840 C   0  0  0  0  0  0  0  0  0  0  0  0
   12.1560   -0.5380   -1.2840 S   0  0  0  0  0  0  0  0  0  0  0  0
   12.4960   -1.6190    0.1410 C   0  0  0  0  0  0  0  0  0  0  0  0
   11.3310   -1.9360    0.9170 C   0  0  0  0  0  0  0  0  0  0  0  0
   10.3840   -2.1850    1.5530 N   0  0  0  0  0  0  0  0  0  0  0  0
    6.6690   -0.9750    0.1910 S   0  0  0  0  0  0  0  0  0  0  0  0
    3.2300   -0.5190    0.3460 O   0  0  0  0  0  0  0  0  0  0  0  0
   -1.1670   -0.2470   -0.2580 C   0  0  0  0  0  0  0  0  0  0  0  0
   -8.7410    0.1140    1.4250 C   0  0  0  0  0  0  0  0  0  0  0  0
   -8.0890   -0.2680    2.5880 O   0  0  0  0  0  0  0  0  0  0  0  0
  1  2  1  0
  2  3  1  0
  3  4  2  0
  3 41  1  0
  4  5  1  0
  5  6  2  0
  6  7  1  0
  7  8  1  0
  7 41  2  0
  8  9  1  0
  9 10  1  0
 10 11  1  0
 11 12  1  0
 12 13  2  0
 12 14  1  0
 14 15  1  0
 15 16  2  0
 15 40  1  0
 16 17  1  0
 17 18  2  0
 18 19  1  0
 19 20  1  0
 19 40  2  0
 20 21  1  0
 22 21  1  1
 22 23  1  0
 22 39  1  0
 23 24  1  0
 24 25  1  0
 25 26  1  6
 25 39  1  0
 26 27  2  0
 26 38  1  0
 27 28  1  0
 28 29  2  0
 29 30  1  0
 29 38  1  0
 30 31  1  0
 31 32  2  0
 31 33  1  0
 33 34  1  0
 34 35  1  0
 35 36  1  0
 36 37  3  0
 41 42  1  0
M  END
