
     RDKit          3D

 47 50  0  0  0  0  0  0  0  0999 V2000
  -10.0400    3.2750   -1.4190 C   0  0  0  0  0  0  0  0  0  0  0  0
   -8.7410    3.4910   -0.6490 C   0  0  1  0  0  0  0  0  0  0  0  0
   -9.0280    3.3970    0.8110 C   0  0  0  0  0  0  0  0  0  0  0  0
   -7.7420    2.5110   -1.0930 C   0  0  0  0  0  0  0  0  0  0  0  0
   -8.0960    1.6770   -2.0280 O   0  0  0  0  0  0  0  0  0  0  0  0
   -6.3930    2.4520   -0.5400 C   0  0  0  0  0  0  0  0  0  0  0  0
   -5.8670    3.2070    0.4780 C   0  0  0  0  0  0  0  0  0  0  0  0
   -4.5650    2.7910    0.6590 N   0  0  0  0  0  0  0  0  0  0  0  0
   -4.2970    1.8050   -0.2320 C   0  0  0  0  0  0  0  0  0  0  0  0
   -2.9920    1.0910   -0.4460 C   0  0  2  0  0  0  0  0  0  0  0  0
   -3.2130   -0.2260    0.3530 C   0  0  0  0  0  0  0  0  0  0  0  0
   -4.2610   -1.0630   -0.2000 C   0  0  0  0  0  0  0  0  0  0  0  0
   -3.9160   -1.8940   -1.2830 C   0  0  0  0  0  0  0  0  0  0  0  0
   -4.8140   -2.7690   -1.8450 C   0  0  0  0  0  0  0  0  0  0  0  0
   -6.1020   -2.8660   -1.3720 C   0  0  0  0  0  0  0  0  0  0  0  0
   -6.4140   -2.0340   -0.2990 C   0  0  0  0  0  0  0  0  0  0  0  0
   -5.5250   -1.1580    0.2720 C   0  0  0  0  0  0  0  0  0  0  0  0
   -1.8100    1.7780    0.1260 C   0  0  0  0  0  0  0  0  0  0  0  0
   -0.4760    1.2660   -0.1720 C   0  0  2  0  0  0  0  0  0  0  0  0
   -0.2540    1.3160   -1.6060 O   0  0  0  0  0  0  0  0  0  0  0  0
    0.0580   -0.0350    0.2290 C   0  0  2  0  0  0  0  0  0  0  0  0
    0.2370   -0.2400    1.7440 C   0  0  0  0  0  0  0  0  0  0  0  0
    0.6780   -1.6070    2.0820 C   0  0  0  0  0  0  0  0  0  0  0  0
    1.9490   -2.0990    2.2410 C   0  0  0  0  0  0  0  0  0  0  0  0
    2.2410   -3.4220    2.5290 C   0  0  0  0  0  0  0  0  0  0  0  0
    1.2310   -4.3760    2.6850 C   0  0  0  0  0  0  0  0  0  0  0  0
   -0.0570   -3.8990    2.5330 C   0  0  0  0  0  0  0  0  0  0  0  0
   -0.3280   -2.5940    2.2460 C   0  0  0  0  0  0  0  0  0  0  0  0
    1.4920    0.0540   -0.2630 N   0  0  0  0  0  0  0  0  0  0  0  0
    2.2740   -1.0110   -0.6990 C   0  0  0  0  0  0  0  0  0  0  0  0
    1.8350   -2.1590   -0.6980 O   0  0  0  0  0  0  0  0  0  0  0  0
    3.6870   -0.6710   -1.1320 C   0  0  1  0  0  0  0  0  0  0  0  0
    4.5390   -0.7570    0.0630 N   0  0  0  0  0  0  0  0  0  0  0  0
    5.4320    0.3790    0.2390 C   0  0  0  0  0  0  0  0  0  0  0  0
    5.4720    1.2720   -0.6710 O   0  0  0  0  0  0  0  0  0  0  0  0
    6.2120    0.5260    1.3380 O   0  0  0  0  0  0  0  0  0  0  0  0
    7.1550    1.5500    1.6010 C   0  0  0  0  0  0  0  0  0  0  0  0
    8.3470    1.2840    0.7460 C   0  0  0  0  0  0  0  0  0  0  0  0
    9.3470    0.4360    1.3010 C   0  0  0  0  0  0  0  0  0  0  0  0
   10.4620    0.1240    0.5890 C   0  0  0  0  0  0  0  0  0  0  0  0
   10.6320    0.6310   -0.6980 C   0  0  0  0  0  0  0  0  0  0  0  0
    9.6970    1.4560   -1.2830 C   0  0  0  0  0  0  0  0  0  0  0  0
    8.5580    1.7550   -0.5080 C   0  0  0  0  0  0  0  0  0  0  0  0
    4.2390   -1.7720   -2.0610 C   0  0  2  0  0  0  0  0  0  0  0  0
    4.2700   -3.1150   -1.3580 C   0  0  0  0  0  0  0  0  0  0  0  0
    5.6930   -1.3560   -2.3240 C   0  0  0  0  0  0  0  0  0  0  0  0
   -5.3990    1.6040   -0.9440 N   0  0  0  0  0  0  0  0  0  0  0  0
  2  1  1  6
  2  3  1  0
  2  4  1  0
  4  5  2  0
  4  6  1  0
  6  7  2  0
  6 47  1  0
  7  8  1  0
  8  9  2  0
  9 10  1  0
  9 47  1  0
 10 11  1  1
 10 18  1  0
 11 12  1  0
 12 13  2  0
 12 17  1  0
 13 14  1  0
 14 15  2  0
 15 16  1  0
 16 17  2  0
 18 19  1  0
 19 20  1  6
 19 21  1  0
 21 22  1  1
 21 29  1  0
 22 23  1  0
 23 24  2  0
 23 28  1  0
 24 25  1  0
 25 26  2  0
 26 27  1  0
 27 28  2  0
 29 30  1  0
 30 31  2  0
 30 32  1  0
 32 33  1  1
 32 44  1  0
 33 34  1  0
 34 35  2  0
 34 36  1  0
 36 37  1  0
 37 38  1  0
 38 39  2  0
 38 43  1  0
 39 40  1  0
 40 41  2  0
 41 42  1  0
 42 43  2  0
 44 45  1  1
 44 46  1  0
M  END
