
     RDKit          3D

 41 44  0  0  0  0  0  0  0  0999 V2000
   -2.5030   -7.2160    2.1920 C   0  0  0  0  0  0  0  0  0  0  0  0
   -2.4540   -5.8740    1.6810 O   0  0  0  0  0  0  0  0  0  0  0  0
   -3.4550   -5.4290    0.8300 C   0  0  0  0  0  0  0  0  0  0  0  0
   -4.3730   -6.2420    0.5440 O   0  0  0  0  0  0  0  0  0  0  0  0
   -3.4970   -4.0680    0.2510 C   0  0  0  0  0  0  0  0  0  0  0  0
   -2.3940   -3.3200    0.6910 O   0  0  0  0  0  0  0  0  0  0  0  0
   -2.1740   -2.0040    0.3060 C   0  0  0  0  0  0  0  0  0  0  0  0
   -2.9890   -1.3090   -0.5230 C   0  0  0  0  0  0  0  0  0  0  0  0
   -2.7260    0.0230   -0.8820 C   0  0  0  0  0  0  0  0  0  0  0  0
   -3.6240    0.5780   -1.7780 N   0  0  0  0  0  0  0  0  0  0  0  0
   -1.6340    0.6450   -0.3900 C   0  0  0  0  0  0  0  0  0  0  0  0
   -0.7710   -0.0710    0.4800 C   0  0  0  0  0  0  0  0  0  0  0  0
    0.3250    0.5450    1.0570 C   0  0  0  0  0  0  0  0  0  0  0  0
    1.1690   -0.0280    2.1110 C   0  0  0  0  0  0  0  0  0  0  0  0
    2.5800    1.1290    2.4330 S   0  0  0  0  0  0  0  0  0  0  0  0
    3.8560    0.8100    1.2260 C   0  0  0  0  0  0  0  0  0  0  0  0
    4.6630   -0.2940    1.4830 C   0  0  0  0  0  0  0  0  0  0  0  0
    5.6930   -0.6370    0.6690 C   0  0  0  0  0  0  0  0  0  0  0  0
    6.4460   -1.7760    1.0280 O   0  0  0  0  0  0  0  0  0  0  0  0
    7.5440   -2.2160    0.2410 C   0  0  0  0  0  0  0  0  0  0  0  0
    6.0000    0.0860   -0.4600 C   0  0  0  0  0  0  0  0  0  0  0  0
    5.2050    1.1780   -0.7170 C   0  0  0  0  0  0  0  0  0  0  0  0
    4.1320    1.5400    0.1280 C   0  0  0  0  0  0  0  0  0  0  0  0
    3.4150    2.6520   -0.2320 O   0  0  0  0  0  0  0  0  0  0  0  0
    3.6300    3.4590   -1.3420 C   0  0  0  0  0  0  0  0  0  0  0  0
    0.5010    1.8900    0.7040 C   0  0  0  0  0  0  0  0  0  0  0  0
   -0.3520    2.5190   -0.1380 C   0  0  0  0  0  0  0  0  0  0  0  0
   -0.0990    3.7310   -0.3940 O   0  0  0  0  0  0  0  0  0  0  0  0
   -1.4330    1.9420   -0.7080 N   0  0  0  0  0  0  0  0  0  0  0  0
   -2.2980    2.7300   -1.5650 C   0  0  0  0  0  0  0  0  0  0  0  0
   -3.3720    3.4600   -0.8440 C   0  0  2  0  0  0  0  0  0  0  0  0
   -4.2370    4.2580   -1.7920 C   0  0  0  0  0  0  0  0  0  0  0  0
   -4.9530    5.3100   -1.0010 C   0  0  0  0  0  0  0  0  0  0  0  0
   -3.9710    6.0620   -0.1600 C   0  0  0  0  0  0  0  0  0  0  0  0
   -2.6490    4.8210    0.1340 S   0  0  0  0  0  0  0  0  0  0  0  0
   -1.0300   -1.3740    0.8210 C   0  0  0  0  0  0  0  0  0  0  0  0
   -0.2190   -2.1350    1.6610 O   0  0  0  0  0  0  0  0  0  0  0  0
    0.5390   -3.2140    1.1730 C   0  0  0  0  0  0  0  0  0  0  0  0
    1.4660   -3.0020    0.0730 C   0  0  0  0  0  0  0  0  0  0  0  0
    1.6530   -1.8130   -0.6670 N   0  0  0  0  0  0  0  0  0  0  0  0
    2.2320   -3.9720   -0.3250 O   0  0  0  0  0  0  0  0  0  0  0  0
  1  2  1  0
  2  3  1  0
  3  4  2  0
  3  5  1  0
  5  6  1  0
  6  7  1  0
  7  8  2  0
  7 36  1  0
  8  9  1  0
  9 10  1  0
  9 11  2  0
 11 12  1  0
 11 29  1  0
 12 13  1  0
 12 36  2  0
 13 14  1  0
 13 26  2  0
 14 15  1  0
 15 16  1  0
 16 17  2  0
 16 23  1  0
 17 18  1  0
 18 19  1  0
 18 21  2  0
 19 20  1  0
 21 22  1  0
 22 23  2  0
 23 24  1  0
 24 25  1  0
 26 27  1  0
 27 28  2  0
 27 29  1  0
 29 30  1  0
 31 30  1  6
 31 32  1  0
 31 35  1  0
 32 33  1  0
 33 34  1  0
 34 35  1  0
 36 37  1  0
 37 38  1  0
 38 39  1  0
 39 40  1  0
 39 41  2  0
M  END
