
     RDKit          3D

 42 45  0  0  0  0  0  0  0  0999 V2000
    2.5970    0.5300    3.3640 C   0  0  0  0  0  0  0  0  0  0  0  0
    2.8780    0.0530    2.1640 O   0  0  0  0  0  0  0  0  0  0  0  0
    2.4160   -0.1700    0.9600 C   0  0  0  0  0  0  0  0  0  0  0  0
    1.1890    0.1070    0.4350 C   0  0  0  0  0  0  0  0  0  0  0  0
    0.8110   -0.1840   -0.8700 C   0  0  0  0  0  0  0  0  0  0  0  0
   -0.4400    0.1240   -1.3220 O   0  0  0  0  0  0  0  0  0  0  0  0
   -1.4390    0.6590   -0.5110 C   0  0  0  0  0  0  0  0  0  0  0  0
   -2.5830    0.9930   -1.2770 O   0  0  0  0  0  0  0  0  0  0  0  0
   -2.1330    1.9860   -2.2070 C   0  0  0  0  0  0  0  0  0  0  0  0
   -1.7390    3.2210   -1.4150 C   0  0  0  0  0  0  0  0  0  0  0  0
   -3.2160    3.8490   -0.5950 S   0  0  0  0  0  0  0  0  0  0  0  0
   -4.0460    2.5110    0.2370 C   0  0  0  0  0  0  0  0  0  0  0  0
   -3.7770    2.0580    1.4990 C   0  0  0  0  0  0  0  0  0  0  0  0
   -4.4810    1.0350    2.0910 C   0  0  0  0  0  0  0  0  0  0  0  0
   -5.5140    0.4440    1.3700 C   0  0  0  0  0  0  0  0  0  0  0  0
   -5.7940    0.8830    0.1120 C   0  0  0  0  0  0  0  0  0  0  0  0
   -5.0840    1.8970   -0.4630 C   0  0  0  0  0  0  0  0  0  0  0  0
   -6.8220    0.2920   -0.6180 O   0  0  0  0  0  0  0  0  0  0  0  0
   -7.8420   -0.4590    0.0030 C   0  0  2  0  0  0  0  0  0  0  0  0
   -8.9740    0.4990    0.3730 C   0  0  0  0  0  0  0  0  0  0  0  0
   -9.4940    1.1710   -0.8500 C   0  0  0  0  0  0  0  0  0  0  0  0
  -10.2980    0.6580   -1.6180 O   0  0  0  0  0  0  0  0  0  0  0  0
   -8.9130    2.8250   -1.2290 S   0  0  0  0  0  0  0  0  0  0  0  0
   -7.3860   -1.1490    1.2560 C   0  0  0  0  0  0  0  0  0  0  0  0
   -6.2670   -0.5770    1.8880 O   0  0  0  0  0  0  0  0  0  0  0  0
    1.7550   -0.7950   -1.6790 C   0  0  0  0  0  0  0  0  0  0  0  0
    3.0460   -1.1210   -1.2230 C   0  0  0  0  0  0  0  0  0  0  0  0
    3.9300   -1.7410   -2.0720 O   0  0  0  0  0  0  0  0  0  0  0  0
    4.7700   -2.7290   -1.6750 C   0  0  0  0  0  0  0  0  0  0  0  0
    4.4470   -4.0420   -2.0820 C   0  0  0  0  0  0  0  0  0  0  0  0
    5.2080   -5.1190   -1.7490 C   0  0  0  0  0  0  0  0  0  0  0  0
    6.3440   -4.9440   -0.9800 C   0  0  0  0  0  0  0  0  0  0  0  0
    6.6850   -3.6780   -0.5720 C   0  0  0  0  0  0  0  0  0  0  0  0
    5.9020   -2.5610   -0.9220 C   0  0  0  0  0  0  0  0  0  0  0  0
    6.3400   -1.2870   -0.6930 N   0  0  0  0  0  0  0  0  0  0  0  0
    7.3500   -0.8490    0.3110 C   0  0  0  0  0  0  0  0  0  0  0  0
    7.7830   -1.6400    1.0170 O   0  0  0  0  0  0  0  0  0  0  0  0
    7.5100    0.5610    0.0920 N   0  0  0  0  0  0  0  0  0  0  0  0
    8.7100    0.7640    1.3470 C   0  0  0  0  0  0  0  0  0  0  0  0
    9.1910    2.0550    1.3460 N   0  0  0  0  0  0  0  0  0  0  0  0
    8.9210   -0.1910    1.9780 O   0  0  0  0  0  0  0  0  0  0  0  0
    3.3380   -0.8100    0.0520 C   0  0  0  0  0  0  0  0  0  0  0  0
  1  2  1  0
  2  3  1  0
  3  4  2  0
  3 42  1  0
  4  5  1  0
  5  6  1  0
  5 26  2  0
  6  7  1  0
  7  8  1  0
  8  9  1  0
  9 10  1  0
 10 11  1  0
 11 12  1  0
 12 13  2  0
 12 17  1  0
 13 14  1  0
 14 15  2  0
 15 16  1  0
 15 25  1  0
 16 17  2  0
 16 18  1  0
 18 19  1  0
 19 20  1  1
 19 24  1  0
 20 21  1  0
 21 22  2  0
 21 23  1  0
 24 25  1  0
 26 27  1  0
 27 28  1  0
 27 42  2  0
 28 29  1  0
 29 30  2  0
 29 34  1  0
 30 31  1  0
 31 32  2  0
 32 33  1  0
 33 34  2  0
 34 35  1  0
 35 36  1  0
 36 37  2  0
 36 38  1  0
 38 39  1  0
 39 40  1  0
 39 41  2  0
M  END
