
     RDKit          3D

 42 44  0  0  0  0  0  0  0  0999 V2000
   -5.3320   -6.4990    2.7730 C   0  0  0  0  0  0  0  0  0  0  0  0
   -4.8400   -5.3240    1.9130 C   0  0  0  0  0  0  0  0  0  0  0  0
   -3.8590   -4.5210    2.6940 C   0  0  0  0  0  0  0  0  0  0  0  0
   -3.4020   -3.4350    1.9400 O   0  0  0  0  0  0  0  0  0  0  0  0
   -2.7460   -3.5670    0.7490 C   0  0  0  0  0  0  0  0  0  0  0  0
   -2.5200   -4.6920    0.2670 O   0  0  0  0  0  0  0  0  0  0  0  0
   -2.3090   -2.3320    0.0430 C   0  0  0  0  0  0  0  0  0  0  0  0
   -2.5710   -1.1190    0.6190 O   0  0  0  0  0  0  0  0  0  0  0  0
   -1.6990   -2.4580   -1.0860 C   0  0  0  0  0  0  0  0  0  0  0  0
   -1.1990   -1.3890   -1.9150 C   0  0  0  0  0  0  0  0  0  0  0  0
   -0.5890   -1.7290   -3.0580 C   0  0  0  0  0  0  0  0  0  0  0  0
   -0.0460   -0.7090   -3.9730 C   0  0  0  0  0  0  0  0  0  0  0  0
   -0.4610   -3.0920   -3.3960 O   0  0  0  0  0  0  0  0  0  0  0  0
   -1.2990    0.0540   -1.6090 C   0  0  2  0  0  0  0  0  0  0  0  0
   -0.3580    0.3540   -0.0950 S   0  0  0  0  0  0  0  0  0  0  0  0
    1.3660    0.0050   -0.4310 C   0  0  0  0  0  0  0  0  0  0  0  0
    2.2480    0.9160   -0.8450 N   0  0  0  0  0  0  0  0  0  0  0  0
    3.4780    0.3180   -1.0110 C   0  0  0  0  0  0  0  0  0  0  0  0
    4.6950    1.0590   -1.4500 C   0  0  0  0  0  0  0  0  0  0  0  0
    5.7040    1.6020   -0.0590 S   0  0  0  0  0  0  0  0  0  0  0  0
    6.5610    0.2260    0.6760 C   0  0  0  0  0  0  0  0  0  0  0  0
    6.7750   -1.0190   -0.0490 C   0  0  0  0  0  0  0  0  0  0  0  0
    7.3690   -2.1790    0.5440 N   0  0  0  0  0  0  0  0  0  0  0  0
    6.4460   -1.1500   -1.2450 O   0  0  0  0  0  0  0  0  0  0  0  0
    6.9470    0.3750    1.9350 C   0  0  0  0  0  0  0  0  0  0  0  0
    7.6700   -0.6050    2.7730 C   0  0  0  0  0  0  0  0  0  0  0  0
    8.2010    0.2860    3.8820 C   0  0  0  0  0  0  0  0  0  0  0  0
    7.3620    1.3580    3.9760 O   0  0  0  0  0  0  0  0  0  0  0  0
    6.7320    1.5560    2.7820 C   0  0  0  0  0  0  0  0  0  0  0  0
    3.2640   -0.9840   -0.6710 C   0  0  0  0  0  0  0  0  0  0  0  0
    1.9820   -1.1240   -0.3290 O   0  0  0  0  0  0  0  0  0  0  0  0
   -2.6920    0.4730   -1.5880 C   0  0  0  0  0  0  0  0  0  0  0  0
   -3.5440   -0.3340   -2.0900 O   0  0  0  0  0  0  0  0  0  0  0  0
   -3.1800    1.6910   -1.0640 N   0  0  0  0  0  0  0  0  0  0  0  0
   -2.3410    2.6970   -0.4680 C   0  0  0  0  0  0  0  0  0  0  0  0
   -2.9410    4.0420   -0.4760 C   0  0  0  0  0  0  0  0  0  0  0  0
   -4.0270    4.3040   -1.1570 C   0  0  0  0  0  0  0  0  0  0  0  0
   -4.6390    5.6580   -1.1710 C   0  0  0  0  0  0  0  0  0  0  0  0
   -3.8650    6.6470   -0.3210 C   0  0  0  0  0  0  0  0  0  0  0  0
   -4.5310    7.8720   -0.4160 O   0  0  0  0  0  0  0  0  0  0  0  0
   -4.7010    3.2540   -1.9540 C   0  0  0  0  0  0  0  0  0  0  0  0
   -4.6040    1.9710   -1.1170 C   0  0  0  0  0  0  0  0  0  0  0  0
  1  2  1  0
  2  3  1  0
  3  4  1  0
  4  5  1  0
  5  6  2  0
  5  7  1  0
  7  8  1  0
  7  9  2  3
  9 10  1  0
 10 11  2  3
 10 14  1  0
 11 12  1  0
 11 13  1  0
 14 15  1  1
 14 32  1  0
 15 16  1  0
 16 17  2  0
 16 31  1  0
 17 18  1  0
 18 19  1  0
 18 30  2  0
 19 20  1  0
 20 21  1  0
 21 22  1  0
 21 25  2  3
 22 23  1  0
 22 24  2  0
 25 26  1  0
 25 29  1  0
 26 27  1  0
 27 28  1  0
 28 29  1  0
 30 31  1  0
 32 33  2  0
 32 34  1  0
 34 35  1  0
 34 42  1  0
 35 36  1  0
 36 37  2  0
 37 38  1  0
 37 41  1  0
 38 39  1  0
 39 40  1  0
 41 42  1  0
M  END
