
     RDKit          3D

 42 44  0  0  0  0  0  0  0  0999 V2000
    9.5800   -0.9510    2.6520 C   0  0  0  0  0  0  0  0  0  0  0  0
    9.5120   -0.7270    1.1290 C   0  0  0  0  0  0  0  0  0  0  0  0
    9.0260    0.6430    0.9480 C   0  0  0  0  0  0  0  0  0  0  0  0
    7.9290    0.9510    0.3140 C   0  0  0  0  0  0  0  0  0  0  0  0
    7.0700   -0.0430   -0.2820 C   0  0  0  0  0  0  0  0  0  0  0  0
    5.9860    0.3310   -0.9030 C   0  0  0  0  0  0  0  0  0  0  0  0
    5.3520    2.0150   -1.1510 S   0  0  0  0  0  0  0  0  0  0  0  0
    3.8990    1.5080   -2.0670 C   0  0  0  0  0  0  0  0  0  0  0  0
    2.9060    2.4860   -2.5930 C   0  0  0  0  0  0  0  0  0  0  0  0
    2.2540    3.4140   -1.1820 S   0  0  0  0  0  0  0  0  0  0  0  0
    1.3370    2.2570   -0.1350 C   0  0  0  0  0  0  0  0  0  0  0  0
    0.1740    1.7680   -0.9020 C   0  0  0  0  0  0  0  0  0  0  0  0
   -0.0330    2.1430   -2.0740 O   0  0  0  0  0  0  0  0  0  0  0  0
   -0.7050    0.8780   -0.3220 O   0  0  0  0  0  0  0  0  0  0  0  0
   -1.8010    0.4220   -1.0750 C   0  0  2  0  0  0  0  0  0  0  0  0
   -3.0390    0.8580   -0.3300 C   0  0  0  0  0  0  0  0  0  0  0  0
   -4.1330    0.5520   -0.8270 O   0  0  0  0  0  0  0  0  0  0  0  0
   -2.9780    1.5790    0.8750 N   0  0  0  0  0  0  0  0  0  0  0  0
   -4.0820    2.0190    1.6350 C   0  0  0  0  0  0  0  0  0  0  0  0
   -5.3880    1.6640    1.4670 C   0  0  0  0  0  0  0  0  0  0  0  0
   -6.4250    2.1700    2.2690 C   0  0  0  0  0  0  0  0  0  0  0  0
   -6.1570    3.0670    3.2800 C   0  0  0  0  0  0  0  0  0  0  0  0
   -7.1690    3.5810    4.0850 O   0  0  0  0  0  0  0  0  0  0  0  0
   -4.8470    3.4380    3.4650 C   0  0  0  0  0  0  0  0  0  0  0  0
   -4.5960    4.3430    4.4880 O   0  0  0  0  0  0  0  0  0  0  0  0
   -3.2420    4.7420    4.7000 C   0  0  0  0  0  0  0  0  0  0  0  0
   -3.8390    2.9350    2.6730 C   0  0  0  0  0  0  0  0  0  0  0  0
   -1.7240   -1.0700   -1.1120 C   0  0  0  0  0  0  0  0  0  0  0  0
   -0.7750   -1.6420   -0.5320 O   0  0  0  0  0  0  0  0  0  0  0  0
   -2.7190   -1.8100   -1.7960 N   0  0  0  0  0  0  0  0  0  0  0  0
   -2.7740   -3.2170   -1.9110 C   0  0  0  0  0  0  0  0  0  0  0  0
   -1.8600   -4.0930   -1.3840 C   0  0  0  0  0  0  0  0  0  0  0  0
   -2.0060   -5.4800   -1.5540 C   0  0  0  0  0  0  0  0  0  0  0  0
   -1.0520   -6.3270   -1.0000 O   0  0  0  0  0  0  0  0  0  0  0  0
   -3.0600   -6.0220   -2.2500 C   0  0  0  0  0  0  0  0  0  0  0  0
   -3.9710   -5.1330   -2.7740 C   0  0  0  0  0  0  0  0  0  0  0  0
   -3.8470   -3.7590   -2.6180 C   0  0  0  0  0  0  0  0  0  0  0  0
   -4.7730   -2.8780   -3.1520 O   0  0  0  0  0  0  0  0  0  0  0  0
   -5.8720   -3.4400   -3.8770 C   0  0  0  0  0  0  0  0  0  0  0  0
    3.9350    0.2550   -2.1440 N   0  0  0  0  0  0  0  0  0  0  0  0
    4.9630   -0.4550   -1.5800 C   0  0  0  0  0  0  0  0  0  0  0  0
    5.0600   -1.7330   -1.6230 O   0  0  0  0  0  0  0  0  0  0  0  0
  1  2  1  0
  2  3  1  0
  3  4  2  3
  4  5  1  0
  5  6  2  3
  6  7  1  0
  6 41  1  0
  7  8  1  0
  8  9  1  0
  8 40  2  0
  9 10  1  0
 10 11  1  0
 11 12  1  0
 12 13  2  0
 12 14  1  0
 15 14  1  1
 15 16  1  0
 15 28  1  0
 16 17  2  0
 16 18  1  0
 18 19  1  0
 19 20  2  0
 19 27  1  0
 20 21  1  0
 21 22  2  0
 22 23  1  0
 22 24  1  0
 24 25  1  0
 24 27  2  0
 25 26  1  0
 28 29  2  0
 28 30  1  0
 30 31  1  0
 31 32  2  0
 31 37  1  0
 32 33  1  0
 33 34  1  0
 33 35  2  0
 35 36  1  0
 36 37  2  0
 37 38  1  0
 38 39  1  0
 40 41  1  0
 41 42  2  0
M  END
