
     RDKit          3D

 42 45  0  0  0  0  0  0  0  0999 V2000
    2.7260    2.6400    2.1390 C   0  0  0  0  0  0  0  0  0  0  0  0
    1.9140    1.4910    1.6820 C   0  0  0  0  0  0  0  0  0  0  0  0
    1.4000    1.6690    0.2470 C   0  0  0  0  0  0  0  0  0  0  0  0
    2.2660    1.4230   -0.8050 C   0  0  0  0  0  0  0  0  0  0  0  0
    3.6530    0.9960   -0.9330 C   0  0  0  0  0  0  0  0  0  0  0  0
    4.1040    0.8670   -2.1470 O   0  0  0  0  0  0  0  0  0  0  0  0
    4.5960    0.6850    0.0360 N   0  0  0  0  0  0  0  0  0  0  0  0
    5.9350    0.2490   -0.2730 C   0  0  0  0  0  0  0  0  0  0  0  0
    6.4130   -0.9420    0.2300 C   0  0  0  0  0  0  0  0  0  0  0  0
    7.6900   -1.3450   -0.0040 C   0  0  0  0  0  0  0  0  0  0  0  0
    8.5680   -0.5510   -0.7720 C   0  0  0  0  0  0  0  0  0  0  0  0
    9.8420   -1.0050   -0.9790 O   0  0  0  0  0  0  0  0  0  0  0  0
   10.8570   -0.3470   -1.6810 C   0  0  0  0  0  0  0  0  0  0  0  0
   12.0540   -1.2820   -1.6810 C   0  0  2  0  0  0  0  0  0  0  0  0
   11.8510   -2.6960   -1.1880 C   0  0  0  0  0  0  0  0  0  0  0  0
   12.5970   -1.7270   -0.4940 O   0  0  0  0  0  0  0  0  0  0  0  0
    8.0800    0.6300   -1.2660 C   0  0  0  0  0  0  0  0  0  0  0  0
    6.7540    1.0340   -1.0160 C   0  0  0  0  0  0  0  0  0  0  0  0
    1.2350    1.7030   -2.2150 S   0  0  0  0  0  0  0  0  0  0  0  0
   -0.2470    2.1200   -1.2910 C   0  0  0  0  0  0  0  0  0  0  0  0
   -1.6330    2.5970   -1.9870 S   0  0  0  0  0  0  0  0  0  0  0  0
    0.1520    2.0150   -0.0200 N   0  0  0  0  0  0  0  0  0  0  0  0
   -0.8170    2.0870    1.0460 C   0  0  0  0  0  0  0  0  0  0  0  0
   -0.3930    2.6220    2.1700 O   0  0  0  0  0  0  0  0  0  0  0  0
   -2.1940    1.6620    1.1680 C   0  0  0  0  0  0  0  0  0  0  0  0
   -2.8780    0.9980    0.3590 O   0  0  0  0  0  0  0  0  0  0  0  0
   -3.5800    0.3170   -0.4720 C   0  0  0  0  0  0  0  0  0  0  0  0
   -4.2440    1.0430   -1.3520 O   0  0  0  0  0  0  0  0  0  0  0  0
   -3.7840   -1.1260   -0.6380 C   0  0  0  0  0  0  0  0  0  0  0  0
   -5.0620   -1.6480   -0.8780 N   0  0  0  0  0  0  0  0  0  0  0  0
   -6.0080   -1.7320    0.1650 C   0  0  2  0  0  0  0  0  0  0  0  0
   -6.7620   -2.9450    0.0450 O   0  0  0  0  0  0  0  0  0  0  0  0
   -6.5770   -3.7620    1.1530 C   0  0  0  0  0  0  0  0  0  0  0  0
   -6.9600   -0.6100    0.2380 C   0  0  0  0  0  0  0  0  0  0  0  0
   -6.7300    0.6380    0.7320 C   0  0  0  0  0  0  0  0  0  0  0  0
   -7.6870    1.6500    0.7910 C   0  0  0  0  0  0  0  0  0  0  0  0
   -7.3870    2.9060    1.3060 O   0  0  0  0  0  0  0  0  0  0  0  0
   -8.9450    1.3430    0.3100 C   0  0  0  0  0  0  0  0  0  0  0  0
   -9.2430    0.1060   -0.2010 C   0  0  0  0  0  0  0  0  0  0  0  0
  -10.5370   -0.1850   -0.6830 O   0  0  0  0  0  0  0  0  0  0  0  0
  -10.7530   -1.5040   -1.1970 C   0  0  0  0  0  0  0  0  0  0  0  0
   -8.2660   -0.8370   -0.2310 C   0  0  0  0  0  0  0  0  0  0  0  0
  1  2  1  0
  2  3  1  0
  3  4  2  0
  3 22  1  0
  4  5  1  0
  4 19  1  0
  5  6  2  0
  5  7  1  0
  7  8  1  0
  8  9  2  0
  8 18  1  0
  9 10  1  0
 10 11  2  0
 11 12  1  0
 11 17  1  0
 12 13  1  0
 14 13  1  1
 14 15  1  0
 14 16  1  0
 15 16  1  0
 17 18  2  0
 19 20  1  0
 20 21  2  0
 20 22  1  0
 22 23  1  0
 23 24  2  0
 23 25  1  0
 25 26  1  0
 26 27  1  0
 27 28  2  0
 27 29  1  0
 29 30  1  0
 31 30  1  6
 31 32  1  0
 31 34  1  0
 32 33  1  0
 34 35  2  0
 34 42  1  0
 35 36  1  0
 36 37  1  0
 36 38  2  0
 38 39  1  0
 39 40  1  0
 39 42  2  0
 40 41  1  0
M  END
