
     RDKit          3D

 34 37  0  0  0  0  0  0  0  0999 V2000
   -7.0380   -4.6250   -0.4740 C   0  0  0  0  0  0  0  0  0  0  0  0
   -5.6620   -4.1090   -0.5220 C   0  0  0  0  0  0  0  0  0  0  0  0
   -5.3790   -2.8630   -0.2270 C   0  0  0  0  0  0  0  0  0  0  0  0
   -4.0370   -2.3140   -0.2620 C   0  0  0  0  0  0  0  0  0  0  0  0
   -3.7710   -1.0260    0.0460 C   0  0  0  0  0  0  0  0  0  0  0  0
   -5.1400   -0.0610    0.4880 Cl  0  0  0  0  0  0  0  0  0  0  0  0
   -2.3950   -0.6250    0.0600 C   0  0  0  0  0  0  0  0  0  0  0  0
   -1.3160   -1.4480   -0.0220 N   0  0  0  0  0  0  0  0  0  0  0  0
   -0.2230   -0.7890    0.0670 N   0  0  0  0  0  0  0  0  0  0  0  0
    1.0760   -1.3520    0.0250 C   0  0  0  0  0  0  0  0  0  0  0  0
    1.8430   -1.4960    1.1520 C   0  0  0  0  0  0  0  0  0  0  0  0
    3.1090   -2.0490    1.0860 C   0  0  0  0  0  0  0  0  0  0  0  0
    3.6100   -2.4650   -0.1470 C   0  0  0  0  0  0  0  0  0  0  0  0
    4.9430   -3.0510   -0.2410 C   0  0  0  0  0  0  0  0  0  0  0  0
    5.6450   -3.1830    0.7930 O   0  0  0  0  0  0  0  0  0  0  0  0
    5.4760   -3.4750   -1.4460 O   0  0  0  0  0  0  0  0  0  0  0  0
    6.7620   -4.0470   -1.5800 C   0  0  0  0  0  0  0  0  0  0  0  0
    2.8020   -2.2970   -1.2400 C   0  0  0  0  0  0  0  0  0  0  0  0
    1.5700   -1.7540   -1.1500 N   0  0  0  0  0  0  0  0  0  0  0  0
   -0.4780    0.5830    0.2220 C   0  0  0  0  0  0  0  0  0  0  0  0
    0.5810    1.4870    0.2380 N   0  0  0  0  0  0  0  0  0  0  0  0
    0.8290    2.7280    0.7680 C   0  0  0  0  0  0  0  0  0  0  0  0
    0.0380    3.2240    1.5690 O   0  0  0  0  0  0  0  0  0  0  0  0
    2.0360    3.5400    0.4230 C   0  0  2  0  0  0  0  0  0  0  0  0
    3.3030    2.8810    0.9420 C   0  0  0  0  0  0  0  0  0  0  0  0
    4.2590    4.0710    0.9220 C   0  0  0  0  0  0  0  0  0  0  0  0
    3.3180    5.2340    0.9350 C   0  0  0  0  0  0  0  0  0  0  0  0
    2.0280    4.7320    1.0940 O   0  0  0  0  0  0  0  0  0  0  0  0
   -1.8310    0.6640    0.2080 C   0  0  0  0  0  0  0  0  0  0  0  0
   -2.7200    1.8580    0.0460 C   0  0  0  0  0  0  0  0  0  0  0  0
   -3.6080    1.8490   -0.9400 C   0  0  0  0  0  0  0  0  0  0  0  0
   -4.4860    3.0270   -1.0870 C   0  0  0  0  0  0  0  0  0  0  0  0
   -4.5610    3.4720    0.7210 S   0  0  0  0  0  0  0  0  0  0  0  0
   -2.7600    3.0080    0.9370 C   0  0  0  0  0  0  0  0  0  0  0  0
  1  2  1  0
  2  3  2  3
  3  4  1  0
  4  5  2  3
  5  6  1  0
  5  7  1  0
  7  8  2  0
  7 29  1  0
  8  9  1  0
  9 10  1  0
  9 20  1  0
 10 11  2  0
 10 19  1  0
 11 12  1  0
 12 13  2  0
 13 14  1  0
 13 18  1  0
 14 15  2  0
 14 16  1  0
 16 17  1  0
 18 19  2  0
 20 21  1  0
 20 29  2  0
 21 22  1  0
 22 23  2  0
 24 22  1  1
 24 25  1  0
 24 28  1  0
 25 26  1  0
 26 27  1  0
 27 28  1  0
 29 30  1  0
 30 31  2  0
 30 34  1  0
 31 32  1  0
 32 33  1  0
 33 34  1  0
M  END
