
     RDKit          3D

 34 36  0  0  0  0  0  0  0  0999 V2000
    0.4400   -2.5010   -1.4680 C   0  0  0  0  0  0  0  0  0  0  0  0
   -0.8540   -1.9230   -1.3560 O   0  0  0  0  0  0  0  0  0  0  0  0
   -1.1890   -1.3380   -0.1460 C   0  0  0  0  0  0  0  0  0  0  0  0
   -1.7860   -2.0060    0.8940 C   0  0  0  0  0  0  0  0  0  0  0  0
   -2.1400   -3.4150    0.7800 C   0  0  0  0  0  0  0  0  0  0  0  0
   -3.3930   -3.7380    0.0540 C   0  0  2  0  0  0  0  0  0  0  0  0
   -3.5310   -5.2700    0.0810 C   0  0  0  0  0  0  0  0  0  0  0  0
   -3.4720   -3.3220   -1.3700 C   0  0  0  0  0  0  0  0  0  0  0  0
   -4.6350   -3.2250    0.7560 C   0  0  0  0  0  0  0  0  0  0  0  0
   -2.0610   -1.3330    2.0200 N   0  0  0  0  0  0  0  0  0  0  0  0
   -1.7580   -0.0100    2.1390 C   0  0  0  0  0  0  0  0  0  0  0  0
   -2.0280    0.6000    3.2080 O   0  0  0  0  0  0  0  0  0  0  0  0
   -1.1580    0.7160    1.1280 C   0  0  0  0  0  0  0  0  0  0  0  0
   -0.8490    2.1320    1.2490 C   0  0  0  0  0  0  0  0  0  0  0  0
   -0.2840    2.7370    0.2660 N   0  0  0  0  0  0  0  0  0  0  0  0
    0.0140    4.1200    0.3880 C   0  0  0  0  0  0  0  0  0  0  0  0
   -0.1860    5.0040   -0.5820 C   0  0  0  0  0  0  0  0  0  0  0  0
    0.2230    6.3450   -0.1400 C   0  0  0  0  0  0  0  0  0  0  0  0
    0.6960    6.1300    1.2350 C   0  0  0  0  0  0  0  0  0  0  0  0
    1.3210    7.3590    2.3120 Cl  0  0  0  0  0  0  0  0  0  0  0  0
    0.5740    4.8450    1.5330 C   0  0  0  0  0  0  0  0  0  0  0  0
    0.9450    4.2230    2.8320 C   0  0  0  0  0  0  0  0  0  0  0  0
   -0.8760    0.0230   -0.0270 C   0  0  0  0  0  0  0  0  0  0  0  0
   -0.2400    0.7490   -1.1650 C   0  0  0  0  0  0  0  0  0  0  0  0
   -1.1580    1.2610   -1.9420 O   0  0  0  0  0  0  0  0  0  0  0  0
    1.0090    0.9070   -1.4350 N   0  0  0  0  0  0  0  0  0  0  0  0
    2.1780    0.8580   -1.5590 C   0  0  0  0  0  0  0  0  0  0  0  0
    3.0860    1.6160   -2.1680 N   0  0  0  0  0  0  0  0  0  0  0  0
    4.3410    1.3560   -2.1710 C   0  0  0  0  0  0  0  0  0  0  0  0
    4.7950    0.2260   -1.5080 C   0  0  0  0  0  0  0  0  0  0  0  0
    6.1480   -0.3180   -1.3420 C   0  0  0  0  0  0  0  0  0  0  0  0
    6.3970   -1.5580   -0.5790 C   0  0  0  0  0  0  0  0  0  0  0  0
    7.0620    0.3450   -1.8930 O   0  0  0  0  0  0  0  0  0  0  0  0
    3.2910   -0.4490   -0.8710 S   0  0  0  0  0  0  0  0  0  0  0  0
  1  2  1  0
  2  3  1  0
  3  4  2  0
  3 23  1  0
  4  5  1  0
  4 10  1  0
  5  6  1  0
  6  7  1  6
  6  8  1  0
  6  9  1  0
 10 11  1  0
 11 12  2  0
 11 13  1  0
 13 14  1  0
 13 23  2  0
 14 15  2  3
 15 16  1  0
 16 17  2  0
 16 21  1  0
 17 18  1  0
 18 19  1  0
 19 20  1  0
 19 21  2  0
 21 22  1  0
 23 24  1  0
 24 25  2  0
 24 26  1  0
 26 27  2  3
 27 28  1  0
 27 34  1  0
 28 29  1  0
 29 30  2  0
 30 31  1  0
 30 34  1  0
 31 32  1  0
 31 33  2  0
M  END
