
     RDKit          3D

 34 37  0  0  0  0  0  0  0  0999 V2000
    8.3790    0.9700   -0.3880 C   0  0  0  0  0  0  0  0  0  0  0  0
    7.1150    0.8980    0.1660 O   0  0  0  0  0  0  0  0  0  0  0  0
    6.5050    2.1370    0.2080 C   0  0  0  0  0  0  0  0  0  0  0  0
    5.1400    1.9320    0.8350 C   0  0  0  0  0  0  0  0  0  0  0  0
    4.0240    1.7160    0.5910 N   0  0  0  0  0  0  0  0  0  0  0  0
    2.9820    1.5770    1.3800 C   0  0  0  0  0  0  0  0  0  0  0  0
    1.5800    1.2950    0.9230 C   0  0  0  0  0  0  0  0  0  0  0  0
    0.7000    1.1910    1.7950 O   0  0  0  0  0  0  0  0  0  0  0  0
    1.2430    1.1500   -0.4270 N   0  0  0  0  0  0  0  0  0  0  0  0
    1.5840    0.2340   -1.2430 C   0  0  0  0  0  0  0  0  0  0  0  0
    1.1060    0.2950   -2.6140 N   0  0  0  0  0  0  0  0  0  0  0  0
   -0.0910    1.0600   -2.8910 C   0  0  0  0  0  0  0  0  0  0  0  0
   -1.2520    0.4970   -2.1470 C   0  0  0  0  0  0  0  0  0  0  0  0
   -2.4860    1.0980   -2.0620 C   0  0  0  0  0  0  0  0  0  0  0  0
   -3.3170    0.3060   -1.3020 C   0  0  0  0  0  0  0  0  0  0  0  0
   -4.6290    0.3820   -0.8830 C   0  0  0  0  0  0  0  0  0  0  0  0
   -5.2190   -0.5870   -0.1040 C   0  0  0  0  0  0  0  0  0  0  0  0
   -6.6420   -0.4980    0.3460 C   0  0  0  0  0  0  0  0  0  0  0  0
   -6.7360   -0.1070    1.8040 C   0  0  1  0  0  0  0  0  0  0  0  0
   -6.1050    1.2250    2.0840 C   0  0  0  0  0  0  0  0  0  0  0  0
   -8.2040   -0.0080    2.1530 C   0  0  0  0  0  0  0  0  0  0  0  0
   -4.4360   -1.6650    0.2500 C   0  0  0  0  0  0  0  0  0  0  0  0
   -5.1720   -2.9100    1.2420 Cl  0  0  0  0  0  0  0  0  0  0  0  0
   -3.1120   -1.7590   -0.1630 C   0  0  0  0  0  0  0  0  0  0  0  0
   -2.5350   -0.7750   -0.9450 C   0  0  0  0  0  0  0  0  0  0  0  0
   -1.3210   -0.6220   -1.4650 O   0  0  0  0  0  0  0  0  0  0  0  0
    2.4110   -0.8830   -0.9630 N   0  0  0  0  0  0  0  0  0  0  0  0
    2.6130   -1.4600    0.3490 C   0  0  0  0  0  0  0  0  0  0  0  0
    2.5320   -2.9690    0.1550 C   0  0  0  0  0  0  0  0  0  0  0  0
    3.6180   -3.4310   -0.5880 O   0  0  0  0  0  0  0  0  0  0  0  0
    4.1740   -2.4370   -1.3950 C   0  0  0  0  0  0  0  0  0  0  0  0
    3.1520   -1.5600   -2.0440 C   0  0  0  0  0  0  0  0  0  0  0  0
    3.2280    1.7050    2.7260 C   0  0  0  0  0  0  0  0  0  0  0  0
    5.0610    2.0360    2.7240 S   0  0  0  0  0  0  0  0  0  0  0  0
  1  2  1  0
  2  3  1  0
  3  4  1  0
  4  5  2  0
  4 34  1  0
  5  6  1  0
  6  7  1  0
  6 33  2  0
  7  8  2  0
  7  9  1  0
  9 10  2  3
 10 11  1  0
 10 27  1  0
 11 12  1  0
 12 13  1  0
 13 14  2  0
 13 26  1  0
 14 15  1  0
 15 16  2  0
 15 25  1  0
 16 17  1  0
 17 18  1  0
 17 22  2  0
 18 19  1  0
 19 20  1  6
 19 21  1  0
 22 23  1  0
 22 24  1  0
 24 25  2  0
 25 26  1  0
 27 28  1  0
 27 32  1  0
 28 29  1  0
 29 30  1  0
 30 31  1  0
 31 32  1  0
 33 34  1  0
M  END
