
     RDKit          3D

 34 37  0  0  0  0  0  0  0  0999 V2000
   -0.9630   -1.3360   -1.8180 C   0  0  0  0  0  0  0  0  0  0  0  0
   -1.4670   -0.9040   -0.4290 C   0  0  2  0  0  0  0  0  0  0  0  0
   -2.5930   -1.8390   -0.1110 C   0  0  0  0  0  0  0  0  0  0  0  0
   -1.9080    0.5030   -0.4330 C   0  0  0  0  0  0  0  0  0  0  0  0
   -3.0170    0.7750   -1.3700 C   0  0  0  0  0  0  0  0  0  0  0  0
   -2.7190    1.0690   -2.6480 O   0  0  0  0  0  0  0  0  0  0  0  0
   -3.6050    1.3170   -3.5650 C   0  0  0  0  0  0  0  0  0  0  0  0
   -4.9700    1.3040   -3.3140 C   0  0  0  0  0  0  0  0  0  0  0  0
   -5.3480    1.0120   -2.0310 C   0  0  0  0  0  0  0  0  0  0  0  0
   -6.5550    0.9720   -1.6900 O   0  0  0  0  0  0  0  0  0  0  0  0
   -4.3560    0.7570   -1.0960 C   0  0  0  0  0  0  0  0  0  0  0  0
   -4.8180    0.5240    0.2720 C   0  0  0  0  0  0  0  0  0  0  0  0
   -4.5520    1.4690    1.2560 C   0  0  0  0  0  0  0  0  0  0  0  0
   -5.0160    1.2990    2.5390 C   0  0  0  0  0  0  0  0  0  0  0  0
   -5.7660    0.1770    2.8870 C   0  0  0  0  0  0  0  0  0  0  0  0
   -6.0120   -0.7340    1.8980 C   0  0  0  0  0  0  0  0  0  0  0  0
   -6.9610   -2.1520    2.3460 Cl  0  0  0  0  0  0  0  0  0  0  0  0
   -5.5560   -0.5730    0.6280 C   0  0  0  0  0  0  0  0  0  0  0  0
   -0.3820   -1.2060    0.5710 C   0  0  0  0  0  0  0  0  0  0  0  0
    1.1390   -0.3950    0.3130 S   0  0  1  0  0  0  0  0  0  0  0  0
    1.7640   -0.6780   -1.0220 O   0  0  0  0  0  0  0  0  0  0  0  0
    1.0430    1.1000    0.4370 O   0  0  0  0  0  0  0  0  0  0  0  0
    2.2390   -0.9340    1.6280 C   0  0  0  0  0  0  0  0  0  0  0  0
    3.5280   -0.2610    1.4480 C   0  0  0  0  0  0  0  0  0  0  0  0
    4.6630   -0.6190    0.7460 C   0  0  0  0  0  0  0  0  0  0  0  0
    5.6120    0.3670    0.8980 C   0  0  0  0  0  0  0  0  0  0  0  0
    6.9530    0.4110    0.3410 C   0  0  0  0  0  0  0  0  0  0  0  0
    7.7580    1.4670    0.5980 N   0  0  0  0  0  0  0  0  0  0  0  0
    9.0120    1.5610    0.1100 C   0  0  0  0  0  0  0  0  0  0  0  0
    9.4680    0.5370   -0.6730 C   0  0  0  0  0  0  0  0  0  0  0  0
    8.6650   -0.5510   -0.9490 C   0  0  0  0  0  0  0  0  0  0  0  0
    7.4360   -0.5600   -0.4240 N   0  0  0  0  0  0  0  0  0  0  0  0
    5.0440    1.2980    1.6810 N   0  0  0  0  0  0  0  0  0  0  0  0
    3.8180    0.9370    2.0090 N   0  0  0  0  0  0  0  0  0  0  0  0
  2  1  1  6
  2  3  1  0
  2  4  1  0
  2 19  1  0
  4  5  1  0
  5  6  1  0
  5 11  2  0
  6  7  1  0
  7  8  2  0
  8  9  1  0
  9 10  2  0
  9 11  1  0
 11 12  1  0
 12 13  2  0
 12 18  1  0
 13 14  1  0
 14 15  2  0
 15 16  1  0
 16 17  1  0
 16 18  2  0
 20 19  1  6
 20 21  2  0
 20 22  2  0
 20 23  1  0
 23 24  1  0
 24 25  1  0
 24 34  2  0
 25 26  2  0
 26 27  1  0
 26 33  1  0
 27 28  2  0
 27 32  1  0
 28 29  1  0
 29 30  2  0
 30 31  1  0
 31 32  2  0
 33 34  1  0
M  END
