
     RDKit          3D

 34 37  0  0  0  0  0  0  0  0999 V2000
   -1.9590   -0.8680   -1.0380 O   0  0  0  0  0  0  0  0  0  0  0  0
   -2.8010    0.0480   -0.7760 C   0  0  0  0  0  0  0  0  0  0  0  0
   -2.3760    1.2910   -1.2770 O   0  0  0  0  0  0  0  0  0  0  0  0
   -1.1790    1.4680   -1.9700 C   0  0  0  0  0  0  0  0  0  0  0  0
   -0.0560    1.0770   -1.1010 C   0  0  0  0  0  0  0  0  0  0  0  0
    0.6170    0.0920   -0.7900 N   0  0  0  0  0  0  0  0  0  0  0  0
    1.5860    0.1460    0.0680 N   0  0  0  0  0  0  0  0  0  0  0  0
    1.9670    1.0750    0.6590 C   0  0  0  0  0  0  0  0  0  0  0  0
    2.9410    1.5310    1.6350 N   0  0  0  0  0  0  0  0  0  0  0  0
    4.1360    1.8380    1.2580 C   0  0  0  0  0  0  0  0  0  0  0  0
    4.5210    1.7340   -0.1180 N   0  0  0  0  0  0  0  0  0  0  0  0
    4.2060    2.6950   -1.0380 C   0  0  0  0  0  0  0  0  0  0  0  0
    4.7170    2.2890   -2.2420 C   0  0  0  0  0  0  0  0  0  0  0  0
    5.3400    1.0810   -2.0400 C   0  0  0  0  0  0  0  0  0  0  0  0
    5.2090    0.7370   -0.6840 C   0  0  0  0  0  0  0  0  0  0  0  0
    5.7420   -0.4800   -0.0880 C   0  0  0  0  0  0  0  0  0  0  0  0
    5.6280   -0.8350    1.2310 C   0  0  0  0  0  0  0  0  0  0  0  0
    6.1760   -2.0300    1.7090 C   0  0  0  0  0  0  0  0  0  0  0  0
    6.8440   -2.8950    0.9020 C   0  0  0  0  0  0  0  0  0  0  0  0
    7.5420   -4.3990    1.4660 Cl  0  0  0  0  0  0  0  0  0  0  0  0
    6.9740   -2.5640   -0.4270 C   0  0  0  0  0  0  0  0  0  0  0  0
    6.4260   -1.3690   -0.9080 C   0  0  0  0  0  0  0  0  0  0  0  0
    0.7720    2.3880   -0.0140 S   0  0  0  0  0  0  0  0  0  0  0  0
   -4.0310   -0.1070   -0.0700 C   0  0  0  0  0  0  0  0  0  0  0  0
   -4.8480    0.8900    0.1610 C   0  0  0  0  0  0  0  0  0  0  0  0
   -4.6580    2.2540   -0.2390 C   0  0  0  0  0  0  0  0  0  0  0  0
   -5.5860    3.1820    0.0680 C   0  0  0  0  0  0  0  0  0  0  0  0
   -6.7290    2.8560    0.7640 O   0  0  0  0  0  0  0  0  0  0  0  0
   -4.4720   -1.4360    0.4530 C   0  0  0  0  0  0  0  0  0  0  0  0
   -3.7740   -2.5330    0.3130 C   0  0  0  0  0  0  0  0  0  0  0  0
   -4.2600   -3.8680    0.8630 C   0  0  0  0  0  0  0  0  0  0  0  0
   -4.9950   -3.5450    2.0060 O   0  0  0  0  0  0  0  0  0  0  0  0
   -6.1060   -2.8490    1.6080 C   0  0  0  0  0  0  0  0  0  0  0  0
   -5.8020   -1.4550    1.1610 C   0  0  0  0  0  0  0  0  0  0  0  0
  1  2  2  0
  2  3  1  0
  2 24  1  0
  3  4  1  0
  4  5  1  0
  5  6  2  0
  5 23  1  0
  6  7  1  0
  7  8  2  0
  8  9  1  0
  8 23  1  0
  9 10  2  3
 10 11  1  0
 11 12  1  0
 11 15  1  0
 12 13  2  0
 13 14  1  0
 14 15  2  0
 15 16  1  0
 16 17  2  0
 16 22  1  0
 17 18  1  0
 18 19  2  0
 19 20  1  0
 19 21  1  0
 21 22  2  0
 24 25  2  3
 24 29  1  0
 25 26  1  0
 26 27  2  3
 27 28  1  0
 29 30  2  0
 29 34  1  0
 30 31  1  0
 31 32  1  0
 32 33  1  0
 33 34  1  0
M  END
