
     RDKit          3D

 34 37  0  0  0  0  0  0  0  0999 V2000
    7.0390    1.6890   -0.0790 C   0  0  0  0  0  0  0  0  0  0  0  0
    6.0840    0.5280   -0.0400 C   0  0  0  0  0  0  0  0  0  0  0  0
    5.1050    0.2620   -0.9720 C   0  0  0  0  0  0  0  0  0  0  0  0
    4.4560   -0.8860   -0.5700 C   0  0  0  0  0  0  0  0  0  0  0  0
    5.0730   -1.2850    0.6120 C   0  0  0  0  0  0  0  0  0  0  0  0
    4.6930   -2.4950    1.4110 C   0  0  2  0  0  0  0  0  0  0  0  0
    4.6970   -3.7180    0.6050 C   0  0  0  0  0  0  0  0  0  0  0  0
    4.9920   -3.6720   -0.5670 O   0  0  0  0  0  0  0  0  0  0  0  0
    3.1340   -2.2290    2.2820 S   0  0  0  0  0  0  0  0  0  0  0  0
    1.8330   -2.0710    1.0990 C   0  0  0  0  0  0  0  0  0  0  0  0
    1.1800   -3.1540    0.6710 N   0  0  0  0  0  0  0  0  0  0  0  0
    0.1820   -3.0760   -0.2340 C   0  0  0  0  0  0  0  0  0  0  0  0
   -0.4230   -4.1000   -0.6270 O   0  0  0  0  0  0  0  0  0  0  0  0
   -0.1610   -1.8310   -0.7210 C   0  0  0  0  0  0  0  0  0  0  0  0
    0.5020   -0.7150   -0.2890 C   0  0  0  0  0  0  0  0  0  0  0  0
    0.2130    0.5960   -0.7380 N   0  0  0  0  0  0  0  0  0  0  0  0
   -0.8510    1.2530   -0.4490 C   0  0  0  0  0  0  0  0  0  0  0  0
   -1.8750    0.6330    0.4120 C   0  0  0  0  0  0  0  0  0  0  0  0
   -3.1270    0.5150   -0.2630 O   0  0  0  0  0  0  0  0  0  0  0  0
   -4.1710   -0.0540    0.4470 C   0  0  0  0  0  0  0  0  0  0  0  0
   -4.0310   -0.4950    1.7460 C   0  0  0  0  0  0  0  0  0  0  0  0
   -5.1020   -1.0620    2.4280 C   0  0  0  0  0  0  0  0  0  0  0  0
   -6.3330   -1.1870    1.7920 C   0  0  0  0  0  0  0  0  0  0  0  0
   -7.6660   -1.9050    2.6750 Cl  0  0  0  0  0  0  0  0  0  0  0  0
   -6.4850   -0.7520    0.4960 C   0  0  0  0  0  0  0  0  0  0  0  0
   -5.4050   -0.1930   -0.1550 C   0  0  0  0  0  0  0  0  0  0  0  0
   -5.5370    0.2880   -1.5610 C   0  0  0  0  0  0  0  0  0  0  0  0
   -1.0460    2.5660   -0.9530 N   0  0  0  0  0  0  0  0  0  0  0  0
   -1.3070    3.7000   -0.2690 C   0  0  0  0  0  0  0  0  0  0  0  0
   -1.4300    4.7720   -1.1290 C   0  0  0  0  0  0  0  0  0  0  0  0
   -1.2380    4.2760   -2.3900 C   0  0  0  0  0  0  0  0  0  0  0  0
   -1.0040    2.9180   -2.2420 C   0  0  0  0  0  0  0  0  0  0  0  0
    1.4910   -0.8710    0.6190 N   0  0  0  0  0  0  0  0  0  0  0  0
    6.0000   -0.4180    0.8470 O   0  0  0  0  0  0  0  0  0  0  0  0
  1  2  1  0
  2  3  2  0
  2 34  1  0
  3  4  1  0
  4  5  2  0
  5  6  1  0
  5 34  1  0
  6  7  1  0
  6  9  1  6
  7  8  2  0
  9 10  1  0
 10 11  2  0
 10 33  1  0
 11 12  1  0
 12 13  2  0
 12 14  1  0
 14 15  2  0
 15 16  1  0
 15 33  1  0
 16 17  2  3
 17 18  1  0
 17 28  1  0
 18 19  1  0
 19 20  1  0
 20 21  2  0
 20 26  1  0
 21 22  1  0
 22 23  2  0
 23 24  1  0
 23 25  1  0
 25 26  2  0
 26 27  1  0
 28 29  1  0
 28 32  1  0
 29 30  2  0
 30 31  1  0
 31 32  2  0
M  END
