
     RDKit          3D

 45 48  0  0  0  0  0  0  0  0999 V2000
   -7.0200   -2.1600   -2.9560 C   0  0  0  0  0  0  0  0  0  0  0  0
   -6.2260   -0.9360   -2.7540 C   0  0  0  0  0  0  0  0  0  0  0  0
   -5.9060   -0.4390   -1.5110 C   0  0  0  0  0  0  0  0  0  0  0  0
   -5.1640    0.6930   -1.2970 C   0  0  0  0  0  0  0  0  0  0  0  0
   -4.8050    1.2870   -0.0060 C   0  0  2  0  0  0  0  0  0  0  0  0
   -3.6940    0.5660    0.7300 C   0  0  0  0  0  0  0  0  0  0  0  0
   -2.4640    0.4680   -0.0650 C   0  0  0  0  0  0  0  0  0  0  0  0
   -2.6400    0.1350   -1.2890 O   0  0  0  0  0  0  0  0  0  0  0  0
   -1.1790    0.7000    0.3730 N   0  0  0  0  0  0  0  0  0  0  0  0
    0.0280    0.5630   -0.3580 C   0  0  0  0  0  0  0  0  0  0  0  0
    1.5120    1.5400    0.1290 S   0  0  0  0  0  0  0  0  0  0  0  0
    2.5680    0.8180   -1.0990 C   0  0  0  0  0  0  0  0  0  0  0  0
    3.9590    1.2170   -1.4190 C   0  0  0  0  0  0  0  0  0  0  0  0
    4.5200    2.1940   -0.8950 O   0  0  0  0  0  0  0  0  0  0  0  0
    4.6490    0.4830   -2.3330 O   0  0  0  0  0  0  0  0  0  0  0  0
    5.8970    0.6230   -2.8700 C   0  0  0  0  0  0  0  0  0  0  0  0
    7.0760    0.7870   -1.9990 C   0  0  0  0  0  0  0  0  0  0  0  0
    7.3360   -0.2810   -1.0130 C   0  0  0  0  0  0  0  0  0  0  0  0
    6.4510   -1.0410   -0.5920 O   0  0  0  0  0  0  0  0  0  0  0  0
    8.6790   -0.4480   -0.5030 N   0  0  0  0  0  0  0  0  0  0  0  0
    9.7490    0.3590   -1.0630 C   0  0  0  0  0  0  0  0  0  0  0  0
   11.0540   -0.1580   -0.4800 C   0  0  0  0  0  0  0  0  0  0  0  0
   11.0380   -0.1680    1.0160 C   0  0  0  0  0  0  0  0  0  0  0  0
    9.7350   -0.6090    1.6040 C   0  0  1  0  0  0  0  0  0  0  0  0
   10.0140   -1.5320    2.7760 C   0  0  0  0  0  0  0  0  0  0  0  0
    8.9170    0.5850    2.0030 C   0  0  0  0  0  0  0  0  0  0  0  0
    8.8930   -1.3850    0.5820 C   0  0  0  0  0  0  0  0  0  0  0  0
    1.7730   -0.0760   -1.7570 C   0  0  0  0  0  0  0  0  0  0  0  0
    2.4200   -0.9130   -2.8660 C   0  0  0  0  0  0  0  0  0  0  0  0
    0.4790   -0.1890   -1.3620 C   0  0  0  0  0  0  0  0  0  0  0  0
   -0.4090   -1.1710   -2.0280 C   0  0  0  0  0  0  0  0  0  0  0  0
   -1.1150   -1.9830   -2.5740 N   0  0  0  0  0  0  0  0  0  0  0  0
   -5.8830    1.6070    0.8770 N   0  0  0  0  0  0  0  0  0  0  0  0
   -6.6250    0.5970    1.4940 C   0  0  2  0  0  0  0  0  0  0  0  0
   -8.0700    0.5200    1.0150 C   0  0  0  0  0  0  0  0  0  0  0  0
   -8.8880    1.6600    1.5800 C   0  0  0  0  0  0  0  0  0  0  0  0
   -9.4260    1.4310    2.9490 C   0  0  0  0  0  0  0  0  0  0  0  0
   -9.0810    0.0860    3.5500 C   0  0  0  0  0  0  0  0  0  0  0  0
   -7.6130   -0.1430    3.6620 C   0  0  2  0  0  0  0  0  0  0  0  0
   -7.1900   -0.2610    4.9840 O   0  0  0  0  0  0  0  0  0  0  0  0
   -6.7760    0.9300    3.0030 C   0  0  0  0  0  0  0  0  0  0  0  0
   -4.7180    1.3650   -2.4510 C   0  0  0  0  0  0  0  0  0  0  0  0
   -5.0210    0.8950   -3.6940 C   0  0  0  0  0  0  0  0  0  0  0  0
   -5.7700   -0.2470   -3.8570 C   0  0  0  0  0  0  0  0  0  0  0  0
   -6.0120   -0.6240   -5.1450 F   0  0  0  0  0  0  0  0  0  0  0  0
  1  2  1  0
  2  3  2  0
  2 44  1  0
  3  4  1  0
  4  5  1  0
  4 42  2  0
  5  6  1  1
  5 33  1  0
  6  7  1  0
  7  8  2  0
  7  9  1  0
  9 10  1  0
 10 11  1  0
 10 30  2  0
 11 12  1  0
 12 13  1  0
 12 28  2  0
 13 14  2  0
 13 15  1  0
 15 16  1  0
 16 17  1  0
 17 18  1  0
 18 19  2  0
 18 20  1  0
 20 21  1  0
 20 27  1  0
 21 22  1  0
 22 23  1  0
 23 24  1  0
 24 25  1  1
 24 26  1  0
 24 27  1  0
 28 29  1  0
 28 30  1  0
 30 31  1  0
 31 32  3  0
 34 33  1  6
 34 35  1  0
 34 41  1  0
 35 36  1  0
 36 37  1  0
 37 38  1  0
 38 39  1  0
 39 40  1  1
 39 41  1  0
 42 43  1  0
 43 44  2  0
 44 45  1  0
M  CHG  1  33   1
M  END
