
     RDKit          3D

 45 47  0  0  0  0  0  0  0  0999 V2000
   -5.8900   -0.7140    4.0200 C   0  0  0  0  0  0  0  0  0  0  0  0
   -5.3510   -0.7930    2.7270 O   0  0  0  0  0  0  0  0  0  0  0  0
   -6.1410   -0.6860    1.6130 C   0  0  0  0  0  0  0  0  0  0  0  0
   -7.5140   -0.4950    1.7970 C   0  0  0  0  0  0  0  0  0  0  0  0
   -8.3640   -0.3850    0.7180 C   0  0  0  0  0  0  0  0  0  0  0  0
   -7.8200   -0.4670   -0.5370 C   0  0  0  0  0  0  0  0  0  0  0  0
   -8.7130   -0.3540   -1.7120 C   0  0  0  0  0  0  0  0  0  0  0  0
   -6.4620   -0.6530   -0.7070 C   0  0  0  0  0  0  0  0  0  0  0  0
   -5.9750   -0.6140   -1.9820 F   0  0  0  0  0  0  0  0  0  0  0  0
   -5.5720   -0.7720    0.3690 C   0  0  0  0  0  0  0  0  0  0  0  0
   -4.1470   -0.8330    0.1740 C   0  0  0  0  0  0  0  0  0  0  0  0
   -3.6490   -1.7180   -0.6680 C   0  0  0  0  0  0  0  0  0  0  0  0
   -4.3690   -2.7200   -1.4770 C   0  0  0  0  0  0  0  0  0  0  0  0
   -3.7750   -4.1250   -1.2030 C   0  0  0  0  0  0  0  0  0  0  0  0
   -4.6730   -5.3380   -2.2100 S   0  0  0  0  0  0  0  0  0  0  0  0
   -3.1980    0.1010    0.8300 C   0  0  2  0  0  0  0  0  0  0  0  0
   -3.4650    1.5280    0.5290 C   0  0  0  0  0  0  0  0  0  0  0  0
   -3.4800    1.9760   -0.8440 C   0  0  0  0  0  0  0  0  0  0  0  0
   -3.3880    1.1640   -1.7960 O   0  0  0  0  0  0  0  0  0  0  0  0
   -3.5970    3.3380   -1.1840 N   0  0  0  0  0  0  0  0  0  0  0  0
   -3.7080    4.3200   -0.1300 C   0  0  0  0  0  0  0  0  0  0  0  0
   -3.6080    3.7410   -2.5660 C   0  0  0  0  0  0  0  0  0  0  0  0
   -1.8380   -0.3130    0.8710 N   0  0  0  0  0  0  0  0  0  0  0  0
   -0.9380    0.1790   -0.1020 C   0  0  0  0  0  0  0  0  0  0  0  0
    0.4650   -0.3940    0.1200 C   0  0  0  0  0  0  0  0  0  0  0  0
    1.3600    0.1710   -0.9940 C   0  0  1  0  0  0  0  0  0  0  0  0
    1.4300    1.6820   -0.9410 C   0  0  0  0  0  0  0  0  0  0  0  0
    2.6400   -0.5080   -1.0920 C   0  0  0  0  0  0  0  0  0  0  0  0
    2.7900   -1.2790   -2.1170 O   0  0  0  0  0  0  0  0  0  0  0  0
    3.7280   -0.4230   -0.2010 N   0  0  0  0  0  0  0  0  0  0  0  0
    3.8060    0.3720    0.9900 C   0  0  0  0  0  0  0  0  0  0  0  0
    4.9400    1.3790    0.7390 C   0  0  0  0  0  0  0  0  0  0  0  0
    6.0110    0.8100    0.0700 O   0  0  0  0  0  0  0  0  0  0  0  0
    6.0840   -0.5710    0.2500 C   0  0  2  0  0  0  0  0  0  0  0  0
    7.4070   -1.0470   -0.2340 C   0  0  0  0  0  0  0  0  0  0  0  0
    7.4720   -2.0000   -1.2180 C   0  0  0  0  0  0  0  0  0  0  0  0
    8.6780   -2.4760   -1.7260 C   0  0  0  0  0  0  0  0  0  0  0  0
    9.8660   -1.9960   -1.2470 C   0  0  0  0  0  0  0  0  0  0  0  0
    9.7990   -1.0230   -0.2410 C   0  0  0  0  0  0  0  0  0  0  0  0
    8.6180   -0.5480    0.2660 C   0  0  0  0  0  0  0  0  0  0  0  0
    8.5120    0.4020    1.3020 N   0  0  0  0  0  0  0  0  0  0  0  0
    9.6300    1.0850    1.8190 C   0  0  0  0  0  0  0  0  0  0  0  0
    9.3990    2.0780    2.9340 C   0  0  0  0  0  0  0  0  0  0  0  0
   10.8080    0.9340    1.4260 O   0  0  0  0  0  0  0  0  0  0  0  0
    4.9380   -1.2220   -0.5000 C   0  0  0  0  0  0  0  0  0  0  0  0
  1  2  1  0
  2  3  1  0
  3  4  2  0
  3 10  1  0
  4  5  1  0
  5  6  2  0
  6  7  1  0
  6  8  1  0
  8  9  1  0
  8 10  2  0
 10 11  1  0
 11 12  2  3
 11 16  1  0
 12 13  1  0
 13 14  1  0
 14 15  1  0
 16 17  1  6
 16 23  1  0
 17 18  1  0
 18 19  2  0
 18 20  1  0
 20 21  1  0
 20 22  1  0
 23 24  1  0
 24 25  1  0
 25 26  1  0
 26 27  1  1
 26 28  1  0
 28 29  2  0
 28 30  1  0
 30 31  1  0
 30 45  1  0
 31 32  1  0
 32 33  1  0
 33 34  1  0
 34 35  1  6
 34 45  1  0
 35 36  2  0
 35 40  1  0
 36 37  1  0
 37 38  2  0
 38 39  1  0
 39 40  2  0
 40 41  1  0
 41 42  1  0
 42 43  1  0
 42 44  2  0
M  CHG  1  23   1
M  END
