
     RDKit          3D

 45 48  0  0  0  0  0  0  0  0999 V2000
   -4.6160   -5.2360   -1.2220 C   0  0  0  0  0  0  0  0  0  0  0  0
   -3.1080   -5.0140   -0.9990 C   0  0  0  0  0  0  0  0  0  0  0  0
   -2.8460   -4.6770    0.4470 C   0  0  0  0  0  0  0  0  0  0  0  0
   -3.6230   -3.3910    0.7290 C   0  0  0  0  0  0  0  0  0  0  0  0
   -4.8000   -3.3890    1.2680 N   0  0  0  0  0  0  0  0  0  0  0  0
   -5.5030   -2.3510    1.4910 C   0  0  0  0  0  0  0  0  0  0  0  0
   -6.8570   -2.1240    2.0880 C   0  0  1  0  0  0  0  0  0  0  0  0
   -7.4830   -1.2080    1.2180 O   0  0  0  0  0  0  0  0  0  0  0  0
   -7.6110   -3.4240    1.9420 C   0  0  0  0  0  0  0  0  0  0  0  0
   -7.5370   -3.8700    0.6210 O   0  0  0  0  0  0  0  0  0  0  0  0
   -4.4340   -1.0640    0.8780 S   0  0  0  0  0  0  0  0  0  0  0  0
   -3.1160   -2.1230    0.3770 C   0  0  0  0  0  0  0  0  0  0  0  0
   -1.8470   -1.7320   -0.2040 C   0  0  0  0  0  0  0  0  0  0  0  0
   -1.0220   -2.6380   -0.4270 O   0  0  0  0  0  0  0  0  0  0  0  0
   -1.5610   -0.3380   -0.5100 C   0  0  0  0  0  0  0  0  0  0  0  0
   -0.4910    0.1510   -1.0200 C   0  0  0  0  0  0  0  0  0  0  0  0
   -0.4760    1.5680   -1.2190 O   0  0  0  0  0  0  0  0  0  0  0  0
   -0.1540    2.2760   -0.0200 C   0  0  0  0  0  0  0  0  0  0  0  0
   -0.1310    3.7360   -0.2300 C   0  0  0  0  0  0  0  0  0  0  0  0
   -0.3970    4.2720   -1.4800 C   0  0  0  0  0  0  0  0  0  0  0  0
   -0.3710    5.6540   -1.6790 C   0  0  0  0  0  0  0  0  0  0  0  0
   -0.0810    6.5010   -0.6330 C   0  0  0  0  0  0  0  0  0  0  0  0
   -0.0590    7.9060   -0.8690 N   0  0  0  0  0  0  0  0  0  0  0  0
   -0.3090    8.4340   -2.1910 C   0  0  0  0  0  0  0  0  0  0  0  0
    0.1840    5.9770    0.6140 C   0  0  0  0  0  0  0  0  0  0  0  0
    0.1570    4.6030    0.8040 C   0  0  0  0  0  0  0  0  0  0  0  0
    0.4290    4.1130    2.0740 O   0  0  0  0  0  0  0  0  0  0  0  0
    0.6900   -0.6340   -1.4040 C   0  0  1  0  0  0  0  0  0  0  0  0
    0.6920   -0.8530   -2.9210 C   0  0  0  0  0  0  0  0  0  0  0  0
    1.9170    0.1320   -1.1650 N   0  0  0  0  0  0  0  0  0  0  0  0
    2.9390   -0.4370   -0.3820 C   0  0  0  0  0  0  0  0  0  0  0  0
    2.7740   -1.5870    0.0970 O   0  0  0  0  0  0  0  0  0  0  0  0
    4.1920    0.3090   -0.1260 C   0  0  0  0  0  0  0  0  0  0  0  0
    4.4580    1.5020   -0.5890 O   0  0  0  0  0  0  0  0  0  0  0  0
    5.6480    1.8930   -0.1870 C   0  0  0  0  0  0  0  0  0  0  0  0
    6.3070    3.2070   -0.5140 C   0  0  0  0  0  0  0  0  0  0  0  0
    6.1750    0.8730    0.5880 C   0  0  0  0  0  0  0  0  0  0  0  0
    7.3800    0.8450    1.2060 F   0  0  0  0  0  0  0  0  0  0  0  0
    5.2280   -0.1580    0.6290 C   0  0  0  0  0  0  0  0  0  0  0  0
    5.3780   -1.4170    1.3400 C   0  0  0  0  0  0  0  0  0  0  0  0
    5.7380   -2.5730    0.6900 C   0  0  0  0  0  0  0  0  0  0  0  0
    5.8910   -3.7840    1.3510 C   0  0  0  0  0  0  0  0  0  0  0  0
    5.6760   -3.8400    2.7090 C   0  0  0  0  0  0  0  0  0  0  0  0
    5.3140   -2.6920    3.3810 C   0  0  0  0  0  0  0  0  0  0  0  0
    5.1670   -1.4890    2.6990 C   0  0  0  0  0  0  0  0  0  0  0  0
  1  2  1  0
  2  3  1  0
  3  4  1  0
  4  5  1  0
  4 12  2  0
  5  6  2  0
  6  7  1  0
  6 11  1  0
  7  8  1  6
  7  9  1  0
  9 10  1  0
 11 12  1  0
 12 13  1  0
 13 14  2  0
 13 15  1  0
 15 16  2  3
 16 17  1  0
 16 28  1  0
 17 18  1  0
 18 19  1  0
 19 20  2  0
 19 26  1  0
 20 21  1  0
 21 22  2  0
 22 23  1  0
 22 25  1  0
 23 24  1  0
 25 26  2  0
 26 27  1  0
 28 29  1  6
 28 30  1  0
 30 31  1  0
 31 32  2  0
 31 33  1  0
 33 34  1  0
 33 39  2  0
 34 35  1  0
 35 36  1  0
 35 37  2  0
 37 38  1  0
 37 39  1  0
 39 40  1  0
 40 41  2  0
 40 45  1  0
 41 42  1  0
 42 43  2  0
 43 44  1  0
 44 45  2  0
M  END
