
     RDKit          3D

 46 49  0  0  0  0  0  0  0  0999 V2000
   -2.7690   -4.2610    3.5690 C   0  0  0  0  0  0  0  0  0  0  0  0
   -3.1650   -3.6560    2.2690 C   0  0  0  0  0  0  0  0  0  0  0  0
   -3.3360   -4.4550    1.1720 C   0  0  0  0  0  0  0  0  0  0  0  0
   -3.7060   -3.8610   -0.0220 C   0  0  0  0  0  0  0  0  0  0  0  0
   -3.8960   -2.4860   -0.0950 C   0  0  0  0  0  0  0  0  0  0  0  0
   -3.7280   -1.6690    0.9930 C   0  0  0  0  0  0  0  0  0  0  0  0
   -3.9620   -0.2500    0.9130 C   0  0  0  0  0  0  0  0  0  0  0  0
   -4.8050    0.3980    1.8240 C   0  0  0  0  0  0  0  0  0  0  0  0
   -5.0440    1.7450    1.7460 C   0  0  0  0  0  0  0  0  0  0  0  0
   -5.8070    2.3390    2.5700 O   0  0  0  0  0  0  0  0  0  0  0  0
   -4.4780    2.4750    0.7970 N   0  0  0  0  0  0  0  0  0  0  0  0
   -3.6460    1.8770   -0.1140 C   0  0  0  0  0  0  0  0  0  0  0  0
   -3.0540    2.7460   -1.1540 C   0  0  0  0  0  0  0  0  0  0  0  0
   -3.7080    2.7000   -2.4590 C   0  0  0  0  0  0  0  0  0  0  0  0
   -4.0640    1.6290   -3.0110 O   0  0  0  0  0  0  0  0  0  0  0  0
   -3.9970    3.9030   -3.2110 N   0  0  0  0  0  0  0  0  0  0  0  0
   -4.6380    3.7790   -4.4960 C   0  0  0  0  0  0  0  0  0  0  0  0
   -4.8690    5.1830   -5.0480 C   0  0  0  0  0  0  0  0  0  0  0  0
   -3.6500    5.8260   -5.1730 O   0  0  0  0  0  0  0  0  0  0  0  0
   -3.3690    0.5340   -0.0860 C   0  0  0  0  0  0  0  0  0  0  0  0
   -2.4630   -0.0230   -1.0300 N   0  0  0  0  0  0  0  0  0  0  0  0
   -1.0520   -0.0320   -0.7930 C   0  0  0  0  0  0  0  0  0  0  0  0
   -0.6730    0.4820    0.2810 O   0  0  0  0  0  0  0  0  0  0  0  0
   -0.2070   -0.6090   -1.7750 N   0  0  0  0  0  0  0  0  0  0  0  0
    1.2180   -0.6460   -1.5910 C   0  0  0  0  0  0  0  0  0  0  0  0
    1.5130   -1.4770   -0.3270 C   0  0  1  0  0  0  0  0  0  0  0  0
    0.9680   -2.8740   -0.6180 C   0  0  0  0  0  0  0  0  0  0  0  0
    2.8930   -1.5010   -0.1370 O   0  0  0  0  0  0  0  0  0  0  0  0
    3.5180   -0.8690    0.9400 C   0  0  0  0  0  0  0  0  0  0  0  0
    2.8560   -0.1460    1.9050 C   0  0  0  0  0  0  0  0  0  0  0  0
    3.5590    0.4580    2.9550 C   0  0  0  0  0  0  0  0  0  0  0  0
    4.9270    0.3340    3.0330 C   0  0  0  0  0  0  0  0  0  0  0  0
    5.6390   -0.3930    2.0700 C   0  0  0  0  0  0  0  0  0  0  0  0
    7.0160   -0.5150    2.1570 O   0  0  0  0  0  0  0  0  0  0  0  0
    7.8270   -0.0200    1.1700 C   0  0  0  0  0  0  0  0  0  0  0  0
    7.4260    0.6560    0.0410 C   0  0  0  0  0  0  0  0  0  0  0  0
    8.3530    1.1150   -0.9050 C   0  0  0  0  0  0  0  0  0  0  0  0
    9.6880    0.8890   -0.7070 C   0  0  0  0  0  0  0  0  0  0  0  0
   10.1020    0.2180    0.4110 C   0  0  0  0  0  0  0  0  0  0  0  0
    9.1980   -0.2320    1.3370 C   0  0  0  0  0  0  0  0  0  0  0  0
    9.6500   -0.8980    2.4270 F   0  0  0  0  0  0  0  0  0  0  0  0
    4.9090   -0.9670    1.0620 C   0  0  0  0  0  0  0  0  0  0  0  0
    5.5810   -1.6980    0.0900 O   0  0  0  0  0  0  0  0  0  0  0  0
    4.9530   -2.2970   -0.9450 F   0  0  0  0  0  0  0  0  0  0  0  0
   -3.3580   -2.3000    2.1720 C   0  0  0  0  0  0  0  0  0  0  0  0
   -3.1530   -1.4800    3.3790 C   0  0  0  0  0  0  0  0  0  0  0  0
  1  2  1  0
  2  3  2  0
  2 45  1  0
  3  4  1  0
  4  5  2  0
  5  6  1  0
  6  7  1  0
  6 45  2  0
  7  8  2  0
  7 20  1  0
  8  9  1  0
  9 10  2  0
  9 11  1  0
 11 12  1  0
 12 13  1  0
 12 20  2  0
 13 14  1  0
 14 15  2  0
 14 16  1  0
 16 17  1  0
 17 18  1  0
 18 19  1  0
 20 21  1  0
 21 22  1  0
 22 23  2  0
 22 24  1  0
 24 25  1  0
 25 26  1  0
 26 27  1  6
 26 28  1  0
 28 29  1  0
 29 30  2  0
 29 42  1  0
 30 31  1  0
 31 32  2  0
 32 33  1  0
 33 34  1  0
 33 42  2  0
 34 35  1  0
 35 36  2  0
 35 40  1  0
 36 37  1  0
 37 38  2  0
 38 39  1  0
 39 40  2  0
 40 41  1  0
 42 43  1  0
 43 44  1  0
 45 46  1  0
M  END
