
     RDKit          3D

 46 48  0  0  0  0  0  0  0  0999 V2000
   -8.7970    4.6280    1.7700 C   0  0  0  0  0  0  0  0  0  0  0  0
   -7.9470    3.7930    1.2720 C   0  0  0  0  0  0  0  0  0  0  0  0
   -6.9860    2.8680    0.6940 C   0  0  0  0  0  0  0  0  0  0  0  0
   -7.8500    2.0760   -0.2540 C   0  0  0  0  0  0  0  0  0  0  0  0
   -7.2630    1.2830   -1.1270 C   0  0  0  0  0  0  0  0  0  0  0  0
   -5.8520    1.1990   -1.1610 C   0  0  0  0  0  0  0  0  0  0  0  0
   -5.0470    1.9560   -0.2370 C   0  0  0  0  0  0  0  0  0  0  0  0
   -3.6910    1.9910   -0.6420 N   0  0  0  0  0  0  0  0  0  0  0  0
   -3.1590    0.8410   -1.3230 C   0  0  0  0  0  0  0  0  0  0  0  0
   -3.7650   -0.2080   -1.3740 O   0  0  0  0  0  0  0  0  0  0  0  0
   -1.8800    0.8140   -2.0750 C   0  0  0  0  0  0  0  0  0  0  0  0
   -2.1570    1.2220   -3.4290 C   0  0  0  0  0  0  0  0  0  0  0  0
   -1.0050    1.4900   -4.2130 C   0  0  0  0  0  0  0  0  0  0  0  0
    0.2280    1.3580   -3.6550 C   0  0  0  0  0  0  0  0  0  0  0  0
    0.4490    0.9680   -2.3730 C   0  0  0  0  0  0  0  0  0  0  0  0
   -0.7160    0.6740   -1.5200 C   0  0  0  0  0  0  0  0  0  0  0  0
   -0.4010    0.1930   -0.1640 C   0  0  0  0  0  0  0  0  0  0  0  0
   -0.6410    0.9340    0.8000 O   0  0  0  0  0  0  0  0  0  0  0  0
    0.1780   -1.0650   -0.0660 N   0  0  0  0  0  0  0  0  0  0  0  0
    0.3720   -2.1520   -0.9130 C   0  0  0  0  0  0  0  0  0  0  0  0
   -0.4400   -3.3240   -1.0100 C   0  0  0  0  0  0  0  0  0  0  0  0
   -0.1210   -4.1210   -2.0100 O   0  0  0  0  0  0  0  0  0  0  0  0
   -1.4760   -3.7510   -0.1720 N   0  0  0  0  0  0  0  0  0  0  0  0
   -2.1720   -4.9760   -0.2720 C   0  0  0  0  0  0  0  0  0  0  0  0
   -2.8740   -5.4490    0.8440 C   0  0  0  0  0  0  0  0  0  0  0  0
   -3.5980   -6.6550    0.8310 C   0  0  0  0  0  0  0  0  0  0  0  0
   -3.5980   -7.4070   -0.4000 C   0  0  0  0  0  0  0  0  0  0  0  0
   -2.9310   -6.9510   -1.4370 C   0  0  0  0  0  0  0  0  0  0  0  0
   -2.2080   -5.7550   -1.4240 C   0  0  0  0  0  0  0  0  0  0  0  0
    1.1120   -1.1650    1.2040 C   0  0  0  0  0  0  0  0  0  0  0  0
    2.1380   -0.4200    1.0960 C   0  0  0  0  0  0  0  0  0  0  0  0
    3.3300   -0.0120    1.7370 C   0  0  0  0  0  0  0  0  0  0  0  0
    3.3680    1.3820    2.0340 N   0  0  2  0  0  0  0  0  0  0  0  0
    2.7790    2.2450    1.0390 C   0  0  0  0  0  0  0  0  0  0  0  0
    4.6750    1.9440    2.3490 C   0  0  1  0  0  0  0  0  0  0  0  0
    5.4940    1.1550    3.3040 C   0  0  0  0  0  0  0  0  0  0  0  0
    5.4470    2.1910    1.0780 C   0  0  0  0  0  0  0  0  0  0  0  0
    5.4990    1.3890    0.1250 O   0  0  0  0  0  0  0  0  0  0  0  0
    6.1790    3.4050    0.9050 O   0  0  0  0  0  0  0  0  0  0  0  0
    6.9070    3.5670   -0.3280 C   0  0  0  0  0  0  0  0  0  0  0  0
    8.0230    2.5640   -0.3510 C   0  0  0  0  0  0  0  0  0  0  0  0
    9.0610    2.6460   -1.8320 S   0  0  0  0  0  0  0  0  0  0  0  0
    0.6220   -1.9430    2.2630 C   0  0  2  0  0  0  0  0  0  0  0  0
    0.4450   -3.2640    2.0740 F   0  0  0  0  0  0  0  0  0  0  0  0
   -0.7040   -1.4720    2.6120 F   0  0  0  0  0  0  0  0  0  0  0  0
   -5.7020    2.7800    0.6870 C   0  0  0  0  0  0  0  0  0  0  0  0
  1  2  3  0
  2  3  1  0
  3  4  2  0
  3 46  1  0
  4  5  1  0
  5  6  2  0
  6  7  1  0
  7  8  1  0
  7 46  2  0
  8  9  1  0
  9 10  2  0
  9 11  1  0
 11 12  2  0
 11 16  1  0
 12 13  1  0
 13 14  2  0
 14 15  1  0
 15 16  2  0
 16 17  1  0
 17 18  2  0
 17 19  1  0
 19 20  1  0
 19 30  1  0
 20 21  1  0
 21 22  2  0
 21 23  1  0
 23 24  1  0
 24 25  2  0
 24 29  1  0
 25 26  1  0
 26 27  2  0
 27 28  1  0
 28 29  2  0
 30 31  2  3
 30 43  1  0
 31 32  1  0
 32 33  1  0
 33 34  1  6
 33 35  1  0
 35 36  1  1
 35 37  1  0
 37 38  2  0
 37 39  1  0
 39 40  1  0
 40 41  1  0
 41 42  1  0
 43 44  1  6
 43 45  1  0
M  CHG  1  33   1
M  END
