
     RDKit          3D

 39 40  0  0  0  0  0  0  0  0999 V2000
    8.3230    1.3120   -2.9850 C   0  0  0  0  0  0  0  0  0  0  0  0
    8.7920    0.6370   -1.6990 C   0  0  0  0  0  0  0  0  0  0  0  0
    9.6520   -0.3720   -2.0300 O   0  0  0  0  0  0  0  0  0  0  0  0
   10.1690   -1.1110   -1.0540 C   0  0  0  0  0  0  0  0  0  0  0  0
    9.4900   -2.2310   -0.4420 C   0  0  0  0  0  0  0  0  0  0  0  0
    8.2360   -2.0950    0.1740 N   0  0  0  0  0  0  0  0  0  0  0  0
    6.9600   -1.9110   -0.4820 C   0  0  0  0  0  0  0  0  0  0  0  0
    6.9750   -1.8980   -1.7060 O   0  0  0  0  0  0  0  0  0  0  0  0
    5.7760   -1.7610    0.3310 C   0  0  0  0  0  0  0  0  0  0  0  0
    5.8960   -1.7040    1.5740 O   0  0  0  0  0  0  0  0  0  0  0  0
    4.4690   -1.6750   -0.2160 N   0  0  0  0  0  0  0  0  0  0  0  0
    3.2600   -1.5190    0.4730 C   0  0  0  0  0  0  0  0  0  0  0  0
    3.1120   -1.2590    1.7930 C   0  0  0  0  0  0  0  0  0  0  0  0
    1.8620   -1.1090    2.3530 C   0  0  0  0  0  0  0  0  0  0  0  0
    0.6760   -1.2150    1.6030 C   0  0  0  0  0  0  0  0  0  0  0  0
   -0.4530   -1.0640    2.1940 O   0  0  0  0  0  0  0  0  0  0  0  0
   -1.5710   -0.9050    2.8230 C   0  0  0  0  0  0  0  0  0  0  0  0
   -1.7960    0.4800    3.4640 C   0  0  0  0  0  0  0  0  0  0  0  0
   -1.8040    1.4760    2.4910 O   0  0  0  0  0  0  0  0  0  0  0  0
   -2.7820    1.6620    1.5460 C   0  0  0  0  0  0  0  0  0  0  0  0
   -3.9340    0.9280    1.5150 C   0  0  0  0  0  0  0  0  0  0  0  0
   -4.9220    1.1140    0.5470 C   0  0  0  0  0  0  0  0  0  0  0  0
   -6.1810    0.2410    0.5800 C   0  0  2  0  0  0  0  0  0  0  0  0
   -6.1270   -0.5830   -0.7140 C   0  0  0  0  0  0  0  0  0  0  0  0
   -7.3510    1.1500    0.5990 C   0  0  0  0  0  0  0  0  0  0  0  0
   -8.6790    0.5300    0.7240 C   0  0  1  0  0  0  0  0  0  0  0  0
   -9.6850    1.5650    0.7370 O   0  0  0  0  0  0  0  0  0  0  0  0
   -9.0570   -0.4860   -0.3030 C   0  0  0  0  0  0  0  0  0  0  0  0
  -10.4010   -1.0220    0.0520 N   0  0  0  0  0  0  0  0  0  0  0  0
   -4.7350    2.0620   -0.4010 C   0  0  0  0  0  0  0  0  0  0  0  0
   -3.5720    2.8500   -0.4210 C   0  0  0  0  0  0  0  0  0  0  0  0
   -2.6390    2.6260    0.5490 C   0  0  0  0  0  0  0  0  0  0  0  0
   -1.4740    3.3820    0.5650 O   0  0  0  0  0  0  0  0  0  0  0  0
   -1.2110    4.3850   -0.4020 C   0  0  0  0  0  0  0  0  0  0  0  0
    0.8640   -1.4810    0.2610 C   0  0  0  0  0  0  0  0  0  0  0  0
   -0.2970   -1.5890   -0.4940 O   0  0  0  0  0  0  0  0  0  0  0  0
    2.1010   -1.6320   -0.3110 C   0  0  0  0  0  0  0  0  0  0  0  0
    2.1750   -1.8970   -1.6570 O   0  0  0  0  0  0  0  0  0  0  0  0
    2.2570   -0.9370   -2.6620 C   0  0  0  0  0  0  0  0  0  0  0  0
  1  2  1  0
  2  3  1  0
  3  4  1  0
  4  5  1  0
  5  6  1  0
  6  7  1  0
  7  8  2  0
  7  9  1  0
  9 10  2  0
  9 11  1  0
 11 12  1  0
 12 13  2  0
 12 37  1  0
 13 14  1  0
 14 15  2  0
 15 16  1  0
 15 35  1  0
 16 17  1  0
 17 18  1  0
 18 19  1  0
 19 20  1  0
 20 21  2  0
 20 32  1  0
 21 22  1  0
 22 23  1  0
 22 30  2  0
 23 24  1  6
 23 25  1  0
 25 26  1  0
 26 27  1  6
 26 28  1  0
 28 29  1  0
 30 31  1  0
 31 32  2  0
 32 33  1  0
 33 34  1  0
 35 36  1  0
 35 37  2  0
 37 38  1  0
 38 39  1  0
M  END
