
     RDKit          3D

 39 40  0  0  0  0  0  0  0  0999 V2000
   -4.4330   -3.0500   -0.4430 C   0  0  0  0  0  0  0  0  0  0  0  0
   -5.7530   -2.4990   -0.0580 C   0  0  0  0  0  0  0  0  0  0  0  0
   -5.8010   -1.0430    0.2630 C   0  0  2  0  0  0  0  0  0  0  0  0
   -4.9640   -0.6590    1.3590 O   0  0  0  0  0  0  0  0  0  0  0  0
   -4.2520    0.5330    1.3450 C   0  0  0  0  0  0  0  0  0  0  0  0
   -3.0040    0.5440    0.6760 C   0  0  0  0  0  0  0  0  0  0  0  0
   -2.5880   -0.6160    0.1120 O   0  0  0  0  0  0  0  0  0  0  0  0
   -1.3950   -0.8630   -0.5370 C   0  0  0  0  0  0  0  0  0  0  0  0
   -0.2120   -0.7640    0.3650 C   0  0  0  0  0  0  0  0  0  0  0  0
    1.0380   -1.0160   -0.3270 N   0  0  0  0  0  0  0  0  0  0  0  0
    1.6200   -2.2170   -0.4840 C   0  0  0  0  0  0  0  0  0  0  0  0
    1.0550   -3.5010    0.0420 C   0  0  0  0  0  0  0  0  0  0  0  0
    2.7960   -2.1140   -1.1860 C   0  0  0  0  0  0  0  0  0  0  0  0
    2.9500   -0.7740   -1.4810 C   0  0  0  0  0  0  0  0  0  0  0  0
    4.0660   -0.1790   -2.2270 C   0  0  0  0  0  0  0  0  0  0  0  0
    4.9910   -0.9470   -2.6410 O   0  0  0  0  0  0  0  0  0  0  0  0
    4.1760    1.1570   -2.5070 O   0  0  0  0  0  0  0  0  0  0  0  0
    5.1980    1.7920   -3.1960 C   0  0  0  0  0  0  0  0  0  0  0  0
    6.5190    1.7140   -2.5440 C   0  0  0  0  0  0  0  0  0  0  0  0
    7.5210    2.1700   -3.1750 O   0  0  0  0  0  0  0  0  0  0  0  0
    6.6380    1.1460   -1.2540 N   0  0  0  0  0  0  0  0  0  0  0  0
    7.9300    1.0740   -0.6370 C   0  0  0  0  0  0  0  0  0  0  0  0
    7.7950    0.4320    0.7270 C   0  0  1  0  0  0  0  0  0  0  0  0
    6.9320    1.3580    1.5630 C   0  0  0  0  0  0  0  0  0  0  0  0
    7.1460   -0.9260    0.6260 C   0  0  0  0  0  0  0  0  0  0  0  0
    9.0530    0.3630    1.3250 O   0  0  0  0  0  0  0  0  0  0  0  0
    1.8550   -0.1360   -0.9390 C   0  0  0  0  0  0  0  0  0  0  0  0
    1.6280    1.3490   -1.0280 C   0  0  0  0  0  0  0  0  0  0  0  0
   -2.2670    1.7260    0.6320 C   0  0  0  0  0  0  0  0  0  0  0  0
   -2.7220    2.8890    1.2280 C   0  0  0  0  0  0  0  0  0  0  0  0
   -1.9700    4.0550    1.1700 O   0  0  0  0  0  0  0  0  0  0  0  0
   -3.9300    2.8380    1.8670 C   0  0  0  0  0  0  0  0  0  0  0  0
   -4.7100    1.6600    1.9360 C   0  0  0  0  0  0  0  0  0  0  0  0
   -5.9120    1.6870    2.7470 C   0  0  0  0  0  0  0  0  0  0  0  0
   -6.5640    2.9200    3.0830 N   0  0  0  0  0  0  0  0  0  0  0  0
   -6.4180    0.6350    3.1780 O   0  0  0  0  0  0  0  0  0  0  0  0
   -7.2760   -0.6990    0.4980 C   0  0  1  0  0  0  0  0  0  0  0  0
   -8.0380   -1.0920   -0.7450 C   0  0  0  0  0  0  0  0  0  0  0  0
   -7.8150   -1.4050    1.5680 O   0  0  0  0  0  0  0  0  0  0  0  0
  1  2  1  0
  3  2  1  1
  3  4  1  0
  3 37  1  0
  4  5  1  0
  5  6  2  0
  5 33  1  0
  6  7  1  0
  6 29  1  0
  7  8  1  0
  8  9  1  0
  9 10  1  0
 10 11  1  0
 10 27  1  0
 11 12  1  0
 11 13  2  0
 13 14  1  0
 14 15  1  0
 14 27  2  0
 15 16  2  0
 15 17  1  0
 17 18  1  0
 18 19  1  0
 19 20  2  0
 19 21  1  0
 21 22  1  0
 22 23  1  0
 23 24  1  1
 23 25  1  0
 23 26  1  0
 27 28  1  0
 29 30  2  0
 30 31  1  0
 30 32  1  0
 32 33  2  0
 33 34  1  0
 34 35  1  0
 34 36  2  0
 37 38  1  6
 37 39  1  0
M  END
