
     RDKit          3D

 39 40  0  0  0  0  0  0  0  0999 V2000
    4.3670   -2.2360   -2.9860 C   0  0  0  0  0  0  0  0  0  0  0  0
    3.1530   -1.5810   -3.5680 C   0  0  0  0  0  0  0  0  0  0  0  0
    2.1770   -1.2730   -2.6270 O   0  0  0  0  0  0  0  0  0  0  0  0
    2.3270   -0.4210   -1.5390 C   0  0  0  0  0  0  0  0  0  0  0  0
    3.5080    0.2170   -1.3050 C   0  0  0  0  0  0  0  0  0  0  0  0
    3.6090    1.0610   -0.1990 C   0  0  0  0  0  0  0  0  0  0  0  0
    4.8920    1.7110    0.0000 C   0  0  0  0  0  0  0  0  0  0  0  0
    4.9460    2.9000    0.3530 O   0  0  0  0  0  0  0  0  0  0  0  0
    6.0820    0.9820   -0.2090 N   0  0  0  0  0  0  0  0  0  0  0  0
    7.3800    1.6150   -0.0150 C   0  0  1  0  0  0  0  0  0  0  0  0
    8.1480    0.7630    0.9700 C   0  0  0  0  0  0  0  0  0  0  0  0
    8.0770    1.5500   -1.3730 C   0  0  0  0  0  0  0  0  0  0  0  0
    9.3200    2.1470   -1.2210 O   0  0  0  0  0  0  0  0  0  0  0  0
    2.5500    1.2700    0.6670 C   0  0  0  0  0  0  0  0  0  0  0  0
    2.6350    2.1520    1.8310 C   0  0  0  0  0  0  0  0  0  0  0  0
    3.4180    1.5420    2.9750 C   0  0  0  0  0  0  0  0  0  0  0  0
    2.8630    0.3660    3.4270 O   0  0  0  0  0  0  0  0  0  0  0  0
    1.3850    0.5990    0.3790 C   0  0  0  0  0  0  0  0  0  0  0  0
    1.2620   -0.2360   -0.7040 C   0  0  0  0  0  0  0  0  0  0  0  0
    0.0360   -0.8590   -0.8940 O   0  0  0  0  0  0  0  0  0  0  0  0
   -1.0630   -0.6450    0.0010 C   0  0  0  0  0  0  0  0  0  0  0  0
   -2.1840   -1.4730   -0.5360 C   0  0  0  0  0  0  0  0  0  0  0  0
   -3.4180   -1.3940    0.3320 C   0  0  2  0  0  0  0  0  0  0  0  0
   -4.4740   -2.2630   -0.2880 C   0  0  0  0  0  0  0  0  0  0  0  0
   -5.6430   -1.9050   -0.6880 C   0  0  0  0  0  0  0  0  0  0  0  0
   -6.5580   -2.9060   -1.2750 C   0  0  0  0  0  0  0  0  0  0  0  0
   -7.7580   -2.5480   -1.6900 C   0  0  0  0  0  0  0  0  0  0  0  0
   -8.6330   -3.5870   -2.2690 C   0  0  0  0  0  0  0  0  0  0  0  0
   -8.3540   -4.7770   -1.5750 O   0  0  0  0  0  0  0  0  0  0  0  0
   -7.1290   -5.1830   -1.8140 O   0  0  0  0  0  0  0  0  0  0  0  0
   -6.1570   -4.3190   -1.4080 C   0  0  0  0  0  0  0  0  0  0  0  0
   -3.8910    0.0160    0.5210 C   0  0  1  0  0  0  0  0  0  0  0  0
   -4.2520    0.6550   -0.6390 O   0  0  0  0  0  0  0  0  0  0  0  0
   -4.8710    0.1840    1.6430 C   0  0  0  0  0  0  0  0  0  0  0  0
   -5.0190    1.5920    1.9420 N   0  0  0  0  0  0  0  0  0  0  0  0
   -3.9630    2.4230    2.3960 C   0  0  0  0  0  0  0  0  0  0  0  0
   -2.7990    2.0110    2.5920 O   0  0  0  0  0  0  0  0  0  0  0  0
   -4.1820    3.8230    2.6610 N   0  0  0  0  0  0  0  0  0  0  0  0
   -3.0880    4.6540    3.1240 C   0  0  0  0  0  0  0  0  0  0  0  0
  1  2  1  0
  2  3  1  0
  3  4  1  0
  4  5  2  0
  4 19  1  0
  5  6  1  0
  6  7  1  0
  6 14  2  0
  7  8  2  0
  7  9  1  0
  9 10  1  0
 10 11  1  1
 10 12  1  0
 12 13  1  0
 14 15  1  0
 14 18  1  0
 15 16  1  0
 16 17  1  0
 18 19  2  0
 19 20  1  0
 20 21  1  0
 21 22  1  0
 23 22  1  6
 23 24  1  0
 23 32  1  0
 24 25  2  3
 25 26  1  0
 26 27  2  0
 26 31  1  0
 27 28  1  0
 28 29  1  0
 29 30  1  0
 30 31  1  0
 32 33  1  6
 32 34  1  0
 34 35  1  0
 35 36  1  0
 36 37  2  0
 36 38  1  0
 38 39  1  0
M  END
