
     RDKit          3D

 45 49  0  0  0  0  0  0  0  0999 V2000
    5.8880   -3.1000    3.0200 C   0  0  0  0  0  0  0  0  0  0  0  0
    4.4080   -3.0700    2.6170 C   0  0  1  0  0  0  0  0  0  0  0  0
    4.0450   -4.4270    2.0260 C   0  0  0  0  0  0  0  0  0  0  0  0
    3.6210   -2.8690    3.8780 C   0  0  0  0  0  0  0  0  0  0  0  0
    4.1840   -2.0180    1.6550 N   0  0  0  0  0  0  0  0  0  0  0  0
    2.8930   -1.8040    1.1450 C   0  0  0  0  0  0  0  0  0  0  0  0
    1.9320   -2.5010    1.5000 O   0  0  0  0  0  0  0  0  0  0  0  0
    2.7050   -0.7050    0.1520 C   0  0  2  0  0  0  0  0  0  0  0  0
    3.0220    0.6120    0.8690 C   0  0  0  0  0  0  0  0  0  0  0  0
    3.2030    1.6520   -0.1430 N   0  0  2  0  0  0  0  0  0  0  0  0
    2.8770    2.9480    0.3490 C   0  0  0  0  0  0  0  0  0  0  0  0
    3.9900    3.8210    0.6950 C   0  0  0  0  0  0  0  0  0  0  0  0
    3.7200    5.1870    0.7790 C   0  0  0  0  0  0  0  0  0  0  0  0
    4.7250    6.0660    1.1000 C   0  0  0  0  0  0  0  0  0  0  0  0
    6.0000    5.5950    1.3400 C   0  0  0  0  0  0  0  0  0  0  0  0
    6.2650    4.2830    1.2610 N   0  0  0  0  0  0  0  0  0  0  0  0
    5.2780    3.4200    0.9450 C   0  0  0  0  0  0  0  0  0  0  0  0
    2.4210    1.3120   -1.3390 C   0  0  0  0  0  0  0  0  0  0  0  0
    1.1040    0.6490   -0.9050 C   0  0  0  0  0  0  0  0  0  0  0  0
    1.3250   -0.6050   -0.2930 N   0  0  1  0  0  0  0  0  0  0  0  0
    0.9440   -1.7660   -1.0380 C   0  0  0  0  0  0  0  0  0  0  0  0
   -0.1170   -1.5380   -2.0840 C   0  0  1  0  0  0  0  0  0  0  0  0
   -0.2950   -2.8310   -2.6620 O   0  0  0  0  0  0  0  0  0  0  0  0
   -1.3870   -1.2270   -1.3750 C   0  0  0  0  0  0  0  0  0  0  0  0
   -2.5750   -0.9320   -2.2670 C   0  0  1  0  0  0  0  0  0  0  0  0
   -2.9570   -2.0350   -3.1800 C   0  0  0  0  0  0  0  0  0  0  0  0
   -4.1140   -1.7820   -4.0580 C   0  0  0  0  0  0  0  0  0  0  0  0
   -3.8830   -1.0010   -5.1730 C   0  0  0  0  0  0  0  0  0  0  0  0
   -4.8770   -0.7420   -6.0750 C   0  0  0  0  0  0  0  0  0  0  0  0
   -6.1200   -1.2840   -5.8410 C   0  0  0  0  0  0  0  0  0  0  0  0
   -6.3640   -2.0580   -4.7440 C   0  0  0  0  0  0  0  0  0  0  0  0
   -5.3460   -2.3240   -3.8200 C   0  0  0  0  0  0  0  0  0  0  0  0
   -3.6740   -0.5650   -1.3540 C   0  0  0  0  0  0  0  0  0  0  0  0
   -4.7680   -1.1640   -1.3400 O   0  0  0  0  0  0  0  0  0  0  0  0
   -3.5460    0.5140   -0.4210 N   0  0  0  0  0  0  0  0  0  0  0  0
   -4.6270    0.8710    0.4710 C   0  0  1  0  0  0  0  0  0  0  0  0
   -4.1830    0.7100    1.8990 C   0  0  0  0  0  0  0  0  0  0  0  0
   -4.1390   -0.4090    2.6860 C   0  0  0  0  0  0  0  0  0  0  0  0
   -3.6950   -0.3610    3.9950 C   0  0  0  0  0  0  0  0  0  0  0  0
   -3.2940    0.8480    4.4990 C   0  0  0  0  0  0  0  0  0  0  0  0
   -3.3360    1.9760    3.7140 C   0  0  0  0  0  0  0  0  0  0  0  0
   -3.7800    1.9190    2.4080 C   0  0  0  0  0  0  0  0  0  0  0  0
   -3.9240    2.9450    1.3560 C   0  0  0  0  0  0  0  0  0  0  0  0
   -4.9120    2.3480    0.3780 C   0  0  1  0  0  0  0  0  0  0  0  0
   -4.6220    2.7730   -0.9320 O   0  0  0  0  0  0  0  0  0  0  0  0
  2  1  1  1
  2  3  1  0
  2  4  1  0
  2  5  1  0
  5  6  1  0
  6  7  2  0
  8  6  1  1
  8  9  1  0
  8 20  1  0
  9 10  1  0
 10 11  1  1
 10 18  1  0
 11 12  1  0
 12 13  2  0
 12 17  1  0
 13 14  1  0
 14 15  2  0
 15 16  1  0
 16 17  2  0
 18 19  1  0
 19 20  1  0
 20 21  1  6
 21 22  1  0
 22 23  1  1
 22 24  1  0
 25 24  1  1
 25 26  1  0
 25 33  1  0
 26 27  1  0
 27 28  2  0
 27 32  1  0
 28 29  1  0
 29 30  2  0
 30 31  1  0
 31 32  2  0
 33 34  2  0
 33 35  1  0
 36 35  1  6
 36 37  1  0
 36 44  1  0
 37 38  2  0
 37 42  1  0
 38 39  1  0
 39 40  2  0
 40 41  1  0
 41 42  2  0
 42 43  1  0
 43 44  1  0
 44 45  1  6
M  CHG  2  10   1  20   1
M  END
