
     RDKit          3D

 39 40  0  0  0  0  0  0  0  0999 V2000
   -8.8660    3.1640    2.1490 C   0  0  0  0  0  0  0  0  0  0  0  0
   -7.5940    2.6250    1.5570 C   0  0  0  0  0  0  0  0  0  0  0  0
   -7.2380    1.2630    2.1490 C   0  0  2  0  0  0  0  0  0  0  0  0
   -8.3720    0.3250    1.8390 C   0  0  0  0  0  0  0  0  0  0  0  0
   -7.1570    1.4230    3.6500 C   0  0  0  0  0  0  0  0  0  0  0  0
   -5.9810    0.8010    1.5980 N   0  0  0  0  0  0  0  0  0  0  0  0
   -5.7580    0.5630    0.2370 C   0  0  0  0  0  0  0  0  0  0  0  0
   -6.6630    0.7360   -0.5860 O   0  0  0  0  0  0  0  0  0  0  0  0
   -4.4830    0.1120   -0.2640 N   0  0  0  0  0  0  0  0  0  0  0  0
   -4.2860   -0.1290   -1.6590 C   0  0  0  0  0  0  0  0  0  0  0  0
   -2.9220   -0.5520   -2.0420 C   0  0  0  0  0  0  0  0  0  0  0  0
   -1.8650   -0.7090   -1.1810 C   0  0  0  0  0  0  0  0  0  0  0  0
   -0.5910   -1.1070   -1.6140 C   0  0  0  0  0  0  0  0  0  0  0  0
    0.4530   -1.2560   -0.7320 O   0  0  0  0  0  0  0  0  0  0  0  0
    0.3490   -1.0230    0.6570 C   0  0  0  0  0  0  0  0  0  0  0  0
    1.6390   -1.2550    1.3830 C   0  0  2  0  0  0  0  0  0  0  0  0
    1.4380   -0.9830    2.7320 O   0  0  0  0  0  0  0  0  0  0  0  0
    2.7670   -0.4260    0.8540 C   0  0  0  0  0  0  0  0  0  0  0  0
    4.0390   -0.6830    1.6110 C   0  0  0  0  0  0  0  0  0  0  0  0
    4.0600   -1.4660    2.5720 O   0  0  0  0  0  0  0  0  0  0  0  0
    5.1970   -0.0110    1.1960 N   0  0  0  0  0  0  0  0  0  0  0  0
    6.4850   -0.1160    1.7810 C   0  0  0  0  0  0  0  0  0  0  0  0
    6.7840   -0.8590    2.8850 C   0  0  0  0  0  0  0  0  0  0  0  0
    8.0540   -0.9090    3.4120 C   0  0  0  0  0  0  0  0  0  0  0  0
    8.3440   -1.6760    4.5460 O   0  0  0  0  0  0  0  0  0  0  0  0
    9.0880   -0.2130    2.8550 C   0  0  0  0  0  0  0  0  0  0  0  0
    8.7920    0.5400    1.7390 C   0  0  0  0  0  0  0  0  0  0  0  0
    7.5400    0.6130    1.1860 C   0  0  0  0  0  0  0  0  0  0  0  0
    7.2380    1.3370    0.1100 O   0  0  0  0  0  0  0  0  0  0  0  0
    7.7000    2.1540   -0.8400 C   0  0  0  0  0  0  0  0  0  0  0  0
    8.7090    1.6670   -1.8330 C   0  0  0  0  0  0  0  0  0  0  0  0
    9.8720    1.2470   -1.2460 O   0  0  0  0  0  0  0  0  0  0  0  0
   -0.3510   -1.3610   -2.9450 C   0  0  0  0  0  0  0  0  0  0  0  0
    0.9170   -1.7610   -3.3950 O   0  0  0  0  0  0  0  0  0  0  0  0
    1.1410   -2.0150   -4.7760 C   0  0  0  0  0  0  0  0  0  0  0  0
   -1.4040   -1.2070   -3.8200 C   0  0  0  0  0  0  0  0  0  0  0  0
   -2.6460   -0.8180   -3.3930 C   0  0  0  0  0  0  0  0  0  0  0  0
   -3.7060   -0.6670   -4.2950 O   0  0  0  0  0  0  0  0  0  0  0  0
   -3.4770   -0.9220   -5.6580 C   0  0  0  0  0  0  0  0  0  0  0  0
  1  2  1  0
  2  3  1  0
  3  4  1  1
  3  5  1  0
  3  6  1  0
  6  7  1  0
  7  8  2  0
  7  9  1  0
  9 10  1  0
 10 11  1  0
 11 12  2  0
 11 37  1  0
 12 13  1  0
 13 14  1  0
 13 33  2  0
 14 15  1  0
 15 16  1  0
 16 17  1  1
 16 18  1  0
 18 19  1  0
 19 20  2  0
 19 21  1  0
 21 22  1  0
 22 23  2  0
 22 28  1  0
 23 24  1  0
 24 25  1  0
 24 26  2  0
 26 27  1  0
 27 28  2  0
 28 29  1  0
 29 30  1  0
 30 31  1  0
 31 32  1  0
 33 34  1  0
 33 36  1  0
 34 35  1  0
 36 37  2  0
 37 38  1  0
 38 39  1  0
M  END
