
     RDKit          3D

 39 40  0  0  0  0  0  0  0  0999 V2000
  -10.2630   -3.7650   -2.9550 C   0  0  0  0  0  0  0  0  0  0  0  0
   -9.1210   -3.6390   -3.7650 O   0  0  0  0  0  0  0  0  0  0  0  0
   -8.2900   -2.5370   -3.5990 C   0  0  0  0  0  0  0  0  0  0  0  0
   -7.1520   -2.3890   -4.3920 C   0  0  0  0  0  0  0  0  0  0  0  0
   -6.2970   -1.3420   -4.2830 C   0  0  0  0  0  0  0  0  0  0  0  0
   -6.5460   -0.3350   -3.3240 C   0  0  0  0  0  0  0  0  0  0  0  0
   -5.6730    0.8350   -3.1290 C   0  0  0  0  0  0  0  0  0  0  0  0
   -4.8730    0.6150   -1.8790 C   0  0  0  0  0  0  0  0  0  0  0  0
   -3.9430    1.7220   -1.5150 C   0  0  0  0  0  0  0  0  0  0  0  0
   -2.9900    2.0140   -2.4850 O   0  0  0  0  0  0  0  0  0  0  0  0
   -2.1710    0.9410   -2.7960 C   0  0  0  0  0  0  0  0  0  0  0  0
   -1.3690    0.4190   -1.6480 C   0  0  1  0  0  0  0  0  0  0  0  0
   -0.6250   -0.6740   -2.1160 O   0  0  0  0  0  0  0  0  0  0  0  0
   -0.3520    1.4180   -1.1270 C   0  0  0  0  0  0  0  0  0  0  0  0
    0.3830    0.8000   -0.0050 C   0  0  0  0  0  0  0  0  0  0  0  0
    1.2980    0.0120   -0.1570 O   0  0  0  0  0  0  0  0  0  0  0  0
   -0.0240    1.1580    1.2970 O   0  0  0  0  0  0  0  0  0  0  0  0
    0.6060    0.6340    2.4640 C   0  0  0  0  0  0  0  0  0  0  0  0
    2.0210    0.9990    2.5170 C   0  0  0  0  0  0  0  0  0  0  0  0
    2.4640    2.2700    2.1260 C   0  0  0  0  0  0  0  0  0  0  0  0
    3.7580    2.6650    2.1520 C   0  0  0  0  0  0  0  0  0  0  0  0
    4.1710    3.9650    1.7460 N   0  0  0  0  0  0  0  0  0  0  0  0
    4.7510    1.7810    2.5920 C   0  0  0  0  0  0  0  0  0  0  0  0
    6.1490    2.2160    2.6010 C   0  0  0  0  0  0  0  0  0  0  0  0
    4.3520    0.5290    2.9840 C   0  0  0  0  0  0  0  0  0  0  0  0
    5.3530   -0.4270    3.4590 C   0  0  0  0  0  0  0  0  0  0  0  0
    4.9940   -1.5340    3.9200 O   0  0  0  0  0  0  0  0  0  0  0  0
    6.7280   -0.2000    3.4470 O   0  0  0  0  0  0  0  0  0  0  0  0
    7.6370   -1.1670    3.9460 C   0  0  2  0  0  0  0  0  0  0  0  0
    8.4990   -0.5650    4.9740 C   0  0  0  0  0  0  0  0  0  0  0  0
    9.2140   -0.0920    5.8150 N   0  0  0  0  0  0  0  0  0  0  0  0
    8.5910   -1.5370    2.8060 C   0  0  0  0  0  0  0  0  0  0  0  0
    9.3210   -0.3090    2.4250 C   0  0  0  0  0  0  0  0  0  0  0  0
   10.3850   -0.4300    1.4360 N   0  0  0  0  0  0  0  0  0  0  0  0
    9.0770    0.8010    2.9060 O   0  0  0  0  0  0  0  0  0  0  0  0
    3.0070    0.1360    2.9500 C   0  0  0  0  0  0  0  0  0  0  0  0
   -7.6660   -0.4970   -2.5530 C   0  0  0  0  0  0  0  0  0  0  0  0
   -7.9490    0.4790   -1.5850 O   0  0  0  0  0  0  0  0  0  0  0  0
   -8.5180   -1.5560   -2.6770 C   0  0  0  0  0  0  0  0  0  0  0  0
  1  2  1  0
  2  3  1  0
  3  4  2  0
  3 39  1  0
  4  5  1  0
  5  6  2  0
  6  7  1  0
  6 37  1  0
  7  8  1  0
  8  9  1  0
  9 10  1  0
 10 11  1  0
 11 12  1  0
 12 13  1  6
 12 14  1  0
 14 15  1  0
 15 16  2  0
 15 17  1  0
 17 18  1  0
 18 19  1  0
 19 20  2  0
 19 36  1  0
 20 21  1  0
 21 22  1  0
 21 23  2  0
 23 24  1  0
 23 25  1  0
 25 26  1  0
 25 36  2  0
 26 27  2  0
 26 28  1  0
 28 29  1  0
 29 30  1  1
 29 32  1  0
 30 31  3  0
 32 33  1  0
 33 34  1  0
 33 35  2  0
 37 38  1  0
 37 39  2  0
M  END
