
     RDKit          3D

 39 40  0  0  0  0  0  0  0  0999 V2000
   -4.3310    0.2110    2.6820 C   0  0  0  0  0  0  0  0  0  0  0  0
   -5.3780    1.0040    2.1680 O   0  0  0  0  0  0  0  0  0  0  0  0
   -5.6240    1.0440    0.8140 C   0  0  0  0  0  0  0  0  0  0  0  0
   -4.8340    0.3010   -0.0350 C   0  0  0  0  0  0  0  0  0  0  0  0
   -5.0850    0.3480   -1.3940 C   0  0  0  0  0  0  0  0  0  0  0  0
   -4.3690   -0.3390   -2.3420 O   0  0  0  0  0  0  0  0  0  0  0  0
   -3.2660   -1.1620   -2.1740 C   0  0  0  0  0  0  0  0  0  0  0  0
   -2.0280   -0.5040   -1.6360 C   0  0  0  0  0  0  0  0  0  0  0  0
   -1.0080   -1.4490   -1.5200 O   0  0  0  0  0  0  0  0  0  0  0  0
    0.2620   -1.2730   -1.0650 C   0  0  0  0  0  0  0  0  0  0  0  0
    0.6640   -0.0120   -0.6250 C   0  0  0  0  0  0  0  0  0  0  0  0
    1.9290    0.2430   -0.1520 C   0  0  0  0  0  0  0  0  0  0  0  0
    2.2840    1.6310    0.3040 C   0  0  0  0  0  0  0  0  0  0  0  0
    2.8510   -0.7810   -0.1050 C   0  0  0  0  0  0  0  0  0  0  0  0
    4.1330   -0.5140    0.4070 N   0  0  0  0  0  0  0  0  0  0  0  0
    5.2370   -1.3640    0.4820 C   0  0  0  0  0  0  0  0  0  0  0  0
    5.1670   -2.5260    0.0440 O   0  0  0  0  0  0  0  0  0  0  0  0
    6.4970   -0.9140    1.0740 N   0  0  0  0  0  0  0  0  0  0  0  0
    7.5790   -1.8450    1.1050 C   0  0  0  0  0  0  0  0  0  0  0  0
    8.8350   -1.3200    1.7130 C   0  0  1  0  0  0  0  0  0  0  0  0
    9.7370   -2.4470    1.6840 O   0  0  0  0  0  0  0  0  0  0  0  0
    9.5590   -0.2570    0.9870 C   0  0  0  0  0  0  0  0  0  0  0  0
    8.9200    1.0500    0.7510 C   0  0  1  0  0  0  0  0  0  0  0  0
    8.5620    1.7870    2.0310 C   0  0  0  0  0  0  0  0  0  0  0  0
    9.9120    1.8740    0.1430 O   0  0  0  0  0  0  0  0  0  0  0  0
    2.4610   -2.0220   -0.5380 C   0  0  0  0  0  0  0  0  0  0  0  0
    1.1830   -2.2950   -1.0190 C   0  0  0  0  0  0  0  0  0  0  0  0
    0.7970   -3.5530   -1.4550 O   0  0  0  0  0  0  0  0  0  0  0  0
    1.7610   -4.5940   -1.4020 C   0  0  0  0  0  0  0  0  0  0  0  0
   -6.1370    1.1520   -1.8540 C   0  0  0  0  0  0  0  0  0  0  0  0
   -6.3580    1.1690   -3.2320 O   0  0  0  0  0  0  0  0  0  0  0  0
   -7.3970    1.9620   -3.7810 C   0  0  0  0  0  0  0  0  0  0  0  0
   -6.9050    1.8800   -0.9840 C   0  0  0  0  0  0  0  0  0  0  0  0
   -6.6620    1.8380    0.3600 C   0  0  0  0  0  0  0  0  0  0  0  0
   -7.4450    2.6280    1.3160 C   0  0  0  0  0  0  0  0  0  0  0  0
   -8.3050    1.7590    2.1620 C   0  0  0  0  0  0  0  0  0  0  0  0
   -9.2610    0.9890    1.3610 C   0  0  0  0  0  0  0  0  0  0  0  0
  -10.1470    0.0850    2.0570 N   0  0  0  0  0  0  0  0  0  0  0  0
   -9.3110    1.1090    0.1210 O   0  0  0  0  0  0  0  0  0  0  0  0
  1  2  1  0
  2  3  1  0
  3  4  2  0
  3 34  1  0
  4  5  1  0
  5  6  1  0
  5 30  2  0
  6  7  1  0
  7  8  1  0
  8  9  1  0
  9 10  1  0
 10 11  2  0
 10 27  1  0
 11 12  1  0
 12 13  1  0
 12 14  2  0
 14 15  1  0
 14 26  1  0
 15 16  1  0
 16 17  2  0
 16 18  1  0
 18 19  1  0
 19 20  1  0
 20 21  1  6
 20 22  1  0
 22 23  1  0
 23 24  1  1
 23 25  1  0
 26 27  2  0
 27 28  1  0
 28 29  1  0
 30 31  1  0
 30 33  1  0
 31 32  1  0
 33 34  2  0
 34 35  1  0
 35 36  1  0
 36 37  1  0
 37 38  1  0
 37 39  2  0
M  END
