
     RDKit          3D

 39 40  0  0  0  0  0  0  0  0999 V2000
    8.4720    3.0420   -4.2470 C   0  0  0  0  0  0  0  0  0  0  0  0
    8.3180    1.5540   -4.3420 C   0  0  0  0  0  0  0  0  0  0  0  0
    7.4380    1.0590   -3.3180 O   0  0  0  0  0  0  0  0  0  0  0  0
    7.1470   -0.2920   -3.2200 C   0  0  0  0  0  0  0  0  0  0  0  0
    7.6920   -1.0460   -4.0690 O   0  0  0  0  0  0  0  0  0  0  0  0
    6.2610   -0.8400   -2.2030 C   0  0  0  0  0  0  0  0  0  0  0  0
    5.6360   -0.0700   -1.2420 C   0  0  0  0  0  0  0  0  0  0  0  0
    4.8130   -0.6470   -0.3120 C   0  0  0  0  0  0  0  0  0  0  0  0
    4.1410    0.1980    0.7320 C   0  0  2  0  0  0  0  0  0  0  0  0
    4.1660   -0.5030    1.9380 O   0  0  0  0  0  0  0  0  0  0  0  0
    2.7060    0.4630    0.3250 C   0  0  0  0  0  0  0  0  0  0  0  0
    2.0740    1.2160    1.3770 N   0  0  0  0  0  0  0  0  0  0  0  0
    0.7120    1.6340    1.2440 C   0  0  0  0  0  0  0  0  0  0  0  0
    0.1120    1.3380    0.1910 O   0  0  0  0  0  0  0  0  0  0  0  0
    0.0620    2.3550    2.2630 N   0  0  0  0  0  0  0  0  0  0  0  0
   -1.2810    2.8180    2.2550 C   0  0  0  0  0  0  0  0  0  0  0  0
   -2.3470    1.7290    2.1670 C   0  0  2  0  0  0  0  0  0  0  0  0
   -1.9930    0.7580    3.2940 C   0  0  0  0  0  0  0  0  0  0  0  0
   -2.1980    1.0670    0.9990 O   0  0  0  0  0  0  0  0  0  0  0  0
   -3.6470    2.4180    2.4280 C   0  0  0  0  0  0  0  0  0  0  0  0
   -4.7980    1.7190    2.4160 O   0  0  0  0  0  0  0  0  0  0  0  0
   -5.5750    1.0230    1.6050 C   0  0  0  0  0  0  0  0  0  0  0  0
   -5.3230    0.8450    0.2680 C   0  0  0  0  0  0  0  0  0  0  0  0
   -6.1880    0.0920   -0.5440 C   0  0  0  0  0  0  0  0  0  0  0  0
   -7.3040   -0.4780   -0.0080 C   0  0  0  0  0  0  0  0  0  0  0  0
   -8.2080   -1.2660   -0.8600 C   0  0  0  0  0  0  0  0  0  0  0  0
   -9.2830   -2.0090   -0.3260 N   0  0  0  0  0  0  0  0  0  0  0  0
   -8.0200   -1.2760   -2.1170 O   0  0  0  0  0  0  0  0  0  0  0  0
   -7.5790   -0.3140    1.3270 C   0  0  0  0  0  0  0  0  0  0  0  0
   -6.7260    0.4220    2.1090 C   0  0  0  0  0  0  0  0  0  0  0  0
   -7.0040    0.5840    3.4500 O   0  0  0  0  0  0  0  0  0  0  0  0
   -8.1280    0.0850    4.0980 C   0  0  0  0  0  0  0  0  0  0  0  0
   -9.3680    0.6720    3.5220 C   0  0  0  0  0  0  0  0  0  0  0  0
    4.5620   -2.0050   -0.2780 C   0  0  0  0  0  0  0  0  0  0  0  0
    5.1830   -2.7710   -1.2330 C   0  0  0  0  0  0  0  0  0  0  0  0
    6.0140   -2.2110   -2.1770 C   0  0  0  0  0  0  0  0  0  0  0  0
    6.6290   -2.9910   -3.1280 O   0  0  0  0  0  0  0  0  0  0  0  0
    6.4550   -4.3950   -3.2120 C   0  0  0  0  0  0  0  0  0  0  0  0
    5.0340   -4.7850   -3.4460 C   0  0  0  0  0  0  0  0  0  0  0  0
  1  2  1  0
  2  3  1  0
  3  4  1  0
  4  5  2  0
  4  6  1  0
  6  7  2  0
  6 36  1  0
  7  8  1  0
  8  9  1  0
  8 34  2  0
  9 10  1  1
  9 11  1  0
 11 12  1  0
 12 13  1  0
 13 14  2  0
 13 15  1  0
 15 16  1  0
 16 17  1  0
 17 18  1  1
 17 19  1  0
 17 20  1  0
 20 21  1  0
 21 22  1  0
 22 23  2  0
 22 30  1  0
 23 24  1  0
 24 25  2  0
 25 26  1  0
 25 29  1  0
 26 27  1  0
 26 28  2  0
 29 30  2  0
 30 31  1  0
 31 32  1  0
 32 33  1  0
 34 35  1  0
 35 36  2  0
 36 37  1  0
 37 38  1  0
 38 39  1  0
M  END
