
     RDKit          3D

 39 43  0  0  0  0  0  0  0  0999 V2000
   -8.0540    0.9240   -1.0340 C   0  0  0  0  0  0  0  0  0  0  0  0
   -6.8050    0.9890   -1.9020 C   0  0  0  0  0  0  0  0  0  0  0  0
   -5.7420    0.2140   -1.3190 N   0  0  0  0  0  0  0  0  0  0  0  0
   -5.2970    0.5930   -0.0100 C   0  0  0  0  0  0  0  0  0  0  0  0
   -5.8260    1.5640    0.5880 O   0  0  0  0  0  0  0  0  0  0  0  0
   -4.2160   -0.1420    0.6610 C   0  0  2  0  0  0  0  0  0  0  0  0
   -3.0100    0.0020   -0.2030 C   0  0  0  0  0  0  0  0  0  0  0  0
   -2.7590    1.2270   -0.6770 N   0  0  0  0  0  0  0  0  0  0  0  0
   -1.7140    1.5270   -1.4680 C   0  0  0  0  0  0  0  0  0  0  0  0
   -1.4800    2.9120   -1.9700 C   0  0  0  0  0  0  0  0  0  0  0  0
   -0.8870    0.5210   -1.7860 N   0  0  0  0  0  0  0  0  0  0  0  0
   -1.1110   -0.7240   -1.3250 C   0  0  0  0  0  0  0  0  0  0  0  0
   -0.1590   -1.8220   -1.7060 C   0  0  0  0  0  0  0  0  0  0  0  0
    0.8990   -1.7950   -0.7150 N   0  0  0  0  0  0  0  0  0  0  0  0
    0.7550   -2.3010    0.6050 C   0  0  0  0  0  0  0  0  0  0  0  0
   -0.3550   -2.7980    0.9210 O   0  0  0  0  0  0  0  0  0  0  0  0
    1.8590   -2.2590    1.6000 C   0  0  0  0  0  0  0  0  0  0  0  0
    3.3450   -1.4940    0.9040 S   0  0  0  0  0  0  0  0  0  0  0  0
    3.0610    0.2360    0.5510 C   0  0  0  0  0  0  0  0  0  0  0  0
    1.9450    0.9700    0.7370 N   0  0  0  0  0  0  0  0  0  0  0  0
    2.1540    2.2490    0.3350 C   0  0  0  0  0  0  0  0  0  0  0  0
    3.4540    2.3070   -0.1190 C   0  0  0  0  0  0  0  0  0  0  0  0
    3.9580    1.0770    0.0310 N   0  0  0  0  0  0  0  0  0  0  0  0
    5.2890    0.7170   -0.3250 C   0  0  0  0  0  0  0  0  0  0  0  0
    5.8090    0.9920   -1.5680 C   0  0  0  0  0  0  0  0  0  0  0  0
    7.0900    0.6230   -1.8510 C   0  0  0  0  0  0  0  0  0  0  0  0
    7.8870   -0.0270   -0.9100 C   0  0  0  0  0  0  0  0  0  0  0  0
    9.1140   -0.4810   -0.9130 O   0  0  0  0  0  0  0  0  0  0  0  0
    9.4250   -1.0300    0.2370 C   0  0  0  0  0  0  0  0  0  0  0  0
   10.7210   -1.6630    0.6400 C   0  0  0  0  0  0  0  0  0  0  0  0
    8.3310   -0.9160    1.0110 N   0  0  0  0  0  0  0  0  0  0  0  0
    7.3490   -0.2940    0.3280 C   0  0  0  0  0  0  0  0  0  0  0  0
    6.0530    0.0770    0.6210 C   0  0  0  0  0  0  0  0  0  0  0  0
   -2.1780   -0.9920   -0.5270 N   0  0  0  0  0  0  0  0  0  0  0  0
   -4.5380   -1.5940    0.9150 C   0  0  0  0  0  0  0  0  0  0  0  0
   -5.6040   -1.6510    1.9810 C   0  0  0  0  0  0  0  0  0  0  0  0
   -6.1330   -0.4010    2.2840 O   0  0  0  0  0  0  0  0  0  0  0  0
   -5.1720    0.4480    2.8290 C   0  0  0  0  0  0  0  0  0  0  0  0
   -3.9210    0.5120    1.9860 C   0  0  0  0  0  0  0  0  0  0  0  0
  1  2  1  0
  2  3  1  0
  3  4  1  0
  4  5  2  0
  6  4  1  6
  6  7  1  0
  6 35  1  0
  6 39  1  0
  7  8  2  0
  7 34  1  0
  8  9  1  0
  9 10  1  0
  9 11  2  0
 11 12  1  0
 12 13  1  0
 12 34  2  0
 13 14  1  0
 14 15  1  0
 15 16  2  0
 15 17  1  0
 17 18  1  0
 18 19  1  0
 19 20  2  0
 19 23  1  0
 20 21  1  0
 21 22  2  0
 22 23  1  0
 23 24  1  0
 24 25  2  0
 24 33  1  0
 25 26  1  0
 26 27  2  0
 27 28  1  0
 27 32  1  0
 28 29  1  0
 29 30  1  0
 29 31  2  0
 31 32  1  0
 32 33  2  0
 35 36  1  0
 36 37  1  0
 37 38  1  0
 38 39  1  0
M  END
