
     RDKit          3D

 39 43  0  0  0  0  0  0  0  0999 V2000
    7.8380   -2.2960    1.8110 C   0  0  0  0  0  0  0  0  0  0  0  0
    8.1580   -1.0600    1.2070 O   0  0  0  0  0  0  0  0  0  0  0  0
    7.1300   -0.3210    0.6440 C   0  0  0  0  0  0  0  0  0  0  0  0
    5.8120   -0.8000    0.6800 C   0  0  0  0  0  0  0  0  0  0  0  0
    4.7750   -0.0960    0.1340 C   0  0  0  0  0  0  0  0  0  0  0  0
    3.4150   -0.5240    0.1280 N   0  0  0  0  0  0  0  0  0  0  0  0
    2.9180   -1.7560    0.5830 C   0  0  0  0  0  0  0  0  0  0  0  0
    3.6820   -2.6120    1.0490 O   0  0  0  0  0  0  0  0  0  0  0  0
    1.4540   -2.0550    0.5110 C   0  0  0  0  0  0  0  0  0  0  0  0
    0.9360   -3.3130    0.9740 C   0  0  0  0  0  0  0  0  0  0  0  0
   -0.7890   -3.1590    0.6740 S   0  0  0  0  0  0  0  0  0  0  0  0
   -0.6290   -1.4160   -0.0430 C   0  0  0  0  0  0  0  0  0  0  0  0
   -1.8830   -0.7620   -0.4900 C   0  0  0  0  0  0  0  0  0  0  0  0
   -3.1760   -1.2300   -0.4680 C   0  0  0  0  0  0  0  0  0  0  0  0
   -3.9990   -0.2940   -0.9760 N   0  0  0  0  0  0  0  0  0  0  0  0
   -5.3990   -0.4300   -1.1080 C   0  0  0  0  0  0  0  0  0  0  0  0
   -6.0020   -0.7260   -2.3200 C   0  0  0  0  0  0  0  0  0  0  0  0
   -7.3580   -0.8590   -2.4490 C   0  0  0  0  0  0  0  0  0  0  0  0
   -8.1890   -0.7010   -1.3710 C   0  0  0  0  0  0  0  0  0  0  0  0
   -7.5910   -0.4060   -0.1640 C   0  0  0  0  0  0  0  0  0  0  0  0
   -8.4220   -0.2380    0.9700 N   0  0  0  0  0  0  0  0  0  0  0  0
   -9.2370   -1.1610    1.4760 C   0  0  0  0  0  0  0  0  0  0  0  0
   -9.8460   -0.6240    2.5370 N   0  0  0  0  0  0  0  0  0  0  0  0
   -9.4150    0.6110    2.6840 N   0  0  0  0  0  0  0  0  0  0  0  0
   -8.5260    0.8720    1.7160 C   0  0  0  0  0  0  0  0  0  0  0  0
   -7.8030    2.1590    1.5280 C   0  0  0  0  0  0  0  0  0  0  0  0
   -6.2310   -0.2700   -0.0160 C   0  0  0  0  0  0  0  0  0  0  0  0
   -3.2850    0.7570   -1.3250 N   0  0  0  0  0  0  0  0  0  0  0  0
   -3.7170    2.0070   -1.9130 C   0  0  0  0  0  0  0  0  0  0  0  0
   -1.9760    0.4990   -1.0380 C   0  0  0  0  0  0  0  0  0  0  0  0
   -0.9910    1.2610   -1.2270 O   0  0  0  0  0  0  0  0  0  0  0  0
    0.5140   -1.2690    0.0500 N   0  0  0  0  0  0  0  0  0  0  0  0
    5.0990    1.1120   -0.4550 C   0  0  0  0  0  0  0  0  0  0  0  0
    6.3980    1.5860   -0.4920 C   0  0  0  0  0  0  0  0  0  0  0  0
    7.4520    0.8930    0.0510 C   0  0  0  0  0  0  0  0  0  0  0  0
    8.8020    1.3070    0.0550 N   0  0  0  0  0  0  0  0  0  0  0  0
    9.3330    2.4930   -0.4880 C   0  0  0  0  0  0  0  0  0  0  0  0
   10.8090    2.7210   -0.3650 C   0  0  0  0  0  0  0  0  0  0  0  0
    8.5850    3.3110   -1.0470 O   0  0  0  0  0  0  0  0  0  0  0  0
  1  2  1  0
  2  3  1  0
  3  4  2  0
  3 35  1  0
  4  5  1  0
  5  6  1  0
  5 33  2  0
  6  7  1  0
  7  8  2  0
  7  9  1  0
  9 10  2  0
  9 32  1  0
 10 11  1  0
 11 12  1  0
 12 13  1  0
 12 32  2  0
 13 14  2  0
 13 30  1  0
 14 15  1  0
 15 16  1  0
 15 28  1  0
 16 17  2  0
 16 27  1  0
 17 18  1  0
 18 19  2  0
 19 20  1  0
 20 21  1  0
 20 27  2  0
 21 22  1  0
 21 25  1  0
 22 23  2  0
 23 24  1  0
 24 25  2  0
 25 26  1  0
 28 29  1  0
 28 30  1  0
 30 31  2  0
 33 34  1  0
 34 35  2  0
 35 36  1  0
 36 37  1  0
 37 38  1  0
 37 39  2  0
M  END
