
     RDKit          3D

 39 43  0  0  0  0  0  0  0  0999 V2000
    3.6320   -5.1610   -1.6700 C   0  0  0  0  0  0  0  0  0  0  0  0
    2.9990   -4.2670   -0.7430 O   0  0  0  0  0  0  0  0  0  0  0  0
    3.3560   -2.8990   -0.8020 C   0  0  0  0  0  0  0  0  0  0  0  0
    4.2600   -2.4910   -1.7020 N   0  0  0  0  0  0  0  0  0  0  0  0
    4.6620   -1.2200   -1.8360 C   0  0  0  0  0  0  0  0  0  0  0  0
    4.1190   -0.2540   -0.9990 C   0  0  0  0  0  0  0  0  0  0  0  0
    4.5630    1.0820   -1.1430 N   0  0  0  0  0  0  0  0  0  0  0  0
    4.1070    1.9800   -2.0450 C   0  0  0  0  0  0  0  0  0  0  0  0
    3.1940    1.8190   -2.9300 O   0  0  0  0  0  0  0  0  0  0  0  0
    4.7960    3.1110   -1.8470 N   0  0  0  0  0  0  0  0  0  0  0  0
    5.6770    2.9250   -0.8310 C   0  0  0  0  0  0  0  0  0  0  0  0
    6.6160    3.7560   -0.2220 C   0  0  0  0  0  0  0  0  0  0  0  0
    7.3970    3.2860    0.8300 C   0  0  0  0  0  0  0  0  0  0  0  0
    7.2020    1.9900    1.2310 C   0  0  0  0  0  0  0  0  0  0  0  0
    6.2960    1.1350    0.6690 C   0  0  0  0  0  0  0  0  0  0  0  0
    5.5240    1.6350   -0.3880 C   0  0  0  0  0  0  0  0  0  0  0  0
    3.1910   -0.6590   -0.0730 C   0  0  0  0  0  0  0  0  0  0  0  0
    2.7810   -1.9940    0.0550 C   0  0  0  0  0  0  0  0  0  0  0  0
    1.8450   -2.4380    1.0660 C   0  0  0  0  0  0  0  0  0  0  0  0
    2.0780   -3.3990    2.0510 C   0  0  0  0  0  0  0  0  0  0  0  0
    0.9250   -3.4310    2.8010 C   0  0  0  0  0  0  0  0  0  0  0  0
    0.0530   -2.5450    2.2970 O   0  0  0  0  0  0  0  0  0  0  0  0
    0.5830   -1.9390    1.2550 C   0  0  0  0  0  0  0  0  0  0  0  0
   -0.1360   -0.8910    0.4480 C   0  0  0  0  0  0  0  0  0  0  0  0
   -1.4470   -0.6370    0.9860 N   0  0  0  0  0  0  0  0  0  0  0  0
   -2.2540    0.2630    0.2300 C   0  0  1  0  0  0  0  0  0  0  0  0
   -2.6190   -0.2860   -1.1230 C   0  0  0  0  0  0  0  0  0  0  0  0
   -3.4140   -1.5600   -1.0380 C   0  0  0  0  0  0  0  0  0  0  0  0
   -2.6960   -2.6040   -0.3230 N   0  0  0  0  0  0  0  0  0  0  0  0
   -3.4990   -3.8110   -0.2210 C   0  0  0  0  0  0  0  0  0  0  0  0
   -4.6750   -3.5720    0.6450 C   0  0  0  0  0  0  0  0  0  0  0  0
   -5.5740   -3.3700    1.3010 N   0  0  0  0  0  0  0  0  0  0  0  0
   -3.4380    0.6460    1.0620 C   0  0  0  0  0  0  0  0  0  0  0  0
   -4.3550    1.5570    0.4070 N   0  0  1  0  0  0  0  0  0  0  0  0
   -5.4320    1.8130    1.3360 C   0  0  0  0  0  0  0  0  0  0  0  0
   -5.5110    3.2860    1.7390 C   0  0  0  0  0  0  0  0  0  0  0  0
   -5.8030    4.0680    0.4800 C   0  0  0  0  0  0  0  0  0  0  0  0
   -4.7410    3.7520   -0.5360 C   0  0  0  0  0  0  0  0  0  0  0  0
   -3.7360    2.8210    0.0690 C   0  0  0  0  0  0  0  0  0  0  0  0
  1  2  1  0
  2  3  1  0
  3  4  2  0
  3 18  1  0
  4  5  1  0
  5  6  2  0
  6  7  1  0
  6 17  1  0
  7  8  1  0
  7 16  1  0
  8  9  2  0
  8 10  1  0
 10 11  1  0
 11 12  2  0
 11 16  1  0
 12 13  1  0
 13 14  2  0
 14 15  1  0
 15 16  2  0
 17 18  2  0
 18 19  1  0
 19 20  1  0
 19 23  2  0
 20 21  2  0
 21 22  1  0
 22 23  1  0
 23 24  1  0
 24 25  1  0
 25 26  1  0
 26 27  1  6
 26 33  1  0
 27 28  1  0
 28 29  1  0
 29 30  1  0
 30 31  1  0
 31 32  3  0
 34 33  1  1
 34 35  1  0
 34 39  1  0
 35 36  1  0
 36 37  1  0
 37 38  1  0
 38 39  1  0
M  CHG  1  34   1
M  END
