
     RDKit          3D

 39 43  0  0  0  0  0  0  0  0999 V2000
   10.9760   -0.3850   -0.0940 C   0  0  0  0  0  0  0  0  0  0  0  0
    9.6490    0.1590    0.3000 C   0  0  0  0  0  0  0  0  0  0  0  0
    9.5360    1.1600    1.2380 C   0  0  0  0  0  0  0  0  0  0  0  0
    8.3160    1.6730    1.6120 C   0  0  0  0  0  0  0  0  0  0  0  0
    7.1360    1.2010    1.0560 C   0  0  0  0  0  0  0  0  0  0  0  0
    5.9360    1.6900    1.4080 N   0  0  0  0  0  0  0  0  0  0  0  0
    4.7910    1.2350    0.8710 C   0  0  0  0  0  0  0  0  0  0  0  0
    3.5270    1.7570    1.2480 N   0  0  0  0  0  0  0  0  0  0  0  0
    2.3490    1.2420    0.6510 C   0  0  0  0  0  0  0  0  0  0  0  0
    1.9880    0.4090   -0.1690 N   0  0  0  0  0  0  0  0  0  0  0  0
    0.7890    0.1120   -0.5640 C   0  0  0  0  0  0  0  0  0  0  0  0
    0.4530   -0.9500   -1.5980 C   0  0  2  0  0  0  0  0  0  0  0  0
    1.6620   -1.6790   -2.1760 C   0  0  0  0  0  0  0  0  0  0  0  0
    0.8570   -0.7470   -2.9910 C   0  0  0  0  0  0  0  0  0  0  0  0
   -0.2260    0.8660    0.0500 C   0  0  0  0  0  0  0  0  0  0  0  0
   -1.6470    0.8210   -0.1290 C   0  0  0  0  0  0  0  0  0  0  0  0
   -2.1260    0.0010   -0.9510 O   0  0  0  0  0  0  0  0  0  0  0  0
   -2.5440    1.6300    0.5490 O   0  0  0  0  0  0  0  0  0  0  0  0
   -3.9390    1.5600    0.3480 C   0  0  0  0  0  0  0  0  0  0  0  0
   -4.4900    0.2330    0.6610 C   0  0  0  0  0  0  0  0  0  0  0  0
   -3.7120   -0.6700    1.0590 O   0  0  0  0  0  0  0  0  0  0  0  0
   -5.8670   -0.0830    0.5370 N   0  0  0  0  0  0  0  0  0  0  0  0
   -6.2960   -1.1770   -0.0280 C   0  0  0  0  0  0  0  0  0  0  0  0
   -5.5220   -2.1480   -0.5660 N   0  0  0  0  0  0  0  0  0  0  0  0
   -6.3210   -3.0790   -1.0320 N   0  0  0  0  0  0  0  0  0  0  0  0
   -7.5840   -2.7110   -0.7980 C   0  0  0  0  0  0  0  0  0  0  0  0
   -7.5890   -1.4950   -0.1560 N   0  0  0  0  0  0  0  0  0  0  0  0
   -8.7760   -0.8230    0.2360 C   0  0  0  0  0  0  0  0  0  0  0  0
   -8.8190    0.3330    0.8470 C   0  0  0  0  0  0  0  0  0  0  0  0
  -10.1080    0.9190    1.1970 C   0  0  0  0  0  0  0  0  0  0  0  0
  -10.1330    2.0790    1.8100 C   0  0  0  0  0  0  0  0  0  0  0  0
  -11.3850    2.6930    2.1730 C   0  0  0  0  0  0  0  0  0  0  0  0
  -11.3890    3.7950    2.7550 O   0  0  0  0  0  0  0  0  0  0  0  0
    0.6820    1.9450    1.1550 S   0  0  0  0  0  0  0  0  0  0  0  0
    4.9030    0.2470   -0.0550 N   0  0  0  0  0  0  0  0  0  0  0  0
    6.0720   -0.2730   -0.4400 C   0  0  0  0  0  0  0  0  0  0  0  0
    6.1870   -1.3520   -1.4510 C   0  0  0  0  0  0  0  0  0  0  0  0
    7.2450    0.1990    0.1160 C   0  0  0  0  0  0  0  0  0  0  0  0
    8.4790   -0.3120   -0.2540 C   0  0  0  0  0  0  0  0  0  0  0  0
  1  2  1  0
  2  3  2  0
  2 39  1  0
  3  4  1  0
  4  5  2  0
  5  6  1  0
  5 38  1  0
  6  7  2  0
  7  8  1  0
  7 35  1  0
  8  9  1  0
  9 10  2  0
  9 34  1  0
 10 11  1  0
 12 11  1  1
 11 15  2  0
 12 13  1  0
 12 14  1  0
 13 14  1  0
 15 16  1  0
 15 34  1  0
 16 17  2  0
 16 18  1  0
 18 19  1  0
 19 20  1  0
 20 21  2  0
 20 22  1  0
 22 23  2  3
 23 24  1  0
 23 27  1  0
 24 25  1  0
 25 26  2  0
 26 27  1  0
 27 28  1  0
 28 29  2  3
 29 30  1  0
 30 31  2  3
 31 32  1  0
 32 33  2  0
 35 36  2  0
 36 37  1  0
 36 38  1  0
 38 39  2  0
M  END
