
     RDKit          3D

 39 42  0  0  0  0  0  0  0  0999 V2000
    9.7930   -1.4130    1.0350 C   0  0  0  0  0  0  0  0  0  0  0  0
   10.8080   -1.3260    0.2030 C   0  0  0  0  0  0  0  0  0  0  0  0
   11.0120   -0.1550   -0.6730 C   0  0  0  0  0  0  0  0  0  0  0  0
    9.9290    0.8510   -0.7050 C   0  0  0  0  0  0  0  0  0  0  0  0
    8.6480    0.3110   -1.2360 C   0  0  0  0  0  0  0  0  0  0  0  0
    7.5100    0.4780   -0.6920 N   0  0  0  0  0  0  0  0  0  0  0  0
    6.3150   -0.0530   -1.2360 C   0  0  0  0  0  0  0  0  0  0  0  0
    5.1650    0.1840   -0.5820 C   0  0  0  0  0  0  0  0  0  0  0  0
    5.1870    0.9470    0.6160 C   0  0  0  0  0  0  0  0  0  0  0  0
    4.3250    1.3590    1.4510 C   0  0  0  0  0  0  0  0  0  0  0  0
    2.9370    1.3050    1.6490 C   0  0  0  0  0  0  0  0  0  0  0  0
    2.5030    1.8500    2.8110 O   0  0  0  0  0  0  0  0  0  0  0  0
    1.8680    0.8180    0.9280 N   0  0  0  0  0  0  0  0  0  0  0  0
    0.5630    0.7720    1.6630 C   0  0  0  0  0  0  0  0  0  0  0  0
   -0.2630   -0.3380    0.9900 C   0  0  0  0  0  0  0  0  0  0  0  0
   -0.6510    0.1150   -0.2900 N   0  0  0  0  0  0  0  0  0  0  0  0
   -1.8680    0.1780   -0.9100 C   0  0  0  0  0  0  0  0  0  0  0  0
   -1.6950    0.4470   -2.2330 O   0  0  0  0  0  0  0  0  0  0  0  0
   -3.2680    0.0420   -0.5590 C   0  0  0  0  0  0  0  0  0  0  0  0
   -4.2310    0.0640   -1.5330 C   0  0  0  0  0  0  0  0  0  0  0  0
   -5.5010   -0.0840   -0.8510 C   0  0  0  0  0  0  0  0  0  0  0  0
   -6.6790   -0.1100   -1.4860 C   0  0  0  0  0  0  0  0  0  0  0  0
   -6.7440    0.0120   -2.9190 C   0  0  0  0  0  0  0  0  0  0  0  0
   -7.9050   -0.0120   -3.5430 C   0  0  0  0  0  0  0  0  0  0  0  0
   -9.0910   -0.1590   -2.7840 N   0  0  0  0  0  0  0  0  0  0  0  0
   -5.2780   -0.1900    0.5760 C   0  0  0  0  0  0  0  0  0  0  0  0
   -6.3260   -0.3530    1.5780 C   0  0  0  0  0  0  0  0  0  0  0  0
   -7.2790    0.7380    1.6310 N   0  0  0  0  0  0  0  0  0  0  0  0
   -8.6370    0.3180    1.8080 C   0  0  2  0  0  0  0  0  0  0  0  0
   -9.2170    0.6150    3.2110 C   0  0  0  0  0  0  0  0  0  0  0  0
   -9.0030   -0.7760    2.7360 C   0  0  0  0  0  0  0  0  0  0  0  0
   -3.9360   -0.1080    0.7150 C   0  0  0  0  0  0  0  0  0  0  0  0
   -3.3940   -0.1080    2.0910 C   0  0  0  0  0  0  0  0  0  0  0  0
    0.4730    0.7350   -1.0810 C   0  0  0  0  0  0  0  0  0  0  0  0
    1.7730    0.4150   -0.4400 C   0  0  0  0  0  0  0  0  0  0  0  0
    6.2860   -0.8100   -2.4270 N   0  0  0  0  0  0  0  0  0  0  0  0
    7.5550   -1.0190   -3.0740 C   0  0  0  0  0  0  0  0  0  0  0  0
    7.6330   -1.6660   -4.1220 O   0  0  0  0  0  0  0  0  0  0  0  0
    8.6970   -0.4500   -2.4550 N   0  0  0  0  0  0  0  0  0  0  0  0
  1  2  2  0
  2  3  1  0
  3  4  1  0
  4  5  1  0
  5  6  2  0
  5 39  1  0
  6  7  1  0
  7  8  2  3
  7 36  1  0
  8  9  1  0
  9 10  2  3
 10 11  1  0
 11 12  2  0
 11 13  1  0
 13 14  1  0
 13 35  1  0
 14 15  1  0
 15 16  1  0
 16 17  1  0
 16 34  1  0
 17 18  2  0
 17 19  1  0
 19 20  2  0
 19 32  1  0
 20 21  1  0
 21 22  2  3
 21 26  1  0
 22 23  1  0
 23 24  2  3
 24 25  1  0
 26 27  1  0
 26 32  2  0
 27 28  1  0
 29 28  1  1
 29 30  1  0
 29 31  1  0
 30 31  1  0
 32 33  1  0
 34 35  1  0
 36 37  1  0
 37 38  2  0
 37 39  1  0
M  CHG  1  28   1
M  END
