
     RDKit          3D

 39 43  0  0  0  0  0  0  0  0999 V2000
   13.3190    1.0450    0.7270 C   0  0  0  0  0  0  0  0  0  0  0  0
   12.3290    2.1800    0.5510 C   0  0  0  0  0  0  0  0  0  0  0  0
   11.0190    1.6200    0.1790 N   0  0  0  0  0  0  0  0  0  0  0  0
   10.5540    1.3660   -1.0130 N   0  0  0  0  0  0  0  0  0  0  0  0
    9.2990    0.8430   -0.9140 C   0  0  0  0  0  0  0  0  0  0  0  0
    8.3760    0.4080   -1.8390 C   0  0  0  0  0  0  0  0  0  0  0  0
    7.1550   -0.0850   -1.3620 C   0  0  0  0  0  0  0  0  0  0  0  0
    6.8940   -0.1290   -0.0190 C   0  0  0  0  0  0  0  0  0  0  0  0
    5.6370   -0.6500    0.4650 C   0  0  0  0  0  0  0  0  0  0  0  0
    5.3600   -0.6720    1.7120 O   0  0  0  0  0  0  0  0  0  0  0  0
    4.6180   -1.1720   -0.3710 N   0  0  0  0  0  0  0  0  0  0  0  0
    3.4330   -1.6670    0.1300 C   0  0  0  0  0  0  0  0  0  0  0  0
    2.8140   -1.8500    1.2460 N   0  0  0  0  0  0  0  0  0  0  0  0
    1.6940   -2.3540    1.3850 N   0  0  0  0  0  0  0  0  0  0  0  0
    0.9390   -2.7910    0.4140 C   0  0  0  0  0  0  0  0  0  0  0  0
   -0.2490   -3.3530    0.2640 O   0  0  0  0  0  0  0  0  0  0  0  0
   -1.4170   -2.6600   -0.0170 C   0  0  0  0  0  0  0  0  0  0  0  0
   -1.7690   -2.3690   -1.3130 C   0  0  0  0  0  0  0  0  0  0  0  0
   -2.9300   -1.6790   -1.6220 C   0  0  0  0  0  0  0  0  0  0  0  0
   -3.7940   -1.2510   -0.6180 C   0  0  0  0  0  0  0  0  0  0  0  0
   -5.0230   -0.5230   -0.9560 C   0  0  0  0  0  0  0  0  0  0  0  0
   -5.0990   -0.0430   -2.1030 O   0  0  0  0  0  0  0  0  0  0  0  0
   -6.0900   -0.3520   -0.0610 N   0  0  0  0  0  0  0  0  0  0  0  0
   -7.3070    0.3120   -0.2570 C   0  0  0  0  0  0  0  0  0  0  0  0
   -7.6350    0.9610   -1.4090 C   0  0  0  0  0  0  0  0  0  0  0  0
   -8.8660    1.6190   -1.5690 C   0  0  0  0  0  0  0  0  0  0  0  0
   -9.1870    2.3160   -2.8410 C   0  0  0  0  0  0  0  0  0  0  0  0
   -9.7570    1.5970   -0.5170 C   0  0  0  0  0  0  0  0  0  0  0  0
   -9.4620    0.9520    0.6650 C   0  0  0  0  0  0  0  0  0  0  0  0
  -10.4410    0.9450    1.7780 C   0  0  0  0  0  0  0  0  0  0  0  0
   -8.2330    0.3230    0.7560 C   0  0  0  0  0  0  0  0  0  0  0  0
   -7.9320   -0.3630    2.0190 C   0  0  0  0  0  0  0  0  0  0  0  0
   -3.4400   -1.5430    0.6770 C   0  0  0  0  0  0  0  0  0  0  0  0
   -2.2720   -2.2360    0.9900 C   0  0  0  0  0  0  0  0  0  0  0  0
    2.1110   -2.3780   -0.9980 S   0  0  0  0  0  0  0  0  0  0  0  0
    7.8190    0.3040    0.8380 N   0  0  0  0  0  0  0  0  0  0  0  0
    9.0010    0.7820    0.4060 N   0  0  0  0  0  0  0  0  0  0  0  0
   10.0790    1.2680    1.0610 C   0  0  0  0  0  0  0  0  0  0  0  0
   10.1140    1.3440    2.3190 O   0  0  0  0  0  0  0  0  0  0  0  0
  1  2  1  0
  2  3  1  0
  3  4  1  0
  3 38  1  0
  4  5  2  0
  5  6  1  0
  5 37  1  0
  6  7  2  0
  7  8  1  0
  8  9  1  0
  8 36  2  0
  9 10  2  0
  9 11  1  0
 11 12  1  0
 12 13  2  0
 12 35  1  0
 13 14  1  0
 14 15  2  0
 15 16  1  0
 15 35  1  0
 16 17  1  0
 17 18  2  0
 17 34  1  0
 18 19  1  0
 19 20  2  0
 20 21  1  0
 20 33  1  0
 21 22  2  0
 21 23  1  0
 23 24  1  0
 24 25  2  0
 24 31  1  0
 25 26  1  0
 26 27  1  0
 26 28  2  0
 28 29  1  0
 29 30  1  0
 29 31  2  0
 31 32  1  0
 33 34  2  0
 36 37  1  0
 37 38  1  0
 38 39  2  0
M  END
