
     RDKit          3D

 46 51  0  0  0  0  0  0  0  0999 V2000
   -7.1200   -3.9440    1.9150 C   0  0  0  0  0  0  0  0  0  0  0  0
   -5.8580   -4.5400    1.3200 C   0  0  0  0  0  0  0  0  0  0  0  0
   -4.9020   -3.4590    0.8900 C   0  0  0  0  0  0  0  0  0  0  0  0
   -3.9590   -2.9570    1.7550 C   0  0  0  0  0  0  0  0  0  0  0  0
   -3.0850   -1.9700    1.3590 C   0  0  0  0  0  0  0  0  0  0  0  0
   -3.1140   -1.4470    0.0960 C   0  0  0  0  0  0  0  0  0  0  0  0
   -2.2070   -0.3820   -0.3940 C   0  0  1  0  0  0  0  0  0  0  0  0
   -1.6330   -0.7200   -1.7460 C   0  0  0  0  0  0  0  0  0  0  0  0
   -1.9550   -1.8020   -2.2950 O   0  0  0  0  0  0  0  0  0  0  0  0
   -0.7730    0.1010   -2.4080 O   0  0  0  0  0  0  0  0  0  0  0  0
   -0.1870   -0.0890   -3.6500 C   0  0  1  0  0  0  0  0  0  0  0  0
   -0.6870    0.9220   -4.6880 C   0  0  0  0  0  0  0  0  0  0  0  0
    1.2790   -0.2380   -3.6580 C   0  0  0  0  0  0  0  0  0  0  0  0
    1.9010   -0.3510   -4.7700 O   0  0  0  0  0  0  0  0  0  0  0  0
    2.1230   -0.2750   -2.5260 N   0  0  0  0  0  0  0  0  0  0  0  0
    3.5630   -0.4190   -2.5650 C   0  0  2  0  0  0  0  0  0  0  0  0
    4.0680   -1.7560   -2.2170 C   0  0  0  0  0  0  0  0  0  0  0  0
    3.4680   -2.7470   -3.2380 C   0  0  0  0  0  0  0  0  0  0  0  0
    4.2420    0.7380   -1.9500 C   0  0  0  0  0  0  0  0  0  0  0  0
    5.0920    1.5060   -2.6670 C   0  0  0  0  0  0  0  0  0  0  0  0
    5.7750    2.6620   -2.1320 C   0  0  0  0  0  0  0  0  0  0  0  0
    5.5930    3.0690   -0.8790 C   0  0  0  0  0  0  0  0  0  0  0  0
    4.6850    2.3790   -0.0070 C   0  0  2  0  0  0  0  0  0  0  0  0
    5.1110    2.0270    1.3520 C   0  0  0  0  0  0  0  0  0  0  0  0
    6.0430    2.3430    2.0330 O   0  0  0  0  0  0  0  0  0  0  0  0
    3.9980    1.0580    1.7840 C   0  0  2  0  0  0  0  0  0  0  0  0
    4.5690    0.2160    2.8610 C   0  0  0  0  0  0  0  0  0  0  0  0
    4.1520    0.1780    4.0670 N   0  0  0  0  0  0  0  0  0  0  0  0
    2.8280    1.1260    4.6390 S   0  0  0  0  0  0  0  0  0  0  0  0
    1.6640    0.1910    4.9560 O   0  0  0  0  0  0  0  0  0  0  0  0
    3.8010    0.2970    0.5120 C   0  0  0  0  0  0  0  0  0  0  0  0
    4.2250    1.0580   -0.5130 C   0  0  0  0  0  0  0  0  0  0  0  0
   -3.0790    0.8270   -0.6430 C   0  0  0  0  0  0  0  0  0  0  0  0
   -2.4960    2.0380   -0.1430 O   0  0  0  0  0  0  0  0  0  0  0  0
   -2.0840    2.0330    1.1800 C   0  0  0  0  0  0  0  0  0  0  0  0
   -1.3820    0.9180    1.5860 C   0  0  0  0  0  0  0  0  0  0  0  0
   -0.9480    0.8570    2.8960 C   0  0  0  0  0  0  0  0  0  0  0  0
   -1.2110    1.8860    3.7760 C   0  0  0  0  0  0  0  0  0  0  0  0
   -1.9090    3.0000    3.3810 C   0  0  0  0  0  0  0  0  0  0  0  0
   -2.3440    3.0670    2.0770 C   0  0  0  0  0  0  0  0  0  0  0  0
   -3.0290    4.2770    1.8820 O   0  0  0  0  0  0  0  0  0  0  0  0
   -3.1770    4.8790    3.1350 C   0  0  0  0  0  0  0  0  0  0  0  0
   -2.3180    4.1610    4.0060 O   0  0  0  0  0  0  0  0  0  0  0  0
   -1.1070   -0.1440    0.5990 C   0  0  0  0  0  0  0  0  0  0  0  0
   -4.0580   -1.9490   -0.7680 C   0  0  0  0  0  0  0  0  0  0  0  0
   -4.9560   -2.9530   -0.3860 C   0  0  0  0  0  0  0  0  0  0  0  0
  1  2  1  0
  2  3  1  0
  3  4  2  0
  3 46  1  0
  4  5  1  0
  5  6  2  0
  6  7  1  0
  6 45  1  0
  7  8  1  6
  7 33  1  0
  7 44  1  0
  8  9  2  0
  8 10  1  0
 10 11  1  0
 11 12  1  6
 11 13  1  0
 13 14  2  0
 13 15  1  0
 15 16  1  0
 16 17  1  1
 16 19  1  0
 17 18  1  0
 19 20  2  0
 19 32  1  0
 20 21  1  0
 21 22  2  0
 23 22  1  6
 23 24  1  0
 23 32  1  0
 24 25  2  0
 24 26  1  0
 26 27  1  1
 26 31  1  0
 27 28  2  3
 28 29  1  0
 29 30  2  0
 31 32  2  0
 33 34  1  0
 34 35  1  0
 35 36  2  0
 35 40  1  0
 36 37  1  0
 36 44  1  0
 37 38  2  0
 38 39  1  0
 39 40  2  0
 39 43  1  0
 40 41  1  0
 41 42  1  0
 42 43  1  0
 45 46  2  0
M  END
