
     RDKit          3D

 46 49  0  0  0  0  0  0  0  0999 V2000
   -9.6210   -1.7080   -3.0040 C   0  0  0  0  0  0  0  0  0  0  0  0
  -10.9570   -1.0940   -2.6540 C   0  0  0  0  0  0  0  0  0  0  0  0
  -10.7940    0.0370   -1.6440 C   0  0  0  0  0  0  0  0  0  0  0  0
   -9.9140    1.1310   -2.1930 C   0  0  0  0  0  0  0  0  0  0  0  0
   -9.7700    2.2120   -1.2080 C   0  0  0  0  0  0  0  0  0  0  0  0
  -10.6140    3.2940   -1.2970 C   0  0  0  0  0  0  0  0  0  0  0  0
  -10.5920    4.3360   -0.4010 C   0  0  0  0  0  0  0  0  0  0  0  0
   -9.6990    4.3210    0.6350 C   0  0  0  0  0  0  0  0  0  0  0  0
   -8.8410    3.2140    0.7180 C   0  0  0  0  0  0  0  0  0  0  0  0
   -8.8460    2.1670   -0.1630 C   0  0  0  0  0  0  0  0  0  0  0  0
   -7.9010    1.0660   -0.0700 C   0  0  0  0  0  0  0  0  0  0  0  0
   -7.0270    1.1650    1.0650 N   0  0  0  0  0  0  0  0  0  0  0  0
   -5.9860    0.1460    1.2190 C   0  0  0  0  0  0  0  0  0  0  0  0
   -5.9190   -0.7460    0.3530 O   0  0  0  0  0  0  0  0  0  0  0  0
   -5.0920    0.1700    2.3030 N   0  0  0  0  0  0  0  0  0  0  0  0
   -4.0410   -0.7230    2.5590 C   0  0  0  0  0  0  0  0  0  0  0  0
   -3.4150   -0.6840    3.8050 C   0  0  0  0  0  0  0  0  0  0  0  0
   -2.3620   -1.5120    4.1130 C   0  0  0  0  0  0  0  0  0  0  0  0
   -1.8850   -2.4260    3.1720 C   0  0  0  0  0  0  0  0  0  0  0  0
   -2.4890   -2.4760    1.9420 C   0  0  0  0  0  0  0  0  0  0  0  0
   -1.9700   -3.4230    0.9260 C   0  0  0  0  0  0  0  0  0  0  0  0
   -1.0080   -2.8330   -0.0450 C   0  0  0  0  0  0  0  0  0  0  0  0
    0.1450   -2.3030    0.6290 N   0  0  0  0  0  0  0  0  0  0  0  0
    1.2110   -1.6670   -0.0990 C   0  0  0  0  0  0  0  0  0  0  0  0
    1.0700   -1.6090   -1.3430 O   0  0  0  0  0  0  0  0  0  0  0  0
    2.3820   -1.1230    0.5860 C   0  0  0  0  0  0  0  0  0  0  0  0
    2.7090   -1.4320    1.8870 C   0  0  0  0  0  0  0  0  0  0  0  0
    3.8170   -0.8820    2.5140 C   0  0  0  0  0  0  0  0  0  0  0  0
    4.5980   -0.0050    1.7980 C   0  0  0  0  0  0  0  0  0  0  0  0
    4.3210    0.3460    0.4850 C   0  0  0  0  0  0  0  0  0  0  0  0
    5.1770    1.3060   -0.2400 C   0  0  0  0  0  0  0  0  0  0  0  0
    6.3260    0.6370   -0.9370 C   0  0  1  0  0  0  0  0  0  0  0  0
    7.2320   -0.0970    0.0150 C   0  0  0  0  0  0  0  0  0  0  0  0
    8.5600   -0.2910   -0.6930 C   0  0  2  0  0  0  0  0  0  0  0  0
    9.4210    0.7850   -0.4240 O   0  0  0  0  0  0  0  0  0  0  0  0
   10.5500    0.3460    0.2540 C   0  0  2  0  0  0  0  0  0  0  0  0
   10.5710    1.0400    1.5980 C   0  0  0  0  0  0  0  0  0  0  0  0
   11.7670    0.6210   -0.5310 C   0  0  0  0  0  0  0  0  0  0  0  0
   12.8960    0.3000   -0.0980 O   0  0  0  0  0  0  0  0  0  0  0  0
   11.6720    1.2500   -1.7810 N   0  0  0  0  0  0  0  0  0  0  0  0
   12.8580    1.5380   -2.5850 C   0  0  0  0  0  0  0  0  0  0  0  0
    8.3020   -0.3970   -2.1680 C   0  0  0  0  0  0  0  0  0  0  0  0
    6.9370   -1.0060   -2.4250 C   0  0  0  0  0  0  0  0  0  0  0  0
    5.9130   -0.1660   -1.9820 O   0  0  0  0  0  0  0  0  0  0  0  0
    3.2020   -0.2340   -0.0900 C   0  0  0  0  0  0  0  0  0  0  0  0
   -3.5550   -1.6220    1.6660 C   0  0  0  0  0  0  0  0  0  0  0  0
  1  2  1  0
  2  3  1  0
  3  4  1  0
  4  5  1  0
  5  6  2  0
  5 10  1  0
  6  7  1  0
  7  8  2  0
  8  9  1  0
  9 10  2  0
 10 11  1  0
 11 12  1  0
 12 13  1  0
 13 14  2  0
 13 15  1  0
 15 16  1  0
 16 17  2  0
 16 46  1  0
 17 18  1  0
 18 19  2  0
 19 20  1  0
 20 21  1  0
 20 46  2  0
 21 22  1  0
 22 23  1  0
 23 24  1  0
 24 25  2  0
 24 26  1  0
 26 27  2  0
 26 45  1  0
 27 28  1  0
 28 29  2  0
 29 30  1  0
 30 31  1  0
 30 45  2  0
 32 31  1  1
 32 33  1  0
 32 44  1  0
 33 34  1  0
 34 35  1  6
 34 42  1  0
 35 36  1  0
 36 37  1  1
 36 38  1  0
 38 39  2  0
 38 40  1  0
 40 41  1  0
 42 43  1  0
 43 44  1  0
M  END
