
     RDKit          3D

 46 51  0  0  0  0  0  0  0  0999 V2000
   -8.1420    3.8290   -1.7270 C   0  0  0  0  0  0  0  0  0  0  0  0
   -7.0330    2.8000   -1.7770 C   0  0  0  0  0  0  0  0  0  0  0  0
   -7.0860    2.0110   -0.4900 C   0  0  2  0  0  0  0  0  0  0  0  0
   -6.9000    2.8930    0.6320 N   0  0  0  0  0  0  0  0  0  0  0  0
   -5.8140    2.9420    1.5270 C   0  0  0  0  0  0  0  0  0  0  0  0
   -6.1680    3.1880    2.7340 O   0  0  0  0  0  0  0  0  0  0  0  0
   -4.3990    2.7720    1.3460 C   0  0  0  0  0  0  0  0  0  0  0  0
   -3.9790    1.7420    0.2780 C   0  0  1  0  0  0  0  0  0  0  0  0
   -2.5840    1.3880    0.6350 C   0  0  0  0  0  0  0  0  0  0  0  0
   -1.8940    0.5350   -0.1390 O   0  0  0  0  0  0  0  0  0  0  0  0
   -1.6670    0.8140   -1.4360 C   0  0  0  0  0  0  0  0  0  0  0  0
   -0.8580   -0.3240   -2.0350 C   0  0  2  0  0  0  0  0  0  0  0  0
   -1.5370   -1.5000   -1.9330 O   0  0  0  0  0  0  0  0  0  0  0  0
   -0.8300   -2.6490   -1.7850 C   0  0  0  0  0  0  0  0  0  0  0  0
    0.5340   -2.6120   -2.4700 C   0  0  0  0  0  0  0  0  0  0  0  0
    1.2610   -1.5020   -1.8020 C   0  0  0  0  0  0  0  0  0  0  0  0
    2.5920   -1.5840   -1.4040 C   0  0  0  0  0  0  0  0  0  0  0  0
    3.1960   -0.5100   -0.7900 C   0  0  0  0  0  0  0  0  0  0  0  0
    4.5190   -0.6230   -0.4090 O   0  0  0  0  0  0  0  0  0  0  0  0
    4.8180   -1.0750    0.8520 C   0  0  0  0  0  0  0  0  0  0  0  0
    3.8840   -1.4310    1.7850 C   0  0  0  0  0  0  0  0  0  0  0  0
    4.2110   -1.8790    3.0380 C   0  0  0  0  0  0  0  0  0  0  0  0
    5.5270   -1.9880    3.4030 C   0  0  0  0  0  0  0  0  0  0  0  0
    6.4870   -1.6430    2.5020 C   0  0  0  0  0  0  0  0  0  0  0  0
    6.1720   -1.1790    1.2070 C   0  0  0  0  0  0  0  0  0  0  0  0
    7.0760   -0.8500    0.3430 O   0  0  0  0  0  0  0  0  0  0  0  0
    8.0110   -0.5320   -0.4910 C   0  0  0  0  0  0  0  0  0  0  0  0
    8.8770    0.5590    0.0130 C   0  0  0  0  0  0  0  0  0  0  0  0
    8.6800    1.3720    1.6220 S   0  0  0  0  0  0  0  0  0  0  0  0
   10.1020    2.5060    1.3990 C   0  0  0  0  0  0  0  0  0  0  0  0
   10.5640    2.1660    0.1760 C   0  0  0  0  0  0  0  0  0  0  0  0
    9.9650    1.1950   -0.5350 C   0  0  0  0  0  0  0  0  0  0  0  0
   10.4210    0.7440   -1.9450 C   0  0  0  0  0  0  0  0  0  0  0  0
    2.4570    0.6270   -0.5840 C   0  0  0  0  0  0  0  0  0  0  0  0
    1.1330    0.7630   -0.9580 C   0  0  0  0  0  0  0  0  0  0  0  0
    0.5480   -0.3440   -1.5790 C   0  0  0  0  0  0  0  0  0  0  0  0
   -4.9360    0.6840    0.1860 N   0  0  0  0  0  0  0  0  0  0  0  0
   -4.6760   -0.5960    0.7540 C   0  0  0  0  0  0  0  0  0  0  0  0
   -3.5530   -0.8530    1.2940 O   0  0  0  0  0  0  0  0  0  0  0  0
   -5.6250   -1.7290    0.7930 C   0  0  2  0  0  0  0  0  0  0  0  0
   -5.5700   -2.6570    1.9820 C   0  0  0  0  0  0  0  0  0  0  0  0
   -5.1980   -3.1370    0.5880 C   0  0  2  0  0  0  0  0  0  0  0  0
   -3.8110   -3.5890    0.3240 C   0  0  0  0  0  0  0  0  0  0  0  0
   -2.8800   -3.3100    1.3040 O   0  0  0  0  0  0  0  0  0  0  0  0
   -6.1990    0.8400   -0.5020 C   0  0  0  0  0  0  0  0  0  0  0  0
   -6.5530   -0.1580   -1.1850 O   0  0  0  0  0  0  0  0  0  0  0  0
  1  2  1  0
  3  2  1  6
  3  4  1  0
  3 45  1  0
  4  5  1  0
  5  6  2  0
  5  7  1  0
  7  8  1  0
  8  9  1  1
  8 37  1  0
  9 10  1  0
 10 11  1  0
 12 11  1  1
 12 13  1  0
 12 36  1  0
 13 14  1  0
 14 15  1  0
 15 16  1  0
 16 17  2  0
 16 36  1  0
 17 18  1  0
 18 19  1  0
 18 34  2  0
 19 20  1  0
 20 21  2  0
 20 25  1  0
 21 22  1  0
 22 23  2  0
 23 24  1  0
 24 25  2  0
 25 26  1  0
 26 27  1  0
 27 28  1  0
 28 29  1  0
 28 32  2  0
 29 30  1  0
 30 31  2  0
 31 32  1  0
 32 33  1  0
 34 35  1  0
 35 36  2  0
 37 38  1  0
 37 45  1  0
 38 39  2  0
 40 38  1  1
 40 41  1  0
 40 42  1  0
 41 42  1  0
 42 43  1  1
 43 44  1  0
 45 46  2  0
M  END
