
     RDKit          3D

 46 51  0  0  0  0  0  0  0  0999 V2000
    2.7650   -5.0220    1.6050 C   0  0  0  0  0  0  0  0  0  0  0  0
    2.9900   -4.3690    0.3350 N   0  0  0  0  0  0  0  0  0  0  0  0
    3.0020   -2.9630    0.2660 C   0  0  0  0  0  0  0  0  0  0  0  0
    3.2780   -2.4730   -0.8890 O   0  0  0  0  0  0  0  0  0  0  0  0
    2.7350   -2.0340    1.3610 C   0  0  2  0  0  0  0  0  0  0  0  0
    1.3890   -2.1910    2.0210 C   0  0  0  0  0  0  0  0  0  0  0  0
    0.2170   -2.0100    1.0880 C   0  0  1  0  0  0  0  0  0  0  0  0
   -1.0490   -2.1980    1.8590 C   0  0  0  0  0  0  0  0  0  0  0  0
   -1.6850   -0.8810    2.2410 C   0  0  0  0  0  0  0  0  0  0  0  0
   -1.9280   -0.0630    0.9720 C   0  0  0  0  0  0  0  0  0  0  0  0
   -0.9480   -0.0120    0.1360 C   0  0  0  0  0  0  0  0  0  0  0  0
    0.2270   -0.7270    0.5150 O   0  0  0  0  0  0  0  0  0  0  0  0
   -1.1530    0.7570   -1.0740 C   0  0  0  0  0  0  0  0  0  0  0  0
   -0.5500    0.8290   -2.1650 O   0  0  0  0  0  0  0  0  0  0  0  0
   -2.6150    1.7260   -0.7070 S   0  0  0  0  0  0  0  0  0  0  0  0
   -3.1730    0.6510    0.6490 C   0  0  1  0  0  0  0  0  0  0  0  0
   -4.1810   -0.3580    0.1780 C   0  0  0  0  0  0  0  0  0  0  0  0
   -5.4810    0.2130   -0.1760 C   0  0  0  0  0  0  0  0  0  0  0  0
   -6.3700   -0.6000   -0.5800 O   0  0  0  0  0  0  0  0  0  0  0  0
   -5.8450    1.5340   -0.1170 O   0  0  0  0  0  0  0  0  0  0  0  0
   -7.1190    2.0210   -0.4710 C   0  0  2  0  0  0  0  0  0  0  0  0
   -8.2170    1.4260    0.3630 C   0  0  0  0  0  0  0  0  0  0  0  0
   -7.4470    1.8310   -1.9390 C   0  0  0  0  0  0  0  0  0  0  0  0
   -8.5130    2.9220   -2.1070 C   0  0  0  0  0  0  0  0  0  0  0  0
   -8.2550    3.8940   -1.1870 O   0  0  0  0  0  0  0  0  0  0  0  0
   -7.2070    3.5230   -0.3750 C   0  0  0  0  0  0  0  0  0  0  0  0
    2.9190   -0.6450    0.9320 N   0  0  0  0  0  0  0  0  0  0  0  0
    3.8070    0.1770    1.6650 C   0  0  0  0  0  0  0  0  0  0  0  0
    4.4290   -0.2850    2.6740 O   0  0  0  0  0  0  0  0  0  0  0  0
    4.0630    1.5830    1.3170 C   0  0  0  0  0  0  0  0  0  0  0  0
    4.7650    2.4140    2.1660 C   0  0  0  0  0  0  0  0  0  0  0  0
    5.0300    3.7370    1.8750 C   0  0  0  0  0  0  0  0  0  0  0  0
    4.5760    4.2760    0.6720 C   0  0  0  0  0  0  0  0  0  0  0  0
    3.8780    3.4600   -0.1820 C   0  0  0  0  0  0  0  0  0  0  0  0
    3.6170    2.1200    0.1290 C   0  0  0  0  0  0  0  0  0  0  0  0
    3.4200    4.0340   -1.4420 C   0  0  0  0  0  0  0  0  0  0  0  0
    2.3460    3.6070   -1.9530 O   0  0  0  0  0  0  0  0  0  0  0  0
    4.2620    5.0960   -2.0440 C   0  0  0  0  0  0  0  0  0  0  0  0
    4.7330    6.0970   -1.0550 C   0  0  0  0  0  0  0  0  0  0  0  0
    4.8340    5.6720    0.3580 C   0  0  0  0  0  0  0  0  0  0  0  0
    3.2100   -5.2030   -0.8030 C   0  0  0  0  0  0  0  0  0  0  0  0
    2.4340   -5.0940   -1.9350 C   0  0  0  0  0  0  0  0  0  0  0  0
    2.6540   -5.9080   -3.0370 C   0  0  0  0  0  0  0  0  0  0  0  0
    3.6670   -6.8490   -3.0130 C   0  0  0  0  0  0  0  0  0  0  0  0
    4.4570   -6.9700   -1.8800 C   0  0  0  0  0  0  0  0  0  0  0  0
    4.2140   -6.1370   -0.7820 C   0  0  0  0  0  0  0  0  0  0  0  0
  1  2  1  0
  2  3  1  0
  2 41  1  0
  3  4  2  0
  3  5  1  0
  5  6  1  6
  5 27  1  0
  7  6  1  1
  7  8  1  0
  7 12  1  0
  8  9  1  0
  9 10  1  0
 10 11  2  0
 10 16  1  0
 11 12  1  0
 11 13  1  0
 13 14  2  0
 13 15  1  0
 15 16  1  0
 16 17  1  6
 17 18  1  0
 18 19  2  0
 18 20  1  0
 20 21  1  0
 21 22  1  1
 21 23  1  0
 21 26  1  0
 23 24  1  0
 24 25  1  0
 25 26  1  0
 27 28  1  0
 28 29  2  0
 28 30  1  0
 30 31  2  0
 30 35  1  0
 31 32  1  0
 32 33  2  0
 33 34  1  0
 33 40  1  0
 34 35  2  0
 34 36  1  0
 36 37  2  0
 36 38  1  0
 38 39  1  0
 39 40  1  0
 41 42  2  0
 41 46  1  0
 42 43  1  0
 43 44  2  0
 44 45  1  0
 45 46  2  0
M  END
