
     RDKit          3D

 46 51  0  0  0  0  0  0  0  0999 V2000
   -4.7150   -1.7670   -4.6900 C   0  0  0  0  0  0  0  0  0  0  0  0
   -5.5210   -0.5750   -4.2380 C   0  0  0  0  0  0  0  0  0  0  0  0
   -5.2990   -0.3280   -2.8950 O   0  0  0  0  0  0  0  0  0  0  0  0
   -4.0970    0.0070   -2.3390 C   0  0  0  0  0  0  0  0  0  0  0  0
   -2.9830    0.1390   -3.1360 C   0  0  0  0  0  0  0  0  0  0  0  0
   -1.7750    0.4730   -2.6010 C   0  0  0  0  0  0  0  0  0  0  0  0
   -1.6750    0.6820   -1.2260 C   0  0  0  0  0  0  0  0  0  0  0  0
   -0.4150    1.0470   -0.6080 C   0  0  0  0  0  0  0  0  0  0  0  0
   -0.3610    1.1720    0.6670 O   0  0  0  0  0  0  0  0  0  0  0  0
    0.7450    1.2720   -1.3030 O   0  0  0  0  0  0  0  0  0  0  0  0
    1.9180    1.6170   -0.5780 C   0  0  2  0  0  0  0  0  0  0  0  0
    2.3720    3.0250   -0.9570 C   0  0  0  0  0  0  0  0  0  0  0  0
    3.0350    0.7200   -0.9450 C   0  0  0  0  0  0  0  0  0  0  0  0
    2.8920   -0.0940   -1.8800 O   0  0  0  0  0  0  0  0  0  0  0  0
    4.2760    0.7700   -0.2450 N   0  0  0  0  0  0  0  0  0  0  0  0
    5.3860   -0.0880   -0.5970 C   0  0  2  0  0  0  0  0  0  0  0  0
    5.5650   -1.2470    0.3040 C   0  0  0  0  0  0  0  0  0  0  0  0
    4.7360   -2.3320    0.5820 C   0  0  0  0  0  0  0  0  0  0  0  0
    5.1270   -3.3320    1.4590 C   0  0  0  0  0  0  0  0  0  0  0  0
    6.3890   -3.2260    2.0680 C   0  0  0  0  0  0  0  0  0  0  0  0
    7.2050   -2.1620    1.7980 C   0  0  0  0  0  0  0  0  0  0  0  0
    6.7790   -1.2080    0.9310 C   0  0  0  0  0  0  0  0  0  0  0  0
    7.5400   -0.0030    0.5130 C   0  0  2  0  0  0  0  0  0  0  0  0
    7.8780    0.7910    1.7050 C   0  0  2  0  0  0  0  0  0  0  0  0
    8.9070    1.8910    1.5200 C   0  0  0  0  0  0  0  0  0  0  0  0
    9.1500    2.5870    2.8760 C   0  0  0  0  0  0  0  0  0  0  0  0
    8.5960   -0.2940    2.9870 S   0  0  0  0  0  0  0  0  0  0  0  0
    8.5200   -2.0310    2.4420 C   0  0  0  0  0  0  0  0  0  0  0  0
    6.7210    0.5650   -0.5630 C   0  0  2  0  0  0  0  0  0  0  0  0
    6.6410    2.0600   -0.6850 C   0  0  0  0  0  0  0  0  0  0  0  0
   -2.7960    0.5430   -0.4710 C   0  0  0  0  0  0  0  0  0  0  0  0
   -4.0460    0.2040   -0.9810 C   0  0  0  0  0  0  0  0  0  0  0  0
   -5.1530    0.1060   -0.0390 C   0  0  0  0  0  0  0  0  0  0  0  0
   -4.9030    0.3320    1.1940 O   0  0  0  0  0  0  0  0  0  0  0  0
   -6.4850   -0.2120   -0.3460 N   0  0  0  0  0  0  0  0  0  0  0  0
   -7.5040   -0.2590    0.6640 C   0  0  0  0  0  0  0  0  0  0  0  0
   -8.5880   -1.1240    0.4470 C   0  0  0  0  0  0  0  0  0  0  0  0
   -9.6060   -1.2090    1.3650 C   0  0  0  0  0  0  0  0  0  0  0  0
  -10.6960   -2.0460    1.2000 O   0  0  0  0  0  0  0  0  0  0  0  0
  -10.8660   -2.8900    0.0880 C   0  0  0  0  0  0  0  0  0  0  0  0
   -9.5990   -0.4400    2.5420 C   0  0  0  0  0  0  0  0  0  0  0  0
   -8.5340    0.4000    2.7360 C   0  0  0  0  0  0  0  0  0  0  0  0
   -7.4970    0.4780    1.7890 C   0  0  0  0  0  0  0  0  0  0  0  0
   -8.7420    1.0470    3.9450 O   0  0  0  0  0  0  0  0  0  0  0  0
  -10.0790    0.8580    4.3560 C   0  0  0  0  0  0  0  0  0  0  0  0
  -10.4470   -0.3170    3.6050 O   0  0  0  0  0  0  0  0  0  0  0  0
  1  2  1  0
  2  3  1  0
  3  4  1  0
  4  5  2  0
  4 32  1  0
  5  6  1  0
  6  7  2  0
  7  8  1  0
  7 31  1  0
  8  9  2  0
  8 10  1  0
 10 11  1  0
 11 12  1  6
 11 13  1  0
 13 14  2  0
 13 15  1  0
 16 15  1  1
 16 17  1  0
 16 29  1  0
 17 18  2  0
 17 22  1  0
 18 19  1  0
 19 20  2  0
 20 21  1  0
 21 22  2  0
 21 28  1  0
 23 22  1  1
 23 24  1  0
 23 29  1  0
 24 25  1  6
 24 27  1  0
 25 26  1  0
 27 28  1  0
 29 30  1  1
 31 32  2  0
 32 33  1  0
 33 34  2  0
 33 35  1  0
 35 36  1  0
 36 37  2  0
 36 43  1  0
 37 38  1  0
 38 39  1  0
 38 41  2  0
 39 40  1  0
 41 42  1  0
 41 46  1  0
 42 43  2  0
 42 44  1  0
 44 45  1  0
 45 46  1  0
M  END
