
     RDKit          3D

 31 33  0  0  0  0  0  0  0  0999 V2000
    1.4440   -2.4360    2.2950 C   0  0  0  0  0  0  0  0  0  0  0  0
    1.8410   -1.4590    1.2620 C   0  0  0  0  0  0  0  0  0  0  0  0
    0.9010   -0.6170    0.8340 C   0  0  0  0  0  0  0  0  0  0  0  0
   -0.4670   -0.6180    1.3300 C   0  0  0  0  0  0  0  0  0  0  0  0
   -0.9090   -1.4010    2.2030 O   0  0  0  0  0  0  0  0  0  0  0  0
   -1.4300    0.3230    0.8220 N   0  0  0  0  0  0  0  0  0  0  0  0
   -2.7890    0.3610    1.2790 C   0  0  1  0  0  0  0  0  0  0  0  0
   -3.0160    1.6700    1.9350 C   0  0  0  0  0  0  0  0  0  0  0  0
   -2.6220    1.9540    3.0830 O   0  0  0  0  0  0  0  0  0  0  0  0
   -3.7360    2.5280    1.0700 N   0  0  0  0  0  0  0  0  0  0  0  0
   -4.2110    1.7230    0.0000 C   0  0  0  0  0  0  0  0  0  0  0  0
   -4.9420    2.1900   -1.0240 C   0  0  0  0  0  0  0  0  0  0  0  0
   -5.2430    3.6400   -0.9860 C   0  0  0  0  0  0  0  0  0  0  0  0
   -5.4800    1.4630   -2.1650 C   0  0  0  0  0  0  0  0  0  0  0  0
   -5.5570    0.1600   -2.3700 C   0  0  0  0  0  0  0  0  0  0  0  0
   -6.2750   -0.3780   -3.8750 Cl  0  0  0  0  0  0  0  0  0  0  0  0
   -5.1040   -0.8560   -1.4670 N   0  0  0  0  0  0  0  0  0  0  0  0
   -4.1430   -0.7790   -0.4100 C   0  0  0  0  0  0  0  0  0  0  0  0
   -3.5370   -2.0570   -0.0010 C   0  0  0  0  0  0  0  0  0  0  0  0
   -3.7790    0.3440    0.2020 C   0  0  0  0  0  0  0  0  0  0  0  0
    3.1890   -1.4080    0.7270 C   0  0  0  0  0  0  0  0  0  0  0  0
    4.2210   -2.2300    1.0980 C   0  0  0  0  0  0  0  0  0  0  0  0
    5.4840   -2.1340    0.5550 C   0  0  0  0  0  0  0  0  0  0  0  0
    5.7180   -1.1770   -0.3980 C   0  0  0  0  0  0  0  0  0  0  0  0
    6.9840   -1.0750   -0.9480 O   0  0  0  0  0  0  0  0  0  0  0  0
    7.2350   -0.0900   -1.9300 C   0  0  0  0  0  0  0  0  0  0  0  0
    6.9810    1.2630   -1.3870 C   0  0  0  0  0  0  0  0  0  0  0  0
    6.5470    1.4950   -0.0560 N   0  0  0  0  0  0  0  0  0  0  0  0
    7.1630    2.2530   -2.1550 O   0  0  0  0  0  0  0  0  0  0  0  0
    4.6900   -0.3600   -0.7660 N   0  0  0  0  0  0  0  0  0  0  0  0
    3.4940   -0.4810   -0.2240 N   0  0  0  0  0  0  0  0  0  0  0  0
  1  2  1  0
  2  3  2  3
  2 21  1  0
  3  4  1  0
  4  5  2  0
  4  6  1  0
  7  6  1  6
  7  8  1  0
  7 20  1  0
  8  9  2  0
  8 10  1  0
 10 11  1  0
 11 12  2  0
 11 20  1  0
 12 13  1  0
 12 14  1  0
 14 15  2  0
 15 16  1  0
 15 17  1  0
 17 18  1  0
 18 19  1  0
 18 20  2  0
 21 22  2  0
 21 31  1  0
 22 23  1  0
 23 24  2  0
 24 25  1  0
 24 30  1  0
 25 26  1  0
 26 27  1  0
 27 28  1  0
 27 29  2  0
 30 31  2  0
M  END
