
     RDKit          3D

 31 33  0  0  0  0  0  0  0  0999 V2000
    9.1820   -1.9410   -1.2950 N   0  0  0  0  0  0  0  0  0  0  0  0
    8.0350   -1.6080   -0.4730 C   0  0  0  0  0  0  0  0  0  0  0  0
    7.4200   -2.5770    0.0160 O   0  0  0  0  0  0  0  0  0  0  0  0
    7.7250   -0.2060   -0.3060 C   0  0  0  0  0  0  0  0  0  0  0  0
    8.4880    0.8010   -0.8450 N   0  0  0  0  0  0  0  0  0  0  0  0
    8.0090    1.9610   -0.5490 N   0  0  0  0  0  0  0  0  0  0  0  0
    6.8940    1.7590    0.2100 C   0  0  0  0  0  0  0  0  0  0  0  0
    5.8850    3.0310    0.8400 Cl  0  0  0  0  0  0  0  0  0  0  0  0
    6.6820    0.3920    0.3850 C   0  0  0  0  0  0  0  0  0  0  0  0
    5.6320   -0.3040    1.0710 C   0  0  0  0  0  0  0  0  0  0  0  0
    5.4320   -1.5290    0.9210 O   0  0  0  0  0  0  0  0  0  0  0  0
    4.7320    0.3440    1.9830 N   0  0  0  0  0  0  0  0  0  0  0  0
    3.7320   -0.3410    2.6240 N   0  0  0  0  0  0  0  0  0  0  0  0
    2.5320   -0.4080    2.3900 C   0  0  0  0  0  0  0  0  0  0  0  0
    1.7830    0.2310    1.3400 C   0  0  0  0  0  0  0  0  0  0  0  0
    2.3230    1.0540    0.3920 C   0  0  0  0  0  0  0  0  0  0  0  0
    1.4900    1.6080   -0.5670 C   0  0  0  0  0  0  0  0  0  0  0  0
    0.1680    1.3600   -0.5930 N   0  0  0  0  0  0  0  0  0  0  0  0
   -0.4010    0.5580    0.3190 C   0  0  0  0  0  0  0  0  0  0  0  0
   -1.7760    0.2860    0.3120 O   0  0  0  0  0  0  0  0  0  0  0  0
   -2.6180    0.8410   -0.6530 C   0  0  2  0  0  0  0  0  0  0  0  0
   -3.6840    1.6590    0.1010 C   0  0  0  0  0  0  0  0  0  0  0  0
   -4.1070    0.7380    1.2140 C   0  0  0  0  0  0  0  0  0  0  0  0
   -4.3860   -0.6540    0.8440 C   0  0  0  0  0  0  0  0  0  0  0  0
   -4.1350   -1.1370   -0.5200 C   0  0  1  0  0  0  0  0  0  0  0  0
   -5.2920   -1.7700   -1.1550 C   0  0  0  0  0  0  0  0  0  0  0  0
   -6.5520   -1.1560   -1.4940 C   0  0  0  0  0  0  0  0  0  0  0  0
   -7.4630   -0.5040   -0.5470 C   0  0  0  0  0  0  0  0  0  0  0  0
   -7.0670    0.6210    0.1100 O   0  0  0  0  0  0  0  0  0  0  0  0
   -3.4190   -0.1560   -1.4270 C   0  0  0  0  0  0  0  0  0  0  0  0
    0.3880   -0.0090    1.2840 C   0  0  0  0  0  0  0  0  0  0  0  0
  1  2  1  0
  2  3  2  0
  2  4  1  0
  4  5  2  0
  4  9  1  0
  5  6  1  0
  6  7  1  0
  7  8  1  0
  7  9  2  0
  9 10  1  0
 10 11  2  0
 10 12  1  0
 12 13  1  0
 13 14  2  3
 14 15  1  0
 15 16  2  0
 15 31  1  0
 16 17  1  0
 17 18  2  0
 18 19  1  0
 19 20  1  0
 19 31  2  0
 21 20  1  1
 21 22  1  0
 21 30  1  0
 22 23  1  0
 23 24  1  0
 24 25  1  0
 25 26  1  6
 25 30  1  0
 26 27  1  0
 27 28  1  0
 28 29  1  0
M  END
