
     RDKit          3D

 31 33  0  0  0  0  0  0  0  0999 V2000
   -3.9210   -3.7490   -1.7020 C   0  0  0  0  0  0  0  0  0  0  0  0
   -2.7350   -2.7910   -1.5710 C   0  0  0  0  0  0  0  0  0  0  0  0
   -1.9890   -3.0760   -0.4530 O   0  0  0  0  0  0  0  0  0  0  0  0
   -0.9100   -2.2540   -0.2910 C   0  0  0  0  0  0  0  0  0  0  0  0
   -1.2420   -0.8350   -0.0330 C   0  0  0  0  0  0  0  0  0  0  0  0
   -2.5000   -0.3900    0.0730 N   0  0  0  0  0  0  0  0  0  0  0  0
   -2.8460    0.8740    0.3220 C   0  0  0  0  0  0  0  0  0  0  0  0
   -4.1830    1.3390    0.4330 N   0  0  0  0  0  0  0  0  0  0  0  0
   -5.2440    0.3740    0.2640 C   0  0  1  0  0  0  0  0  0  0  0  0
   -5.1710   -0.6940    1.2440 N   0  0  0  0  0  0  0  0  0  0  0  0
   -6.5470   -1.2140    1.1550 C   0  0  1  0  0  0  0  0  0  0  0  0
   -6.9980   -2.1280    2.5880 Cl  0  0  0  0  0  0  0  0  0  0  0  0
   -7.3010   -0.0020    1.0030 N   0  0  0  0  0  0  0  0  0  0  0  0
   -6.5830    0.9260    0.4950 C   0  0  0  0  0  0  0  0  0  0  0  0
   -7.0690    2.3130    0.2080 C   0  0  0  0  0  0  0  0  0  0  0  0
   -1.8080    1.7660    0.4770 C   0  0  0  0  0  0  0  0  0  0  0  0
   -0.4660    1.3570    0.3770 C   0  0  0  0  0  0  0  0  0  0  0  0
   -0.1560    0.0660    0.1240 C   0  0  0  0  0  0  0  0  0  0  0  0
    1.1360   -0.4300    0.0170 N   0  0  0  0  0  0  0  0  0  0  0  0
    2.3380    0.3010    0.1180 C   0  0  0  0  0  0  0  0  0  0  0  0
    2.2810    1.5300    0.3260 O   0  0  0  0  0  0  0  0  0  0  0  0
    3.6150   -0.3620   -0.0160 N   0  0  0  0  0  0  0  0  0  0  0  0
    4.8510    0.3000    0.0790 C   0  0  0  0  0  0  0  0  0  0  0  0
    5.9840   -0.4290   -0.3280 C   0  0  0  0  0  0  0  0  0  0  0  0
    7.2520    0.0890   -0.2770 C   0  0  0  0  0  0  0  0  0  0  0  0
    7.4400    1.3610    0.1850 C   0  0  0  0  0  0  0  0  0  0  0  0
    8.7220    1.8710    0.2320 O   0  0  0  0  0  0  0  0  0  0  0  0
    9.8540    1.1610   -0.1680 C   0  0  0  0  0  0  0  0  0  0  0  0
    6.3430    2.0890    0.5880 C   0  0  0  0  0  0  0  0  0  0  0  0
    6.5250    3.3800    1.0590 O   0  0  0  0  0  0  0  0  0  0  0  0
    5.0600    1.5730    0.5400 C   0  0  0  0  0  0  0  0  0  0  0  0
  1  2  1  0
  2  3  1  0
  3  4  1  0
  4  5  1  0
  5  6  2  0
  5 18  1  0
  6  7  1  0
  7  8  1  0
  7 16  2  0
  9  8  1  1
  9 10  1  0
  9 14  1  0
 10 11  1  0
 11 12  1  1
 11 13  1  0
 13 14  2  0
 14 15  1  0
 16 17  1  0
 17 18  2  0
 18 19  1  0
 19 20  1  0
 20 21  2  0
 20 22  1  0
 22 23  1  0
 23 24  2  0
 23 31  1  0
 24 25  1  0
 25 26  2  0
 26 27  1  0
 26 29  1  0
 27 28  1  0
 29 30  1  0
 29 31  2  0
M  END
