
     RDKit          3D

 30 32  0  0  0  0  0  0  0  0999 V2000
   -0.3020   -4.1850    2.3680 C   0  0  0  0  0  0  0  0  0  0  0  0
   -1.6490   -4.2890    1.7530 C   0  0  0  0  0  0  0  0  0  0  0  0
   -2.2510   -3.0630    1.2320 C   0  0  0  0  0  0  0  0  0  0  0  0
   -1.7470   -2.3660    0.0310 C   0  0  1  0  0  0  0  0  0  0  0  0
   -2.6090   -1.1600   -0.1420 N   0  0  0  0  0  0  0  0  0  0  0  0
   -2.1300    0.1420   -0.2110 C   0  0  0  0  0  0  0  0  0  0  0  0
   -2.9980    1.3400   -0.2780 C   0  0  1  0  0  0  0  0  0  0  0  0
   -3.9040    1.3500   -1.4760 C   0  0  0  0  0  0  0  0  0  0  0  0
   -5.0930    2.1140   -1.1220 N   0  0  0  0  0  0  0  0  0  0  0  0
   -6.0560    1.3520   -0.3930 C   0  0  0  0  0  0  0  0  0  0  0  0
   -4.6760    3.2680   -0.3340 C   0  0  0  0  0  0  0  0  0  0  0  0
   -4.0440    2.8600    0.9770 C   0  0  0  0  0  0  0  0  0  0  0  0
   -3.7490    1.4990    0.8930 O   0  0  0  0  0  0  0  0  0  0  0  0
   -0.8430    0.3330   -0.2170 N   0  0  0  0  0  0  0  0  0  0  0  0
    0.0810   -0.7350   -0.1430 C   0  0  0  0  0  0  0  0  0  0  0  0
    1.5080   -0.4510   -0.2070 C   0  0  0  0  0  0  0  0  0  0  0  0
    2.3640   -1.3520   -0.1740 O   0  0  0  0  0  0  0  0  0  0  0  0
    1.9970    0.8850   -0.3100 N   0  0  0  0  0  0  0  0  0  0  0  0
    3.3070    1.3500   -0.3820 C   0  0  0  0  0  0  0  0  0  0  0  0
    4.3980    0.5320   -0.3620 C   0  0  0  0  0  0  0  0  0  0  0  0
    5.6840    1.0980   -0.4400 C   0  0  0  0  0  0  0  0  0  0  0  0
    6.7560    0.2260   -0.4160 O   0  0  0  0  0  0  0  0  0  0  0  0
    6.5890   -1.1730   -0.3180 C   0  0  0  0  0  0  0  0  0  0  0  0
    5.8740    2.4470   -0.5350 C   0  0  0  0  0  0  0  0  0  0  0  0
    7.1840    3.0270   -0.6150 N   0  0  0  0  0  0  0  0  0  0  0  0
    4.7560    3.2480   -0.5530 C   0  0  0  0  0  0  0  0  0  0  0  0
    3.5170    2.7060   -0.4790 C   0  0  0  0  0  0  0  0  0  0  0  0
    2.1200    3.7970   -0.5070 Cl  0  0  0  0  0  0  0  0  0  0  0  0
   -0.3490   -1.9800   -0.0390 C   0  0  0  0  0  0  0  0  0  0  0  0
    0.5970   -3.0740   -0.1270 N   0  0  0  0  0  0  0  0  0  0  0  0
  1  2  1  0
  2  3  1  0
  4  3  1  1
  4  5  1  0
  4 29  1  0
  5  6  1  0
  7  6  1  1
  6 14  2  0
  7  8  1  0
  7 13  1  0
  8  9  1  0
  9 10  1  0
  9 11  1  0
 11 12  1  0
 12 13  1  0
 14 15  1  0
 15 16  1  0
 15 29  2  0
 16 17  2  0
 16 18  1  0
 18 19  1  0
 19 20  2  0
 19 27  1  0
 20 21  1  0
 21 22  1  0
 21 24  2  0
 22 23  1  0
 24 25  1  0
 24 26  1  0
 26 27  2  0
 27 28  1  0
 29 30  1  0
M  END
