
     RDKit          3D

 31 33  0  0  0  0  0  0  0  0999 V2000
   -4.9230    2.0250   -3.0960 C   0  0  0  0  0  0  0  0  0  0  0  0
   -5.6720    1.1890   -2.1250 C   0  0  0  0  0  0  0  0  0  0  0  0
   -5.1400    0.6000   -1.0800 C   0  0  0  0  0  0  0  0  0  0  0  0
   -6.0040   -0.2080   -0.1900 C   0  0  0  0  0  0  0  0  0  0  0  0
   -5.9430    0.3600    1.0900 O   0  0  0  0  0  0  0  0  0  0  0  0
   -3.7260    0.7350   -0.7910 C   0  0  0  0  0  0  0  0  0  0  0  0
   -2.9180    1.4630   -1.5780 N   0  0  0  0  0  0  0  0  0  0  0  0
   -1.6010    1.6250   -1.3580 C   0  0  0  0  0  0  0  0  0  0  0  0
   -0.7520    2.4440   -2.2640 C   0  0  0  0  0  0  0  0  0  0  0  0
   -1.0080    1.0220   -0.2690 C   0  0  0  0  0  0  0  0  0  0  0  0
    0.3810    1.1840   -0.0210 N   0  0  0  0  0  0  0  0  0  0  0  0
    1.3920    0.3240   -0.5320 C   0  0  0  0  0  0  0  0  0  0  0  0
    1.0320   -0.6380   -1.2470 O   0  0  0  0  0  0  0  0  0  0  0  0
    2.7830    0.5640   -0.2290 N   0  0  0  0  0  0  0  0  0  0  0  0
    3.7710   -0.2770   -0.7300 N   0  0  0  0  0  0  0  0  0  0  0  0
    4.8830   -0.6210    0.1230 C   0  0  0  0  0  0  0  0  0  0  0  0
    4.9000   -0.1380    1.2820 O   0  0  0  0  0  0  0  0  0  0  0  0
    5.9610   -1.4990   -0.3300 C   0  0  1  0  0  0  0  0  0  0  0  0
    6.7280   -0.8780   -1.4810 C   0  0  0  0  0  0  0  0  0  0  0  0
    7.9780   -0.3320   -0.8280 C   0  0  0  0  0  0  0  0  0  0  0  0
    7.7510   -0.5850    0.6230 C   0  0  0  0  0  0  0  0  0  0  0  0
    6.8920   -1.6500    0.6980 O   0  0  0  0  0  0  0  0  0  0  0  0
   -1.8310    0.2730    0.5430 C   0  0  0  0  0  0  0  0  0  0  0  0
   -1.2390   -0.3610    1.6770 N   0  0  0  0  0  0  0  0  0  0  0  0
   -2.0190   -1.1560    2.5700 C   0  0  0  0  0  0  0  0  0  0  0  0
   -2.3770   -2.4010    2.3270 C   0  0  0  0  0  0  0  0  0  0  0  0
   -3.1790   -2.9250    3.4640 C   0  0  0  0  0  0  0  0  0  0  0  0
   -3.2280   -1.7940    4.3940 C   0  0  0  0  0  0  0  0  0  0  0  0
   -2.5540   -0.7800    3.8650 C   0  0  0  0  0  0  0  0  0  0  0  0
   -2.3560    0.7760    4.6430 Cl  0  0  0  0  0  0  0  0  0  0  0  0
   -3.1570    0.1360    0.2840 N   0  0  0  0  0  0  0  0  0  0  0  0
  1  2  1  0
  2  3  2  3
  3  4  1  0
  3  6  1  0
  4  5  1  0
  6  7  2  0
  6 31  1  0
  7  8  1  0
  8  9  1  0
  8 10  2  0
 10 11  1  0
 10 23  1  0
 11 12  1  0
 12 13  2  0
 12 14  1  0
 14 15  1  0
 15 16  1  0
 16 17  2  0
 18 16  1  1
 18 19  1  0
 18 22  1  0
 19 20  1  0
 20 21  1  0
 21 22  1  0
 23 24  1  0
 23 31  2  0
 24 25  1  0
 25 26  2  0
 25 29  1  0
 26 27  1  0
 27 28  1  0
 28 29  2  0
 29 30  1  0
M  END
