
     RDKit          3D

 31 33  0  0  0  0  0  0  0  0999 V2000
   -3.9760   -2.3350   -3.6020 C   0  0  0  0  0  0  0  0  0  0  0  0
   -4.2150   -2.8350   -2.2110 C   0  0  0  0  0  0  0  0  0  0  0  0
   -3.2300   -2.3590   -1.2520 N   0  0  0  0  0  0  0  0  0  0  0  0
   -3.0600   -0.9920   -1.0140 C   0  0  0  0  0  0  0  0  0  0  0  0
   -3.8070   -0.2080   -1.6780 O   0  0  0  0  0  0  0  0  0  0  0  0
   -2.0880   -0.4000   -0.0580 C   0  0  0  0  0  0  0  0  0  0  0  0
   -1.2820   -1.1590    0.6640 C   0  0  0  0  0  0  0  0  0  0  0  0
   -0.3900   -0.6390    1.5340 N   0  0  0  0  0  0  0  0  0  0  0  0
    0.8830   -0.5420    1.7070 C   0  0  0  0  0  0  0  0  0  0  0  0
    1.3470    0.1510    2.8610 N   0  0  0  0  0  0  0  0  0  0  0  0
    2.7180    0.3200    3.1450 C   0  0  0  0  0  0  0  0  0  0  0  0
    3.6330   -0.1800    2.3150 C   0  0  0  0  0  0  0  0  0  0  0  0
    3.1610   -0.8840    1.1450 C   0  0  0  0  0  0  0  0  0  0  0  0
    4.2010   -1.3860    0.3150 O   0  0  0  0  0  0  0  0  0  0  0  0
    5.3840   -0.6620    0.1260 C   0  0  0  0  0  0  0  0  0  0  0  0
    4.9960    0.6830   -0.4850 C   0  0  0  0  0  0  0  0  0  0  0  0
    1.8890   -1.0870    0.8040 C   0  0  0  0  0  0  0  0  0  0  0  0
    1.5600   -1.7790   -0.3400 O   0  0  0  0  0  0  0  0  0  0  0  0
    0.8070   -1.6150   -1.4450 C   0  0  0  0  0  0  0  0  0  0  0  0
    0.3340   -0.5030   -2.0090 C   0  0  0  0  0  0  0  0  0  0  0  0
   -0.6430   -0.7010   -3.5020 Cl  0  0  0  0  0  0  0  0  0  0  0  0
    0.5350    0.7710   -1.5320 N   0  0  0  0  0  0  0  0  0  0  0  0
    0.1860    1.6430   -0.7630 C   0  0  0  0  0  0  0  0  0  0  0  0
   -0.8900    1.7240    0.2530 C   0  0  0  0  0  0  0  0  0  0  0  0
   -0.6530    2.4050    1.3850 C   0  0  0  0  0  0  0  0  0  0  0  0
    0.6780    3.0520    1.5980 C   0  0  0  0  0  0  0  0  0  0  0  0
   -1.6330    2.6400    2.3880 N   0  0  0  0  0  0  0  0  0  0  0  0
   -2.9360    2.1310    2.1670 C   0  0  0  0  0  0  0  0  0  0  0  0
   -3.8710    2.2950    3.0230 O   0  0  0  0  0  0  0  0  0  0  0  0
   -3.2160    1.4300    0.9860 N   0  0  0  0  0  0  0  0  0  0  0  0
   -2.1850    1.0910    0.0320 C   0  0  2  0  0  0  0  0  0  0  0  0
  1  2  1  0
  2  3  1  0
  3  4  1  0
  4  5  2  0
  4  6  1  0
  6  7  2  0
  6 31  1  0
  7  8  1  0
  8  9  2  0
  9 10  1  0
  9 17  1  0
 10 11  1  0
 11 12  2  0
 12 13  1  0
 13 14  1  0
 13 17  2  0
 14 15  1  0
 15 16  1  0
 17 18  1  0
 18 19  1  0
 19 20  2  0
 20 21  1  0
 20 22  1  0
 22 23  2  0
 23 24  1  0
 24 25  2  0
 24 31  1  0
 25 26  1  0
 25 27  1  0
 27 28  1  0
 28 29  2  0
 28 30  1  0
 31 30  1  1
M  END
