
     RDKit          3D

 31 34  0  0  0  0  0  0  0  0999 V2000
   -6.2250    0.3450    0.4500 N   0  0  0  0  0  0  0  0  0  0  0  0
   -5.5250   -0.9190    0.4050 C   0  0  2  0  0  0  0  0  0  0  0  0
   -5.0560   -1.3810    1.7450 C   0  0  0  0  0  0  0  0  0  0  0  0
   -3.6210   -1.8280    1.5450 C   0  0  0  0  0  0  0  0  0  0  0  0
   -3.4930   -2.0450    0.0490 C   0  0  0  0  0  0  0  0  0  0  0  0
   -4.3220   -0.8900   -0.5020 C   0  0  2  0  0  0  0  0  0  0  0  0
   -3.6120    0.3530   -0.4560 N   0  0  0  0  0  0  0  0  0  0  0  0
   -3.4680    1.2230    0.5290 N   0  0  0  0  0  0  0  0  0  0  0  0
   -2.7130    2.2490    0.1110 C   0  0  0  0  0  0  0  0  0  0  0  0
   -2.3780    3.2600    0.8000 O   0  0  0  0  0  0  0  0  0  0  0  0
   -2.3700    2.0220   -1.1730 N   0  0  0  0  0  0  0  0  0  0  0  0
   -1.5560    2.9270   -1.9440 C   0  0  0  0  0  0  0  0  0  0  0  0
   -0.0940    2.5370   -1.7630 C   0  0  0  0  0  0  0  0  0  0  0  0
    0.7930    3.1950   -2.3490 O   0  0  0  0  0  0  0  0  0  0  0  0
    0.2560    1.4530   -0.9500 N   0  0  0  0  0  0  0  0  0  0  0  0
    1.5570    0.9710   -0.6910 C   0  0  0  0  0  0  0  0  0  0  0  0
    1.7430    0.0340    0.3430 C   0  0  0  0  0  0  0  0  0  0  0  0
    2.9730   -0.4880    0.6440 C   0  0  0  0  0  0  0  0  0  0  0  0
    4.1010   -0.1140   -0.0640 C   0  0  0  0  0  0  0  0  0  0  0  0
    5.4370   -0.6260    0.1990 C   0  0  0  0  0  0  0  0  0  0  0  0
    5.6180   -1.9790    0.4010 C   0  0  0  0  0  0  0  0  0  0  0  0
    6.8270   -2.5160    0.6490 N   0  0  0  0  0  0  0  0  0  0  0  0
    7.9420   -1.7670    0.7150 C   0  0  0  0  0  0  0  0  0  0  0  0
    7.8040   -0.4080    0.5170 C   0  0  0  0  0  0  0  0  0  0  0  0
    9.2250    0.6080    0.5930 Cl  0  0  0  0  0  0  0  0  0  0  0  0
    6.5600    0.1730    0.2590 C   0  0  0  0  0  0  0  0  0  0  0  0
    6.4080    1.3970    0.0770 O   0  0  0  0  0  0  0  0  0  0  0  0
    3.9120    0.7950   -1.0670 C   0  0  0  0  0  0  0  0  0  0  0  0
    2.6690    1.3440   -1.3960 C   0  0  0  0  0  0  0  0  0  0  0  0
   -2.9290    0.8610   -1.4980 C   0  0  0  0  0  0  0  0  0  0  0  0
   -2.7980    0.3480   -2.6610 O   0  0  0  0  0  0  0  0  0  0  0  0
  2  1  1  1
  2  3  1  0
  2  6  1  0
  3  4  1  0
  4  5  1  0
  5  6  1  0
  6  7  1  1
  7  8  1  0
  7 30  1  0
  8  9  1  0
  9 10  2  0
  9 11  1  0
 11 12  1  0
 11 30  1  0
 12 13  1  0
 13 14  2  0
 13 15  1  0
 15 16  1  0
 16 17  2  0
 16 29  1  0
 17 18  1  0
 18 19  2  0
 19 20  1  0
 19 28  1  0
 20 21  2  0
 20 26  1  0
 21 22  1  0
 22 23  1  0
 23 24  2  0
 24 25  1  0
 24 26  1  0
 26 27  2  0
 28 29  2  0
 30 31  2  0
M  END
