
     RDKit          3D

 12 13  0  0  0  0  0  0  0  0999 V2000
   -3.9150   -0.0360    0.4540 N   0  0  0  0  0  0  0  0  0  0  0  0
   -2.8320   -0.8350   -0.0230 C   0  0  0  0  0  0  0  0  0  0  0  0
   -1.4780   -0.2880    0.3510 C   0  0  1  0  0  0  0  0  0  0  0  0
   -0.3560   -1.0540   -0.3160 C   0  0  0  0  0  0  0  0  0  0  0  0
    0.7980   -0.0710   -0.1830 C   0  0  1  0  0  0  0  0  0  0  0  0
    1.6940   -0.5540    0.8920 C   0  0  0  0  0  0  0  0  0  0  0  0
    2.9750   -0.8510    0.5190 O   0  0  0  0  0  0  0  0  0  0  0  0
    3.4490    0.2410   -0.2430 C   0  0  0  0  0  0  0  0  0  0  0  0
    2.6770    0.2030   -1.5210 C   0  0  0  0  0  0  0  0  0  0  0  0
    1.3310    0.1400   -1.4020 O   0  0  0  0  0  0  0  0  0  0  0  0
    0.0670    1.2080    0.2470 C   0  0  0  0  0  0  0  0  0  0  0  0
   -1.2690    0.9940   -0.1630 O   0  0  0  0  0  0  0  0  0  0  0  0
  1  2  1  0
  3  2  1  6
  3  4  1  0
  3 12  1  0
  5  4  1  6
  5  6  1  0
  5 10  1  0
  5 11  1  0
  6  7  1  0
  7  8  1  0
  8  9  1  0
  9 10  1  0
 11 12  1  0
M  CHG  1   1   1
M  END
