
     RDKit          3D

 12 13  0  0  0  0  0  0  0  0999 V2000
   -1.9440   -1.2080   -0.3970 O   0  0  0  0  0  0  0  0  0  0  0  0
   -1.5390   -0.3680    0.6460 C   0  0  2  0  0  0  0  0  0  0  0  0
   -2.0490    1.0300    0.2660 C   0  0  2  0  0  0  0  0  0  0  0  0
   -3.2800    0.9890   -0.3360 O   0  0  0  0  0  0  0  0  0  0  0  0
   -0.9500    1.5310   -0.6680 C   0  0  0  0  0  0  0  0  0  0  0  0
    0.0020    0.4750   -0.8000 N   0  0  1  0  0  0  0  0  0  0  0  0
    1.3390    0.8810   -1.0540 C   0  0  0  0  0  0  0  0  0  0  0  0
    2.3390    0.4320   -0.0290 C   0  0  0  0  0  0  0  0  0  0  0  0
    2.2060   -1.0100    0.3560 C   0  0  0  0  0  0  0  0  0  0  0  0
    0.7320   -1.4240    0.4420 C   0  0  1  0  0  0  0  0  0  0  0  0
    0.5130   -2.3030    1.4790 O   0  0  0  0  0  0  0  0  0  0  0  0
   -0.0650   -0.1690    0.5230 C   0  0  2  0  0  0  0  0  0  0  0  0
  2  1  1  6
  2  3  1  0
  2 12  1  0
  3  4  1  6
  3  5  1  0
  6  5  1  1
  6  7  1  0
  6 12  1  0
  7  8  1  0
  8  9  1  0
  9 10  1  0
 10 11  1  1
 12 10  1  6
M  CHG  1   6   1
M  END
