
     RDKit          3D

 12 13  0  0  0  0  0  0  0  0999 V2000
   -2.3040   -0.8530   -1.5540 O   0  0  0  0  0  0  0  0  0  0  0  0
   -1.3870    0.0990   -1.0830 C   0  0  1  0  0  0  0  0  0  0  0  0
   -2.1860    1.0540   -0.2070 C   0  0  0  0  0  0  0  0  0  0  0  0
   -2.4280    0.2700    0.9800 N   0  0  0  0  0  0  0  0  0  0  0  0
   -1.1890   -0.4350    1.2310 C   0  0  0  0  0  0  0  0  0  0  0  0
   -0.4870   -0.5640   -0.1050 C   0  0  2  0  0  0  0  0  0  0  0  0
    0.8610    0.0500    0.0270 C   0  0  2  0  0  0  0  0  0  0  0  0
    0.8540    1.3630    0.4330 O   0  0  0  0  0  0  0  0  0  0  0  0
    1.6860   -0.0220   -1.2520 C   0  0  0  0  0  0  0  0  0  0  0  0
    3.0450    0.2640   -0.6330 C   0  0  0  0  0  0  0  0  0  0  0  0
    3.0340   -0.2470    0.6390 O   0  0  0  0  0  0  0  0  0  0  0  0
    1.7890   -0.7320    0.9310 C   0  0  0  0  0  0  0  0  0  0  0  0
  2  1  1  1
  2  3  1  0
  2  6  1  0
  3  4  1  0
  4  5  1  0
  6  5  1  1
  6  7  1  0
  7  8  1  1
  7  9  1  0
  7 12  1  0
  9 10  1  0
 10 11  1  0
 11 12  1  0
M  CHG  1   4   1
M  END
