
     RDKit          3D

 12 13  0  0  0  0  0  0  0  0999 V2000
   -2.1620    1.5190    0.1270 N   0  0  0  0  0  0  0  0  0  0  0  0
   -1.2610    0.5330   -0.3670 C   0  0  1  0  0  0  0  0  0  0  0  0
    0.1770    0.9920   -0.3750 C   0  0  0  0  0  0  0  0  0  0  0  0
    1.1120   -0.0340    0.2210 C   0  0  2  0  0  0  0  0  0  0  0  0
    2.5360    0.4230   -0.1230 C   0  0  0  0  0  0  0  0  0  0  0  0
    3.3980   -0.5410    0.4380 O   0  0  0  0  0  0  0  0  0  0  0  0
    0.8790   -1.4000   -0.3640 C   0  0  0  0  0  0  0  0  0  0  0  0
   -0.5920   -1.6860   -0.5880 C   0  0  1  0  0  0  0  0  0  0  0  0
   -1.3480   -0.7880    0.4010 C   0  0  0  0  0  0  0  0  0  0  0  0
   -1.0420   -1.2110   -1.8410 O   0  0  0  0  0  0  0  0  0  0  0  0
   -1.5880    0.0520   -1.7350 C   0  0  0  0  0  0  0  0  0  0  0  0
   -2.2260    0.6690   -2.6060 O   0  0  0  0  0  0  0  0  0  0  0  0
  2  1  1  1
  2  3  1  0
  2  9  1  0
  2 11  1  0
  3  4  1  0
  4  5  1  6
  4  7  1  0
  5  6  1  0
  8  7  1  6
  8  9  1  0
  8 10  1  0
 10 11  1  0
 11 12  2  0
M  CHG  1   1   1
M  END
