
     RDKit          3D

 12 13  0  0  0  0  0  0  0  0999 V2000
    4.0660    0.5680    1.1070 O   0  0  0  0  0  0  0  0  0  0  0  0
    3.6760   -0.1580   -0.0360 C   0  0  0  0  0  0  0  0  0  0  0  0
    2.4860   -1.0440    0.2610 C   0  0  0  0  0  0  0  0  0  0  0  0
    1.2930   -0.2640    0.7150 C   0  0  1  0  0  0  0  0  0  0  0  0
    0.8800    0.6510   -0.2440 O   0  0  0  0  0  0  0  0  0  0  0  0
   -0.4750    0.6680   -0.1030 C   0  0  1  0  0  0  0  0  0  0  0  0
   -1.2610    1.1470   -1.2570 C   0  0  0  0  0  0  0  0  0  0  0  0
   -2.7050    0.7330   -1.0440 C   0  0  0  0  0  0  0  0  0  0  0  0
   -2.9250    0.2030    0.2840 N   0  0  0  0  0  0  0  0  0  0  0  0
   -2.1320   -0.9730    0.5530 C   0  0  0  0  0  0  0  0  0  0  0  0
   -0.7410   -0.8420    0.0320 C   0  0  2  0  0  0  0  0  0  0  0  0
    0.2480   -1.1520    0.9290 O   0  0  0  0  0  0  0  0  0  0  0  0
  1  2  1  0
  2  3  1  0
  4  3  1  6
  4  5  1  0
  4 12  1  0
  5  6  1  0
  6  7  1  6
  6 11  1  0
  7  8  1  0
  8  9  1  0
  9 10  1  0
 11 10  1  1
 11 12  1  0
M  CHG  1   9   1
M  END
