
     RDKit          3D

 12 13  0  0  0  0  0  0  0  0999 V2000
    2.9160    0.9640   -0.2740 N   0  0  0  0  0  0  0  0  0  0  0  0
    2.0090   -0.1180   -0.0410 C   0  0  2  0  0  0  0  0  0  0  0  0
    1.6450   -0.8770   -1.3000 C   0  0  0  0  0  0  0  0  0  0  0  0
    0.3870   -1.3910   -1.1100 O   0  0  0  0  0  0  0  0  0  0  0  0
   -0.3180   -0.5700   -0.2730 C   0  0  1  0  0  0  0  0  0  0  0  0
   -1.3680    0.2620   -0.9850 C   0  0  0  0  0  0  0  0  0  0  0  0
   -2.6670    0.2050   -0.1980 C   0  0  0  0  0  0  0  0  0  0  0  0
   -2.4240    0.4600    1.2850 C   0  0  0  0  0  0  0  0  0  0  0  0
   -1.7160   -0.7100    1.7330 O   0  0  0  0  0  0  0  0  0  0  0  0
   -0.9940   -1.4110    0.7660 C   0  0  0  0  0  0  0  0  0  0  0  0
   -0.9070   -2.6670    0.7550 O   0  0  0  0  0  0  0  0  0  0  0  0
    0.6550    0.3270    0.4450 C   0  0  0  0  0  0  0  0  0  0  0  0
  2  1  1  6
  2  3  1  0
  2 12  1  0
  3  4  1  0
  4  5  1  0
  5  6  1  6
  5 10  1  0
  5 12  1  0
  6  7  1  0
  7  8  1  0
  8  9  1  0
  9 10  1  0
 10 11  2  0
M  CHG  1   1   1
M  END
