
     RDKit          3D

 28 30  0  0  0  0  0  0  0  0999 V2000
    1.7990    4.0590   -0.2080 C   0  0  0  0  0  0  0  0  0  0  0  0
    2.1210    2.8730   -0.9770 O   0  0  0  0  0  0  0  0  0  0  0  0
    1.3550    1.7730   -0.6600 C   0  0  0  0  0  0  0  0  0  0  0  0
    0.2730    1.4140   -1.3090 C   0  0  0  0  0  0  0  0  0  0  0  0
   -0.3290    2.0390   -2.4450 C   0  0  0  0  0  0  0  0  0  0  0  0
    0.3180    3.1870   -3.1250 C   0  0  0  0  0  0  0  0  0  0  0  0
   -0.2800    3.6940   -4.1020 O   0  0  0  0  0  0  0  0  0  0  0  0
   -1.4290    1.6390   -3.0170 C   0  0  0  0  0  0  0  0  0  0  0  0
   -2.2810    0.5400   -2.6830 C   0  0  0  0  0  0  0  0  0  0  0  0
   -3.3640    0.3280   -3.4710 C   0  0  0  0  0  0  0  0  0  0  0  0
   -4.2650   -0.7590   -3.1950 C   0  0  0  0  0  0  0  0  0  0  0  0
   -4.1070   -1.6030   -2.1830 C   0  0  0  0  0  0  0  0  0  0  0  0
   -5.2480   -2.8990   -1.9130 Cl  0  0  0  0  0  0  0  0  0  0  0  0
   -2.9540   -1.3940   -1.3220 C   0  0  0  0  0  0  0  0  0  0  0  0
   -2.6740   -2.1510   -0.2870 C   0  0  0  0  0  0  0  0  0  0  0  0
   -3.3120   -3.3140    0.2940 C   0  0  0  0  0  0  0  0  0  0  0  0
   -2.9880   -3.4350    1.5910 C   0  0  0  0  0  0  0  0  0  0  0  0
   -2.0950   -2.3390    1.9680 C   0  0  0  0  0  0  0  0  0  0  0  0
   -1.5190   -1.8800    0.6450 C   0  0  0  0  0  0  0  0  0  0  0  0
   -2.1180   -0.3220   -1.6440 O   0  0  0  0  0  0  0  0  0  0  0  0
    1.8380    0.9910    0.4900 C   0  0  0  0  0  0  0  0  0  0  0  0
    2.9390    1.3340    1.1500 C   0  0  0  0  0  0  0  0  0  0  0  0
    3.4520    0.5560    2.3250 C   0  0  2  0  0  0  0  0  0  0  0  0
    4.8250    0.7620    2.4350 O   0  0  0  0  0  0  0  0  0  0  0  0
    3.0900   -0.8940    2.2030 C   0  0  1  0  0  0  0  0  0  0  0  0
    3.4770   -1.5770    3.4020 N   0  0  0  0  0  0  0  0  0  0  0  0
    1.5740   -0.9370    2.0300 C   0  0  0  0  0  0  0  0  0  0  0  0
    1.1900   -0.1370    0.9540 O   0  0  0  0  0  0  0  0  0  0  0  0
  1  2  1  0
  2  3  1  0
  3  4  2  3
  3 21  1  0
  4  5  1  0
  5  6  1  0
  5  8  2  3
  6  7  2  0
  8  9  1  0
  9 10  2  0
  9 20  1  0
 10 11  1  0
 11 12  2  0
 12 13  1  0
 12 14  1  0
 14 15  2  3
 14 20  1  0
 15 16  1  0
 15 19  1  0
 16 17  2  0
 17 18  1  0
 18 19  1  0
 21 22  2  0
 21 28  1  0
 22 23  1  0
 23 24  1  6
 23 25  1  0
 25 26  1  1
 25 27  1  0
 27 28  1  0
M  CHG  1  26   1
M  END
