
     RDKit          3D

 12 13  0  0  0  0  0  0  0  0999 V2000
   -2.3580    0.9330    0.6060 N   0  0  0  0  0  0  0  0  0  0  0  0
   -1.5160   -0.2320    0.6380 C   0  0  1  0  0  0  0  0  0  0  0  0
   -2.3160   -1.3680   -0.0110 C   0  0  0  0  0  0  0  0  0  0  0  0
   -1.8680   -1.2740   -1.4530 C   0  0  0  0  0  0  0  0  0  0  0  0
   -1.0500   -0.1420   -1.5410 O   0  0  0  0  0  0  0  0  0  0  0  0
   -0.3770   -0.1700   -0.3480 C   0  0  1  0  0  0  0  0  0  0  0  0
    0.5620    0.9670   -0.1240 C   0  0  2  0  0  0  0  0  0  0  0  0
    1.6320    0.8940   -1.1930 C   0  0  0  0  0  0  0  0  0  0  0  0
    2.1760   -0.4040   -1.1070 O   0  0  0  0  0  0  0  0  0  0  0  0
    2.9450   -0.4330    0.0480 C   0  0  0  0  0  0  0  0  0  0  0  0
    2.5100    0.5700    1.0640 C   0  0  0  0  0  0  0  0  0  0  0  0
    1.1620    0.7980    1.1180 O   0  0  0  0  0  0  0  0  0  0  0  0
  2  1  1  6
  2  3  1  0
  2  6  1  0
  3  4  1  0
  4  5  1  0
  6  5  1  6
  6  7  1  0
  7  8  1  6
  7 12  1  0
  8  9  1  0
  9 10  1  0
 10 11  1  0
 11 12  1  0
M  CHG  1   1   1
M  END
