
     RDKit          3D

 47 51  0  0  0  0  0  0  0  0999 V2000
   -1.1470    5.7240   -3.5700 C   0  0  0  0  0  0  0  0  0  0  0  0
   -1.1670    5.6570   -2.1470 O   0  0  0  0  0  0  0  0  0  0  0  0
   -0.8600    4.4580   -1.5190 C   0  0  0  0  0  0  0  0  0  0  0  0
   -0.5760    3.4950   -2.2820 O   0  0  0  0  0  0  0  0  0  0  0  0
   -0.8570    4.2870   -0.0610 C   0  0  0  0  0  0  0  0  0  0  0  0
   -0.6730    2.8270    0.3770 C   0  0  0  0  0  0  0  0  0  0  0  0
   -1.7950    1.9930   -0.0620 C   0  0  0  0  0  0  0  0  0  0  0  0
   -2.4990    2.4950   -1.0350 O   0  0  0  0  0  0  0  0  0  0  0  0
   -2.2600    0.7040    0.4270 C   0  0  0  0  0  0  0  0  0  0  0  0
   -3.3500    0.1690   -0.1560 C   0  0  0  0  0  0  0  0  0  0  0  0
   -4.0990    0.7540   -1.3030 C   0  0  0  0  0  0  0  0  0  0  0  0
   -5.4730    1.2480   -0.9060 C   0  0  2  0  0  0  0  0  0  0  0  0
   -6.2430    0.0480   -0.3680 C   0  0  0  0  0  0  0  0  0  0  0  0
   -6.1720    1.8110   -2.1180 C   0  0  0  0  0  0  0  0  0  0  0  0
   -5.4370    2.2560    0.2220 C   0  0  0  0  0  0  0  0  0  0  0  0
   -3.8530   -0.9920    0.3840 O   0  0  0  0  0  0  0  0  0  0  0  0
   -3.3450   -1.6710    1.5030 C   0  0  0  0  0  0  0  0  0  0  0  0
   -4.0860   -2.8910    1.8770 C   0  0  0  0  0  0  0  0  0  0  0  0
   -2.3000   -1.2140    2.1000 C   0  0  0  0  0  0  0  0  0  0  0  0
   -1.6880   -1.7670    3.3060 C   0  0  0  0  0  0  0  0  0  0  0  0
   -0.5420   -1.2980    3.7310 N   0  0  0  0  0  0  0  0  0  0  0  0
   -0.0950   -1.9570    4.9180 C   0  0  0  0  0  0  0  0  0  0  0  0
   -1.2140   -2.7870    5.3370 C   0  0  0  0  0  0  0  0  0  0  0  0
   -1.7250   -3.6010    6.2820 N   0  0  0  0  0  0  0  0  0  0  0  0
   -2.8840   -4.0230    5.9190 N   0  0  0  0  0  0  0  0  0  0  0  0
   -3.2240   -3.5090    4.6950 C   0  0  0  0  0  0  0  0  0  0  0  0
   -2.1510   -2.7120    4.3140 C   0  0  0  0  0  0  0  0  0  0  0  0
   -1.5100   -0.1570    1.3560 C   0  0  1  0  0  0  0  0  0  0  0  0
   -0.2300   -0.6700    0.8360 C   0  0  0  0  0  0  0  0  0  0  0  0
    0.0370   -1.9080    0.4130 C   0  0  0  0  0  0  0  0  0  0  0  0
   -0.9530   -2.9660    0.3940 C   0  0  0  0  0  0  0  0  0  0  0  0
    1.4360   -2.2280   -0.0310 C   0  0  0  0  0  0  0  0  0  0  0  0
    1.9770   -1.2190   -0.9730 C   0  0  2  0  0  0  0  0  0  0  0  0
    3.4290   -1.4430   -1.2110 C   0  0  0  0  0  0  0  0  0  0  0  0
    3.9840   -2.5010   -0.8940 O   0  0  0  0  0  0  0  0  0  0  0  0
    4.1680   -0.3970   -1.8210 N   0  0  0  0  0  0  0  0  0  0  0  0
    5.5520   -0.4420   -2.1320 C   0  0  0  0  0  0  0  0  0  0  0  0
    6.2560    0.7530   -2.3590 C   0  0  0  0  0  0  0  0  0  0  0  0
    7.5960    0.7730   -2.6800 C   0  0  0  0  0  0  0  0  0  0  0  0
    8.3390    2.0390   -2.9120 C   0  0  0  0  0  0  0  0  0  0  0  0
    8.2960   -0.4030   -2.7890 C   0  0  0  0  0  0  0  0  0  0  0  0
    7.6430   -1.5800   -2.5760 C   0  0  0  0  0  0  0  0  0  0  0  0
    8.3650   -2.8550   -2.6910 C   0  0  0  0  0  0  0  0  0  0  0  0
    6.3000   -1.5910   -2.2540 C   0  0  0  0  0  0  0  0  0  0  0  0
    1.7900    0.1990   -0.4920 C   0  0  0  0  0  0  0  0  0  0  0  0
    0.9680    0.1890    0.7670 C   0  0  0  0  0  0  0  0  0  0  0  0
    1.3300    0.8990    1.6960 O   0  0  0  0  0  0  0  0  0  0  0  0
  1  2  1  0
  2  3  1  0
  3  4  2  0
  3  5  1  0
  5  6  1  0
  6  7  1  0
  7  8  2  0
  7  9  1  0
  9 10  2  0
  9 28  1  0
 10 11  1  0
 10 16  1  0
 11 12  1  0
 12 13  1  1
 12 14  1  0
 12 15  1  0
 16 17  1  0
 17 18  1  0
 17 19  2  0
 19 20  1  0
 19 28  1  0
 20 21  2  0
 20 27  1  0
 21 22  1  0
 22 23  1  0
 23 24  1  0
 23 27  2  0
 24 25  1  0
 25 26  2  0
 26 27  1  0
 28 29  1  6
 29 30  2  0
 29 46  1  0
 30 31  1  0
 30 32  1  0
 32 33  1  0
 33 34  1  1
 33 45  1  0
 34 35  2  0
 34 36  1  0
 36 37  1  0
 37 38  2  0
 37 44  1  0
 38 39  1  0
 39 40  1  0
 39 41  2  0
 41 42  1  0
 42 43  1  0
 42 44  2  0
 45 46  1  0
 46 47  2  0
M  CHG  1  21   1
M  END
