
     RDKit          3D

 48 52  0  0  0  0  0  0  0  0999 V2000
   -3.1860    4.8870    1.1750 C   0  0  0  0  0  0  0  0  0  0  0  0
   -3.2630    3.4350    0.8450 C   0  0  0  0  0  0  0  0  0  0  0  0
   -2.3580    2.7880    0.0390 C   0  0  0  0  0  0  0  0  0  0  0  0
   -2.4900    1.4260   -0.2290 C   0  0  0  0  0  0  0  0  0  0  0  0
   -3.5320    0.6710    0.3010 C   0  0  0  0  0  0  0  0  0  0  0  0
   -3.6600   -0.6800   -0.0070 N   0  0  0  0  0  0  0  0  0  0  0  0
   -4.4790   -1.6550    0.7040 C   0  0  0  0  0  0  0  0  0  0  0  0
   -5.1230   -1.4100    1.7190 O   0  0  0  0  0  0  0  0  0  0  0  0
   -4.3660   -2.8990   -0.0020 C   0  0  0  0  0  0  0  0  0  0  0  0
   -5.0890   -3.9120   -0.2700 C   0  0  0  0  0  0  0  0  0  0  0  0
   -6.3870   -4.3870   -0.0460 C   0  0  0  0  0  0  0  0  0  0  0  0
   -6.5870   -5.6370   -0.5650 O   0  0  0  0  0  0  0  0  0  0  0  0
   -7.5410   -3.9490    0.5550 N   0  0  0  0  0  0  0  0  0  0  0  0
   -8.7460   -4.8480    0.5940 C   0  0  0  0  0  0  0  0  0  0  0  0
   -7.7850   -2.6800    1.1550 C   0  0  0  0  0  0  0  0  0  0  0  0
   -2.9250   -2.8130   -0.6690 C   0  0  2  0  0  0  0  0  0  0  0  0
   -2.0270   -3.0960    0.4610 C   0  0  0  0  0  0  0  0  0  0  0  0
   -0.5850   -3.1360    0.1200 C   0  0  0  0  0  0  0  0  0  0  0  0
    0.0800   -1.9200   -0.3810 C   0  0  0  0  0  0  0  0  0  0  0  0
    0.1010   -0.7750    0.5730 C   0  0  0  0  0  0  0  0  0  0  0  0
   -0.4900   -0.9060    1.6670 O   0  0  0  0  0  0  0  0  0  0  0  0
    0.7720    0.4370    0.2770 N   0  0  0  0  0  0  0  0  0  0  0  0
    0.7940    1.4860    1.2630 C   0  0  0  0  0  0  0  0  0  0  0  0
    2.2380    1.7410    1.6790 C   0  0  0  0  0  0  0  0  0  0  0  0
    3.1720    1.2860    0.6240 C   0  0  0  0  0  0  0  0  0  0  0  0
    4.3620    0.8790    0.9340 C   0  0  0  0  0  0  0  0  0  0  0  0
    4.9520    0.8010    2.2480 C   0  0  0  0  0  0  0  0  0  0  0  0
    4.8320    1.8150    3.1590 C   0  0  0  0  0  0  0  0  0  0  0  0
    5.4130    1.6930    4.4320 C   0  0  0  0  0  0  0  0  0  0  0  0
    6.1150    0.5700    4.8070 C   0  0  0  0  0  0  0  0  0  0  0  0
    6.2450   -0.4630    3.8950 C   0  0  0  0  0  0  0  0  0  0  0  0
    6.9750   -1.6280    4.2920 N   0  0  0  0  0  0  0  0  0  0  0  0
    5.6680   -0.3190    2.6610 C   0  0  0  0  0  0  0  0  0  0  0  0
    2.7490    1.2850   -0.8160 C   0  0  2  0  0  0  0  0  0  0  0  0
    3.6950    0.5330   -1.5150 O   0  0  0  0  0  0  0  0  0  0  0  0
    2.7980    2.7220   -1.2690 C   0  0  0  0  0  0  0  0  0  0  0  0
    2.4110    2.9560   -2.6860 C   0  0  0  0  0  0  0  0  0  0  0  0
    3.2650    2.2550   -3.6850 C   0  0  0  0  0  0  0  0  0  0  0  0
    2.9700    0.9900   -4.1360 C   0  0  0  0  0  0  0  0  0  0  0  0
    3.7770    0.3780   -5.0610 C   0  0  0  0  0  0  0  0  0  0  0  0
    4.9070    0.9720   -5.5880 C   0  0  0  0  0  0  0  0  0  0  0  0
    5.1890    2.2510   -5.1210 C   0  0  0  0  0  0  0  0  0  0  0  0
    4.3890    2.8710   -4.1960 C   0  0  0  0  0  0  0  0  0  0  0  0
    1.4140    0.6590   -0.9940 C   0  0  0  0  0  0  0  0  0  0  0  0
   -3.0730   -1.4070   -1.1060 C   0  0  0  0  0  0  0  0  0  0  0  0
   -2.7600   -0.9250   -2.1990 O   0  0  0  0  0  0  0  0  0  0  0  0
   -4.4130    1.3660    1.1030 C   0  0  0  0  0  0  0  0  0  0  0  0
   -4.2800    2.7040    1.3650 C   0  0  0  0  0  0  0  0  0  0  0  0
  1  2  1  0
  2  3  2  0
  2 48  1  0
  3  4  1  0
  4  5  2  0
  5  6  1  0
  5 47  1  0
  6  7  1  0
  6 45  1  0
  7  8  2  0
  7  9  1  0
  9 10  2  3
  9 16  1  0
 10 11  1  0
 11 12  2  0
 11 13  1  0
 13 14  1  0
 13 15  1  0
 16 17  1  1
 16 45  1  0
 17 18  1  0
 18 19  1  0
 19 20  1  0
 20 21  2  0
 20 22  1  0
 22 23  1  0
 22 44  1  0
 23 24  1  0
 24 25  1  0
 25 26  2  3
 25 34  1  0
 26 27  1  0
 27 28  2  0
 27 33  1  0
 28 29  1  0
 29 30  2  0
 30 31  1  0
 31 32  1  0
 31 33  2  0
 34 35  1  6
 34 36  1  0
 34 44  1  0
 36 37  1  0
 37 38  1  0
 38 39  2  0
 38 43  1  0
 39 40  1  0
 40 41  2  0
 41 42  1  0
 42 43  2  0
 45 46  2  0
 47 48  2  0
M  CHG  1  32   1
M  END
