
     RDKit          3D

 47 51  0  0  0  0  0  0  0  0999 V2000
   -9.9560   -4.0310    1.8240 C   0  0  0  0  0  0  0  0  0  0  0  0
  -10.0670   -2.8530    1.0800 O   0  0  0  0  0  0  0  0  0  0  0  0
  -10.7800   -2.7180   -0.0850 C   0  0  0  0  0  0  0  0  0  0  0  0
  -11.4490   -3.8460   -0.5680 C   0  0  0  0  0  0  0  0  0  0  0  0
  -12.1730   -3.7450   -1.7310 C   0  0  0  0  0  0  0  0  0  0  0  0
  -12.2340   -2.5340   -2.4140 C   0  0  0  0  0  0  0  0  0  0  0  0
  -11.5590   -1.4450   -1.9040 C   0  0  0  0  0  0  0  0  0  0  0  0
  -10.8260   -1.5170   -0.7390 C   0  0  0  0  0  0  0  0  0  0  0  0
  -10.1310   -0.3390   -0.2400 C   0  0  0  0  0  0  0  0  0  0  0  0
  -10.8040    0.8780   -0.2100 C   0  0  0  0  0  0  0  0  0  0  0  0
  -10.2140    2.0380    0.2480 C   0  0  0  0  0  0  0  0  0  0  0  0
   -8.9100    1.9730    0.6890 C   0  0  0  0  0  0  0  0  0  0  0  0
   -8.1930    0.7920    0.6820 C   0  0  0  0  0  0  0  0  0  0  0  0
   -6.8040    0.7180    1.1530 C   0  0  0  0  0  0  0  0  0  0  0  0
   -5.8020    0.9850    0.0530 C   0  0  2  0  0  0  0  0  0  0  0  0
   -5.9080    0.0160   -1.0770 C   0  0  0  0  0  0  0  0  0  0  0  0
   -4.4880    1.0440    0.6440 N   0  0  1  0  0  0  0  0  0  0  0  0
   -3.6700   -0.0840    0.3300 C   0  0  0  0  0  0  0  0  0  0  0  0
   -2.4050    0.4800   -0.3260 C   0  0  0  0  0  0  0  0  0  0  0  0
   -2.3520    1.8530    0.3420 C   0  0  1  0  0  0  0  0  0  0  0  0
   -1.5530    2.8440   -0.4350 C   0  0  0  0  0  0  0  0  0  0  0  0
   -0.1750    2.4270   -0.6150 N   0  0  0  0  0  0  0  0  0  0  0  0
    0.7830    3.1960   -1.3130 C   0  0  0  0  0  0  0  0  0  0  0  0
    0.4210    4.2960   -1.7970 O   0  0  0  0  0  0  0  0  0  0  0  0
    2.1650    2.7770   -1.4960 C   0  0  0  0  0  0  0  0  0  0  0  0
    2.7410    1.5920   -1.0550 C   0  0  0  0  0  0  0  0  0  0  0  0
    4.0600    1.6140   -1.4470 C   0  0  0  0  0  0  0  0  0  0  0  0
    4.2380    2.8110   -2.1120 C   0  0  0  0  0  0  0  0  0  0  0  0
    5.5540    3.2460   -2.7140 C   0  0  0  0  0  0  0  0  0  0  0  0
    6.2320    3.9420   -1.7400 O   0  0  0  0  0  0  0  0  0  0  0  0
    6.5140    3.2670   -0.5780 C   0  0  0  0  0  0  0  0  0  0  0  0
    7.4040    2.1290   -0.8440 C   0  0  0  0  0  0  0  0  0  0  0  0
    7.8730    1.9100   -1.9770 O   0  0  0  0  0  0  0  0  0  0  0  0
    7.7640    1.2270    0.1960 N   0  0  0  0  0  0  0  0  0  0  0  0
    8.6470    0.0890   -0.0540 C   0  0  2  0  0  0  0  0  0  0  0  0
    7.8360   -1.1680    0.1910 C   0  0  0  0  0  0  0  0  0  0  0  0
    8.7230   -2.3950    0.1170 C   0  0  2  0  0  0  0  0  0  0  0  0
    9.0650   -2.6190   -1.3570 C   0  0  0  0  0  0  0  0  0  0  0  0
    7.9060   -3.5800    0.5790 C   0  0  0  0  0  0  0  0  0  0  0  0
    9.9360   -2.2760    0.9730 C   0  0  0  0  0  0  0  0  0  0  0  0
   10.0650   -0.9720    1.7130 C   0  0  2  0  0  0  0  0  0  0  0  0
   11.5150   -0.8520    2.2020 C   0  0  0  0  0  0  0  0  0  0  0  0
    9.1680   -0.8940    2.9150 C   0  0  0  0  0  0  0  0  0  0  0  0
    9.8450    0.2170    0.8150 C   0  0  0  0  0  0  0  0  0  0  0  0
    3.1110    3.4420   -2.1100 O   0  0  0  0  0  0  0  0  0  0  0  0
   -3.8160    2.2500    0.2350 C   0  0  0  0  0  0  0  0  0  0  0  0
   -8.8300   -0.3370    0.2140 C   0  0  0  0  0  0  0  0  0  0  0  0
  1  2  1  0
  2  3  1  0
  3  4  2  0
  3  8  1  0
  4  5  1  0
  5  6  2  0
  6  7  1  0
  7  8  2  0
  8  9  1  0
  9 10  2  0
  9 47  1  0
 10 11  1  0
 11 12  2  0
 12 13  1  0
 13 14  1  0
 13 47  2  0
 14 15  1  0
 15 16  1  6
 15 17  1  0
 17 18  1  6
 17 46  1  0
 18 19  1  0
 19 20  1  0
 20 21  1  6
 20 46  1  0
 21 22  1  0
 22 23  1  0
 23 24  2  0
 23 25  1  0
 25 26  2  0
 25 45  1  0
 26 27  1  0
 27 28  2  0
 28 29  1  0
 28 45  1  0
 29 30  1  0
 30 31  1  0
 31 32  1  0
 32 33  2  0
 32 34  1  0
 35 34  1  1
 35 36  1  0
 35 44  1  0
 36 37  1  0
 37 38  1  6
 37 39  1  0
 37 40  1  0
 40 41  1  0
 41 42  1  1
 41 43  1  0
 41 44  1  0
M  CHG  1  17   1
M  END
