
     RDKit          3D

 48 54  0  0  0  0  0  0  0  0999 V2000
   -3.9040   -1.1400   -3.8360 C   0  0  0  0  0  0  0  0  0  0  0  0
   -3.0160   -1.3300   -2.6190 C   0  0  0  0  0  0  0  0  0  0  0  0
   -3.8720   -1.6150   -1.5040 N   0  0  1  0  0  0  0  0  0  0  0  0
   -4.2590   -3.0280   -1.5810 C   0  0  0  0  0  0  0  0  0  0  0  0
   -3.1970   -1.4470   -0.2360 C   0  0  2  0  0  0  0  0  0  0  0  0
   -3.0350    0.0110    0.1200 C   0  0  0  0  0  0  0  0  0  0  0  0
   -4.2660    0.6730    0.2160 O   0  0  0  0  0  0  0  0  0  0  0  0
   -5.2840    0.3520    1.0710 C   0  0  0  0  0  0  0  0  0  0  0  0
   -5.1110   -0.6250    1.8480 O   0  0  0  0  0  0  0  0  0  0  0  0
   -6.5530    1.0620    1.1420 C   0  0  0  0  0  0  0  0  0  0  0  0
   -6.8230    2.1510    0.3260 C   0  0  0  0  0  0  0  0  0  0  0  0
   -8.0330    2.8070    0.4050 C   0  0  0  0  0  0  0  0  0  0  0  0
   -9.0250    2.4200    1.2860 C   0  0  0  0  0  0  0  0  0  0  0  0
  -10.2370    3.0740    1.3640 C   0  0  0  0  0  0  0  0  0  0  0  0
  -11.2440    2.6820    2.2530 C   0  0  0  0  0  0  0  0  0  0  0  0
  -10.9750    1.5970    3.0660 C   0  0  0  0  0  0  0  0  0  0  0  0
   -9.7550    0.9630    2.9670 C   0  0  0  0  0  0  0  0  0  0  0  0
   -8.7610    1.3400    2.0970 C   0  0  0  0  0  0  0  0  0  0  0  0
   -7.5450    0.6810    2.0170 C   0  0  0  0  0  0  0  0  0  0  0  0
   -1.7980   -2.0890   -0.4150 C   0  0  0  0  0  0  0  0  0  0  0  0
   -1.0950   -1.9590    0.8550 C   0  0  0  0  0  0  0  0  0  0  0  0
   -1.8050   -1.8770    1.9190 O   0  0  0  0  0  0  0  0  0  0  0  0
    0.3190   -1.9130    0.9520 N   0  0  0  0  0  0  0  0  0  0  0  0
    0.9100   -1.6520    2.2580 C   0  0  0  0  0  0  0  0  0  0  0  0
    2.2870   -1.1030    2.1130 C   0  0  0  0  0  0  0  0  0  0  0  0
    2.4950   -0.2960    0.8320 C   0  0  0  0  0  0  0  0  0  0  0  0
    2.2930   -1.2350   -0.2990 C   0  0  0  0  0  0  0  0  0  0  0  0
    3.1280   -1.3100   -1.3750 C   0  0  0  0  0  0  0  0  0  0  0  0
    4.2690   -0.4620   -1.4610 N   0  0  0  0  0  0  0  0  0  0  0  0
    5.1540   -0.3350   -2.5390 C   0  0  0  0  0  0  0  0  0  0  0  0
    4.9260   -1.0430   -3.5860 O   0  0  0  0  0  0  0  0  0  0  0  0
    6.3290    0.5470   -2.5640 C   0  0  0  0  0  0  0  0  0  0  0  0
    7.1220    0.6190   -3.7070 C   0  0  0  0  0  0  0  0  0  0  0  0
    8.2260    1.4350   -3.7960 C   0  0  0  0  0  0  0  0  0  0  0  0
    8.5700    2.2240   -2.6950 C   0  0  0  0  0  0  0  0  0  0  0  0
    7.8070    2.1710   -1.5590 C   0  0  0  0  0  0  0  0  0  0  0  0
    6.6910    1.3230   -1.5190 C   0  0  0  0  0  0  0  0  0  0  0  0
    6.1660    1.5240   -0.2280 O   0  0  0  0  0  0  0  0  0  0  0  0
    7.2760    1.9100    0.5790 C   0  0  2  0  0  0  0  0  0  0  0  0
    8.1830    0.7520    0.9030 C   0  0  0  0  0  0  0  0  0  0  0  0
    8.9020    1.1950    2.1540 C   0  0  0  0  0  0  0  0  0  0  0  0
    8.2810    2.4750    2.6210 C   0  0  0  0  0  0  0  0  0  0  0  0
    6.9430    2.5040    1.8820 C   0  0  0  0  0  0  0  0  0  0  0  0
    7.8900    2.8210   -0.3230 O   0  0  0  0  0  0  0  0  0  0  0  0
    2.8020   -2.2540   -2.3350 C   0  0  0  0  0  0  0  0  0  0  0  0
    1.6800   -3.0820   -2.2050 C   0  0  0  0  0  0  0  0  0  0  0  0
    0.8470   -2.9990   -1.1170 C   0  0  0  0  0  0  0  0  0  0  0  0
    1.1610   -2.0720   -0.1720 C   0  0  0  0  0  0  0  0  0  0  0  0
  1  2  1  0
  2  3  1  0
  3  4  1  6
  3  5  1  0
  5  6  1  6
  5 20  1  0
  6  7  1  0
  7  8  1  0
  8  9  2  0
  8 10  1  0
 10 11  2  0
 10 19  1  0
 11 12  1  0
 12 13  2  0
 13 14  1  0
 13 18  1  0
 14 15  2  0
 15 16  1  0
 16 17  2  0
 17 18  1  0
 18 19  2  0
 20 21  1  0
 21 22  2  0
 21 23  1  0
 23 24  1  0
 23 48  1  0
 24 25  1  0
 25 26  1  0
 26 27  1  0
 27 28  2  0
 27 48  1  0
 28 29  1  0
 28 45  1  0
 29 30  1  0
 30 31  2  0
 30 32  1  0
 32 33  2  0
 32 37  1  0
 33 34  1  0
 34 35  2  0
 35 36  1  0
 36 37  2  0
 36 44  1  0
 37 38  1  0
 38 39  1  0
 39 40  1  1
 39 43  1  0
 39 44  1  0
 40 41  1  0
 41 42  1  0
 42 43  1  0
 45 46  2  0
 46 47  1  0
 47 48  2  0
M  CHG  1   3   1
M  END
