
     RDKit          3D

 48 53  0  0  0  0  0  0  0  0999 V2000
    3.5220    1.4570   -0.3970 C   0  0  0  0  0  0  0  0  0  0  0  0
    4.7280    0.8330   -0.0590 O   0  0  0  0  0  0  0  0  0  0  0  0
    4.8210   -0.4130    0.5210 C   0  0  0  0  0  0  0  0  0  0  0  0
    3.7020   -1.1460    0.8140 C   0  0  0  0  0  0  0  0  0  0  0  0
    3.7450   -2.3940    1.3930 C   0  0  0  0  0  0  0  0  0  0  0  0
    2.5870   -3.1160    1.6780 O   0  0  0  0  0  0  0  0  0  0  0  0
    1.3070   -2.6520    1.4180 C   0  0  0  0  0  0  0  0  0  0  0  0
    0.5810   -1.9480    2.3560 C   0  0  0  0  0  0  0  0  0  0  0  0
   -0.7000   -1.4940    2.0690 C   0  0  0  0  0  0  0  0  0  0  0  0
   -1.3000   -1.7230    0.8490 C   0  0  0  0  0  0  0  0  0  0  0  0
   -2.6550   -1.2350    0.5780 C   0  0  0  0  0  0  0  0  0  0  0  0
   -3.6040   -1.1400    1.5700 C   0  0  0  0  0  0  0  0  0  0  0  0
   -4.8730   -0.6750    1.2780 C   0  0  0  0  0  0  0  0  0  0  0  0
   -5.2420   -0.2940    0.0050 C   0  0  0  0  0  0  0  0  0  0  0  0
   -6.6000    0.1900   -0.2730 C   0  0  0  0  0  0  0  0  0  0  0  0
   -7.3170    0.8790    0.6800 C   0  0  0  0  0  0  0  0  0  0  0  0
   -8.6020    1.3440    0.4330 C   0  0  0  0  0  0  0  0  0  0  0  0
   -9.2190    1.1350   -0.7780 C   0  0  0  0  0  0  0  0  0  0  0  0
  -10.5420    1.5660   -1.0500 N   0  0  1  0  0  0  0  0  0  0  0  0
  -10.9180    1.3690   -2.4540 C   0  0  0  0  0  0  0  0  0  0  0  0
  -11.4900   -0.0010   -2.5860 C   0  0  0  0  0  0  0  0  0  0  0  0
  -11.5590   -0.5100   -1.1720 C   0  0  0  0  0  0  0  0  0  0  0  0
  -11.5550    0.7880   -0.3690 C   0  0  1  0  0  0  0  0  0  0  0  0
  -11.3380    0.5540    1.0770 C   0  0  0  0  0  0  0  0  0  0  0  0
  -12.9120    1.4630   -0.5730 C   0  0  0  0  0  0  0  0  0  0  0  0
   -8.4880    0.4420   -1.7270 C   0  0  0  0  0  0  0  0  0  0  0  0
   -7.2080   -0.0200   -1.4820 C   0  0  0  0  0  0  0  0  0  0  0  0
   -4.2950   -0.3880   -0.9900 C   0  0  0  0  0  0  0  0  0  0  0  0
   -3.0160   -0.8560   -0.6970 C   0  0  0  0  0  0  0  0  0  0  0  0
   -0.5780   -2.4260   -0.0930 C   0  0  0  0  0  0  0  0  0  0  0  0
    0.6930   -2.8770    0.1910 C   0  0  0  0  0  0  0  0  0  0  0  0
    4.9890   -2.8940    1.6750 C   0  0  0  0  0  0  0  0  0  0  0  0
    6.1470   -2.1530    1.3790 C   0  0  0  0  0  0  0  0  0  0  0  0
    6.1070   -0.9120    0.8040 C   0  0  0  0  0  0  0  0  0  0  0  0
    7.2380   -0.1350    0.4870 N   0  0  0  0  0  0  0  0  0  0  0  0
    8.5980   -0.4520    0.6790 C   0  0  0  0  0  0  0  0  0  0  0  0
    8.8990   -1.5520    1.1940 O   0  0  0  0  0  0  0  0  0  0  0  0
    9.6350    0.4810    0.2840 N   0  0  0  0  0  0  0  0  0  0  0  0
    9.2660    1.7300   -0.2990 C   0  0  0  0  0  0  0  0  0  0  0  0
   10.4220    2.3960   -0.8810 C   0  0  0  0  0  0  0  0  0  0  0  0
   10.3600    3.0010   -1.9600 O   0  0  0  0  0  0  0  0  0  0  0  0
   11.6250    2.3390   -0.1910 O   0  0  0  0  0  0  0  0  0  0  0  0
   11.9050    1.2600    0.6850 C   0  0  2  0  0  0  0  0  0  0  0  0
   13.3460    0.8610    0.6960 C   0  0  0  0  0  0  0  0  0  0  0  0
   13.7950    0.4510   -0.6550 C   0  0  0  0  0  0  0  0  0  0  0  0
   15.1970   -0.0160   -0.8610 C   0  0  0  0  0  0  0  0  0  0  0  0
   13.0410    0.4880   -1.5990 O   0  0  0  0  0  0  0  0  0  0  0  0
   10.9960    0.1020    0.4930 C   0  0  0  0  0  0  0  0  0  0  0  0
  1  2  1  0
  2  3  1  0
  3  4  2  0
  3 34  1  0
  4  5  1  0
  5  6  1  0
  5 32  2  0
  6  7  1  0
  7  8  2  0
  7 31  1  0
  8  9  1  0
  9 10  2  0
 10 11  1  0
 10 30  1  0
 11 12  2  0
 11 29  1  0
 12 13  1  0
 13 14  2  0
 14 15  1  0
 14 28  1  0
 15 16  2  0
 15 27  1  0
 16 17  1  0
 17 18  2  0
 19 18  1  6
 18 26  1  0
 19 20  1  0
 19 23  1  0
 20 21  1  0
 21 22  1  0
 22 23  1  0
 23 24  1  1
 23 25  1  0
 26 27  2  0
 28 29  2  0
 30 31  2  0
 32 33  1  0
 33 34  2  0
 34 35  1  0
 35 36  1  0
 36 37  2  0
 36 38  1  0
 38 39  1  0
 38 48  1  0
 39 40  1  0
 40 41  2  0
 40 42  1  0
 42 43  1  0
 43 44  1  6
 43 48  1  0
 44 45  1  0
 45 46  1  0
 45 47  2  0
M  CHG  1  19   1
M  END
