
     RDKit          3D

 49 53  0  0  0  0  0  0  0  0999 V2000
   -7.8830    1.8200   -1.6480 C   0  0  0  0  0  0  0  0  0  0  0  0
   -6.6580    2.5240   -1.0630 C   0  0  1  0  0  0  0  0  0  0  0  0
   -6.1750    3.4210   -2.2120 C   0  0  0  0  0  0  0  0  0  0  0  0
   -7.0760    3.4370    0.0340 C   0  0  0  0  0  0  0  0  0  0  0  0
   -5.6890    1.5760   -0.6350 N   0  0  0  0  0  0  0  0  0  0  0  0
   -4.6480    0.9930   -1.3620 C   0  0  0  0  0  0  0  0  0  0  0  0
   -4.4980    1.4240   -2.5770 O   0  0  0  0  0  0  0  0  0  0  0  0
   -3.7080   -0.0380   -0.8690 C   0  0  2  0  0  0  0  0  0  0  0  0
   -4.3900   -1.2830   -0.4890 C   0  0  0  0  0  0  0  0  0  0  0  0
   -3.9400   -1.8610    0.8250 C   0  0  2  0  0  0  0  0  0  0  0  0
   -4.9210   -2.8930    1.3500 C   0  0  0  0  0  0  0  0  0  0  0  0
   -6.2630   -2.2940    1.6210 C   0  0  0  0  0  0  0  0  0  0  0  0
   -6.2080   -1.0070    2.3550 C   0  0  0  0  0  0  0  0  0  0  0  0
   -4.9010   -0.4360    2.6840 C   0  0  0  0  0  0  0  0  0  0  0  0
   -3.7030   -0.7980    1.8440 C   0  0  2  0  0  0  0  0  0  0  0  0
   -3.0070    0.4280    1.3600 C   0  0  0  0  0  0  0  0  0  0  0  0
   -2.6710    0.4680   -0.0810 N   0  0  1  0  0  0  0  0  0  0  0  0
   -1.3780   -0.0520   -0.2930 C   0  0  0  0  0  0  0  0  0  0  0  0
   -0.6160    0.5350   -1.4340 C   0  0  1  0  0  0  0  0  0  0  0  0
   -0.5450    1.9490   -1.2070 O   0  0  0  0  0  0  0  0  0  0  0  0
    0.7750    0.0900   -1.5800 C   0  0  2  0  0  0  0  0  0  0  0  0
    1.0770   -1.2850   -2.0640 C   0  0  0  0  0  0  0  0  0  0  0  0
    0.5840   -2.4130   -1.3070 C   0  0  0  0  0  0  0  0  0  0  0  0
   -0.5150   -3.0990   -1.7670 C   0  0  0  0  0  0  0  0  0  0  0  0
   -1.0610   -4.1520   -1.0160 C   0  0  0  0  0  0  0  0  0  0  0  0
   -0.5150   -4.5320    0.2000 C   0  0  0  0  0  0  0  0  0  0  0  0
    0.5900   -3.8470    0.6660 C   0  0  0  0  0  0  0  0  0  0  0  0
    1.0960   -2.8260   -0.0910 C   0  0  0  0  0  0  0  0  0  0  0  0
    1.5820    0.3950   -0.3740 N   0  0  0  0  0  0  0  0  0  0  0  0
    2.9520    0.6660   -0.4730 C   0  0  0  0  0  0  0  0  0  0  0  0
    3.5390    0.6450   -1.5830 O   0  0  0  0  0  0  0  0  0  0  0  0
    3.7370    0.9780    0.7500 C   0  0  2  0  0  0  0  0  0  0  0  0
    3.5670    2.3930    1.2100 C   0  0  0  0  0  0  0  0  0  0  0  0
    3.9150    3.4770    0.3240 C   0  0  0  0  0  0  0  0  0  0  0  0
    3.2490    3.5870   -0.9330 N   0  0  0  0  0  0  0  0  0  0  0  0
    4.8020    4.3740    0.5980 O   0  0  0  0  0  0  0  0  0  0  0  0
    5.0390    0.4110    0.8050 N   0  0  0  0  0  0  0  0  0  0  0  0
    6.1990    0.9300    0.2000 C   0  0  0  0  0  0  0  0  0  0  0  0
    6.1300    1.9890   -0.4700 O   0  0  0  0  0  0  0  0  0  0  0  0
    7.5100    0.2430    0.3380 C   0  0  0  0  0  0  0  0  0  0  0  0
    7.6980   -0.8770    1.0900 C   0  0  0  0  0  0  0  0  0  0  0  0
    8.9620   -1.4820    1.1460 C   0  0  0  0  0  0  0  0  0  0  0  0
   10.0100   -0.9520    0.4450 C   0  0  0  0  0  0  0  0  0  0  0  0
   11.2420   -1.5400    0.4870 C   0  0  0  0  0  0  0  0  0  0  0  0
   12.3130   -1.0460   -0.2060 C   0  0  0  0  0  0  0  0  0  0  0  0
   12.1080    0.0930   -0.9660 C   0  0  0  0  0  0  0  0  0  0  0  0
   10.8620    0.7180   -1.0300 C   0  0  0  0  0  0  0  0  0  0  0  0
    9.8020    0.1880   -0.3170 C   0  0  0  0  0  0  0  0  0  0  0  0
    8.5830    0.7170   -0.3290 N   0  0  0  0  0  0  0  0  0  0  0  0
  2  1  1  6
  2  3  1  0
  2  4  1  0
  2  5  1  0
  5  6  1  0
  6  7  2  0
  8  6  1  1
  8  9  1  0
  8 17  1  0
 10  9  1  6
 10 11  1  0
 10 15  1  0
 11 12  1  0
 12 13  1  0
 13 14  1  0
 15 14  1  6
 15 16  1  0
 16 17  1  0
 17 18  1  1
 18 19  1  0
 19 20  1  1
 19 21  1  0
 21 22  1  1
 21 29  1  0
 22 23  1  0
 23 24  2  0
 23 28  1  0
 24 25  1  0
 25 26  2  0
 26 27  1  0
 27 28  2  0
 29 30  1  0
 30 31  2  0
 30 32  1  0
 32 33  1  6
 32 37  1  0
 33 34  1  0
 34 35  1  0
 34 36  2  0
 37 38  1  0
 38 39  2  0
 38 40  1  0
 40 41  2  0
 40 49  1  0
 41 42  1  0
 42 43  2  0
 43 44  1  0
 43 48  1  0
 44 45  2  0
 45 46  1  0
 46 47  2  0
 47 48  1  0
 48 49  2  0
M  CHG  1  17   1
M  END
