
     RDKit          3D

 23 24  0  0  0  0  0  0  0  0999 V2000
    2.2580    1.4780   -1.6280 C   0  0  0  0  0  0  0  0  0  0  0  0
    2.3030    0.8070   -0.3340 N   0  0  0  0  0  0  0  0  0  0  0  0
    1.7300    1.4830    0.7910 C   0  0  0  0  0  0  0  0  0  0  0  0
    0.2200    1.6010    0.6840 C   0  0  0  0  0  0  0  0  0  0  0  0
   -0.3100    0.3040    0.6160 O   0  0  0  0  0  0  0  0  0  0  0  0
   -1.6520    0.0160    0.5140 C   0  0  0  0  0  0  0  0  0  0  0  0
   -2.1450   -1.2700    0.4490 C   0  0  0  0  0  0  0  0  0  0  0  0
   -3.4820   -1.2360    0.3550 N   0  0  0  0  0  0  0  0  0  0  0  0
   -4.4480   -2.1740    0.2640 C   0  0  0  0  0  0  0  0  0  0  0  0
   -4.0690   -3.3820    0.2620 O   0  0  0  0  0  0  0  0  0  0  0  0
   -5.7080   -1.8270    0.1830 O   0  0  0  0  0  0  0  0  0  0  0  0
   -6.1150   -0.5850    0.1840 N   0  0  0  0  0  0  0  0  0  0  0  0
   -7.4410   -0.2370    0.0980 O   0  0  0  0  0  0  0  0  0  0  0  0
   -5.1870    0.3790    0.2730 C   0  0  0  0  0  0  0  0  0  0  0  0
   -5.5800    1.5750    0.2740 O   0  0  0  0  0  0  0  0  0  0  0  0
   -3.8460    0.0670    0.3600 C   0  0  0  0  0  0  0  0  0  0  0  0
   -2.7270    0.8230    0.4570 N   0  0  0  0  0  0  0  0  0  0  0  0
    2.9070   -0.4780   -0.2300 C   0  0  0  0  0  0  0  0  0  0  0  0
    2.5890   -1.3680    0.6250 N   0  0  0  0  0  0  0  0  0  0  0  0
    3.9590   -0.8220   -1.1470 N   0  0  0  0  0  0  0  0  0  0  0  0
    5.2790   -1.9590   -0.7160 P   0  0  0  0  0  0  0  0  0  0  0  0
    5.1460   -2.3520    0.9540 O   0  0  0  0  0  0  0  0  0  0  0  0
    6.7930   -1.1000   -0.9480 O   0  0  0  0  0  0  0  0  0  0  0  0
  1  2  1  0
  2  3  1  0
  2 18  1  0
  3  4  1  0
  4  5  1  0
  5  6  1  0
  6  7  2  0
  6 17  1  0
  7  8  1  0
  8  9  1  0
  8 16  1  0
  9 10  2  0
  9 11  1  0
 11 12  1  0
 12 13  1  0
 12 14  1  0
 14 15  2  0
 14 16  1  0
 16 17  2  0
 18 19  2  0
 18 20  1  0
 20 21  1  0
 21 22  1  0
 21 23  1  0
M  END
