
     RDKit          3D

 22 24  0  0  0  0  0  0  0  0999 V2000
   -6.7240    0.3870    1.1470 N   0  0  0  0  0  0  0  0  0  0  0  0
   -6.0570   -0.3580    0.1260 C   0  0  0  0  0  0  0  0  0  0  0  0
   -5.5840   -1.5470    0.2210 N   0  0  0  0  0  0  0  0  0  0  0  0
   -5.0120   -1.9460   -0.9530 O   0  0  0  0  0  0  0  0  0  0  0  0
   -4.7430   -0.7750   -1.6960 C   0  0  2  0  0  0  0  0  0  0  0  0
   -3.4030   -0.1940   -1.3290 C   0  0  0  0  0  0  0  0  0  0  0  0
   -3.1170    1.0990   -1.0910 N   0  0  0  0  0  0  0  0  0  0  0  0
   -1.8200    1.2420   -0.7930 C   0  0  0  0  0  0  0  0  0  0  0  0
   -0.9670    2.2750   -0.4680 C   0  0  0  0  0  0  0  0  0  0  0  0
    0.3770    2.0580   -0.2090 C   0  0  0  0  0  0  0  0  0  0  0  0
    0.8550    0.7620   -0.2840 C   0  0  0  0  0  0  0  0  0  0  0  0
    2.2450    0.5300   -0.0180 N   0  0  0  0  0  0  0  0  0  0  0  0
    2.8050   -0.8010   -0.0800 C   0  0  0  0  0  0  0  0  0  0  0  0
    4.2700   -0.7800    0.2370 C   0  0  0  0  0  0  0  0  0  0  0  0
    4.4350   -0.2710    1.5230 O   0  0  0  0  0  0  0  0  0  0  0  0
    6.1260   -0.2240    1.9430 P   0  0  0  0  0  0  0  0  0  0  0  0
    6.5410   -1.4440    3.0840 O   0  0  0  0  0  0  0  0  0  0  0  0
    7.0940   -0.4190    0.5120 O   0  0  0  0  0  0  0  0  0  0  0  0
    0.0180   -0.2330   -0.6000 N   0  0  0  0  0  0  0  0  0  0  0  0
   -1.2940   -0.0360   -0.8550 C   0  0  0  0  0  0  0  0  0  0  0  0
   -2.2750   -0.8440   -1.1760 O   0  0  0  0  0  0  0  0  0  0  0  0
   -5.7890    0.0710   -1.1860 O   0  0  0  0  0  0  0  0  0  0  0  0
  1  2  1  0
  2  3  2  0
  2 22  1  0
  3  4  1  0
  4  5  1  0
  5  6  1  1
  5 22  1  0
  6  7  2  0
  6 21  1  0
  7  8  1  0
  8  9  2  0
  8 20  1  0
  9 10  1  0
 10 11  2  0
 11 12  1  0
 11 19  1  0
 12 13  1  0
 13 14  1  0
 14 15  1  0
 15 16  1  0
 16 17  1  0
 16 18  1  0
 19 20  2  0
 20 21  1  0
M  END
