
     RDKit          3D

 23 24  0  0  0  0  0  0  0  0999 V2000
    6.0030    1.9200   -2.0030 O   0  0  0  0  0  0  0  0  0  0  0  0
    5.8360    0.6040   -2.7880 P   0  0  0  0  0  0  0  0  0  0  0  0
    5.1590   -0.8320   -2.1480 O   0  0  0  0  0  0  0  0  0  0  0  0
    4.2530   -0.6100   -1.1350 C   0  0  0  0  0  0  0  0  0  0  0  0
    3.6770   -1.9070   -0.5960 C   0  0  0  0  0  0  0  0  0  0  0  0
    2.7120   -1.6640    0.4830 N   0  0  0  0  0  0  0  0  0  0  0  0
    1.5880   -0.9120    0.2250 C   0  0  0  0  0  0  0  0  0  0  0  0
    1.3030   -0.4120   -0.9600 O   0  0  0  0  0  0  0  0  0  0  0  0
    0.5990   -0.5460    1.1290 N   0  0  0  0  0  0  0  0  0  0  0  0
   -0.6050    0.0210    0.6240 C   0  0  0  0  0  0  0  0  0  0  0  0
   -0.7800    1.0730    1.3020 N   0  0  0  0  0  0  0  0  0  0  0  0
   -1.8570    1.9100    1.0930 C   0  0  0  0  0  0  0  0  0  0  0  0
   -1.8420    3.2230    1.8490 C   0  0  0  0  0  0  0  0  0  0  0  0
   -2.0040    3.0130    3.1920 O   0  0  0  0  0  0  0  0  0  0  0  0
   -1.9800    4.1650    3.8180 O   0  0  0  0  0  0  0  0  0  0  0  0
   -2.7600    1.6490    0.2200 N   0  0  0  0  0  0  0  0  0  0  0  0
   -2.6640    0.4720   -0.5360 N   0  0  0  0  0  0  0  0  0  0  0  0
   -3.3430   -0.0960   -1.6660 C   0  0  0  0  0  0  0  0  0  0  0  0
   -2.7500   -1.3510   -1.8950 O   0  0  0  0  0  0  0  0  0  0  0  0
   -1.4200   -1.1320   -1.5000 C   0  0  0  0  0  0  0  0  0  0  0  0
   -1.6930   -0.5200   -0.1400 C   0  0  1  0  0  0  0  0  0  0  0  0
   -2.4970   -1.5630    0.6610 C   0  0  0  0  0  0  0  0  0  0  0  0
   -1.6990   -2.5840    1.1110 O   0  0  0  0  0  0  0  0  0  0  0  0
  1  2  2  0
  2  3  1  0
  3  4  1  0
  4  5  1  0
  5  6  1  0
  6  7  1  0
  7  8  2  0
  7  9  1  0
  9 10  1  0
 10 11  2  0
 10 21  1  0
 11 12  1  0
 12 13  1  0
 12 16  2  0
 13 14  1  0
 14 15  1  0
 16 17  1  0
 17 18  1  0
 17 21  1  0
 18 19  1  0
 19 20  1  0
 20 21  1  0
 21 22  1  1
 22 23  1  0
M  END
