
     RDKit          3D

 23 24  0  0  0  0  0  0  0  0999 V2000
   -0.6650    3.1630   -1.5340 C   0  0  0  0  0  0  0  0  0  0  0  0
   -0.6630    2.0930   -0.5400 C   0  0  1  0  0  0  0  0  0  0  0  0
    0.5940    1.7910    0.2080 C   0  0  0  0  0  0  0  0  0  0  0  0
    0.5860    0.3470    0.3440 N   0  0  0  0  0  0  0  0  0  0  0  0
    1.7150   -0.4410    0.0940 C   0  0  0  0  0  0  0  0  0  0  0  0
    1.7790   -1.6110    0.3930 O   0  0  0  0  0  0  0  0  0  0  0  0
    2.8640    0.1330   -0.5630 N   0  0  0  0  0  0  0  0  0  0  0  0
    3.9790   -0.6230   -0.8770 C   0  0  0  0  0  0  0  0  0  0  0  0
    4.6210   -1.2760    0.3340 C   0  0  0  0  0  0  0  0  0  0  0  0
    5.7160   -1.9920   -0.2740 O   0  0  0  0  0  0  0  0  0  0  0  0
    5.3800   -3.2540    0.1150 O   0  0  0  0  0  0  0  0  0  0  0  0
   -0.6760   -0.2150    0.7380 C   0  0  0  0  0  0  0  0  0  0  0  0
   -0.7960   -1.5450    0.9480 N   0  0  0  0  0  0  0  0  0  0  0  0
   -1.9660   -2.0900    1.2410 C   0  0  0  0  0  0  0  0  0  0  0  0
   -2.0850   -3.5410    1.2220 N   0  0  0  0  0  0  0  0  0  0  0  0
   -3.0540   -1.3320    1.3610 N   0  0  0  0  0  0  0  0  0  0  0  0
   -3.0090    0.0490    1.1570 C   0  0  0  0  0  0  0  0  0  0  0  0
   -4.1610    0.7770    1.2960 O   0  0  0  0  0  0  0  0  0  0  0  0
   -5.3610    1.1550    0.0800 P   0  0  0  0  0  0  0  0  0  0  0  0
   -4.8920    2.4510   -0.9170 O   0  0  0  0  0  0  0  0  0  0  0  0
   -5.8050   -0.2840   -0.7360 O   0  0  0  0  0  0  0  0  0  0  0  0
   -1.8080    0.6100    0.8130 C   0  0  0  0  0  0  0  0  0  0  0  0
   -1.6750    2.0040    0.4940 O   0  0  0  0  0  0  0  0  0  0  0  0
  2  1  1  1
  2  3  1  0
  2 23  1  0
  3  4  1  0
  4  5  1  0
  4 12  1  0
  5  6  2  0
  5  7  1  0
  7  8  1  0
  8  9  1  0
  9 10  1  0
 10 11  1  0
 12 13  2  0
 12 22  1  0
 13 14  1  0
 14 15  1  0
 14 16  2  0
 16 17  1  0
 17 18  1  0
 17 22  2  0
 18 19  1  0
 19 20  1  0
 19 21  1  0
 22 23  1  0
M  END
