
     RDKit          3D

 23 24  0  0  0  0  0  0  0  0999 V2000
   -4.4990   -0.1120    1.6740 N   0  0  0  0  0  0  0  0  0  0  0  0
   -4.0830   -0.2520    0.5210 C   0  0  0  0  0  0  0  0  0  0  0  0
   -2.7320   -0.2900    0.4220 N   0  0  0  0  0  0  0  0  0  0  0  0
   -1.7750    0.1650   -0.4940 C   0  0  0  0  0  0  0  0  0  0  0  0
   -2.3310    0.8030   -1.4130 O   0  0  0  0  0  0  0  0  0  0  0  0
   -0.3780   -0.0870   -0.3230 C   0  0  0  0  0  0  0  0  0  0  0  0
    0.2840   -1.0550    0.3720 C   0  0  0  0  0  0  0  0  0  0  0  0
    1.6150   -0.8070    0.3290 N   0  0  0  0  0  0  0  0  0  0  0  0
    1.7450    0.3400   -0.4120 C   0  0  0  0  0  0  0  0  0  0  0  0
    3.0310    0.8960   -0.6510 N   0  0  0  0  0  0  0  0  0  0  0  0
    4.1250    0.3220   -0.2960 C   0  0  0  0  0  0  0  0  0  0  0  0
    5.3090    0.9570   -0.5820 C   0  0  0  0  0  0  0  0  0  0  0  0
    6.4980    0.3570   -0.2090 C   0  0  0  0  0  0  0  0  0  0  0  0
    7.7370    0.9470   -0.4680 O   0  0  0  0  0  0  0  0  0  0  0  0
    6.4740   -0.7970    0.4050 O   0  0  0  0  0  0  0  0  0  0  0  0
    5.3300   -1.3880    0.6680 C   0  0  0  0  0  0  0  0  0  0  0  0
    5.3640   -2.4970    1.2610 O   0  0  0  0  0  0  0  0  0  0  0  0
    4.1730   -0.8320    0.3210 O   0  0  0  0  0  0  0  0  0  0  0  0
    0.5540    0.7640   -0.7980 N   0  0  0  0  0  0  0  0  0  0  0  0
   -5.0820   -0.7200   -0.4390 N   0  0  0  0  0  0  0  0  0  0  0  0
   -6.6380    0.0750   -0.5320 P   0  0  0  0  0  0  0  0  0  0  0  0
   -7.5250   -0.2540    0.9370 O   0  0  0  0  0  0  0  0  0  0  0  0
   -6.4860    1.7980   -0.7300 O   0  0  0  0  0  0  0  0  0  0  0  0
  1  2  2  0
  2  3  1  0
  2 20  1  0
  3  4  1  0
  4  5  2  0
  4  6  1  0
  6  7  2  0
  6 19  1  0
  7  8  1  0
  8  9  2  0
  9 10  1  0
  9 19  1  0
 10 11  2  3
 11 12  1  0
 11 18  1  0
 12 13  2  0
 13 14  1  0
 13 15  1  0
 15 16  1  0
 16 17  2  0
 16 18  1  0
 20 21  1  0
 21 22  1  0
 21 23  1  0
M  END
