
     RDKit          3D

 22 24  0  0  0  0  0  0  0  0999 V2000
   -0.3030    4.1960    1.6320 N   0  0  0  0  0  0  0  0  0  0  0  0
   -0.9440    3.0280    1.2080 N   0  0  0  0  0  0  0  0  0  0  0  0
   -0.2170    1.7920    1.0630 C   0  0  0  0  0  0  0  0  0  0  0  0
    1.0080    1.8840    1.3500 O   0  0  0  0  0  0  0  0  0  0  0  0
   -0.8450    0.5980    0.6350 N   0  0  0  0  0  0  0  0  0  0  0  0
   -2.2670    0.5640    0.3470 N   0  0  0  0  0  0  0  0  0  0  0  0
   -2.6230   -0.8340    0.2700 C   0  0  0  0  0  0  0  0  0  0  0  0
   -3.5990   -1.8340    0.1980 C   0  0  0  0  0  0  0  0  0  0  0  0
   -2.9590   -3.0560    0.3790 N   0  0  0  0  0  0  0  0  0  0  0  0
   -1.6380   -2.8590    0.5560 C   0  0  0  0  0  0  0  0  0  0  0  0
   -1.5140   -1.5340    0.4720 C   0  0  0  0  0  0  0  0  0  0  0  0
   -0.2910   -0.6990    0.4360 C   0  0  1  0  0  0  0  0  0  0  0  0
    0.3390   -0.8530   -0.8120 O   0  0  0  0  0  0  0  0  0  0  0  0
    1.3650    0.0150   -1.0520 C   0  0  0  0  0  0  0  0  0  0  0  0
    2.0290   -0.2300   -2.3980 C   0  0  0  0  0  0  0  0  0  0  0  0
    3.3980    1.0330   -2.5630 P   0  0  0  0  0  0  0  0  0  0  0  0
    4.5040    0.9160   -1.2330 O   0  0  0  0  0  0  0  0  0  0  0  0
    2.7400    2.6310   -2.5920 O   0  0  0  0  0  0  0  0  0  0  0  0
    0.5350   -1.3630    1.4650 C   0  0  0  0  0  0  0  0  0  0  0  0
    1.3230   -0.7510    2.2050 O   0  0  0  0  0  0  0  0  0  0  0  0
    0.4430   -2.7610    1.6330 O   0  0  0  0  0  0  0  0  0  0  0  0
   -0.3870   -3.6490    0.8530 C   0  0  0  0  0  0  0  0  0  0  0  0
  1  2  1  0
  2  3  1  0
  3  4  2  0
  3  5  1  0
  5  6  1  0
  5 12  1  0
  6  7  1  0
  7  8  2  0
  7 11  1  0
  8  9  1  0
  9 10  1  0
 10 11  2  0
 10 22  1  0
 11 12  1  0
 12 13  1  6
 12 19  1  0
 13 14  1  0
 14 15  1  0
 15 16  1  0
 16 17  1  0
 16 18  1  0
 19 20  2  0
 19 21  1  0
 21 22  1  0
M  END
