
     RDKit          3D

 23 25  0  0  0  0  0  0  0  0999 V2000
    4.9470   -1.0400    0.7250 O   0  0  0  0  0  0  0  0  0  0  0  0
    5.2930   -0.0250    0.0640 C   0  0  0  0  0  0  0  0  0  0  0  0
    6.5370    0.5950    0.2030 O   0  0  0  0  0  0  0  0  0  0  0  0
    4.3430    0.4690   -0.8450 O   0  0  0  0  0  0  0  0  0  0  0  0
    3.1000   -0.1230   -1.0030 C   0  0  0  0  0  0  0  0  0  0  0  0
    2.7290   -1.1950   -1.7210 N   0  0  0  0  0  0  0  0  0  0  0  0
    1.4370   -1.4160   -1.5940 N   0  0  0  0  0  0  0  0  0  0  0  0
    0.8700   -0.5000   -0.7780 C   0  0  0  0  0  0  0  0  0  0  0  0
    1.9150    0.3130   -0.4060 C   0  0  0  0  0  0  0  0  0  0  0  0
    1.3770    1.2330    0.4030 N   0  0  0  0  0  0  0  0  0  0  0  0
    0.0370    0.9930    0.5260 C   0  0  0  0  0  0  0  0  0  0  0  0
   -0.8790    1.7490    1.3150 N   0  0  0  0  0  0  0  0  0  0  0  0
   -1.4150    3.4020    0.9590 P   0  0  0  0  0  0  0  0  0  0  0  0
   -2.2150    3.5840   -0.5390 O   0  0  0  0  0  0  0  0  0  0  0  0
   -0.1550    4.5690    1.1910 O   0  0  0  0  0  0  0  0  0  0  0  0
   -0.2880   -0.0720   -0.1960 N   0  0  0  0  0  0  0  0  0  0  0  0
   -1.5260   -0.7580   -0.4150 C   0  0  1  0  0  0  0  0  0  0  0  0
   -1.5330   -2.1680    0.1970 C   0  0  0  0  0  0  0  0  0  0  0  0
   -2.6060   -2.8650   -0.4630 N   0  0  0  0  0  0  0  0  0  0  0  0
   -3.7850   -2.1560   -0.7740 C   0  0  0  0  0  0  0  0  0  0  0  0
   -4.7840   -2.7330   -1.2450 O   0  0  0  0  0  0  0  0  0  0  0  0
   -3.8590   -0.7760   -0.5600 O   0  0  0  0  0  0  0  0  0  0  0  0
   -2.7500   -0.0800    0.0520 C   0  0  0  0  0  0  0  0  0  0  0  0
  1  2  2  0
  2  3  1  0
  2  4  1  0
  4  5  1  0
  5  6  2  0
  5  9  1  0
  6  7  1  0
  7  8  1  0
  8  9  2  0
  8 16  1  0
  9 10  1  0
 10 11  2  0
 11 12  1  0
 11 16  1  0
 12 13  1  0
 13 14  1  0
 13 15  1  0
 17 16  1  1
 17 18  1  0
 17 23  1  0
 18 19  1  0
 19 20  1  0
 20 21  2  0
 20 22  1  0
 22 23  1  0
M  END
