
     RDKit          3D

 39 43  0  0  0  0  0  0  0  0999 V2000
   -1.0040    4.7610   -0.6640 O   0  0  0  0  0  0  0  0  0  0  0  0
   -1.7460    4.0780    0.0970 C   0  0  0  0  0  0  0  0  0  0  0  0
   -2.5560    4.7880    1.0170 N   0  0  0  0  0  0  0  0  0  0  0  0
   -2.5410    6.2480    1.0900 C   0  0  2  0  0  0  0  0  0  0  0  0
   -2.8370    6.9590    2.3330 C   0  0  0  0  0  0  0  0  0  0  0  0
   -3.8680    6.9600    1.2270 C   0  0  0  0  0  0  0  0  0  0  0  0
   -1.7460    2.6030    0.0070 C   0  0  0  0  0  0  0  0  0  0  0  0
   -2.5300    1.7910    0.7620 C   0  0  0  0  0  0  0  0  0  0  0  0
   -2.4960    0.4160    0.6440 C   0  0  0  0  0  0  0  0  0  0  0  0
   -1.6680   -0.2050   -0.2440 C   0  0  0  0  0  0  0  0  0  0  0  0
   -1.5420   -1.6630   -0.3430 C   0  0  0  0  0  0  0  0  0  0  0  0
   -0.5910   -2.1100   -1.0740 O   0  0  0  0  0  0  0  0  0  0  0  0
   -2.3630   -2.6130    0.2860 N   0  0  0  0  0  0  0  0  0  0  0  0
   -3.6570   -2.5170    0.9290 C   0  0  0  0  0  0  0  0  0  0  0  0
   -4.2660   -3.9210    0.7320 C   0  0  0  0  0  0  0  0  0  0  0  0
   -3.0990   -4.7900    0.5960 C   0  0  0  0  0  0  0  0  0  0  0  0
   -3.0250   -6.1800    0.7010 C   0  0  0  0  0  0  0  0  0  0  0  0
   -1.8090   -6.7960    0.5340 C   0  0  0  0  0  0  0  0  0  0  0  0
   -0.6880   -6.0450    0.2680 C   0  0  0  0  0  0  0  0  0  0  0  0
   -0.7980   -4.6520    0.1700 C   0  0  0  0  0  0  0  0  0  0  0  0
   -2.0070   -4.0170    0.3330 C   0  0  0  0  0  0  0  0  0  0  0  0
   -0.8550    0.6120   -1.0310 C   0  0  0  0  0  0  0  0  0  0  0  0
   -0.0160   -0.0030   -1.9950 N   0  0  0  0  0  0  0  0  0  0  0  0
    1.6960    0.3730   -2.0180 S   0  0  2  0  0  0  0  0  0  0  0  0
    1.8030    1.8670   -2.2260 O   0  0  0  0  0  0  0  0  0  0  0  0
    2.2970   -0.2770   -3.2030 O   0  0  0  0  0  0  0  0  0  0  0  0
    2.3910   -0.1190   -0.4860 C   0  0  0  0  0  0  0  0  0  0  0  0
    3.8340    0.1280   -0.3600 C   0  0  0  0  0  0  0  0  0  0  0  0
    4.2290    1.0430    0.5150 C   0  0  0  0  0  0  0  0  0  0  0  0
    3.3010    1.8120    1.3570 C   0  0  2  0  0  0  0  0  0  0  0  0
    2.3050    2.4600    0.6620 F   0  0  0  0  0  0  0  0  0  0  0  0
    4.0540    2.7390    2.0910 F   0  0  0  0  0  0  0  0  0  0  0  0
    2.6800    1.0210    2.3170 F   0  0  0  0  0  0  0  0  0  0  0  0
    4.8860   -0.5830   -1.0930 C   0  0  0  0  0  0  0  0  0  0  0  0
    4.7220   -1.5470   -1.9630 C   0  0  0  0  0  0  0  0  0  0  0  0
    6.0540   -2.0080   -2.4970 C   0  0  0  0  0  0  0  0  0  0  0  0
    6.9820   -1.1310   -1.7690 C   0  0  0  0  0  0  0  0  0  0  0  0
    6.3380   -0.3150   -0.9670 C   0  0  0  0  0  0  0  0  0  0  0  0
   -0.8970    1.9760   -0.9030 C   0  0  0  0  0  0  0  0  0  0  0  0
  1  2  2  0
  2  3  1  0
  2  7  1  0
  4  3  1  1
  4  5  1  0
  4  6  1  0
  5  6  1  0
  7  8  2  0
  7 39  1  0
  8  9  1  0
  9 10  2  0
 10 11  1  0
 10 22  1  0
 11 12  2  0
 11 13  1  0
 13 14  1  0
 13 21  1  0
 14 15  1  0
 15 16  1  0
 16 17  2  0
 16 21  1  0
 17 18  1  0
 18 19  2  0
 19 20  1  0
 20 21  2  0
 22 23  1  0
 22 39  2  0
 23 24  1  0
 24 25  2  0
 24 26  2  0
 24 27  1  1
 27 28  1  0
 28 29  2  3
 28 34  1  0
 29 30  1  0
 30 31  1  6
 30 32  1  0
 30 33  1  0
 34 35  2  0
 34 38  1  0
 35 36  1  0
 36 37  1  0
 37 38  2  0
M  END
