
     RDKit          3D

 39 43  0  0  0  0  0  0  0  0999 V2000
   -2.9900   -2.6030    2.4810 C   0  0  0  0  0  0  0  0  0  0  0  0
   -3.4990   -1.8130    1.3220 C   0  0  0  0  0  0  0  0  0  0  0  0
   -4.4320   -2.3120    0.4410 C   0  0  0  0  0  0  0  0  0  0  0  0
   -4.9050   -1.5580   -0.6420 C   0  0  0  0  0  0  0  0  0  0  0  0
   -4.3910   -0.2770   -0.7970 C   0  0  0  0  0  0  0  0  0  0  0  0
   -3.4740    0.2620    0.0430 C   0  0  0  0  0  0  0  0  0  0  0  0
   -3.0100    1.5900   -0.0990 N   0  0  0  0  0  0  0  0  0  0  0  0
   -3.9750    2.6450    0.1480 C   0  0  0  0  0  0  0  0  0  0  0  0
   -1.6780    1.9330   -0.3990 C   0  0  0  0  0  0  0  0  0  0  0  0
   -0.7060    1.4270    0.4290 N   0  0  0  0  0  0  0  0  0  0  0  0
    0.5880    1.6670    0.2890 C   0  0  0  0  0  0  0  0  0  0  0  0
    1.6310    1.1520    1.0900 N   0  0  0  0  0  0  0  0  0  0  0  0
    1.4490   -0.1490    1.6910 C   0  0  0  0  0  0  0  0  0  0  0  0
    2.7530   -0.8990    1.8160 C   0  0  0  0  0  0  0  0  0  0  0  0
    3.9270   -0.0580    2.1540 C   0  0  2  0  0  0  0  0  0  0  0  0
    5.1240   -0.8320    1.9450 O   0  0  0  0  0  0  0  0  0  0  0  0
    5.5020   -1.3320    0.7210 C   0  0  0  0  0  0  0  0  0  0  0  0
    5.1150   -2.5660    0.3080 C   0  0  0  0  0  0  0  0  0  0  0  0
    5.5050   -3.0630   -0.9380 C   0  0  0  0  0  0  0  0  0  0  0  0
    6.3000   -2.3130   -1.7860 C   0  0  0  0  0  0  0  0  0  0  0  0
    6.6950   -1.0780   -1.3870 C   0  0  0  0  0  0  0  0  0  0  0  0
    7.5190   -0.2650   -2.2330 C   0  0  0  0  0  0  0  0  0  0  0  0
    8.1920    0.3730   -2.9210 N   0  0  0  0  0  0  0  0  0  0  0  0
    6.2960   -0.5910   -0.1310 C   0  0  0  0  0  0  0  0  0  0  0  0
    3.8640    0.3730    3.5920 C   0  0  1  0  0  0  0  0  0  0  0  0
    2.7560    1.1090    3.9050 F   0  0  0  0  0  0  0  0  0  0  0  0
    3.8370   -0.7620    4.4180 F   0  0  0  0  0  0  0  0  0  0  0  0
    5.0290    1.0420    3.8990 F   0  0  0  0  0  0  0  0  0  0  0  0
    4.0770    1.1580    1.2810 C   0  0  0  0  0  0  0  0  0  0  0  0
    2.8160    1.9570    1.2840 C   0  0  0  0  0  0  0  0  0  0  0  0
    0.9460    2.4640   -0.7470 N   0  0  0  0  0  0  0  0  0  0  0  0
    0.0470    2.9910   -1.5940 C   0  0  0  0  0  0  0  0  0  0  0  0
   -1.3280    2.7320   -1.4400 C   0  0  0  0  0  0  0  0  0  0  0  0
   -2.2250    3.3610   -2.4300 C   0  0  0  0  0  0  0  0  0  0  0  0
   -3.0330   -0.5370    1.1140 C   0  0  0  0  0  0  0  0  0  0  0  0
   -4.8730    0.4680   -1.9850 C   0  0  0  0  0  0  0  0  0  0  0  0
   -4.7650   -0.5320   -3.0860 N   0  0  0  0  0  0  0  0  0  0  0  0
   -5.7720   -1.5400   -2.9400 C   0  0  0  0  0  0  0  0  0  0  0  0
   -5.9270   -2.0970   -1.5600 C   0  0  0  0  0  0  0  0  0  0  0  0
  1  2  1  0
  2  3  2  0
  2 35  1  0
  3  4  1  0
  4  5  2  0
  4 39  1  0
  5  6  1  0
  5 36  1  0
  6  7  1  0
  6 35  2  0
  7  8  1  0
  7  9  1  0
  9 10  2  0
  9 33  1  0
 10 11  1  0
 11 12  1  0
 11 31  2  0
 12 13  1  0
 12 30  1  0
 13 14  1  0
 14 15  1  0
 15 16  1  1
 15 25  1  0
 15 29  1  0
 16 17  1  0
 17 18  2  0
 17 24  1  0
 18 19  1  0
 19 20  2  0
 20 21  1  0
 21 22  1  0
 21 24  2  0
 22 23  3  0
 25 26  1  6
 25 27  1  0
 25 28  1  0
 29 30  1  0
 31 32  1  0
 32 33  2  0
 33 34  1  0
 36 37  1  0
 37 38  1  0
 38 39  1  0
M  END
