
     RDKit          3D

 39 43  0  0  0  0  0  0  0  0999 V2000
    4.5080   -4.1800    0.4330 C   0  0  0  0  0  0  0  0  0  0  0  0
    4.3200   -2.9410   -0.1590 O   0  0  0  0  0  0  0  0  0  0  0  0
    3.4660   -1.9860    0.3410 C   0  0  0  0  0  0  0  0  0  0  0  0
    2.6930   -2.1620    1.4570 C   0  0  0  0  0  0  0  0  0  0  0  0
    1.8670   -1.1620    1.9020 C   0  0  0  0  0  0  0  0  0  0  0  0
    1.1490   -1.3360    3.0330 F   0  0  0  0  0  0  0  0  0  0  0  0
    1.7680    0.0810    1.2430 C   0  0  0  0  0  0  0  0  0  0  0  0
    0.6120    1.2490    1.8200 S   0  0  1  0  0  0  0  0  0  0  0  0
   -0.0790    0.6670    3.0520 O   0  0  0  0  0  0  0  0  0  0  0  0
    1.3310    2.5240    2.2430 O   0  0  0  0  0  0  0  0  0  0  0  0
   -0.6030    1.5780    0.6970 N   0  0  0  0  0  0  0  0  0  0  0  0
   -1.5470    0.7690    0.1000 C   0  0  0  0  0  0  0  0  0  0  0  0
   -1.2480   -0.2150   -0.8050 C   0  0  0  0  0  0  0  0  0  0  0  0
   -2.2490   -0.8520   -1.5420 C   0  0  0  0  0  0  0  0  0  0  0  0
   -1.9040   -1.8080   -2.4610 F   0  0  0  0  0  0  0  0  0  0  0  0
   -3.5670   -0.5160   -1.3950 C   0  0  0  0  0  0  0  0  0  0  0  0
   -3.9060    0.4590   -0.4990 C   0  0  0  0  0  0  0  0  0  0  0  0
   -2.9240    1.0770    0.2230 C   0  0  0  0  0  0  0  0  0  0  0  0
   -5.3800    0.6610   -0.5740 N   0  0  0  0  0  0  0  0  0  0  0  0
   -6.1210    1.1850    0.5220 C   0  0  0  0  0  0  0  0  0  0  0  0
   -7.3880    0.4070    0.7640 C   0  0  2  0  0  0  0  0  0  0  0  0
   -8.5020    1.1830   -0.0880 C   0  0  0  0  0  0  0  0  0  0  0  0
   -9.7380    0.5020    0.4430 C   0  0  0  0  0  0  0  0  0  0  0  0
   -9.2690    0.0440    1.8190 C   0  0  0  0  0  0  0  0  0  0  0  0
   -8.0150    0.7110    1.9980 O   0  0  0  0  0  0  0  0  0  0  0  0
   -5.6200    0.4080   -1.9700 C   0  0  0  0  0  0  0  0  0  0  0  0
   -4.8220   -0.9490   -2.0610 C   0  0  0  0  0  0  0  0  0  0  0  0
    2.5460    0.2530    0.1280 C   0  0  0  0  0  0  0  0  0  0  0  0
    2.4740    1.4420   -0.5470 F   0  0  0  0  0  0  0  0  0  0  0  0
    3.3870   -0.7620   -0.3340 C   0  0  0  0  0  0  0  0  0  0  0  0
    4.0470   -0.7290   -1.6430 C   0  0  0  0  0  0  0  0  0  0  0  0
    5.4590   -0.8720   -1.6360 N   0  0  0  0  0  0  0  0  0  0  0  0
    6.4720   -0.1060   -1.1130 C   0  0  0  0  0  0  0  0  0  0  0  0
    7.7830   -0.5950   -1.0830 C   0  0  0  0  0  0  0  0  0  0  0  0
    8.7890    0.1790   -0.5710 C   0  0  0  0  0  0  0  0  0  0  0  0
    8.6030    1.4420   -0.0730 C   0  0  0  0  0  0  0  0  0  0  0  0
    9.7390    2.2440    0.4790 C   0  0  0  0  0  0  0  0  0  0  0  0
    7.3010    1.9420   -0.1010 C   0  0  0  0  0  0  0  0  0  0  0  0
    6.2880    1.1730   -0.6100 C   0  0  0  0  0  0  0  0  0  0  0  0
  1  2  1  0
  2  3  1  0
  3  4  2  0
  3 30  1  0
  4  5  1  0
  5  6  1  0
  5  7  2  0
  7  8  1  0
  7 28  1  0
  8  9  2  0
  8 10  2  0
  8 11  1  6
 11 12  1  0
 12 13  2  0
 12 18  1  0
 13 14  1  0
 14 15  1  0
 14 16  2  0
 16 17  1  0
 16 27  1  0
 17 18  2  0
 17 19  1  0
 19 20  1  0
 19 26  1  0
 21 20  1  1
 21 22  1  0
 21 25  1  0
 22 23  1  0
 23 24  1  0
 24 25  1  0
 26 27  1  0
 28 29  1  0
 28 30  2  0
 30 31  1  0
 31 32  1  0
 32 33  1  0
 33 34  2  0
 33 39  1  0
 34 35  1  0
 35 36  2  0
 36 37  1  0
 36 38  1  0
 38 39  2  0
M  END
