
     RDKit          3D

 39 43  0  0  0  0  0  0  0  0999 V2000
   -5.5620   -4.1860   -1.9550 C   0  0  0  0  0  0  0  0  0  0  0  0
   -4.6970   -3.1200   -1.6590 O   0  0  0  0  0  0  0  0  0  0  0  0
   -4.8460   -1.8980   -2.2560 C   0  0  0  0  0  0  0  0  0  0  0  0
   -5.8700   -1.7110   -3.1670 C   0  0  0  0  0  0  0  0  0  0  0  0
   -6.0020   -0.4820   -3.7520 C   0  0  0  0  0  0  0  0  0  0  0  0
   -5.1270    0.5570   -3.4390 C   0  0  0  0  0  0  0  0  0  0  0  0
   -4.1030    0.3390   -2.5150 C   0  0  0  0  0  0  0  0  0  0  0  0
   -3.2370    1.4310   -2.2310 C   0  0  0  0  0  0  0  0  0  0  0  0
   -3.4600    2.6070   -2.8700 O   0  0  0  0  0  0  0  0  0  0  0  0
   -2.2320    1.1940   -1.3160 C   0  0  0  0  0  0  0  0  0  0  0  0
   -1.3460    2.2240   -0.9910 C   0  0  0  0  0  0  0  0  0  0  0  0
   -1.5350    3.4300   -1.6150 O   0  0  0  0  0  0  0  0  0  0  0  0
   -0.3330    2.0340   -0.0880 C   0  0  0  0  0  0  0  0  0  0  0  0
   -0.1570    0.7970    0.5370 C   0  0  0  0  0  0  0  0  0  0  0  0
   -1.0280   -0.2090    0.2140 C   0  0  0  0  0  0  0  0  0  0  0  0
   -0.8980   -1.4340    0.7940 O   0  0  0  0  0  0  0  0  0  0  0  0
   -2.0660   -0.0360   -0.7020 C   0  0  0  0  0  0  0  0  0  0  0  0
   -2.9220   -1.0810   -0.9980 C   0  0  0  0  0  0  0  0  0  0  0  0
   -2.8870   -2.3290   -0.4840 O   0  0  0  0  0  0  0  0  0  0  0  0
   -3.9580   -0.8610   -1.9310 C   0  0  0  0  0  0  0  0  0  0  0  0
    0.9520    0.6740    1.4920 C   0  0  1  0  0  0  0  0  0  0  0  0
    2.1610    0.3400    0.8930 O   0  0  0  0  0  0  0  0  0  0  0  0
    2.7250   -0.8350    1.3020 C   0  0  1  0  0  0  0  0  0  0  0  0
    2.7620   -1.7950    0.1510 C   0  0  0  0  0  0  0  0  0  0  0  0
    4.0480   -1.7050   -0.6400 C   0  0  2  0  0  0  0  0  0  0  0  0
    4.0560   -2.7280   -1.6690 N   0  0  0  0  0  0  0  0  0  0  0  0
    5.1910   -1.9370    0.2940 C   0  0  2  0  0  0  0  0  0  0  0  0
    5.5490   -3.3030    0.2140 O   0  0  0  0  0  0  0  0  0  0  0  0
    4.8460   -1.6740    1.7330 C   0  0  2  0  0  0  0  0  0  0  0  0
    4.4360   -2.9360    2.4690 C   0  0  0  0  0  0  0  0  0  0  0  0
    3.9530   -0.6520    1.9180 O   0  0  0  0  0  0  0  0  0  0  0  0
    1.0890    1.8780    2.3970 C   0  0  0  0  0  0  0  0  0  0  0  0
    0.9530    3.1820    1.7250 C   0  0  2  0  0  0  0  0  0  0  0  0
    2.1250    3.9670    1.8470 O   0  0  0  0  0  0  0  0  0  0  0  0
   -0.1330    3.9520    2.3810 C   0  0  0  0  0  0  0  0  0  0  0  0
   -1.2480    3.4760    2.4050 O   0  0  0  0  0  0  0  0  0  0  0  0
    0.0870    5.2780    3.0070 C   0  0  0  0  0  0  0  0  0  0  0  0
   -1.0540    5.8090    3.5530 O   0  0  0  0  0  0  0  0  0  0  0  0
    0.5950    3.0980    0.2520 C   0  0  0  0  0  0  0  0  0  0  0  0
  1  2  1  0
  2  3  1  0
  3  4  2  0
  3 20  1  0
  4  5  1  0
  5  6  2  0
  6  7  1  0
  7  8  2  0
  7 20  1  0
  8  9  1  0
  8 10  1  0
 10 11  2  0
 10 17  1  0
 11 12  1  0
 11 13  1  0
 13 14  2  0
 13 39  1  0
 14 15  1  0
 14 21  1  0
 15 16  1  0
 15 17  2  0
 17 18  1  0
 18 19  1  0
 18 20  2  0
 21 22  1  6
 21 32  1  0
 23 22  1  6
 23 24  1  0
 23 31  1  0
 24 25  1  0
 25 26  1  6
 25 27  1  0
 27 28  1  1
 27 29  1  0
 29 30  1  6
 29 31  1  0
 32 33  1  0
 33 34  1  6
 33 35  1  0
 33 39  1  0
 35 36  2  0
 35 37  1  0
 37 38  1  0
M  CHG  1  26   1
M  END
