
     RDKit          3D

 39 43  0  0  0  0  0  0  0  0999 V2000
   -7.9730   -4.0820   -0.2460 C   0  0  0  0  0  0  0  0  0  0  0  0
   -7.0860   -2.8970   -0.1650 C   0  0  0  0  0  0  0  0  0  0  0  0
   -7.5270   -1.6490    0.1800 C   0  0  0  0  0  0  0  0  0  0  0  0
   -6.6800   -0.5820    0.2420 C   0  0  0  0  0  0  0  0  0  0  0  0
   -5.3070   -0.7510   -0.0550 C   0  0  0  0  0  0  0  0  0  0  0  0
   -4.4380    0.4020    0.0160 C   0  0  0  0  0  0  0  0  0  0  0  0
   -4.9540    1.5340    0.3480 O   0  0  0  0  0  0  0  0  0  0  0  0
   -3.0500    0.3710   -0.2600 N   0  0  0  0  0  0  0  0  0  0  0  0
   -2.3070   -0.7900   -0.6250 C   0  0  0  0  0  0  0  0  0  0  0  0
   -0.9410   -0.8750    0.0920 C   0  0  0  0  0  0  0  0  0  0  0  0
   -0.2540    0.3300   -0.3180 N   0  0  0  0  0  0  0  0  0  0  0  0
    1.0350    0.3190   -0.9090 C   0  0  0  0  0  0  0  0  0  0  0  0
    2.1180   -0.2490   -0.0830 C   0  0  0  0  0  0  0  0  0  0  0  0
    2.0340   -0.4980    1.2700 C   0  0  0  0  0  0  0  0  0  0  0  0
    3.1200   -1.0430    1.9620 C   0  0  0  0  0  0  0  0  0  0  0  0
    4.2990   -1.3450    1.3070 C   0  0  0  0  0  0  0  0  0  0  0  0
    4.3360   -1.0810   -0.0380 C   0  0  0  0  0  0  0  0  0  0  0  0
    3.2780   -0.5510   -0.7030 N   0  0  0  0  0  0  0  0  0  0  0  0
    5.6130   -1.4100   -0.7670 C   0  0  0  0  0  0  0  0  0  0  0  0
    6.2360   -2.5750   -0.0680 C   0  0  1  0  0  0  0  0  0  0  0  0
    7.2400   -3.1660   -0.8610 N   0  0  0  0  0  0  0  0  0  0  0  0
    8.3770   -2.3930   -1.2030 C   0  0  1  0  0  0  0  0  0  0  0  0
    8.0570   -1.2750   -1.9350 F   0  0  0  0  0  0  0  0  0  0  0  0
    9.2020   -2.1030   -0.1330 F   0  0  0  0  0  0  0  0  0  0  0  0
    9.1580   -3.1870   -2.0590 F   0  0  0  0  0  0  0  0  0  0  0  0
    6.6350   -2.2420    1.3540 C   0  0  0  0  0  0  0  0  0  0  0  0
    5.3820   -1.9130    2.1230 C   0  0  0  0  0  0  0  0  0  0  0  0
   -0.9400    1.5430   -0.1020 C   0  0  0  0  0  0  0  0  0  0  0  0
   -0.2470    2.6420    0.1810 N   0  0  0  0  0  0  0  0  0  0  0  0
   -0.8790    3.8740    0.4050 C   0  0  0  0  0  0  0  0  0  0  0  0
   -1.2130    4.2840    1.6790 C   0  0  0  0  0  0  0  0  0  0  0  0
   -1.8300    5.4890    1.8740 C   0  0  0  0  0  0  0  0  0  0  0  0
   -2.1200    6.2930    0.8140 C   0  0  0  0  0  0  0  0  0  0  0  0
   -1.8020    5.9160   -0.4690 C   0  0  0  0  0  0  0  0  0  0  0  0
   -1.1810    4.7020   -0.6580 C   0  0  0  0  0  0  0  0  0  0  0  0
   -0.8540    4.3350   -2.0670 C   0  0  0  0  0  0  0  0  0  0  0  0
   -2.3910    1.6810   -0.1700 C   0  0  0  0  0  0  0  0  0  0  0  0
   -4.9620   -1.9940   -0.3800 N   0  0  0  0  0  0  0  0  0  0  0  0
   -5.7390   -3.0640   -0.4550 C   0  0  0  0  0  0  0  0  0  0  0  0
  1  2  1  0
  2  3  2  0
  2 39  1  0
  3  4  1  0
  4  5  2  0
  5  6  1  0
  5 38  1  0
  6  7  2  0
  6  8  1  0
  8  9  1  0
  8 37  1  0
  9 10  1  0
 10 11  1  0
 11 12  1  0
 11 28  1  0
 12 13  1  0
 13 14  2  0
 13 18  1  0
 14 15  1  0
 15 16  2  0
 16 17  1  0
 16 27  1  0
 17 18  2  0
 17 19  1  0
 19 20  1  0
 20 21  1  6
 20 26  1  0
 21 22  1  0
 22 23  1  6
 22 24  1  0
 22 25  1  0
 26 27  1  0
 28 29  2  3
 28 37  1  0
 29 30  1  0
 30 31  2  0
 30 35  1  0
 31 32  1  0
 32 33  2  0
 33 34  1  0
 34 35  2  0
 35 36  1  0
 38 39  2  0
M  END
