
     RDKit          3D

 39 44  0  0  0  0  0  0  0  0999 V2000
    6.5500   -0.8440    2.1870 C   0  0  0  0  0  0  0  0  0  0  0  0
    6.4860   -0.9110    0.9030 C   0  0  0  0  0  0  0  0  0  0  0  0
    7.7110   -1.4780    0.1830 C   0  0  0  0  0  0  0  0  0  0  0  0
    8.1330   -0.5160   -0.8390 C   0  0  0  0  0  0  0  0  0  0  0  0
    7.4680    0.2460   -1.6560 C   0  0  0  0  0  0  0  0  0  0  0  0
    6.0660    0.4400   -1.8850 N   0  0  0  0  0  0  0  0  0  0  0  0
    5.1560    0.0920   -1.0230 C   0  0  0  0  0  0  0  0  0  0  0  0
    3.7940    0.3760   -1.4850 C   0  0  0  0  0  0  0  0  0  0  0  0
    2.7380    0.0580   -0.7490 C   0  0  0  0  0  0  0  0  0  0  0  0
    1.3980    0.3930   -1.2920 C   0  0  0  0  0  0  0  0  0  0  0  0
    0.4420    0.6970   -0.2830 N   0  0  0  0  0  0  0  0  0  0  0  0
   -0.7580   -0.0000   -0.2700 N   0  0  0  0  0  0  0  0  0  0  0  0
   -1.5210    0.4980    0.6590 C   0  0  0  0  0  0  0  0  0  0  0  0
   -2.9130    0.0870    1.1240 C   0  0  0  0  0  0  0  0  0  0  0  0
   -3.8070    0.2760    0.0860 N   0  0  0  0  0  0  0  0  0  0  0  0
   -3.8220    1.7180   -0.3040 C   0  0  0  0  0  0  0  0  0  0  0  0
   -3.6690    1.8840   -1.7640 C   0  0  0  0  0  0  0  0  0  0  0  0
   -3.2570    0.6700   -2.4440 N   0  0  0  0  0  0  0  0  0  0  0  0
   -3.9850   -0.5200   -2.1390 C   0  0  0  0  0  0  0  0  0  0  0  0
   -4.1090   -1.4550   -2.9260 O   0  0  0  0  0  0  0  0  0  0  0  0
   -4.5670   -0.4700   -0.7380 C   0  0  1  0  0  0  0  0  0  0  0  0
   -5.2390   -1.6780   -0.2960 C   0  0  0  0  0  0  0  0  0  0  0  0
   -4.8160   -2.9570   -0.5180 C   0  0  0  0  0  0  0  0  0  0  0  0
   -5.5620   -4.0100   -0.0390 C   0  0  0  0  0  0  0  0  0  0  0  0
   -6.7340   -3.8230    0.6670 C   0  0  0  0  0  0  0  0  0  0  0  0
   -7.1770   -2.5600    0.8990 C   0  0  0  0  0  0  0  0  0  0  0  0
   -8.3140   -2.2980    1.5840 F   0  0  0  0  0  0  0  0  0  0  0  0
   -6.4400   -1.5210    0.4240 C   0  0  0  0  0  0  0  0  0  0  0  0
   -6.9080   -0.2550    0.6620 F   0  0  0  0  0  0  0  0  0  0  0  0
   -0.8440    1.5200    1.2740 C   0  0  0  0  0  0  0  0  0  0  0  0
   -1.1670    2.4070    2.2750 C   0  0  0  0  0  0  0  0  0  0  0  0
   -0.2660    3.4110    2.6570 C   0  0  0  0  0  0  0  0  0  0  0  0
    0.9570    3.5250    2.0330 C   0  0  0  0  0  0  0  0  0  0  0  0
    1.8120    4.5290    2.4080 F   0  0  0  0  0  0  0  0  0  0  0  0
    1.2790    2.6390    1.0370 C   0  0  0  0  0  0  0  0  0  0  0  0
    0.3770    1.6270    0.6600 C   0  0  0  0  0  0  0  0  0  0  0  0
    2.9350   -0.5650    0.5650 C   0  0  0  0  0  0  0  0  0  0  0  0
    4.1310   -0.8210    1.0220 C   0  0  0  0  0  0  0  0  0  0  0  0
    5.3000   -0.5100    0.2460 N   0  0  0  0  0  0  0  0  0  0  0  0
  1  2  2  0
  2  3  1  0
  2 39  1  0
  3  4  1  0
  4  5  2  0
  5  6  1  0
  6  7  2  0
  7  8  1  0
  7 39  1  0
  8  9  2  0
  9 10  1  0
  9 37  1  0
 10 11  1  0
 11 12  1  0
 11 36  1  0
 12 13  2  0
 13 14  1  0
 13 30  1  0
 14 15  1  0
 15 16  1  0
 15 21  1  0
 16 17  1  0
 17 18  1  0
 18 19  1  0
 19 20  2  0
 19 21  1  0
 21 22  1  1
 22 23  2  0
 22 28  1  0
 23 24  1  0
 24 25  2  0
 25 26  1  0
 26 27  1  0
 26 28  2  0
 28 29  1  0
 30 31  2  0
 30 36  1  0
 31 32  1  0
 32 33  2  0
 33 34  1  0
 33 35  1  0
 35 36  2  0
 37 38  2  0
 38 39  1  0
M  END
