
     RDKit          3D

 38 43  0  0  0  0  0  0  0  0999 V2000
   -1.6630   -1.8940    4.1730 O   0  0  0  0  0  0  0  0  0  0  0  0
   -0.8940   -1.3830    3.3160 C   0  0  0  0  0  0  0  0  0  0  0  0
   -1.3550   -0.2780    2.5010 C   0  0  0  0  0  0  0  0  0  0  0  0
   -0.5720    0.3290    1.6310 C   0  0  0  0  0  0  0  0  0  0  0  0
   -0.9680    1.4620    0.7620 C   0  0  0  0  0  0  0  0  0  0  0  0
   -2.4380    1.6650    0.7480 C   0  0  2  0  0  0  0  0  0  0  0  0
   -3.0420    0.4840    0.1930 N   0  0  0  0  0  0  0  0  0  0  0  0
   -4.0580    0.5450   -0.7850 C   0  0  0  0  0  0  0  0  0  0  0  0
   -4.6340   -0.7190   -1.1990 N   0  0  0  0  0  0  0  0  0  0  0  0
   -5.2490   -0.7590   -2.4990 C   0  0  0  0  0  0  0  0  0  0  0  0
   -6.5330   -1.5190   -2.3380 C   0  0  0  0  0  0  0  0  0  0  0  0
   -6.5770   -2.5430   -1.4950 C   0  0  0  0  0  0  0  0  0  0  0  0
   -5.4250   -2.9840   -0.6970 C   0  0  0  0  0  0  0  0  0  0  0  0
   -4.5560   -1.8380   -0.2930 C   0  0  0  0  0  0  0  0  0  0  0  0
   -4.4630    1.6380   -1.2930 N   0  0  0  0  0  0  0  0  0  0  0  0
   -3.8730    2.8540   -0.8560 C   0  0  0  0  0  0  0  0  0  0  0  0
   -4.3680    3.9980   -1.4950 C   0  0  0  0  0  0  0  0  0  0  0  0
   -3.8430    5.2070   -1.1510 C   0  0  0  0  0  0  0  0  0  0  0  0
   -2.8530    5.2430   -0.1940 C   0  0  0  0  0  0  0  0  0  0  0  0
   -2.3540    4.1210    0.4450 C   0  0  0  0  0  0  0  0  0  0  0  0
   -1.3880    4.2760    1.3800 F   0  0  0  0  0  0  0  0  0  0  0  0
   -2.8920    2.8790    0.0930 C   0  0  0  0  0  0  0  0  0  0  0  0
    0.7660   -0.1960    1.5410 N   0  0  0  0  0  0  0  0  0  0  0  0
    1.2370   -1.1560    2.1980 C   0  0  0  0  0  0  0  0  0  0  0  0
    2.6460   -1.6040    2.0140 C   0  0  0  0  0  0  0  0  0  0  0  0
    3.3680   -0.8850    1.0570 C   0  0  0  0  0  0  0  0  0  0  0  0
    4.6790   -1.1780    0.7660 C   0  0  0  0  0  0  0  0  0  0  0  0
    5.4360   -0.4720   -0.2000 N   0  0  0  0  0  0  0  0  0  0  0  0
    4.8260    0.4960   -1.0500 C   0  0  0  0  0  0  0  0  0  0  0  0
    5.5850    0.6990   -2.3440 C   0  0  0  0  0  0  0  0  0  0  0  0
    6.9940    0.8260   -2.1980 N   0  0  0  0  0  0  0  0  0  0  0  0
    7.5390    0.4600   -0.9320 C   0  0  0  0  0  0  0  0  0  0  0  0
    6.8470   -0.7380   -0.3110 C   0  0  0  0  0  0  0  0  0  0  0  0
    5.2430   -2.2330    1.4820 C   0  0  0  0  0  0  0  0  0  0  0  0
    4.5350   -2.9380    2.4210 C   0  0  0  0  0  0  0  0  0  0  0  0
    3.2130   -2.6280    2.7010 C   0  0  0  0  0  0  0  0  0  0  0  0
    2.5240   -3.3150    3.6230 F   0  0  0  0  0  0  0  0  0  0  0  0
    0.4510   -1.9300    3.1710 C   0  0  0  0  0  0  0  0  0  0  0  0
  1  2  2  0
  2  3  1  0
  2 38  1  0
  3  4  2  0
  4  5  1  0
  4 23  1  0
  6  5  1  6
  6  7  1  0
  6 22  1  0
  7  8  1  0
  8  9  1  0
  8 15  2  0
  9 10  1  0
  9 14  1  0
 10 11  1  0
 11 12  2  0
 12 13  1  0
 13 14  1  0
 15 16  1  0
 16 17  2  0
 16 22  1  0
 17 18  1  0
 18 19  2  0
 19 20  1  0
 20 21  1  0
 20 22  2  0
 23 24  2  0
 24 25  1  0
 24 38  1  0
 25 26  2  0
 25 36  1  0
 26 27  1  0
 27 28  1  0
 27 34  2  0
 28 29  1  0
 28 33  1  0
 29 30  1  0
 30 31  1  0
 31 32  1  0
 32 33  1  0
 34 35  1  0
 35 36  2  0
 36 37  1  0
M  END
