
     RDKit          3D

 12 11  0  0  0  0  0  0  0  0999 V2000
    3.3160    0.3220    1.9180 O   0  0  0  0  0  0  0  0  0  0  0  0
    2.8580    1.4430    1.2490 C   0  0  0  0  0  0  0  0  0  0  0  0
    1.8170    1.0520    0.4040 O   0  0  0  0  0  0  0  0  0  0  0  0
    2.2620    0.1110   -0.5150 C   0  0  0  0  0  0  0  0  0  0  0  0
    1.0910   -0.2700   -1.3970 C   0  0  1  0  0  0  0  0  0  0  0  0
    1.4950   -1.2140   -2.3350 O   0  0  0  0  0  0  0  0  0  0  0  0
    0.0690   -0.7090   -0.5870 O   0  0  0  0  0  0  0  0  0  0  0  0
   -1.0640    0.1150   -0.6520 C   0  0  0  0  0  0  0  0  0  0  0  0
   -2.0810   -0.5040    0.2870 C   0  0  2  0  0  0  0  0  0  0  0  0
   -2.3490   -1.7920   -0.1610 O   0  0  0  0  0  0  0  0  0  0  0  0
   -3.3480    0.3090    0.3600 C   0  0  0  0  0  0  0  0  0  0  0  0
   -4.2010   -0.3460    1.2550 O   0  0  0  0  0  0  0  0  0  0  0  0
  1  2  1  0
  2  3  1  0
  3  4  1  0
  4  5  1  0
  5  6  1  6
  5  7  1  0
  7  8  1  0
  8  9  1  0
  9 10  1  6
  9 11  1  0
 11 12  1  0
M  END
