
     RDKit          3D

 12 11  0  0  0  0  0  0  0  0999 V2000
    1.1250   -2.5390    0.5480 O   0  0  0  0  0  0  0  0  0  0  0  0
    0.6830   -1.4080    0.2410 C   0  0  0  0  0  0  0  0  0  0  0  0
   -0.8000   -1.2080    0.2100 C   0  0  0  0  0  0  0  0  0  0  0  0
   -1.1160    0.1010   -0.1480 O   0  0  0  0  0  0  0  0  0  0  0  0
   -2.4800    0.2340   -0.1630 C   0  0  2  0  0  0  0  0  0  0  0  0
   -2.8380    0.6630   -1.4600 O   0  0  0  0  0  0  0  0  0  0  0  0
   -2.9840    1.3030    0.7810 C   0  0  0  0  0  0  0  0  0  0  0  0
   -4.3740    1.3410    0.6750 O   0  0  0  0  0  0  0  0  0  0  0  0
    1.5590   -0.4060   -0.0510 O   0  0  0  0  0  0  0  0  0  0  0  0
    2.9830   -0.5620   -0.0300 C   0  0  0  0  0  0  0  0  0  0  0  0
    3.5330    0.8160   -0.4210 C   0  0  0  0  0  0  0  0  0  0  0  0
    4.9100    0.8280   -0.4470 O   0  0  0  0  0  0  0  0  0  0  0  0
  1  2  2  0
  2  3  1  0
  2  9  1  0
  3  4  1  0
  4  5  1  0
  5  6  1  6
  5  7  1  0
  7  8  1  0
  9 10  1  0
 10 11  1  0
 11 12  1  0
M  END
