
     RDKit          3D

 19 21  0  0  0  0  0  0  0  0999 V2000
   -3.4670   -2.0340   -1.1570 N   0  0  0  0  0  0  0  0  0  0  0  0
   -3.0780   -1.0850   -0.1610 C   0  0  1  0  0  0  0  0  0  0  0  0
   -2.2080   -1.6810    0.9250 C   0  0  0  0  0  0  0  0  0  0  0  0
   -1.7210   -0.3970    1.6090 C   0  0  0  0  0  0  0  0  0  0  0  0
   -1.3800    0.4040    0.4530 N   0  0  0  0  0  0  0  0  0  0  0  0
   -0.4500    1.4730    0.4420 C   0  0  0  0  0  0  0  0  0  0  0  0
   -0.8800    2.5720   -0.0810 N   0  0  0  0  0  0  0  0  0  0  0  0
   -0.2650    3.8120   -0.2660 N   0  0  0  0  0  0  0  0  0  0  0  0
    0.8740    4.2800    0.4290 C   0  0  0  0  0  0  0  0  0  0  0  0
    1.7930    3.5820    1.1050 C   0  0  0  0  0  0  0  0  0  0  0  0
    1.8380    2.1220    1.2890 C   0  0  0  0  0  0  0  0  0  0  0  0
    0.8720    1.2630    0.9980 C   0  0  0  0  0  0  0  0  0  0  0  0
    1.1920   -0.0440    1.2760 O   0  0  0  0  0  0  0  0  0  0  0  0
    1.4970   -0.9440    0.2300 C   0  0  1  0  0  0  0  0  0  0  0  0
    2.7080   -0.4240   -0.5410 C   0  0  0  0  0  0  0  0  0  0  0  0
    3.3430   -1.7480   -0.9630 C   0  0  0  0  0  0  0  0  0  0  0  0
    3.2400   -2.4840    0.2100 O   0  0  0  0  0  0  0  0  0  0  0  0
    1.9960   -2.2610    0.7430 C   0  0  0  0  0  0  0  0  0  0  0  0
   -2.1170   -0.0240   -0.7180 C   0  0  0  0  0  0  0  0  0  0  0  0
  2  1  1  6
  2  3  1  0
  2 19  1  0
  3  4  1  0
  4  5  1  0
  5  6  1  0
  5 19  1  0
  6  7  2  0
  6 12  1  0
  7  8  1  0
  8  9  1  0
  9 10  2  0
 10 11  1  0
 11 12  2  0
 12 13  1  0
 14 13  1  1
 14 15  1  0
 14 18  1  0
 15 16  1  0
 16 17  1  0
 17 18  1  0
M  CHG  1   1   1
M  END
