
     RDKit          3D

 12 11  0  0  0  0  0  0  0  0999 V2000
    4.6540    0.4220    0.0170 O   0  0  0  0  0  0  0  0  0  0  0  0
    3.8220   -0.6570   -0.2700 C   0  0  0  0  0  0  0  0  0  0  0  0
    2.4460   -0.3540    0.2920 C   0  0  0  0  0  0  0  0  0  0  0  0
    1.9930    0.8200   -0.3340 O   0  0  0  0  0  0  0  0  0  0  0  0
    0.7230    1.1710    0.1310 C   0  0  0  0  0  0  0  0  0  0  0  0
   -0.1310    0.1110   -0.1680 O   0  0  0  0  0  0  0  0  0  0  0  0
   -1.4250    0.3350    0.2430 C   0  0  2  0  0  0  0  0  0  0  0  0
   -1.9360   -0.7730    1.1480 C   0  0  0  0  0  0  0  0  0  0  0  0
   -3.2400   -0.4720    1.5150 O   0  0  0  0  0  0  0  0  0  0  0  0
   -2.3100    0.2890   -1.0100 C   0  0  2  0  0  0  0  0  0  0  0  0
   -3.6400    0.5160   -0.6230 O   0  0  0  0  0  0  0  0  0  0  0  0
   -2.2150   -0.9460   -1.6330 O   0  0  0  0  0  0  0  0  0  0  0  0
  1  2  1  0
  2  3  1  0
  3  4  1  0
  4  5  1  0
  5  6  1  0
  6  7  1  0
  7  8  1  1
  7 10  1  0
  8  9  1  0
 10 11  1  1
 10 12  1  0
M  END
