
     RDKit          3D

 12 11  0  0  0  0  0  0  0  0999 V2000
    5.0280    0.0850    0.8170 O   0  0  0  0  0  0  0  0  0  0  0  0
    3.6360    0.1630    0.7130 C   0  0  0  0  0  0  0  0  0  0  0  0
    3.3410    0.3290   -0.6310 O   0  0  0  0  0  0  0  0  0  0  0  0
    1.9670    0.4210   -0.8640 C   0  0  0  0  0  0  0  0  0  0  0  0
    1.2890   -0.6970   -0.4540 O   0  0  0  0  0  0  0  0  0  0  0  0
   -0.0680   -0.6400   -0.6760 C   0  0  0  0  0  0  0  0  0  0  0  0
   -0.7870    0.4720    0.0120 C   0  0  2  0  0  0  0  0  0  0  0  0
   -0.6010    0.3490    1.3950 O   0  0  0  0  0  0  0  0  0  0  0  0
   -2.2910    0.3940   -0.2790 C   0  0  1  0  0  0  0  0  0  0  0  0
   -2.5620    0.4990   -1.6300 O   0  0  0  0  0  0  0  0  0  0  0  0
   -2.8850   -0.8340    0.3320 C   0  0  0  0  0  0  0  0  0  0  0  0
   -4.2840   -0.8230    0.1880 O   0  0  0  0  0  0  0  0  0  0  0  0
  1  2  1  0
  2  3  1  0
  3  4  1  0
  4  5  1  0
  5  6  1  0
  6  7  1  0
  7  8  1  1
  7  9  1  0
  9 10  1  6
  9 11  1  0
 11 12  1  0
M  END
