
     RDKit          3D

 12 11  0  0  0  0  0  0  0  0999 V2000
    3.2640    1.2550    1.9050 O   0  0  0  0  0  0  0  0  0  0  0  0
    2.1860    0.6660    1.1990 C   0  0  0  0  0  0  0  0  0  0  0  0
    2.5310    0.7590   -0.2400 C   0  0  0  0  0  0  0  0  0  0  0  0
    1.6660    0.2640   -1.1570 O   0  0  0  0  0  0  0  0  0  0  0  0
    1.3330   -1.0520   -1.1090 C   0  0  0  0  0  0  0  0  0  0  0  0
    0.7040   -1.5410   -0.0110 O   0  0  0  0  0  0  0  0  0  0  0  0
   -0.5160   -1.0410    0.3250 C   0  0  0  0  0  0  0  0  0  0  0  0
   -1.5910   -1.2680   -0.7530 C   0  0  0  0  0  0  0  0  0  0  0  0
   -2.8130   -0.7480   -0.3590 O   0  0  0  0  0  0  0  0  0  0  0  0
   -2.8180    0.6100   -0.1490 C   0  0  1  0  0  0  0  0  0  0  0  0
   -3.8190    1.2670   -0.8610 O   0  0  0  0  0  0  0  0  0  0  0  0
   -3.1080    0.8610    1.2130 O   0  0  0  0  0  0  0  0  0  0  0  0
  1  2  1  0
  2  3  1  0
  3  4  1  0
  4  5  1  0
  5  6  1  0
  6  7  1  0
  7  8  1  0
  8  9  1  0
  9 10  1  0
 10 11  1  6
 10 12  1  0
M  END
