
     RDKit          3D

 12 11  0  0  0  0  0  0  0  0999 V2000
    2.4830    0.2460    1.7740 O   0  0  0  0  0  0  0  0  0  0  0  0
    3.3740    0.3350    0.9260 C   0  0  0  0  0  0  0  0  0  0  0  0
    4.4740    1.1480    1.1910 O   0  0  0  0  0  0  0  0  0  0  0  0
    3.2950   -0.3400   -0.2450 O   0  0  0  0  0  0  0  0  0  0  0  0
    2.2970   -1.1820   -0.6970 C   0  0  0  0  0  0  0  0  0  0  0  0
    0.9370   -0.5720   -0.9030 C   0  0  0  0  0  0  0  0  0  0  0  0
    0.4730   -0.0680    0.2640 O   0  0  0  0  0  0  0  0  0  0  0  0
   -0.7450    0.5210    0.2570 C   0  0  0  0  0  0  0  0  0  0  0  0
   -1.8850   -0.3660   -0.1640 C   0  0  1  0  0  0  0  0  0  0  0  0
   -1.9570   -1.4430    0.7180 O   0  0  0  0  0  0  0  0  0  0  0  0
   -3.1700    0.4420    0.0630 C   0  0  0  0  0  0  0  0  0  0  0  0
   -3.2080    0.8720    1.3960 O   0  0  0  0  0  0  0  0  0  0  0  0
  1  2  2  0
  2  3  1  0
  2  4  1  0
  4  5  1  0
  5  6  1  0
  6  7  1  0
  7  8  1  0
  8  9  1  0
  9 10  1  1
  9 11  1  0
 11 12  1  0
M  END
