
     RDKit          3D

 12 11  0  0  0  0  0  0  0  0999 V2000
    2.7670   -1.2580   -1.0860 O   0  0  0  0  0  0  0  0  0  0  0  0
    3.6070   -1.2760    0.0180 C   0  0  0  0  0  0  0  0  0  0  0  0
    3.0480   -0.7610    1.1470 O   0  0  0  0  0  0  0  0  0  0  0  0
    2.6430    0.5360    1.1170 C   0  0  0  0  0  0  0  0  0  0  0  0
    1.5990    0.8630    0.1010 C   0  0  0  0  0  0  0  0  0  0  0  0
    0.4270    0.1050    0.3130 O   0  0  0  0  0  0  0  0  0  0  0  0
   -0.4650    0.4900   -0.6820 C   0  0  0  0  0  0  0  0  0  0  0  0
   -1.6750   -0.1580   -0.6250 O   0  0  0  0  0  0  0  0  0  0  0  0
   -2.3680    0.0300    0.5430 C   0  0  2  0  0  0  0  0  0  0  0  0
   -2.4660   -1.2360    1.1680 O   0  0  0  0  0  0  0  0  0  0  0  0
   -3.8040    0.4790    0.3170 C   0  0  0  0  0  0  0  0  0  0  0  0
   -4.5080   -0.4470   -0.4130 O   0  0  0  0  0  0  0  0  0  0  0  0
  1  2  1  0
  2  3  1  0
  3  4  1  0
  4  5  1  0
  5  6  1  0
  6  7  1  0
  7  8  1  0
  8  9  1  0
  9 10  1  6
  9 11  1  0
 11 12  1  0
M  END
