
     RDKit          3D

 21 24  0  0  0  0  0  0  0  0999 V2000
   -2.3980    3.1880   -1.5630 C   0  0  0  0  0  0  0  0  0  0  0  0
   -2.3310    1.9220   -0.6950 C   0  0  0  0  0  0  0  0  0  0  0  0
   -0.8810    1.5350   -0.6300 C   0  0  1  0  0  0  0  0  0  0  0  0
   -0.1580    2.7000   -0.0050 C   0  0  0  0  0  0  0  0  0  0  0  0
    1.2950    2.4580    0.1840 C   0  0  0  0  0  0  0  0  0  0  0  0
    1.5000    1.2160    0.9680 C   0  0  2  0  0  0  0  0  0  0  0  0
    2.7570    0.5130    0.4230 C   0  0  1  0  0  0  0  0  0  0  0  0
    3.2680   -0.2980    1.4060 O   0  0  0  0  0  0  0  0  0  0  0  0
    4.2090   -1.2070    0.9630 C   0  0  0  0  0  0  0  0  0  0  0  0
    3.8380   -1.5840   -0.4590 C   0  0  0  0  0  0  0  0  0  0  0  0
    2.3140   -1.6720   -0.5260 C   0  0  0  0  0  0  0  0  0  0  0  0
    1.7830   -0.2450   -0.4980 C   0  0  1  0  0  0  0  0  0  0  0  0
    0.7460    0.0270    0.5390 C   0  0  1  0  0  0  0  0  0  0  0  0
    0.8160   -0.9810    1.5290 O   0  0  0  0  0  0  0  0  0  0  0  0
   -0.6590    0.2350    0.1050 C   0  0  1  0  0  0  0  0  0  0  0  0
   -1.5250    0.0750    1.3110 C   0  0  0  0  0  0  0  0  0  0  0  0
   -2.8400   -0.5540    1.1280 C   0  0  0  0  0  0  0  0  0  0  0  0
   -2.9270   -1.6480    0.1220 C   0  0  0  0  0  0  0  0  0  0  0  0
   -1.5010   -2.0580   -0.2310 C   0  0  1  0  0  0  0  0  0  0  0  0
   -1.4760   -3.2750   -1.1250 C   0  0  0  0  0  0  0  0  0  0  0  0
   -0.9270   -0.8560   -0.9480 C   0  0  0  0  0  0  0  0  0  0  0  0
  1  2  1  0
  3  2  1  1
  3  4  1  0
  3 15  1  0
  4  5  1  0
  6  5  1  6
  6  7  1  0
  6 13  1  0
  7  8  1  1
  7 12  1  0
  8  9  1  0
  9 10  1  0
 10 11  1  0
 12 11  1  1
 12 13  1  0
 13 14  1  1
 13 15  1  0
 15 16  1  1
 15 21  1  0
 16 17  1  0
 17 18  1  0
 18 19  1  0
 19 20  1  6
 19 21  1  0
M  END
