
     RDKit          3D

 21 24  0  0  0  0  0  0  0  0999 V2000
    4.5950    2.1270   -0.7200 C   0  0  0  0  0  0  0  0  0  0  0  0
    4.0420    0.9320   -0.7150 C   0  0  0  0  0  0  0  0  0  0  0  0
    3.0880    0.3980   -1.7270 C   0  0  0  0  0  0  0  0  0  0  0  0
    2.7000   -0.9520   -1.2790 C   0  0  2  0  0  0  0  0  0  0  0  0
    1.2780   -1.2260   -0.9350 C   0  0  0  0  0  0  0  0  0  0  0  0
    0.6420   -0.4820    0.1560 C   0  0  1  0  0  0  0  0  0  0  0  0
    1.4090   -0.7240    1.3230 O   0  0  0  0  0  0  0  0  0  0  0  0
    0.5460    0.9970   -0.0360 C   0  0  0  0  0  0  0  0  0  0  0  0
   -0.5630    1.5880    0.8760 C   0  0  0  0  0  0  0  0  0  0  0  0
   -1.8590    1.2740    0.1930 C   0  0  2  0  0  0  0  0  0  0  0  0
   -3.0900    1.5710    0.9720 C   0  0  0  0  0  0  0  0  0  0  0  0
   -4.2810    1.0800    0.1430 C   0  0  0  0  0  0  0  0  0  0  0  0
   -4.3190   -0.4510    0.1040 C   0  0  0  0  0  0  0  0  0  0  0  0
   -2.9990   -0.9270    0.5500 C   0  0  1  0  0  0  0  0  0  0  0  0
   -2.6140   -2.3310    0.2280 C   0  0  0  0  0  0  0  0  0  0  0  0
   -1.0760   -2.3440    0.1460 C   0  0  0  0  0  0  0  0  0  0  0  0
   -0.7330   -0.9550    0.5080 C   0  0  2  0  0  0  0  0  0  0  0  0
   -1.8520   -0.1790   -0.1630 C   0  0  2  0  0  0  0  0  0  0  0  0
    3.5790   -1.2920   -0.2030 O   0  0  0  0  0  0  0  0  0  0  0  0
    4.2130   -0.1470    0.2500 C   0  0  0  0  0  0  0  0  0  0  0  0
    4.8970    0.0070    1.3930 C   0  0  0  0  0  0  0  0  0  0  0  0
  1  2  2  0
  2  3  1  0
  2 20  1  0
  3  4  1  0
  4  5  1  1
  4 19  1  0
  5  6  1  0
  6  7  1  1
  6  8  1  0
  6 17  1  0
  8  9  1  0
 10  9  1  1
 10 11  1  0
 18 10  1  1
 11 12  1  0
 12 13  1  0
 14 13  1  6
 14 15  1  0
 14 18  1  0
 15 16  1  0
 17 16  1  6
 17 18  1  0
 19 20  1  0
 20 21  2  0
M  END
