
     RDKit          3D

 21 24  0  0  0  0  0  0  0  0999 V2000
   -0.8940   -0.9920    2.6940 O   0  0  0  0  0  0  0  0  0  0  0  0
   -1.2000   -0.9600    1.5280 C   0  0  0  0  0  0  0  0  0  0  0  0
   -1.7090   -2.2280    0.9290 C   0  0  0  0  0  0  0  0  0  0  0  0
   -2.8030   -1.8930   -0.0290 C   0  0  0  0  0  0  0  0  0  0  0  0
   -2.5140   -1.2440   -1.3120 C   0  0  0  0  0  0  0  0  0  0  0  0
   -1.1340   -0.9590   -1.7390 C   0  0  0  0  0  0  0  0  0  0  0  0
   -0.4080    0.2670   -1.3510 C   0  0  1  0  0  0  0  0  0  0  0  0
   -1.1800    1.5130   -1.6810 C   0  0  0  0  0  0  0  0  0  0  0  0
   -1.9900    2.2070   -0.7010 C   0  0  0  0  0  0  0  0  0  0  0  0
   -1.5340    2.6770    0.6160 C   0  0  0  0  0  0  0  0  0  0  0  0
   -1.2120    1.6030    1.6670 C   0  0  0  0  0  0  0  0  0  0  0  0
   -1.0080    0.3470    0.9160 C   0  0  1  0  0  0  0  0  0  0  0  0
    0.1590    0.4480   -0.0040 C   0  0  2  0  0  0  0  0  0  0  0  0
    0.5510    1.8330   -0.0160 O   0  0  0  0  0  0  0  0  0  0  0  0
    1.4340   -0.1910    0.3860 C   0  0  1  0  0  0  0  0  0  0  0  0
    1.5890   -1.6770    0.3840 C   0  0  0  0  0  0  0  0  0  0  0  0
    3.1050   -1.9460    0.3150 C   0  0  0  0  0  0  0  0  0  0  0  0
    3.5970   -0.8690   -0.5600 C   0  0  0  0  0  0  0  0  0  0  0  0
    2.6220    0.2460   -0.4510 C   0  0  2  0  0  0  0  0  0  0  0  0
    3.0460    1.1810    0.6370 C   0  0  0  0  0  0  0  0  0  0  0  0
    2.1700    0.3670    1.5560 C   0  0  0  0  0  0  0  0  0  0  0  0
  1  2  2  0
  2  3  1  0
  2 12  1  0
  3  4  1  0
  4  5  1  0
  5  6  1  0
  7  6  1  1
  7  8  1  0
  7 13  1  0
  8  9  1  0
  9 10  1  0
 10 11  1  0
 12 11  1  1
 12 13  1  0
 13 14  1  6
 13 15  1  0
 15 16  1  1
 15 19  1  0
 15 21  1  0
 16 17  1  0
 17 18  1  0
 19 18  1  1
 19 20  1  0
 20 21  1  0
M  END
