
     RDKit          3D

 21 24  0  0  0  0  0  0  0  0999 V2000
   -4.5390   -0.7660    0.9080 C   0  0  0  0  0  0  0  0  0  0  0  0
   -3.2030   -0.0680    1.0660 C   0  0  2  0  0  0  0  0  0  0  0  0
   -3.5000    1.3990    1.2940 C   0  0  0  0  0  0  0  0  0  0  0  0
   -2.3660   -0.1670   -0.1760 C   0  0  2  0  0  0  0  0  0  0  0  0
   -3.0710    0.4340   -1.2190 O   0  0  0  0  0  0  0  0  0  0  0  0
   -2.1640   -1.6350   -0.5950 C   0  0  0  0  0  0  0  0  0  0  0  0
   -0.6250   -1.8000   -0.6850 C   0  0  0  0  0  0  0  0  0  0  0  0
   -0.2420   -0.8740    0.3850 C   0  0  1  0  0  0  0  0  0  0  0  0
    1.0740   -0.2880    0.4690 C   0  0  0  0  0  0  0  0  0  0  0  0
    2.4200   -0.9380    0.2720 C   0  0  1  0  0  0  0  0  0  0  0  0
    2.5390   -1.3540   -1.1370 C   0  0  0  0  0  0  0  0  0  0  0  0
    3.5780   -0.7610   -1.6870 C   0  0  0  0  0  0  0  0  0  0  0  0
    4.1980    0.0800   -0.6540 C   0  0  0  0  0  0  0  0  0  0  0  0
    3.5340   -0.0180    0.4810 C   0  0  0  0  0  0  0  0  0  0  0  0
    4.2640    0.8490    1.4330 C   0  0  0  0  0  0  0  0  0  0  0  0
    5.5750    0.9260    0.9050 O   0  0  0  0  0  0  0  0  0  0  0  0
    5.3280    1.0000   -0.4680 C   0  0  0  0  0  0  0  0  0  0  0  0
    0.9160    0.9900    0.7860 C   0  0  0  0  0  0  0  0  0  0  0  0
   -0.5700    1.2930    0.9250 C   0  0  0  0  0  0  0  0  0  0  0  0
   -1.0280    0.3480   -0.1150 C   0  0  2  0  0  0  0  0  0  0  0  0
   -0.5090    0.8010   -1.4400 C   0  0  0  0  0  0  0  0  0  0  0  0
  2  1  1  6
  2  3  1  0
  2  4  1  0
  4  5  1  6
  4  6  1  0
  4 20  1  0
  6  7  1  0
  8  7  1  6
  8  9  1  0
  8 20  1  0
 10  9  1  6
  9 18  2  0
 10 11  1  0
 10 14  1  0
 11 12  2  0
 12 13  1  0
 13 14  2  0
 13 17  1  0
 14 15  1  0
 15 16  1  0
 16 17  1  0
 18 19  1  0
 19 20  1  0
 20 21  1  6
M  END
