
     RDKit          3D

 21 24  0  0  0  0  0  0  0  0999 V2000
    4.6830   -1.6030   -0.3340 C   0  0  0  0  0  0  0  0  0  0  0  0
    3.6250   -0.7590    0.3480 C   0  0  0  0  0  0  0  0  0  0  0  0
    2.2930   -1.0410   -0.3220 C   0  0  0  0  0  0  0  0  0  0  0  0
    1.1740   -0.2400    0.2940 C   0  0  1  0  0  0  0  0  0  0  0  0
    1.5910    1.1880    0.0870 C   0  0  0  0  0  0  0  0  0  0  0  0
    1.9180    1.3750   -1.0960 O   0  0  0  0  0  0  0  0  0  0  0  0
    1.7490    2.4600    0.8070 C   0  0  0  0  0  0  0  0  0  0  0  0
    0.7820    3.4230    0.1570 C   0  0  0  0  0  0  0  0  0  0  0  0
   -0.4980    2.7090   -0.2670 C   0  0  0  0  0  0  0  0  0  0  0  0
   -0.9480    1.6860    0.6810 C   0  0  0  0  0  0  0  0  0  0  0  0
   -1.2840    0.3210    0.1530 C   0  0  2  0  0  0  0  0  0  0  0  0
   -2.2840    0.4120   -1.0050 C   0  0  0  0  0  0  0  0  0  0  0  0
   -3.5320    0.8700   -0.3380 C   0  0  0  0  0  0  0  0  0  0  0  0
   -3.5910   -0.0650    0.8570 C   0  0  0  0  0  0  0  0  0  0  0  0
   -2.1230   -0.3220    1.2040 C   0  0  1  0  0  0  0  0  0  0  0  0
   -1.9390   -1.7630    1.4390 C   0  0  0  0  0  0  0  0  0  0  0  0
   -1.5540   -2.4890    0.2080 C   0  0  2  0  0  0  0  0  0  0  0  0
   -0.1680   -3.0320    0.1860 C   0  0  0  0  0  0  0  0  0  0  0  0
   -0.5020   -1.8830   -0.6420 C   0  0  2  0  0  0  0  0  0  0  0  0
   -0.1450   -0.4700   -0.3880 C   0  0  2  0  0  0  0  0  0  0  0  0
    0.0830    0.1280   -1.6720 O   0  0  0  0  0  0  0  0  0  0  0  0
  1  2  1  0
  2  3  1  0
  4  3  1  6
  4  5  1  0
  4 20  1  0
  5  6  2  0
  5  7  1  0
  7  8  1  0
  8  9  1  0
  9 10  1  0
 11 10  1  1
 11 12  1  0
 11 15  1  0
 11 20  1  0
 12 13  1  0
 13 14  1  0
 15 14  1  6
 15 16  1  0
 17 16  1  1
 17 18  1  0
 17 19  1  0
 19 18  1  1
 19 20  1  0
 20 21  1  6
M  END
