
     RDKit          3D

 21 24  0  0  0  0  0  0  0  0999 V2000
    4.9240   -0.2300   -1.2060 C   0  0  0  0  0  0  0  0  0  0  0  0
    4.2130   -1.1720   -0.2650 C   0  0  1  0  0  0  0  0  0  0  0  0
    4.6330   -0.8900    1.1600 C   0  0  0  0  0  0  0  0  0  0  0  0
    3.9810    0.4110    1.5730 C   0  0  0  0  0  0  0  0  0  0  0  0
    2.4690    0.1870    1.4160 C   0  0  0  0  0  0  0  0  0  0  0  0
    2.2140   -0.0140   -0.0390 C   0  0  2  0  0  0  0  0  0  0  0  0
    0.7740   -0.0950   -0.4260 C   0  0  1  0  0  0  0  0  0  0  0  0
    0.1440   -1.2630    0.3010 C   0  0  0  0  0  0  0  0  0  0  0  0
   -1.3040   -1.4140    0.0480 C   0  0  0  0  0  0  0  0  0  0  0  0
   -2.1190   -0.1770   -0.0560 C   0  0  2  0  0  0  0  0  0  0  0  0
   -2.8850   -0.0470    1.2600 C   0  0  0  0  0  0  0  0  0  0  0  0
   -4.2840   -0.4490    1.0430 C   0  0  0  0  0  0  0  0  0  0  0  0
   -4.3440   -1.1520   -0.2720 C   0  0  0  0  0  0  0  0  0  0  0  0
   -3.2440   -0.4890   -1.0230 C   0  0  1  0  0  0  0  0  0  0  0  0
   -3.6900    0.7260   -1.7900 C   0  0  0  0  0  0  0  0  0  0  0  0
   -2.4510    1.0530   -2.6380 C   0  0  0  0  0  0  0  0  0  0  0  0
   -1.4410    1.6240   -1.7120 C   0  0  0  0  0  0  0  0  0  0  0  0
   -1.4240    1.0940   -0.3230 C   0  0  2  0  0  0  0  0  0  0  0  0
    0.0490    1.0950    0.1180 C   0  0  2  0  0  0  0  0  0  0  0  0
    0.6770    2.2440   -0.2890 O   0  0  0  0  0  0  0  0  0  0  0  0
    2.8540   -1.1870   -0.4330 O   0  0  0  0  0  0  0  0  0  0  0  0
  2  1  1  6
  2  3  1  0
  2 21  1  0
  3  4  1  0
  4  5  1  0
  6  5  1  1
  6  7  1  0
  6 21  1  0
  7  8  1  1
  7 19  1  0
  8  9  1  0
 10  9  1  1
 10 11  1  0
 10 14  1  0
 10 18  1  0
 11 12  1  0
 12 13  1  0
 14 13  1  1
 14 15  1  0
 15 16  1  0
 16 17  1  0
 18 17  1  6
 18 19  1  0
 19 20  1  6
M  END
