
     RDKit          3D

 21 24  0  0  0  0  0  0  0  0999 V2000
   -2.7640   -1.1910    0.5240 C   0  0  0  0  0  0  0  0  0  0  0  0
   -2.4130   -0.0060   -0.3040 C   0  0  2  0  0  0  0  0  0  0  0  0
   -1.7140   -0.3500   -1.5910 C   0  0  0  0  0  0  0  0  0  0  0  0
   -0.3690   -0.9730   -1.2420 C   0  0  0  0  0  0  0  0  0  0  0  0
    0.4810    0.0180   -0.4650 C   0  0  1  0  0  0  0  0  0  0  0  0
   -0.2720    0.3060    0.8170 C   0  0  1  0  0  0  0  0  0  0  0  0
    0.5610    1.1140    1.7850 C   0  0  0  0  0  0  0  0  0  0  0  0
    1.6620    0.1490    2.2460 C   0  0  0  0  0  0  0  0  0  0  0  0
    2.4650   -0.1410    1.0300 C   0  0  0  0  0  0  0  0  0  0  0  0
    3.7810   -0.1490    1.1500 C   0  0  0  0  0  0  0  0  0  0  0  0
    4.6690   -0.4230    0.0130 C   0  0  0  0  0  0  0  0  0  0  0  0
    5.8660   -0.7850    0.1520 O   0  0  0  0  0  0  0  0  0  0  0  0
    4.1420   -0.2690   -1.3790 C   0  0  0  0  0  0  0  0  0  0  0  0
    2.7480    0.3470   -1.3040 C   0  0  0  0  0  0  0  0  0  0  0  0
    1.8820   -0.4150   -0.2880 C   0  0  2  0  0  0  0  0  0  0  0  0
    2.0470   -1.8870   -0.6640 C   0  0  0  0  0  0  0  0  0  0  0  0
   -1.5290    1.0000    0.4100 C   0  0  2  0  0  0  0  0  0  0  0  0
   -2.4060    1.4910    1.4840 C   0  0  0  0  0  0  0  0  0  0  0  0
   -3.7280    1.7050    0.7440 C   0  0  0  0  0  0  0  0  0  0  0  0
   -3.6580    0.8220   -0.5030 C   0  0  2  0  0  0  0  0  0  0  0  0
   -4.8020    0.0330   -0.5180 O   0  0  0  0  0  0  0  0  0  0  0  0
  2  1  1  1
  2  3  1  0
  2 17  1  0
  2 20  1  0
  3  4  1  0
  5  4  1  1
  5  6  1  0
  5 15  1  0
  6  7  1  1
  6 17  1  0
  7  8  1  0
  8  9  1  0
  9 10  2  0
  9 15  1  0
 10 11  1  0
 11 12  2  0
 11 13  1  0
 13 14  1  0
 14 15  1  0
 15 16  1  6
 17 18  1  1
 18 19  1  0
 19 20  1  0
 20 21  1  1
M  END
