
     RDKit          3D

 20 23  0  0  0  0  0  0  0  0999 V2000
   -4.9370   -1.0840    0.5330 O   0  0  0  0  0  0  0  0  0  0  0  0
   -4.2500    0.0670    0.0980 C   0  0  1  0  0  0  0  0  0  0  0  0
   -3.9720    0.9060    1.3320 C   0  0  0  0  0  0  0  0  0  0  0  0
   -3.3480    2.2160    0.9020 C   0  0  0  0  0  0  0  0  0  0  0  0
   -2.3260    2.0270   -0.1710 C   0  0  0  0  0  0  0  0  0  0  0  0
   -1.8110    0.6110   -0.1700 C   0  0  2  0  0  0  0  0  0  0  0  0
   -0.7730    0.3900   -1.2270 C   0  0  1  0  0  0  0  0  0  0  0  0
    0.5410    1.0750   -0.9270 C   0  0  0  0  0  0  0  0  0  0  0  0
    1.1250    0.5870    0.3470 C   0  0  0  0  0  0  0  0  0  0  0  0
    2.3050    0.0070    0.3940 C   0  0  0  0  0  0  0  0  0  0  0  0
    2.9560   -0.5090    1.6450 C   0  0  0  0  0  0  0  0  0  0  0  0
    4.3180   -0.9360    1.1490 C   0  0  2  0  0  0  0  0  0  0  0  0
    5.0460    0.2950    0.7010 C   0  0  0  0  0  0  0  0  0  0  0  0
    4.3760    0.7120   -0.6170 C   0  0  0  0  0  0  0  0  0  0  0  0
    3.2290   -0.2630   -0.7230 C   0  0  1  0  0  0  0  0  0  0  0  0
    3.9180   -1.5400   -0.2090 C   0  0  0  0  0  0  0  0  0  0  0  0
   -0.5550   -1.1020   -1.3630 C   0  0  0  0  0  0  0  0  0  0  0  0
   -1.0050   -1.8290   -0.1130 C   0  0  0  0  0  0  0  0  0  0  0  0
   -2.4930   -1.7130    0.1030 C   0  0  0  0  0  0  0  0  0  0  0  0
   -2.9400   -0.3810   -0.4590 C   0  0  1  0  0  0  0  0  0  0  0  0
  2  1  1  1
  2  3  1  0
  2 20  1  0
  3  4  1  0
  4  5  1  0
  6  5  1  6
  6  7  1  0
  6 20  1  0
  7  8  1  1
  7 17  1  0
  8  9  1  0
  9 10  2  3
 10 11  1  0
 10 15  1  0
 12 11  1  1
 12 13  1  0
 12 16  1  0
 13 14  1  0
 15 14  1  1
 15 16  1  0
 17 18  1  0
 18 19  1  0
 20 19  1  1
M  END
