
     RDKit          3D

 21 24  0  0  0  0  0  0  0  0999 V2000
    3.3100    1.9500    0.0680 C   0  0  0  0  0  0  0  0  0  0  0  0
    3.3990    0.4780   -0.2670 C   0  0  2  0  0  0  0  0  0  0  0  0
    4.7820   -0.0210    0.1400 C   0  0  0  0  0  0  0  0  0  0  0  0
    3.2310    0.2050   -1.7250 C   0  0  0  0  0  0  0  0  0  0  0  0
    1.8180    0.1100   -2.1770 C   0  0  0  0  0  0  0  0  0  0  0  0
    0.8620    0.3700   -1.2500 O   0  0  0  0  0  0  0  0  0  0  0  0
    0.9770   -0.1320   -0.0130 C   0  0  1  0  0  0  0  0  0  0  0  0
    0.3620    0.9260    0.9380 C   0  0  0  0  0  0  0  0  0  0  0  0
   -1.1240    0.6050    0.9870 C   0  0  1  0  0  0  0  0  0  0  0  0
   -1.7730    1.6720    0.1190 C   0  0  0  0  0  0  0  0  0  0  0  0
   -3.1020    1.3000   -0.4060 C   0  0  2  0  0  0  0  0  0  0  0  0
   -4.1550    1.7280    0.6060 C   0  0  0  0  0  0  0  0  0  0  0  0
   -5.4320    1.4010    0.1620 O   0  0  0  0  0  0  0  0  0  0  0  0
   -3.2610   -0.1200   -0.8330 C   0  0  0  0  0  0  0  0  0  0  0  0
   -1.8680   -0.7260   -0.9680 C   0  0  0  0  0  0  0  0  0  0  0  0
   -1.2670   -0.7100    0.3930 C   0  0  2  0  0  0  0  0  0  0  0  0
   -1.8540   -1.8270    1.1850 C   0  0  0  0  0  0  0  0  0  0  0  0
   -1.2500   -3.0350    0.4490 C   0  0  0  0  0  0  0  0  0  0  0  0
    0.0080   -2.4950   -0.2600 C   0  0  0  0  0  0  0  0  0  0  0  0
    0.1740   -1.2440    0.4140 C   0  0  1  0  0  0  0  0  0  0  0  0
    2.3920   -0.3140    0.4930 C   0  0  0  0  0  0  0  0  0  0  0  0
  2  1  1  6
  2  3  1  0
  2  4  1  0
  2 21  1  0
  4  5  1  0
  5  6  1  0
  6  7  1  0
  7  8  1  1
  7 20  1  0
  7 21  1  0
  9  8  1  6
  9 10  1  0
  9 16  1  0
 10 11  1  0
 11 12  1  1
 11 14  1  0
 12 13  1  0
 14 15  1  0
 16 15  1  6
 16 17  1  0
 16 20  1  0
 17 18  1  0
 18 19  1  0
 20 19  1  6
M  END
