
     RDKit          3D

 20 19  0  0  0  0  0  0  0  0999 V2000
   -3.9670    2.3910   -0.8030 C   0  0  0  0  0  0  0  0  0  0  0  0
   -3.0680    1.1480   -0.7200 C   0  0  0  0  0  0  0  0  0  0  0  0
   -2.1650    1.3830    0.2840 O   0  0  0  0  0  0  0  0  0  0  0  0
   -1.0390    0.1670    0.6040 P   0  0  0  0  0  0  0  0  0  0  0  0
   -1.3610   -1.4870   -0.0320 C   0  0  0  0  0  0  0  0  0  0  0  0
   -0.7650   -2.5990    0.8010 C   0  0  0  0  0  0  0  0  0  0  0  0
   -1.1920   -2.6530    2.0970 O   0  0  0  0  0  0  0  0  0  0  0  0
   -2.5590   -2.8430    2.2280 C   0  0  0  0  0  0  0  0  0  0  0  0
    0.5330    0.7220    0.7120 O   0  0  0  0  0  0  0  0  0  0  0  0
    1.1970    1.1140   -0.4020 C   0  0  2  0  0  0  0  0  0  0  0  0
    1.2860   -0.0470   -1.3680 C   0  0  0  0  0  0  0  0  0  0  0  0
    2.8960    1.5750    0.1310 S   0  0  0  0  0  0  0  0  0  0  0  0
    3.7100    0.1300    0.6970 O   0  0  0  0  0  0  0  0  0  0  0  0
    5.0570   -0.0580    0.4110 C   0  0  0  0  0  0  0  0  0  0  0  0
    5.8260   -1.2460    0.8480 C   0  0  0  0  0  0  0  0  0  0  0  0
    5.6340    0.8410   -0.2540 O   0  0  0  0  0  0  0  0  0  0  0  0
    0.6690    2.2970   -1.1020 C   0  0  0  0  0  0  0  0  0  0  0  0
    1.3110    2.6390   -2.1530 O   0  0  0  0  0  0  0  0  0  0  0  0
   -0.4140    3.0460   -0.7450 O   0  0  0  0  0  0  0  0  0  0  0  0
   -0.7530    4.0960   -1.5020 O   0  0  0  0  0  0  0  0  0  0  0  0
  1  2  1  0
  2  3  1  0
  3  4  1  0
  4  5  1  0
  4  9  1  0
  5  6  1  0
  6  7  1  0
  7  8  1  0
  9 10  1  0
 10 11  1  6
 10 12  1  0
 10 17  1  0
 12 13  1  0
 13 14  1  0
 14 15  1  0
 14 16  2  0
 17 18  2  0
 17 19  1  0
 19 20  1  0
M  END
