
     RDKit          3D

 20 20  0  0  0  0  0  0  0  0999 V2000
   -4.1350   -0.8340   -0.2700 C   0  0  0  0  0  0  0  0  0  0  0  0
   -3.1210   -1.6630   -0.1510 C   0  0  0  0  0  0  0  0  0  0  0  0
   -1.7720   -1.3730   -0.7420 C   0  0  2  0  0  0  0  0  0  0  0  0
   -1.2570   -2.6570   -1.2780 C   0  0  0  0  0  0  0  0  0  0  0  0
   -0.1580   -3.0450   -0.9360 O   0  0  0  0  0  0  0  0  0  0  0  0
   -0.6870   -0.7670    0.6160 P   0  0  0  0  0  0  0  0  0  0  0  0
   -1.6210   -0.2180    2.1030 C   0  0  0  0  0  0  0  0  0  0  0  0
    0.4540    0.5760    0.0810 C   0  0  2  0  0  0  0  0  0  0  0  0
   -0.1310    1.9490    0.2620 C   0  0  0  0  0  0  0  0  0  0  0  0
    1.1050    3.2020   -0.3080 P   0  0  0  0  0  0  0  0  0  0  0  0
    0.3540    4.7120   -0.6900 O   0  0  0  0  0  0  0  0  0  0  0  0
    0.9260    0.4310   -1.3290 C   0  0  0  0  0  0  0  0  0  0  0  0
    2.2600    0.7980   -1.2490 O   0  0  0  0  0  0  0  0  0  0  0  0
    2.6750    0.2430   -0.0540 C   0  0  2  0  0  0  0  0  0  0  0  0
    3.8240    0.9000    0.4340 O   0  0  0  0  0  0  0  0  0  0  0  0
    4.2230    0.1040    1.9200 S   0  0  0  0  0  0  0  0  0  0  0  0
    2.9750   -1.1960   -0.2850 C   0  0  0  0  0  0  0  0  0  0  0  0
    3.3520   -1.9530    0.6550 O   0  0  0  0  0  0  0  0  0  0  0  0
    2.8440   -1.7230   -1.5460 O   0  0  0  0  0  0  0  0  0  0  0  0
    1.6310    0.4580    0.8090 O   0  0  0  0  0  0  0  0  0  0  0  0
  1  2  2  0
  2  3  1  0
  3  4  1  0
  3  6  1  1
  4  5  2  0
  6  7  1  0
  6  8  1  0
  8  9  1  6
  8 12  1  0
  8 20  1  0
  9 10  1  0
 10 11  1  0
 12 13  1  0
 13 14  1  0
 14 15  1  1
 14 17  1  0
 14 20  1  0
 15 16  1  0
 17 18  2  0
 17 19  1  0
M  END
