
     RDKit          3D

 20 21  0  0  0  0  0  0  0  0999 V2000
   -3.8380    0.6020    1.2480 C   0  0  0  0  0  0  0  0  0  0  0  0
   -3.2080   -0.4060    0.4660 O   0  0  0  0  0  0  0  0  0  0  0  0
   -1.9470   -0.0610   -0.0770 C   0  0  0  0  0  0  0  0  0  0  0  0
   -1.9080    0.4840   -1.2820 C   0  0  0  0  0  0  0  0  0  0  0  0
   -3.2090    0.7060   -2.0120 C   0  0  0  0  0  0  0  0  0  0  0  0
   -3.1500   -0.0240   -3.2010 O   0  0  0  0  0  0  0  0  0  0  0  0
   -0.7270    0.8600   -1.9090 O   0  0  0  0  0  0  0  0  0  0  0  0
    0.5990    1.3930   -0.8830 P   0  0  0  0  0  0  0  0  0  0  0  0
    2.0910    0.5370   -1.2220 O   0  0  0  0  0  0  0  0  0  0  0  0
    2.2700   -0.3700   -0.2200 C   0  0  0  0  0  0  0  0  0  0  0  0
    3.0130   -1.4770   -0.3600 C   0  0  0  0  0  0  0  0  0  0  0  0
    3.2420   -2.6610    0.9600 S   0  0  0  0  0  0  0  0  0  0  0  0
    3.6910   -1.7660   -1.6450 C   0  0  0  0  0  0  0  0  0  0  0  0
    3.4090   -0.7430   -2.5570 O   0  0  0  0  0  0  0  0  0  0  0  0
    1.5970   -0.0650    1.0370 C   0  0  0  0  0  0  0  0  0  0  0  0
    0.2890    0.5970    0.7800 C   0  0  1  0  0  0  0  0  0  0  0  0
   -0.0920    1.8630    2.0640 P   0  0  0  0  0  0  0  0  0  0  0  0
    1.4030    2.6100    2.5820 O   0  0  0  0  0  0  0  0  0  0  0  0
   -0.8120    1.1500    3.4570 O   0  0  0  0  0  0  0  0  0  0  0  0
   -0.7820   -0.2870    0.6330 O   0  0  0  0  0  0  0  0  0  0  0  0
  1  2  1  0
  2  3  1  0
  3  4  2  0
  3 20  1  0
  4  5  1  0
  4  7  1  0
  5  6  1  0
  7  8  1  0
  8  9  1  0
  8 16  1  0
  9 10  1  0
 10 11  2  3
 10 15  1  0
 11 12  1  0
 11 13  1  0
 13 14  1  0
 15 16  1  0
 16 17  1  1
 16 20  1  0
 17 18  1  0
 17 19  1  0
M  END
