
     RDKit          3D

 20 19  0  0  0  0  0  0  0  0999 V2000
    3.6120   -1.0250    1.6870 C   0  0  0  0  0  0  0  0  0  0  0  0
    3.2250    0.1120    2.5800 C   0  0  0  0  0  0  0  0  0  0  0  0
    2.7610    1.5470    1.6250 S   0  0  0  0  0  0  0  0  0  0  0  0
    1.2440    1.2930    0.7390 C   0  0  0  0  0  0  0  0  0  0  0  0
    1.2940    0.2950   -0.3940 C   0  0  2  0  0  0  0  0  0  0  0  0
    2.3170    0.8050   -1.3860 C   0  0  0  0  0  0  0  0  0  0  0  0
    1.7120    2.4760   -1.9530 P   0  0  0  0  0  0  0  0  0  0  0  0
    0.0150    0.2940   -0.9270 O   0  0  0  0  0  0  0  0  0  0  0  0
   -0.6900   -0.8540   -0.8760 C   0  0  2  0  0  0  0  0  0  0  0  0
    0.0240   -1.8880   -1.6030 O   0  0  0  0  0  0  0  0  0  0  0  0
   -1.8500   -0.6370   -1.5840 O   0  0  0  0  0  0  0  0  0  0  0  0
   -2.6500    0.3900   -1.2830 C   0  0  0  0  0  0  0  0  0  0  0  0
   -3.1880    0.6400    0.0430 C   0  0  0  0  0  0  0  0  0  0  0  0
   -2.9120    0.0330    1.0220 O   0  0  0  0  0  0  0  0  0  0  0  0
   -4.4130    2.0540    0.1410 P   0  0  0  0  0  0  0  0  0  0  0  0
   -3.4950    3.5100   -0.0750 O   0  0  0  0  0  0  0  0  0  0  0  0
   -0.9340   -1.4490    0.3270 O   0  0  0  0  0  0  0  0  0  0  0  0
   -1.6260   -2.6590    0.1400 C   0  0  2  0  0  0  0  0  0  0  0  0
   -2.6710   -2.8970    0.9620 O   0  0  0  0  0  0  0  0  0  0  0  0
   -0.6520   -3.6600    0.4520 O   0  0  0  0  0  0  0  0  0  0  0  0
  1  2  1  0
  2  3  1  0
  3  4  1  0
  5  4  1  1
  5  6  1  0
  5  8  1  0
  6  7  1  0
  8  9  1  0
  9 10  1  6
  9 11  1  0
  9 17  1  0
 11 12  1  0
 12 13  1  0
 13 14  2  0
 13 15  1  0
 15 16  1  0
 17 18  1  0
 18 19  1  1
 18 20  1  0
M  END
