
     RDKit          3D

 20 20  0  0  0  0  0  0  0  0999 V2000
   -2.6950   -2.6930   -0.2090 C   0  0  0  0  0  0  0  0  0  0  0  0
   -2.9460   -1.2140   -0.1440 C   0  0  1  0  0  0  0  0  0  0  0  0
   -3.6290   -0.6980   -1.2100 O   0  0  0  0  0  0  0  0  0  0  0  0
   -3.8360   -1.0550    0.9690 O   0  0  0  0  0  0  0  0  0  0  0  0
   -1.6940   -0.4710    0.2090 C   0  0  2  0  0  0  0  0  0  0  0  0
   -2.1420    0.8500    0.5740 O   0  0  0  0  0  0  0  0  0  0  0  0
   -1.6990    1.2120    2.2030 P   0  0  0  0  0  0  0  0  0  0  0  0
   -1.4100    2.9010    2.4340 O   0  0  0  0  0  0  0  0  0  0  0  0
   -0.7300   -0.2130   -0.8820 C   0  0  1  0  0  0  0  0  0  0  0  0
    0.2530    0.6520   -0.3100 O   0  0  0  0  0  0  0  0  0  0  0  0
    1.3350    0.5850   -1.1710 C   0  0  1  0  0  0  0  0  0  0  0  0
    2.6530    0.5220   -0.4280 C   0  0  1  0  0  0  0  0  0  0  0  0
    2.7460   -0.6720    0.4670 C   0  0  0  0  0  0  0  0  0  0  0  0
    3.9740    0.4210   -1.6660 S   0  0  0  0  0  0  0  0  0  0  0  0
    2.8890    1.7840    0.3830 C   0  0  0  0  0  0  0  0  0  0  0  0
    2.9190    3.2590   -0.7780 P   0  0  0  0  0  0  0  0  0  0  0  0
    4.2360    3.6120   -1.5210 O   0  0  0  0  0  0  0  0  0  0  0  0
    1.2230   -0.5990   -1.9220 O   0  0  0  0  0  0  0  0  0  0  0  0
    0.1230   -1.2870   -1.3480 C   0  0  0  0  0  0  0  0  0  0  0  0
    0.0930   -2.5360   -1.3490 O   0  0  0  0  0  0  0  0  0  0  0  0
  2  1  1  6
  2  3  1  0
  2  4  1  0
  2  5  1  0
  5  6  1  6
  5  9  1  0
  6  7  1  0
  7  8  1  0
  9 10  1  1
  9 19  1  0
 11 10  1  1
 11 12  1  0
 11 18  1  0
 12 13  1  1
 12 14  1  0
 12 15  1  0
 15 16  1  0
 16 17  2  0
 18 19  1  0
 19 20  2  0
M  END
