
     RDKit          3D

 19 19  0  0  0  0  0  0  0  0999 V2000
   -2.6440   -1.7920    2.8880 C   0  0  0  0  0  0  0  0  0  0  0  0
   -1.8470   -0.9690    2.2550 C   0  0  0  0  0  0  0  0  0  0  0  0
   -2.0920    0.3540    1.9560 O   0  0  0  0  0  0  0  0  0  0  0  0
   -1.0810    0.9830    1.2960 O   0  0  0  0  0  0  0  0  0  0  0  0
   -0.8780    0.4550    0.0340 C   0  0  2  0  0  0  0  0  0  0  0  0
   -0.2030    1.4880   -0.8480 C   0  0  0  0  0  0  0  0  0  0  0  0
   -2.1180    0.1440   -0.5060 O   0  0  0  0  0  0  0  0  0  0  0  0
   -2.8380    1.3220   -0.5640 C   0  0  0  0  0  0  0  0  0  0  0  0
   -4.2340    1.0950   -1.1500 C   0  0  0  0  0  0  0  0  0  0  0  0
    0.0100   -0.8180    0.0800 C   0  0  1  0  0  0  0  0  0  0  0  0
   -0.4390   -1.6900   -0.8860 O   0  0  0  0  0  0  0  0  0  0  0  0
    0.1420   -2.8140   -1.0190 O   0  0  0  0  0  0  0  0  0  0  0  0
    1.3510   -0.4230   -0.0540 O   0  0  0  0  0  0  0  0  0  0  0  0
    2.4700   -1.1980   -0.0300 C   0  0  0  0  0  0  0  0  0  0  0  0
    2.3450   -2.4280    0.1380 O   0  0  0  0  0  0  0  0  0  0  0  0
    3.8500   -0.6300   -0.1980 C   0  0  0  0  0  0  0  0  0  0  0  0
    3.7730    0.7370   -0.3700 O   0  0  0  0  0  0  0  0  0  0  0  0
    5.0450    1.2490   -0.5240 C   0  0  0  0  0  0  0  0  0  0  0  0
   -0.2670   -1.5770    1.7010 S   0  0  0  0  0  0  0  0  0  0  0  0
  1  2  2  0
  2  3  1  0
  2 19  1  0
  3  4  1  0
  4  5  1  0
  5  6  1  6
  5  7  1  0
  5 10  1  0
  7  8  1  0
  8  9  1  0
 10 11  1  6
 10 13  1  0
 10 19  1  0
 11 12  1  0
 13 14  1  0
 14 15  2  0
 14 16  1  0
 16 17  1  0
 17 18  1  0
M  END
