
     RDKit          3D

  8  7  0  0  0  0  0  0  0  0999 V2000
    1.8710   -0.9670   -1.0850 O   0  0  0  0  0  0  0  0  0  0  0  0
    1.7520   -0.6360    0.1170 C   0  0  0  0  0  0  0  0  0  0  0  0
    2.8720   -0.0460    0.7220 O   0  0  0  0  0  0  0  0  0  0  0  0
    0.5730   -0.8560    0.7730 O   0  0  0  0  0  0  0  0  0  0  0  0
   -0.5020   -1.4240    0.1890 O   0  0  0  0  0  0  0  0  0  0  0  0
   -1.2670   -0.3630   -0.3360 C   0  0  0  0  0  0  0  0  0  0  0  0
   -1.6420    0.4890    0.7270 O   0  0  0  0  0  0  0  0  0  0  0  0
   -2.3520    1.4720    0.2250 O   0  0  0  0  0  0  0  0  0  0  0  0
  1  2  2  0
  2  3  1  0
  2  4  1  0
  4  5  1  0
  5  6  1  0
  6  7  1  0
  7  8  1  0
M  END
