
     RDKit          3D

 19 19  0  0  0  0  0  0  0  0999 V2000
    0.5490   -0.4340    1.3150 O   0  0  0  0  0  0  0  0  0  0  0  0
    0.3560   -0.2320    0.1020 C   0  0  0  0  0  0  0  0  0  0  0  0
   -0.7980    0.4190   -0.2790 O   0  0  0  0  0  0  0  0  0  0  0  0
   -1.7600    0.8550    0.6960 C   0  0  0  0  0  0  0  0  0  0  0  0
   -2.7780    1.4600   -0.0170 O   0  0  0  0  0  0  0  0  0  0  0  0
   -3.3670    0.6000   -0.9140 C   0  0  0  0  0  0  0  0  0  0  0  0
   -3.9620   -0.5680   -0.1690 C   0  0  2  0  0  0  0  0  0  0  0  0
   -4.6020   -1.4530   -1.0700 O   0  0  0  0  0  0  0  0  0  0  0  0
   -4.9660   -0.0090    0.8170 C   0  0  0  0  0  0  0  0  0  0  0  0
   -5.9290    0.6650    0.0910 O   0  0  0  0  0  0  0  0  0  0  0  0
    1.3770   -0.6990   -0.8880 C   0  0  2  0  0  0  0  0  0  0  0  0
    2.4220   -1.3120   -0.2450 O   0  0  0  0  0  0  0  0  0  0  0  0
    3.5600   -0.5710   -0.4210 C   0  0  2  0  0  0  0  0  0  0  0  0
    4.2060   -0.2860    0.9190 C   0  0  0  0  0  0  0  0  0  0  0  0
    5.4570    0.5310    0.7050 C   0  0  0  0  0  0  0  0  0  0  0  0
    6.3540   -0.1760   -0.1020 O   0  0  0  0  0  0  0  0  0  0  0  0
    3.2020    0.6640   -0.9990 O   0  0  0  0  0  0  0  0  0  0  0  0
    1.9790    0.4500   -1.6110 C   0  0  0  0  0  0  0  0  0  0  0  0
    1.4260    1.0440   -2.5660 O   0  0  0  0  0  0  0  0  0  0  0  0
  1  2  2  0
  2  3  1  0
 11  2  1  1
  3  4  1  0
  4  5  1  0
  5  6  1  0
  6  7  1  0
  7  8  1  6
  7  9  1  0
  9 10  1  0
 11 12  1  0
 11 18  1  0
 12 13  1  0
 13 14  1  1
 13 17  1  0
 14 15  1  0
 15 16  1  0
 17 18  1  0
 18 19  2  0
M  END
