
     RDKit          3D

 20 21  0  0  0  0  0  0  0  0999 V2000
   -1.6220    0.5490    2.2400 C   0  0  0  0  0  0  0  0  0  0  0  0
   -1.0040   -0.3740    1.5510 C   0  0  0  0  0  0  0  0  0  0  0  0
   -0.4660   -1.4560    2.2240 O   0  0  0  0  0  0  0  0  0  0  0  0
   -0.8450   -0.3260    0.0900 C   0  0  2  0  0  0  0  0  0  0  0  0
   -1.7540    0.5210   -0.4810 O   0  0  0  0  0  0  0  0  0  0  0  0
   -3.0480    0.0750   -0.3210 C   0  0  0  0  0  0  0  0  0  0  0  0
   -4.0370    1.0210   -0.9300 C   0  0  0  0  0  0  0  0  0  0  0  0
   -5.2340    0.8420   -0.9160 O   0  0  0  0  0  0  0  0  0  0  0  0
   -0.9810   -1.7550   -0.4700 C   0  0  0  0  0  0  0  0  0  0  0  0
    0.2390   -2.4030   -0.2780 O   0  0  0  0  0  0  0  0  0  0  0  0
    1.1680   -2.0420   -1.2620 C   0  0  0  0  0  0  0  0  0  0  0  0
    1.0770   -0.5240   -1.4770 C   0  0  0  0  0  0  0  0  0  0  0  0
    0.5870    0.0570   -0.1970 C   0  0  2  0  0  0  0  0  0  0  0  0
    1.6000   -0.5610    1.2050 S   0  0  0  0  0  0  0  0  0  0  0  0
    2.5160    0.8710    1.5600 O   0  0  0  0  0  0  0  0  0  0  0  0
    1.6670    1.8610    1.5690 O   0  0  0  0  0  0  0  0  0  0  0  0
    0.9030    1.8680   -0.0170 P   0  0  0  0  0  0  0  0  0  0  0  0
    2.1570    2.3020   -1.1550 O   0  0  0  0  0  0  0  0  0  0  0  0
    3.6570    1.7430   -0.5410 P   0  0  0  0  0  0  0  0  0  0  0  0
    4.9040    1.7080   -1.7320 O   0  0  0  0  0  0  0  0  0  0  0  0
  1  2  2  0
  2  3  1  0
  2  4  1  0
  4  5  1  6
  4  9  1  0
  4 13  1  0
  5  6  1  0
  6  7  1  0
  7  8  2  0
  9 10  1  0
 10 11  1  0
 11 12  1  0
 13 12  1  6
 13 14  1  0
 13 17  1  0
 14 15  1  0
 15 16  1  0
 16 17  1  0
 17 18  1  0
 18 19  1  0
 19 20  1  0
M  END
