
     RDKit          3D

 49 55  0  0  0  0  0  0  0  0999 V2000
   -5.6730   -1.7690   -1.5470 C   0  0  0  0  0  0  0  0  0  0  0  0
   -5.7240   -1.4730   -0.0710 C   0  0  2  0  0  0  0  0  0  0  0  0
   -6.8460   -2.2140    0.5820 C   0  0  0  0  0  0  0  0  0  0  0  0
   -8.1740   -1.7450    0.0410 C   0  0  0  0  0  0  0  0  0  0  0  0
   -8.3130   -0.2650    0.1480 C   0  0  2  0  0  0  0  0  0  0  0  0
   -9.6160    0.2790   -0.2110 C   0  0  0  0  0  0  0  0  0  0  0  0
  -10.6950   -0.4630   -0.6630 C   0  0  0  0  0  0  0  0  0  0  0  0
  -11.8730    0.1910   -0.9590 C   0  0  0  0  0  0  0  0  0  0  0  0
  -11.9860    1.5680   -0.8100 C   0  0  0  0  0  0  0  0  0  0  0  0
  -13.1770    2.2250   -1.1100 O   0  0  0  0  0  0  0  0  0  0  0  0
  -10.9170    2.3110   -0.3620 C   0  0  0  0  0  0  0  0  0  0  0  0
   -9.7620    1.6590   -0.0740 C   0  0  0  0  0  0  0  0  0  0  0  0
   -8.5150    2.3480    0.4220 C   0  0  0  0  0  0  0  0  0  0  0  0
   -7.3720    1.9380   -0.4960 C   0  0  0  0  0  0  0  0  0  0  0  0
   -7.1380    0.4640   -0.5280 C   0  0  1  0  0  0  0  0  0  0  0  0
   -5.9600   -0.0030    0.2080 C   0  0  2  0  0  0  0  0  0  0  0  0
   -4.6190    0.5750   -0.1230 C   0  0  0  0  0  0  0  0  0  0  0  0
   -3.8000   -0.3120    0.8400 C   0  0  2  0  0  0  0  0  0  0  0  0
   -2.3120   -0.1980    0.5760 C   0  0  0  0  0  0  0  0  0  0  0  0
   -1.6340   -1.0710    1.5720 C   0  0  0  0  0  0  0  0  0  0  0  0
   -0.1920   -1.2830    1.5450 C   0  0  0  0  0  0  0  0  0  0  0  0
    0.7460   -0.1660    1.6580 C   0  0  0  0  0  0  0  0  0  0  0  0
    0.7770    0.8040    0.5280 C   0  0  0  0  0  0  0  0  0  0  0  0
    1.8170    1.8960    0.8090 C   0  0  0  0  0  0  0  0  0  0  0  0
    3.1930    1.3490    0.9880 C   0  0  0  0  0  0  0  0  0  0  0  0
    3.7280    0.5930   -0.1990 C   0  0  0  0  0  0  0  0  0  0  0  0
    5.1170    0.1250    0.1730 C   0  0  0  0  0  0  0  0  0  0  0  0
    6.0930    0.9060    0.1020 O   0  0  0  0  0  0  0  0  0  0  0  0
    5.3320   -1.1530    0.5940 O   0  0  0  0  0  0  0  0  0  0  0  0
    6.4950   -1.7800    0.9710 C   0  0  0  0  0  0  0  0  0  0  0  0
    7.4970   -1.8940   -0.1200 C   0  0  1  0  0  0  0  0  0  0  0  0
    7.9070   -0.6870   -0.6090 O   0  0  0  0  0  0  0  0  0  0  0  0
    9.1050   -0.9060   -1.2970 C   0  0  1  0  0  0  0  0  0  0  0  0
    9.8480    0.3150   -1.4440 N   0  0  0  0  0  0  0  0  0  0  0  0
   10.1050    0.9880   -2.6010 C   0  0  0  0  0  0  0  0  0  0  0  0
   10.8210    2.0820   -2.3630 N   0  0  0  0  0  0  0  0  0  0  0  0
   11.0480    2.1530   -1.0560 C   0  0  0  0  0  0  0  0  0  0  0  0
   11.7370    3.0940   -0.3330 C   0  0  0  0  0  0  0  0  0  0  0  0
   12.3530    4.2210   -0.9450 N   0  0  0  0  0  0  0  0  0  0  0  0
   11.8040    2.9010    1.0030 N   0  0  0  0  0  0  0  0  0  0  0  0
   11.2130    1.8240    1.5740 C   0  0  0  0  0  0  0  0  0  0  0  0
   10.5390    0.9050    0.8560 N   0  0  0  0  0  0  0  0  0  0  0  0
   10.4440    1.0530   -0.4780 C   0  0  0  0  0  0  0  0  0  0  0  0
    9.8290   -1.9800   -0.5480 C   0  0  2  0  0  0  0  0  0  0  0  0
   10.1220   -3.0550   -1.4140 O   0  0  0  0  0  0  0  0  0  0  0  0
    8.7880   -2.4860    0.4290 C   0  0  2  0  0  0  0  0  0  0  0  0
    8.6760   -3.8580    0.3950 O   0  0  0  0  0  0  0  0  0  0  0  0
   -4.3780   -1.6720    0.5960 C   0  0  2  0  0  0  0  0  0  0  0  0
   -3.5610   -2.5200   -0.1340 O   0  0  0  0  0  0  0  0  0  0  0  0
  2  1  1  6
  2  3  1  0
  2 16  1  0
  2 48  1  0
  3  4  1  0
  5  4  1  6
  5  6  1  0
  5 15  1  0
  6  7  2  0
  6 12  1  0
  7  8  1  0
  8  9  2  0
  9 10  1  0
  9 11  1  0
 11 12  2  0
 12 13  1  0
 13 14  1  0
 15 14  1  1
 15 16  1  0
 16 17  1  6
 17 18  1  0
 18 19  1  6
 18 48  1  0
 19 20  1  0
 20 21  1  0
 21 22  1  0
 22 23  1  0
 23 24  1  0
 24 25  1  0
 25 26  1  0
 26 27  1  0
 27 28  2  0
 27 29  1  0
 29 30  1  0
 31 30  1  1
 31 32  1  0
 31 46  1  0
 32 33  1  0
 33 34  1  1
 33 44  1  0
 34 35  1  0
 34 43  1  0
 35 36  2  0
 36 37  1  0
 37 38  2  0
 37 43  1  0
 38 39  1  0
 38 40  1  0
 40 41  2  0
 41 42  1  0
 42 43  2  0
 44 45  1  6
 44 46  1  0
 46 47  1  6
 48 49  1  6
M  END
