
     RDKit          3D

 43 46  0  0  0  0  0  0  0  0999 V2000
   -0.7060    6.9950    2.9340 N   0  0  0  0  0  0  0  0  0  0  0  0
   -0.7730    6.0460    1.8450 C   0  0  0  0  0  0  0  0  0  0  0  0
   -1.0180    6.4330    0.6830 O   0  0  0  0  0  0  0  0  0  0  0  0
   -0.5490    4.6430    2.1500 C   0  0  0  0  0  0  0  0  0  0  0  0
   -0.7050    3.7360    1.0720 O   0  0  0  0  0  0  0  0  0  0  0  0
   -1.8590    3.5410    0.3960 C   0  0  0  0  0  0  0  0  0  0  0  0
   -2.3320    2.3610    0.1530 C   0  0  0  0  0  0  0  0  0  0  0  0
   -1.7290    1.0470    0.5400 C   0  0  0  0  0  0  0  0  0  0  0  0
   -0.3330    0.8990    0.8710 C   0  0  0  0  0  0  0  0  0  0  0  0
    0.2890    1.8290    1.4440 O   0  0  0  0  0  0  0  0  0  0  0  0
    0.4690   -0.2560    0.5740 N   0  0  0  0  0  0  0  0  0  0  0  0
    1.8550   -0.2360    1.0250 C   0  0  2  0  0  0  0  0  0  0  0  0
    1.9980   -0.1330    2.5130 C   0  0  0  0  0  0  0  0  0  0  0  0
    1.3780   -1.2180    3.1560 O   0  0  0  0  0  0  0  0  0  0  0  0
    2.6070    0.9210    0.3650 C   0  0  0  0  0  0  0  0  0  0  0  0
    3.6490    0.2030   -0.4880 C   0  0  0  0  0  0  0  0  0  0  0  0
    3.9110   -0.9610    0.2950 N   0  0  2  0  0  0  0  0  0  0  0  0
    4.7560   -1.9330   -0.3300 C   0  0  1  0  0  0  0  0  0  0  0  0
    5.7090   -1.3830   -1.3370 C   0  0  0  0  0  0  0  0  0  0  0  0
    6.7700   -2.2570   -1.4060 O   0  0  0  0  0  0  0  0  0  0  0  0
    6.8370   -2.9900   -0.2570 C   0  0  0  0  0  0  0  0  0  0  0  0
    5.7360   -2.5650    0.6630 C   0  0  1  0  0  0  0  0  0  0  0  0
    6.2680   -1.5490    1.4890 O   0  0  0  0  0  0  0  0  0  0  0  0
    2.5750   -1.4790    0.5490 C   0  0  0  0  0  0  0  0  0  0  0  0
   -2.4590    0.0010    0.2020 C   0  0  0  0  0  0  0  0  0  0  0  0
   -3.6780    0.3000   -0.5140 O   0  0  0  0  0  0  0  0  0  0  0  0
   -2.2390   -1.3670    0.4770 C   0  0  0  0  0  0  0  0  0  0  0  0
   -1.3840   -1.9510    1.1620 O   0  0  0  0  0  0  0  0  0  0  0  0
   -3.1160   -2.3230   -0.0980 O   0  0  0  0  0  0  0  0  0  0  0  0
   -3.0080   -3.6860    0.0910 C   0  0  1  0  0  0  0  0  0  0  0  0
   -4.2060   -4.3960    0.6130 C   0  0  0  0  0  0  0  0  0  0  0  0
   -5.3850   -4.3290   -0.3300 C   0  0  0  0  0  0  0  0  0  0  0  0
   -5.0280   -4.1270   -1.6370 O   0  0  0  0  0  0  0  0  0  0  0  0
   -3.8670   -4.7500   -2.0170 C   0  0  0  0  0  0  0  0  0  0  0  0
   -2.6540   -4.3270   -1.2570 C   0  0  1  0  0  0  0  0  0  0  0  0
   -1.8880   -3.3800   -1.9430 O   0  0  0  0  0  0  0  0  0  0  0  0
   -3.5380    2.3230   -0.5470 O   0  0  0  0  0  0  0  0  0  0  0  0
   -3.7840    3.2060   -1.6150 C   0  0  0  0  0  0  0  0  0  0  0  0
   -3.1860    4.5760   -1.3590 C   0  0  2  0  0  0  0  0  0  0  0  0
   -2.1370    4.8560   -2.3740 C   0  0  0  0  0  0  0  0  0  0  0  0
   -2.5100    4.8650   -3.7690 N   0  0  0  0  0  0  0  0  0  0  0  0
   -0.9530    5.0830   -2.0640 O   0  0  0  0  0  0  0  0  0  0  0  0
   -2.6120    4.6380   -0.0840 O   0  0  0  0  0  0  0  0  0  0  0  0
  1  2  1  0
  2  3  2  0
  2  4  1  0
  4  5  1  0
  5  6  1  0
  6  7  2  0
  6 43  1  0
  7  8  1  0
  7 37  1  0
  8  9  1  0
  8 25  2  3
  9 10  2  0
  9 11  1  0
 11 12  1  0
 12 13  1  1
 12 15  1  0
 12 24  1  0
 13 14  1  0
 15 16  1  0
 17 16  1  6
 17 18  1  0
 17 24  1  0
 18 19  1  6
 18 22  1  0
 19 20  1  0
 20 21  1  0
 21 22  1  0
 22 23  1  1
 25 26  1  0
 25 27  1  0
 27 28  2  0
 27 29  1  0
 30 29  1  6
 30 31  1  0
 30 35  1  0
 31 32  1  0
 32 33  1  0
 33 34  1  0
 34 35  1  0
 35 36  1  6
 37 38  1  0
 38 39  1  0
 39 40  1  6
 39 43  1  0
 40 41  1  0
 40 42  2  0
M  CHG  1  17   1
M  END
