
     RDKit          3D

 43 48  0  0  0  0  0  0  0  0999 V2000
   -3.3150    6.3210   -0.4880 C   0  0  0  0  0  0  0  0  0  0  0  0
   -2.8420    5.1020    0.1460 N   0  0  0  0  0  0  0  0  0  0  0  0
   -2.2260    4.0790   -0.4930 C   0  0  0  0  0  0  0  0  0  0  0  0
   -1.9290    3.1090    0.4320 C   0  0  0  0  0  0  0  0  0  0  0  0
   -1.2410    1.7820    0.1870 C   0  0  0  0  0  0  0  0  0  0  0  0
   -1.0750    1.5810   -1.2430 N   0  0  0  0  0  0  0  0  0  0  0  0
   -1.1430    0.1830   -1.5830 C   0  0  0  0  0  0  0  0  0  0  0  0
   -0.8370   -0.6530   -0.4190 C   0  0  0  0  0  0  0  0  0  0  0  0
   -1.7550   -1.4130    0.1590 C   0  0  0  0  0  0  0  0  0  0  0  0
   -3.1420   -1.4360   -0.3690 C   0  0  1  0  0  0  0  0  0  0  0  0
   -3.3990   -2.7890   -0.9900 C   0  0  0  0  0  0  0  0  0  0  0  0
   -4.6970   -2.9590   -1.5490 N   0  0  0  0  0  0  0  0  0  0  0  0
   -5.8420   -3.4700   -0.9010 C   0  0  0  0  0  0  0  0  0  0  0  0
   -5.8920   -4.3340    0.0090 O   0  0  0  0  0  0  0  0  0  0  0  0
   -7.0230   -2.8020   -1.4850 C   0  0  0  0  0  0  0  0  0  0  0  0
   -6.5900   -2.6280   -2.9380 C   0  0  0  0  0  0  0  0  0  0  0  0
   -5.0890   -2.6360   -2.8740 C   0  0  0  0  0  0  0  0  0  0  0  0
   -4.3680   -2.3840   -3.8850 O   0  0  0  0  0  0  0  0  0  0  0  0
   -4.1170   -1.1190    0.7360 C   0  0  0  0  0  0  0  0  0  0  0  0
   -4.4760   -2.0100    1.7090 C   0  0  0  0  0  0  0  0  0  0  0  0
   -5.3610   -1.6930    2.7230 C   0  0  0  0  0  0  0  0  0  0  0  0
   -5.9210   -0.4160    2.7690 C   0  0  0  0  0  0  0  0  0  0  0  0
   -5.5720    0.4980    1.7960 C   0  0  0  0  0  0  0  0  0  0  0  0
   -4.6960    0.1400    0.8170 C   0  0  0  0  0  0  0  0  0  0  0  0
   -1.4350   -2.2610    1.3150 C   0  0  0  0  0  0  0  0  0  0  0  0
   -0.0500   -2.2750    1.7840 C   0  0  0  0  0  0  0  0  0  0  0  0
    0.9360   -1.4490    1.0810 C   0  0  0  0  0  0  0  0  0  0  0  0
    2.2830   -1.5080    1.5120 C   0  0  0  0  0  0  0  0  0  0  0  0
    3.2500   -0.7660    0.8880 C   0  0  0  0  0  0  0  0  0  0  0  0
    2.8910    0.0320   -0.1580 C   0  0  0  0  0  0  0  0  0  0  0  0
    3.8960    0.8460   -0.8680 C   0  0  0  0  0  0  0  0  0  0  0  0
    5.0120    1.3280   -0.1420 N   0  0  1  0  0  0  0  0  0  0  0  0
    4.6950    1.6680    1.2310 C   0  0  0  0  0  0  0  0  0  0  0  0
    6.2650    0.6670   -0.3140 C   0  0  2  0  0  0  0  0  0  0  0  0
    6.2720   -0.7470   -0.7490 C   0  0  0  0  0  0  0  0  0  0  0  0
    7.6820   -1.0200   -1.3270 C   0  0  0  0  0  0  0  0  0  0  0  0
    8.6990   -0.8420   -0.2200 C   0  0  0  0  0  0  0  0  0  0  0  0
    8.5640    0.4760    0.4870 C   0  0  0  0  0  0  0  0  0  0  0  0
    7.1260    0.7410    0.9540 C   0  0  0  0  0  0  0  0  0  0  0  0
    1.5510    0.0970   -0.5940 C   0  0  0  0  0  0  0  0  0  0  0  0
    0.5800   -0.6490    0.0340 C   0  0  0  0  0  0  0  0  0  0  0  0
   -2.3840    3.5830    1.6320 C   0  0  0  0  0  0  0  0  0  0  0  0
   -2.9350    4.8030    1.4200 N   0  0  0  0  0  0  0  0  0  0  0  0
  1  2  1  0
  2  3  1  0
  2 43  1  0
  3  4  2  0
  4  5  1  0
  4 42  1  0
  5  6  1  0
  6  7  1  0
  7  8  1  0
  8  9  2  0
  8 41  1  0
  9 10  1  0
  9 25  1  0
 10 11  1  1
 10 19  1  0
 11 12  1  0
 12 13  1  0
 12 17  1  0
 13 14  2  0
 13 15  1  0
 15 16  1  0
 16 17  1  0
 17 18  2  0
 19 20  2  0
 19 24  1  0
 20 21  1  0
 21 22  2  0
 22 23  1  0
 23 24  2  0
 25 26  1  0
 26 27  1  0
 27 28  2  0
 27 41  1  0
 28 29  1  0
 29 30  2  0
 30 31  1  0
 30 40  1  0
 31 32  1  0
 32 33  1  1
 32 34  1  0
 34 35  1  1
 34 39  1  0
 35 36  1  0
 36 37  1  0
 37 38  1  0
 38 39  1  0
 40 41  2  0
 42 43  2  0
M  CHG  2   6   1  32   1
M  END
