
     RDKit          3D

 42 47  0  0  0  0  0  0  0  0999 V2000
   -7.0110    3.8290    1.0800 C   0  0  0  0  0  0  0  0  0  0  0  0
   -8.0880    3.9780    0.0570 C   0  0  0  0  0  0  0  0  0  0  0  0
   -7.9430    3.2160   -1.1950 C   0  0  0  0  0  0  0  0  0  0  0  0
   -7.8860    1.7400   -1.0830 C   0  0  0  0  0  0  0  0  0  0  0  0
   -6.7860    1.1150   -0.3620 C   0  0  0  0  0  0  0  0  0  0  0  0
   -5.5660    0.8240   -0.9580 C   0  0  0  0  0  0  0  0  0  0  0  0
   -4.7910    0.1530   -0.0610 C   0  0  0  0  0  0  0  0  0  0  0  0
   -3.5510   -0.3600   -0.2140 N   0  0  0  0  0  0  0  0  0  0  0  0
   -2.9090   -1.0650    0.7780 C   0  0  0  0  0  0  0  0  0  0  0  0
   -1.6540   -1.8450    0.4370 C   0  0  2  0  0  0  0  0  0  0  0  0
   -0.6030   -0.8720    0.1570 C   0  0  2  0  0  0  0  0  0  0  0  0
   -0.6740    0.1860   -0.8600 C   0  0  0  0  0  0  0  0  0  0  0  0
    0.6540    0.9910   -0.6710 C   0  0  0  0  0  0  0  0  0  0  0  0
    1.7670    0.3500   -1.3160 N   0  0  0  0  0  0  0  0  0  0  0  0
    3.0110    0.6580   -0.6430 C   0  0  0  0  0  0  0  0  0  0  0  0
    4.1250    0.3330   -1.6240 C   0  0  0  0  0  0  0  0  0  0  0  0
    5.4600    0.6460   -1.1030 C   0  0  0  0  0  0  0  0  0  0  0  0
    5.7970    2.0220   -0.9860 C   0  0  0  0  0  0  0  0  0  0  0  0
    6.9590    2.4570   -0.4270 C   0  0  0  0  0  0  0  0  0  0  0  0
    7.8640    1.5240    0.0510 C   0  0  0  0  0  0  0  0  0  0  0  0
    7.5780    0.1880   -0.0430 C   0  0  0  0  0  0  0  0  0  0  0  0
    6.3670   -0.2510   -0.6270 C   0  0  0  0  0  0  0  0  0  0  0  0
    6.1360   -1.7120   -0.7470 C   0  0  0  0  0  0  0  0  0  0  0  0
    9.1250    2.0930    0.6020 C   0  0  0  0  0  0  0  0  0  0  0  0
    8.8500    3.1660    1.6470 C   0  0  0  0  0  0  0  0  0  0  0  0
    7.6520    4.0010    1.2700 C   0  0  0  0  0  0  0  0  0  0  0  0
    7.3210    3.8830   -0.2260 C   0  0  0  0  0  0  0  0  0  0  0  0
    1.4740   -1.0790   -1.2530 C   0  0  0  0  0  0  0  0  0  0  0  0
    0.8050   -1.4720    0.0630 C   0  0  0  0  0  0  0  0  0  0  0  0
   -2.0550   -2.6960   -0.6110 N   0  0  1  0  0  0  0  0  0  0  0  0
   -1.2380   -3.6040   -1.2770 C   0  0  0  0  0  0  0  0  0  0  0  0
   -0.9100   -4.9130   -0.6200 C   0  0  0  0  0  0  0  0  0  0  0  0
   -1.7040   -5.2030    0.6070 C   0  0  0  0  0  0  0  0  0  0  0  0
   -3.0870   -4.6120    0.5870 C   0  0  0  0  0  0  0  0  0  0  0  0
   -3.2680   -3.4000   -0.2520 C   0  0  0  0  0  0  0  0  0  0  0  0
   -3.6240   -1.1970    1.9330 C   0  0  0  0  0  0  0  0  0  0  0  0
   -2.9980   -1.8410    3.0830 C   0  0  0  0  0  0  0  0  0  0  0  0
   -2.3380   -1.1680    3.9270 O   0  0  0  0  0  0  0  0  0  0  0  0
   -4.9000   -0.6500    2.0550 C   0  0  0  0  0  0  0  0  0  0  0  0
   -5.5510   -0.7700    3.1300 O   0  0  0  0  0  0  0  0  0  0  0  0
   -5.4940    0.0250    1.0630 N   0  0  0  0  0  0  0  0  0  0  0  0
   -6.6760    0.6010    0.8780 N   0  0  0  0  0  0  0  0  0  0  0  0
  1  2  1  0
  2  3  1  0
  3  4  1  0
  4  5  1  0
  5  6  1  0
  5 42  2  0
  6  7  2  0
  7  8  1  0
  7 41  1  0
  8  9  1  0
 10  9  1  6
  9 36  2  0
 10 11  1  0
 10 30  1  0
 11 12  1  6
 11 29  1  0
 12 13  1  0
 13 14  1  0
 14 15  1  0
 14 28  1  0
 15 16  1  0
 16 17  1  0
 17 18  2  0
 17 22  1  0
 18 19  1  0
 19 20  2  0
 19 27  1  0
 20 21  1  0
 20 24  1  0
 21 22  2  0
 22 23  1  0
 24 25  1  0
 25 26  1  0
 26 27  1  0
 28 29  1  0
 30 31  1  1
 30 35  1  0
 31 32  1  0
 32 33  1  0
 33 34  1  0
 34 35  1  0
 36 37  1  0
 36 39  1  0
 37 38  2  0
 39 40  2  0
 39 41  1  0
 41 42  1  0
M  CHG  1  30   1
M  END
