
     RDKit          3D

 43 45  0  0  0  0  0  0  0  0999 V2000
    8.9780    0.8870    1.5930 C   0  0  0  0  0  0  0  0  0  0  0  0
    7.7210    0.6680    1.0260 O   0  0  0  0  0  0  0  0  0  0  0  0
    6.7840   -0.2440    1.5100 C   0  0  0  0  0  0  0  0  0  0  0  0
    7.0880   -0.9070    2.5140 O   0  0  0  0  0  0  0  0  0  0  0  0
    5.4640   -0.4190    0.8500 C   0  0  1  0  0  0  0  0  0  0  0  0
    4.6870    0.8280    0.8260 C   0  0  0  0  0  0  0  0  0  0  0  0
    5.2050    1.8430    1.4060 O   0  0  0  0  0  0  0  0  0  0  0  0
    3.4640    1.0080    0.2430 O   0  0  0  0  0  0  0  0  0  0  0  0
    2.7690    2.2470    0.2620 C   0  0  1  0  0  0  0  0  0  0  0  0
    3.5970    3.3410   -0.4020 C   0  0  0  0  0  0  0  0  0  0  0  0
    1.5230    2.1610   -0.5610 C   0  0  0  0  0  0  0  0  0  0  0  0
    0.8120    3.1950   -0.6240 O   0  0  0  0  0  0  0  0  0  0  0  0
    1.1060    1.0160   -1.2550 N   0  0  0  0  0  0  0  0  0  0  0  0
   -0.0660    0.9560   -2.0240 N   0  0  0  0  0  0  0  0  0  0  0  0
   -1.3100    1.3040   -1.4310 C   0  0  0  0  0  0  0  0  0  0  0  0
   -1.3250    1.6580   -0.2230 O   0  0  0  0  0  0  0  0  0  0  0  0
   -2.5360    1.2640   -2.1660 N   0  0  0  0  0  0  0  0  0  0  0  0
   -3.7490    1.6250   -1.5170 C   0  0  1  0  0  0  0  0  0  0  0  0
   -4.4670    2.7740   -2.1930 C   0  0  0  0  0  0  0  0  0  0  0  0
   -5.7170    2.2090   -2.8220 C   0  0  0  0  0  0  0  0  0  0  0  0
   -5.4290    0.7250   -2.8380 C   0  0  2  0  0  0  0  0  0  0  0  0
   -6.5350   -0.0530   -2.8960 O   0  0  0  0  0  0  0  0  0  0  0  0
   -6.4250   -1.2540   -2.2640 C   0  0  2  0  0  0  0  0  0  0  0  0
   -7.3120   -1.2470   -1.0750 C   0  0  0  0  0  0  0  0  0  0  0  0
   -8.0250   -0.2600   -0.8340 O   0  0  0  0  0  0  0  0  0  0  0  0
   -7.3380   -2.3390   -0.2470 O   0  0  0  0  0  0  0  0  0  0  0  0
   -8.1470   -2.4340    0.9100 C   0  0  0  0  0  0  0  0  0  0  0  0
   -7.8710   -3.7910    1.5310 C   0  0  0  0  0  0  0  0  0  0  0  0
   -6.5220   -3.9100    1.8740 O   0  0  0  0  0  0  0  0  0  0  0  0
   -5.2030   -1.7050   -1.8930 O   0  0  0  0  0  0  0  0  0  0  0  0
   -4.2560   -0.8370   -1.4510 C   0  0  2  0  0  0  0  0  0  0  0  0
   -3.8270   -1.2880   -0.0570 C   0  0  0  0  0  0  0  0  0  0  0  0
   -4.7870    0.5450   -1.4800 C   0  0  1  0  0  0  0  0  0  0  0  0
    2.5080    2.6070    1.6620 C   0  0  0  0  0  0  0  0  0  0  0  0
    2.8790    1.8600    2.6310 O   0  0  0  0  0  0  0  0  0  0  0  0
    1.8490    3.7680    2.0260 O   0  0  0  0  0  0  0  0  0  0  0  0
    1.6130    4.0860    3.3790 C   0  0  0  0  0  0  0  0  0  0  0  0
    5.6670   -0.9570   -0.5430 C   0  0  0  0  0  0  0  0  0  0  0  0
    6.1500   -2.3860   -0.2740 C   0  0  2  0  0  0  0  0  0  0  0  0
    5.7610   -3.2310   -1.3050 O   0  0  0  0  0  0  0  0  0  0  0  0
    5.5220   -2.7630    1.0550 C   0  0  2  0  0  0  0  0  0  0  0  0
    4.7160   -3.9670    0.9630 N   0  0  0  0  0  0  0  0  0  0  0  0
    4.7260   -1.5620    1.5080 C   0  0  0  0  0  0  0  0  0  0  0  0
  1  2  1  0
  2  3  1  0
  3  4  2  0
  5  3  1  1
  5  6  1  0
  5 38  1  0
  5 43  1  0
  6  7  2  0
  6  8  1  0
  8  9  1  0
  9 10  1  6
  9 11  1  0
  9 34  1  0
 11 12  2  0
 11 13  1  0
 13 14  1  0
 14 15  1  0
 15 16  2  0
 15 17  1  0
 18 17  1  6
 18 19  1  0
 33 18  1  6
 19 20  1  0
 21 20  1  1
 21 22  1  0
 21 33  1  0
 22 23  1  0
 23 24  1  1
 23 30  1  0
 24 25  2  0
 24 26  1  0
 26 27  1  0
 27 28  1  0
 28 29  1  0
 30 31  1  0
 31 32  1  1
 31 33  1  0
 34 35  2  0
 34 36  1  0
 36 37  1  0
 38 39  1  0
 39 40  1  6
 39 41  1  0
 41 42  1  6
 41 43  1  0
M  CHG  1  42   1
M  END
