
     RDKit          3D

 42 45  0  0  0  0  0  0  0  0999 V2000
   -4.0680    5.0580    0.6200 O   0  0  0  0  0  0  0  0  0  0  0  0
   -5.0740    4.4550    0.1760 C   0  0  0  0  0  0  0  0  0  0  0  0
   -6.3600    4.8950    0.5940 O   0  0  0  0  0  0  0  0  0  0  0  0
   -4.9180    3.4150   -0.6760 O   0  0  0  0  0  0  0  0  0  0  0  0
   -3.8360    2.7990   -1.2020 C   0  0  0  0  0  0  0  0  0  0  0  0
   -2.9380    1.9450   -0.3860 C   0  0  2  0  0  0  0  0  0  0  0  0
   -1.9260    1.4860   -1.2770 O   0  0  0  0  0  0  0  0  0  0  0  0
   -3.6520    0.7080    0.1500 C   0  0  0  0  0  0  0  0  0  0  0  0
   -3.2820   -0.4150   -0.6460 N   0  0  0  0  0  0  0  0  0  0  0  0
   -3.7840   -1.6890   -0.2060 C   0  0  1  0  0  0  0  0  0  0  0  0
   -4.5950   -2.2050   -1.2130 O   0  0  0  0  0  0  0  0  0  0  0  0
   -5.8790   -2.4880   -0.8440 C   0  0  0  0  0  0  0  0  0  0  0  0
   -6.6630   -1.2970   -0.3540 C   0  0  1  0  0  0  0  0  0  0  0  0
   -6.7610   -0.3100   -1.3460 O   0  0  0  0  0  0  0  0  0  0  0  0
   -8.0940   -1.7930   -0.1080 C   0  0  0  0  0  0  0  0  0  0  0  0
   -8.0750   -2.7940    0.8850 O   0  0  0  0  0  0  0  0  0  0  0  0
   -2.6130   -2.6640    0.0590 C   0  0  1  0  0  0  0  0  0  0  0  0
   -2.4520   -3.5160   -1.0390 O   0  0  0  0  0  0  0  0  0  0  0  0
   -1.3980   -1.8600    0.3560 C   0  0  0  0  0  0  0  0  0  0  0  0
   -0.2080   -2.5180    0.1770 O   0  0  0  0  0  0  0  0  0  0  0  0
    0.8820   -1.7590    0.6550 C   0  0  0  0  0  0  0  0  0  0  0  0
    1.2400   -0.6680   -0.2840 C   0  0  2  0  0  0  0  0  0  0  0  0
    2.1830   -1.1350   -1.3030 N   0  0  0  0  0  0  0  0  0  0  0  0
    3.5830   -0.9580   -1.2210 C   0  0  0  0  0  0  0  0  0  0  0  0
    4.3590   -1.4600   -2.0640 O   0  0  0  0  0  0  0  0  0  0  0  0
    4.1720   -0.1930   -0.1660 N   0  0  0  0  0  0  0  0  0  0  0  0
    5.5600    0.0220   -0.0240 C   0  0  2  0  0  0  0  0  0  0  0  0
    6.2190    0.7140   -1.1920 C   0  0  0  0  0  0  0  0  0  0  0  0
    7.4700    0.1460   -1.3580 O   0  0  0  0  0  0  0  0  0  0  0  0
    7.7680   -0.5900   -0.2370 C   0  0  2  0  0  0  0  0  0  0  0  0
    8.2560    0.2610    0.9150 C   0  0  0  0  0  0  0  0  0  0  0  0
    9.6290   -0.3140    1.1720 C   0  0  0  0  0  0  0  0  0  0  0  0
    9.6300   -1.6120    0.7010 O   0  0  0  0  0  0  0  0  0  0  0  0
    8.8190   -1.6170   -0.4450 C   0  0  0  0  0  0  0  0  0  0  0  0
    6.4050   -1.2140    0.1090 C   0  0  0  0  0  0  0  0  0  0  0  0
    3.2550    0.3620    0.7720 C   0  0  0  0  0  0  0  0  0  0  0  0
    3.6010    0.6800    1.9390 O   0  0  0  0  0  0  0  0  0  0  0  0
    1.8290    0.5680    0.3340 C   0  0  2  0  0  0  0  0  0  0  0  0
    1.0470    1.1840    1.4310 C   0  0  0  0  0  0  0  0  0  0  0  0
   -0.0200    2.1350    0.9050 C   0  0  0  0  0  0  0  0  0  0  0  0
   -1.3060    1.8280    1.4610 N   0  0  0  0  0  0  0  0  0  0  0  0
   -2.3180    2.6480    0.7770 C   0  0  0  0  0  0  0  0  0  0  0  0
  1  2  2  0
  2  3  1  0
  2  4  1  0
  4  5  1  0
  5  6  1  0
  6  7  1  6
  6  8  1  0
  6 42  1  0
  8  9  1  0
  9 10  1  0
 10 11  1  6
 10 17  1  0
 11 12  1  0
 12 13  1  0
 13 14  1  6
 13 15  1  0
 15 16  1  0
 17 18  1  6
 17 19  1  0
 19 20  1  0
 20 21  1  0
 22 21  1  1
 22 23  1  0
 22 38  1  0
 23 24  1  0
 24 25  2  0
 24 26  1  0
 27 26  1  6
 26 36  1  0
 27 28  1  0
 27 35  1  0
 28 29  1  0
 29 30  1  0
 30 31  1  1
 30 34  1  0
 30 35  1  0
 31 32  1  0
 32 33  1  0
 33 34  1  0
 36 37  2  0
 36 38  1  0
 38 39  1  1
 39 40  1  0
 40 41  1  0
 41 42  1  0
M  CHG  1  41   1
M  END
