
     RDKit          3D

 43 48  0  0  0  0  0  0  0  0999 V2000
   -5.5760   -6.6670    1.5320 C   0  0  0  0  0  0  0  0  0  0  0  0
   -5.2230   -5.3420    1.3200 O   0  0  0  0  0  0  0  0  0  0  0  0
   -4.0750   -4.8620    0.7560 C   0  0  0  0  0  0  0  0  0  0  0  0
   -3.1150   -5.7720    0.3250 C   0  0  0  0  0  0  0  0  0  0  0  0
   -1.9640   -5.2620   -0.2400 C   0  0  0  0  0  0  0  0  0  0  0  0
   -1.7280   -3.9100   -0.3940 C   0  0  0  0  0  0  0  0  0  0  0  0
   -2.6840   -3.0250    0.0370 C   0  0  0  0  0  0  0  0  0  0  0  0
   -2.5550   -1.5790   -0.1730 C   0  0  0  0  0  0  0  0  0  0  0  0
   -1.7150   -0.8480   -0.9570 C   0  0  0  0  0  0  0  0  0  0  0  0
   -1.9960    0.4750   -0.8200 C   0  0  0  0  0  0  0  0  0  0  0  0
   -1.4730    1.6590   -1.4460 C   0  0  1  0  0  0  0  0  0  0  0  0
   -2.1230    2.9030   -0.8160 C   0  0  0  0  0  0  0  0  0  0  0  0
   -2.9990    3.7010   -1.4750 C   0  0  0  0  0  0  0  0  0  0  0  0
   -3.5830    4.8100   -0.8710 C   0  0  0  0  0  0  0  0  0  0  0  0
   -3.2880    5.1280    0.4140 C   0  0  0  0  0  0  0  0  0  0  0  0
   -3.8730    6.3030    1.1340 C   0  0  1  0  0  0  0  0  0  0  0  0
   -4.1950    5.8300    2.5290 C   0  0  0  0  0  0  0  0  0  0  0  0
   -2.8000    7.3920    1.2820 C   0  0  0  0  0  0  0  0  0  0  0  0
   -2.3860    4.3200    1.1050 C   0  0  0  0  0  0  0  0  0  0  0  0
   -1.8150    3.2200    0.4860 C   0  0  0  0  0  0  0  0  0  0  0  0
   -0.1360    2.0190   -1.5350 N   0  0  0  0  0  0  0  0  0  0  0  0
    0.1630    3.2700   -2.3750 C   0  0  0  0  0  0  0  0  0  0  0  0
    1.1740    3.8920   -1.4020 C   0  0  0  0  0  0  0  0  0  0  0  0
    1.8900    2.7260   -0.9550 N   0  0  0  0  0  0  0  0  0  0  0  0
    1.0840    1.6450   -1.0540 C   0  0  0  0  0  0  0  0  0  0  0  0
    1.6130    0.3580   -0.7100 C   0  0  0  0  0  0  0  0  0  0  0  0
    1.3960   -0.2470    0.4860 C   0  0  0  0  0  0  0  0  0  0  0  0
    2.0380   -1.4430    0.8440 C   0  0  0  0  0  0  0  0  0  0  0  0
    2.9060   -2.0420   -0.0070 C   0  0  0  0  0  0  0  0  0  0  0  0
    3.1360   -1.4460   -1.2280 C   0  0  0  0  0  0  0  0  0  0  0  0
    2.5190   -0.2910   -1.5770 C   0  0  0  0  0  0  0  0  0  0  0  0
    4.1060   -2.1550   -2.1180 C   0  0  0  0  0  0  0  0  0  0  0  0
    5.2900   -2.3480   -1.3420 N   0  0  0  0  0  0  0  0  0  0  0  0
    6.0620   -1.1720   -1.1420 C   0  0  0  0  0  0  0  0  0  0  0  0
    5.4870   -0.1770   -0.3010 C   0  0  0  0  0  0  0  0  0  0  0  0
    4.9940    0.6370    0.3880 N   0  0  0  0  0  0  0  0  0  0  0  0
    5.1110   -3.2150   -0.2130 C   0  0  1  0  0  0  0  0  0  0  0  0
    6.0280   -2.9600    0.9190 C   0  0  0  0  0  0  0  0  0  0  0  0
    5.8450   -3.8610    2.0300 N   0  0  0  0  0  0  0  0  0  0  0  0
    3.6840   -3.2820    0.2690 C   0  0  0  0  0  0  0  0  0  0  0  0
   -3.0290    0.4940    0.0770 C   0  0  0  0  0  0  0  0  0  0  0  0
   -3.3590   -0.6790    0.4550 O   0  0  0  0  0  0  0  0  0  0  0  0
   -3.8390   -3.5190    0.6040 C   0  0  0  0  0  0  0  0  0  0  0  0
  1  2  1  0
  2  3  1  0
  3  4  2  0
  3 43  1  0
  4  5  1  0
  5  6  2  0
  6  7  1  0
  7  8  1  0
  7 43  2  0
  8  9  2  0
  8 42  1  0
  9 10  1  0
 10 11  1  0
 10 41  2  0
 11 12  1  0
 11 21  1  1
 12 13  2  0
 12 20  1  0
 13 14  1  0
 14 15  2  0
 15 16  1  0
 15 19  1  0
 16 17  1  1
 16 18  1  0
 19 20  2  0
 21 22  1  0
 21 25  1  0
 22 23  1  0
 23 24  1  0
 24 25  2  0
 25 26  1  0
 26 27  2  0
 26 31  1  0
 27 28  1  0
 28 29  2  0
 29 30  1  0
 29 40  1  0
 30 31  2  0
 30 32  1  0
 32 33  1  0
 33 34  1  0
 33 37  1  0
 34 35  1  0
 35 36  3  0
 37 38  1  1
 37 40  1  0
 38 39  1  0
 41 42  1  0
M  CHG  2  24   1  39   1
M  END
