
     RDKit          3D

 43 48  0  0  0  0  0  0  0  0999 V2000
   -1.4170    0.4570    1.1340 C   0  0  0  0  0  0  0  0  0  0  0  0
   -1.1340    0.4990   -0.2930 C   0  0  1  0  0  0  0  0  0  0  0  0
   -0.4130   -0.6720   -0.8480 C   0  0  0  0  0  0  0  0  0  0  0  0
    0.9790   -0.8370   -0.3890 C   0  0  0  0  0  0  0  0  0  0  0  0
    1.4970   -1.6010    0.6220 C   0  0  0  0  0  0  0  0  0  0  0  0
    2.8750   -1.6680    0.8530 C   0  0  0  0  0  0  0  0  0  0  0  0
    3.8040   -1.0020    0.1240 C   0  0  0  0  0  0  0  0  0  0  0  0
    5.2730   -1.0290    0.1630 C   0  0  0  0  0  0  0  0  0  0  0  0
    5.8420    0.0200    1.0530 C   0  0  0  0  0  0  0  0  0  0  0  0
    7.2370    0.2080    0.6740 N   0  0  0  0  0  0  0  0  0  0  0  0
    7.4830    1.3060   -0.3020 C   0  0  0  0  0  0  0  0  0  0  0  0
    8.3570    0.7560   -1.3480 C   0  0  0  0  0  0  0  0  0  0  0  0
    8.3150    1.2450   -2.4890 O   0  0  0  0  0  0  0  0  0  0  0  0
    9.2370   -0.3210   -1.0710 N   0  0  0  0  0  0  0  0  0  0  0  0
    9.6130   -0.5590    0.3230 C   0  0  1  0  0  0  0  0  0  0  0  0
   10.2820   -1.9030    0.4640 C   0  0  0  0  0  0  0  0  0  0  0  0
   11.7890   -1.7410    0.5540 C   0  0  0  0  0  0  0  0  0  0  0  0
   12.2420   -0.6810   -0.3980 C   0  0  0  0  0  0  0  0  0  0  0  0
   11.7520    0.6770    0.0760 C   0  0  0  0  0  0  0  0  0  0  0  0
   10.4660    0.5510    0.8760 C   0  0  0  0  0  0  0  0  0  0  0  0
    8.3020   -0.5510    1.0900 C   0  0  0  0  0  0  0  0  0  0  0  0
    8.2680   -1.3060    2.1240 O   0  0  0  0  0  0  0  0  0  0  0  0
    3.2490   -0.2040   -0.9190 C   0  0  0  0  0  0  0  0  0  0  0  0
    1.9400   -0.1200   -1.1690 C   0  0  0  0  0  0  0  0  0  0  0  0
   -2.0900    1.0350   -1.2410 N   0  0  1  0  0  0  0  0  0  0  0  0
   -3.0950    0.1510   -1.7120 C   0  0  0  0  0  0  0  0  0  0  0  0
   -4.5110    0.4570   -1.4180 C   0  0  0  0  0  0  0  0  0  0  0  0
   -4.7460    1.8210   -0.8610 N   0  0  0  0  0  0  0  0  0  0  0  0
   -5.7480    1.7700    0.1040 C   0  0  0  0  0  0  0  0  0  0  0  0
   -7.1620    1.8560   -0.3240 C   0  0  0  0  0  0  0  0  0  0  0  0
   -7.6390    3.0120   -0.9300 C   0  0  0  0  0  0  0  0  0  0  0  0
   -9.0090    3.1550   -1.1280 C   0  0  0  0  0  0  0  0  0  0  0  0
   -9.8970    2.1920   -0.7460 C   0  0  0  0  0  0  0  0  0  0  0  0
   -9.3980    1.0420   -0.1390 C   0  0  0  0  0  0  0  0  0  0  0  0
   -8.0650    0.8500    0.0760 C   0  0  0  0  0  0  0  0  0  0  0  0
   -7.5250   -0.3480    0.6870 C   0  0  0  0  0  0  0  0  0  0  0  0
   -8.2960   -1.5480    0.7540 N   0  0  1  0  0  0  0  0  0  0  0  0
   -8.9500   -1.8050    1.9830 C   0  0  0  0  0  0  0  0  0  0  0  0
  -10.1390   -2.6880    1.6370 C   0  0  0  0  0  0  0  0  0  0  0  0
  -10.4170   -2.3800    0.1970 C   0  0  0  0  0  0  0  0  0  0  0  0
   -9.1110   -1.9040   -0.3610 C   0  0  0  0  0  0  0  0  0  0  0  0
   -3.8910    2.7450   -1.3550 C   0  0  0  0  0  0  0  0  0  0  0  0
   -2.4300    2.3910   -0.9950 C   0  0  0  0  0  0  0  0  0  0  0  0
  2  1  1  1
  2  3  1  0
  2 25  1  0
  3  4  1  0
  4  5  2  0
  4 24  1  0
  5  6  1  0
  6  7  2  0
  7  8  1  0
  7 23  1  0
  8  9  1  0
  9 10  1  0
 10 11  1  0
 10 21  1  0
 11 12  1  0
 12 13  2  0
 12 14  1  0
 14 15  1  0
 15 16  1  6
 15 20  1  0
 15 21  1  0
 16 17  1  0
 17 18  1  0
 18 19  1  0
 19 20  1  0
 21 22  2  0
 23 24  2  0
 25 26  1  1
 25 43  1  0
 26 27  1  0
 27 28  1  0
 28 29  1  0
 28 42  1  0
 29 30  1  0
 30 31  2  0
 30 35  1  0
 31 32  1  0
 32 33  2  0
 33 34  1  0
 34 35  2  0
 35 36  1  0
 37 36  1  6
 37 38  1  0
 37 41  1  0
 38 39  1  0
 39 40  1  0
 40 41  1  0
 42 43  1  0
M  CHG  2  25   1  37   1
M  END
