
     RDKit          3D

 43 45  0  0  0  0  0  0  0  0999 V2000
    9.7240    1.0760   -2.1820 C   0  0  0  0  0  0  0  0  0  0  0  0
    8.9490    0.3910   -1.0800 C   0  0  1  0  0  0  0  0  0  0  0  0
    7.5540    0.0900   -1.6260 C   0  0  0  0  0  0  0  0  0  0  0  0
    6.8440   -0.8360   -0.7920 N   0  0  0  0  0  0  0  0  0  0  0  0
    5.4670   -0.7180   -0.5700 C   0  0  0  0  0  0  0  0  0  0  0  0
    4.8190    0.2360   -1.1200 O   0  0  0  0  0  0  0  0  0  0  0  0
    4.7200   -1.5750    0.2210 O   0  0  0  0  0  0  0  0  0  0  0  0
    3.3050   -1.3760    0.3930 C   0  0  0  0  0  0  0  0  0  0  0  0
    3.1480   -0.1510    0.9490 O   0  0  0  0  0  0  0  0  0  0  0  0
    1.9030    0.2960    1.2200 C   0  0  0  0  0  0  0  0  0  0  0  0
    1.0620   -0.4840    2.1590 C   0  0  2  0  0  0  0  0  0  0  0  0
    0.8140   -1.7820    1.7370 O   0  0  0  0  0  0  0  0  0  0  0  0
   -0.2770    0.2170    2.2990 C   0  0  0  0  0  0  0  0  0  0  0  0
   -0.9550    0.2300    1.0560 N   0  0  0  0  0  0  0  0  0  0  0  0
   -2.3750    0.4250    1.1030 C   0  0  1  0  0  0  0  0  0  0  0  0
   -3.1570   -0.7900    1.4340 C   0  0  0  0  0  0  0  0  0  0  0  0
   -2.7300   -1.4520    2.4180 O   0  0  0  0  0  0  0  0  0  0  0  0
   -4.3070   -1.2460    0.7510 N   0  0  0  0  0  0  0  0  0  0  0  0
   -4.4590   -1.3360   -0.6980 C   0  0  1  0  0  0  0  0  0  0  0  0
   -5.3440   -2.5050   -1.0700 C   0  0  2  0  0  0  0  0  0  0  0  0
   -4.6390   -3.7760   -1.1310 C   0  0  0  0  0  0  0  0  0  0  0  0
   -3.5660   -3.9540   -2.0250 N   0  0  0  0  0  0  0  0  0  0  0  0
   -4.9770   -4.7230   -0.3920 O   0  0  0  0  0  0  0  0  0  0  0  0
   -6.0690   -2.1440   -2.3310 C   0  0  0  0  0  0  0  0  0  0  0  0
   -6.3530   -0.6760   -2.0960 C   0  0  0  0  0  0  0  0  0  0  0  0
   -5.1550   -0.1690   -1.3010 C   0  0  2  0  0  0  0  0  0  0  0  0
   -4.3180    0.5540   -2.3000 C   0  0  0  0  0  0  0  0  0  0  0  0
   -3.1590    0.2230   -2.6070 O   0  0  0  0  0  0  0  0  0  0  0  0
   -4.8820    1.6640   -2.9170 O   0  0  0  0  0  0  0  0  0  0  0  0
   -5.6920    0.7630   -0.2480 C   0  0  0  0  0  0  0  0  0  0  0  0
   -5.0700    2.0090   -0.3440 O   0  0  0  0  0  0  0  0  0  0  0  0
   -5.3460    2.6990    0.7150 O   0  0  0  0  0  0  0  0  0  0  0  0
   -4.5940    3.8710    0.7800 C   0  0  1  0  0  0  0  0  0  0  0  0
   -5.5620    5.0070    1.0470 C   0  0  0  0  0  0  0  0  0  0  0  0
   -6.2500    4.8370    2.2340 O   0  0  0  0  0  0  0  0  0  0  0  0
   -3.5960    3.8000    1.7350 O   0  0  0  0  0  0  0  0  0  0  0  0
   -2.6370    2.8860    1.2910 C   0  0  0  0  0  0  0  0  0  0  0  0
   -2.8190    1.5440    1.9930 C   0  0  2  0  0  0  0  0  0  0  0  0
   -2.2860    1.5440    3.2520 O   0  0  0  0  0  0  0  0  0  0  0  0
    7.5800   -1.9150   -0.1680 C   0  0  0  0  0  0  0  0  0  0  0  0
    8.8520   -1.2900    0.4020 C   0  0  1  0  0  0  0  0  0  0  0  0
    9.6660   -2.3050    1.1760 C   0  0  0  0  0  0  0  0  0  0  0  0
    9.5810   -0.7750   -0.6640 O   0  0  0  0  0  0  0  0  0  0  0  0
  2  1  1  6
  2  3  1  0
  2 43  1  0
  3  4  1  0
  4  5  1  0
  4 40  1  0
  5  6  2  0
  5  7  1  0
  7  8  1  0
  8  9  1  0
  9 10  1  0
 10 11  1  0
 11 12  1  6
 11 13  1  0
 13 14  1  0
 15 14  1  1
 15 16  1  0
 15 38  1  0
 16 17  2  0
 16 18  1  0
 19 18  1  1
 19 20  1  0
 19 26  1  0
 20 21  1  6
 20 24  1  0
 21 22  1  0
 21 23  2  0
 24 25  1  0
 25 26  1  0
 26 27  1  6
 26 30  1  0
 27 28  2  0
 27 29  1  0
 30 31  1  0
 31 32  1  0
 32 33  1  0
 33 34  1  1
 33 36  1  0
 34 35  1  0
 36 37  1  0
 37 38  1  0
 38 39  1  1
 40 41  1  0
 41 42  1  6
 41 43  1  0
M  CHG  1  14   1
M  END
