
     RDKit          3D

 43 47  0  0  0  0  0  0  0  0999 V2000
   -3.6780    7.6090    0.5100 C   0  0  0  0  0  0  0  0  0  0  0  0
   -3.4780    6.1500    0.9280 C   0  0  0  0  0  0  0  0  0  0  0  0
   -4.5160    5.3080    0.4130 N   0  0  0  0  0  0  0  0  0  0  0  0
   -4.1420    4.4850   -0.6980 C   0  0  0  0  0  0  0  0  0  0  0  0
   -3.5830    3.1820   -0.3020 C   0  0  0  0  0  0  0  0  0  0  0  0
   -3.2770    2.8490    0.9990 C   0  0  0  0  0  0  0  0  0  0  0  0
   -2.7610    1.6000    1.2780 C   0  0  0  0  0  0  0  0  0  0  0  0
   -2.5290    0.6390    0.2920 C   0  0  0  0  0  0  0  0  0  0  0  0
   -2.0060   -0.6340    0.5870 N   0  0  0  0  0  0  0  0  0  0  0  0
   -0.5920   -0.9090    0.5950 C   0  0  0  0  0  0  0  0  0  0  0  0
    0.1420   -0.6280   -0.5510 N   0  0  0  0  0  0  0  0  0  0  0  0
   -0.0960   -1.2070   -1.7920 C   0  0  0  0  0  0  0  0  0  0  0  0
    0.7510   -2.3560   -2.2090 C   0  0  0  0  0  0  0  0  0  0  0  0
    1.6880   -2.8890   -1.1690 C   0  0  0  0  0  0  0  0  0  0  0  0
    2.7360   -1.8980   -0.9000 C   0  0  0  0  0  0  0  0  0  0  0  0
    4.0140   -2.3790   -0.9950 C   0  0  0  0  0  0  0  0  0  0  0  0
    5.1320   -1.5650   -0.7660 C   0  0  0  0  0  0  0  0  0  0  0  0
    4.9940   -0.2410   -0.4360 C   0  0  0  0  0  0  0  0  0  0  0  0
    6.0550    0.6550   -0.1670 N   0  0  0  0  0  0  0  0  0  0  0  0
    7.3870    0.3120    0.0930 C   0  0  0  0  0  0  0  0  0  0  0  0
    7.7180   -0.9070    0.1050 O   0  0  0  0  0  0  0  0  0  0  0  0
    8.4280    1.3380    0.3560 C   0  0  0  0  0  0  0  0  0  0  0  0
    8.2150    2.6830    0.2520 C   0  0  0  0  0  0  0  0  0  0  0  0
    9.1970    3.6240    0.5020 C   0  0  0  0  0  0  0  0  0  0  0  0
   10.4420    3.1980    0.8710 C   0  0  0  0  0  0  0  0  0  0  0  0
   10.7030    1.8580    0.9890 C   0  0  0  0  0  0  0  0  0  0  0  0
   12.0210    1.4180    1.3810 C   0  0  0  0  0  0  0  0  0  0  0  0
   12.3270    0.2040    1.5070 O   0  0  0  0  0  0  0  0  0  0  0  0
    9.6960    0.9190    0.7320 C   0  0  0  0  0  0  0  0  0  0  0  0
    3.6640    0.2080   -0.3510 C   0  0  0  0  0  0  0  0  0  0  0  0
    2.5690   -0.5720   -0.5710 C   0  0  0  0  0  0  0  0  0  0  0  0
    1.2750    0.1930   -0.4030 C   0  0  0  0  0  0  0  0  0  0  0  0
   -2.9370   -1.6880    0.9240 C   0  0  1  0  0  0  0  0  0  0  0  0
   -4.3720   -1.2680    0.8660 C   0  0  0  0  0  0  0  0  0  0  0  0
   -5.2230   -2.3260    0.2040 C   0  0  0  0  0  0  0  0  0  0  0  0
   -4.8920   -3.6830    0.7460 C   0  0  1  0  0  0  0  0  0  0  0  0
   -5.7510   -4.7140    0.2120 N   0  0  2  0  0  0  0  0  0  0  0  0
   -5.1860   -6.0060    0.5780 C   0  0  0  0  0  0  0  0  0  0  0  0
   -5.8750   -4.6530   -1.2300 C   0  0  0  0  0  0  0  0  0  0  0  0
   -3.4670   -4.0780    0.4260 C   0  0  0  0  0  0  0  0  0  0  0  0
   -2.7550   -2.8260   -0.0460 C   0  0  0  0  0  0  0  0  0  0  0  0
   -2.8330    0.9710   -0.9950 C   0  0  0  0  0  0  0  0  0  0  0  0
   -3.3550    2.2380   -1.2770 C   0  0  0  0  0  0  0  0  0  0  0  0
  1  2  1  0
  2  3  1  0
  3  4  1  0
  4  5  1  0
  5  6  2  0
  5 43  1  0
  6  7  1  0
  7  8  2  0
  8  9  1  0
  8 42  1  0
  9 10  1  0
 33  9  1  6
 10 11  1  0
 11 12  1  0
 11 32  1  0
 12 13  1  0
 13 14  1  0
 14 15  1  0
 15 16  2  0
 15 31  1  0
 16 17  1  0
 17 18  2  0
 18 19  1  0
 18 30  1  0
 19 20  1  0
 20 21  2  0
 20 22  1  0
 22 23  2  0
 22 29  1  0
 23 24  1  0
 24 25  2  0
 25 26  1  0
 26 27  1  0
 26 29  2  0
 27 28  2  0
 30 31  2  0
 31 32  1  0
 33 34  1  0
 33 41  1  0
 34 35  1  0
 36 35  1  6
 36 37  1  0
 36 40  1  0
 37 38  1  6
 37 39  1  0
 40 41  1  0
 42 43  2  0
M  CHG  2   3   1  37   1
M  END
