
     RDKit          3D

 11 12  0  0  0  0  0  0  0  0999 V2000
    3.9660   -0.4270    0.0890 Cl  0  0  0  0  0  0  0  0  0  0  0  0
    2.2450   -0.0870    0.0610 C   0  0  0  0  0  0  0  0  0  0  0  0
    1.3430   -1.1270   -0.0380 C   0  0  0  0  0  0  0  0  0  0  0  0
   -0.0190   -0.8240   -0.0570 C   0  0  0  0  0  0  0  0  0  0  0  0
   -1.1370   -1.5670   -0.1420 N   0  0  0  0  0  0  0  0  0  0  0  0
   -2.2180   -0.8040   -0.1220 N   0  0  0  0  0  0  0  0  0  0  0  0
   -1.8270    0.4800   -0.0210 C   0  0  0  0  0  0  0  0  0  0  0  0
   -0.4460    0.4860    0.0200 C   0  0  0  0  0  0  0  0  0  0  0  0
    0.4790    1.4940    0.1170 C   0  0  0  0  0  0  0  0  0  0  0  0
   -0.1140    3.1360    0.2130 Cl  0  0  0  0  0  0  0  0  0  0  0  0
    1.7680    1.1660    0.1330 N   0  0  0  0  0  0  0  0  0  0  0  0
  1  2  1  0
  2  3  2  0
  2 11  1  0
  3  4  1  0
  4  5  2  0
  4  8  1  0
  5  6  1  0
  6  7  1  0
  7  8  2  0
  8  9  1  0
  9 10  1  0
  9 11  2  0
M  END
