
     RDKit          3D

 11 12  0  0  0  0  0  0  0  0999 V2000
    3.4690   -0.5500   -0.9770 Cl  0  0  0  0  0  0  0  0  0  0  0  0
    1.9210   -0.0670   -0.3090 C   0  0  0  0  0  0  0  0  0  0  0  0
    0.7650   -0.6760   -0.7560 C   0  0  0  0  0  0  0  0  0  0  0  0
   -0.4640   -0.3070   -0.2400 C   0  0  0  0  0  0  0  0  0  0  0  0
   -1.7330   -0.7030   -0.4650 N   0  0  0  0  0  0  0  0  0  0  0  0
   -2.5690   -0.0090    0.3180 C   0  0  0  0  0  0  0  0  0  0  0  0
   -1.7980    0.8260    1.0330 N   0  0  0  0  0  0  0  0  0  0  0  0
   -0.5010    0.6850    0.7310 C   0  0  0  0  0  0  0  0  0  0  0  0
    0.6600    1.2480    1.1320 N   0  0  0  0  0  0  0  0  0  0  0  0
    1.8530    0.9150    0.6560 C   0  0  0  0  0  0  0  0  0  0  0  0
    3.3560    1.6500    1.1810 Cl  0  0  0  0  0  0  0  0  0  0  0  0
  1  2  1  0
  2  3  2  0
  2 10  1  0
  3  4  1  0
  4  5  1  0
  4  8  2  0
  5  6  1  0
  6  7  2  0
  7  8  1  0
  8  9  1  0
  9 10  2  0
 10 11  1  0
M  END
