
     RDKit          3D

 21 22  0  0  0  0  0  0  0  0999 V2000
    1.1890    1.0990   -3.1070 C   0  0  0  0  0  0  0  0  0  0  0  0
    0.9060   -0.0520   -2.3290 O   0  0  0  0  0  0  0  0  0  0  0  0
    1.2640   -0.0540   -0.9850 C   0  0  0  0  0  0  0  0  0  0  0  0
    2.5010   -0.5040   -0.5810 C   0  0  0  0  0  0  0  0  0  0  0  0
    3.4200   -0.9850   -1.6770 C   0  0  0  0  0  0  0  0  0  0  0  0
    4.5930   -1.3860   -1.0440 O   0  0  0  0  0  0  0  0  0  0  0  0
    2.8810   -0.5170    0.7410 C   0  0  0  0  0  0  0  0  0  0  0  0
    2.0370   -0.0760    1.7320 C   0  0  0  0  0  0  0  0  0  0  0  0
    2.4120   -0.0860    3.0680 O   0  0  0  0  0  0  0  0  0  0  0  0
    0.7720    0.3870    1.3270 C   0  0  0  0  0  0  0  0  0  0  0  0
   -0.0310    0.8240    2.3540 O   0  0  0  0  0  0  0  0  0  0  0  0
    0.3900    0.3980    0.0080 C   0  0  0  0  0  0  0  0  0  0  0  0
   -0.8940    0.8830   -0.4420 C   0  0  0  0  0  0  0  0  0  0  0  0
   -2.0760    0.4310   -0.1280 C   0  0  0  0  0  0  0  0  0  0  0  0
   -2.2390   -0.6960    0.7690 C   0  0  0  0  0  0  0  0  0  0  0  0
   -3.4620   -1.1430    1.0840 C   0  0  0  0  0  0  0  0  0  0  0  0
   -3.6060   -2.5140    2.1770 Cl  0  0  0  0  0  0  0  0  0  0  0  0
   -4.6760   -0.5440    0.5610 C   0  0  0  0  0  0  0  0  0  0  0  0
   -4.6260    0.4870   -0.2630 C   0  0  0  0  0  0  0  0  0  0  0  0
   -3.3210    1.0170   -0.6420 C   0  0  0  0  0  0  0  0  0  0  0  0
   -3.2490    1.9940   -1.4220 O   0  0  0  0  0  0  0  0  0  0  0  0
  1  2  1  0
  2  3  1  0
  3  4  2  0
  3 12  1  0
  4  5  1  0
  4  7  1  0
  5  6  1  0
  7  8  2  0
  8  9  1  0
  8 10  1  0
 10 11  1  0
 10 12  2  0
 12 13  1  0
 13 14  2  3
 14 15  1  0
 14 20  1  0
 15 16  2  0
 16 17  1  0
 16 18  1  0
 18 19  2  0
 19 20  1  0
 20 21  2  0
M  END
