
     RDKit          3D

 11 12  0  0  0  0  0  0  0  0999 V2000
   -2.9740   -2.3330   -0.6070 Cl  0  0  0  0  0  0  0  0  0  0  0  0
   -1.6730   -1.1840   -0.2970 C   0  0  0  0  0  0  0  0  0  0  0  0
   -2.0410    0.0650    0.1620 C   0  0  0  0  0  0  0  0  0  0  0  0
   -1.0580    1.0130    0.4230 C   0  0  0  0  0  0  0  0  0  0  0  0
   -1.4480    2.6060    1.0030 Cl  0  0  0  0  0  0  0  0  0  0  0  0
    0.2560    0.6850    0.2200 C   0  0  0  0  0  0  0  0  0  0  0  0
    1.4070    1.3730    0.3810 N   0  0  0  0  0  0  0  0  0  0  0  0
    2.4360    0.6170    0.0480 N   0  0  0  0  0  0  0  0  0  0  0  0
    1.9650   -0.5710   -0.3320 C   0  0  0  0  0  0  0  0  0  0  0  0
    0.5850   -0.5910   -0.2450 C   0  0  0  0  0  0  0  0  0  0  0  0
   -0.3760   -1.5060   -0.4970 N   0  0  0  0  0  0  0  0  0  0  0  0
  1  2  1  0
  2  3  1  0
  2 11  2  0
  3  4  2  0
  4  5  1  0
  4  6  1  0
  6  7  2  0
  6 10  1  0
  7  8  1  0
  8  9  1  0
  9 10  2  0
 10 11  1  0
M  END
