
     RDKit          3D

 21 24  0  0  0  0  0  0  0  0999 V2000
    5.6080    0.9110    0.3120 C   0  0  0  0  0  0  0  0  0  0  0  0
    4.6520    0.1380    1.0010 O   0  0  0  0  0  0  0  0  0  0  0  0
    3.3570   -0.0110    0.5040 C   0  0  0  0  0  0  0  0  0  0  0  0
    3.0230    0.6100   -0.6740 C   0  0  0  0  0  0  0  0  0  0  0  0
    1.7480    0.4860   -1.1980 C   0  0  0  0  0  0  0  0  0  0  0  0
    1.3860    1.3090   -2.7150 Cl  0  0  0  0  0  0  0  0  0  0  0  0
    0.7900   -0.2630   -0.5490 C   0  0  0  0  0  0  0  0  0  0  0  0
    1.1510   -0.8710    0.6230 C   0  0  0  0  0  0  0  0  0  0  0  0
    2.4140   -0.7520    1.1500 C   0  0  0  0  0  0  0  0  0  0  0  0
    0.3150   -1.7200    1.5010 C   0  0  0  0  0  0  0  0  0  0  0  0
   -0.9450   -1.1120    1.7160 O   0  0  0  0  0  0  0  0  0  0  0  0
   -1.8930   -0.5770    0.8600 C   0  0  0  0  0  0  0  0  0  0  0  0
   -3.1410   -0.4330    1.4300 C   0  0  0  0  0  0  0  0  0  0  0  0
   -4.1880    0.0980    0.6670 C   0  0  0  0  0  0  0  0  0  0  0  0
   -5.3980    0.2020    1.3260 O   0  0  0  0  0  0  0  0  0  0  0  0
   -3.9840    0.4740   -0.6390 C   0  0  0  0  0  0  0  0  0  0  0  0
   -5.0250    0.9990   -1.3890 O   0  0  0  0  0  0  0  0  0  0  0  0
   -2.7180    0.3210   -1.1950 C   0  0  0  0  0  0  0  0  0  0  0  0
   -1.6830   -0.2010   -0.4490 C   0  0  0  0  0  0  0  0  0  0  0  0
   -0.4720   -0.2450   -1.2940 C   0  0  1  0  0  0  0  0  0  0  0  0
   -0.4870    0.8730   -2.1230 O   0  0  0  0  0  0  0  0  0  0  0  0
  1  2  1  0
  2  3  1  0
  3  4  2  0
  3  9  1  0
  4  5  1  0
  5  6  1  0
  5  7  2  0
  7  8  1  0
  7 20  1  0
  8  9  2  0
  8 10  1  0
 10 11  1  0
 11 12  1  0
 12 13  2  0
 12 19  1  0
 13 14  1  0
 14 15  1  0
 14 16  2  0
 16 17  1  0
 16 18  1  0
 18 19  2  0
 19 20  1  0
 20 21  1  6
 21  6  1  0
M  END
