
     RDKit          3D

 11 12  0  0  0  0  0  0  0  0999 V2000
    2.6820    1.8630   -1.4650 Cl  0  0  0  0  0  0  0  0  0  0  0  0
    1.9230    0.5620   -0.5480 C   0  0  0  0  0  0  0  0  0  0  0  0
    0.6390    0.4550   -0.2520 C   0  0  0  0  0  0  0  0  0  0  0  0
   -0.5090    1.2510   -0.5210 N   0  0  0  0  0  0  0  0  0  0  0  0
   -1.8490    0.8920   -0.1490 C   0  0  0  0  0  0  0  0  0  0  0  0
   -1.9820   -0.5970    0.1230 C   0  0  0  0  0  0  0  0  0  0  0  0
   -0.8990   -1.0720    0.9410 N   0  0  0  0  0  0  0  0  0  0  0  0
   -1.1360   -1.9930    2.4070 Cl  0  0  0  0  0  0  0  0  0  0  0  0
    0.4340   -0.7650    0.5160 C   0  0  0  0  0  0  0  0  0  0  0  0
    1.5660   -1.3600    0.6680 N   0  0  0  0  0  0  0  0  0  0  0  0
    2.6040   -0.6170    0.0350 C   0  0  0  0  0  0  0  0  0  0  0  0
  1  2  1  0
  2  3  2  0
  2 11  1  0
  3  4  1  0
  3  9  1  0
  4  5  1  0
  5  6  1  0
  6  7  1  0
  7  8  1  0
  7  9  1  0
  9 10  2  0
 10 11  1  0
M  END
