
     RDKit          3D

 22 24  0  0  0  0  0  0  0  0999 V2000
   -1.7310    3.9720   -0.0090 C   0  0  0  0  0  0  0  0  0  0  0  0
   -1.6550    2.6570   -0.5100 O   0  0  0  0  0  0  0  0  0  0  0  0
   -0.9480    1.6400    0.0850 C   0  0  0  0  0  0  0  0  0  0  0  0
   -0.3280    1.9070    1.1490 O   0  0  0  0  0  0  0  0  0  0  0  0
   -0.9500    0.3110   -0.5410 C   0  0  1  0  0  0  0  0  0  0  0  0
   -0.1130   -0.6830    0.2600 C   0  0  1  0  0  0  0  0  0  0  0  0
    1.1100   -0.0920    0.5330 O   0  0  0  0  0  0  0  0  0  0  0  0
    2.2830   -0.5990    0.0040 C   0  0  0  0  0  0  0  0  0  0  0  0
    2.1600   -1.6210   -0.7320 O   0  0  0  0  0  0  0  0  0  0  0  0
    3.5870   -0.0300    0.2500 C   0  0  0  0  0  0  0  0  0  0  0  0
    3.7530    1.0780    1.0440 C   0  0  0  0  0  0  0  0  0  0  0  0
    5.0210    1.5770    1.2430 C   0  0  0  0  0  0  0  0  0  0  0  0
    6.1310    0.9890    0.6630 C   0  0  0  0  0  0  0  0  0  0  0  0
    5.9590   -0.1250   -0.1350 C   0  0  0  0  0  0  0  0  0  0  0  0
    4.6920   -0.6090   -0.3240 C   0  0  0  0  0  0  0  0  0  0  0  0
   -0.8570   -1.1670    1.4750 C   0  0  0  0  0  0  0  0  0  0  0  0
   -2.2390   -1.6050    1.0090 C   0  0  2  0  0  0  0  0  0  0  0  0
   -2.1380   -2.5050   -0.2220 C   0  0  0  0  0  0  0  0  0  0  0  0
   -2.2000   -1.5850   -1.4010 C   0  0  0  0  0  0  0  0  0  0  0  0
   -2.3410   -0.2290   -0.7730 C   0  0  1  0  0  0  0  0  0  0  0  0
   -3.0070   -0.4960    0.4860 N   0  0  1  0  0  0  0  0  0  0  0  0
   -4.3410   -0.9610    0.2370 C   0  0  0  0  0  0  0  0  0  0  0  0
  1  2  1  0
  2  3  1  0
  3  4  2  0
  5  3  1  1
  5  6  1  0
  5 20  1  0
  6  7  1  1
  6 16  1  0
  7  8  1  0
  8  9  2  0
  8 10  1  0
 10 11  2  0
 10 15  1  0
 11 12  1  0
 12 13  2  0
 13 14  1  0
 14 15  2  0
 17 16  1  6
 17 18  1  0
 17 21  1  0
 18 19  1  0
 20 19  1  6
 20 21  1  0
 21 22  1  6
M  CHG  1  21   1
M  END
