
     RDKit          3D

 11 12  0  0  0  0  0  0  0  0999 V2000
    2.9120    2.4120   -0.0880 Cl  0  0  0  0  0  0  0  0  0  0  0  0
    1.6270    1.2170   -0.0440 C   0  0  0  0  0  0  0  0  0  0  0  0
    1.9260   -0.1300    0.0170 C   0  0  0  0  0  0  0  0  0  0  0  0
    0.9100   -1.0800    0.0530 C   0  0  0  0  0  0  0  0  0  0  0  0
   -0.4050   -0.6970    0.0280 C   0  0  0  0  0  0  0  0  0  0  0  0
   -1.5690   -1.3730    0.0510 N   0  0  0  0  0  0  0  0  0  0  0  0
   -2.5460   -0.5030    0.0070 N   0  0  0  0  0  0  0  0  0  0  0  0
   -2.0560    0.7470   -0.0450 C   0  0  0  0  0  0  0  0  0  0  0  0
   -2.9680    2.2410   -0.1150 Cl  0  0  0  0  0  0  0  0  0  0  0  0
   -0.6660    0.6580   -0.0330 C   0  0  0  0  0  0  0  0  0  0  0  0
    0.3310    1.5520   -0.0660 N   0  0  0  0  0  0  0  0  0  0  0  0
  1  2  1  0
  2  3  2  0
  2 11  1  0
  3  4  1  0
  4  5  2  0
  5  6  1  0
  5 10  1  0
  6  7  1  0
  7  8  2  0
  8  9  1  0
  8 10  1  0
 10 11  2  0
M  END
