
     RDKit          3D

 11 12  0  0  0  0  0  0  0  0999 V2000
    3.6400   -0.5630    0.0670 Cl  0  0  0  0  0  0  0  0  0  0  0  0
    1.9380   -0.0900    0.0470 C   0  0  0  0  0  0  0  0  0  0  0  0
    1.5950    1.2460    0.1080 C   0  0  0  0  0  0  0  0  0  0  0  0
    0.2730    1.5850    0.0910 N   0  0  0  0  0  0  0  0  0  0  0  0
   -0.6940    0.6820    0.0170 C   0  0  0  0  0  0  0  0  0  0  0  0
   -2.0690    0.7680   -0.0150 C   0  0  0  0  0  0  0  0  0  0  0  0
   -3.0060    2.2360    0.0380 Cl  0  0  0  0  0  0  0  0  0  0  0  0
   -2.5960   -0.4710   -0.0940 N   0  0  0  0  0  0  0  0  0  0  0  0
   -1.5440   -1.3140   -0.1100 C   0  0  0  0  0  0  0  0  0  0  0  0
   -0.3880   -0.6240   -0.0430 N   0  0  0  0  0  0  0  0  0  0  0  0
    0.9230   -1.0090   -0.0290 C   0  0  0  0  0  0  0  0  0  0  0  0
  1  2  1  0
  2  3  1  0
  2 11  2  0
  3  4  2  0
  4  5  1  0
  5  6  2  0
  5 10  1  0
  6  7  1  0
  6  8  1  0
  8  9  2  0
  9 10  1  0
 10 11  1  0
M  END
