
     RDKit          3D

 22 23  0  0  0  0  0  0  0  0999 V2000
    6.5440   -0.5180   -0.6820 N   0  0  0  0  0  0  0  0  0  0  0  0
    5.8430    0.6590   -0.3490 C   0  0  0  0  0  0  0  0  0  0  0  0
    6.4630    1.7330   -0.1470 O   0  0  0  0  0  0  0  0  0  0  0  0
    4.3830    0.6870   -0.2240 C   0  0  0  0  0  0  0  0  0  0  0  0
    3.7060    1.8390    0.1020 C   0  0  0  0  0  0  0  0  0  0  0  0
    2.3170    1.8470    0.2170 C   0  0  0  0  0  0  0  0  0  0  0  0
    1.6200    0.6870    0.0010 C   0  0  0  0  0  0  0  0  0  0  0  0
    0.1640    0.6650    0.1140 N   0  0  0  0  0  0  0  0  0  0  0  0
   -0.5500   -0.5470   -0.1130 C   0  0  0  0  0  0  0  0  0  0  0  0
   -2.0030   -0.4490    0.0290 C   0  0  0  0  0  0  0  0  0  0  0  0
   -2.6410    0.7150    0.3540 C   0  0  0  0  0  0  0  0  0  0  0  0
   -4.0350    0.7530    0.4760 C   0  0  0  0  0  0  0  0  0  0  0  0
   -4.7490   -0.3870    0.2660 C   0  0  0  0  0  0  0  0  0  0  0  0
   -6.5040   -0.3930    0.4070 S   0  0  2  0  0  0  0  0  0  0  0  0
   -7.0300   -1.2810   -0.6780 O   0  0  0  0  0  0  0  0  0  0  0  0
   -7.0670    0.9840    0.2510 O   0  0  0  0  0  0  0  0  0  0  0  0
   -4.1430   -1.5750   -0.0620 C   0  0  0  0  0  0  0  0  0  0  0  0
   -4.8850   -2.6980   -0.2660 F   0  0  0  0  0  0  0  0  0  0  0  0
   -2.7840   -1.6030   -0.1790 C   0  0  0  0  0  0  0  0  0  0  0  0
   -2.1270   -2.7380   -0.4990 F   0  0  0  0  0  0  0  0  0  0  0  0
    2.2940   -0.4710   -0.3260 C   0  0  0  0  0  0  0  0  0  0  0  0
    3.6640   -0.4780   -0.4390 C   0  0  0  0  0  0  0  0  0  0  0  0
  1  2  1  0
  2  3  2  0
  2  4  1  0
  4  5  2  0
  4 22  1  0
  5  6  1  0
  6  7  2  0
  7  8  1  0
  7 21  1  0
  8  9  1  0
  9 10  1  0
 10 11  2  0
 10 19  1  0
 11 12  1  0
 12 13  2  0
 14 13  1  6
 13 17  1  0
 14 15  2  0
 14 16  2  0
 17 18  1  0
 17 19  2  0
 19 20  1  0
 21 22  2  0
M  END
