
     RDKit          3D

 24 25  0  0  0  0  0  0  0  0999 V2000
   -0.3540   -1.2310    1.6250 C   0  0  0  0  0  0  0  0  0  0  0  0
   -0.4670   -0.3030    0.4950 C   0  0  0  0  0  0  0  0  0  0  0  0
    0.6080    0.0520   -0.2100 C   0  0  0  0  0  0  0  0  0  0  0  0
    1.9250   -0.4680    0.1320 C   0  0  0  0  0  0  0  0  0  0  0  0
    2.0600   -1.2540    1.0790 O   0  0  0  0  0  0  0  0  0  0  0  0
    3.0870   -0.1070   -0.5880 N   0  0  0  0  0  0  0  0  0  0  0  0
    4.3770   -0.6320   -0.2240 C   0  0  0  0  0  0  0  0  0  0  0  0
    4.7400   -0.2000    1.1650 C   0  0  0  0  0  0  0  0  0  0  0  0
    6.1220   -0.7720    1.5120 C   0  0  0  0  0  0  0  0  0  0  0  0
    7.0760   -0.2490    0.5460 N   0  0  0  0  0  0  0  0  0  0  0  0
    0.4610    0.8680   -1.3900 N   0  0  0  0  0  0  0  0  0  0  0  0
   -0.6330    1.7280   -1.5120 C   0  0  1  0  0  0  0  0  0  0  0  0
   -1.2120    1.8640   -2.9170 C   0  0  0  0  0  0  0  0  0  0  0  0
   -2.6230    2.2320   -2.6630 N   0  0  0  0  0  0  0  0  0  0  0  0
   -2.8530    2.1700   -1.2740 C   0  0  0  0  0  0  0  0  0  0  0  0
   -3.7080    2.6950   -0.5260 O   0  0  0  0  0  0  0  0  0  0  0  0
   -1.7880    1.2720   -0.7050 C   0  0  0  0  0  0  0  0  0  0  0  0
   -1.7750    0.3660    0.2040 C   0  0  0  0  0  0  0  0  0  0  0  0
   -2.8880   -0.2820    0.7360 N   0  0  0  0  0  0  0  0  0  0  0  0
   -4.2410   -0.1860    0.3750 C   0  0  0  0  0  0  0  0  0  0  0  0
   -4.6880    0.4750   -0.5400 O   0  0  0  0  0  0  0  0  0  0  0  0
   -5.2810   -0.9780    1.1900 C   0  0  0  0  0  0  0  0  0  0  0  0
   -6.6560   -0.7190    0.6220 C   0  0  0  0  0  0  0  0  0  0  0  0
   -7.6310   -1.4140    1.3270 O   0  0  0  0  0  0  0  0  0  0  0  0
  1  2  1  0
  2  3  2  0
  2 18  1  0
  3  4  1  0
  3 11  1  0
  4  5  2  0
  4  6  1  0
  6  7  1  0
  7  8  1  0
  8  9  1  0
  9 10  1  0
 11 12  1  0
 12 13  1  6
 12 17  1  0
 13 14  1  0
 14 15  1  0
 15 16  2  0
 15 17  1  0
 17 18  2  0
 18 19  1  0
 19 20  1  0
 20 21  2  0
 20 22  1  0
 22 23  1  0
 23 24  1  0
M  CHG  1  10   1
M  END
