
     RDKit          3D

 22 23  0  0  0  0  0  0  0  0999 V2000
   -6.1620   -0.7270   -0.0920 N   0  0  0  0  0  0  0  0  0  0  0  0
   -5.9200    0.4090   -0.9610 C   0  0  0  0  0  0  0  0  0  0  0  0
   -4.9970    1.6350    0.0110 S   0  0  0  0  0  0  0  0  0  0  0  0
   -3.3850    1.0140    0.4180 C   0  0  0  0  0  0  0  0  0  0  0  0
   -3.0190   -0.2370   -0.0110 C   0  0  0  0  0  0  0  0  0  0  0  0
   -1.7500   -0.6790    0.3320 C   0  0  0  0  0  0  0  0  0  0  0  0
   -0.8810    0.0960    1.0740 C   0  0  0  0  0  0  0  0  0  0  0  0
    0.3620   -0.4570    1.3540 O   0  0  0  0  0  0  0  0  0  0  0  0
    1.4780   -0.2890    0.5240 C   0  0  0  0  0  0  0  0  0  0  0  0
    1.2680    0.4010   -0.4960 O   0  0  0  0  0  0  0  0  0  0  0  0
    2.7290   -0.8610    0.8340 N   0  0  0  0  0  0  0  0  0  0  0  0
    3.8850   -0.7100    0.0240 C   0  0  0  0  0  0  0  0  0  0  0  0
    4.0160    0.1420   -1.0360 C   0  0  0  0  0  0  0  0  0  0  0  0
    5.2050    0.1960   -1.7750 C   0  0  0  0  0  0  0  0  0  0  0  0
    6.2950   -0.5860   -1.4900 C   0  0  0  0  0  0  0  0  0  0  0  0
    7.4350   -0.5040   -2.2320 F   0  0  0  0  0  0  0  0  0  0  0  0
    6.1740   -1.4470   -0.4250 C   0  0  0  0  0  0  0  0  0  0  0  0
    7.2510   -2.2190   -0.1440 F   0  0  0  0  0  0  0  0  0  0  0  0
    5.0130   -1.5040    0.3020 C   0  0  0  0  0  0  0  0  0  0  0  0
   -1.2600    1.3390    1.4940 C   0  0  0  0  0  0  0  0  0  0  0  0
   -2.5290    1.7920    1.1550 C   0  0  0  0  0  0  0  0  0  0  0  0
   -2.8660    3.0660    1.6070 O   0  0  0  0  0  0  0  0  0  0  0  0
  1  2  1  0
  2  3  1  0
  3  4  1  0
  4  5  2  0
  4 21  1  0
  5  6  1  0
  6  7  2  0
  7  8  1  0
  7 20  1  0
  8  9  1  0
  9 10  2  0
  9 11  1  0
 11 12  1  0
 12 13  2  0
 12 19  1  0
 13 14  1  0
 14 15  2  0
 15 16  1  0
 15 17  1  0
 17 18  1  0
 17 19  2  0
 20 21  2  0
 21 22  1  0
M  END
