
     RDKit          3D

 24 24  0  0  0  0  0  0  0  0999 V2000
    7.2880    0.2130    1.9570 C   0  0  0  0  0  0  0  0  0  0  0  0
    7.6030   -1.1850    1.5460 C   0  0  0  0  0  0  0  0  0  0  0  0
    7.2220   -1.5940    0.1760 C   0  0  0  0  0  0  0  0  0  0  0  0
    5.8030   -1.6480   -0.2040 C   0  0  0  0  0  0  0  0  0  0  0  0
    5.0350   -0.3340   -0.0980 C   0  0  0  0  0  0  0  0  0  0  0  0
    3.7320   -0.6080   -0.5660 N   0  0  0  0  0  0  0  0  0  0  0  0
    2.6570    0.4310   -0.6470 C   0  0  0  0  0  0  0  0  0  0  0  0
    2.9840    1.5150   -0.2840 O   0  0  0  0  0  0  0  0  0  0  0  0
    1.5110   -0.1670   -1.1520 N   0  0  0  0  0  0  0  0  0  0  0  0
    0.5010    1.2690   -1.0880 C   0  0  0  0  0  0  0  0  0  0  0  0
    1.0530    2.1850   -0.6820 O   0  0  0  0  0  0  0  0  0  0  0  0
   -0.8150    0.9640   -1.5660 C   0  0  0  0  0  0  0  0  0  0  0  0
   -1.2260   -0.1460   -1.9710 O   0  0  0  0  0  0  0  0  0  0  0  0
   -1.8000    2.0160   -1.6040 N   0  0  0  0  0  0  0  0  0  0  0  0
   -3.1360    1.7700   -2.0600 C   0  0  0  0  0  0  0  0  0  0  0  0
   -3.8880    0.7660   -1.2040 C   0  0  2  0  0  0  0  0  0  0  0  0
   -5.1690    0.5360   -1.6420 O   0  0  0  0  0  0  0  0  0  0  0  0
   -3.8390    1.1680    0.2600 C   0  0  0  0  0  0  0  0  0  0  0  0
   -4.3630    0.0820    1.0450 N   0  0  0  0  0  0  0  0  0  0  0  0
   -5.7390   -0.2390    0.9410 C   0  0  0  0  0  0  0  0  0  0  0  0
   -6.7120    0.6070    0.6940 C   0  0  0  0  0  0  0  0  0  0  0  0
   -8.0200   -0.1200    0.6650 C   0  0  0  0  0  0  0  0  0  0  0  0
   -7.6110   -1.4850    0.9330 N   0  0  0  0  0  0  0  0  0  0  0  0
   -6.3340   -1.5610    1.0900 C   0  0  0  0  0  0  0  0  0  0  0  0
  1  2  1  0
  2  3  1  0
  3  4  1  0
  4  5  1  0
  5  6  1  0
  6  7  1  0
  7  8  2  0
  7  9  1  0
  9 10  1  0
 10 11  2  0
 10 12  1  0
 12 13  2  0
 12 14  1  0
 14 15  1  0
 15 16  1  0
 16 17  1  6
 16 18  1  0
 18 19  1  0
 19 20  1  0
 20 21  2  0
 20 24  1  0
 21 22  1  0
 22 23  1  0
 23 24  2  0
M  CHG  1  23   1
M  END
