
     RDKit          3D

 24 24  0  0  0  0  0  0  0  0999 V2000
   -5.1310    0.3650    1.5680 C   0  0  0  0  0  0  0  0  0  0  0  0
   -4.9810   -0.5850    0.4340 C   0  0  2  0  0  0  0  0  0  0  0  0
   -5.4870   -0.0460   -0.8780 C   0  0  0  0  0  0  0  0  0  0  0  0
   -4.8590    1.1480   -1.3400 N   0  0  0  0  0  0  0  0  0  0  0  0
   -5.7420   -1.8290    0.6690 N   0  0  0  0  0  0  0  0  0  0  0  0
   -7.1410   -1.7990    0.8790 C   0  0  0  0  0  0  0  0  0  0  0  0
   -7.7780   -0.7250    0.8740 O   0  0  0  0  0  0  0  0  0  0  0  0
   -3.5610   -1.0130    0.2160 C   0  0  0  0  0  0  0  0  0  0  0  0
   -3.3310   -2.2390    0.1460 O   0  0  0  0  0  0  0  0  0  0  0  0
   -2.5060   -0.0780    0.0940 N   0  0  0  0  0  0  0  0  0  0  0  0
   -1.1390   -0.3890   -0.1200 C   0  0  0  0  0  0  0  0  0  0  0  0
   -0.2550    0.6740   -0.1680 C   0  0  0  0  0  0  0  0  0  0  0  0
    1.1210    0.4960   -0.3780 C   0  0  0  0  0  0  0  0  0  0  0  0
    1.6460   -0.7440   -0.5440 C   0  0  0  0  0  0  0  0  0  0  0  0
    2.9980   -0.9920   -0.7400 N   0  0  0  0  0  0  0  0  0  0  0  0
    4.0270   -0.0410   -0.5430 C   0  0  0  0  0  0  0  0  0  0  0  0
    3.8230    1.1320   -0.1560 O   0  0  0  0  0  0  0  0  0  0  0  0
    5.4080   -0.4020   -0.7920 N   0  0  0  0  0  0  0  0  0  0  0  0
    6.4970    0.5260   -0.6060 C   0  0  0  0  0  0  0  0  0  0  0  0
    6.5910    1.0180    0.8210 C   0  0  0  0  0  0  0  0  0  0  0  0
    7.7820    1.9840    0.8570 C   0  0  0  0  0  0  0  0  0  0  0  0
    8.9380    1.2890    0.4730 O   0  0  0  0  0  0  0  0  0  0  0  0
    0.7770   -1.8120   -0.4990 C   0  0  0  0  0  0  0  0  0  0  0  0
   -0.5960   -1.6280   -0.2890 C   0  0  0  0  0  0  0  0  0  0  0  0
  2  1  1  1
  2  3  1  0
  2  5  1  0
  2  8  1  0
  3  4  1  0
  5  6  1  0
  6  7  2  0
  8  9  2  0
  8 10  1  0
 10 11  1  0
 11 12  2  0
 11 24  1  0
 12 13  1  0
 13 14  2  0
 14 15  1  0
 14 23  1  0
 15 16  1  0
 16 17  2  0
 16 18  1  0
 18 19  1  0
 19 20  1  0
 20 21  1  0
 21 22  1  0
 23 24  2  0
M  CHG  1   4   1
M  END
