
     RDKit          3D

 24 24  0  0  0  0  0  0  0  0999 V2000
   -2.0990   -2.5440    2.4000 C   0  0  0  0  0  0  0  0  0  0  0  0
   -1.7580   -1.5620    1.3260 C   0  0  0  0  0  0  0  0  0  0  0  0
   -2.0770   -1.6970    0.0640 C   0  0  0  0  0  0  0  0  0  0  0  0
   -1.7020   -0.6790   -0.9230 C   0  0  0  0  0  0  0  0  0  0  0  0
   -1.0240    0.4790   -0.4230 N   0  0  0  0  0  0  0  0  0  0  0  0
    0.3880    0.4460   -0.2910 C   0  0  0  0  0  0  0  0  0  0  0  0
    1.0250    1.4370    0.1450 O   0  0  0  0  0  0  0  0  0  0  0  0
    1.1670   -0.7700   -0.6670 C   0  0  0  0  0  0  0  0  0  0  0  0
    2.6230   -0.5530   -0.4220 C   0  0  0  0  0  0  0  0  0  0  0  0
    3.0630    0.5370    0.0410 O   0  0  0  0  0  0  0  0  0  0  0  0
    3.5040   -1.6240   -0.7310 N   0  0  0  0  0  0  0  0  0  0  0  0
    4.9350   -1.4020   -0.4870 C   0  0  0  0  0  0  0  0  0  0  0  0
    5.7060   -2.6010   -0.8570 C   0  0  0  0  0  0  0  0  0  0  0  0
    7.1140   -2.5670   -0.6870 N   0  0  0  0  0  0  0  0  0  0  0  0
    5.1620   -3.6340   -1.3110 O   0  0  0  0  0  0  0  0  0  0  0  0
   -1.7360    1.6910   -0.1030 C   0  0  1  0  0  0  0  0  0  0  0  0
   -1.6110    2.1180    1.3310 C   0  0  0  0  0  0  0  0  0  0  0  0
   -2.2800    3.4540    1.5610 C   0  0  0  0  0  0  0  0  0  0  0  0
   -2.1030    4.4010    0.5120 N   0  0  0  0  0  0  0  0  0  0  0  0
   -0.9860    4.0670   -0.3470 C   0  0  0  0  0  0  0  0  0  0  0  0
   -1.3680    2.8040   -1.0790 C   0  0  0  0  0  0  0  0  0  0  0  0
   -2.8140   -2.8670   -0.3860 C   0  0  0  0  0  0  0  0  0  0  0  0
   -3.1390   -2.9750   -1.7620 N   0  0  0  0  0  0  0  0  0  0  0  0
   -3.1600   -3.7750    0.4380 O   0  0  0  0  0  0  0  0  0  0  0  0
  1  2  1  0
  2  3  2  3
  3  4  1  0
  3 22  1  0
  4  5  1  0
  5  6  1  0
 16  5  1  1
  6  7  2  0
  6  8  1  0
  8  9  1  0
  9 10  2  0
  9 11  1  0
 11 12  1  0
 12 13  1  0
 13 14  1  0
 13 15  2  0
 16 17  1  0
 16 21  1  0
 17 18  1  0
 18 19  1  0
 19 20  1  0
 20 21  1  0
 22 23  1  0
 22 24  2  0
M  CHG  1  19   1
M  END
