
     RDKit          3D

 23 23  0  0  0  0  0  0  0  0999 V2000
   -4.9170    3.1300   -0.8850 N   0  0  0  0  0  0  0  0  0  0  0  0
   -5.1470    1.7630   -1.1820 C   0  0  0  0  0  0  0  0  0  0  0  0
   -6.2850    1.4260   -1.5840 O   0  0  0  0  0  0  0  0  0  0  0  0
   -4.0700    0.7640   -1.0200 C   0  0  0  0  0  0  0  0  0  0  0  0
   -2.8420    1.3450   -0.5500 N   0  0  0  0  0  0  0  0  0  0  0  0
   -1.7690    0.4170   -0.4320 C   0  0  0  0  0  0  0  0  0  0  0  0
   -2.1640   -0.9030    0.2340 C   0  0  1  0  0  0  0  0  0  0  0  0
   -0.9000   -1.7860    0.2760 C   0  0  0  0  0  0  0  0  0  0  0  0
   -0.3750   -2.0230   -1.0570 C   0  0  0  0  0  0  0  0  0  0  0  0
    0.7900   -1.6980   -1.4900 C   0  0  0  0  0  0  0  0  0  0  0  0
    1.8690   -1.0140   -0.7550 C   0  0  0  0  0  0  0  0  0  0  0  0
    1.7210   -0.6730    0.4310 O   0  0  0  0  0  0  0  0  0  0  0  0
    3.1050   -0.7270   -1.3810 N   0  0  0  0  0  0  0  0  0  0  0  0
    4.2110   -0.0770   -0.7930 C   0  0  0  0  0  0  0  0  0  0  0  0
    4.2120    0.5910    0.4080 C   0  0  0  0  0  0  0  0  0  0  0  0
    5.3710    1.1900    0.9110 C   0  0  0  0  0  0  0  0  0  0  0  0
    6.5290    1.1150    0.2040 C   0  0  0  0  0  0  0  0  0  0  0  0
    7.7250    1.7260    0.7120 N   0  0  0  0  0  0  0  0  0  0  0  0
    6.5560    0.4730   -0.9650 N   0  0  0  0  0  0  0  0  0  0  0  0
    5.4540   -0.1040   -1.4580 C   0  0  0  0  0  0  0  0  0  0  0  0
   -2.5690   -0.5770    1.6440 C   0  0  0  0  0  0  0  0  0  0  0  0
   -3.0090   -1.7260    2.4850 C   0  0  0  0  0  0  0  0  0  0  0  0
   -2.0860   -2.7100    2.7160 O   0  0  0  0  0  0  0  0  0  0  0  0
  1  2  1  0
  2  3  2  0
  2  4  1  0
  4  5  1  0
  5  6  1  0
  7  6  1  6
  7  8  1  0
  7 21  1  0
  8  9  1  0
  9 10  2  3
 10 11  1  0
 11 12  2  0
 11 13  1  0
 13 14  1  0
 14 15  2  0
 14 20  1  0
 15 16  1  0
 16 17  2  0
 17 18  1  0
 17 19  1  0
 19 20  2  0
 21 22  1  0
 22 23  1  0
M  CHG  1   5   1
M  END
