
     RDKit          3D

 24 23  0  0  0  0  0  0  0  0999 V2000
    6.4020   -1.1240   -2.3600 C   0  0  0  0  0  0  0  0  0  0  0  0
    7.0490   -0.5030   -1.4090 C   0  0  0  0  0  0  0  0  0  0  0  0
    6.3870    0.3820   -0.4590 C   0  0  0  0  0  0  0  0  0  0  0  0
    7.1070    0.9930    0.4830 C   0  0  0  0  0  0  0  0  0  0  0  0
    6.4250    1.8880    1.4390 C   0  0  0  0  0  0  0  0  0  0  0  0
    4.9800    0.6240   -0.5040 N   0  0  0  0  0  0  0  0  0  0  0  0
    3.9880   -0.3650   -0.2980 C   0  0  0  0  0  0  0  0  0  0  0  0
    4.3420   -1.5380   -0.0540 O   0  0  0  0  0  0  0  0  0  0  0  0
    2.5420   -0.0500   -0.3630 C   0  0  0  0  0  0  0  0  0  0  0  0
    1.7820   -1.3250   -0.0980 C   0  0  0  0  0  0  0  0  0  0  0  0
    0.3520   -1.1510   -0.1280 N   0  0  0  0  0  0  0  0  0  0  0  0
   -0.3260   -0.7060   -1.2830 C   0  0  0  0  0  0  0  0  0  0  0  0
    0.3410   -0.4530   -2.3320 O   0  0  0  0  0  0  0  0  0  0  0  0
   -1.7990   -0.5430   -1.2490 C   0  0  0  0  0  0  0  0  0  0  0  0
   -2.3040   -0.8890    0.0380 N   0  0  0  0  0  0  0  0  0  0  0  0
   -3.7840   -0.8120    0.0640 C   0  0  2  0  0  0  0  0  0  0  0  0
   -4.1650    0.6340    0.2240 C   0  0  0  0  0  0  0  0  0  0  0  0
   -5.6160    0.8020    0.2090 C   0  0  0  0  0  0  0  0  0  0  0  0
   -6.4590   -0.0810   -0.0550 O   0  0  0  0  0  0  0  0  0  0  0  0
   -6.1530    2.1050    0.5270 N   0  0  0  0  0  0  0  0  0  0  0  0
   -7.5880    2.3240    0.5260 C   0  0  0  0  0  0  0  0  0  0  0  0
   -4.1670   -1.6090    1.2500 C   0  0  0  0  0  0  0  0  0  0  0  0
   -5.5130   -1.8620    1.5470 N   0  0  0  0  0  0  0  0  0  0  0  0
   -3.2780   -2.0720    2.0060 O   0  0  0  0  0  0  0  0  0  0  0  0
  1  2  2  0
  2  3  1  0
  3  4  2  3
  3  6  1  0
  4  5  1  0
  6  7  1  0
  7  8  2  0
  7  9  1  0
  9 10  1  0
 10 11  1  0
 11 12  1  0
 12 13  2  0
 12 14  1  0
 14 15  1  0
 15 16  1  0
 16 17  1  1
 16 22  1  0
 17 18  1  0
 18 19  2  0
 18 20  1  0
 20 21  1  0
 22 23  1  0
 22 24  2  0
M  CHG  1  15   1
M  END
