
     RDKit          3D

 17 18  0  0  0  0  0  0  0  0999 V2000
    0.9560    1.6090    1.8150 O   0  0  0  0  0  0  0  0  0  0  0  0
    0.6240    0.7480    0.9840 C   0  0  0  0  0  0  0  0  0  0  0  0
    1.5830   -0.1270    0.5720 O   0  0  0  0  0  0  0  0  0  0  0  0
    2.9090   -0.1700    0.9810 C   0  0  2  0  0  0  0  0  0  0  0  0
    3.7060    0.0940   -0.1360 O   0  0  0  0  0  0  0  0  0  0  0  0
    3.3640   -1.4770    1.5520 C   0  0  0  0  0  0  0  0  0  0  0  0
    4.7220   -1.3140    1.9010 O   0  0  0  0  0  0  0  0  0  0  0  0
   -0.7650    0.7400    0.5110 C   0  0  0  0  0  0  0  0  0  0  0  0
   -1.6510    1.6780    0.9990 C   0  0  0  0  0  0  0  0  0  0  0  0
   -2.9700    1.7320    0.6020 C   0  0  0  0  0  0  0  0  0  0  0  0
   -3.8590    2.6900    1.1060 O   0  0  0  0  0  0  0  0  0  0  0  0
   -3.4140    0.8030   -0.3240 C   0  0  0  0  0  0  0  0  0  0  0  0
   -2.5300   -0.1320   -0.8100 C   0  0  0  0  0  0  0  0  0  0  0  0
   -1.2190   -0.1690   -0.4020 C   0  0  0  0  0  0  0  0  0  0  0  0
   -0.5880   -1.2810   -1.1200 C   0  0  0  0  0  0  0  0  0  0  0  0
   -1.6900   -2.1400   -1.3320 O   0  0  0  0  0  0  0  0  0  0  0  0
   -2.6630   -1.2600   -1.8010 C   0  0  0  0  0  0  0  0  0  0  0  0
  1  2  2  0
  2  3  1  0
  2  8  1  0
  3  4  1  0
  4  5  1  6
  4  6  1  0
  6  7  1  0
  8  9  2  0
  8 14  1  0
  9 10  1  0
 10 11  1  0
 10 12  2  0
 12 13  1  0
 13 14  2  0
 13 17  1  0
 14 15  1  0
 15 16  1  0
 16 17  1  0
M  END
