
     RDKit          3D

 17 17  0  0  0  0  0  0  0  0999 V2000
   -3.9760   -1.3520    0.2350 C   0  0  0  0  0  0  0  0  0  0  0  0
   -3.9630   -0.0090   -0.4860 C   0  0  2  0  0  0  0  0  0  0  0  0
   -5.2060    0.7320   -0.0110 C   0  0  0  0  0  0  0  0  0  0  0  0
   -3.9410   -0.1610   -1.8500 O   0  0  0  0  0  0  0  0  0  0  0  0
   -2.7730    0.7690    0.0170 C   0  0  0  0  0  0  0  0  0  0  0  0
   -1.5500    0.1190   -0.3120 O   0  0  0  0  0  0  0  0  0  0  0  0
   -0.3180    0.6250    0.0340 C   0  0  0  0  0  0  0  0  0  0  0  0
   -0.2760    1.7080    0.6680 O   0  0  0  0  0  0  0  0  0  0  0  0
    0.9660   -0.0330   -0.2980 C   0  0  0  0  0  0  0  0  0  0  0  0
    2.0750    0.6850    0.1660 O   0  0  0  0  0  0  0  0  0  0  0  0
    3.3470    0.1550   -0.0920 C   0  0  0  0  0  0  0  0  0  0  0  0
    3.4860   -1.0440   -0.6350 C   0  0  0  0  0  0  0  0  0  0  0  0
    4.7710   -1.6800   -0.9410 C   0  0  0  0  0  0  0  0  0  0  0  0
    5.8400   -0.8540   -0.5860 O   0  0  0  0  0  0  0  0  0  0  0  0
    5.7210    0.3970   -0.0210 C   0  0  0  0  0  0  0  0  0  0  0  0
    4.5490    0.9220    0.2340 C   0  0  0  0  0  0  0  0  0  0  0  0
    4.3870    2.1830    0.8050 O   0  0  0  0  0  0  0  0  0  0  0  0
  2  1  1  1
  2  3  1  0
  2  4  1  0
  2  5  1  0
  5  6  1  0
  6  7  1  0
  7  8  2  0
  7  9  1  0
  9 10  1  0
 10 11  1  0
 11 12  2  0
 11 16  1  0
 12 13  1  0
 13 14  1  0
 14 15  1  0
 15 16  2  0
 16 17  1  0
M  END
