
     RDKit          3D

 17 18  0  0  0  0  0  0  0  0999 V2000
    0.5710    1.1160    0.7070 O   0  0  0  0  0  0  0  0  0  0  0  0
    0.7700    0.1300   -0.0500 C   0  0  0  0  0  0  0  0  0  0  0  0
   -0.3020   -0.6190   -0.4340 O   0  0  0  0  0  0  0  0  0  0  0  0
   -1.6130   -0.4070   -0.0720 C   0  0  0  0  0  0  0  0  0  0  0  0
   -2.2130   -0.9540    1.0400 C   0  0  0  0  0  0  0  0  0  0  0  0
   -3.5260   -0.7270    1.3810 C   0  0  0  0  0  0  0  0  0  0  0  0
   -4.3210    0.0970    0.5800 C   0  0  0  0  0  0  0  0  0  0  0  0
   -5.6470    0.3470    0.8950 O   0  0  0  0  0  0  0  0  0  0  0  0
   -3.7350    0.6550   -0.5390 C   0  0  0  0  0  0  0  0  0  0  0  0
   -2.4150    0.4060   -0.8530 C   0  0  0  0  0  0  0  0  0  0  0  0
   -1.8290    0.9780   -1.9920 O   0  0  0  0  0  0  0  0  0  0  0  0
    2.1350   -0.1640   -0.4810 C   0  0  2  0  0  0  0  0  0  0  0  0
    2.2230   -1.2630   -1.3050 O   0  0  0  0  0  0  0  0  0  0  0  0
    3.0890   -0.3890    0.6930 C   0  0  0  0  0  0  0  0  0  0  0  0
    4.4020   -0.1410   -0.0330 C   0  0  0  0  0  0  0  0  0  0  0  0
    4.1800    0.8250   -0.9740 O   0  0  0  0  0  0  0  0  0  0  0  0
    2.8310    1.0020   -1.1420 C   0  0  0  0  0  0  0  0  0  0  0  0
  1  2  2  0
  2  3  1  0
  2 12  1  0
  3  4  1  0
  4  5  2  0
  4 10  1  0
  5  6  1  0
  6  7  2  0
  7  8  1  0
  7  9  1  0
  9 10  2  0
 10 11  1  0
 12 13  1  6
 12 14  1  0
 12 17  1  0
 14 15  1  0
 15 16  1  0
 16 17  1  0
M  END
