
     RDKit          3D

 17 18  0  0  0  0  0  0  0  0999 V2000
   -1.1670   -3.1460   -1.1420 C   0  0  0  0  0  0  0  0  0  0  0  0
   -1.0790   -2.5180    0.1520 O   0  0  0  0  0  0  0  0  0  0  0  0
   -0.4070   -1.3150    0.1080 C   0  0  0  0  0  0  0  0  0  0  0  0
    0.9390   -1.1950    0.3960 C   0  0  0  0  0  0  0  0  0  0  0  0
    1.6930   -2.3490    0.7570 O   0  0  0  0  0  0  0  0  0  0  0  0
    1.5700    0.0210    0.3380 C   0  0  0  0  0  0  0  0  0  0  0  0
    3.0050    0.0490    0.5720 C   0  0  0  0  0  0  0  0  0  0  0  0
    3.2940   -0.4630    1.8950 O   0  0  0  0  0  0  0  0  0  0  0  0
    0.8420    1.1530   -0.0070 C   0  0  0  0  0  0  0  0  0  0  0  0
   -0.5310    1.0560   -0.3060 C   0  0  0  0  0  0  0  0  0  0  0  0
   -1.1250   -0.1560   -0.2400 C   0  0  0  0  0  0  0  0  0  0  0  0
   -2.4750   -0.3520   -0.4910 O   0  0  0  0  0  0  0  0  0  0  0  0
   -3.3360   -0.1670    0.6500 C   0  0  0  0  0  0  0  0  0  0  0  0
   -3.1650    1.1710    1.0690 O   0  0  0  0  0  0  0  0  0  0  0  0
   -0.9910    2.3220   -0.6340 O   0  0  0  0  0  0  0  0  0  0  0  0
    0.1410    3.0760   -1.0900 C   0  0  0  0  0  0  0  0  0  0  0  0
    1.2630    2.5620   -0.1990 C   0  0  0  0  0  0  0  0  0  0  0  0
  1  2  1  0
  2  3  1  0
  3  4  2  0
  3 11  1  0
  4  5  1  0
  4  6  1  0
  6  7  1  0
  6  9  2  0
  7  8  1  0
  9 10  1  0
  9 17  1  0
 10 11  2  0
 10 15  1  0
 11 12  1  0
 12 13  1  0
 13 14  1  0
 15 16  1  0
 16 17  1  0
M  END
