
     RDKit          3D

 23 24  0  0  0  0  0  0  0  0999 V2000
    6.2820    0.8450   -0.8020 N   0  0  0  0  0  0  0  0  0  0  0  0
    5.2220    1.6760    0.2810 S   0  0  1  0  0  0  0  0  0  0  0  0
    5.7140    1.4580    1.6800 O   0  0  0  0  0  0  0  0  0  0  0  0
    5.2310    3.1140   -0.0990 O   0  0  0  0  0  0  0  0  0  0  0  0
    3.6300    0.9870    0.0670 C   0  0  0  0  0  0  0  0  0  0  0  0
    2.7400    1.4790   -0.8710 C   0  0  0  0  0  0  0  0  0  0  0  0
    1.5030    0.9110   -0.9740 C   0  0  0  0  0  0  0  0  0  0  0  0
    1.0640   -0.1510   -0.1860 C   0  0  0  0  0  0  0  0  0  0  0  0
   -0.2860   -0.7210   -0.3420 C   0  0  0  0  0  0  0  0  0  0  0  0
   -0.9150   -0.5930   -1.4510 O   0  0  0  0  0  0  0  0  0  0  0  0
   -0.8770   -1.3930    0.7280 N   0  0  0  0  0  0  0  0  0  0  0  0
   -2.1920   -2.0060    0.7220 C   0  0  0  0  0  0  0  0  0  0  0  0
   -3.2360   -1.0800    0.2630 C   0  0  0  0  0  0  0  0  0  0  0  0
   -3.4290    0.1570    0.8220 C   0  0  0  0  0  0  0  0  0  0  0  0
   -2.5970    0.6310    1.8030 F   0  0  0  0  0  0  0  0  0  0  0  0
   -4.4530    0.9670    0.3970 C   0  0  0  0  0  0  0  0  0  0  0  0
   -5.3480    0.5930   -0.6050 C   0  0  0  0  0  0  0  0  0  0  0  0
   -6.3590    1.4220   -1.0020 F   0  0  0  0  0  0  0  0  0  0  0  0
   -5.1580   -0.6530   -1.1680 C   0  0  0  0  0  0  0  0  0  0  0  0
   -4.1250   -1.4570   -0.7380 C   0  0  0  0  0  0  0  0  0  0  0  0
   -3.9840   -2.6650   -1.3050 F   0  0  0  0  0  0  0  0  0  0  0  0
    1.9610   -0.6300    0.7420 C   0  0  0  0  0  0  0  0  0  0  0  0
    3.2320   -0.0560    0.8560 C   0  0  0  0  0  0  0  0  0  0  0  0
  2  1  1  6
  2  3  2  0
  2  4  2  0
  2  5  1  0
  5  6  2  0
  5 23  1  0
  6  7  1  0
  7  8  2  0
  8  9  1  0
  8 22  1  0
  9 10  2  0
  9 11  1  0
 11 12  1  0
 12 13  1  0
 13 14  2  0
 13 20  1  0
 14 15  1  0
 14 16  1  0
 16 17  2  0
 17 18  1  0
 17 19  1  0
 19 20  2  0
 20 21  1  0
 22 23  2  0
M  END
