
     RDKit          3D

 17 18  0  0  0  0  0  0  0  0999 V2000
   -5.0980   -0.3320    0.9860 O   0  0  0  0  0  0  0  0  0  0  0  0
   -3.8080    0.0310    0.6590 C   0  0  0  0  0  0  0  0  0  0  0  0
   -3.3710    1.3100    0.9930 C   0  0  0  0  0  0  0  0  0  0  0  0
   -2.1150    1.7160    0.6950 C   0  0  0  0  0  0  0  0  0  0  0  0
   -1.6700    3.0150    1.0350 O   0  0  0  0  0  0  0  0  0  0  0  0
   -1.2220    0.8420    0.0360 C   0  0  0  0  0  0  0  0  0  0  0  0
   -0.0090    1.3290   -0.2110 O   0  0  0  0  0  0  0  0  0  0  0  0
    1.2000    1.0880   -0.7160 C   0  0  0  0  0  0  0  0  0  0  0  0
    2.0710    0.0420   -0.0940 C   0  0  2  0  0  0  0  0  0  0  0  0
    2.3270    0.3190    1.2470 O   0  0  0  0  0  0  0  0  0  0  0  0
    3.4540    0.0200   -0.7870 C   0  0  0  0  0  0  0  0  0  0  0  0
    3.9200   -1.3510   -0.3890 C   0  0  0  0  0  0  0  0  0  0  0  0
    2.8320   -2.0930   -0.0310 O   0  0  0  0  0  0  0  0  0  0  0  0
    1.6690   -1.3780   -0.2920 C   0  0  0  0  0  0  0  0  0  0  0  0
   -1.6850   -0.4110   -0.2790 C   0  0  0  0  0  0  0  0  0  0  0  0
   -2.9770   -0.8500    0.0190 C   0  0  0  0  0  0  0  0  0  0  0  0
   -3.3810   -2.1130   -0.3220 O   0  0  0  0  0  0  0  0  0  0  0  0
  1  2  1  0
  2  3  2  0
  2 16  1  0
  3  4  1  0
  4  5  1  0
  4  6  2  0
  6  7  1  0
  6 15  1  0
  7  8  1  0
  8  9  1  0
  9 10  1  1
  9 11  1  0
  9 14  1  0
 11 12  1  0
 12 13  1  0
 13 14  1  0
 15 16  2  0
 16 17  1  0
M  END
