
     RDKit          3D

 16 17  0  0  0  0  0  0  0  0999 V2000
   -4.4220    0.1900    2.1490 O   0  0  0  0  0  0  0  0  0  0  0  0
   -3.0770    0.0920    1.9480 C   0  0  0  0  0  0  0  0  0  0  0  0
   -2.5400    0.1560    0.7510 C   0  0  0  0  0  0  0  0  0  0  0  0
   -1.0870    0.0390    0.6580 C   0  0  0  0  0  0  0  0  0  0  0  0
   -0.3210   -0.1370   -0.4110 C   0  0  0  0  0  0  0  0  0  0  0  0
    1.1200   -0.2210   -0.2140 C   0  0  0  0  0  0  0  0  0  0  0  0
    2.0290   -0.4010   -1.2320 C   0  0  0  0  0  0  0  0  0  0  0  0
    3.2530   -0.4260   -0.6470 C   0  0  0  0  0  0  0  0  0  0  0  0
    3.0550   -0.2600    0.7030 C   0  0  0  0  0  0  0  0  0  0  0  0
    4.1680   -0.2320    1.6870 C   0  0  0  0  0  0  0  0  0  0  0  0
    4.6260    1.0700    1.8640 O   0  0  0  0  0  0  0  0  0  0  0  0
    1.7670   -0.1440    0.9020 O   0  0  0  0  0  0  0  0  0  0  0  0
   -0.8050   -0.2460   -1.7100 O   0  0  0  0  0  0  0  0  0  0  0  0
   -2.0690   -0.3450   -2.2790 C   0  0  0  0  0  0  0  0  0  0  0  0
   -3.0830    0.6020   -1.6960 C   0  0  0  0  0  0  0  0  0  0  0  0
   -3.3820    0.3290   -0.3490 O   0  0  0  0  0  0  0  0  0  0  0  0
  1  2  1  0
  2  3  2  3
  3  4  1  0
  3 16  1  0
  4  5  2  0
  5  6  1  0
  5 13  1  0
  6  7  2  0
  6 12  1  0
  7  8  1  0
  8  9  2  0
  9 10  1  0
  9 12  1  0
 10 11  1  0
 13 14  1  0
 14 15  1  0
 15 16  1  0
M  END
