
     RDKit          3D

 17 17  0  0  0  0  0  0  0  0999 V2000
    4.5020    0.6940    1.0080 C   0  0  0  0  0  0  0  0  0  0  0  0
    3.6380   -0.4660    0.6190 C   0  0  0  0  0  0  0  0  0  0  0  0
    3.0480   -0.5240   -0.5590 C   0  0  0  0  0  0  0  0  0  0  0  0
    3.2350    0.5170   -1.4560 O   0  0  0  0  0  0  0  0  0  0  0  0
    2.2090   -1.6830   -0.8940 C   0  0  0  0  0  0  0  0  0  0  0  0
    0.8810   -1.2850   -1.1710 O   0  0  0  0  0  0  0  0  0  0  0  0
    0.0830   -0.6310   -0.2520 C   0  0  0  0  0  0  0  0  0  0  0  0
    0.5210   -0.3590    0.8920 O   0  0  0  0  0  0  0  0  0  0  0  0
   -1.2810   -0.2500   -0.6100 C   0  0  1  0  0  0  0  0  0  0  0  0
   -1.5450   -0.6490   -1.9150 O   0  0  0  0  0  0  0  0  0  0  0  0
   -2.2570   -0.9790    0.2840 C   0  0  0  0  0  0  0  0  0  0  0  0
   -2.4350   -0.3460    1.6210 C   0  0  0  0  0  0  0  0  0  0  0  0
   -3.5980    0.6190    1.6830 C   0  0  0  0  0  0  0  0  0  0  0  0
   -3.7900    1.3370    0.5020 O   0  0  0  0  0  0  0  0  0  0  0  0
   -2.8850    1.6510   -0.5000 C   0  0  0  0  0  0  0  0  0  0  0  0
   -3.3510    2.3520   -1.4440 O   0  0  0  0  0  0  0  0  0  0  0  0
   -1.4620    1.2460   -0.5540 C   0  0  0  0  0  0  0  0  0  0  0  0
  1  2  1  0
  2  3  2  3
  3  4  1  0
  3  5  1  0
  5  6  1  0
  6  7  1  0
  7  8  2  0
  7  9  1  0
  9 10  1  6
  9 11  1  0
  9 17  1  0
 11 12  1  0
 12 13  1  0
 13 14  1  0
 14 15  1  0
 15 16  2  0
 15 17  1  0
M  END
