
     RDKit          3D

 30 33  0  0  0  0  0  0  0  0999 V2000
    7.3020    1.9540   -2.5700 O   0  0  0  0  0  0  0  0  0  0  0  0
    6.8100    1.4240   -1.5260 C   0  0  0  0  0  0  0  0  0  0  0  0
    7.5520    1.3450   -0.2400 C   0  0  0  0  0  0  0  0  0  0  0  0
    7.4490    0.0130    0.2300 O   0  0  0  0  0  0  0  0  0  0  0  0
    6.1840   -0.5680    0.2500 C   0  0  0  0  0  0  0  0  0  0  0  0
    5.8540   -1.5720    1.1400 C   0  0  0  0  0  0  0  0  0  0  0  0
    4.6150   -2.1660    1.1860 C   0  0  0  0  0  0  0  0  0  0  0  0
    3.6510   -1.7530    0.3150 C   0  0  0  0  0  0  0  0  0  0  0  0
    2.0060   -2.4440    0.2760 S   0  0  0  0  0  0  0  0  0  0  0  0
    0.8720   -1.5460    1.3750 C   0  0  1  0  0  0  0  0  0  0  0  0
    0.6990   -0.1580    0.8160 C   0  0  0  0  0  0  0  0  0  0  0  0
   -0.6970    0.3770    1.0120 C   0  0  0  0  0  0  0  0  0  0  0  0
   -1.6610   -0.4850    0.3800 N   0  0  0  0  0  0  0  0  0  0  0  0
   -2.8660   -0.0130   -0.2400 C   0  0  0  0  0  0  0  0  0  0  0  0
   -3.6740   -0.8010   -0.7770 O   0  0  0  0  0  0  0  0  0  0  0  0
   -3.1080    1.4390   -0.2160 C   0  0  0  0  0  0  0  0  0  0  0  0
   -4.3320    1.8040   -0.8000 O   0  0  0  0  0  0  0  0  0  0  0  0
   -5.5790    1.4110   -0.3580 C   0  0  0  0  0  0  0  0  0  0  0  0
   -5.8170    0.6120    0.7320 C   0  0  0  0  0  0  0  0  0  0  0  0
   -7.1090    0.2820    1.0790 C   0  0  0  0  0  0  0  0  0  0  0  0
   -7.3120   -0.4560    2.0860 O   0  0  0  0  0  0  0  0  0  0  0  0
   -8.1290    0.7110    0.3950 O   0  0  0  0  0  0  0  0  0  0  0  0
   -7.9410    1.4830   -0.6610 C   0  0  0  0  0  0  0  0  0  0  0  0
   -6.6780    1.8470   -1.0580 C   0  0  0  0  0  0  0  0  0  0  0  0
   -6.5510    2.6640   -2.1810 O   0  0  0  0  0  0  0  0  0  0  0  0
   -1.3970   -1.9040    0.3720 C   0  0  0  0  0  0  0  0  0  0  0  0
   -0.4080   -2.3240    1.4230 C   0  0  0  0  0  0  0  0  0  0  0  0
    3.9390   -0.7570   -0.5860 C   0  0  0  0  0  0  0  0  0  0  0  0
    5.1830   -0.1710   -0.6210 C   0  0  0  0  0  0  0  0  0  0  0  0
    5.4970    0.8760   -1.5620 N   0  0  0  0  0  0  0  0  0  0  0  0
  1  2  2  0
  2  3  1  0
  2 30  1  0
  3  4  1  0
  4  5  1  0
  5  6  2  0
  5 29  1  0
  6  7  1  0
  7  8  2  0
  8  9  1  0
  8 28  1  0
 10  9  1  6
 10 11  1  0
 10 27  1  0
 11 12  1  0
 12 13  1  0
 13 14  1  0
 13 26  1  0
 14 15  2  0
 14 16  1  0
 16 17  1  0
 17 18  1  0
 18 19  2  0
 18 24  1  0
 19 20  1  0
 20 21  2  0
 20 22  1  0
 22 23  1  0
 23 24  2  0
 24 25  1  0
 26 27  1  0
 28 29  2  0
 29 30  1  0
M  END
