
     RDKit          3D

 29 31  0  0  0  0  0  0  0  0999 V2000
    0.7920    2.0810    0.7440 O   0  0  0  0  0  0  0  0  0  0  0  0
    0.8570    2.1920   -0.5070 C   0  0  0  0  0  0  0  0  0  0  0  0
   -0.1800    1.5880   -1.3380 C   0  0  0  0  0  0  0  0  0  0  0  0
   -1.2440    0.8270   -0.5950 C   0  0  2  0  0  0  0  0  0  0  0  0
   -0.7710   -0.3260    0.2030 C   0  0  0  0  0  0  0  0  0  0  0  0
   -0.4850   -1.5720   -0.5770 C   0  0  0  0  0  0  0  0  0  0  0  0
   -1.7620   -2.4220   -0.4750 C   0  0  0  0  0  0  0  0  0  0  0  0
   -2.6720   -2.1550   -1.6260 C   0  0  1  0  0  0  0  0  0  0  0  0
   -4.3700   -2.5460   -1.1010 S   0  0  0  0  0  0  0  0  0  0  0  0
   -4.9290   -1.4120    0.1520 C   0  0  0  0  0  0  0  0  0  0  0  0
   -4.3310   -0.3800    0.7210 N   0  0  0  0  0  0  0  0  0  0  0  0
   -5.1330    0.1810    1.6070 N   0  0  0  0  0  0  0  0  0  0  0  0
   -6.2800   -0.5220    1.5980 C   0  0  0  0  0  0  0  0  0  0  0  0
   -7.2820   -0.2510    2.3400 O   0  0  0  0  0  0  0  0  0  0  0  0
   -6.1630   -1.5140    0.6980 N   0  0  0  0  0  0  0  0  0  0  0  0
   -2.6020   -0.8010   -2.1700 C   0  0  0  0  0  0  0  0  0  0  0  0
   -2.9180   -0.7030   -3.3830 O   0  0  0  0  0  0  0  0  0  0  0  0
   -2.2360    0.4210   -1.5550 N   0  0  0  0  0  0  0  0  0  0  0  0
    1.9450    2.9080   -1.0790 N   0  0  0  0  0  0  0  0  0  0  0  0
    2.9450    3.4750   -0.2290 C   0  0  0  0  0  0  0  0  0  0  0  0
    3.7280    2.5310    0.5640 C   0  0  0  0  0  0  0  0  0  0  0  0
    4.5870    2.9930    1.3600 O   0  0  0  0  0  0  0  0  0  0  0  0
    3.5570    1.1400    0.4660 N   0  0  0  0  0  0  0  0  0  0  0  0
    4.3420    0.2210    1.2690 C   0  0  2  0  0  0  0  0  0  0  0  0
    5.1320   -0.6660    0.4190 N   0  0  0  0  0  0  0  0  0  0  0  0
    4.2360   -1.7520    0.1200 C   0  0  0  0  0  0  0  0  0  0  0  0
    3.5360   -1.9270    1.3450 O   0  0  0  0  0  0  0  0  0  0  0  0
    3.4740   -0.7190    2.0030 C   0  0  0  0  0  0  0  0  0  0  0  0
    2.8040   -0.4770    3.0270 O   0  0  0  0  0  0  0  0  0  0  0  0
  1  2  2  0
  2  3  1  0
  2 19  1  0
  4  3  1  6
  4  5  1  0
  4 18  1  0
  5  6  1  0
  6  7  1  0
  7  8  1  0
  8  9  1  1
  8 16  1  0
  9 10  1  0
 10 11  2  0
 10 15  1  0
 11 12  1  0
 12 13  1  0
 13 14  2  0
 13 15  1  0
 16 17  2  0
 16 18  1  0
 19 20  1  0
 20 21  1  0
 21 22  2  0
 21 23  1  0
 24 23  1  6
 24 25  1  0
 24 28  1  0
 25 26  1  0
 26 27  1  0
 27 28  1  0
 28 29  2  0
M  CHG  1  25   1
M  END
