
     RDKit          3D

 30 31  0  0  0  0  0  0  0  0999 V2000
    4.8560   -2.0740    0.0700 C   0  0  0  0  0  0  0  0  0  0  0  0
    4.2450   -0.7700    0.5270 C   0  0  1  0  0  0  0  0  0  0  0  0
    2.8920   -0.6590    0.1580 O   0  0  0  0  0  0  0  0  0  0  0  0
    2.4920    0.3030   -0.7470 C   0  0  0  0  0  0  0  0  0  0  0  0
    3.3720    1.0580   -1.2200 O   0  0  0  0  0  0  0  0  0  0  0  0
    1.0610    0.4300   -1.1400 C   0  0  1  0  0  0  0  0  0  0  0  0
    0.5990    1.8660   -0.9260 C   0  0  0  0  0  0  0  0  0  0  0  0
    0.9780    0.1440   -2.6200 C   0  0  0  0  0  0  0  0  0  0  0  0
   -0.4350   -0.3620   -2.7450 C   0  0  0  0  0  0  0  0  0  0  0  0
   -0.7240   -0.8830   -1.3730 C   0  0  2  0  0  0  0  0  0  0  0  0
   -2.0920   -0.5270   -0.9060 C   0  0  0  0  0  0  0  0  0  0  0  0
   -3.0980   -0.8550   -1.5800 O   0  0  0  0  0  0  0  0  0  0  0  0
   -2.2990    0.1910    0.3090 N   0  0  0  0  0  0  0  0  0  0  0  0
   -3.5430    0.5570    0.8120 N   0  0  0  0  0  0  0  0  0  0  0  0
   -4.4540    1.2240   -0.0400 C   0  0  0  0  0  0  0  0  0  0  0  0
   -4.2240    1.5150   -1.2400 O   0  0  0  0  0  0  0  0  0  0  0  0
   -5.7730    1.6110    0.5090 C   0  0  0  0  0  0  0  0  0  0  0  0
   -6.7360    0.5450    0.3220 N   0  0  0  0  0  0  0  0  0  0  0  0
   -7.5280    0.3970   -0.7240 N   0  0  0  0  0  0  0  0  0  0  0  0
   -8.2920   -0.7000   -0.5560 C   0  0  0  0  0  0  0  0  0  0  0  0
   -9.1600   -1.1450   -1.3530 O   0  0  0  0  0  0  0  0  0  0  0  0
   -7.9390   -1.2250    0.6380 N   0  0  0  0  0  0  0  0  0  0  0  0
   -6.9840   -0.4640    1.1820 C   0  0  0  0  0  0  0  0  0  0  0  0
   -6.3940   -0.6260    2.2980 O   0  0  0  0  0  0  0  0  0  0  0  0
    0.2520   -0.4680   -0.5060 O   0  0  0  0  0  0  0  0  0  0  0  0
    4.4540   -0.4750    1.9550 C   0  0  0  0  0  0  0  0  0  0  0  0
    3.2760   -0.9360    2.9910 S   0  0  0  0  0  0  0  0  0  0  0  0
    5.5980    0.1570    2.4320 N   0  0  0  0  0  0  0  0  0  0  0  0
    6.6830    0.5930    1.6250 C   0  0  0  0  0  0  0  0  0  0  0  0
    7.4600   -0.4500    0.9970 N   0  0  0  0  0  0  0  0  0  0  0  0
  2  1  1  1
  2  3  1  0
  2 26  1  0
  3  4  1  0
  4  5  2  0
  4  6  1  0
  6  7  1  6
  6  8  1  0
  6 25  1  0
  8  9  1  0
  9 10  1  0
 10 11  1  1
 10 25  1  0
 11 12  2  0
 11 13  1  0
 13 14  1  0
 14 15  1  0
 15 16  2  0
 15 17  1  0
 17 18  1  0
 18 19  1  0
 18 23  1  0
 19 20  1  0
 20 21  2  0
 20 22  1  0
 22 23  1  0
 23 24  2  0
 26 27  2  0
 26 28  1  0
 28 29  1  0
 29 30  1  0
M  CHG  1  30   1
M  END
