
     RDKit          3D

 30 32  0  0  0  0  0  0  0  0999 V2000
   -4.2730   -3.0240    0.6240 C   0  0  0  0  0  0  0  0  0  0  0  0
   -5.0840   -2.0990    0.1600 C   0  0  0  0  0  0  0  0  0  0  0  0
   -4.7370   -0.6950    0.1910 C   0  0  0  0  0  0  0  0  0  0  0  0
   -3.4580   -0.3040    0.1760 C   0  0  0  0  0  0  0  0  0  0  0  0
   -3.0740    1.0990    0.2080 C   0  0  0  0  0  0  0  0  0  0  0  0
   -1.8410    1.5450    0.2000 C   0  0  0  0  0  0  0  0  0  0  0  0
   -1.6620    3.0180    0.2330 C   0  0  0  0  0  0  0  0  0  0  0  0
   -0.7240    3.4290   -0.8680 C   0  0  0  0  0  0  0  0  0  0  0  0
    0.2940    2.3680   -1.2480 C   0  0  0  0  0  0  0  0  0  0  0  0
    0.6360    1.4630   -0.1390 C   0  0  1  0  0  0  0  0  0  0  0  0
    0.9340    2.2320    1.1250 C   0  0  0  0  0  0  0  0  0  0  0  0
   -0.6940    0.6980    0.1540 C   0  0  1  0  0  0  0  0  0  0  0  0
   -0.2780   -0.1260    1.3040 C   0  0  0  0  0  0  0  0  0  0  0  0
    1.2080   -0.4320    0.9990 C   0  0  0  0  0  0  0  0  0  0  0  0
    1.4520    0.2770   -0.3530 C   0  0  2  0  0  0  0  0  0  0  0  0
    2.8120    0.2490   -0.8310 C   0  0  1  0  0  0  0  0  0  0  0  0
    2.8560    0.8760   -2.2390 C   0  0  0  0  0  0  0  0  0  0  0  0
    3.8980    0.8380    0.0270 C   0  0  0  0  0  0  0  0  0  0  0  0
    5.2600    0.7380   -0.5500 C   0  0  0  0  0  0  0  0  0  0  0  0
    5.8470   -0.5750   -0.8420 C   0  0  0  0  0  0  0  0  0  0  0  0
    6.0810   -1.5350    0.2600 C   0  0  1  0  0  0  0  0  0  0  0  0
    6.9860   -1.0090    1.3560 C   0  0  0  0  0  0  0  0  0  0  0  0
    4.8820   -2.2760    0.7580 C   0  0  0  0  0  0  0  0  0  0  0  0
    6.8950   -2.5890   -0.3290 O   0  0  0  0  0  0  0  0  0  0  0  0
   -5.8150    0.3150    0.2320 C   0  0  0  0  0  0  0  0  0  0  0  0
   -7.1650   -0.2170   -0.1000 C   0  0  1  0  0  0  0  0  0  0  0  0
   -7.3900   -0.2180   -1.4960 O   0  0  0  0  0  0  0  0  0  0  0  0
   -7.4190   -1.6270    0.3590 C   0  0  0  0  0  0  0  0  0  0  0  0
   -6.4010   -2.4920   -0.4050 C   0  0  2  0  0  0  0  0  0  0  0  0
   -6.6670   -3.8450   -0.2200 O   0  0  0  0  0  0  0  0  0  0  0  0
  1  2  2  0
  2  3  1  0
  2 29  1  0
  3  4  2  3
  3 25  1  0
  4  5  1  0
  5  6  2  3
  6  7  1  0
  6 12  1  0
  7  8  1  0
  8  9  1  0
  9 10  1  0
 10 11  1  1
 10 12  1  0
 10 15  1  0
 12 13  1  1
 13 14  1  0
 15 14  1  1
 15 16  1  0
 16 17  1  6
 16 18  1  0
 18 19  1  0
 19 20  1  0
 20 21  1  0
 21 22  1  1
 21 23  1  0
 21 24  1  0
 25 26  1  0
 26 27  1  6
 26 28  1  0
 28 29  1  0
 29 30  1  1
M  END
