
     RDKit          3D

 30 33  0  0  0  0  0  0  0  0999 V2000
   -4.2960   -0.5180   -3.5720 C   0  0  0  0  0  0  0  0  0  0  0  0
   -4.9240   -0.2340   -2.3450 O   0  0  0  0  0  0  0  0  0  0  0  0
   -4.2010   -0.1150   -1.1720 C   0  0  0  0  0  0  0  0  0  0  0  0
   -2.8120   -0.2830   -1.2110 C   0  0  0  0  0  0  0  0  0  0  0  0
   -2.1100   -0.1640   -0.0490 C   0  0  0  0  0  0  0  0  0  0  0  0
   -0.7190   -0.2960   -0.0030 N   0  0  0  0  0  0  0  0  0  0  0  0
    0.1350   -0.2380   -1.1150 C   0  0  0  0  0  0  0  0  0  0  0  0
   -0.2810   -0.0510   -2.2820 O   0  0  0  0  0  0  0  0  0  0  0  0
    1.5850   -0.3950   -0.9900 C   0  0  0  0  0  0  0  0  0  0  0  0
    2.3390   -0.6090    0.1360 C   0  0  0  0  0  0  0  0  0  0  0  0
    3.6590   -0.7220    0.0250 C   0  0  0  0  0  0  0  0  0  0  0  0
    4.1990   -0.6110   -1.2800 C   0  0  0  0  0  0  0  0  0  0  0  0
    5.6280   -0.6970   -1.6780 C   0  0  0  0  0  0  0  0  0  0  0  0
    5.9400   -1.0910   -2.8260 O   0  0  0  0  0  0  0  0  0  0  0  0
    6.5980   -0.3050   -0.6780 C   0  0  0  0  0  0  0  0  0  0  0  0
    6.4490    0.5790    0.3680 C   0  0  0  0  0  0  0  0  0  0  0  0
    7.5700    0.6570    1.0540 O   0  0  0  0  0  0  0  0  0  0  0  0
    8.4320   -0.1320    0.5020 C   0  0  0  0  0  0  0  0  0  0  0  0
    9.8250   -0.3380    0.9690 C   0  0  0  0  0  0  0  0  0  0  0  0
    7.8860   -0.7440   -0.5630 N   0  0  0  0  0  0  0  0  0  0  0  0
    2.7830   -0.3510   -2.2640 S   0  0  0  0  0  0  0  0  0  0  0  0
   -2.8230    0.1230    1.1350 C   0  0  0  0  0  0  0  0  0  0  0  0
   -4.1780    0.2860    1.1730 C   0  0  0  0  0  0  0  0  0  0  0  0
   -4.8680    0.1620   -0.0110 C   0  0  0  0  0  0  0  0  0  0  0  0
   -6.2310    0.2930   -0.1700 O   0  0  0  0  0  0  0  0  0  0  0  0
   -7.2940    0.7810    0.5750 C   0  0  0  0  0  0  0  0  0  0  0  0
   -7.0170    1.0900    1.9860 C   0  0  0  0  0  0  0  0  0  0  0  0
   -8.0780    1.2540    2.6160 O   0  0  0  0  0  0  0  0  0  0  0  0
   -5.8380    1.2550    2.8360 C   0  0  0  0  0  0  0  0  0  0  0  0
   -4.6910    0.5620    2.4300 O   0  0  0  0  0  0  0  0  0  0  0  0
  1  2  1  0
  2  3  1  0
  3  4  2  0
  3 24  1  0
  4  5  1  0
  5  6  1  0
  5 22  2  0
  6  7  1  0
  7  8  2  0
  7  9  1  0
  9 10  2  0
  9 21  1  0
 10 11  1  0
 11 12  2  0
 12 13  1  0
 12 21  1  0
 13 14  2  0
 13 15  1  0
 15 16  2  0
 15 20  1  0
 16 17  1  0
 17 18  1  0
 18 19  1  0
 18 20  2  0
 22 23  1  0
 23 24  2  0
 23 30  1  0
 24 25  1  0
 25 26  1  0
 26 27  1  0
 27 28  2  0
 27 29  1  0
 29 30  1  0
M  END
