
     RDKit          3D

 30 32  0  0  0  0  0  0  0  0999 V2000
   -5.9350    1.6390   -0.2750 C   0  0  0  0  0  0  0  0  0  0  0  0
   -5.6070    0.3290   -0.4410 O   0  0  0  0  0  0  0  0  0  0  0  0
   -4.3790    0.0260   -0.9400 C   0  0  2  0  0  0  0  0  0  0  0  0
   -4.4540   -0.6250   -2.2500 N   0  0  0  0  0  0  0  0  0  0  0  0
   -3.5640   -0.9010   -0.0730 C   0  0  1  0  0  0  0  0  0  0  0  0
   -4.3170   -2.2730    0.0020 C   0  0  0  0  0  0  0  0  0  0  0  0
   -5.6250   -2.0700    0.5470 N   0  0  0  0  0  0  0  0  0  0  0  0
   -2.3430   -1.0940   -0.5690 O   0  0  0  0  0  0  0  0  0  0  0  0
   -1.2530   -0.9080    0.1480 C   0  0  0  0  0  0  0  0  0  0  0  0
   -0.7330    0.4050    0.6000 C   0  0  1  0  0  0  0  0  0  0  0  0
   -1.5110    1.1870    1.6100 C   0  0  0  0  0  0  0  0  0  0  0  0
   -2.6630    1.7610    1.1760 O   0  0  0  0  0  0  0  0  0  0  0  0
    0.5050    0.0320    1.3410 N   0  0  0  0  0  0  0  0  0  0  0  0
    1.6650    0.3890    1.0410 C   0  0  0  0  0  0  0  0  0  0  0  0
    3.3160    0.1000    1.7370 S   0  0  0  0  0  0  0  0  0  0  0  0
    4.1510    1.0800    0.5040 C   0  0  0  0  0  0  0  0  0  0  0  0
    5.6140    1.3020    0.4480 C   0  0  0  0  0  0  0  0  0  0  0  0
    6.2600   -0.0720    0.2980 C   0  0  2  0  0  0  0  0  0  0  0  0
    5.9010   -0.9530    1.4830 C   0  0  0  0  0  0  0  0  0  0  0  0
    7.6410    0.0020    0.1040 O   0  0  0  0  0  0  0  0  0  0  0  0
    7.8600   -0.0830   -1.2650 C   0  0  0  0  0  0  0  0  0  0  0  0
    8.9650    0.2020   -1.7990 O   0  0  0  0  0  0  0  0  0  0  0  0
    6.6760   -0.5260   -1.9320 N   0  0  0  0  0  0  0  0  0  0  0  0
    5.6960   -0.7170   -0.9140 C   0  0  0  0  0  0  0  0  0  0  0  0
    4.5930   -1.3100   -1.0360 O   0  0  0  0  0  0  0  0  0  0  0  0
    3.2620    1.5180   -0.2680 N   0  0  0  0  0  0  0  0  0  0  0  0
    1.9550    1.2110   -0.0640 N   0  0  0  0  0  0  0  0  0  0  0  0
    0.8370    1.6490   -0.8750 C   0  0  0  0  0  0  0  0  0  0  0  0
    1.0440    2.4000   -1.8950 O   0  0  0  0  0  0  0  0  0  0  0  0
   -0.4590    1.2390   -0.5240 N   0  0  0  0  0  0  0  0  0  0  0  0
  1  2  1  0
  2  3  1  0
  3  4  1  6
  3  5  1  0
  5  6  1  6
  5  8  1  0
  6  7  1  0
  8  9  1  0
 10  9  1  6
 10 11  1  0
 10 13  1  0
 10 30  1  0
 11 12  1  0
 13 14  2  0
 14 15  1  0
 14 27  1  0
 15 16  1  0
 16 17  1  0
 16 26  2  0
 17 18  1  0
 18 19  1  1
 18 20  1  0
 18 24  1  0
 20 21  1  0
 21 22  2  0
 21 23  1  0
 23 24  1  0
 24 25  2  0
 26 27  1  0
 27 28  1  0
 28 29  2  0
 28 30  1  0
M  CHG  1   7   1
M  END
