
     RDKit          3D

 30 33  0  0  0  0  0  0  0  0999 V2000
   -5.6080    0.5660    3.6370 O   0  0  0  0  0  0  0  0  0  0  0  0
   -5.7980    0.8180    2.4240 C   0  0  0  0  0  0  0  0  0  0  0  0
   -5.0900    0.1640    1.3330 C   0  0  0  0  0  0  0  0  0  0  0  0
   -5.3430    0.4840    0.0160 C   0  0  0  0  0  0  0  0  0  0  0  0
   -4.6670   -0.1420   -1.0100 C   0  0  0  0  0  0  0  0  0  0  0  0
   -3.6990   -1.1240   -0.7720 C   0  0  0  0  0  0  0  0  0  0  0  0
   -2.9060   -1.8600   -2.1460 S   0  0  2  0  0  0  0  0  0  0  0  0
   -3.9550   -1.9480   -3.2350 O   0  0  0  0  0  0  0  0  0  0  0  0
   -2.5470   -3.2800   -1.8140 O   0  0  0  0  0  0  0  0  0  0  0  0
   -1.5660   -0.9380   -2.6490 N   0  0  0  0  0  0  0  0  0  0  0  0
   -0.4350   -0.6700   -1.8670 C   0  0  0  0  0  0  0  0  0  0  0  0
   -0.1200   -1.4760   -0.8030 C   0  0  0  0  0  0  0  0  0  0  0  0
    1.0280   -1.1550   -0.0710 C   0  0  0  0  0  0  0  0  0  0  0  0
    1.8480   -0.1000   -0.3460 C   0  0  0  0  0  0  0  0  0  0  0  0
    3.0190    0.2650    0.3630 N   0  0  0  0  0  0  0  0  0  0  0  0
    3.5160   -0.4340    1.4900 C   0  0  0  0  0  0  0  0  0  0  0  0
    2.9630   -1.4460    1.9650 O   0  0  0  0  0  0  0  0  0  0  0  0
    4.7490    0.0410    2.1500 C   0  0  0  0  0  0  0  0  0  0  0  0
    5.4850    1.1320    1.7630 C   0  0  0  0  0  0  0  0  0  0  0  0
    6.5370    1.2260    2.6270 C   0  0  0  0  0  0  0  0  0  0  0  0
    6.4050    0.1810    3.5170 C   0  0  0  0  0  0  0  0  0  0  0  0
    5.3310   -0.4780    3.1790 O   0  0  0  0  0  0  0  0  0  0  0  0
    1.4830    0.6910   -1.4420 C   0  0  0  0  0  0  0  0  0  0  0  0
    0.3710    0.4270   -2.1950 C   0  0  0  0  0  0  0  0  0  0  0  0
    0.2920    1.4340   -3.2390 C   0  0  0  0  0  0  0  0  0  0  0  0
   -0.5860    1.5360   -4.1330 O   0  0  0  0  0  0  0  0  0  0  0  0
    1.3600    2.2760   -3.0830 O   0  0  0  0  0  0  0  0  0  0  0  0
    2.1300    1.8820   -2.0040 C   0  0  0  0  0  0  0  0  0  0  0  0
   -3.4430   -1.4480    0.5360 C   0  0  0  0  0  0  0  0  0  0  0  0
   -4.1370   -0.8040    1.5640 C   0  0  0  0  0  0  0  0  0  0  0  0
  1  2  2  0
  2  3  1  0
  3  4  2  0
  3 30  1  0
  4  5  1  0
  5  6  2  0
  6  7  1  0
  6 29  1  0
  7  8  2  0
  7  9  2  0
  7 10  1  6
 10 11  1  0
 11 12  2  0
 11 24  1  0
 12 13  1  0
 13 14  2  0
 14 15  1  0
 14 23  1  0
 15 16  1  0
 16 17  2  0
 16 18  1  0
 18 19  2  0
 18 22  1  0
 19 20  1  0
 20 21  2  0
 21 22  1  0
 23 24  2  0
 23 28  1  0
 24 25  1  0
 25 26  2  0
 25 27  1  0
 27 28  1  0
 29 30  2  0
M  END
