
     RDKit          3D

 30 31  0  0  0  0  0  0  0  0999 V2000
   -4.8820    3.2300   -0.3610 C   0  0  0  0  0  0  0  0  0  0  0  0
   -5.0360    2.1220   -1.1910 O   0  0  0  0  0  0  0  0  0  0  0  0
   -4.0630    1.1970   -0.9610 C   0  0  0  0  0  0  0  0  0  0  0  0
   -4.1180    0.3980    0.3070 C   0  0  1  0  0  0  0  0  0  0  0  0
   -5.3120   -0.3460    0.3740 N   0  0  0  0  0  0  0  0  0  0  0  0
   -2.8960   -0.4440    0.4370 C   0  0  1  0  0  0  0  0  0  0  0  0
   -3.2750   -1.7980    0.9190 C   0  0  0  0  0  0  0  0  0  0  0  0
   -3.4220   -2.1830    2.0390 O   0  0  0  0  0  0  0  0  0  0  0  0
   -3.3910   -2.6640   -0.1830 O   0  0  0  0  0  0  0  0  0  0  0  0
   -3.8290   -3.9840   -0.0920 C   0  0  0  0  0  0  0  0  0  0  0  0
   -2.0420   -0.5180   -0.6880 N   0  0  0  0  0  0  0  0  0  0  0  0
   -0.8240   -0.0410   -0.6790 N   0  0  0  0  0  0  0  0  0  0  0  0
   -0.4200    0.5560    0.4440 C   0  0  0  0  0  0  0  0  0  0  0  0
    0.9740    0.8670    0.3860 N   0  0  0  0  0  0  0  0  0  0  0  0
    1.4140    2.1190   -0.2440 C   0  0  0  0  0  0  0  0  0  0  0  0
    2.8380    1.9330   -0.7750 C   0  0  0  0  0  0  0  0  0  0  0  0
    3.2540    2.7570   -1.5340 O   0  0  0  0  0  0  0  0  0  0  0  0
    3.6030    0.7590   -0.4120 N   0  0  0  0  0  0  0  0  0  0  0  0
    4.8070    0.4270   -1.2930 C   0  0  0  0  0  0  0  0  0  0  0  0
    5.9710    0.3660   -0.2920 C   0  0  0  0  0  0  0  0  0  0  0  0
    6.3040   -0.8660   -0.2070 O   0  0  0  0  0  0  0  0  0  0  0  0
    6.3920    1.4060    0.2160 O   0  0  0  0  0  0  0  0  0  0  0  0
    7.4730    1.3860    1.1340 C   0  0  0  0  0  0  0  0  0  0  0  0
    3.0430   -0.1520    0.4550 C   0  0  0  0  0  0  0  0  0  0  0  0
    3.6650   -1.3830    0.8760 C   0  0  0  0  0  0  0  0  0  0  0  0
    3.3320   -2.3910   -0.1700 N   0  0  0  0  0  0  0  0  0  0  0  0
    4.2580   -1.6010    1.7830 O   0  0  0  0  0  0  0  0  0  0  0  0
    1.7940   -0.1270    0.8800 C   0  0  0  0  0  0  0  0  0  0  0  0
    1.2680   -1.2720    1.5040 N   0  0  0  0  0  0  0  0  0  0  0  0
   -1.7130    0.4330    1.5670 S   0  0  0  0  0  0  0  0  0  0  0  0
  1  2  1  0
  2  3  1  0
  3  4  1  0
  4  5  1  6
  4  6  1  0
  6  7  1  1
  6 11  1  0
  6 30  1  0
  7  8  2  0
  7  9  1  0
  9 10  1  0
 11 12  1  0
 12 13  2  0
 13 14  1  0
 13 30  1  0
 14 15  1  0
 14 28  1  0
 15 16  1  0
 16 17  2  0
 16 18  1  0
 18 19  1  0
 18 24  1  0
 19 20  1  0
 20 21  2  0
 20 22  1  0
 22 23  1  0
 24 25  1  0
 24 28  2  0
 25 26  1  0
 25 27  2  0
 28 29  1  0
M  CHG  1   5   1
M  END
