
     RDKit          3D

 24 27  0  0  0  0  0  0  0  0999 V2000
   -6.0250   -0.4120    2.4240 C   0  0  0  0  0  0  0  0  0  0  0  0
   -5.0930   -0.1460    1.2710 C   0  0  0  0  0  0  0  0  0  0  0  0
   -3.7540   -0.0050    1.5320 C   0  0  0  0  0  0  0  0  0  0  0  0
   -2.9070    0.2390    0.4540 C   0  0  0  0  0  0  0  0  0  0  0  0
   -1.5470    0.3960    0.6130 C   0  0  0  0  0  0  0  0  0  0  0  0
   -0.7230    0.6400   -0.4820 C   0  0  0  0  0  0  0  0  0  0  0  0
    0.7320    0.8100   -0.2960 C   0  0  0  0  0  0  0  0  0  0  0  0
    1.4490   -0.4290   -0.7240 C   0  0  0  0  0  0  0  0  0  0  0  0
    2.9200   -0.1760   -0.5120 C   0  0  0  0  0  0  0  0  0  0  0  0
    3.4910    0.9460   -0.0410 N   0  0  0  0  0  0  0  0  0  0  0  0
    4.8310    0.8180    0.0140 C   0  0  0  0  0  0  0  0  0  0  0  0
    5.8350    1.6390    0.4030 N   0  0  0  0  0  0  0  0  0  0  0  0
    7.1260    1.2850    0.3680 C   0  0  0  0  0  0  0  0  0  0  0  0
    7.4320    0.0210   -0.0880 C   0  0  0  0  0  0  0  0  0  0  0  0
    6.4010   -0.8060   -0.4800 C   0  0  0  0  0  0  0  0  0  0  0  0
    5.1010   -0.4280   -0.4370 N   0  0  0  0  0  0  0  0  0  0  0  0
    3.9450   -1.0140   -0.7500 N   0  0  0  0  0  0  0  0  0  0  0  0
   -1.2660    0.7270   -1.7360 C   0  0  0  0  0  0  0  0  0  0  0  0
   -0.5650    0.9480   -2.7760 O   0  0  0  0  0  0  0  0  0  0  0  0
   -2.5950    0.5700   -1.8600 N   0  0  0  0  0  0  0  0  0  0  0  0
   -3.4280    0.3320   -0.8250 C   0  0  0  0  0  0  0  0  0  0  0  0
   -4.7860    0.1850   -1.0520 C   0  0  0  0  0  0  0  0  0  0  0  0
   -5.6150   -0.0550    0.0050 C   0  0  0  0  0  0  0  0  0  0  0  0
   -6.9570   -0.2020   -0.2010 F   0  0  0  0  0  0  0  0  0  0  0  0
  1  2  1  0
  2  3  2  0
  2 23  1  0
  3  4  1  0
  4  5  1  0
  4 21  2  0
  5  6  2  0
  6  7  1  0
  6 18  1  0
  7  8  1  0
  8  9  1  0
  9 10  1  0
  9 17  2  0
 10 11  2  0
 11 12  1  0
 11 16  1  0
 12 13  2  0
 13 14  1  0
 14 15  2  0
 15 16  1  0
 16 17  1  0
 18 19  2  0
 18 20  1  0
 20 21  1  0
 21 22  1  0
 22 23  2  0
 23 24  1  0
M  END
