
     RDKit          3D

 23 26  0  0  0  0  0  0  0  0999 V2000
    1.3990    0.1600   -1.3170 O   0  0  0  0  0  0  0  0  0  0  0  0
    1.8640    0.1400   -0.1670 C   0  0  0  0  0  0  0  0  0  0  0  0
    0.9500    0.1200    1.0310 C   0  0  0  0  0  0  0  0  0  0  0  0
   -0.4460    0.1290    0.5690 C   0  0  0  0  0  0  0  0  0  0  0  0
   -1.1400   -1.0110    0.3160 N   0  0  0  0  0  0  0  0  0  0  0  0
   -2.3770   -0.6950   -0.0870 C   0  0  0  0  0  0  0  0  0  0  0  0
   -2.4680    0.6410   -0.0880 N   0  0  0  0  0  0  0  0  0  0  0  0
   -1.2980    1.1150    0.3080 N   0  0  0  0  0  0  0  0  0  0  0  0
   -3.4440    1.6640   -0.3900 C   0  0  0  0  0  0  0  0  0  0  0  0
   -4.7380    1.1100   -0.9010 C   0  0  0  0  0  0  0  0  0  0  0  0
   -5.6110    0.5380    0.1710 C   0  0  0  0  0  0  0  0  0  0  0  0
   -4.9080   -0.5150    0.9980 C   0  0  0  0  0  0  0  0  0  0  0  0
   -4.6580   -1.6980    0.1220 C   0  0  0  0  0  0  0  0  0  0  0  0
   -3.2600   -1.8150   -0.4030 C   0  0  0  0  0  0  0  0  0  0  0  0
    3.2990    0.1340    0.0330 C   0  0  0  0  0  0  0  0  0  0  0  0
    3.9850    0.1130    1.2380 C   0  0  0  0  0  0  0  0  0  0  0  0
    5.3390    0.1160    0.9800 C   0  0  0  0  0  0  0  0  0  0  0  0
    6.4390    0.1020    1.7600 N   0  0  0  0  0  0  0  0  0  0  0  0
    7.6760    0.1090    1.2660 C   0  0  0  0  0  0  0  0  0  0  0  0
    7.8360    0.1310   -0.0900 C   0  0  0  0  0  0  0  0  0  0  0  0
    6.7470    0.1460   -0.9120 C   0  0  0  0  0  0  0  0  0  0  0  0
    5.4650    0.1390   -0.3900 C   0  0  0  0  0  0  0  0  0  0  0  0
    4.2400    0.1490   -0.9180 N   0  0  0  0  0  0  0  0  0  0  0  0
  1  2  2  0
  2  3  1  0
  2 15  1  0
  3  4  1  0
  4  5  1  0
  4  8  2  0
  5  6  2  0
  6  7  1  0
  6 14  1  0
  7  8  1  0
  7  9  1  0
  9 10  1  0
 10 11  1  0
 11 12  1  0
 12 13  1  0
 13 14  1  0
 15 16  2  0
 15 23  1  0
 16 17  1  0
 17 18  2  0
 17 22  1  0
 18 19  1  0
 19 20  2  0
 20 21  1  0
 21 22  2  0
 22 23  1  0
M  END
