
     RDKit          3D

 16 16  0  0  0  0  0  0  0  0999 V2000
   -3.2650   -1.6120   -0.8670 N   0  0  0  0  0  0  0  0  0  0  0  0
   -1.9400   -1.0040   -0.8230 C   0  0  0  0  0  0  0  0  0  0  0  0
   -2.0680    0.2950   -0.0880 C   0  0  2  0  0  0  0  0  0  0  0  0
   -2.5300    0.1320    1.2010 O   0  0  0  0  0  0  0  0  0  0  0  0
   -3.0600    1.1740   -0.8220 C   0  0  0  0  0  0  0  0  0  0  0  0
   -2.7020    2.4710   -0.3790 O   0  0  0  0  0  0  0  0  0  0  0  0
   -1.3670    2.5030   -0.0170 C   0  0  0  0  0  0  0  0  0  0  0  0
   -0.7550    3.5230    0.3640 O   0  0  0  0  0  0  0  0  0  0  0  0
   -0.8120    1.1370   -0.1630 C   0  0  1  0  0  0  0  0  0  0  0  0
    0.1430    0.8080    0.8440 N   0  0  0  0  0  0  0  0  0  0  0  0
    1.4520    0.4140    0.4480 C   0  0  0  0  0  0  0  0  0  0  0  0
    1.7470    0.3640   -0.7930 O   0  0  0  0  0  0  0  0  0  0  0  0
    2.4450    0.0770    1.3370 O   0  0  0  0  0  0  0  0  0  0  0  0
    3.7270   -0.3100    0.9600 C   0  0  0  0  0  0  0  0  0  0  0  0
    3.7580   -1.5450    0.1020 C   0  0  0  0  0  0  0  0  0  0  0  0
    5.0570   -1.9010   -0.2550 O   0  0  0  0  0  0  0  0  0  0  0  0
  1  2  1  0
  2  3  1  0
  3  4  1  1
  3  5  1  0
  3  9  1  0
  5  6  1  0
  6  7  1  0
  7  8  2  0
  7  9  1  0
  9 10  1  1
 10 11  1  0
 11 12  2  0
 11 13  1  0
 13 14  1  0
 14 15  1  0
 15 16  1  0
M  END
