
     RDKit          3D

 24 27  0  0  0  0  0  0  0  0999 V2000
    1.9120    0.0320   -0.3700 O   0  0  0  0  0  0  0  0  0  0  0  0
    2.2220   -0.9900    0.2670 C   0  0  0  0  0  0  0  0  0  0  0  0
    1.1150   -1.9270    0.6700 C   0  0  0  0  0  0  0  0  0  0  0  0
   -0.1840   -1.4290    0.2110 C   0  0  0  0  0  0  0  0  0  0  0  0
   -1.0320   -0.5830    0.9330 C   0  0  0  0  0  0  0  0  0  0  0  0
   -2.1280   -0.3920    0.0960 C   0  0  0  0  0  0  0  0  0  0  0  0
   -3.2900    0.3580    0.2830 C   0  0  0  0  0  0  0  0  0  0  0  0
   -3.4710    1.0600    1.4580 C   0  0  0  0  0  0  0  0  0  0  0  0
   -4.6360    1.8070    1.6330 C   0  0  0  0  0  0  0  0  0  0  0  0
   -4.8390    2.5060    2.7800 F   0  0  0  0  0  0  0  0  0  0  0  0
   -5.5640    1.8110    0.6160 C   0  0  0  0  0  0  0  0  0  0  0  0
   -5.3620    1.1040   -0.5470 C   0  0  0  0  0  0  0  0  0  0  0  0
   -4.2120    0.3550   -0.7420 C   0  0  0  0  0  0  0  0  0  0  0  0
   -3.9810   -0.3640   -1.8960 C   0  0  0  0  0  0  0  0  0  0  0  0
   -2.8250   -1.0860   -2.0350 C   0  0  0  0  0  0  0  0  0  0  0  0
   -1.9160   -1.0860   -1.0300 N   0  0  0  0  0  0  0  0  0  0  0  0
   -0.7360   -1.7190   -0.9650 N   0  0  0  0  0  0  0  0  0  0  0  0
    3.5630   -1.2470    0.5900 N   0  0  0  0  0  0  0  0  0  0  0  0
    4.6900   -0.4560    0.2750 C   0  0  0  0  0  0  0  0  0  0  0  0
    4.6920    0.7250   -0.4140 C   0  0  0  0  0  0  0  0  0  0  0  0
    5.8330    1.4260   -0.6750 C   0  0  0  0  0  0  0  0  0  0  0  0
    7.0430    0.9520   -0.2420 C   0  0  0  0  0  0  0  0  0  0  0  0
    7.0290   -0.2050    0.4310 N   0  0  0  0  0  0  0  0  0  0  0  0
    5.9310   -0.8800    0.6830 N   0  0  0  0  0  0  0  0  0  0  0  0
  1  2  2  0
  2  3  1  0
  2 18  1  0
  3  4  1  0
  4  5  1  0
  4 17  2  0
  5  6  2  0
  6  7  1  0
  6 16  1  0
  7  8  2  0
  7 13  1  0
  8  9  1  0
  9 10  1  0
  9 11  2  0
 11 12  1  0
 12 13  2  0
 13 14  1  0
 14 15  2  0
 15 16  1  0
 16 17  1  0
 18 19  1  0
 19 20  2  0
 19 24  1  0
 20 21  1  0
 21 22  2  0
 22 23  1  0
 23 24  2  0
M  END
