
     RDKit          3D

 16 16  0  0  0  0  0  0  0  0999 V2000
   -3.8020    0.8140   -0.1860 N   0  0  0  0  0  0  0  0  0  0  0  0
   -2.8920   -0.0040    0.5480 C   0  0  0  0  0  0  0  0  0  0  0  0
   -3.2890   -0.8590    1.3620 O   0  0  0  0  0  0  0  0  0  0  0  0
   -1.4370    0.1820    0.3250 C   0  0  1  0  0  0  0  0  0  0  0  0
   -0.6860   -0.7780    1.1990 C   0  0  2  0  0  0  0  0  0  0  0  0
   -1.0460   -0.7210    2.5190 O   0  0  0  0  0  0  0  0  0  0  0  0
    0.7600   -0.5430    0.9730 C   0  0  0  0  0  0  0  0  0  0  0  0
    1.6300   -0.4180    1.8620 O   0  0  0  0  0  0  0  0  0  0  0  0
    1.1640   -0.4560   -0.3860 N   0  0  0  0  0  0  0  0  0  0  0  0
    2.4620   -0.0380   -0.7310 C   0  0  0  0  0  0  0  0  0  0  0  0
    2.7470    0.0140   -1.9610 O   0  0  0  0  0  0  0  0  0  0  0  0
    3.5040    0.3390    0.2270 C   0  0  0  0  0  0  0  0  0  0  0  0
    4.6860    0.7090   -0.3900 O   0  0  0  0  0  0  0  0  0  0  0  0
    0.1550   -0.8230   -1.3630 C   0  0  0  0  0  0  0  0  0  0  0  0
   -1.0570    0.0220   -1.1130 C   0  0  2  0  0  0  0  0  0  0  0  0
   -0.8140    1.2720   -1.7280 O   0  0  0  0  0  0  0  0  0  0  0  0
  1  2  1  0
  2  3  2  0
  4  2  1  6
  4  5  1  0
  4 15  1  0
  5  6  1  1
  5  7  1  0
  7  8  2  0
  7  9  1  0
  9 10  1  0
  9 14  1  0
 10 11  2  0
 10 12  1  0
 12 13  1  0
 14 15  1  0
 15 16  1  1
M  END
