
     RDKit          3D

 16 16  0  0  0  0  0  0  0  0999 V2000
   -3.8900    1.0140   -0.9530 C   0  0  0  0  0  0  0  0  0  0  0  0
   -2.9610    0.0850   -0.2610 C   0  0  1  0  0  0  0  0  0  0  0  0
   -2.7130   -1.0540   -1.1000 O   0  0  0  0  0  0  0  0  0  0  0  0
   -1.3730   -1.3780   -1.0660 C   0  0  0  0  0  0  0  0  0  0  0  0
   -0.8070   -2.1990   -1.8140 O   0  0  0  0  0  0  0  0  0  0  0  0
   -0.7620   -0.5870   -0.0040 C   0  0  1  0  0  0  0  0  0  0  0  0
    0.5810   -0.4230   -0.0780 O   0  0  0  0  0  0  0  0  0  0  0  0
    1.1680   -0.9180    1.0810 C   0  0  0  0  0  0  0  0  0  0  0  0
    2.6540   -0.7600    1.0480 C   0  0  0  0  0  0  0  0  0  0  0  0
    3.3410   -1.1580    2.0230 O   0  0  0  0  0  0  0  0  0  0  0  0
    3.3250   -0.1710   -0.0530 N   0  0  0  0  0  0  0  0  0  0  0  0
    4.7400   -0.0590   -0.0020 C   0  0  0  0  0  0  0  0  0  0  0  0
    5.4200   -0.4690    0.9960 O   0  0  0  0  0  0  0  0  0  0  0  0
    5.4580    0.5060   -1.0440 O   0  0  0  0  0  0  0  0  0  0  0  0
   -1.5660    0.6900   -0.0560 C   0  0  2  0  0  0  0  0  0  0  0  0
   -1.4580    1.3210    1.2460 N   0  0  0  0  0  0  0  0  0  0  0  0
  2  1  1  6
  2  3  1  0
  2 15  1  0
  3  4  1  0
  4  5  2  0
  4  6  1  0
  6  7  1  6
  6 15  1  0
  7  8  1  0
  8  9  1  0
  9 10  2  0
  9 11  1  0
 11 12  1  0
 12 13  2  0
 12 14  1  0
 15 16  1  1
M  END
