
     RDKit          3D

 16 16  0  0  0  0  0  0  0  0999 V2000
    0.0700    3.4970   -1.8880 O   0  0  0  0  0  0  0  0  0  0  0  0
    0.0910    2.5660   -1.0330 C   0  0  0  0  0  0  0  0  0  0  0  0
   -1.0300    2.5290   -0.1560 N   0  0  0  0  0  0  0  0  0  0  0  0
   -1.5110    1.3060    0.4500 C   0  0  0  0  0  0  0  0  0  0  0  0
   -2.0060    0.4000   -0.5830 N   0  0  0  0  0  0  0  0  0  0  0  0
   -2.1320   -0.9840   -0.2990 C   0  0  0  0  0  0  0  0  0  0  0  0
   -2.9980   -1.6330   -0.9360 O   0  0  0  0  0  0  0  0  0  0  0  0
   -1.3040   -1.7010    0.7010 C   0  0  1  0  0  0  0  0  0  0  0  0
   -2.0060   -2.8390    1.1310 O   0  0  0  0  0  0  0  0  0  0  0  0
   -0.0460   -2.1810   -0.0300 C   0  0  0  0  0  0  0  0  0  0  0  0
    0.2740   -1.2180   -0.9540 O   0  0  0  0  0  0  0  0  0  0  0  0
    1.5920   -0.8080   -0.9230 C   0  0  0  0  0  0  0  0  0  0  0  0
    1.9410   -0.1760    0.4100 C   0  0  1  0  0  0  0  0  0  0  0  0
    3.2480   -0.5690    0.7230 O   0  0  0  0  0  0  0  0  0  0  0  0
    1.8260    1.3240    0.2400 C   0  0  0  0  0  0  0  0  0  0  0  0
    1.0720    1.6310   -0.8960 O   0  0  0  0  0  0  0  0  0  0  0  0
  1  2  2  0
  2  3  1  0
  2 16  1  0
  3  4  1  0
  4  5  1  0
  5  6  1  0
  6  7  2  0
  6  8  1  0
  8  9  1  6
  8 10  1  0
 10 11  1  0
 11 12  1  0
 12 13  1  0
 13 14  1  6
 13 15  1  0
 15 16  1  0
M  END
