
     RDKit          3D

 11 11  0  0  0  0  0  0  0  0999 V2000
   -1.0340    1.7010   -0.4570 C   0  0  0  0  0  0  0  0  0  0  0  0
   -0.0520    0.6430   -0.1060 C   0  0  0  0  0  0  0  0  0  0  0  0
   -0.5120   -0.5100    0.3030 C   0  0  0  0  0  0  0  0  0  0  0  0
   -1.9410   -0.7650    0.4160 C   0  0  0  0  0  0  0  0  0  0  0  0
   -2.7900    0.0780    0.1370 O   0  0  0  0  0  0  0  0  0  0  0  0
   -2.4180   -2.0150    0.8590 O   0  0  0  0  0  0  0  0  0  0  0  0
    0.4270   -1.5030    0.6320 O   0  0  0  0  0  0  0  0  0  0  0  0
    1.7960   -1.3220    0.5460 C   0  0  0  0  0  0  0  0  0  0  0  0
    2.6410   -2.0250    1.1580 O   0  0  0  0  0  0  0  0  0  0  0  0
    2.2860   -0.2240   -0.3290 C   0  0  0  0  0  0  0  0  0  0  0  0
    1.3670    0.9020   -0.2200 N   0  0  0  0  0  0  0  0  0  0  0  0
  1  2  1  0
  2  3  2  0
  2 11  1  0
  3  4  1  0
  3  7  1  0
  4  5  2  0
  4  6  1  0
  7  8  1  0
  8  9  2  0
  8 10  1  0
 10 11  1  0
M  END
