
     RDKit          3D

 11 11  0  0  0  0  0  0  0  0999 V2000
    2.2060    0.7580   -1.3130 O   0  0  0  0  0  0  0  0  0  0  0  0
    2.5980    0.2520   -0.2290 C   0  0  0  0  0  0  0  0  0  0  0  0
    3.9510    0.3050    0.0630 O   0  0  0  0  0  0  0  0  0  0  0  0
    1.6230   -0.3300    0.6050 N   0  0  0  0  0  0  0  0  0  0  0  0
    0.2370   -0.3690    0.2770 C   0  0  0  0  0  0  0  0  0  0  0  0
   -0.6640    0.2060    1.0570 C   0  0  0  0  0  0  0  0  0  0  0  0
   -2.1160    0.1880    0.7520 C   0  0  0  0  0  0  0  0  0  0  0  0
   -2.3250    0.1160   -0.7440 C   0  0  0  0  0  0  0  0  0  0  0  0
   -1.6200   -1.0490   -1.2020 O   0  0  0  0  0  0  0  0  0  0  0  0
   -0.2470   -1.0440   -0.9330 C   0  0  0  0  0  0  0  0  0  0  0  0
    0.6060   -1.5840   -1.6650 O   0  0  0  0  0  0  0  0  0  0  0  0
  1  2  2  0
  2  3  1  0
  2  4  1  0
  4  5  1  0
  5  6  2  0
  5 10  1  0
  6  7  1  0
  7  8  1  0
  8  9  1  0
  9 10  1  0
 10 11  2  0
M  END
