
     RDKit          3D

 11 11  0  0  0  0  0  0  0  0999 V2000
   -0.9370    2.1260    0.4640 N   0  0  0  0  0  0  0  0  0  0  0  0
   -1.0480    0.7660    0.0470 C   0  0  0  0  0  0  0  0  0  0  0  0
    0.0900    0.0470   -0.0220 C   0  0  0  0  0  0  0  0  0  0  0  0
    1.3500    0.6410    0.3150 C   0  0  0  0  0  0  0  0  0  0  0  0
    2.5460    0.1460    0.3200 C   0  0  0  0  0  0  0  0  0  0  0  0
    2.9910   -1.1140    0.0040 O   0  0  0  0  0  0  0  0  0  0  0  0
   -0.0800   -1.3160   -0.4470 C   0  0  0  0  0  0  0  0  0  0  0  0
    0.8690   -2.1000   -0.5590 O   0  0  0  0  0  0  0  0  0  0  0  0
   -1.3610   -1.8420   -0.7660 O   0  0  0  0  0  0  0  0  0  0  0  0
   -2.5100   -1.1610   -0.3460 C   0  0  0  0  0  0  0  0  0  0  0  0
   -2.2930    0.2400   -0.2670 O   0  0  0  0  0  0  0  0  0  0  0  0
  1  2  1  0
  2  3  2  0
  2 11  1  0
  3  4  1  0
  3  7  1  0
  4  5  2  3
  5  6  1  0
  7  8  2  0
  7  9  1  0
  9 10  1  0
 10 11  1  0
M  END
