
     RDKit          3D

 11 11  0  0  0  0  0  0  0  0999 V2000
   -0.1470    2.2910   -0.9730 O   0  0  0  0  0  0  0  0  0  0  0  0
   -0.6490    1.2640   -0.4720 C   0  0  0  0  0  0  0  0  0  0  0  0
   -2.0600    1.2240   -0.3800 O   0  0  0  0  0  0  0  0  0  0  0  0
   -2.7840    0.2290    0.3660 C   0  0  0  0  0  0  0  0  0  0  0  0
   -2.2500   -1.1000   -0.0950 C   0  0  0  0  0  0  0  0  0  0  0  0
   -1.2070   -1.5910    0.6890 O   0  0  0  0  0  0  0  0  0  0  0  0
   -0.0130   -1.0810    0.2600 N   0  0  0  0  0  0  0  0  0  0  0  0
    0.3270    0.2600   -0.0610 C   0  0  0  0  0  0  0  0  0  0  0  0
    1.5740    0.6680   -0.0010 C   0  0  0  0  0  0  0  0  0  0  0  0
    2.7570   -0.1020    0.3750 C   0  0  0  0  0  0  0  0  0  0  0  0
    3.6430   -0.0940   -0.7280 O   0  0  0  0  0  0  0  0  0  0  0  0
  1  2  2  0
  2  3  1  0
  2  8  1  0
  3  4  1  0
  4  5  1  0
  5  6  1  0
  6  7  1  0
  7  8  1  0
  8  9  2  3
  9 10  1  0
 10 11  1  0
M  END
