
     RDKit          3D

 11 11  0  0  0  0  0  0  0  0999 V2000
   -0.6220    2.3160   -0.1160 C   0  0  0  0  0  0  0  0  0  0  0  0
   -0.9650    0.8990    0.1620 C   0  0  0  0  0  0  0  0  0  0  0  0
   -0.0860   -0.1210    0.1170 C   0  0  0  0  0  0  0  0  0  0  0  0
    1.2700    0.0430   -0.2010 N   0  0  0  0  0  0  0  0  0  0  0  0
    2.1820   -1.0200   -0.2510 C   0  0  0  0  0  0  0  0  0  0  0  0
    1.8240   -2.1850   -0.0130 O   0  0  0  0  0  0  0  0  0  0  0  0
    3.5460   -0.8100   -0.5750 O   0  0  0  0  0  0  0  0  0  0  0  0
   -0.8720   -1.2810    0.4670 C   0  0  0  0  0  0  0  0  0  0  0  0
   -0.4820   -2.3680    0.8840 O   0  0  0  0  0  0  0  0  0  0  0  0
   -2.3040   -0.9320    0.2330 C   0  0  0  0  0  0  0  0  0  0  0  0
   -2.2290    0.4790    0.4960 O   0  0  0  0  0  0  0  0  0  0  0  0
  1  2  1  0
  2  3  2  0
  2 11  1  0
  3  4  1  0
  3  8  1  0
  4  5  1  0
  5  6  2  0
  5  7  1  0
  8  9  2  0
  8 10  1  0
 10 11  1  0
M  END
