
     RDKit          3D

 35 38  0  0  0  0  0  0  0  0999 V2000
    0.9780    4.5090   -1.0750 C   0  0  0  0  0  0  0  0  0  0  0  0
   -0.4970    4.3550   -0.9760 N   0  0  2  0  0  0  0  0  0  0  0  0
   -1.0450    5.5140   -0.4170 C   0  0  0  0  0  0  0  0  0  0  0  0
   -0.7100    3.2140   -0.0700 C   0  0  0  0  0  0  0  0  0  0  0  0
   -0.3240    1.9730   -0.8320 C   0  0  0  0  0  0  0  0  0  0  0  0
   -0.0680    0.7630    0.1160 C   0  0  2  0  0  0  0  0  0  0  0  0
    0.7170   -0.1750   -0.8790 C   0  0  0  0  0  0  0  0  0  0  0  0
    0.6820   -0.2630   -2.0050 O   0  0  0  0  0  0  0  0  0  0  0  0
    1.7680   -1.0410    0.1490 N   0  0  0  0  0  0  0  0  0  0  0  0
    2.6860   -1.5490   -1.1060 C   0  0  0  0  0  0  0  0  0  0  0  0
    2.5000   -1.5070   -1.8870 O   0  0  0  0  0  0  0  0  0  0  0  0
    3.8130   -1.8460   -0.0170 N   0  0  0  0  0  0  0  0  0  0  0  0
    5.1330   -1.9030   -0.1900 C   0  0  0  0  0  0  0  0  0  0  0  0
    6.0140   -2.7680   -0.6830 C   0  0  0  0  0  0  0  0  0  0  0  0
    7.3580   -2.6780   -0.5480 C   0  0  0  0  0  0  0  0  0  0  0  0
    8.2260   -3.6310   -1.0730 F   0  0  0  0  0  0  0  0  0  0  0  0
    7.9220   -1.6150    0.1270 C   0  0  0  0  0  0  0  0  0  0  0  0
    7.0990   -0.6300    0.6550 C   0  0  0  0  0  0  0  0  0  0  0  0
    5.7380   -0.7340    0.5230 C   0  0  0  0  0  0  0  0  0  0  0  0
    4.7160    0.5070    1.1060 Cl  0  0  0  0  0  0  0  0  0  0  0  0
   -1.1400    0.0820    0.5800 N   0  0  0  0  0  0  0  0  0  0  0  0
   -1.6090   -1.0350   -0.0920 N   0  0  0  0  0  0  0  0  0  0  0  0
   -2.6560   -1.6890   -0.0770 C   0  0  0  0  0  0  0  0  0  0  0  0
   -3.1010   -2.8860   -0.7940 C   0  0  1  0  0  0  0  0  0  0  0  0
   -3.3520   -4.2730   -0.3350 C   0  0  0  0  0  0  0  0  0  0  0  0
   -4.0250   -3.5670   -1.5300 C   0  0  0  0  0  0  0  0  0  0  0  0
   -3.6190   -1.2320    0.8420 C   0  0  0  0  0  0  0  0  0  0  0  0
   -4.8350   -1.8120    0.9280 C   0  0  0  0  0  0  0  0  0  0  0  0
   -5.8810   -1.3070    1.7890 C   0  0  0  0  0  0  0  0  0  0  0  0
   -5.5440   -0.1540    2.4960 C   0  0  0  0  0  0  0  0  0  0  0  0
   -6.5530    0.3520    3.2900 F   0  0  0  0  0  0  0  0  0  0  0  0
   -4.3220    0.4310    2.4150 C   0  0  0  0  0  0  0  0  0  0  0  0
   -3.2870   -0.0810    1.6190 C   0  0  0  0  0  0  0  0  0  0  0  0
   -2.1240    0.4650    1.4700 C   0  0  0  0  0  0  0  0  0  0  0  0
   -1.7520    1.5440    2.1380 O   0  0  0  0  0  0  0  0  0  0  0  0
  2  1  1  1
  2  3  1  0
  2  4  1  0
  4  5  1  0
  6  5  1  6
  6  7  1  0
  6 21  1  0
  7  8  2  0
  7  9  1  0
  9 10  1  0
 10 11  2  0
 10 12  1  0
 12 13  1  0
 13 14  2  0
 13 19  1  0
 14 15  1  0
 15 16  1  0
 15 17  2  0
 17 18  1  0
 18 19  2  0
 19 20  1  0
 21 22  1  0
 21 34  1  0
 22 23  2  0
 24 23  1  1
 23 27  1  0
 24 25  1  0
 24 26  1  0
 25 26  1  0
 27 28  2  0
 27 33  1  0
 28 29  1  0
 29 30  2  0
 30 31  1  0
 30 32  1  0
 32 33  2  0
 33 34  1  0
 34 35  2  0
M  CHG  1   2   1
M  END
