
     RDKit          3D

 36 39  0  0  0  0  0  0  0  0999 V2000
    1.0600   -2.9110   -1.1460 C   0  0  0  0  0  0  0  0  0  0  0  0
    0.8370   -1.4300   -1.1210 C   0  0  1  0  0  0  0  0  0  0  0  0
   -0.3750   -0.9600   -0.5850 N   0  0  0  0  0  0  0  0  0  0  0  0
   -1.1710   -1.6880    0.3040 C   0  0  2  0  0  0  0  0  0  0  0  0
   -2.2680   -0.7420    0.8300 C   0  0  0  0  0  0  0  0  0  0  0  0
   -3.1330   -0.1730   -0.2260 C   0  0  0  0  0  0  0  0  0  0  0  0
   -4.1380    0.6940    0.4120 N   0  0  0  0  0  0  0  0  0  0  0  0
   -4.1550    0.7740    1.7930 N   0  0  0  0  0  0  0  0  0  0  0  0
   -5.0040    1.4940    2.4550 C   0  0  0  0  0  0  0  0  0  0  0  0
   -5.0030    1.5590    3.8090 F   0  0  0  0  0  0  0  0  0  0  0  0
   -5.9730    2.2410    1.6900 C   0  0  0  0  0  0  0  0  0  0  0  0
   -6.0400    2.2320    0.3550 C   0  0  0  0  0  0  0  0  0  0  0  0
   -6.9890    2.9690   -0.2740 F   0  0  0  0  0  0  0  0  0  0  0  0
   -5.0900    1.4280   -0.3780 C   0  0  0  0  0  0  0  0  0  0  0  0
   -5.0160    1.3170   -1.6770 C   0  0  0  0  0  0  0  0  0  0  0  0
   -5.8930    1.9850   -2.6400 C   0  0  0  0  0  0  0  0  0  0  0  0
   -6.5870    1.0680   -3.4300 F   0  0  0  0  0  0  0  0  0  0  0  0
   -0.5440   -2.3290    1.4720 C   0  0  0  0  0  0  0  0  0  0  0  0
   -0.9830   -3.7730    1.5410 C   0  0  0  0  0  0  0  0  0  0  0  0
   -1.8330   -3.9890    0.4080 N   0  0  0  0  0  0  0  0  0  0  0  0
   -1.8820   -2.7980   -0.3630 C   0  0  0  0  0  0  0  0  0  0  0  0
   -2.4970   -2.8080   -1.4850 O   0  0  0  0  0  0  0  0  0  0  0  0
    2.0280   -0.6510   -0.7660 C   0  0  0  0  0  0  0  0  0  0  0  0
    3.1910   -1.2500   -0.3840 C   0  0  0  0  0  0  0  0  0  0  0  0
    4.3240   -0.5120   -0.0560 C   0  0  0  0  0  0  0  0  0  0  0  0
    4.3110    0.8630   -0.1050 C   0  0  0  0  0  0  0  0  0  0  0  0
    5.4740    1.6390    0.2220 N   0  0  0  0  0  0  0  0  0  0  0  0
    6.2480    1.4830    1.3970 C   0  0  0  0  0  0  0  0  0  0  0  0
    5.8570    0.9860    2.4850 O   0  0  0  0  0  0  0  0  0  0  0  0
    7.6350    2.0180    1.1190 C   0  0  0  0  0  0  0  0  0  0  0  0
    7.3120    3.1750    0.1980 C   0  0  0  0  0  0  0  0  0  0  0  0
    6.0840    2.6910   -0.5170 C   0  0  0  0  0  0  0  0  0  0  0  0
    5.6940    3.1720   -1.6000 O   0  0  0  0  0  0  0  0  0  0  0  0
    3.1370    1.4770   -0.4900 C   0  0  0  0  0  0  0  0  0  0  0  0
    3.0360    3.2130   -0.5760 Cl  0  0  0  0  0  0  0  0  0  0  0  0
    2.0220    0.7230   -0.8120 C   0  0  0  0  0  0  0  0  0  0  0  0
  2  1  1  1
  2  3  1  0
  2 23  1  0
  3  4  1  0
  4  5  1  1
  4 18  1  0
  4 21  1  0
  5  6  1  0
  6  7  1  0
  7  8  1  0
  7 14  1  0
  8  9  2  0
  9 10  1  0
  9 11  1  0
 11 12  2  0
 12 13  1  0
 12 14  1  0
 14 15  2  3
 15 16  1  0
 16 17  1  0
 18 19  1  0
 19 20  1  0
 20 21  1  0
 21 22  2  0
 23 24  2  0
 23 36  1  0
 24 25  1  0
 25 26  2  0
 26 27  1  0
 26 34  1  0
 27 28  1  0
 27 32  1  0
 28 29  2  0
 28 30  1  0
 30 31  1  0
 31 32  1  0
 32 33  2  0
 34 35  1  0
 34 36  2  0
M  CHG  1   3   1
M  END
