
     RDKit          3D

 36 39  0  0  0  0  0  0  0  0999 V2000
   -4.9110   -4.2120   -1.8060 C   0  0  0  0  0  0  0  0  0  0  0  0
   -3.7300   -4.0610   -0.9950 N   0  0  0  0  0  0  0  0  0  0  0  0
   -3.2920   -5.1840   -0.2000 C   0  0  0  0  0  0  0  0  0  0  0  0
   -3.0050   -2.8560   -0.9700 C   0  0  0  0  0  0  0  0  0  0  0  0
   -1.9150   -2.7510   -0.1350 C   0  0  0  0  0  0  0  0  0  0  0  0
   -1.1830   -1.5710   -0.1020 C   0  0  0  0  0  0  0  0  0  0  0  0
   -1.4910   -0.4820   -0.8710 C   0  0  0  0  0  0  0  0  0  0  0  0
   -0.6940    0.7570   -0.8180 C   0  0  1  0  0  0  0  0  0  0  0  0
   -1.4650    1.9020   -0.2930 C   0  0  0  0  0  0  0  0  0  0  0  0
   -2.0120    1.7570    1.0540 C   0  0  0  0  0  0  0  0  0  0  0  0
   -1.7990    0.7060    1.6980 O   0  0  0  0  0  0  0  0  0  0  0  0
   -2.7830    2.7990    1.6360 N   0  0  0  0  0  0  0  0  0  0  0  0
   -3.4220    2.8200    2.9480 C   0  0  0  0  0  0  0  0  0  0  0  0
   -4.8220    3.2880    2.5350 C   0  0  0  0  0  0  0  0  0  0  0  0
   -4.4490    4.4920    1.6580 C   0  0  0  0  0  0  0  0  0  0  0  0
   -3.1150    4.1000    1.0590 C   0  0  0  0  0  0  0  0  0  0  0  0
    0.5530    0.4640   -0.1280 N   0  0  0  0  0  0  0  0  0  0  0  0
    1.4620    1.4460   -0.6310 C   0  0  1  0  0  0  0  0  0  0  0  0
    2.8010    0.8930   -0.9390 C   0  0  0  0  0  0  0  0  0  0  0  0
    3.6440    1.6840   -1.5230 O   0  0  0  0  0  0  0  0  0  0  0  0
    3.2760   -0.3970   -0.6720 N   0  0  0  0  0  0  0  0  0  0  0  0
    4.6020   -0.7690   -1.0440 N   0  0  0  0  0  0  0  0  0  0  0  0
    5.5280   -0.6200   -0.1930 C   0  0  0  0  0  0  0  0  0  0  0  0
    5.3640   -0.0830    1.1790 C   0  0  0  0  0  0  0  0  0  0  0  0
    6.5600   -0.5960    1.9110 C   0  0  0  0  0  0  0  0  0  0  0  0
    7.5300   -0.9220    0.8520 C   0  0  0  0  0  0  0  0  0  0  0  0
    8.8420   -1.1750    1.0680 F   0  0  0  0  0  0  0  0  0  0  0  0
    6.9530   -0.9370   -0.3360 C   0  0  0  0  0  0  0  0  0  0  0  0
    7.6390   -1.2410   -1.6330 C   0  0  1  0  0  0  0  0  0  0  0  0
    7.5010   -0.2190   -2.5450 F   0  0  0  0  0  0  0  0  0  0  0  0
    8.9880   -1.3640   -1.3790 F   0  0  0  0  0  0  0  0  0  0  0  0
    7.0800   -2.8020   -2.3130 Cl  0  0  0  0  0  0  0  0  0  0  0  0
    0.8610    1.9030   -1.9280 C   0  0  0  0  0  0  0  0  0  0  0  0
   -0.2460    1.1040   -2.1180 O   0  0  0  0  0  0  0  0  0  0  0  0
   -2.5760   -0.5850   -1.7020 C   0  0  0  0  0  0  0  0  0  0  0  0
   -3.3100   -1.7560   -1.7400 C   0  0  0  0  0  0  0  0  0  0  0  0
  1  2  1  0
  2  3  1  0
  2  4  1  0
  4  5  2  0
  4 36  1  0
  5  6  1  0
  6  7  2  0
  7  8  1  0
  7 35  1  0
  8  9  1  1
  8 17  1  0
  8 34  1  0
  9 10  1  0
 10 11  2  0
 10 12  1  0
 12 13  1  0
 12 16  1  0
 13 14  1  0
 14 15  1  0
 15 16  1  0
 17 18  1  0
 18 19  1  6
 18 33  1  0
 19 20  2  0
 19 21  1  0
 21 22  1  0
 22 23  2  3
 23 24  1  0
 23 28  1  0
 24 25  1  0
 25 26  1  0
 26 27  1  0
 26 28  2  0
 28 29  1  0
 29 30  1  6
 29 31  1  0
 29 32  1  0
 33 34  1  0
 35 36  2  0
M  CHG  1  17   1
M  END
