
     RDKit          3D

 36 39  0  0  0  0  0  0  0  0999 V2000
   -2.7620    6.3830    1.1270 C   0  0  0  0  0  0  0  0  0  0  0  0
   -2.6670    5.1290    0.7400 C   0  0  0  0  0  0  0  0  0  0  0  0
   -3.3540    4.7360   -0.5290 C   0  0  0  0  0  0  0  0  0  0  0  0
   -1.9350    4.2090    1.5190 N   0  0  0  0  0  0  0  0  0  0  0  0
   -1.8050    2.8400    1.1380 C   0  0  0  0  0  0  0  0  0  0  0  0
   -2.3880    2.5300    0.0720 O   0  0  0  0  0  0  0  0  0  0  0  0
   -1.0540    1.8770    1.9280 C   0  0  0  0  0  0  0  0  0  0  0  0
   -0.9660    0.4720    1.3790 C   0  0  0  0  0  0  0  0  0  0  0  0
   -0.3430    0.3420    0.1070 N   0  0  2  0  0  0  0  0  0  0  0  0
   -1.0560   -0.3670   -0.8800 C   0  0  0  0  0  0  0  0  0  0  0  0
   -1.6090   -1.6660   -0.6850 C   0  0  0  0  0  0  0  0  0  0  0  0
   -1.5510   -2.4230    0.4310 C   0  0  0  0  0  0  0  0  0  0  0  0
   -2.1170   -3.6770    0.5350 C   0  0  0  0  0  0  0  0  0  0  0  0
   -2.0000   -4.5960    2.0150 Cl  0  0  0  0  0  0  0  0  0  0  0  0
   -2.7870   -4.2320   -0.5280 C   0  0  0  0  0  0  0  0  0  0  0  0
   -3.4140   -5.5800   -0.4670 C   0  0  0  0  0  0  0  0  0  0  0  0
   -2.8640   -3.4830   -1.6860 C   0  0  0  0  0  0  0  0  0  0  0  0
   -2.2960   -2.2340   -1.7780 C   0  0  0  0  0  0  0  0  0  0  0  0
   -2.4090   -1.5430   -2.9560 O   0  0  0  0  0  0  0  0  0  0  0  0
   -3.0650   -2.0060   -4.0980 C   0  0  2  0  0  0  0  0  0  0  0  0
   -3.0050   -1.0810   -5.1200 F   0  0  0  0  0  0  0  0  0  0  0  0
   -4.3880   -2.3130   -3.8900 F   0  0  0  0  0  0  0  0  0  0  0  0
   -2.4410   -3.1600   -4.5690 F   0  0  0  0  0  0  0  0  0  0  0  0
    1.0770    0.0970    0.1180 C   0  0  1  0  0  0  0  0  0  0  0  0
    1.7910    1.3500    0.5530 C   0  0  0  0  0  0  0  0  0  0  0  0
    3.1650    1.2940   -0.1360 C   0  0  0  0  0  0  0  0  0  0  0  0
    3.7660    0.0070    0.3690 C   0  0  0  0  0  0  0  0  0  0  0  0
    5.1180   -0.2840    0.4270 C   0  0  0  0  0  0  0  0  0  0  0  0
    5.1800   -1.5570    0.9520 C   0  0  0  0  0  0  0  0  0  0  0  0
    3.9160   -1.9530    1.1760 N   0  0  0  0  0  0  0  0  0  0  0  0
    3.0550   -1.0120    0.8250 N   0  0  0  0  0  0  0  0  0  0  0  0
    1.5840   -1.0360    0.9030 C   0  0  0  0  0  0  0  0  0  0  0  0
    6.5810   -1.9350    1.0440 C   0  0  0  0  0  0  0  0  0  0  0  0
    7.0530   -3.0140    1.4700 O   0  0  0  0  0  0  0  0  0  0  0  0
    7.3640   -0.8580    0.5610 N   0  0  0  0  0  0  0  0  0  0  0  0
    6.4960    0.2020    0.1610 C   0  0  0  0  0  0  0  0  0  0  0  0
  1  2  2  0
  2  3  1  0
  2  4  1  0
  4  5  1  0
  5  6  2  0
  5  7  1  0
  7  8  1  0
  9  8  1  1
  9 10  1  0
  9 24  1  0
 10 11  1  0
 11 12  2  0
 11 18  1  0
 12 13  1  0
 13 14  1  0
 13 15  2  0
 15 16  1  0
 15 17  1  0
 17 18  2  0
 18 19  1  0
 19 20  1  0
 20 21  1  6
 20 22  1  0
 20 23  1  0
 24 25  1  1
 24 32  1  0
 25 26  1  0
 26 27  1  0
 27 28  2  0
 27 31  1  0
 28 29  1  0
 28 36  1  0
 29 30  2  0
 29 33  1  0
 30 31  1  0
 31 32  1  0
 33 34  2  0
 33 35  1  0
 35 36  1  0
M  CHG  1   9   1
M  END
