
     RDKit          3D

 35 38  0  0  0  0  0  0  0  0999 V2000
    6.6240   -1.2100    2.6050 C   0  0  0  0  0  0  0  0  0  0  0  0
    5.5660   -1.4040    1.5690 C   0  0  0  0  0  0  0  0  0  0  0  0
    4.6400   -0.4770    1.2750 N   0  0  0  0  0  0  0  0  0  0  0  0
    3.8280   -0.9080    0.3220 N   0  0  0  0  0  0  0  0  0  0  0  0
    2.7440   -0.1610   -0.2100 C   0  0  0  0  0  0  0  0  0  0  0  0
    1.4430   -0.3360    0.4690 C   0  0  0  0  0  0  0  0  0  0  0  0
    0.3030    0.4630   -0.1130 C   0  0  2  0  0  0  0  0  0  0  0  0
   -0.9000    0.1530    0.6910 N   0  0  0  0  0  0  0  0  0  0  0  0
   -1.1270   -1.2310    0.8270 C   0  0  0  0  0  0  0  0  0  0  0  0
   -2.5840   -1.5040    1.1010 C   0  0  1  0  0  0  0  0  0  0  0  0
   -3.0030   -0.8440    2.2740 O   0  0  0  0  0  0  0  0  0  0  0  0
   -3.5140   -1.0760   -0.0000 C   0  0  0  0  0  0  0  0  0  0  0  0
   -3.5850   -2.2920   -0.8570 C   0  0  0  0  0  0  0  0  0  0  0  0
   -3.7120   -2.3140   -2.1020 O   0  0  0  0  0  0  0  0  0  0  0  0
   -3.4760   -3.3980    0.0530 N   0  0  0  0  0  0  0  0  0  0  0  0
   -3.9730   -4.7420   -0.2640 C   0  0  0  0  0  0  0  0  0  0  0  0
   -2.8390   -2.9670    1.2340 C   0  0  0  0  0  0  0  0  0  0  0  0
   -2.5430   -3.6710    2.2080 O   0  0  0  0  0  0  0  0  0  0  0  0
   -0.0200    0.0460   -1.5070 C   0  0  0  0  0  0  0  0  0  0  0  0
    0.3000    1.0740   -2.5540 C   0  0  0  0  0  0  0  0  0  0  0  0
   -0.4070    2.3740   -2.2910 C   0  0  0  0  0  0  0  0  0  0  0  0
   -0.4270    2.6770   -0.8470 N   0  0  0  0  0  0  0  0  0  0  0  0
   -1.3400    3.6770   -0.4650 C   0  0  0  0  0  0  0  0  0  0  0  0
   -1.6100    3.9140    0.8540 C   0  0  0  0  0  0  0  0  0  0  0  0
   -2.5110    4.9140    1.2520 C   0  0  0  0  0  0  0  0  0  0  0  0
   -3.1560    5.6940    0.2970 C   0  0  0  0  0  0  0  0  0  0  0  0
   -4.0300    6.6640    0.6670 F   0  0  0  0  0  0  0  0  0  0  0  0
   -2.8840    5.4540   -1.0300 C   0  0  0  0  0  0  0  0  0  0  0  0
   -3.6830    6.4230   -2.2370 Cl  0  0  0  0  0  0  0  0  0  0  0  0
   -1.9990    4.4730   -1.4050 C   0  0  0  0  0  0  0  0  0  0  0  0
    0.4650    1.9600    0.0380 C   0  0  0  0  0  0  0  0  0  0  0  0
    4.2410   -2.1610   -0.0170 C   0  0  0  0  0  0  0  0  0  0  0  0
    3.5770   -2.9610   -1.0460 C   0  0  0  0  0  0  0  0  0  0  0  0
    5.3330   -2.4760    0.7650 C   0  0  0  0  0  0  0  0  0  0  0  0
    6.0360   -3.6280    0.7380 F   0  0  0  0  0  0  0  0  0  0  0  0
  1  2  1  0
  2  3  2  0
  2 34  1  0
  3  4  1  0
  4  5  1  0
  4 32  1  0
  5  6  1  0
  7  6  1  1
  7  8  1  0
  7 19  1  0
  7 31  1  0
  8  9  1  0
  9 10  1  0
 10 11  1  1
 10 12  1  0
 10 17  1  0
 12 13  1  0
 13 14  2  0
 13 15  1  0
 15 16  1  0
 15 17  1  0
 17 18  2  0
 19 20  1  0
 20 21  1  0
 21 22  1  0
 22 23  1  0
 22 31  1  0
 23 24  2  0
 23 30  1  0
 24 25  1  0
 25 26  2  0
 26 27  1  0
 26 28  1  0
 28 29  1  0
 28 30  2  0
 32 33  1  0
 32 34  2  0
 34 35  1  0
M  CHG  1   8   1
M  END
