
     RDKit          3D

 36 39  0  0  0  0  0  0  0  0999 V2000
    5.9930    1.3250    2.3580 C   0  0  0  0  0  0  0  0  0  0  0  0
    5.2230    0.5200    1.5490 O   0  0  0  0  0  0  0  0  0  0  0  0
    5.6300   -0.3480    0.5790 C   0  0  0  0  0  0  0  0  0  0  0  0
    6.9030   -0.6280    0.2160 C   0  0  0  0  0  0  0  0  0  0  0  0
    7.1900   -1.5100   -0.7910 N   0  0  0  0  0  0  0  0  0  0  0  0
    6.1800   -2.0910   -1.4180 C   0  0  0  0  0  0  0  0  0  0  0  0
    6.4680   -2.9020   -2.3550 O   0  0  0  0  0  0  0  0  0  0  0  0
    4.8590   -1.8440   -1.0900 C   0  0  0  0  0  0  0  0  0  0  0  0
    4.5230   -0.9730   -0.0870 C   0  0  0  0  0  0  0  0  0  0  0  0
    3.2040   -0.7690    0.5070 C   0  0  0  0  0  0  0  0  0  0  0  0
    2.3040    0.0830   -0.1440 N   0  0  0  0  0  0  0  0  0  0  0  0
    0.8890   -0.1360   -0.1920 C   0  0  0  0  0  0  0  0  0  0  0  0
    0.3400   -1.2790    0.2480 N   0  0  0  0  0  0  0  0  0  0  0  0
   -0.9750   -1.3720    0.3090 C   0  0  0  0  0  0  0  0  0  0  0  0
   -1.8000   -0.3120   -0.0720 C   0  0  0  0  0  0  0  0  0  0  0  0
   -1.2940    0.8550   -0.5010 C   0  0  0  0  0  0  0  0  0  0  0  0
   -2.0880    2.0280   -0.7430 C   0  0  0  0  0  0  0  0  0  0  0  0
   -3.3850    2.1470   -0.2170 C   0  0  0  0  0  0  0  0  0  0  0  0
   -4.1540    3.2900   -0.3670 C   0  0  0  0  0  0  0  0  0  0  0  0
   -5.5100    3.3560    0.2660 C   0  0  0  0  0  0  0  0  0  0  0  0
   -3.6200    4.3360   -1.0450 C   0  0  0  0  0  0  0  0  0  0  0  0
   -2.3380    4.2530   -1.5720 C   0  0  0  0  0  0  0  0  0  0  0  0
   -1.5850    3.1100   -1.4170 C   0  0  0  0  0  0  0  0  0  0  0  0
   -0.2750    3.1460   -1.9700 O   0  0  0  0  0  0  0  0  0  0  0  0
    0.6260    3.8660   -1.0730 C   0  0  1  0  0  0  0  0  0  0  0  0
    1.9150    3.8720   -1.5250 F   0  0  0  0  0  0  0  0  0  0  0  0
    0.2140    5.2460   -1.2030 F   0  0  0  0  0  0  0  0  0  0  0  0
    0.4580    3.5950    0.2280 F   0  0  0  0  0  0  0  0  0  0  0  0
    0.0750    0.8830   -0.5480 N   0  0  0  0  0  0  0  0  0  0  0  0
   -3.2220   -0.7150   -0.2370 C   0  0  0  0  0  0  0  0  0  0  0  0
   -3.0770   -2.0850   -0.9930 C   0  0  0  0  0  0  0  0  0  0  0  0
   -2.5520   -3.0840   -0.1440 N   0  0  2  0  0  0  0  0  0  0  0  0
   -3.4770   -4.0920    0.2470 C   0  0  0  0  0  0  0  0  0  0  0  0
   -3.6870   -4.3260    1.6990 C   0  0  0  0  0  0  0  0  0  0  0  0
   -4.3630   -2.9600    2.5870 Cl  0  0  0  0  0  0  0  0  0  0  0  0
   -1.6880   -2.5700    0.8770 C   0  0  0  0  0  0  0  0  0  0  0  0
  1  2  1  0
  2  3  1  0
  3  4  2  0
  3  9  1  0
  4  5  1  0
  5  6  1  0
  6  7  2  0
  6  8  1  0
  8  9  2  0
  9 10  1  0
 10 11  1  0
 11 12  1  0
 12 13  2  0
 12 29  1  0
 13 14  1  0
 14 15  2  0
 14 36  1  0
 15 16  1  0
 15 30  1  0
 16 17  1  0
 16 29  2  0
 17 18  2  0
 17 23  1  0
 18 19  1  0
 19 20  1  0
 19 21  2  0
 21 22  1  0
 22 23  2  0
 23 24  1  0
 24 25  1  0
 25 26  1  6
 25 27  1  0
 25 28  1  0
 30 31  1  0
 31 32  1  0
 32 33  1  1
 32 36  1  0
 33 34  1  0
 34 35  1  0
M  CHG  1  32   1
M  END
