
     RDKit          3D

 37 42  0  0  0  0  0  0  0  0999 V2000
    7.4640   -1.8040    2.0520 C   0  0  0  0  0  0  0  0  0  0  0  0
    6.7720   -1.1470    0.8890 C   0  0  1  0  0  0  0  0  0  0  0  0
    5.5440   -0.5570    1.2700 O   0  0  0  0  0  0  0  0  0  0  0  0
    4.9450   -0.1360    0.0980 C   0  0  1  0  0  0  0  0  0  0  0  0
    3.5660   -0.0570    0.1560 O   0  0  0  0  0  0  0  0  0  0  0  0
    2.9340   -0.9550   -0.7030 C   0  0  1  0  0  0  0  0  0  0  0  0
    2.0180   -1.8120    0.1260 C   0  0  0  0  0  0  0  0  0  0  0  0
    1.1960   -0.8230    0.9260 C   0  0  0  0  0  0  0  0  0  0  0  0
    0.2130   -0.0740    0.0570 C   0  0  2  0  0  0  0  0  0  0  0  0
    0.2530    1.3640    0.6170 C   0  0  0  0  0  0  0  0  0  0  0  0
   -1.1600   -0.6340    0.0750 C   0  0  1  0  0  0  0  0  0  0  0  0
   -1.8390   -0.7010    1.4010 C   0  0  0  0  0  0  0  0  0  0  0  0
   -2.8850    0.3340    1.6480 C   0  0  1  0  0  0  0  0  0  0  0  0
   -2.3730    1.5350    2.1190 O   0  0  0  0  0  0  0  0  0  0  0  0
   -3.8940    0.5100    0.5350 C   0  0  2  0  0  0  0  0  0  0  0  0
   -4.0850    1.9920    0.3130 C   0  0  0  0  0  0  0  0  0  0  0  0
   -5.1740   -0.2220    0.8400 C   0  0  1  0  0  0  0  0  0  0  0  0
   -6.4060    0.6250    0.7360 C   0  0  0  0  0  0  0  0  0  0  0  0
   -7.1640    0.9260    1.7910 C   0  0  0  0  0  0  0  0  0  0  0  0
   -8.2830    1.7560    1.3870 C   0  0  0  0  0  0  0  0  0  0  0  0
   -9.2220    2.2450    2.1020 O   0  0  0  0  0  0  0  0  0  0  0  0
   -8.1420    1.9270    0.0280 O   0  0  0  0  0  0  0  0  0  0  0  0
   -7.0160    1.2320   -0.4400 C   0  0  0  0  0  0  0  0  0  0  0  0
   -5.2600   -1.4420   -0.0290 C   0  0  0  0  0  0  0  0  0  0  0  0
   -3.9730   -1.5040   -0.8210 C   0  0  0  0  0  0  0  0  0  0  0  0
   -3.4780   -0.1030   -0.7510 C   0  0  1  0  0  0  0  0  0  0  0  0
   -4.0670    0.6290   -1.8110 O   0  0  0  0  0  0  0  0  0  0  0  0
   -1.9930    0.0650   -0.9590 C   0  0  2  0  0  0  0  0  0  0  0  0
   -1.5770   -0.5160   -2.3080 C   0  0  0  0  0  0  0  0  0  0  0  0
   -0.1080   -0.8010   -2.3470 C   0  0  0  0  0  0  0  0  0  0  0  0
    0.6760    0.0650   -1.3620 C   0  0  2  0  0  0  0  0  0  0  0  0
    2.1080   -0.1670   -1.6580 C   0  0  0  0  0  0  0  0  0  0  0  0
    5.6170    1.1070   -0.3800 C   0  0  0  0  0  0  0  0  0  0  0  0
    6.9810    1.1980    0.2700 C   0  0  2  0  0  0  0  0  0  0  0  0
    7.7480    2.2310   -0.2190 O   0  0  0  0  0  0  0  0  0  0  0  0
    7.6920   -0.1290    0.2750 C   0  0  2  0  0  0  0  0  0  0  0  0
    8.1570   -0.4900   -0.9800 O   0  0  0  0  0  0  0  0  0  0  0  0
  2  1  1  1
  2  3  1  0
  2 36  1  0
  3  4  1  0
  4  5  1  1
  4 33  1  0
  6  5  1  1
  6  7  1  0
  6 32  1  0
  7  8  1  0
  8  9  1  0
  9 10  1  1
  9 11  1  0
  9 31  1  0
 11 12  1  1
 11 28  1  0
 12 13  1  0
 13 14  1  6
 13 15  1  0
 15 16  1  6
 15 17  1  0
 15 26  1  0
 17 18  1  6
 17 24  1  0
 18 19  2  0
 18 23  1  0
 19 20  1  0
 20 21  2  0
 20 22  1  0
 22 23  1  0
 24 25  1  0
 25 26  1  0
 26 27  1  6
 26 28  1  0
 28 29  1  6
 29 30  1  0
 31 30  1  6
 31 32  1  0
 33 34  1  0
 34 35  1  6
 34 36  1  0
 36 37  1  6
M  END
