
     RDKit          3D

 36 38  0  0  0  0  0  0  0  0999 V2000
   -1.8220   -3.5640    1.3240 C   0  0  0  0  0  0  0  0  0  0  0  0
   -2.3840   -2.9540    0.1610 N   0  0  0  0  0  0  0  0  0  0  0  0
   -3.7340   -2.5070    0.3160 C   0  0  0  0  0  0  0  0  0  0  0  0
   -3.8650   -1.0180    0.4620 C   0  0  0  0  0  0  0  0  0  0  0  0
   -2.6090   -0.3980    0.4620 O   0  0  0  0  0  0  0  0  0  0  0  0
   -2.0170   -0.7460   -0.7550 C   0  0  1  0  0  0  0  0  0  0  0  0
   -0.9130    0.2310   -1.1160 C   0  0  2  0  0  0  0  0  0  0  0  0
   -0.3690   -0.1420   -2.3890 N   0  0  0  0  0  0  0  0  0  0  0  0
   -1.2110    0.3740   -3.4550 C   0  0  0  0  0  0  0  0  0  0  0  0
   -0.7800   -0.1370   -4.8090 C   0  0  0  0  0  0  0  0  0  0  0  0
   -0.8670   -1.6130   -4.8650 C   0  0  0  0  0  0  0  0  0  0  0  0
   -0.9290   -2.7720   -4.8880 N   0  0  0  0  0  0  0  0  0  0  0  0
    0.0870    0.3060   -0.0180 C   0  0  0  0  0  0  0  0  0  0  0  0
    1.2380   -0.2720   -0.1500 C   0  0  0  0  0  0  0  0  0  0  0  0
    2.3210   -0.2660    0.9010 C   0  0  0  0  0  0  0  0  0  0  0  0
    1.9790    0.7130    2.2690 Cl  0  0  0  0  0  0  0  0  0  0  0  0
    3.3740   -0.8990    0.5750 C   0  0  0  0  0  0  0  0  0  0  0  0
    4.0040   -0.4780    2.1390 F   0  0  0  0  0  0  0  0  0  0  0  0
    4.5180   -1.6090    0.3400 C   0  0  0  0  0  0  0  0  0  0  0  0
    5.2620   -1.6960   -0.7480 C   0  0  0  0  0  0  0  0  0  0  0  0
    5.0050   -1.0520   -1.9080 F   0  0  0  0  0  0  0  0  0  0  0  0
    6.4510   -2.5710   -0.6910 C   0  0  0  0  0  0  0  0  0  0  0  0
    7.2500   -2.7060   -1.7100 C   0  0  0  0  0  0  0  0  0  0  0  0
    7.0760   -2.0700   -2.9070 F   0  0  0  0  0  0  0  0  0  0  0  0
   -0.2550    0.9640    1.1840 N   0  0  0  0  0  0  0  0  0  0  0  0
   -0.2710    2.2340    1.3170 C   0  0  0  0  0  0  0  0  0  0  0  0
    0.0540    3.0480    0.2690 N   0  0  0  0  0  0  0  0  0  0  0  0
    0.0670    4.3740    0.2960 C   0  0  0  0  0  0  0  0  0  0  0  0
   -0.2830    5.0310    1.5180 C   0  0  0  0  0  0  0  0  0  0  0  0
   -0.5950    4.2040    2.5170 C   0  0  0  0  0  0  0  0  0  0  0  0
   -0.6210    2.8240    2.5280 C   0  0  0  0  0  0  0  0  0  0  0  0
   -0.9990    2.0700    3.6980 C   0  0  0  0  0  0  0  0  0  0  0  0
   -1.7960    2.6850    4.6280 O   0  0  0  0  0  0  0  0  0  0  0  0
   -1.9370    4.0280    4.5540 C   0  0  0  0  0  0  0  0  0  0  0  0
   -0.9670    4.7150    3.8070 O   0  0  0  0  0  0  0  0  0  0  0  0
   -1.5370   -2.1600   -0.6290 C   0  0  0  0  0  0  0  0  0  0  0  0
  1  2  1  0
  2  3  1  0
  2 36  1  0
  3  4  1  0
  4  5  1  0
  5  6  1  0
  6  7  1  0
  6 36  1  1
  7  8  1  6
  7 13  1  0
  8  9  1  0
  9 10  1  0
 10 11  1  0
 11 12  3  0
 13 14  2  3
 13 25  1  0
 14 15  1  0
 15 16  1  0
 15 17  2  3
 17 18  1  0
 17 19  1  0
 19 20  2  3
 20 21  1  0
 20 22  1  0
 22 23  2  3
 23 24  1  0
 25 26  2  3
 26 27  1  0
 26 31  1  0
 27 28  1  0
 28 29  2  0
 29 30  1  0
 30 31  2  0
 30 35  1  0
 31 32  1  0
 32 33  1  0
 33 34  1  0
 34 35  1  0
M  CHG  1   8   1
M  END
