
     RDKit          3D

 21 22  0  0  0  0  0  0  0  0999 V2000
    0.5710   -0.2250    0.9580 O   0  0  0  0  0  0  0  0  0  0  0  0
    0.5120    0.4320   -0.1270 C   0  0  0  0  0  0  0  0  0  0  0  0
    1.7220    1.1630   -0.5090 N   0  0  0  0  0  0  0  0  0  0  0  0
    2.8280    1.0560    0.3670 C   0  0  0  0  0  0  0  0  0  0  0  0
    4.1220    1.6310   -0.0890 C   0  0  0  0  0  0  0  0  0  0  0  0
    4.9920    1.3440    1.0200 O   0  0  0  0  0  0  0  0  0  0  0  0
    6.1500    0.1190    0.3770 P   0  0  0  0  0  0  0  0  0  0  0  0
    5.7830   -0.1890   -1.3040 O   0  0  0  0  0  0  0  0  0  0  0  0
    5.7210   -1.3850    1.2820 O   0  0  0  0  0  0  0  0  0  0  0  0
   -0.6400    0.4670   -0.9410 N   0  0  0  0  0  0  0  0  0  0  0  0
   -1.8290   -0.2450   -0.5780 C   0  0  0  0  0  0  0  0  0  0  0  0
   -1.8880   -1.5140   -0.2590 C   0  0  0  0  0  0  0  0  0  0  0  0
   -3.0810   -2.2320    0.1040 C   0  0  2  0  0  0  0  0  0  0  0  0
   -3.4030   -3.2030   -0.8950 O   0  0  0  0  0  0  0  0  0  0  0  0
   -4.6090   -3.7310   -0.6460 O   0  0  0  0  0  0  0  0  0  0  0  0
   -4.2680   -1.3650    0.1910 O   0  0  0  0  0  0  0  0  0  0  0  0
   -4.2090   -0.0070   -0.1490 C   0  0  0  0  0  0  0  0  0  0  0  0
   -3.0470    0.5360   -0.5120 C   0  0  0  0  0  0  0  0  0  0  0  0
   -3.2870    1.8880   -0.7810 O   0  0  0  0  0  0  0  0  0  0  0  0
   -4.4660    2.1870    0.0180 C   0  0  0  0  0  0  0  0  0  0  0  0
   -5.1860    0.9820   -0.1930 O   0  0  0  0  0  0  0  0  0  0  0  0
  1  2  2  0
  2  3  1  0
  2 10  1  0
  3  4  1  0
  4  5  1  0
  5  6  1  0
  6  7  1  0
  7  8  1  0
  7  9  1  0
 10 11  1  0
 11 12  2  0
 11 18  1  0
 12 13  1  0
 13 14  1  6
 13 16  1  0
 14 15  1  0
 16 17  1  0
 17 18  2  0
 17 21  1  0
 18 19  1  0
 19 20  1  0
 20 21  1  0
M  END
