
     RDKit          3D

 21 22  0  0  0  0  0  0  0  0999 V2000
   -5.9940    1.7000    0.8720 O   0  0  0  0  0  0  0  0  0  0  0  0
   -5.1160    1.0230    0.3120 C   0  0  0  0  0  0  0  0  0  0  0  0
   -3.7420    1.4110    0.4090 N   0  0  0  0  0  0  0  0  0  0  0  0
   -2.7740    0.3410    0.1210 C   0  0  2  0  0  0  0  0  0  0  0  0
   -2.8450   -0.6010    1.2850 C   0  0  0  0  0  0  0  0  0  0  0  0
   -2.0070   -1.6850    1.2090 O   0  0  0  0  0  0  0  0  0  0  0  0
   -1.4490    1.0010   -0.0520 C   0  0  0  0  0  0  0  0  0  0  0  0
   -0.3690    0.1170   -0.3420 N   0  0  0  0  0  0  0  0  0  0  0  0
    0.9410    0.6120   -0.5280 C   0  0  0  0  0  0  0  0  0  0  0  0
    1.2150    1.8550   -0.4460 O   0  0  0  0  0  0  0  0  0  0  0  0
    2.0230   -0.3320   -0.8260 C   0  0  2  0  0  0  0  0  0  0  0  0
    2.2490   -1.1820    0.4090 C   0  0  0  0  0  0  0  0  0  0  0  0
    3.6140   -1.0020    0.7120 O   0  0  0  0  0  0  0  0  0  0  0  0
    4.1220   -0.7120   -0.5510 C   0  0  2  0  0  0  0  0  0  0  0  0
    5.8810   -0.1970   -0.5290 P   0  0  0  0  0  0  0  0  0  0  0  0
    6.7710   -1.2770    0.4850 O   0  0  0  0  0  0  0  0  0  0  0  0
    6.0970    1.4550   -0.0810 O   0  0  0  0  0  0  0  0  0  0  0  0
    3.2580    0.2830   -0.9850 O   0  0  0  0  0  0  0  0  0  0  0  0
   -3.2410   -0.3180   -1.1580 C   0  0  0  0  0  0  0  0  0  0  0  0
   -4.4520   -0.9340   -0.9090 O   0  0  0  0  0  0  0  0  0  0  0  0
   -5.3800   -0.1240   -0.4290 O   0  0  0  0  0  0  0  0  0  0  0  0
  1  2  2  0
  2  3  1  0
  2 21  1  0
  3  4  1  0
  4  5  1  1
  4  7  1  0
  4 19  1  0
  5  6  1  0
  7  8  1  0
  8  9  1  0
  9 10  2  0
 11  9  1  1
 11 12  1  0
 11 18  1  0
 12 13  1  0
 13 14  1  0
 14 15  1  1
 14 18  1  0
 15 16  1  0
 15 17  1  0
 19 20  1  0
 20 21  1  0
M  END
