
     RDKit          3D

 21 22  0  0  0  0  0  0  0  0999 V2000
   -4.8230   -0.2120   -1.8890 O   0  0  0  0  0  0  0  0  0  0  0  0
   -4.0280   -0.1430   -0.9180 C   0  0  0  0  0  0  0  0  0  0  0  0
   -3.9150   -1.3710   -0.0410 C   0  0  0  0  0  0  0  0  0  0  0  0
   -3.1870   -1.1050    1.0940 O   0  0  0  0  0  0  0  0  0  0  0  0
   -3.3320    0.2280    1.5380 C   0  0  0  0  0  0  0  0  0  0  0  0
   -2.4710    1.0320    0.5020 C   0  0  1  0  0  0  0  0  0  0  0  0
   -1.2150    0.2590    0.4630 C   0  0  0  0  0  0  0  0  0  0  0  0
   -0.9750   -0.7900    1.0950 O   0  0  0  0  0  0  0  0  0  0  0  0
   -0.1730    0.7390   -0.3300 O   0  0  0  0  0  0  0  0  0  0  0  0
    1.0680    0.2840   -0.3060 C   0  0  1  0  0  0  0  0  0  0  0  0
    1.5570   -1.1020   -0.5950 C   0  0  0  0  0  0  0  0  0  0  0  0
    2.5040   -1.2910    0.4730 O   0  0  0  0  0  0  0  0  0  0  0  0
    4.0680   -1.5230    0.1090 P   0  0  0  0  0  0  0  0  0  0  0  0
    5.0270   -0.0610    0.2790 O   0  0  0  0  0  0  0  0  0  0  0  0
    4.8730   -2.8520   -0.3730 O   0  0  0  0  0  0  0  0  0  0  0  0
    1.8740    1.2540   -1.2400 C   0  0  0  0  0  0  0  0  0  0  0  0
    1.8650    2.3690   -0.4510 O   0  0  0  0  0  0  0  0  0  0  0  0
    2.1380    1.9940    0.8020 N   0  0  0  0  0  0  0  0  0  0  0  0
    1.6730    0.6840    1.0290 C   0  0  0  0  0  0  0  0  0  0  0  0
    1.8040    0.0350    2.0620 O   0  0  0  0  0  0  0  0  0  0  0  0
   -3.2540    0.9960   -0.6860 N   0  0  0  0  0  0  0  0  0  0  0  0
  1  2  2  0
  2  3  1  0
  2 21  1  0
  3  4  1  0
  4  5  1  0
  5  6  1  0
  6  7  1  6
  6 21  1  0
  7  8  2  0
  7  9  1  0
  9 10  1  0
 10 11  1  6
 10 16  1  0
 10 19  1  0
 11 12  1  0
 12 13  1  0
 13 14  1  0
 13 15  1  0
 16 17  1  0
 17 18  1  0
 18 19  1  0
 19 20  2  0
M  END
