
     RDKit          3D

 21 22  0  0  0  0  0  0  0  0999 V2000
    5.4050    3.0240    0.0460 C   0  0  0  0  0  0  0  0  0  0  0  0
    4.2740    2.1780   -0.1580 O   0  0  0  0  0  0  0  0  0  0  0  0
    4.3410    0.8070    0.0100 C   0  0  0  0  0  0  0  0  0  0  0  0
    5.4230    0.2820    0.3520 O   0  0  0  0  0  0  0  0  0  0  0  0
    3.1570   -0.0530   -0.2060 C   0  0  1  0  0  0  0  0  0  0  0  0
    3.4120   -1.3850    0.0080 O   0  0  0  0  0  0  0  0  0  0  0  0
    2.2440   -1.9650    0.4990 C   0  0  0  0  0  0  0  0  0  0  0  0
    1.3170   -0.8000    0.8230 C   0  0  2  0  0  0  0  0  0  0  0  0
    0.1750   -0.7340   -0.0980 C   0  0  0  0  0  0  0  0  0  0  0  0
    0.2770   -0.4100   -1.3990 N   0  0  0  0  0  0  0  0  0  0  0  0
   -0.8920   -0.4380   -1.9430 O   0  0  0  0  0  0  0  0  0  0  0  0
   -1.7880   -0.7740   -1.0450 C   0  0  0  0  0  0  0  0  0  0  0  0
   -3.2270   -0.8890   -1.3770 C   0  0  1  0  0  0  0  0  0  0  0  0
   -3.2920   -1.6060   -2.5930 O   0  0  0  0  0  0  0  0  0  0  0  0
   -3.9660   -1.5940   -0.4660 O   0  0  0  0  0  0  0  0  0  0  0  0
   -4.9880   -0.8180    0.0190 C   0  0  0  0  0  0  0  0  0  0  0  0
   -4.5010    0.7160    0.8710 P   0  0  0  0  0  0  0  0  0  0  0  0
   -4.4340    2.1070   -0.1190 O   0  0  0  0  0  0  0  0  0  0  0  0
   -3.1890    0.5600    1.9500 O   0  0  0  0  0  0  0  0  0  0  0  0
   -1.1350   -0.9620    0.1150 N   0  0  0  0  0  0  0  0  0  0  0  0
    2.1860    0.2800    0.7080 O   0  0  0  0  0  0  0  0  0  0  0  0
  1  2  1  0
  2  3  1  0
  3  4  2  0
  5  3  1  1
  5  6  1  0
  5 21  1  0
  6  7  1  0
  7  8  1  0
  8  9  1  6
  8 21  1  0
  9 10  2  0
  9 20  1  0
 10 11  1  0
 11 12  1  0
 12 13  1  0
 12 20  2  0
 13 14  1  6
 13 15  1  0
 15 16  1  0
 16 17  1  0
 17 18  1  0
 17 19  1  0
M  END
