
     RDKit          3D

 22 22  0  0  0  0  0  0  0  0999 V2000
    2.0750   -1.3520   -3.4700 O   0  0  0  0  0  0  0  0  0  0  0  0
    1.9160   -2.1940   -2.1850 P   0  0  0  0  0  0  0  0  0  0  0  0
    0.6580   -1.8570   -0.8890 C   0  0  2  0  0  0  0  0  0  0  0  0
   -0.5860   -2.1520   -1.3830 O   0  0  0  0  0  0  0  0  0  0  0  0
   -1.3910   -2.8010   -0.5320 N   0  0  0  0  0  0  0  0  0  0  0  0
   -2.4070   -2.1240    0.1740 C   0  0  0  0  0  0  0  0  0  0  0  0
   -2.8510   -2.6570    1.1980 O   0  0  0  0  0  0  0  0  0  0  0  0
   -2.9650   -0.8090   -0.3080 C   0  0  0  0  0  0  0  0  0  0  0  0
   -3.3820   -0.1280    0.9250 N   0  0  0  0  0  0  0  0  0  0  0  0
   -2.4920    0.6920    1.6610 C   0  0  0  0  0  0  0  0  0  0  0  0
   -2.6500    0.7600    2.8870 O   0  0  0  0  0  0  0  0  0  0  0  0
   -1.5000    1.3170    0.9970 O   0  0  0  0  0  0  0  0  0  0  0  0
   -1.4760    2.3460    0.0820 C   0  0  0  0  0  0  0  0  0  0  0  0
   -0.0000    2.8440    0.0350 C   0  0  0  0  0  0  0  0  0  0  0  0
    0.8050    2.0930   -0.7900 O   0  0  0  0  0  0  0  0  0  0  0  0
    1.9550    1.4690   -0.7400 C   0  0  0  0  0  0  0  0  0  0  0  0
    3.0830    1.8220   -0.9480 O   0  0  0  0  0  0  0  0  0  0  0  0
    1.8690   -0.0290   -0.3760 C   0  0  1  0  0  0  0  0  0  0  0  0
    2.5180   -0.1960    1.0520 C   0  0  0  0  0  0  0  0  0  0  0  0
    3.8270   -0.4400    0.7420 O   0  0  0  0  0  0  0  0  0  0  0  0
    4.7540    0.3830    1.0180 O   0  0  0  0  0  0  0  0  0  0  0  0
    0.6180   -0.4890   -0.4770 O   0  0  0  0  0  0  0  0  0  0  0  0
  1  2  2  0
  3  2  1  6
  3  4  1  0
  3 22  1  0
  4  5  1  0
  5  6  1  0
  6  7  2  0
  6  8  1  0
  8  9  1  0
  9 10  1  0
 10 11  2  0
 10 12  1  0
 12 13  1  0
 13 14  1  0
 14 15  1  0
 15 16  1  0
 16 17  2  0
 16 18  1  0
 18 19  1  1
 18 22  1  0
 19 20  1  0
 20 21  1  0
M  END
