
     RDKit          3D

 21 22  0  0  0  0  0  0  0  0999 V2000
   -3.3960    1.1230    0.3490 O   0  0  0  0  0  0  0  0  0  0  0  0
   -2.2280    0.8010    0.0110 C   0  0  0  0  0  0  0  0  0  0  0  0
   -1.3490    1.7780   -0.4250 O   0  0  0  0  0  0  0  0  0  0  0  0
    0.0200    1.6090   -0.2490 C   0  0  1  0  0  0  0  0  0  0  0  0
    0.7160    2.6900   -1.0880 C   0  0  0  0  0  0  0  0  0  0  0  0
    0.4390    3.8420   -0.2540 N   0  0  0  0  0  0  0  0  0  0  0  0
    0.4450    3.4680    1.0070 O   0  0  0  0  0  0  0  0  0  0  0  0
    0.4170    2.1120    1.1210 C   0  0  0  0  0  0  0  0  0  0  0  0
    0.5360    0.2430   -0.5540 C   0  0  1  0  0  0  0  0  0  0  0  0
    1.6860   -0.1090    0.1950 O   0  0  0  0  0  0  0  0  0  0  0  0
    2.8890   -0.4530   -0.4030 C   0  0  0  0  0  0  0  0  0  0  0  0
    2.9410   -0.4460   -1.6760 O   0  0  0  0  0  0  0  0  0  0  0  0
    4.3880   -0.9100    0.5020 P   0  0  0  0  0  0  0  0  0  0  0  0
    4.1070   -0.9930    2.1970 O   0  0  0  0  0  0  0  0  0  0  0  0
    5.0750   -2.3740   -0.1070 O   0  0  0  0  0  0  0  0  0  0  0  0
   -0.4690   -0.8250   -0.3280 C   0  0  0  0  0  0  0  0  0  0  0  0
   -0.1070   -2.0070   -0.5020 O   0  0  0  0  0  0  0  0  0  0  0  0
   -1.8050   -0.5550    0.0740 N   0  0  0  0  0  0  0  0  0  0  0  0
   -2.7000   -1.6070    0.5260 C   0  0  0  0  0  0  0  0  0  0  0  0
   -3.4830   -2.2140   -0.6100 C   0  0  0  0  0  0  0  0  0  0  0  0
   -4.3010   -3.2020   -0.0620 O   0  0  0  0  0  0  0  0  0  0  0  0
  1  2  2  0
  2  3  1  0
  2 18  1  0
  3  4  1  0
  4  5  1  6
  4  8  1  0
  4  9  1  0
  5  6  1  0
  6  7  1  0
  7  8  1  0
  9 10  1  1
  9 16  1  0
 10 11  1  0
 11 12  2  0
 11 13  1  0
 13 14  1  0
 13 15  1  0
 16 17  2  0
 16 18  1  0
 18 19  1  0
 19 20  1  0
 20 21  1  0
M  END
