
     RDKit          3D

 10  9  0  0  0  0  0  0  0  0999 V2000
    1.4710    1.1040   -0.9610 O   0  0  0  0  0  0  0  0  0  0  0  0
    1.6680    0.0710   -0.4560 C   0  0  0  0  0  0  0  0  0  0  0  0
    0.5890   -0.8870    0.1150 C   0  0  0  0  0  0  0  0  0  0  0  0
   -0.5850   -0.3030   -0.3300 O   0  0  0  0  0  0  0  0  0  0  0  0
   -1.8440   -0.0740    0.4820 P   0  0  0  0  0  0  0  0  0  0  0  0
   -1.1530    1.5560    0.3610 O   0  0  0  0  0  0  0  0  0  0  0  0
   -2.9190   -0.4800   -0.5600 O   0  0  0  0  0  0  0  0  0  0  0  0
   -2.7640    0.7000    1.5130 O   0  0  0  0  0  0  0  0  0  0  0  0
    2.9590   -0.4150   -0.2150 N   0  0  0  0  0  0  0  0  0  0  0  0
    4.0560    0.3650   -0.4920 O   0  0  0  0  0  0  0  0  0  0  0  0
  1  2  2  0
  2  3  1  0
  2  9  1  0
  3  4  1  0
  4  5  1  0
  5  6  1  0
  5  7  1  0
  5  8  1  0
  9 10  1  0
M  END
