
     RDKit          3D

 13 12  0  0  0  0  0  0  0  0999 V2000
   -3.1660   -1.7340    1.9450 C   0  0  0  0  0  0  0  0  0  0  0  0
   -2.3030   -0.8960    1.2030 O   0  0  0  0  0  0  0  0  0  0  0  0
   -2.6990   -0.2970    0.0200 C   0  0  0  0  0  0  0  0  0  0  0  0
   -3.8510   -0.4760   -0.4460 O   0  0  0  0  0  0  0  0  0  0  0  0
   -1.7290    0.5660   -0.6910 C   0  0  1  0  0  0  0  0  0  0  0  0
   -2.3780    1.9240   -0.8530 C   0  0  0  0  0  0  0  0  0  0  0  0
   -0.5460    0.6140   -0.0010 O   0  0  0  0  0  0  0  0  0  0  0  0
    0.5020    0.1700   -0.7640 C   0  0  0  0  0  0  0  0  0  0  0  0
    1.7530    0.2190   -0.0370 N   0  0  0  0  0  0  0  0  0  0  0  0
    2.8460   -0.2480   -0.8450 C   0  0  0  0  0  0  0  0  0  0  0  0
    4.4150   -0.1570    0.1510 P   0  0  0  0  0  0  0  0  0  0  0  0
    4.0200   -0.1400    1.8240 O   0  0  0  0  0  0  0  0  0  0  0  0
    5.3760   -1.5330   -0.2140 O   0  0  0  0  0  0  0  0  0  0  0  0
  1  2  1  0
  2  3  1  0
  3  4  2  0
  3  5  1  0
  5  6  1  1
  5  7  1  0
  7  8  1  0
  8  9  1  0
  9 10  1  0
 10 11  1  0
 11 12  1  0
 11 13  1  0
M  END
