
     RDKit          3D

 12 11  0  0  0  0  0  0  0  0999 V2000
   -2.4520   -0.5890    0.9180 C   0  0  0  0  0  0  0  0  0  0  0  0
   -1.8720   -0.1800   -0.3800 C   0  0  2  0  0  0  0  0  0  0  0  0
   -1.7220   -1.3890   -1.2530 C   0  0  0  0  0  0  0  0  0  0  0  0
   -0.6550    0.6160   -0.3260 N   0  0  0  0  0  0  0  0  0  0  0  0
   -1.0060    1.8380    0.3250 C   0  0  0  0  0  0  0  0  0  0  0  0
    0.0380    2.7280    0.4060 O   0  0  0  0  0  0  0  0  0  0  0  0
    0.4410   -0.1110    0.2400 C   0  0  0  0  0  0  0  0  0  0  0  0
    1.7360    0.6090    0.0140 C   0  0  2  0  0  0  0  0  0  0  0  0
    1.9500    0.7890   -1.3680 O   0  0  0  0  0  0  0  0  0  0  0  0
    3.0880   -0.4860    0.7120 P   0  0  0  0  0  0  0  0  0  0  0  0
    2.7790   -2.1490    0.4520 O   0  0  0  0  0  0  0  0  0  0  0  0
    4.6320   -0.0010    0.0860 O   0  0  0  0  0  0  0  0  0  0  0  0
  2  1  1  1
  2  3  1  0
  2  4  1  0
  4  5  1  0
  4  7  1  0
  5  6  1  0
  7  8  1  0
  8  9  1  6
  8 10  1  0
 10 11  1  0
 10 12  1  0
M  END
