
     RDKit          3D

 13 12  0  0  0  0  0  0  0  0999 V2000
   -1.7900   -1.9790   -2.2810 C   0  0  0  0  0  0  0  0  0  0  0  0
   -1.4930   -1.8610   -0.9350 O   0  0  0  0  0  0  0  0  0  0  0  0
   -1.2850   -0.2590   -0.4950 P   0  0  0  0  0  0  0  0  0  0  0  0
    0.3860    0.3000   -0.0950 C   0  0  0  0  0  0  0  0  0  0  0  0
    1.2230   -0.5480    0.6240 N   0  0  0  0  0  0  0  0  0  0  0  0
    0.8820   -0.9950    1.8970 C   0  0  0  0  0  0  0  0  0  0  0  0
    2.5430   -0.7660    0.1530 C   0  0  0  0  0  0  0  0  0  0  0  0
    3.3840    0.4680    0.2680 C   0  0  0  0  0  0  0  0  0  0  0  0
    4.5800    0.4710   -0.0980 O   0  0  0  0  0  0  0  0  0  0  0  0
    2.8890    1.6660    0.7810 O   0  0  0  0  0  0  0  0  0  0  0  0
   -2.5480    0.4650    0.3950 O   0  0  0  0  0  0  0  0  0  0  0  0
   -2.8620    1.7530   -0.0180 C   0  0  0  0  0  0  0  0  0  0  0  0
   -3.9140    2.1970    0.8130 O   0  0  0  0  0  0  0  0  0  0  0  0
  1  2  1  0
  2  3  1  0
  3  4  1  0
  3 11  1  0
  4  5  1  0
  5  6  1  0
  5  7  1  0
  7  8  1  0
  8  9  2  0
  8 10  1  0
 11 12  1  0
 12 13  1  0
M  END
