
     RDKit          3D

 13 13  0  0  0  0  0  0  0  0999 V2000
   -4.2660    1.8990    1.0610 O   0  0  0  0  0  0  0  0  0  0  0  0
   -4.3570    0.2220    0.6400 P   0  0  0  0  0  0  0  0  0  0  0  0
   -5.7810   -0.0100   -0.3490 O   0  0  0  0  0  0  0  0  0  0  0  0
   -2.8650   -0.3530   -0.2700 C   0  0  0  0  0  0  0  0  0  0  0  0
   -1.6350    0.0030    0.5440 C   0  0  0  0  0  0  0  0  0  0  0  0
   -0.4840   -0.4680   -0.2090 N   0  0  0  0  0  0  0  0  0  0  0  0
    0.7170   -0.1630    0.5050 C   0  0  0  0  0  0  0  0  0  0  0  0
    1.8870   -0.6730   -0.3200 C   0  0  2  0  0  0  0  0  0  0  0  0
    3.1420   -0.4050    0.4790 C   0  0  0  0  0  0  0  0  0  0  0  0
    4.2940   -0.3840   -0.5210 C   0  0  0  0  0  0  0  0  0  0  0  0
    4.0270    0.5680   -1.4890 O   0  0  0  0  0  0  0  0  0  0  0  0
    2.7800    0.9320   -1.5480 O   0  0  0  0  0  0  0  0  0  0  0  0
    1.9380   -0.0840   -1.5620 O   0  0  0  0  0  0  0  0  0  0  0  0
  1  2  1  0
  2  3  1  0
  2  4  1  0
  4  5  1  0
  5  6  1  0
  6  7  1  0
  8  7  1  1
  8  9  1  0
  8 13  1  0
  9 10  1  0
 10 11  1  0
 11 12  1  0
 12 13  1  0
M  END
