
     RDKit          3D

 13 12  0  0  0  0  0  0  0  0999 V2000
   -4.5020    1.5410   -1.6610 C   0  0  0  0  0  0  0  0  0  0  0  0
   -3.8300    0.5620   -0.7020 C   0  0  0  0  0  0  0  0  0  0  0  0
   -2.4970    0.4250   -1.1410 O   0  0  0  0  0  0  0  0  0  0  0  0
   -1.8870   -0.4180   -0.3300 O   0  0  0  0  0  0  0  0  0  0  0  0
   -0.9320   -1.0930   -0.9810 O   0  0  0  0  0  0  0  0  0  0  0  0
    0.3300   -1.2120   -0.4290 C   0  0  0  0  0  0  0  0  0  0  0  0
    1.3220   -2.1170   -1.0640 C   0  0  0  0  0  0  0  0  0  0  0  0
    0.6030   -0.5250    0.6280 N   0  0  0  0  0  0  0  0  0  0  0  0
    1.9130   -0.6440    1.2060 C   0  0  2  0  0  0  0  0  0  0  0  0
    1.9190   -0.2550    2.6780 C   0  0  0  0  0  0  0  0  0  0  0  0
    3.1590    0.4240    0.3390 P   0  0  0  0  0  0  0  0  0  0  0  0
    2.3790    1.9180   -0.1480 O   0  0  0  0  0  0  0  0  0  0  0  0
    4.3950    0.8240    1.4910 O   0  0  0  0  0  0  0  0  0  0  0  0
  1  2  1  0
  2  3  1  0
  3  4  1  0
  4  5  1  0
  5  6  1  0
  6  7  1  0
  6  8  2  3
  8  9  1  0
  9 10  1  1
  9 11  1  0
 11 12  1  0
 11 13  1  0
M  END
