
     RDKit          3D

 25 25  0  0  0  0  0  0  0  0999 V2000
   10.3480    1.7320    1.0310 C   0  0  0  0  0  0  0  0  0  0  0  0
    9.5830    0.5890    0.9700 O   0  0  0  0  0  0  0  0  0  0  0  0
    8.4140    0.7500    0.2440 C   0  0  0  0  0  0  0  0  0  0  0  0
    7.6790   -0.5840    0.2160 C   0  0  0  0  0  0  0  0  0  0  0  0
    6.5240   -0.5790   -0.4680 O   0  0  0  0  0  0  0  0  0  0  0  0
    5.4670    0.1880   -0.0530 C   0  0  0  0  0  0  0  0  0  0  0  0
    4.3890    0.0570   -1.0970 C   0  0  0  0  0  0  0  0  0  0  0  0
    3.2710    0.8050   -0.7280 O   0  0  0  0  0  0  0  0  0  0  0  0
    2.3470    0.7680   -1.8140 C   0  0  0  0  0  0  0  0  0  0  0  0
    1.9410   -0.5970   -2.2000 C   0  0  0  0  0  0  0  0  0  0  0  0
    1.2740   -1.3610   -1.2940 O   0  0  0  0  0  0  0  0  0  0  0  0
   -0.0200   -1.1700   -0.8510 C   0  0  0  0  0  0  0  0  0  0  0  0
   -0.5690   -2.0250    0.1210 C   0  0  0  0  0  0  0  0  0  0  0  0
   -1.8570   -1.8940    0.5920 C   0  0  0  0  0  0  0  0  0  0  0  0
   -2.6720   -0.8940    0.1140 C   0  0  0  0  0  0  0  0  0  0  0  0
   -4.0720   -0.7990    0.6110 C   0  0  2  0  0  0  0  0  0  0  0  0
   -3.9640   -0.6740    2.1100 C   0  0  0  0  0  0  0  0  0  0  0  0
   -4.7070   -2.1500    0.2280 C   0  0  0  0  0  0  0  0  0  0  0  0
   -4.7170    0.3470   -0.0530 C   0  0  0  0  0  0  0  0  0  0  0  0
   -6.1270    0.6730    0.2450 C   0  0  1  0  0  0  0  0  0  0  0  0
   -7.1490   -0.3650   -0.0550 C   0  0  0  0  0  0  0  0  0  0  0  0
   -6.3890    1.1600    1.6590 C   0  0  0  0  0  0  0  0  0  0  0  0
   -6.4650    1.8830   -0.6530 C   0  0  0  0  0  0  0  0  0  0  0  0
   -2.1370   -0.0550   -0.8350 C   0  0  0  0  0  0  0  0  0  0  0  0
   -0.8410   -0.1770   -1.3160 C   0  0  0  0  0  0  0  0  0  0  0  0
  1  2  1  0
  2  3  1  0
  3  4  1  0
  4  5  1  0
  5  6  1  0
  6  7  1  0
  7  8  1  0
  8  9  1  0
  9 10  1  0
 10 11  1  0
 11 12  1  0
 12 13  2  0
 12 25  1  0
 13 14  1  0
 14 15  2  0
 15 16  1  0
 15 24  1  0
 16 17  1  1
 16 18  1  0
 16 19  1  0
 19 20  1  0
 20 21  1  6
 20 22  1  0
 20 23  1  0
 24 25  2  0
M  END
