
     RDKit          3D

 15 15  0  0  0  0  0  0  0  0999 V2000
   -4.2010   -0.5560    0.5950 C   0  0  0  0  0  0  0  0  0  0  0  0
   -2.9580   -1.0580    0.8720 O   0  0  0  0  0  0  0  0  0  0  0  0
   -1.9690   -0.4360    0.1620 C   0  0  1  0  0  0  0  0  0  0  0  0
   -2.1940   -0.5940   -1.2250 O   0  0  0  0  0  0  0  0  0  0  0  0
   -1.8120    1.0390    0.4150 C   0  0  0  0  0  0  0  0  0  0  0  0
   -0.8530    1.4990   -0.5190 O   0  0  0  0  0  0  0  0  0  0  0  0
    0.4440    1.3060   -0.0850 C   0  0  0  0  0  0  0  0  0  0  0  0
    1.0460    0.0250   -0.6070 C   0  0  1  0  0  0  0  0  0  0  0  0
    2.2130   -0.3920    0.2590 C   0  0  1  0  0  0  0  0  0  0  0  0
    2.8520   -1.5180   -0.2680 O   0  0  0  0  0  0  0  0  0  0  0  0
    3.2410    0.6870    0.3340 C   0  0  0  0  0  0  0  0  0  0  0  0
    4.5870    0.4920   -0.0820 N   0  0  0  0  0  0  0  0  0  0  0  0
    2.9460    1.8250    0.7770 O   0  0  0  0  0  0  0  0  0  0  0  0
    0.1440   -1.0080   -0.6730 O   0  0  0  0  0  0  0  0  0  0  0  0
   -0.6040   -1.0580    0.4990 C   0  0  0  0  0  0  0  0  0  0  0  0
  1  2  1  0
  2  3  1  0
  3  4  1  6
  3  5  1  0
  3 15  1  0
  5  6  1  0
  6  7  1  0
  8  7  1  1
  8  9  1  0
  8 14  1  0
  9 10  1  6
  9 11  1  0
 11 12  1  0
 11 13  2  0
 14 15  1  0
M  END
