
     RDKit          3D

 15 15  0  0  0  0  0  0  0  0999 V2000
   -1.2070   -1.4090   -1.3510 C   0  0  0  0  0  0  0  0  0  0  0  0
   -0.6790   -0.7510   -0.0700 C   0  0  1  0  0  0  0  0  0  0  0  0
   -1.8880   -0.4780    0.7900 C   0  0  1  0  0  0  0  0  0  0  0  0
   -1.5670    0.0840    2.0060 O   0  0  0  0  0  0  0  0  0  0  0  0
   -2.8910    0.4130    0.0570 C   0  0  0  0  0  0  0  0  0  0  0  0
   -2.2740    1.6580   -0.1220 O   0  0  0  0  0  0  0  0  0  0  0  0
    0.1500   -1.6420    0.6330 O   0  0  0  0  0  0  0  0  0  0  0  0
    1.4230   -1.0970    0.6930 C   0  0  0  0  0  0  0  0  0  0  0  0
    2.4750   -1.5740    1.1870 O   0  0  0  0  0  0  0  0  0  0  0  0
    1.3380    0.2240    0.0370 C   0  0  1  0  0  0  0  0  0  0  0  0
    1.6690    1.2910    1.0870 C   0  0  0  0  0  0  0  0  0  0  0  0
    2.3130    0.3340   -1.0730 C   0  0  0  0  0  0  0  0  0  0  0  0
    3.7100    0.2100   -0.8490 N   0  0  0  0  0  0  0  0  0  0  0  0
    1.9370    0.5400   -2.2540 O   0  0  0  0  0  0  0  0  0  0  0  0
    0.0320    0.3730   -0.3870 O   0  0  0  0  0  0  0  0  0  0  0  0
  2  1  1  6
  2  3  1  0
  2  7  1  0
  2 15  1  0
  3  4  1  1
  3  5  1  0
  5  6  1  0
  7  8  1  0
  8  9  2  0
  8 10  1  0
 10 11  1  1
 10 12  1  0
 10 15  1  0
 12 13  1  0
 12 14  2  0
M  END
