
     RDKit          3D

 14 14  0  0  0  0  0  0  0  0999 V2000
   -1.8510   -2.3510    0.6280 C   0  0  0  0  0  0  0  0  0  0  0  0
   -1.4340   -1.1360    1.1190 O   0  0  0  0  0  0  0  0  0  0  0  0
   -0.9320   -0.2880    0.1310 C   0  0  2  0  0  0  0  0  0  0  0  0
    0.2950    0.1050    0.4990 O   0  0  0  0  0  0  0  0  0  0  0  0
    1.3920   -0.1250   -0.2000 C   0  0  2  0  0  0  0  0  0  0  0  0
    2.2960   -1.0570    0.6260 C   0  0  0  0  0  0  0  0  0  0  0  0
    3.3490   -0.2490    1.1420 N   0  0  0  0  0  0  0  0  0  0  0  0
    3.1900    1.0920    0.6890 C   0  0  0  0  0  0  0  0  0  0  0  0
    2.3360    0.9530   -0.5370 C   0  0  2  0  0  0  0  0  0  0  0  0
    1.8200    2.1140   -1.0160 O   0  0  0  0  0  0  0  0  0  0  0  0
   -1.8530    0.9040    0.0650 C   0  0  1  0  0  0  0  0  0  0  0  0
   -1.4640    1.8420   -0.8880 O   0  0  0  0  0  0  0  0  0  0  0  0
   -3.2850    0.5760   -0.1730 C   0  0  0  0  0  0  0  0  0  0  0  0
   -3.5630    0.0510   -1.4130 O   0  0  0  0  0  0  0  0  0  0  0  0
  1  2  1  0
  3  2  1  1
  3  4  1  0
  3 11  1  0
  5  4  1  1
  5  6  1  0
  5  9  1  0
  6  7  1  0
  7  8  1  0
  8  9  1  0
  9 10  1  1
 11 12  1  6
 11 13  1  0
 13 14  1  0
M  END
