
     RDKit          3D

 15 15  0  0  0  0  0  0  0  0999 V2000
   -2.1490   -1.3420   -1.1270 N   0  0  0  0  0  0  0  0  0  0  0  0
   -2.3040   -0.4150   -0.0620 C   0  0  0  0  0  0  0  0  0  0  0  0
   -1.0880    0.4490    0.2110 C   0  0  1  0  0  0  0  0  0  0  0  0
   -0.8210    1.1690   -0.9590 O   0  0  0  0  0  0  0  0  0  0  0  0
   -1.5310    1.4740    1.2300 C   0  0  0  0  0  0  0  0  0  0  0  0
   -0.5850    2.4470    1.4910 O   0  0  0  0  0  0  0  0  0  0  0  0
    0.0730   -0.3630    0.6370 C   0  0  2  0  0  0  0  0  0  0  0  0
   -0.2300   -1.0640    1.8010 O   0  0  0  0  0  0  0  0  0  0  0  0
    1.3280    0.4330    0.8920 C   0  0  0  0  0  0  0  0  0  0  0  0
    1.7490    1.1270   -0.2280 O   0  0  0  0  0  0  0  0  0  0  0  0
    2.8630    0.5760   -0.8430 C   0  0  0  0  0  0  0  0  0  0  0  0
    2.8140   -0.8920   -0.6780 C   0  0  0  0  0  0  0  0  0  0  0  0
    3.9240   -1.4730   -0.9250 O   0  0  0  0  0  0  0  0  0  0  0  0
    1.7580   -1.6940   -0.3010 O   0  0  0  0  0  0  0  0  0  0  0  0
    0.3740   -1.4280   -0.4250 C   0  0  0  0  0  0  0  0  0  0  0  0
  1  2  1  0
  2  3  1  0
  3  4  1  6
  3  5  1  0
  3  7  1  0
  5  6  1  0
  7  8  1  1
  7  9  1  0
  7 15  1  0
  9 10  1  0
 10 11  1  0
 11 12  1  0
 12 13  2  0
 12 14  1  0
 14 15  1  0
M  END
