
     RDKit          3D

 15 15  0  0  0  0  0  0  0  0999 V2000
   -2.6610    1.8700    0.6330 N   0  0  0  0  0  0  0  0  0  0  0  0
   -2.0870    0.7260    0.8910 O   0  0  0  0  0  0  0  0  0  0  0  0
   -2.2230   -0.2500   -0.0950 C   0  0  1  0  0  0  0  0  0  0  0  0
   -3.5460   -0.5320   -0.3020 O   0  0  0  0  0  0  0  0  0  0  0  0
   -1.5290    0.2650   -1.3300 C   0  0  0  0  0  0  0  0  0  0  0  0
   -0.1250    0.6640   -1.0470 C   0  0  0  0  0  0  0  0  0  0  0  0
    0.6400   -0.2770   -0.1810 C   0  0  1  0  0  0  0  0  0  0  0  0
    1.7270    0.4140    0.3540 O   0  0  0  0  0  0  0  0  0  0  0  0
    2.9250   -0.1620   -0.0610 C   0  0  0  0  0  0  0  0  0  0  0  0
    4.0950    0.5770    0.5100 C   0  0  0  0  0  0  0  0  0  0  0  0
    4.0120    1.9090    0.0460 O   0  0  0  0  0  0  0  0  0  0  0  0
   -0.1350   -0.8590    0.9530 C   0  0  0  0  0  0  0  0  0  0  0  0
   -1.4290   -1.4450    0.4160 C   0  0  2  0  0  0  0  0  0  0  0  0
   -1.0860   -2.3260   -0.5860 O   0  0  0  0  0  0  0  0  0  0  0  0
   -2.1400   -2.0800    1.4150 O   0  0  0  0  0  0  0  0  0  0  0  0
  1  2  1  0
  2  3  1  0
  3  4  1  6
  3  5  1  0
  3 13  1  0
  5  6  1  0
  6  7  1  0
  7  8  1  1
  7 12  1  0
  8  9  1  0
  9 10  1  0
 10 11  1  0
 12 13  1  0
 13 14  1  6
 13 15  1  0
M  END
