
     RDKit          3D

 15 16  0  0  0  0  0  0  0  0999 V2000
    3.3590   -1.1620    0.5040 O   0  0  0  0  0  0  0  0  0  0  0  0
    2.8260    0.1160    0.2260 C   0  0  1  0  0  0  0  0  0  0  0  0
    3.8590    1.0570    0.2860 O   0  0  0  0  0  0  0  0  0  0  0  0
    2.2210    0.0630   -1.0720 N   0  0  0  0  0  0  0  0  0  0  0  0
    0.8820   -0.4890   -1.0330 C   0  0  0  0  0  0  0  0  0  0  0  0
   -0.0390    0.3820   -0.1950 C   0  0  1  0  0  0  0  0  0  0  0  0
   -0.6280    1.2790   -1.0940 O   0  0  0  0  0  0  0  0  0  0  0  0
   -1.0580   -0.4890    0.4150 C   0  0  1  0  0  0  0  0  0  0  0  0
   -0.4750   -1.3830    1.3100 O   0  0  0  0  0  0  0  0  0  0  0  0
   -2.2200    0.1540    1.0690 C   0  0  0  0  0  0  0  0  0  0  0  0
   -3.2730    0.1420   -0.0360 C   0  0  0  0  0  0  0  0  0  0  0  0
   -2.6140   -0.2700   -1.1940 O   0  0  0  0  0  0  0  0  0  0  0  0
   -1.7480   -1.2700   -0.6900 C   0  0  0  0  0  0  0  0  0  0  0  0
    0.8230    1.1670    0.7310 C   0  0  0  0  0  0  0  0  0  0  0  0
    1.8690    0.3610    1.1790 O   0  0  0  0  0  0  0  0  0  0  0  0
  2  1  1  1
  2  3  1  0
  2  4  1  0
  2 15  1  0
  4  5  1  0
  5  6  1  0
  6  7  1  6
  6  8  1  0
  6 14  1  0
  8  9  1  1
  8 10  1  0
  8 13  1  0
 10 11  1  0
 11 12  1  0
 12 13  1  0
 14 15  1  0
M  END
