
     RDKit          3D

 14 14  0  0  0  0  0  0  0  0999 V2000
    2.4480   -0.8840   -0.6490 N   0  0  0  0  0  0  0  0  0  0  0  0
    1.4430   -0.2150    0.2010 C   0  0  1  0  0  0  0  0  0  0  0  0
    1.8450    1.2290    0.2540 C   0  0  0  0  0  0  0  0  0  0  0  0
    3.1420    1.2710    0.8140 O   0  0  0  0  0  0  0  0  0  0  0  0
    0.1210   -0.4910   -0.3970 C   0  0  1  0  0  0  0  0  0  0  0  0
   -0.0700   -2.0060   -0.4080 C   0  0  0  0  0  0  0  0  0  0  0  0
    0.9270   -2.6260   -1.1590 O   0  0  0  0  0  0  0  0  0  0  0  0
   -1.0270    0.2280    0.2000 C   0  0  2  0  0  0  0  0  0  0  0  0
   -1.2440   -0.0580    1.6610 C   0  0  0  0  0  0  0  0  0  0  0  0
   -2.3940    0.5620    2.1340 O   0  0  0  0  0  0  0  0  0  0  0  0
   -2.3190   -0.0190   -0.5160 C   0  0  0  0  0  0  0  0  0  0  0  0
   -2.1540    0.7100   -1.6830 O   0  0  0  0  0  0  0  0  0  0  0  0
   -1.4120    1.8090   -1.3140 C   0  0  0  0  0  0  0  0  0  0  0  0
   -0.8880    1.5990   -0.0620 O   0  0  0  0  0  0  0  0  0  0  0  0
  2  1  1  6
  2  3  1  0
  2  5  1  0
  3  4  1  0
  5  6  1  1
  5  8  1  0
  6  7  1  0
  8  9  1  1
  8 11  1  0
  8 14  1  0
  9 10  1  0
 11 12  1  0
 12 13  1  0
 13 14  1  0
M  END
