
     RDKit          3D

 15 15  0  0  0  0  0  0  0  0999 V2000
   -0.2350   -2.3120   -0.5680 C   0  0  0  0  0  0  0  0  0  0  0  0
    0.2970   -0.8750   -0.3860 C   0  0  2  0  0  0  0  0  0  0  0  0
    1.0910   -0.6720   -1.5100 O   0  0  0  0  0  0  0  0  0  0  0  0
    1.1230   -0.8610    0.8230 C   0  0  0  0  0  0  0  0  0  0  0  0
    1.8810    0.3110    1.1350 N   0  0  0  0  0  0  0  0  0  0  0  0
    2.9150    0.8530    0.3440 C   0  0  0  0  0  0  0  0  0  0  0  0
    3.2820    0.3390   -0.7360 O   0  0  0  0  0  0  0  0  0  0  0  0
    3.6080    2.0190    0.7220 O   0  0  0  0  0  0  0  0  0  0  0  0
   -0.8730    0.0270   -0.4850 C   0  0  2  0  0  0  0  0  0  0  0  0
   -1.5270   -0.3510   -1.6920 O   0  0  0  0  0  0  0  0  0  0  0  0
   -0.5840    1.4840   -0.6340 C   0  0  0  0  0  0  0  0  0  0  0  0
   -1.7560    2.1310   -0.1750 O   0  0  0  0  0  0  0  0  0  0  0  0
   -2.0900    1.4250    0.9880 C   0  0  0  0  0  0  0  0  0  0  0  0
   -1.9060   -0.0410    0.5720 C   0  0  2  0  0  0  0  0  0  0  0  0
   -1.6600   -0.8300    1.6540 O   0  0  0  0  0  0  0  0  0  0  0  0
  2  1  1  6
  2  3  1  0
  2  4  1  0
  2  9  1  0
  4  5  1  0
  5  6  1  0
  6  7  2  0
  6  8  1  0
  9 10  1  6
  9 11  1  0
  9 14  1  0
 11 12  1  0
 12 13  1  0
 13 14  1  0
 14 15  1  1
M  END
