
     RDKit          3D

 15 15  0  0  0  0  0  0  0  0999 V2000
   -2.0890   -0.3920   -1.7490 N   0  0  0  0  0  0  0  0  0  0  0  0
   -1.7400   -0.3230   -0.3570 C   0  0  2  0  0  0  0  0  0  0  0  0
   -2.9580   -0.2200    0.4580 C   0  0  0  0  0  0  0  0  0  0  0  0
   -4.1020   -0.2030   -0.0940 O   0  0  0  0  0  0  0  0  0  0  0  0
   -2.9570   -0.1370    1.8440 O   0  0  0  0  0  0  0  0  0  0  0  0
   -4.0920   -0.0440    2.5550 O   0  0  0  0  0  0  0  0  0  0  0  0
   -0.7550    0.7780   -0.1350 C   0  0  0  0  0  0  0  0  0  0  0  0
    0.6310    0.1730   -0.1210 C   0  0  2  0  0  0  0  0  0  0  0  0
    1.5510    0.8990   -0.8210 O   0  0  0  0  0  0  0  0  0  0  0  0
    2.7050    1.1980   -0.1070 C   0  0  0  0  0  0  0  0  0  0  0  0
    3.4610   -0.0150    0.3420 C   0  0  0  0  0  0  0  0  0  0  0  0
    3.8200   -0.7340   -0.8000 O   0  0  0  0  0  0  0  0  0  0  0  0
    0.3850   -1.2090   -0.7400 C   0  0  0  0  0  0  0  0  0  0  0  0
   -0.9210   -1.5670   -0.0190 C   0  0  1  0  0  0  0  0  0  0  0  0
   -0.6560   -1.5840    1.3280 O   0  0  0  0  0  0  0  0  0  0  0  0
  2  1  1  6
  2  3  1  0
  2  7  1  0
  2 14  1  0
  3  4  2  0
  3  5  1  0
  5  6  1  0
  7  8  1  0
  8  9  1  6
  8 13  1  0
  9 10  1  0
 10 11  1  0
 11 12  1  0
 13 14  1  0
 14 15  1  1
M  END
