
     RDKit          3D

 43 48  0  0  0  0  0  0  0  0999 V2000
   -4.4110   -0.9210   -5.8820 C   0  0  0  0  0  0  0  0  0  0  0  0
   -5.5300   -0.9000   -4.8600 C   0  0  0  0  0  0  0  0  0  0  0  0
   -4.9300   -0.5230   -3.5550 C   0  0  0  0  0  0  0  0  0  0  0  0
   -5.0750    0.7290   -3.0530 N   0  0  0  0  0  0  0  0  0  0  0  0
   -4.5300    1.0650   -1.8930 C   0  0  0  0  0  0  0  0  0  0  0  0
   -4.6660    2.4230   -1.2900 C   0  0  2  0  0  0  0  0  0  0  0  0
   -6.1170    2.6580   -0.7370 C   0  0  0  0  0  0  0  0  0  0  0  0
   -5.5370    3.4570   -1.8440 C   0  0  0  0  0  0  0  0  0  0  0  0
   -3.8070    0.1340   -1.1840 C   0  0  0  0  0  0  0  0  0  0  0  0
   -3.6330   -1.1530   -1.6550 C   0  0  0  0  0  0  0  0  0  0  0  0
   -2.9270   -2.1390   -0.9530 N   0  0  0  0  0  0  0  0  0  0  0  0
   -2.1850   -1.8000    0.2160 C   0  0  0  0  0  0  0  0  0  0  0  0
   -1.3910   -0.8090    0.1260 N   0  0  0  0  0  0  0  0  0  0  0  0
   -0.6150   -0.3740    1.1790 N   0  0  0  0  0  0  0  0  0  0  0  0
    0.3060   -1.1520    1.9760 C   0  0  0  0  0  0  0  0  0  0  0  0
    1.7430   -0.7230    1.6510 C   0  0  0  0  0  0  0  0  0  0  0  0
    1.7940    0.7170    1.7210 N   0  0  0  0  0  0  0  0  0  0  0  0
    2.9270    1.4760    1.3530 C   0  0  0  0  0  0  0  0  0  0  0  0
    2.7860    2.7490    1.4600 O   0  0  0  0  0  0  0  0  0  0  0  0
    4.2090    1.0230    0.8780 C   0  0  0  0  0  0  0  0  0  0  0  0
    4.6510   -0.2310    0.6980 N   0  0  0  0  0  0  0  0  0  0  0  0
    5.9160   -0.2540    0.2300 C   0  0  0  0  0  0  0  0  0  0  0  0
    6.7840   -1.4130   -0.1080 C   0  0  0  0  0  0  0  0  0  0  0  0
    6.3040    1.0510    0.1030 C   0  0  0  0  0  0  0  0  0  0  0  0
    5.2700    1.8670    0.4950 C   0  0  0  0  0  0  0  0  0  0  0  0
    5.2270    3.3590    0.5200 C   0  0  0  0  0  0  0  0  0  0  0  0
    6.3900    3.8390   -0.2190 N   0  0  0  0  0  0  0  0  0  0  0  0
    6.3570    5.2870   -0.3460 C   0  0  0  0  0  0  0  0  0  0  0  0
    6.4590    3.2080   -1.5300 C   0  0  0  0  0  0  0  0  0  0  0  0
    7.5880    2.3300   -1.5450 N   0  0  0  0  0  0  0  0  0  0  0  0
    7.6530    1.5100   -0.3780 C   0  0  0  0  0  0  0  0  0  0  0  0
    0.6200    1.4400    2.2150 C   0  0  0  0  0  0  0  0  0  0  0  0
   -0.6610    1.0520    1.5450 C   0  0  0  0  0  0  0  0  0  0  0  0
   -2.3540   -2.5950    1.4520 C   0  0  0  0  0  0  0  0  0  0  0  0
   -2.5160   -1.9090    2.6270 C   0  0  0  0  0  0  0  0  0  0  0  0
   -2.6810   -2.5900    3.8420 C   0  0  0  0  0  0  0  0  0  0  0  0
   -2.6820   -3.9660    3.8690 C   0  0  0  0  0  0  0  0  0  0  0  0
   -2.8430   -4.6990    5.0530 O   0  0  0  0  0  0  0  0  0  0  0  0
   -3.0130   -4.0590    6.2810 C   0  0  0  0  0  0  0  0  0  0  0  0
   -2.5170   -4.6640    2.6660 C   0  0  0  0  0  0  0  0  0  0  0  0
   -2.3550   -3.9520    1.4720 C   0  0  0  0  0  0  0  0  0  0  0  0
   -4.2170   -1.4670   -2.8710 C   0  0  0  0  0  0  0  0  0  0  0  0
   -4.0430   -2.8180   -3.3970 C   0  0  0  0  0  0  0  0  0  0  0  0
  1  2  1  0
  2  3  1  0
  3  4  2  0
  3 42  1  0
  4  5  1  0
  6  5  1  6
  5  9  2  0
  6  7  1  0
  6  8  1  0
  7  8  1  0
  9 10  1  0
 10 11  1  0
 10 42  2  0
 11 12  1  0
 12 13  2  3
 12 34  1  0
 13 14  1  0
 14 15  1  0
 14 33  1  0
 15 16  1  0
 16 17  1  0
 17 18  1  0
 17 32  1  0
 18 19  2  0
 18 20  1  0
 20 21  1  0
 20 25  2  0
 21 22  1  0
 22 23  1  0
 22 24  2  0
 24 25  1  0
 24 31  1  0
 25 26  1  0
 26 27  1  0
 27 28  1  0
 27 29  1  0
 29 30  1  0
 30 31  1  0
 32 33  1  0
 34 35  2  0
 34 41  1  0
 35 36  1  0
 36 37  2  0
 37 38  1  0
 37 40  1  0
 38 39  1  0
 40 41  2  0
 42 43  1  0
M  CHG  1  13   1
M  END
