
     RDKit          3D

 43 47  0  0  0  0  0  0  0  0999 V2000
   10.7450   -2.1220    1.0990 C   0  0  0  0  0  0  0  0  0  0  0  0
    9.2770   -2.0840    0.7050 C   0  0  0  0  0  0  0  0  0  0  0  0
    9.0420   -0.9220   -0.2070 C   0  0  0  0  0  0  0  0  0  0  0  0
    7.6090   -0.8310   -0.6360 C   0  0  0  0  0  0  0  0  0  0  0  0
    6.6520   -0.6160    0.4670 C   0  0  0  0  0  0  0  0  0  0  0  0
    7.0690   -0.5240    1.6400 O   0  0  0  0  0  0  0  0  0  0  0  0
    5.2200   -0.5140    0.2420 C   0  0  0  0  0  0  0  0  0  0  0  0
    4.4990   -1.7170    0.1940 C   0  0  0  0  0  0  0  0  0  0  0  0
    5.2350   -3.0000    0.3130 C   0  0  0  0  0  0  0  0  0  0  0  0
    3.1780   -1.6380    0.0420 N   0  0  0  0  0  0  0  0  0  0  0  0
    2.5150   -0.4770   -0.0650 C   0  0  0  0  0  0  0  0  0  0  0  0
    1.0850   -0.4670   -0.2330 N   0  0  0  0  0  0  0  0  0  0  0  0
    0.4330    0.7680   -0.3170 C   0  0  0  0  0  0  0  0  0  0  0  0
    1.1880    1.8170   -0.2160 O   0  0  0  0  0  0  0  0  0  0  0  0
   -0.9460    0.9800   -0.4960 N   0  0  0  0  0  0  0  0  0  0  0  0
   -1.4450    2.3430   -0.4820 C   0  0  0  0  0  0  0  0  0  0  0  0
   -2.7960    2.4120    0.2260 C   0  0  0  0  0  0  0  0  0  0  0  0
   -3.6850    1.4180   -0.2600 N   0  0  0  0  0  0  0  0  0  0  0  0
   -5.0670    1.6490   -0.1890 C   0  0  0  0  0  0  0  0  0  0  0  0
   -5.6580    1.6370    1.1620 C   0  0  0  0  0  0  0  0  0  0  0  0
   -4.9250    1.4210    2.1500 O   0  0  0  0  0  0  0  0  0  0  0  0
   -7.0460    1.8640    1.3870 N   0  0  0  0  0  0  0  0  0  0  0  0
   -7.9460    2.1480    0.2800 C   0  0  0  0  0  0  0  0  0  0  0  0
   -9.2580    1.4540    0.3460 C   0  0  0  0  0  0  0  0  0  0  0  0
   -9.4760    0.6370    1.5520 C   0  0  0  0  0  0  0  0  0  0  0  0
  -10.3710   -0.3050    1.7740 C   0  0  0  0  0  0  0  0  0  0  0  0
  -10.1760   -0.8240    3.1420 C   0  0  0  0  0  0  0  0  0  0  0  0
   -9.0310   -0.0430    3.6870 C   0  0  0  0  0  0  0  0  0  0  0  0
   -8.6590    0.7830    2.7460 C   0  0  0  0  0  0  0  0  0  0  0  0
   -7.5700    1.8010    2.7190 C   0  0  0  0  0  0  0  0  0  0  0  0
   -3.1650    0.5590   -1.2500 C   0  0  0  0  0  0  0  0  0  0  0  0
   -1.8670   -0.0870   -0.7060 C   0  0  1  0  0  0  0  0  0  0  0  0
   -1.4210   -1.1370   -1.6490 C   0  0  0  0  0  0  0  0  0  0  0  0
   -0.7750   -0.9700   -2.8310 C   0  0  0  0  0  0  0  0  0  0  0  0
   -0.5610   -2.2280   -3.3680 C   0  0  0  0  0  0  0  0  0  0  0  0
   -1.1020   -3.1090   -2.4600 C   0  0  0  0  0  0  0  0  0  0  0  0
   -1.1030   -4.5880   -2.6220 C   0  0  0  0  0  0  0  0  0  0  0  0
   -1.6020   -2.4420   -1.4560 O   0  0  0  0  0  0  0  0  0  0  0  0
    3.2290    0.6450   -0.0160 N   0  0  0  0  0  0  0  0  0  0  0  0
    4.5980    0.6900    0.1390 C   0  0  0  0  0  0  0  0  0  0  0  0
    5.2660    2.0020    0.2140 C   0  0  0  0  0  0  0  0  0  0  0  0
    6.0100    2.4540   -0.9850 C   0  0  0  0  0  0  0  0  0  0  0  0
    5.0630    2.4900   -2.1760 C   0  0  0  0  0  0  0  0  0  0  0  0
  1  2  1  0
  2  3  1  0
  3  4  1  0
  4  5  1  0
  5  6  2  0
  5  7  1  0
  7  8  2  0
  7 40  1  0
  8  9  1  0
  8 10  1  0
 10 11  2  0
 11 12  1  0
 11 39  1  0
 12 13  1  0
 13 14  2  0
 13 15  1  0
 15 16  1  0
 15 32  1  0
 16 17  1  0
 17 18  1  0
 18 19  1  0
 18 31  1  0
 19 20  1  0
 20 21  2  0
 20 22  1  0
 22 23  1  0
 22 30  1  0
 23 24  1  0
 24 25  1  0
 25 26  2  0
 25 29  1  0
 26 27  1  0
 27 28  1  0
 28 29  2  0
 29 30  1  0
 31 32  1  0
 32 33  1  6
 33 34  2  0
 33 38  1  0
 34 35  1  0
 35 36  2  0
 36 37  1  0
 36 38  1  0
 39 40  2  0
 40 41  1  0
 41 42  1  0
 42 43  1  0
M  END
