
     RDKit          3D

 43 48  0  0  0  0  0  0  0  0999 V2000
    8.9070   -1.0050    1.7800 C   0  0  0  0  0  0  0  0  0  0  0  0
    7.8010   -0.5020    2.2530 C   0  0  0  0  0  0  0  0  0  0  0  0
    6.6850    0.0420    1.4830 C   0  0  0  0  0  0  0  0  0  0  0  0
    6.8760   -0.1160    0.0240 C   0  0  2  0  0  0  0  0  0  0  0  0
    5.8390    0.4080   -0.9940 C   0  0  2  0  0  0  0  0  0  0  0  0
    5.0270    1.4920   -0.5710 C   0  0  0  0  0  0  0  0  0  0  0  0
    5.2790    2.5980   -1.3480 O   0  0  0  0  0  0  0  0  0  0  0  0
    4.0650    1.8280    0.3570 N   0  0  0  0  0  0  0  0  0  0  0  0
    3.5600    3.2490    0.4190 C   0  0  0  0  0  0  0  0  0  0  0  0
    2.1120    3.2760    0.0820 C   0  0  0  0  0  0  0  0  0  0  0  0
    1.3980    2.3560    0.9460 N   0  0  0  0  0  0  0  0  0  0  0  0
    1.9820    1.3200    1.5180 C   0  0  0  0  0  0  0  0  0  0  0  0
    1.0460    0.6240    2.2920 C   0  0  0  0  0  0  0  0  0  0  0  0
   -0.0950    1.2760    2.1570 N   0  0  0  0  0  0  0  0  0  0  0  0
    0.0910    2.3190    1.3550 C   0  0  0  0  0  0  0  0  0  0  0  0
   -0.8830    3.2920    0.9700 N   0  0  0  0  0  0  0  0  0  0  0  0
   -2.2570    3.0850    1.4250 C   0  0  0  0  0  0  0  0  0  0  0  0
   -2.7610    1.8560    0.7490 C   0  0  0  0  0  0  0  0  0  0  0  0
   -2.5540    1.7890   -0.6290 C   0  0  0  0  0  0  0  0  0  0  0  0
   -2.9780    0.7230   -1.3620 C   0  0  0  0  0  0  0  0  0  0  0  0
   -3.6490   -0.3640   -0.7610 C   0  0  0  0  0  0  0  0  0  0  0  0
   -4.0850   -1.4370   -1.5010 O   0  0  0  0  0  0  0  0  0  0  0  0
   -3.9310   -1.4340   -2.9330 C   0  0  0  0  0  0  0  0  0  0  0  0
   -4.7830   -0.3190   -3.4030 C   0  0  0  0  0  0  0  0  0  0  0  0
   -5.8040    0.1890   -2.6370 C   0  0  0  0  0  0  0  0  0  0  0  0
   -6.6200    1.2040   -3.0330 C   0  0  0  0  0  0  0  0  0  0  0  0
   -6.4170    1.7680   -4.2860 C   0  0  0  0  0  0  0  0  0  0  0  0
   -5.4020    1.2770   -5.0700 C   0  0  0  0  0  0  0  0  0  0  0  0
   -4.5940    0.2510   -4.6450 C   0  0  0  0  0  0  0  0  0  0  0  0
   -3.8360   -0.2660    0.5800 C   0  0  0  0  0  0  0  0  0  0  0  0
   -4.4950   -1.2810    1.2570 O   0  0  0  0  0  0  0  0  0  0  0  0
   -4.7740   -1.3580    2.6100 C   0  0  0  0  0  0  0  0  0  0  0  0
   -5.5400   -2.5370    3.0120 C   0  0  0  0  0  0  0  0  0  0  0  0
   -6.5200   -2.5980    3.9810 N   0  0  0  0  0  0  0  0  0  0  0  0
   -6.9530   -3.8100    4.0240 O   0  0  0  0  0  0  0  0  0  0  0  0
   -6.3130   -4.5600    3.1350 C   0  0  0  0  0  0  0  0  0  0  0  0
   -6.5250   -6.0130    2.8780 C   0  0  0  0  0  0  0  0  0  0  0  0
   -5.4630   -3.7700    2.5350 N   0  0  0  0  0  0  0  0  0  0  0  0
   -3.4080    0.8140    1.3440 C   0  0  0  0  0  0  0  0  0  0  0  0
    3.4270    0.9940    1.3090 C   0  0  0  0  0  0  0  0  0  0  0  0
    5.9810   -1.0120   -0.7670 C   0  0  2  0  0  0  0  0  0  0  0  0
    5.0110   -1.9430   -0.1360 C   0  0  0  0  0  0  0  0  0  0  0  0
    6.7750   -1.7560   -1.8950 C   0  0  0  0  0  0  0  0  0  0  0  0
  1  2  2  0
  2  3  1  0
  4  3  1  1
  4  5  1  0
  4 41  1  0
  5  6  1  1
  5 41  1  0
  6  7  2  0
  6  8  1  0
  8  9  1  0
  8 40  1  0
  9 10  1  0
 10 11  1  0
 11 12  1  0
 11 15  1  0
 12 13  2  0
 12 40  1  0
 13 14  1  0
 14 15  2  0
 15 16  1  0
 16 17  1  0
 17 18  1  0
 18 19  2  0
 18 39  1  0
 19 20  1  0
 20 21  2  0
 21 22  1  0
 21 30  1  0
 22 23  1  0
 23 24  1  0
 24 25  2  0
 24 29  1  0
 25 26  1  0
 26 27  2  0
 27 28  1  0
 28 29  2  0
 30 31  1  0
 30 39  2  0
 31 32  1  0
 32 33  1  0
 33 34  2  0
 33 38  1  0
 34 35  1  0
 35 36  1  0
 36 37  1  0
 36 38  2  0
 41 42  1  1
 41 43  1  0
M  END
