
     RDKit          3D

 43 47  0  0  0  0  0  0  0  0999 V2000
   -5.8150   -4.1620    1.4720 C   0  0  0  0  0  0  0  0  0  0  0  0
   -6.2440   -2.8260    1.0920 C   0  0  0  0  0  0  0  0  0  0  0  0
   -5.6580   -1.7160    0.8170 C   0  0  0  0  0  0  0  0  0  0  0  0
   -6.2660   -0.4560    0.4670 N   0  0  0  0  0  0  0  0  0  0  0  0
   -5.3520    0.4340    0.3200 C   0  0  0  0  0  0  0  0  0  0  0  0
   -4.0400   -0.1400    0.5540 C   0  0  0  0  0  0  0  0  0  0  0  0
   -4.2470   -1.4320    0.8410 C   0  0  0  0  0  0  0  0  0  0  0  0
   -3.0460   -2.2180    0.9940 C   0  0  0  0  0  0  0  0  0  0  0  0
   -2.8760   -3.2900    0.3030 C   0  0  0  0  0  0  0  0  0  0  0  0
   -3.6570   -3.9730   -0.7140 C   0  0  0  0  0  0  0  0  0  0  0  0
   -2.8470   -4.0890   -2.0320 C   0  0  0  0  0  0  0  0  0  0  0  0
   -1.9700   -1.5460    1.8340 C   0  0  0  0  0  0  0  0  0  0  0  0
   -1.5330   -0.4120    0.8430 C   0  0  2  0  0  0  0  0  0  0  0  0
   -1.0690   -1.0940   -0.3930 C   0  0  0  0  0  0  0  0  0  0  0  0
   -0.4640    0.3960    1.5270 C   0  0  0  0  0  0  0  0  0  0  0  0
    0.1450    1.4560    0.8140 N   0  0  0  0  0  0  0  0  0  0  0  0
   -0.3970    2.8000    0.7480 C   0  0  0  0  0  0  0  0  0  0  0  0
    0.0880    3.6490    1.8990 C   0  0  0  0  0  0  0  0  0  0  0  0
   -0.4630    4.9750    1.8070 N   0  0  0  0  0  0  0  0  0  0  0  0
   -0.2430    5.8790    0.7260 C   0  0  0  0  0  0  0  0  0  0  0  0
    0.4880    5.5040   -0.2210 O   0  0  0  0  0  0  0  0  0  0  0  0
   -0.8280    7.1780    0.7050 N   0  0  0  0  0  0  0  0  0  0  0  0
   -0.6180    8.0850   -0.3560 C   0  0  0  0  0  0  0  0  0  0  0  0
    0.1090    7.9820   -1.5000 C   0  0  0  0  0  0  0  0  0  0  0  0
   -0.0230    9.1710   -2.2020 C   0  0  0  0  0  0  0  0  0  0  0  0
   -0.8460    9.9580   -1.4290 C   0  0  0  0  0  0  0  0  0  0  0  0
   -1.1640    9.2860   -0.3710 O   0  0  0  0  0  0  0  0  0  0  0  0
    1.3800    1.2600    0.1390 C   0  0  0  0  0  0  0  0  0  0  0  0
    1.8610    2.2100   -0.5710 O   0  0  0  0  0  0  0  0  0  0  0  0
    2.1440    0.0160    0.2250 C   0  0  0  0  0  0  0  0  0  0  0  0
    3.3990    0.1440   -0.4900 O   0  0  0  0  0  0  0  0  0  0  0  0
    4.2470   -0.9430   -0.5140 C   0  0  0  0  0  0  0  0  0  0  0  0
    3.9380   -2.1260    0.1140 C   0  0  0  0  0  0  0  0  0  0  0  0
    4.8210   -3.2120    0.0710 C   0  0  0  0  0  0  0  0  0  0  0  0
    6.0160   -3.1200   -0.5990 C   0  0  0  0  0  0  0  0  0  0  0  0
    6.9630   -4.1830   -0.6860 N   0  0  0  0  0  0  0  0  0  0  0  0
    6.6760   -5.4950   -0.8020 C   0  0  0  0  0  0  0  0  0  0  0  0
    7.8480   -6.2160   -0.8590 C   0  0  0  0  0  0  0  0  0  0  0  0
    8.8440   -5.3200   -0.7750 N   0  0  0  0  0  0  0  0  0  0  0  0
    8.3130   -4.0930   -0.6710 C   0  0  0  0  0  0  0  0  0  0  0  0
    6.3360   -1.9200   -1.2380 C   0  0  0  0  0  0  0  0  0  0  0  0
    5.4500   -0.8740   -1.1780 C   0  0  0  0  0  0  0  0  0  0  0  0
   -2.7180    0.4750    0.5970 C   0  0  0  0  0  0  0  0  0  0  0  0
  1  2  1  0
  2  3  2  3
  3  4  1  0
  3  7  1  0
  4  5  2  0
  5  6  1  0
  6  7  2  0
  6 43  1  0
  7  8  1  0
  8  9  2  3
  8 12  1  0
  9 10  1  0
 10 11  1  0
 12 13  1  0
 13 14  1  6
 13 15  1  0
 13 43  1  0
 15 16  1  0
 16 17  1  0
 16 28  1  0
 17 18  1  0
 18 19  1  0
 19 20  1  0
 20 21  2  0
 20 22  1  0
 22 23  1  0
 23 24  2  0
 23 27  1  0
 24 25  1  0
 25 26  2  0
 26 27  1  0
 28 29  2  0
 28 30  1  0
 30 31  1  0
 31 32  1  0
 32 33  2  0
 32 42  1  0
 33 34  1  0
 34 35  2  0
 35 36  1  0
 35 41  1  0
 36 37  1  0
 36 40  1  0
 37 38  2  0
 38 39  1  0
 39 40  2  0
 41 42  2  0
M  END
