
     RDKit          3D

 43 48  0  0  0  0  0  0  0  0999 V2000
   -8.6660    2.9930    1.7070 C   0  0  0  0  0  0  0  0  0  0  0  0
   -8.1120    1.9330    0.8390 C   0  0  0  0  0  0  0  0  0  0  0  0
   -8.9520    1.1390    0.1070 C   0  0  0  0  0  0  0  0  0  0  0  0
   -8.4070    0.1630   -0.6950 C   0  0  0  0  0  0  0  0  0  0  0  0
   -7.0530   -0.0380   -0.7830 C   0  0  0  0  0  0  0  0  0  0  0  0
   -6.1720    0.7620   -0.0410 C   0  0  0  0  0  0  0  0  0  0  0  0
   -4.7820    0.5010   -0.2020 N   0  0  0  0  0  0  0  0  0  0  0  0
   -3.7490    0.9340    0.6260 C   0  0  0  0  0  0  0  0  0  0  0  0
   -4.0580    1.6380    1.6520 O   0  0  0  0  0  0  0  0  0  0  0  0
   -2.2950    0.6580    0.4450 C   0  0  2  0  0  0  0  0  0  0  0  0
   -1.6230    2.0380    0.3470 C   0  0  0  0  0  0  0  0  0  0  0  0
   -2.1500   -0.0620   -0.8240 N   0  0  0  0  0  0  0  0  0  0  0  0
   -0.8430   -0.1900   -1.2540 C   0  0  0  0  0  0  0  0  0  0  0  0
   -0.1970   -1.4920   -1.4790 C   0  0  0  0  0  0  0  0  0  0  0  0
    1.1470   -1.3610   -1.9660 C   0  0  0  0  0  0  0  0  0  0  0  0
    1.7310   -0.0270   -2.1150 C   0  0  0  0  0  0  0  0  0  0  0  0
    1.5650    0.5710   -3.1880 O   0  0  0  0  0  0  0  0  0  0  0  0
    2.4610    0.5680   -1.0810 N   0  0  0  0  0  0  0  0  0  0  0  0
    2.7160   -0.0460    0.2070 C   0  0  0  0  0  0  0  0  0  0  0  0
    3.6700    0.7760    1.0360 C   0  0  0  0  0  0  0  0  0  0  0  0
    4.7280    1.3730    0.2780 N   0  0  0  0  0  0  0  0  0  0  0  0
    5.9830    1.6130    0.8830 C   0  0  0  0  0  0  0  0  0  0  0  0
    7.2300    1.1000    0.5360 C   0  0  0  0  0  0  0  0  0  0  0  0
    8.2120    1.5740    1.3780 C   0  0  0  0  0  0  0  0  0  0  0  0
    9.6720    1.2370    1.3110 C   0  0  0  0  0  0  0  0  0  0  0  0
    7.5860    2.3780    2.2470 N   0  0  0  0  0  0  0  0  0  0  0  0
    6.2770    2.4240    1.9860 C   0  0  0  0  0  0  0  0  0  0  0  0
    5.6460    3.3080    2.9560 C   0  0  0  0  0  0  0  0  0  0  0  0
    6.5710    3.7550    3.7500 N   0  0  0  0  0  0  0  0  0  0  0  0
    7.8550    3.2240    3.3870 C   0  0  0  0  0  0  0  0  0  0  0  0
    4.5200    1.7280   -1.0950 C   0  0  0  0  0  0  0  0  0  0  0  0
    3.0220    1.8860   -1.2700 C   0  0  0  0  0  0  0  0  0  0  0  0
    1.8920   -2.4460   -2.2710 C   0  0  0  0  0  0  0  0  0  0  0  0
    1.3550   -3.7020   -2.1130 C   0  0  0  0  0  0  0  0  0  0  0  0
    2.2070   -4.8800   -2.4590 C   0  0  0  0  0  0  0  0  0  0  0  0
    0.1220   -3.8080   -1.6640 N   0  0  0  0  0  0  0  0  0  0  0  0
   -0.7000   -2.7370   -1.3300 C   0  0  0  0  0  0  0  0  0  0  0  0
   -1.9640   -3.1030   -0.8010 N   0  0  0  0  0  0  0  0  0  0  0  0
   -2.2880   -3.1770    0.5980 C   0  0  0  0  0  0  0  0  0  0  0  0
   -3.6620   -3.8110    0.6820 C   0  0  0  0  0  0  0  0  0  0  0  0
   -4.2820   -3.5910   -0.6740 C   0  0  0  0  0  0  0  0  0  0  0  0
   -3.1050   -3.5050   -1.5850 C   0  0  0  0  0  0  0  0  0  0  0  0
   -6.7310    1.7170    0.7410 C   0  0  0  0  0  0  0  0  0  0  0  0
  1  2  1  0
  2  3  2  0
  2 43  1  0
  3  4  1  0
  4  5  2  0
  5  6  1  0
  6  7  1  0
  6 43  2  0
  7  8  1  0
  8  9  2  0
  8 10  1  0
 10 11  1  6
 10 12  1  0
 12 13  1  0
 13 14  1  0
 14 15  1  0
 14 37  2  0
 15 16  1  0
 15 33  2  0
 16 17  2  0
 16 18  1  0
 18 19  1  0
 18 32  1  0
 19 20  1  0
 20 21  1  0
 21 22  1  0
 21 31  1  0
 22 23  1  0
 22 27  2  0
 23 24  2  0
 24 25  1  0
 24 26  1  0
 26 27  1  0
 26 30  1  0
 27 28  1  0
 28 29  2  0
 29 30  1  0
 31 32  1  0
 33 34  1  0
 34 35  1  0
 34 36  2  0
 36 37  1  0
 37 38  1  0
 38 39  1  0
 38 42  1  0
 39 40  1  0
 40 41  1  0
 41 42  1  0
M  CHG  1  12   1
M  END
