
     RDKit          3D

 43 48  0  0  0  0  0  0  0  0999 V2000
    8.7540    1.7820    1.4920 C   0  0  0  0  0  0  0  0  0  0  0  0
    8.2810    2.4580    0.2420 C   0  0  2  0  0  0  0  0  0  0  0  0
    8.8250    3.8640    0.1850 C   0  0  0  0  0  0  0  0  0  0  0  0
    6.9340    2.3690    0.0710 O   0  0  0  0  0  0  0  0  0  0  0  0
    6.5390    1.6740   -1.0630 C   0  0  0  0  0  0  0  0  0  0  0  0
    5.0610    1.6120   -1.1940 C   0  0  0  0  0  0  0  0  0  0  0  0
    4.2880    2.5640   -1.8390 C   0  0  0  0  0  0  0  0  0  0  0  0
    2.9820    2.1650   -1.7540 C   0  0  0  0  0  0  0  0  0  0  0  0
    2.9950    0.9780   -1.0580 C   0  0  0  0  0  0  0  0  0  0  0  0
    1.8220    0.1410   -0.7010 C   0  0  0  0  0  0  0  0  0  0  0  0
    1.5240   -0.8770   -1.7890 C   0  0  0  0  0  0  0  0  0  0  0  0
    0.3810   -1.6880   -1.4300 N   0  0  0  0  0  0  0  0  0  0  0  0
   -0.9290   -1.2610   -1.8190 C   0  0  0  0  0  0  0  0  0  0  0  0
   -2.0700   -1.9640   -1.1870 C   0  0  2  0  0  0  0  0  0  0  0  0
   -2.7930   -1.1160   -0.1880 C   0  0  0  0  0  0  0  0  0  0  0  0
   -4.0360   -1.0090   -0.3270 O   0  0  0  0  0  0  0  0  0  0  0  0
   -2.1350   -0.4620    0.8600 N   0  0  0  0  0  0  0  0  0  0  0  0
   -2.7250    0.3710    1.8390 C   0  0  0  0  0  0  0  0  0  0  0  0
   -3.3180    1.6650    1.4560 C   0  0  2  0  0  0  0  0  0  0  0  0
   -2.2720    2.5890    0.8140 C   0  0  0  0  0  0  0  0  0  0  0  0
   -3.7260    2.4460    2.7450 C   0  0  0  0  0  0  0  0  0  0  0  0
   -4.6460    1.5780    3.5680 C   0  0  0  0  0  0  0  0  0  0  0  0
   -5.7100    0.9150    2.7630 C   0  0  0  0  0  0  0  0  0  0  0  0
   -5.6580    1.2750    1.3010 C   0  0  0  0  0  0  0  0  0  0  0  0
   -6.6380    1.3490    0.3730 N   0  0  0  0  0  0  0  0  0  0  0  0
   -6.1420    1.7400   -0.8110 C   0  0  0  0  0  0  0  0  0  0  0  0
   -6.6550    1.9810   -2.0720 C   0  0  0  0  0  0  0  0  0  0  0  0
   -5.8650    2.3880   -3.1250 C   0  0  0  0  0  0  0  0  0  0  0  0
   -4.5200    2.5480   -2.8630 C   0  0  0  0  0  0  0  0  0  0  0  0
   -4.0140    2.3140   -1.6340 N   0  0  0  0  0  0  0  0  0  0  0  0
   -4.7930    1.9120   -0.5920 C   0  0  0  0  0  0  0  0  0  0  0  0
   -4.5170    1.6250    0.6920 N   0  0  0  0  0  0  0  0  0  0  0  0
   -1.8100   -3.3030   -0.6040 C   0  0  0  0  0  0  0  0  0  0  0  0
   -0.5150   -3.4450    0.1160 C   0  0  1  0  0  0  0  0  0  0  0  0
   -0.2720   -4.8860    0.4160 C   0  0  0  0  0  0  0  0  0  0  0  0
   -0.1240   -5.8080   -0.5900 C   0  0  0  0  0  0  0  0  0  0  0  0
    0.0980   -7.1170   -0.2560 C   0  0  0  0  0  0  0  0  0  0  0  0
    0.1760   -7.5300    1.0490 C   0  0  0  0  0  0  0  0  0  0  0  0
    0.0280   -6.6050    2.0230 N   0  0  0  0  0  0  0  0  0  0  0  0
   -0.1900   -5.3190    1.7190 C   0  0  0  0  0  0  0  0  0  0  0  0
    0.5730   -2.8800   -0.7140 C   0  0  0  0  0  0  0  0  0  0  0  0
    1.7070   -3.4430   -0.8080 O   0  0  0  0  0  0  0  0  0  0  0  0
    4.2240    0.7040   -0.7580 O   0  0  0  0  0  0  0  0  0  0  0  0
  2  1  1  1
  2  3  1  0
  2  4  1  0
  4  5  1  0
  5  6  1  0
  6  7  2  0
  6 43  1  0
  7  8  1  0
  8  9  2  0
  9 10  1  0
  9 43  1  0
 10 11  1  0
 11 12  1  0
 12 13  1  0
 12 41  1  0
 13 14  1  0
 14 15  1  1
 14 33  1  0
 15 16  2  0
 15 17  1  0
 17 18  1  0
 18 19  1  0
 19 20  1  6
 19 21  1  0
 19 32  1  0
 21 22  1  0
 22 23  1  0
 23 24  1  0
 24 25  2  0
 24 32  1  0
 25 26  1  0
 26 27  2  0
 26 31  1  0
 27 28  1  0
 28 29  2  0
 29 30  1  0
 30 31  2  0
 31 32  1  0
 33 34  1  0
 34 35  1  6
 34 41  1  0
 35 36  2  0
 35 40  1  0
 36 37  1  0
 37 38  2  0
 38 39  1  0
 39 40  2  0
 41 42  2  0
M  END
