
     RDKit          3D

 42 46  0  0  0  0  0  0  0  0999 V2000
   -3.4140   -0.6740   -3.6120 C   0  0  0  0  0  0  0  0  0  0  0  0
   -2.7630   -0.1380   -2.3130 C   0  0  0  0  0  0  0  0  0  0  0  0
   -2.9000   -1.2230   -1.3310 C   0  0  0  0  0  0  0  0  0  0  0  0
   -2.2930   -0.9440    0.0670 C   0  0  2  0  0  0  0  0  0  0  0  0
   -2.9490    0.2540    0.6790 C   0  0  1  0  0  0  0  0  0  0  0  0
   -2.3320    1.5860    0.5840 C   0  0  0  0  0  0  0  0  0  0  0  0
   -1.0780    1.8820    1.2360 C   0  0  0  0  0  0  0  0  0  0  0  0
   -0.4930    1.2590    2.1570 O   0  0  0  0  0  0  0  0  0  0  0  0
   -0.3580    3.0660    0.7940 N   0  0  0  0  0  0  0  0  0  0  0  0
    0.9030    3.4210    1.4010 C   0  0  0  0  0  0  0  0  0  0  0  0
    1.9790    2.4340    1.1550 C   0  0  0  0  0  0  0  0  0  0  0  0
    1.7970    1.3300    0.3590 C   0  0  0  0  0  0  0  0  0  0  0  0
    2.8080    0.4430    0.1380 N   0  0  0  0  0  0  0  0  0  0  0  0
    4.0330    0.5810    0.6720 C   0  0  0  0  0  0  0  0  0  0  0  0
    4.2510    1.6860    1.4800 C   0  0  0  0  0  0  0  0  0  0  0  0
    5.5740    1.5640    1.8850 C   0  0  0  0  0  0  0  0  0  0  0  0
    6.2990    2.4790    2.7690 C   0  0  0  0  0  0  0  0  0  0  0  0
    6.0580    0.4260    1.3110 N   0  0  0  0  0  0  0  0  0  0  0  0
    5.1580   -0.1650    0.5910 N   0  0  0  0  0  0  0  0  0  0  0  0
    5.2530   -1.3640   -0.1620 C   0  0  0  0  0  0  0  0  0  0  0  0
    4.3520   -2.3570   -0.0070 N   0  0  0  0  0  0  0  0  0  0  0  0
    4.3680   -3.5030   -0.6760 C   0  0  0  0  0  0  0  0  0  0  0  0
    5.3790   -3.7090   -1.6080 C   0  0  0  0  0  0  0  0  0  0  0  0
    6.3270   -2.7360   -1.8130 C   0  0  0  0  0  0  0  0  0  0  0  0
    7.4040   -2.9860   -2.8280 C   0  0  0  0  0  0  0  0  0  0  0  0
    6.2570   -1.5750   -1.0910 C   0  0  0  0  0  0  0  0  0  0  0  0
    7.2340   -0.5600   -1.2920 C   0  0  0  0  0  0  0  0  0  0  0  0
    8.0170    0.2790   -1.4630 N   0  0  0  0  0  0  0  0  0  0  0  0
    3.2440    2.5850    1.7100 C   0  0  0  0  0  0  0  0  0  0  0  0
    3.5010    3.7570    2.5600 C   0  0  0  0  0  0  0  0  0  0  0  0
   -4.2430    0.2490    0.4160 O   0  0  0  0  0  0  0  0  0  0  0  0
   -5.4860    0.2390    0.1800 C   0  0  0  0  0  0  0  0  0  0  0  0
   -6.1810    0.5240   -0.9960 C   0  0  0  0  0  0  0  0  0  0  0  0
   -7.5310    0.3810   -0.7780 C   0  0  0  0  0  0  0  0  0  0  0  0
   -8.6550    0.5830   -1.7490 C   0  0  0  0  0  0  0  0  0  0  0  0
   -7.6770    0.0200    0.4860 O   0  0  0  0  0  0  0  0  0  0  0  0
   -6.5250   -0.0750    1.0790 C   0  0  0  0  0  0  0  0  0  0  0  0
   -6.3100   -0.4630    2.5130 C   0  0  0  0  0  0  0  0  0  0  0  0
   -0.8580   -1.1540    0.0730 C   0  0  0  0  0  0  0  0  0  0  0  0
   -0.7290   -2.7150    0.2110 C   0  0  0  0  0  0  0  0  0  0  0  0
   -1.9040   -2.8990    1.1550 C   0  0  0  0  0  0  0  0  0  0  0  0
   -2.8980   -2.0460    0.7810 O   0  0  0  0  0  0  0  0  0  0  0  0
  1  2  1  0
  2  3  1  0
  4  3  1  6
  4  5  1  0
  4 39  1  0
  4 42  1  0
  5  6  1  6
  5 31  1  0
  6  7  1  0
  7  8  2  0
  7  9  1  0
  9 10  1  0
 10 11  1  0
 11 12  2  0
 11 29  1  0
 12 13  1  0
 13 14  2  0
 14 15  1  0
 14 19  1  0
 15 16  1  0
 15 29  2  0
 16 17  1  0
 16 18  2  0
 18 19  1  0
 19 20  1  0
 20 21  2  0
 20 26  1  0
 21 22  1  0
 22 23  2  0
 23 24  1  0
 24 25  1  0
 24 26  2  0
 26 27  1  0
 27 28  3  0
 29 30  1  0
 31 32  1  0
 32 33  1  0
 32 37  2  0
 33 34  2  0
 34 35  1  0
 34 36  1  0
 36 37  1  0
 37 38  1  0
 39 40  1  0
 40 41  1  0
 41 42  1  0
M  END
