
     RDKit          3D

 25 27  0  0  0  0  0  0  0  0999 V2000
    4.4120   -1.3480    1.8640 O   0  0  0  0  0  0  0  0  0  0  0  0
    3.3780   -0.9730    1.2570 C   0  0  0  0  0  0  0  0  0  0  0  0
    3.2380   -1.1680   -0.1410 N   0  0  0  0  0  0  0  0  0  0  0  0
    4.2070   -1.7660   -0.8920 O   0  0  0  0  0  0  0  0  0  0  0  0
    5.3910   -1.2450   -0.5390 O   0  0  0  0  0  0  0  0  0  0  0  0
    6.3380   -2.0840   -0.8360 O   0  0  0  0  0  0  0  0  0  0  0  0
    2.0910   -0.1840    2.2200 S   0  0  0  0  0  0  0  0  0  0  0  0
    0.7120    0.2830    1.1960 C   0  0  0  0  0  0  0  0  0  0  0  0
   -0.3260   -0.5970    0.9780 C   0  0  0  0  0  0  0  0  0  0  0  0
   -1.3940   -0.2140    0.1820 C   0  0  0  0  0  0  0  0  0  0  0  0
   -2.4620   -1.0950   -0.0490 N   0  0  0  0  0  0  0  0  0  0  0  0
   -2.4370   -2.4740    0.3850 C   0  0  0  0  0  0  0  0  0  0  0  0
   -3.4360   -3.2340   -0.4620 C   0  0  0  0  0  0  0  0  0  0  0  0
   -4.7290   -2.7160   -0.3700 O   0  0  0  0  0  0  0  0  0  0  0  0
   -4.7590   -1.4120   -0.6850 O   0  0  0  0  0  0  0  0  0  0  0  0
   -3.6210   -0.6290   -0.7320 C   0  0  0  0  0  0  0  0  0  0  0  0
   -3.6340    0.4770   -1.3760 O   0  0  0  0  0  0  0  0  0  0  0  0
   -1.3720    1.0160   -0.3510 N   0  0  0  0  0  0  0  0  0  0  0  0
   -0.3530    1.8770   -0.1350 C   0  0  0  0  0  0  0  0  0  0  0  0
   -0.2850    3.2410   -0.7040 C   0  0  2  0  0  0  0  0  0  0  0  0
    0.5320    4.1680    0.2100 C   0  0  0  0  0  0  0  0  0  0  0  0
   -0.0990    5.3840   -0.0580 O   0  0  0  0  0  0  0  0  0  0  0  0
   -1.1230    5.1550   -0.8220 O   0  0  0  0  0  0  0  0  0  0  0  0
   -1.5110    3.9160   -0.6280 O   0  0  0  0  0  0  0  0  0  0  0  0
    0.6920    1.5170    0.6370 N   0  0  0  0  0  0  0  0  0  0  0  0
  1  2  2  0
  2  3  1  0
  2  7  1  0
  3  4  1  0
  4  5  1  0
  5  6  1  0
  7  8  1  0
  8  9  2  0
  8 25  1  0
  9 10  1  0
 10 11  1  0
 10 18  2  0
 11 12  1  0
 11 16  1  0
 12 13  1  0
 13 14  1  0
 14 15  1  0
 15 16  1  0
 16 17  2  0
 18 19  1  0
 20 19  1  1
 19 25  2  0
 20 21  1  0
 20 24  1  0
 21 22  1  0
 22 23  1  0
 23 24  1  0
M  END
