
     RDKit          3D

 25 26  0  0  0  0  0  0  0  0999 V2000
   -6.0160   -1.2160    0.3240 O   0  0  0  0  0  0  0  0  0  0  0  0
   -5.4000   -0.9610    1.3880 C   0  0  0  0  0  0  0  0  0  0  0  0
   -5.9750   -1.3860    2.5790 O   0  0  0  0  0  0  0  0  0  0  0  0
   -4.1420   -0.2550    1.3940 N   0  0  0  0  0  0  0  0  0  0  0  0
   -3.6190    0.1440    0.1490 C   0  0  0  0  0  0  0  0  0  0  0  0
   -4.2780   -0.1420   -0.9080 O   0  0  0  0  0  0  0  0  0  0  0  0
   -2.3890    0.8510    0.0300 N   0  0  0  0  0  0  0  0  0  0  0  0
   -1.9550    1.1900   -1.3330 C   0  0  0  0  0  0  0  0  0  0  0  0
   -1.5470   -0.1080   -1.9920 C   0  0  0  0  0  0  0  0  0  0  0  0
   -0.4600    0.1250   -2.8350 O   0  0  0  0  0  0  0  0  0  0  0  0
    0.5970   -0.6600   -2.5510 N   0  0  0  0  0  0  0  0  0  0  0  0
    0.5620   -1.1910   -1.3270 O   0  0  0  0  0  0  0  0  0  0  0  0
    1.8420   -1.3240   -0.8460 C   0  0  0  0  0  0  0  0  0  0  0  0
    2.1710   -0.3140    0.2330 C   0  0  1  0  0  0  0  0  0  0  0  0
    3.6200   -0.4340    0.5490 C   0  0  2  0  0  0  0  0  0  0  0  0
    4.0890    0.5240    1.6210 C   0  0  0  0  0  0  0  0  0  0  0  0
    4.4120    1.7170    1.0010 O   0  0  0  0  0  0  0  0  0  0  0  0
    5.3870    1.5180    0.1120 N   0  0  0  0  0  0  0  0  0  0  0  0
    4.6620    0.1800   -0.8390 S   0  0  0  0  0  0  0  0  0  0  0  0
    1.7750    1.0400   -0.2170 C   0  0  0  0  0  0  0  0  0  0  0  0
    2.5410    1.7020   -0.9590 O   0  0  0  0  0  0  0  0  0  0  0  0
    0.5760    1.6050    0.1580 O   0  0  0  0  0  0  0  0  0  0  0  0
   -0.2380    1.0790    1.1100 O   0  0  0  0  0  0  0  0  0  0  0  0
   -1.6050    1.2280    1.1530 C   0  0  0  0  0  0  0  0  0  0  0  0
   -2.2420    1.6940    2.1560 O   0  0  0  0  0  0  0  0  0  0  0  0
  1  2  2  0
  2  3  1  0
  2  4  1  0
  4  5  1  0
  5  6  2  0
  5  7  1  0
  7  8  1  0
  7 24  1  0
  8  9  1  0
  9 10  1  0
 10 11  1  0
 11 12  1  0
 12 13  1  0
 14 13  1  6
 14 15  1  0
 14 20  1  0
 15 16  1  1
 15 19  1  0
 16 17  1  0
 17 18  1  0
 18 19  1  0
 20 21  2  0
 20 22  1  0
 22 23  1  0
 23 24  1  0
 24 25  2  0
M  END
