
     RDKit          3D

 25 25  0  0  0  0  0  0  0  0999 V2000
    3.3600    2.6530    0.2680 O   0  0  0  0  0  0  0  0  0  0  0  0
    2.2960    3.2220   -0.1250 C   0  0  0  0  0  0  0  0  0  0  0  0
    1.0550    2.6560    0.2670 N   0  0  0  0  0  0  0  0  0  0  0  0
    1.0200    1.4710    1.0860 C   0  0  1  0  0  0  0  0  0  0  0  0
    0.5160    1.8230    2.3400 O   0  0  0  0  0  0  0  0  0  0  0  0
    0.1280    0.5040    0.5660 O   0  0  0  0  0  0  0  0  0  0  0  0
   -1.0630    1.1610    0.3390 C   0  0  0  0  0  0  0  0  0  0  0  0
   -2.2930    0.2860    0.4800 C   0  0  1  0  0  0  0  0  0  0  0  0
   -3.0610    0.3760   -0.7840 C   0  0  0  0  0  0  0  0  0  0  0  0
   -4.2760   -0.3490   -0.8870 N   0  0  0  0  0  0  0  0  0  0  0  0
   -4.4460   -1.7430   -0.8460 C   0  0  0  0  0  0  0  0  0  0  0  0
   -3.4420   -2.4790   -0.7140 O   0  0  0  0  0  0  0  0  0  0  0  0
   -5.7380   -2.3240   -0.9510 O   0  0  0  0  0  0  0  0  0  0  0  0
   -2.0090   -0.9880    1.0230 N   0  0  0  0  0  0  0  0  0  0  0  0
   -0.7980   -1.7680    0.7950 C   0  0  0  0  0  0  0  0  0  0  0  0
   -0.2970   -2.2300    1.9000 O   0  0  0  0  0  0  0  0  0  0  0  0
   -0.3070   -1.9540   -0.4500 O   0  0  0  0  0  0  0  0  0  0  0  0
    0.8140   -2.0730   -1.0500 O   0  0  0  0  0  0  0  0  0  0  0  0
    1.3520   -1.0550   -1.6900 N   0  0  0  0  0  0  0  0  0  0  0  0
    2.4750   -0.4050   -1.1160 C   0  0  0  0  0  0  0  0  0  0  0  0
    3.1470    0.3900   -1.8230 O   0  0  0  0  0  0  0  0  0  0  0  0
    2.8860   -0.6310    0.2970 C   0  0  1  0  0  0  0  0  0  0  0  0
    4.2550   -1.2540    0.4100 C   0  0  0  0  0  0  0  0  0  0  0  0
    5.1990   -0.4350   -0.1720 O   0  0  0  0  0  0  0  0  0  0  0  0
    2.6850    0.8470    1.2990 S   0  0  0  0  0  0  0  0  0  0  0  0
  1  2  2  0
  2  3  1  0
  3  4  1  0
  4  5  1  1
  4  6  1  0
  4 25  1  0
  6  7  1  0
  7  8  1  0
  8  9  1  6
  8 14  1  0
  9 10  1  0
 10 11  1  0
 11 12  2  0
 11 13  1  0
 14 15  1  0
 15 16  2  0
 15 17  1  0
 17 18  1  0
 18 19  1  0
 19 20  1  0
 20 21  2  0
 20 22  1  0
 22 23  1  6
 22 25  1  0
 23 24  1  0
M  END
