
     RDKit          3D

 25 27  0  0  0  0  0  0  0  0999 V2000
   -3.6710    1.1310   -1.7130 C   0  0  0  0  0  0  0  0  0  0  0  0
   -4.0450    1.0140   -0.2470 C   0  0  2  0  0  0  0  0  0  0  0  0
   -3.4220   -0.1070    0.2930 O   0  0  0  0  0  0  0  0  0  0  0  0
   -2.0370   -0.1990    0.2790 C   0  0  0  0  0  0  0  0  0  0  0  0
   -1.3640    0.7290   -0.2220 O   0  0  0  0  0  0  0  0  0  0  0  0
   -1.3550   -1.3170    0.8160 N   0  0  0  0  0  0  0  0  0  0  0  0
    0.0480   -1.4900    0.8410 C   0  0  0  0  0  0  0  0  0  0  0  0
    0.8930   -0.5910    0.3480 N   0  0  0  0  0  0  0  0  0  0  0  0
    2.2260   -0.7130    0.3510 C   0  0  0  0  0  0  0  0  0  0  0  0
    3.0770    0.2980   -0.1980 N   0  0  0  0  0  0  0  0  0  0  0  0
    2.6450    1.4920   -0.7850 C   0  0  0  0  0  0  0  0  0  0  0  0
    1.4370    1.7360   -0.8580 O   0  0  0  0  0  0  0  0  0  0  0  0
    3.5280    2.4430   -1.3050 O   0  0  0  0  0  0  0  0  0  0  0  0
    3.1310    3.5720   -1.8600 O   0  0  0  0  0  0  0  0  0  0  0  0
    2.7780   -1.8720    0.9140 C   0  0  0  0  0  0  0  0  0  0  0  0
    1.9110   -2.8020    1.4250 C   0  0  0  0  0  0  0  0  0  0  0  0
    0.5990   -2.6010    1.3810 N   0  0  0  0  0  0  0  0  0  0  0  0
    2.9760   -4.1140    2.0270 S   0  0  0  0  0  0  0  0  0  0  0  0
    4.4340   -3.5450    1.0380 C   0  0  0  0  0  0  0  0  0  0  0  0
    4.0970   -2.1800    1.0150 O   0  0  0  0  0  0  0  0  0  0  0  0
   -5.4350    0.9420   -0.0980 O   0  0  0  0  0  0  0  0  0  0  0  0
   -5.8460    2.1800   -0.2170 O   0  0  0  0  0  0  0  0  0  0  0  0
   -4.9880    2.9470    0.5060 O   0  0  0  0  0  0  0  0  0  0  0  0
   -3.7730    2.2830    0.4650 C   0  0  0  0  0  0  0  0  0  0  0  0
   -2.6870    2.6810    0.9330 O   0  0  0  0  0  0  0  0  0  0  0  0
  2  1  1  6
  2  3  1  0
  2 21  1  0
  2 24  1  0
  3  4  1  0
  4  5  2  0
  4  6  1  0
  6  7  1  0
  7  8  2  0
  7 17  1  0
  8  9  1  0
  9 10  1  0
  9 15  2  0
 10 11  1  0
 11 12  2  0
 11 13  1  0
 13 14  1  0
 15 16  1  0
 15 20  1  0
 16 17  2  0
 16 18  1  0
 18 19  1  0
 19 20  1  0
 21 22  1  0
 22 23  1  0
 23 24  1  0
 24 25  2  0
M  END
