
     RDKit          3D

 13 12  0  0  0  0  0  0  0  0999 V2000
    4.0360    0.4990    0.2400 C   0  0  0  0  0  0  0  0  0  0  0  0
    2.8750    0.0940   -0.4680 O   0  0  0  0  0  0  0  0  0  0  0  0
    1.6490   -0.0470    0.1670 C   0  0  0  0  0  0  0  0  0  0  0  0
    1.6220    0.2040    1.4090 O   0  0  0  0  0  0  0  0  0  0  0  0
    0.4790   -0.4500   -0.5260 N   0  0  0  0  0  0  0  0  0  0  0  0
   -0.7750   -0.5890    0.1470 C   0  0  2  0  0  0  0  0  0  0  0  0
   -1.2610   -2.0330    0.1090 C   0  0  0  0  0  0  0  0  0  0  0  0
   -2.4780   -2.0950    0.7780 O   0  0  0  0  0  0  0  0  0  0  0  0
   -2.1080    0.4710   -0.5360 P   0  0  0  0  0  0  0  0  0  0  0  0
   -2.7340   -0.0800   -2.0320 O   0  0  0  0  0  0  0  0  0  0  0  0
   -1.7710    2.1410   -0.4870 O   0  0  0  0  0  0  0  0  0  0  0  0
   -2.1200    2.7060    1.1290 P   0  0  0  0  0  0  0  0  0  0  0  0
   -2.0510    4.2010    1.5180 O   0  0  0  0  0  0  0  0  0  0  0  0
  1  2  1  0
  2  3  1  0
  3  4  2  0
  3  5  1  0
  5  6  1  0
  6  7  1  6
  6  9  1  0
  7  8  1  0
  9 10  1  0
  9 11  1  0
 11 12  1  0
 12 13  2  0
M  END
