
     RDKit          3D

 25 26  0  0  0  0  0  0  0  0999 V2000
   -5.7840    1.5980   -1.4910 O   0  0  0  0  0  0  0  0  0  0  0  0
   -5.5260    0.8720   -0.5010 C   0  0  0  0  0  0  0  0  0  0  0  0
   -6.6120    0.5870    0.3880 N   0  0  0  0  0  0  0  0  0  0  0  0
   -7.8690    1.0600    0.1920 O   0  0  0  0  0  0  0  0  0  0  0  0
   -7.8070    2.3310   -0.0210 O   0  0  0  0  0  0  0  0  0  0  0  0
   -4.1720    0.3720   -0.3120 C   0  0  0  0  0  0  0  0  0  0  0  0
   -3.1630    0.7480   -1.0380 O   0  0  0  0  0  0  0  0  0  0  0  0
   -2.0760    0.1530   -0.6570 C   0  0  0  0  0  0  0  0  0  0  0  0
   -0.7600    0.3760   -1.2890 C   0  0  2  0  0  0  0  0  0  0  0  0
   -0.7290    0.0800   -2.6190 O   0  0  0  0  0  0  0  0  0  0  0  0
    0.3710   -0.1330   -0.4850 C   0  0  0  0  0  0  0  0  0  0  0  0
    0.3090   -0.0370    0.7570 O   0  0  0  0  0  0  0  0  0  0  0  0
    1.4810   -0.7010   -1.0680 O   0  0  0  0  0  0  0  0  0  0  0  0
    2.6100   -1.2040   -0.4020 C   0  0  0  0  0  0  0  0  0  0  0  0
    3.2540   -0.0850    0.3930 C   0  0  0  0  0  0  0  0  0  0  0  0
    4.4230   -0.6090    1.0730 N   0  0  0  0  0  0  0  0  0  0  0  0
    5.6380   -0.2130    0.8180 C   0  0  0  0  0  0  0  0  0  0  0  0
    6.7810   -0.7170    1.4720 N   0  0  0  0  0  0  0  0  0  0  0  0
    8.1120   -0.3200    0.3920 S   0  0  0  0  0  0  0  0  0  0  0  0
    7.0570    0.4270   -0.9250 C   0  0  0  0  0  0  0  0  0  0  0  0
    5.9200    0.7370   -0.1240 O   0  0  0  0  0  0  0  0  0  0  0  0
   -2.3770   -0.6490    0.3580 N   0  0  0  0  0  0  0  0  0  0  0  0
   -3.6920   -0.5340    0.6010 C   0  0  0  0  0  0  0  0  0  0  0  0
   -4.4810   -1.1630    1.5610 O   0  0  0  0  0  0  0  0  0  0  0  0
   -5.0260   -2.3780    1.3730 O   0  0  0  0  0  0  0  0  0  0  0  0
  1  2  2  0
  2  3  1  0
  2  6  1  0
  3  4  1  0
  4  5  1  0
  6  7  1  0
  6 23  2  0
  7  8  1  0
  8  9  1  0
  8 22  2  0
  9 10  1  6
  9 11  1  0
 11 12  2  0
 11 13  1  0
 13 14  1  0
 14 15  1  0
 15 16  1  0
 16 17  2  3
 17 18  1  0
 17 21  1  0
 18 19  1  0
 19 20  1  0
 20 21  1  0
 22 23  1  0
 23 24  1  0
 24 25  1  0
M  END
