
     RDKit          3D

 25 27  0  0  0  0  0  0  0  0999 V2000
   -1.6680    3.6850   -0.7710 O   0  0  0  0  0  0  0  0  0  0  0  0
   -0.5250    4.1870   -0.7660 C   0  0  0  0  0  0  0  0  0  0  0  0
   -0.3840    5.5590   -0.9150 O   0  0  0  0  0  0  0  0  0  0  0  0
    0.5500    3.3230   -0.6100 O   0  0  0  0  0  0  0  0  0  0  0  0
    0.3990    1.9590   -0.4630 C   0  0  0  0  0  0  0  0  0  0  0  0
   -0.7560    1.4500   -0.4670 N   0  0  0  0  0  0  0  0  0  0  0  0
   -0.9710    0.0410   -0.3150 C   0  0  2  0  0  0  0  0  0  0  0  0
   -1.7470   -0.3700   -1.4130 O   0  0  0  0  0  0  0  0  0  0  0  0
   -2.1960   -1.6570   -1.3470 C   0  0  0  0  0  0  0  0  0  0  0  0
   -2.9510   -1.8970   -2.5200 O   0  0  0  0  0  0  0  0  0  0  0  0
   -3.9710   -1.0430   -2.5660 O   0  0  0  0  0  0  0  0  0  0  0  0
   -1.8510   -0.1310    0.7830 O   0  0  0  0  0  0  0  0  0  0  0  0
   -1.1520    0.0990    1.9630 C   0  0  0  0  0  0  0  0  0  0  0  0
   -0.2140   -1.0610    2.1830 C   0  0  0  0  0  0  0  0  0  0  0  0
    0.1960   -1.6970    0.9670 N   0  0  0  0  0  0  0  0  0  0  0  0
    0.2090   -0.8220   -0.1790 C   0  0  2  0  0  0  0  0  0  0  0  0
    1.5070   -0.1260   -0.1790 C   0  0  0  0  0  0  0  0  0  0  0  0
    2.7470   -0.8340   -0.0300 N   0  0  0  0  0  0  0  0  0  0  0  0
    3.1260   -1.9680   -0.6440 C   0  0  0  0  0  0  0  0  0  0  0  0
    2.3700   -2.5650   -1.4720 O   0  0  0  0  0  0  0  0  0  0  0  0
    4.3290   -2.3010   -0.2460 O   0  0  0  0  0  0  0  0  0  0  0  0
    4.7120   -1.4120    0.5940 O   0  0  0  0  0  0  0  0  0  0  0  0
    3.7710   -0.4880    0.7600 C   0  0  0  0  0  0  0  0  0  0  0  0
    3.8970    0.7900    1.7430 S   0  0  0  0  0  0  0  0  0  0  0  0
    1.5380    1.1480   -0.3130 N   0  0  0  0  0  0  0  0  0  0  0  0
  1  2  2  0
  2  3  1  0
  2  4  1  0
  4  5  1  0
  5  6  2  0
  5 25  1  0
  6  7  1  0
  7  8  1  6
  7 12  1  0
  7 16  1  0
  8  9  1  0
  9 10  1  0
 10 11  1  0
 12 13  1  0
 13 14  1  0
 14 15  1  0
 16 15  1  1
 16 17  1  0
 17 18  1  0
 17 25  2  0
 18 19  1  0
 18 23  1  0
 19 20  2  0
 19 21  1  0
 21 22  1  0
 22 23  1  0
 23 24  2  0
M  END
