
     RDKit          3D

 25 25  0  0  0  0  0  0  0  0999 V2000
   -0.4880   -4.0190   -2.0340 C   0  0  0  0  0  0  0  0  0  0  0  0
   -1.2240   -2.9490   -1.4790 O   0  0  0  0  0  0  0  0  0  0  0  0
   -0.7830   -2.3090   -0.3350 C   0  0  0  0  0  0  0  0  0  0  0  0
    0.2790   -2.7070    0.1890 O   0  0  0  0  0  0  0  0  0  0  0  0
   -1.5860   -1.1910    0.2120 C   0  0  2  0  0  0  0  0  0  0  0  0
   -2.7100   -0.9970   -0.6030 O   0  0  0  0  0  0  0  0  0  0  0  0
   -3.9990   -1.1110   -0.0590 C   0  0  0  0  0  0  0  0  0  0  0  0
   -4.0920   -1.3870    1.1630 O   0  0  0  0  0  0  0  0  0  0  0  0
   -5.1300   -0.9280   -0.8270 O   0  0  0  0  0  0  0  0  0  0  0  0
   -0.6520    0.0280    0.1920 C   0  0  2  0  0  0  0  0  0  0  0  0
    0.4150   -0.3170    1.0510 O   0  0  0  0  0  0  0  0  0  0  0  0
    1.6660   -0.4240    0.5090 N   0  0  0  0  0  0  0  0  0  0  0  0
    2.5880    0.4240    0.8050 C   0  0  0  0  0  0  0  0  0  0  0  0
    2.2740    1.4540    1.6950 O   0  0  0  0  0  0  0  0  0  0  0  0
    3.9250    0.3280    0.2410 C   0  0  0  0  0  0  0  0  0  0  0  0
    4.3730   -0.5360   -0.5730 N   0  0  0  0  0  0  0  0  0  0  0  0
    5.6570   -0.4560   -0.9880 N   0  0  0  0  0  0  0  0  0  0  0  0
    6.5690    0.2270   -0.0680 C   0  0  0  0  0  0  0  0  0  0  0  0
    5.3090    1.4210    0.5720 S   0  0  0  0  0  0  0  0  0  0  0  0
   -1.3340    1.2570    0.6570 C   0  0  0  0  0  0  0  0  0  0  0  0
   -0.9440    1.8250    1.7080 O   0  0  0  0  0  0  0  0  0  0  0  0
   -2.4240    1.8110   -0.0630 N   0  0  0  0  0  0  0  0  0  0  0  0
   -3.0830    3.0270    0.4180 C   0  0  0  0  0  0  0  0  0  0  0  0
   -2.1520    4.0800    0.4750 O   0  0  0  0  0  0  0  0  0  0  0  0
   -2.7420    5.1530    0.9010 O   0  0  0  0  0  0  0  0  0  0  0  0
  1  2  1  0
  2  3  1  0
  3  4  2  0
  3  5  1  0
  5  6  1  6
  5 10  1  0
  6  7  1  0
  7  8  2  0
  7  9  1  0
 10 11  1  1
 10 20  1  0
 11 12  1  0
 12 13  2  3
 13 14  1  0
 13 15  1  0
 15 16  2  0
 15 19  1  0
 16 17  1  0
 17 18  1  0
 18 19  1  0
 20 21  2  0
 20 22  1  0
 22 23  1  0
 23 24  1  0
 24 25  1  0
M  END
