
     RDKit          3D

 25 25  0  0  0  0  0  0  0  0999 V2000
   -2.3440    2.7390    0.1980 N   0  0  0  0  0  0  0  0  0  0  0  0
   -3.2220    2.0500    1.0680 C   0  0  0  0  0  0  0  0  0  0  0  0
   -3.1840    0.5960    0.8430 C   0  0  0  0  0  0  0  0  0  0  0  0
   -3.9670   -0.0420    1.6630 O   0  0  0  0  0  0  0  0  0  0  0  0
   -2.4460   -0.1490   -0.0930 N   0  0  0  0  0  0  0  0  0  0  0  0
   -2.5680   -1.6220   -0.0260 C   0  0  0  0  0  0  0  0  0  0  0  0
   -2.4800   -2.1120    1.3610 C   0  0  0  0  0  0  0  0  0  0  0  0
   -3.8210   -2.8680    1.9780 S   0  0  0  0  0  0  0  0  0  0  0  0
   -1.3460   -1.9450    2.0920 O   0  0  0  0  0  0  0  0  0  0  0  0
   -0.1130   -1.8150    1.6800 O   0  0  0  0  0  0  0  0  0  0  0  0
    0.4590   -2.9200    1.2170 O   0  0  0  0  0  0  0  0  0  0  0  0
    0.9060   -3.0390   -0.1050 C   0  0  0  0  0  0  0  0  0  0  0  0
    1.0490   -4.1620   -0.6720 O   0  0  0  0  0  0  0  0  0  0  0  0
    1.2120   -1.8620   -0.8420 N   0  0  0  0  0  0  0  0  0  0  0  0
    1.7500   -0.6640   -0.2360 C   0  0  1  0  0  0  0  0  0  0  0  0
    2.9980   -0.2180   -0.8890 C   0  0  0  0  0  0  0  0  0  0  0  0
    3.4500   -0.8770   -1.8480 O   0  0  0  0  0  0  0  0  0  0  0  0
    3.6930    0.9320   -0.4560 N   0  0  0  0  0  0  0  0  0  0  0  0
    4.8860    1.4050   -1.0390 C   0  0  0  0  0  0  0  0  0  0  0  0
    5.3750    0.7760   -2.0020 O   0  0  0  0  0  0  0  0  0  0  0  0
    5.5180    2.5410   -0.5670 O   0  0  0  0  0  0  0  0  0  0  0  0
    0.7330    0.4460   -0.3490 C   0  0  0  0  0  0  0  0  0  0  0  0
   -0.3070    0.1880   -1.2330 O   0  0  0  0  0  0  0  0  0  0  0  0
   -1.6570    0.4770   -1.0910 C   0  0  0  0  0  0  0  0  0  0  0  0
   -2.2390    1.3350   -1.8770 O   0  0  0  0  0  0  0  0  0  0  0  0
  1  2  1  0
  2  3  1  0
  3  4  2  0
  3  5  1  0
  5  6  1  0
  5 24  1  0
  6  7  1  0
  7  8  2  0
  7  9  1  0
  9 10  1  0
 10 11  1  0
 11 12  1  0
 12 13  2  0
 12 14  1  0
 14 15  1  0
 15 16  1  6
 15 22  1  0
 16 17  2  0
 16 18  1  0
 18 19  1  0
 19 20  2  0
 19 21  1  0
 22 23  1  0
 23 24  1  0
 24 25  2  0
M  END
