
     RDKit          3D

  5  4  0  0  0  0  0  0  0  0999 V2000
   -0.2500    1.2350    1.3220 O   0  0  0  0  0  0  0  0  0  0  0  0
   -0.0420    0.2430    0.1830 P   0  0  1  0  0  0  0  0  0  0  0  0
   -0.2150    1.0920   -1.2590 O   0  0  0  0  0  0  0  0  0  0  0  0
    1.5000   -0.4030    0.3760 O   0  0  0  0  0  0  0  0  0  0  0  0
   -1.2180   -0.9740    0.2650 O   0  0  0  0  0  0  0  0  0  0  0  0
  1  2  2  0
  2  3  1  6
  2  4  1  0
  2  5  1  0
M  CHG  1   3  -1
M  END
