
     RDKit          3D

 26 28  0  0  0  0  0  0  0  0999 V2000
   -6.9310    1.5980    1.1230 C   0  0  0  0  0  0  0  0  0  0  0  0
   -5.5410    1.4300    0.8550 O   0  0  0  0  0  0  0  0  0  0  0  0
   -5.0450    0.2020    0.4360 C   0  0  0  0  0  0  0  0  0  0  0  0
   -5.8720   -0.7280    0.3110 O   0  0  0  0  0  0  0  0  0  0  0  0
   -3.6460   -0.0320    0.1490 C   0  0  0  0  0  0  0  0  0  0  0  0
   -2.6180    0.8430    0.2270 N   0  0  0  0  0  0  0  0  0  0  0  0
   -1.4610    0.2600   -0.1190 C   0  0  0  0  0  0  0  0  0  0  0  0
   -1.7530   -1.0120   -0.4240 N   0  0  0  0  0  0  0  0  0  0  0  0
   -3.0890   -1.2090   -0.2660 C   0  0  0  0  0  0  0  0  0  0  0  0
   -3.8090   -2.4780   -0.5020 C   0  0  0  0  0  0  0  0  0  0  0  0
   -0.7560   -1.9420   -0.8410 C   0  0  0  0  0  0  0  0  0  0  0  0
    0.6470   -1.4140   -0.5640 C   0  0  1  0  0  0  0  0  0  0  0  0
    1.5980   -2.4000   -1.1470 C   0  0  0  0  0  0  0  0  0  0  0  0
    0.7220   -0.0300   -1.1160 C   0  0  2  0  0  0  0  0  0  0  0  0
    2.0030    0.4810   -1.4300 N   0  0  0  0  0  0  0  0  0  0  0  0
    3.1010    0.6790   -0.5630 C   0  0  0  0  0  0  0  0  0  0  0  0
    2.9840    1.6700    0.2960 C   0  0  0  0  0  0  0  0  0  0  0  0
    3.8020    2.2720    1.3710 C   0  0  0  0  0  0  0  0  0  0  0  0
    4.8570    1.8430    2.0540 C   0  0  0  0  0  0  0  0  0  0  0  0
    5.4450    3.0040    3.2510 Cl  0  0  0  0  0  0  0  0  0  0  0  0
    5.6540    0.6160    2.0440 C   0  0  0  0  0  0  0  0  0  0  0  0
    5.7510   -0.3950    1.2490 N   0  0  0  0  0  0  0  0  0  0  0  0
    5.1800   -0.8430    0.0350 N   0  0  0  0  0  0  0  0  0  0  0  0
    4.1630   -0.2790   -0.8180 C   0  0  0  0  0  0  0  0  0  0  0  0
    4.2170   -0.7070   -2.0100 O   0  0  0  0  0  0  0  0  0  0  0  0
   -0.0970    0.8460   -0.1730 C   0  0  0  0  0  0  0  0  0  0  0  0
  1  2  1  0
  2  3  1  0
  3  4  2  0
  3  5  1  0
  5  6  1  0
  5  9  2  0
  6  7  2  0
  7  8  1  0
  7 26  1  0
  8  9  1  0
  8 11  1  0
  9 10  1  0
 11 12  1  0
 12 13  1  6
 12 14  1  0
 14 15  1  1
 14 26  1  0
 15 16  1  0
 16 17  2  0
 16 24  1  0
 17 18  1  0
 18 19  2  0
 19 20  1  0
 19 21  1  0
 21 22  2  0
 22 23  1  0
 23 24  1  0
 24 25  2  0
M  END
