
     RDKit          3D

 26 28  0  0  0  0  0  0  0  0999 V2000
    0.2620   -0.4110   -3.8370 C   0  0  0  0  0  0  0  0  0  0  0  0
   -0.4570    0.1910   -2.6830 C   0  0  0  0  0  0  0  0  0  0  0  0
   -1.8740    1.1550   -3.0270 Cl  0  0  0  0  0  0  0  0  0  0  0  0
   -0.0810    0.0340   -1.4380 C   0  0  0  0  0  0  0  0  0  0  0  0
   -0.8020    0.6260   -0.4190 N   0  0  0  0  0  0  0  0  0  0  0  0
   -1.8650    0.2610    0.1650 C   0  0  0  0  0  0  0  0  0  0  0  0
   -2.5280    0.9550    1.2140 N   0  0  0  0  0  0  0  0  0  0  0  0
   -3.9470    0.5630    1.2200 C   0  0  1  0  0  0  0  0  0  0  0  0
   -4.5690    0.7230    2.5700 C   0  0  0  0  0  0  0  0  0  0  0  0
   -4.6240    1.3870    0.1530 C   0  0  0  0  0  0  0  0  0  0  0  0
   -3.8630   -0.8480    0.7410 C   0  0  0  0  0  0  0  0  0  0  0  0
   -2.6410   -0.9050   -0.0760 N   0  0  0  0  0  0  0  0  0  0  0  0
   -2.3750   -2.0110   -0.9470 C   0  0  0  0  0  0  0  0  0  0  0  0
    1.0790   -0.7550   -1.1770 N   0  0  0  0  0  0  0  0  0  0  0  0
    2.1940   -0.2800   -0.4680 C   0  0  0  0  0  0  0  0  0  0  0  0
    2.2140    1.0020    0.0190 C   0  0  0  0  0  0  0  0  0  0  0  0
    3.3100    1.4940    0.7250 C   0  0  0  0  0  0  0  0  0  0  0  0
    4.3890    0.6900    0.9410 C   0  0  0  0  0  0  0  0  0  0  0  0
    5.4860    1.1240    1.6260 N   0  0  0  0  0  0  0  0  0  0  0  0
    6.5140    0.2770    1.8010 C   0  0  0  0  0  0  0  0  0  0  0  0
    7.5420    0.6750    2.4400 O   0  0  0  0  0  0  0  0  0  0  0  0
    6.4960   -1.0030    1.3160 C   0  0  0  0  0  0  0  0  0  0  0  0
    7.4320   -1.8120    1.4620 O   0  0  0  0  0  0  0  0  0  0  0  0
    5.4280   -1.3970    0.6600 O   0  0  0  0  0  0  0  0  0  0  0  0
    4.3970   -0.5950    0.4660 C   0  0  0  0  0  0  0  0  0  0  0  0
    3.2830   -1.0730   -0.2440 C   0  0  0  0  0  0  0  0  0  0  0  0
  1  2  1  0
  2  3  1  0
  2  4  2  3
  4  5  1  0
  4 14  1  0
  5  6  2  3
  6  7  1  0
  6 12  1  0
  7  8  1  0
  8  9  1  1
  8 10  1  0
  8 11  1  0
 11 12  1  0
 12 13  1  0
 14 15  1  0
 15 16  2  0
 15 26  1  0
 16 17  1  0
 17 18  2  0
 18 19  1  0
 18 25  1  0
 19 20  1  0
 20 21  2  0
 20 22  1  0
 22 23  2  0
 22 24  1  0
 24 25  1  0
 25 26  2  0
M  END
