
     RDKit          3D

 26 27  0  0  0  0  0  0  0  0999 V2000
   -4.3340    3.8970   -0.3590 C   0  0  0  0  0  0  0  0  0  0  0  0
   -5.0150    3.0450    0.3370 C   0  0  0  0  0  0  0  0  0  0  0  0
   -4.6980    1.5810    0.3330 C   0  0  1  0  0  0  0  0  0  0  0  0
   -5.8610    0.7370    0.1410 C   0  0  0  0  0  0  0  0  0  0  0  0
   -5.7280   -0.5020   -0.2910 C   0  0  0  0  0  0  0  0  0  0  0  0
   -4.4530   -1.0540   -0.5980 N   0  0  0  0  0  0  0  0  0  0  0  0
   -4.3470   -2.4650   -0.9650 C   0  0  0  0  0  0  0  0  0  0  0  0
   -4.6940   -3.2390    0.3070 C   0  0  0  0  0  0  0  0  0  0  0  0
   -3.2740   -0.2460   -0.4510 C   0  0  0  0  0  0  0  0  0  0  0  0
   -2.1840   -0.8200   -0.3610 N   0  0  0  0  0  0  0  0  0  0  0  0
   -0.8970   -0.8970   -0.2340 C   0  0  0  0  0  0  0  0  0  0  0  0
   -0.1840   -1.8780   -0.2360 O   0  0  0  0  0  0  0  0  0  0  0  0
    0.0320    0.5740   -0.0540 N   0  0  0  0  0  0  0  0  0  0  0  0
    1.3430   -0.0560   -0.2790 C   0  0  0  0  0  0  0  0  0  0  0  0
    1.6720   -0.9130   -1.0060 O   0  0  0  0  0  0  0  0  0  0  0  0
    2.3280    0.5940    0.6110 N   0  0  0  0  0  0  0  0  0  0  0  0
    3.6560    0.2610    0.6610 C   0  0  1  0  0  0  0  0  0  0  0  0
    4.0220   -0.9450    1.4530 C   0  0  0  0  0  0  0  0  0  0  0  0
    5.4020   -1.2870    0.9480 C   0  0  0  0  0  0  0  0  0  0  0  0
    5.6690   -0.3790   -0.1730 N   0  0  0  0  0  0  0  0  0  0  0  0
    7.0180   -0.1350   -0.6860 C   0  0  0  0  0  0  0  0  0  0  0  0
    7.6450    1.0690   -0.0680 C   0  0  0  0  0  0  0  0  0  0  0  0
    9.2660    1.2880   -0.6510 Cl  0  0  0  0  0  0  0  0  0  0  0  0
    4.4100    0.1130   -0.5940 C   0  0  0  0  0  0  0  0  0  0  0  0
    4.0820    0.3460   -1.7710 O   0  0  0  0  0  0  0  0  0  0  0  0
   -3.5450    1.2000   -0.5130 C   0  0  0  0  0  0  0  0  0  0  0  0
  1  2  2  0
  3  2  1  6
  3  4  1  0
  3 26  1  0
  4  5  2  0
  5  6  1  0
  6  7  1  0
  6  9  1  0
  7  8  1  0
  9 10  2  3
  9 26  1  0
 10 11  1  0
 11 12  2  0
 11 13  1  0
 13 14  1  0
 14 15  2  0
 14 16  1  0
 17 16  1  6
 17 18  1  0
 17 24  1  0
 18 19  1  0
 19 20  1  0
 20 21  1  0
 20 24  1  0
 21 22  1  0
 22 23  1  0
 24 25  2  0
M  END
