
     RDKit          3D

 16 16  0  0  0  0  0  0  0  0999 V2000
    3.3280   -2.0150    0.2270 N   0  0  0  0  0  0  0  0  0  0  0  0
    3.4750   -0.4290   -0.5300 S   0  0  2  0  0  0  0  0  0  0  0  0
    3.1750   -0.5490   -1.9870 O   0  0  0  0  0  0  0  0  0  0  0  0
    4.8940    0.0040   -0.2920 O   0  0  0  0  0  0  0  0  0  0  0  0
    2.3780    0.5590    0.3180 N   0  0  0  0  0  0  0  0  0  0  0  0
    1.0850    0.6710   -0.3580 C   0  0  1  0  0  0  0  0  0  0  0  0
    0.1050   -0.0040    0.5480 C   0  0  0  0  0  0  0  0  0  0  0  0
   -1.2870   -0.1580    0.0870 C   0  0  0  0  0  0  0  0  0  0  0  0
   -2.1610    0.8530   -0.0660 C   0  0  0  0  0  0  0  0  0  0  0  0
   -3.5250    0.6420   -0.2860 C   0  0  0  0  0  0  0  0  0  0  0  0
   -4.0480   -0.6090   -0.3530 C   0  0  0  0  0  0  0  0  0  0  0  0
   -3.1470   -1.6550   -0.2030 C   0  0  0  0  0  0  0  0  0  0  0  0
   -1.8200   -1.4600    0.0030 C   0  0  0  0  0  0  0  0  0  0  0  0
    0.8150    2.1360   -0.3000 C   0  0  0  0  0  0  0  0  0  0  0  0
    0.8900    2.8750   -1.3360 O   0  0  0  0  0  0  0  0  0  0  0  0
    0.5040    2.7430    0.9060 O   0  0  0  0  0  0  0  0  0  0  0  0
  2  1  1  1
  2  3  2  0
  2  4  2  0
  2  5  1  0
  5  6  1  0
  6  7  1  1
  6 14  1  0
  7  8  1  0
  8  9  2  0
  8 13  1  0
  9 10  1  0
 10 11  2  0
 11 12  1  0
 12 13  2  0
 14 15  2  0
 14 16  1  0
M  END
