
     RDKit          3D

 26 27  0  0  0  0  0  0  0  0999 V2000
   -5.1600   -2.4960    0.8370 C   0  0  0  0  0  0  0  0  0  0  0  0
   -4.4570   -1.3590    0.2820 N   0  0  0  0  0  0  0  0  0  0  0  0
   -3.0880   -1.0760    0.6080 C   0  0  0  0  0  0  0  0  0  0  0  0
   -2.2780   -1.8420    1.2120 O   0  0  0  0  0  0  0  0  0  0  0  0
   -2.7720    0.2180    0.1430 N   0  0  0  0  0  0  0  0  0  0  0  0
   -1.4440    0.8230    0.0650 C   0  0  0  0  0  0  0  0  0  0  0  0
   -1.1350    1.5260    1.2960 C   0  0  0  0  0  0  0  0  0  0  0  0
   -0.2310    1.3870    2.1730 C   0  0  0  0  0  0  0  0  0  0  0  0
    0.8550    0.5050    2.3450 C   0  0  0  0  0  0  0  0  0  0  0  0
    1.6370    0.6590    3.4080 O   0  0  0  0  0  0  0  0  0  0  0  0
    1.2660   -0.5650    1.5370 N   0  0  0  0  0  0  0  0  0  0  0  0
    2.3730   -1.3500    1.8400 N   0  0  0  0  0  0  0  0  0  0  0  0
    3.5090   -1.2800    1.3290 C   0  0  0  0  0  0  0  0  0  0  0  0
    4.0410   -0.4040    0.3010 C   0  0  0  0  0  0  0  0  0  0  0  0
    3.3800    0.5370   -0.3220 C   0  0  0  0  0  0  0  0  0  0  0  0
    3.9790    1.4240   -1.3870 C   0  0  0  0  0  0  0  0  0  0  0  0
    5.1130    0.7010   -2.0580 C   0  0  0  0  0  0  0  0  0  0  0  0
    6.0050    0.1550   -0.9970 C   0  0  0  0  0  0  0  0  0  0  0  0
    7.3050    0.3840   -0.9620 C   0  0  0  0  0  0  0  0  0  0  0  0
    8.0780   -0.1720    0.0810 N   0  0  0  0  0  0  0  0  0  0  0  0
    8.0310    1.3670   -2.2070 Cl  0  0  0  0  0  0  0  0  0  0  0  0
    5.3910   -0.6200   -0.0270 O   0  0  0  0  0  0  0  0  0  0  0  0
   -4.0120    0.8460   -0.2420 C   0  0  0  0  0  0  0  0  0  0  0  0
   -4.8740   -0.3390   -0.6230 C   0  0  1  0  0  0  0  0  0  0  0  0
   -4.6340   -0.6800   -2.0700 C   0  0  0  0  0  0  0  0  0  0  0  0
   -6.3140    0.0780   -0.4290 C   0  0  0  0  0  0  0  0  0  0  0  0
  1  2  1  0
  2  3  1  0
  2 24  1  0
  3  4  2  0
  3  5  1  0
  5  6  1  0
  5 23  1  0
  6  7  1  0
  7  8  2  3
  8  9  1  0
  9 10  2  0
  9 11  1  0
 11 12  1  0
 12 13  2  3
 13 14  1  0
 14 15  2  0
 14 22  1  0
 15 16  1  0
 16 17  1  0
 17 18  1  0
 18 19  2  3
 18 22  1  0
 19 20  1  0
 19 21  1  0
 23 24  1  0
 24 25  1  6
 24 26  1  0
M  END
