
     RDKit          3D

 26 28  0  0  0  0  0  0  0  0999 V2000
    6.0580    2.0220    1.8250 C   0  0  0  0  0  0  0  0  0  0  0  0
    6.1690    0.5660    1.5890 C   0  0  0  0  0  0  0  0  0  0  0  0
    7.1770   -0.2360    1.8960 N   0  0  0  0  0  0  0  0  0  0  0  0
    6.9270   -1.4720    1.5380 N   0  0  0  0  0  0  0  0  0  0  0  0
    5.7100   -1.4920    0.9730 C   0  0  0  0  0  0  0  0  0  0  0  0
    5.1940   -0.2230    0.9850 C   0  0  0  0  0  0  0  0  0  0  0  0
    3.9400    0.2470    0.4990 N   0  0  0  0  0  0  0  0  0  0  0  0
    2.9560   -0.5430   -0.1100 C   0  0  0  0  0  0  0  0  0  0  0  0
    3.1690   -1.7700   -0.2530 O   0  0  0  0  0  0  0  0  0  0  0  0
    1.6960    0.0060   -0.5820 C   0  0  0  0  0  0  0  0  0  0  0  0
    1.2840    1.2700   -0.5240 O   0  0  0  0  0  0  0  0  0  0  0  0
    0.1000    1.4000   -1.0440 C   0  0  0  0  0  0  0  0  0  0  0  0
   -0.3350    0.1690   -1.4860 C   0  0  0  0  0  0  0  0  0  0  0  0
   -1.5830   -0.1950   -2.1330 C   0  0  0  0  0  0  0  0  0  0  0  0
   -1.6150   -0.1420   -3.3890 O   0  0  0  0  0  0  0  0  0  0  0  0
   -2.6980   -0.5870   -1.3520 N   0  0  0  0  0  0  0  0  0  0  0  0
   -3.9290   -0.9440   -2.0160 C   0  0  0  0  0  0  0  0  0  0  0  0
   -4.9620    0.0840   -1.6450 C   0  0  0  0  0  0  0  0  0  0  0  0
   -4.7340    0.7630   -0.3540 C   0  0  0  0  0  0  0  0  0  0  0  0
   -3.9230    0.0070    0.6460 C   0  0  2  0  0  0  0  0  0  0  0  0
   -3.4750    0.8990    1.7740 C   0  0  0  0  0  0  0  0  0  0  0  0
   -4.5690    1.4900    2.4960 N   0  0  0  0  0  0  0  0  0  0  0  0
   -4.0930    2.5060    3.7800 Cl  0  0  0  0  0  0  0  0  0  0  0  0
   -2.7110   -0.6640    0.0880 C   0  0  0  0  0  0  0  0  0  0  0  0
    0.6850   -0.7070   -1.1890 C   0  0  0  0  0  0  0  0  0  0  0  0
    0.6900   -2.1830   -1.4760 C   0  0  0  0  0  0  0  0  0  0  0  0
  1  2  1  0
  2  3  2  0
  2  6  1  0
  3  4  1  0
  4  5  1  0
  5  6  2  0
  6  7  1  0
  7  8  1  0
  8  9  2  0
  8 10  1  0
 10 11  1  0
 10 25  2  0
 11 12  1  0
 12 13  2  0
 13 14  1  0
 13 25  1  0
 14 15  2  0
 14 16  1  0
 16 17  1  0
 16 24  1  0
 17 18  1  0
 18 19  1  0
 19 20  1  0
 20 21  1  1
 20 24  1  0
 21 22  1  0
 22 23  1  0
 25 26  1  0
M  END
