
     RDKit          3D

 43 46  0  0  0  0  0  0  0  0999 V2000
    0.9520   -5.7250    1.2250 C   0  0  0  0  0  0  0  0  0  0  0  0
    1.1470   -5.4740   -0.2530 C   0  0  0  0  0  0  0  0  0  0  0  0
    1.9880   -4.3550   -0.4830 O   0  0  0  0  0  0  0  0  0  0  0  0
    1.6020   -3.0910    0.0080 C   0  0  0  0  0  0  0  0  0  0  0  0
    0.5170   -3.0310    0.6320 O   0  0  0  0  0  0  0  0  0  0  0  0
    2.3480   -1.9810   -0.1720 O   0  0  0  0  0  0  0  0  0  0  0  0
    2.1470   -0.7030    0.2070 C   0  0  0  0  0  0  0  0  0  0  0  0
    1.0200    0.0980   -0.3240 C   0  0  1  0  0  0  0  0  0  0  0  0
    0.9060    0.2010   -1.8030 C   0  0  0  0  0  0  0  0  0  0  0  0
    2.0960    0.8230   -2.4860 C   0  0  0  0  0  0  0  0  0  0  0  0
    3.2080    0.0660   -2.2430 O   0  0  0  0  0  0  0  0  0  0  0  0
    4.3740    0.5420   -2.8140 C   0  0  0  0  0  0  0  0  0  0  0  0
    4.7450    1.9130   -2.3440 C   0  0  0  0  0  0  0  0  0  0  0  0
    4.9300    1.9140   -0.9460 O   0  0  0  0  0  0  0  0  0  0  0  0
    5.8560    1.1710   -0.2630 C   0  0  0  0  0  0  0  0  0  0  0  0
    6.6200    0.4210   -0.8830 O   0  0  0  0  0  0  0  0  0  0  0  0
    5.9980    1.2090    1.1560 N   0  0  0  0  0  0  0  0  0  0  0  0
    6.9800    0.4200    1.8690 C   0  0  0  0  0  0  0  0  0  0  0  0
    8.3950    0.7150    1.4680 C   0  0  0  0  0  0  0  0  0  0  0  0
    9.2290   -0.1160    2.2340 O   0  0  0  0  0  0  0  0  0  0  0  0
   -0.3570   -0.2740    0.2080 C   0  0  0  0  0  0  0  0  0  0  0  0
   -1.1080    0.9700    0.0950 N   0  0  0  0  0  0  0  0  0  0  0  0
   -2.4950    1.2380    0.1470 C   0  0  0  0  0  0  0  0  0  0  0  0
   -2.8760    2.4640   -0.0470 O   0  0  0  0  0  0  0  0  0  0  0  0
   -3.5450    0.3430    0.3840 N   0  0  0  0  0  0  0  0  0  0  0  0
   -3.4060   -1.0520    0.7010 C   0  0  0  0  0  0  0  0  0  0  0  0
   -4.3110   -1.3440    1.9050 C   0  0  0  0  0  0  0  0  0  0  0  0
   -5.6230   -1.0770    1.6350 O   0  0  0  0  0  0  0  0  0  0  0  0
   -5.8060   -0.4480    0.4060 C   0  0  0  0  0  0  0  0  0  0  0  0
   -4.9520    0.7940    0.2860 C   0  0  1  0  0  0  0  0  0  0  0  0
   -5.2860    1.7840    1.3420 C   0  0  0  0  0  0  0  0  0  0  0  0
   -6.6950    1.8890    1.4960 O   0  0  0  0  0  0  0  0  0  0  0  0
   -7.6590    2.3420    0.5990 C   0  0  0  0  0  0  0  0  0  0  0  0
   -8.9210    2.8010    0.8710 C   0  0  0  0  0  0  0  0  0  0  0  0
   -9.4630    3.1160   -0.2710 O   0  0  0  0  0  0  0  0  0  0  0  0
   -8.6360    2.8920   -1.2550 N   0  0  0  0  0  0  0  0  0  0  0  0
   -7.4690    2.4000   -0.7810 C   0  0  0  0  0  0  0  0  0  0  0  0
   -6.3300    2.0350   -1.5290 N   0  0  0  0  0  0  0  0  0  0  0  0
   -5.1580    1.3660   -1.0860 C   0  0  0  0  0  0  0  0  0  0  0  0
   -4.2300    1.2550   -1.9300 O   0  0  0  0  0  0  0  0  0  0  0  0
   -0.1240    2.0250   -0.0560 C   0  0  0  0  0  0  0  0  0  0  0  0
   -0.3680    3.2130   -0.3720 O   0  0  0  0  0  0  0  0  0  0  0  0
    1.1530    1.4690    0.2170 N   0  0  0  0  0  0  0  0  0  0  0  0
  1  2  1  0
  2  3  1  0
  3  4  1  0
  4  5  2  0
  4  6  1  0
  6  7  1  0
  8  7  1  6
  8  9  1  0
  8 21  1  0
  8 43  1  0
  9 10  1  0
 10 11  1  0
 11 12  1  0
 12 13  1  0
 13 14  1  0
 14 15  1  0
 15 16  2  0
 15 17  1  0
 17 18  1  0
 18 19  1  0
 19 20  1  0
 21 22  1  0
 22 23  1  0
 22 41  1  0
 23 24  2  0
 23 25  1  0
 25 26  1  0
 25 30  1  0
 26 27  1  0
 27 28  1  0
 28 29  1  0
 30 29  1  1
 30 31  1  0
 30 39  1  0
 31 32  1  0
 32 33  1  0
 33 34  2  0
 33 37  1  0
 34 35  1  0
 35 36  1  0
 36 37  2  0
 37 38  1  0
 38 39  1  0
 39 40  2  0
 41 42  2  0
 41 43  1  0
M  END
