
     RDKit          3D

 43 45  0  0  0  0  0  0  0  0999 V2000
    7.4930    2.1530    2.3810 C   0  0  0  0  0  0  0  0  0  0  0  0
    6.3820    2.9420    1.7250 C   0  0  0  0  0  0  0  0  0  0  0  0
    5.7320    2.2260    0.6740 N   0  0  0  0  0  0  0  0  0  0  0  0
    6.0150    2.1600   -0.7460 C   0  0  0  0  0  0  0  0  0  0  0  0
    5.6800    0.7160   -1.0510 C   0  0  0  0  0  0  0  0  0  0  0  0
    4.4840    0.5030   -0.2620 N   0  0  0  0  0  0  0  0  0  0  0  0
    3.4620   -0.3730   -0.5470 O   0  0  0  0  0  0  0  0  0  0  0  0
    2.1220    0.0490   -0.5530 C   0  0  0  0  0  0  0  0  0  0  0  0
    1.9510    1.2470   -0.2870 O   0  0  0  0  0  0  0  0  0  0  0  0
    1.0700   -0.8210   -0.8390 N   0  0  0  0  0  0  0  0  0  0  0  0
    1.4310   -2.2150   -1.2070 C   0  0  0  0  0  0  0  0  0  0  0  0
    0.7380   -2.6290   -2.4860 C   0  0  0  0  0  0  0  0  0  0  0  0
    0.1350   -1.4610   -3.0810 N   0  0  0  0  0  0  0  0  0  0  0  0
   -0.6940   -0.5590   -2.3440 C   0  0  0  0  0  0  0  0  0  0  0  0
   -1.5870    0.1280   -2.8740 O   0  0  0  0  0  0  0  0  0  0  0  0
   -0.3630   -0.5360   -0.8670 C   0  0  1  0  0  0  0  0  0  0  0  0
   -0.9930   -1.7620   -0.2530 C   0  0  0  0  0  0  0  0  0  0  0  0
   -0.4880   -2.1940    0.8010 O   0  0  0  0  0  0  0  0  0  0  0  0
   -2.0940   -2.4420   -0.7850 N   0  0  0  0  0  0  0  0  0  0  0  0
   -2.7490   -3.5760   -0.2670 C   0  0  0  0  0  0  0  0  0  0  0  0
   -3.8400   -4.0870   -0.9880 C   0  0  0  0  0  0  0  0  0  0  0  0
   -4.5480   -5.1860   -0.5750 C   0  0  0  0  0  0  0  0  0  0  0  0
   -4.2210   -5.8460    0.5750 C   0  0  0  0  0  0  0  0  0  0  0  0
   -3.1560   -5.3670    1.3010 C   0  0  0  0  0  0  0  0  0  0  0  0
   -2.4370   -4.2480    0.8780 C   0  0  0  0  0  0  0  0  0  0  0  0
   -0.8000    0.6650   -0.1560 C   0  0  2  0  0  0  0  0  0  0  0  0
   -0.5450    0.7290    1.3090 C   0  0  0  0  0  0  0  0  0  0  0  0
    0.0900    1.6880    1.8650 O   0  0  0  0  0  0  0  0  0  0  0  0
   -0.9750   -0.2390    2.2220 O   0  0  0  0  0  0  0  0  0  0  0  0
   -0.7270   -0.1560    3.6080 C   0  0  0  0  0  0  0  0  0  0  0  0
   -2.2530    0.9850   -0.2780 C   0  0  0  0  0  0  0  0  0  0  0  0
   -3.0450    0.2010   -0.7900 O   0  0  0  0  0  0  0  0  0  0  0  0
   -2.7390    2.2140    0.2050 O   0  0  0  0  0  0  0  0  0  0  0  0
   -4.0930    2.4890    0.0840 C   0  0  0  0  0  0  0  0  0  0  0  0
   -4.8310    1.6350   -0.4500 O   0  0  0  0  0  0  0  0  0  0  0  0
   -4.6610    3.7610    0.5710 C   0  0  0  0  0  0  0  0  0  0  0  0
   -3.9640    4.6390    1.1040 O   0  0  0  0  0  0  0  0  0  0  0  0
   -6.0530    3.9840    0.4240 N   0  0  0  0  0  0  0  0  0  0  0  0
   -6.6670    5.2070    0.8800 C   0  0  0  0  0  0  0  0  0  0  0  0
   -5.9420    6.0840    1.4160 O   0  0  0  0  0  0  0  0  0  0  0  0
   -8.0280    5.3800    0.7170 O   0  0  0  0  0  0  0  0  0  0  0  0
    4.5940    1.3800    0.8540 C   0  0  0  0  0  0  0  0  0  0  0  0
    3.8080    1.4040    1.8430 O   0  0  0  0  0  0  0  0  0  0  0  0
  1  2  1  0
  2  3  1  0
  3  4  1  0
  3 42  1  0
  4  5  1  0
  5  6  1  0
  6  7  1  0
  6 42  1  0
  7  8  1  0
  8  9  2  0
  8 10  1  0
 10 11  1  0
 10 16  1  0
 11 12  1  0
 12 13  1  0
 13 14  1  0
 14 15  2  0
 14 16  1  0
 16 17  1  1
 16 26  1  0
 17 18  2  0
 17 19  1  0
 19 20  1  0
 20 21  2  0
 20 25  1  0
 21 22  1  0
 22 23  2  0
 23 24  1  0
 24 25  2  0
 26 27  1  1
 26 31  1  0
 27 28  2  0
 27 29  1  0
 29 30  1  0
 31 32  2  0
 31 33  1  0
 33 34  1  0
 34 35  2  0
 34 36  1  0
 36 37  2  0
 36 38  1  0
 38 39  1  0
 39 40  2  0
 39 41  1  0
 42 43  2  0
M  END
