
     RDKit          3D

 44 48  0  0  0  0  0  0  0  0999 V2000
  -10.4000   -2.5060    0.7710 N   0  0  0  0  0  0  0  0  0  0  0  0
   -9.9380   -1.4180    0.0480 C   0  0  0  0  0  0  0  0  0  0  0  0
  -10.3760   -1.3370   -1.1380 O   0  0  0  0  0  0  0  0  0  0  0  0
   -9.0820   -0.3160    0.3720 C   0  0  0  0  0  0  0  0  0  0  0  0
   -9.3580    0.9650    0.6220 C   0  0  0  0  0  0  0  0  0  0  0  0
   -8.3870    1.8980    0.7560 C   0  0  0  0  0  0  0  0  0  0  0  0
   -7.0680    1.5480    0.5900 C   0  0  0  0  0  0  0  0  0  0  0  0
   -6.7660    0.2600    0.3840 N   0  0  0  0  0  0  0  0  0  0  0  0
   -5.4390   -0.0680   -0.1260 C   0  0  2  0  0  0  0  0  0  0  0  0
   -4.4120    0.5640    0.5400 O   0  0  0  0  0  0  0  0  0  0  0  0
   -3.4330    0.7260   -0.3140 C   0  0  2  0  0  0  0  0  0  0  0  0
   -2.5140    1.9350   -0.3290 C   0  0  0  0  0  0  0  0  0  0  0  0
   -1.6020    1.8420    0.7100 O   0  0  0  0  0  0  0  0  0  0  0  0
   -0.0750    2.2290   -0.0780 P   0  0  1  0  0  0  0  0  0  0  0  0
   -0.1370    3.4630   -0.8200 O   0  0  0  0  0  0  0  0  0  0  0  0
    1.0900    2.2530    1.0950 O   0  0  0  0  0  0  0  0  0  0  0  0
    0.1710    0.8520   -1.1350 O   0  0  0  0  0  0  0  0  0  0  0  0
    1.7030    0.2900   -1.0690 P   0  0  1  0  0  0  0  0  0  0  0  0
    2.4170    0.7180   -2.4040 O   0  0  0  0  0  0  0  0  0  0  0  0
    2.6300    1.0490    0.1400 O   0  0  0  0  0  0  0  0  0  0  0  0
    1.9500   -1.3880   -0.9930 O   0  0  0  0  0  0  0  0  0  0  0  0
    2.4660   -1.7020    0.2540 C   0  0  0  0  0  0  0  0  0  0  0  0
    3.8940   -2.2550    0.0470 C   0  0  1  0  0  0  0  0  0  0  0  0
    4.7710   -1.1640   -0.2180 O   0  0  0  0  0  0  0  0  0  0  0  0
    5.7920   -1.2680    0.6540 C   0  0  1  0  0  0  0  0  0  0  0  0
    6.6840   -0.1740    0.8600 N   0  0  0  0  0  0  0  0  0  0  0  0
    7.5000    0.0170    1.8680 C   0  0  0  0  0  0  0  0  0  0  0  0
    8.3620    0.9150    1.5750 N   0  0  0  0  0  0  0  0  0  0  0  0
    8.2860    1.3290    0.4040 C   0  0  0  0  0  0  0  0  0  0  0  0
    9.0010    1.9960   -0.6170 C   0  0  0  0  0  0  0  0  0  0  0  0
   10.3650    2.4110   -0.4100 N   0  0  0  0  0  0  0  0  0  0  0  0
    8.5930    2.0020   -1.7980 N   0  0  0  0  0  0  0  0  0  0  0  0
    7.5390    1.4040   -2.3960 C   0  0  0  0  0  0  0  0  0  0  0  0
    6.8620    0.7560   -1.3770 N   0  0  0  0  0  0  0  0  0  0  0  0
    7.0470    0.6190   -0.1530 C   0  0  0  0  0  0  0  0  0  0  0  0
    5.2400   -1.8820    1.8970 C   0  0  2  0  0  0  0  0  0  0  0  0
    6.1530   -2.4370    2.7700 O   0  0  0  0  0  0  0  0  0  0  0  0
    4.3290   -2.9460    1.2760 C   0  0  2  0  0  0  0  0  0  0  0  0
    5.1240   -4.0160    0.8830 O   0  0  0  0  0  0  0  0  0  0  0  0
   -3.8310    0.5420   -1.7520 C   0  0  1  0  0  0  0  0  0  0  0  0
   -3.4360   -0.6780   -2.2580 O   0  0  0  0  0  0  0  0  0  0  0  0
   -5.3490    0.5670   -1.5570 C   0  0  1  0  0  0  0  0  0  0  0  0
   -5.9850   -0.1640   -2.5280 O   0  0  0  0  0  0  0  0  0  0  0  0
   -7.6840   -0.6740    0.2920 C   0  0  0  0  0  0  0  0  0  0  0  0
  1  2  1  0
  2  3  2  0
  2  4  1  0
  4  5  2  0
  4 44  1  0
  5  6  1  0
  6  7  2  0
  7  8  1  0
  9  8  1  1
  8 44  2  0
  9 10  1  0
  9 42  1  0
 10 11  1  0
 11 12  1  6
 11 40  1  0
 12 13  1  0
 13 14  1  0
 14 15  2  0
 14 16  1  1
 14 17  1  0
 17 18  1  0
 18 19  2  0
 18 20  1  1
 18 21  1  0
 21 22  1  0
 23 22  1  1
 23 24  1  0
 23 38  1  0
 24 25  1  0
 25 26  1  1
 25 36  1  0
 26 27  1  0
 26 35  1  0
 27 28  2  0
 28 29  1  0
 29 30  2  0
 29 35  1  0
 30 31  1  0
 30 32  1  0
 32 33  2  0
 33 34  1  0
 34 35  2  0
 36 37  1  1
 36 38  1  0
 38 39  1  6
 40 41  1  1
 40 42  1  0
 42 43  1  6
M  CHG  2   8   1  16  -1
M  END
