
     RDKit          3D

 43 45  0  0  0  0  0  0  0  0999 V2000
   -0.6970   -2.6800   -2.1730 C   0  0  0  0  0  0  0  0  0  0  0  0
   -0.7320   -1.7660   -1.0050 C   0  0  1  0  0  0  0  0  0  0  0  0
   -1.6510   -2.3030    0.0610 C   0  0  0  0  0  0  0  0  0  0  0  0
   -3.1070   -2.3020   -0.2420 C   0  0  0  0  0  0  0  0  0  0  0  0
   -3.6670   -1.0770    0.3650 N   0  0  0  0  0  0  0  0  0  0  0  0
   -4.7860   -1.1570    1.2340 C   0  0  0  0  0  0  0  0  0  0  0  0
   -6.0860   -1.0450    0.5080 C   0  0  0  0  0  0  0  0  0  0  0  0
   -7.2660   -1.1320    1.4690 C   0  0  0  0  0  0  0  0  0  0  0  0
   -7.2110   -0.1080    2.4060 O   0  0  0  0  0  0  0  0  0  0  0  0
   -8.2560   -0.2420    3.1990 O   0  0  0  0  0  0  0  0  0  0  0  0
   -3.0730    0.2170    0.0740 C   0  0  0  0  0  0  0  0  0  0  0  0
   -3.8010    1.1910    0.3730 O   0  0  0  0  0  0  0  0  0  0  0  0
   -1.7650    0.5200   -0.5090 N   0  0  0  0  0  0  0  0  0  0  0  0
   -1.2920    1.7490    0.0730 C   0  0  0  0  0  0  0  0  0  0  0  0
   -1.4360    2.9930   -0.7460 C   0  0  2  0  0  0  0  0  0  0  0  0
   -1.2030    2.8190   -2.1540 N   0  0  0  0  0  0  0  0  0  0  0  0
   -2.1910    3.1180   -3.1320 C   0  0  0  0  0  0  0  0  0  0  0  0
   -3.3150    3.5500   -2.7820 O   0  0  0  0  0  0  0  0  0  0  0  0
   -1.9470    2.9430   -4.4830 O   0  0  0  0  0  0  0  0  0  0  0  0
   -0.4220    3.9910   -0.1680 C   0  0  0  0  0  0  0  0  0  0  0  0
    0.8250    4.1090   -0.9680 C   0  0  0  0  0  0  0  0  0  0  0  0
    1.8820    3.0720   -0.6440 C   0  0  0  0  0  0  0  0  0  0  0  0
    2.1450    3.0650    0.6980 O   0  0  0  0  0  0  0  0  0  0  0  0
    2.5600    1.8400    1.2150 C   0  0  0  0  0  0  0  0  0  0  0  0
    4.0260    1.7210    1.0960 C   0  0  0  0  0  0  0  0  0  0  0  0
    4.6960    1.1150    2.2170 N   0  0  0  0  0  0  0  0  0  0  0  0
    5.4230   -0.0940    2.2390 C   0  0  0  0  0  0  0  0  0  0  0  0
    6.4510   -0.2300    2.9550 O   0  0  0  0  0  0  0  0  0  0  0  0
    5.0750   -1.3020    1.4520 C   0  0  0  0  0  0  0  0  0  0  0  0
    3.8760   -1.4920    0.9930 O   0  0  0  0  0  0  0  0  0  0  0  0
    3.7670   -2.5910    0.3380 N   0  0  0  0  0  0  0  0  0  0  0  0
    4.9590   -3.1870    0.3480 C   0  0  0  0  0  0  0  0  0  0  0  0
    5.2320   -4.2830   -0.1940 O   0  0  0  0  0  0  0  0  0  0  0  0
    5.8270   -2.3890    1.0550 C   0  0  0  0  0  0  0  0  0  0  0  0
    7.2120   -2.6040    1.3340 N   0  0  0  0  0  0  0  0  0  0  0  0
    8.1870   -2.1170    0.4150 C   0  0  0  0  0  0  0  0  0  0  0  0
    7.8090   -1.5110   -0.6210 O   0  0  0  0  0  0  0  0  0  0  0  0
    2.4640   -2.9530   -0.2580 C   0  0  0  0  0  0  0  0  0  0  0  0
    1.7720   -1.6980   -0.6990 C   0  0  0  0  0  0  0  0  0  0  0  0
    2.5350   -0.9250   -1.3570 O   0  0  0  0  0  0  0  0  0  0  0  0
    0.4990   -1.5020   -0.3880 O   0  0  0  0  0  0  0  0  0  0  0  0
   -1.1700   -0.3500   -1.4240 C   0  0  0  0  0  0  0  0  0  0  0  0
   -0.8950   -0.1860   -2.6480 O   0  0  0  0  0  0  0  0  0  0  0  0
  2  1  1  6
  2  3  1  0
  2 41  1  0
  2 42  1  0
  3  4  1  0
  4  5  1  0
  5  6  1  0
  5 11  1  0
  6  7  1  0
  7  8  1  0
  8  9  1  0
  9 10  1  0
 11 12  2  0
 11 13  1  0
 13 14  1  0
 13 42  1  0
 14 15  1  0
 15 16  1  6
 15 20  1  0
 16 17  1  0
 17 18  2  0
 17 19  1  0
 20 21  1  0
 21 22  1  0
 22 23  1  0
 23 24  1  0
 24 25  1  0
 25 26  1  0
 26 27  1  0
 27 28  2  0
 27 29  1  0
 29 30  1  0
 29 34  2  0
 30 31  1  0
 31 32  1  0
 31 38  1  0
 32 33  2  0
 32 34  1  0
 34 35  1  0
 35 36  1  0
 36 37  2  0
 38 39  1  0
 39 40  2  0
 39 41  1  0
 42 43  2  0
M  END
