
     RDKit          3D

 43 47  0  0  0  0  0  0  0  0999 V2000
   -0.8860   -3.4150   -2.9820 O   0  0  0  0  0  0  0  0  0  0  0  0
   -0.0160   -3.4430   -2.0690 C   0  0  0  0  0  0  0  0  0  0  0  0
    0.8280   -2.3100   -1.9520 N   0  0  0  0  0  0  0  0  0  0  0  0
    1.6940   -2.0050   -0.8970 C   0  0  0  0  0  0  0  0  0  0  0  0
    1.6930   -0.6280   -0.3000 C   0  0  1  0  0  0  0  0  0  0  0  0
    2.9960   -0.6090    0.4610 C   0  0  0  0  0  0  0  0  0  0  0  0
    3.6050    0.4970    0.9070 O   0  0  0  0  0  0  0  0  0  0  0  0
    4.3620    1.4860    0.3720 C   0  0  0  0  0  0  0  0  0  0  0  0
    4.6630    1.4630   -0.8390 O   0  0  0  0  0  0  0  0  0  0  0  0
    4.8910    2.6580    1.1560 C   0  0  2  0  0  0  0  0  0  0  0  0
    6.3830    2.6170    1.1860 C   0  0  0  0  0  0  0  0  0  0  0  0
    6.6970    2.9500    2.4780 O   0  0  0  0  0  0  0  0  0  0  0  0
    5.5700    2.9240    3.2590 C   0  0  0  0  0  0  0  0  0  0  0  0
    4.4920    2.5700    2.4860 O   0  0  0  0  0  0  0  0  0  0  0  0
    1.7780    0.4430   -1.4000 C   0  0  0  0  0  0  0  0  0  0  0  0
    1.8180    1.6850   -0.8730 O   0  0  0  0  0  0  0  0  0  0  0  0
    1.0230    2.0720    0.1350 C   0  0  0  0  0  0  0  0  0  0  0  0
    0.8600    1.0280    1.2160 C   0  0  0  0  0  0  0  0  0  0  0  0
    0.5430   -0.1990    0.4270 N   0  0  0  0  0  0  0  0  0  0  0  0
   -0.7800   -0.7150    0.4910 C   0  0  0  0  0  0  0  0  0  0  0  0
   -1.1310   -0.9830    1.6820 O   0  0  0  0  0  0  0  0  0  0  0  0
   -1.7710   -0.9740   -0.5320 C   0  0  2  0  0  0  0  0  0  0  0  0
   -2.6920    0.2460   -0.5580 C   0  0  0  0  0  0  0  0  0  0  0  0
   -3.1690    0.7330   -1.7550 C   0  0  0  0  0  0  0  0  0  0  0  0
   -4.0060    1.8220   -1.8690 C   0  0  0  0  0  0  0  0  0  0  0  0
   -4.3810    2.4510   -0.7140 C   0  0  0  0  0  0  0  0  0  0  0  0
   -5.2210    3.5590   -0.6960 O   0  0  0  0  0  0  0  0  0  0  0  0
   -6.5430    3.3090   -0.6030 O   0  0  0  0  0  0  0  0  0  0  0  0
   -7.1320    3.9880   -1.5590 O   0  0  0  0  0  0  0  0  0  0  0  0
   -6.9030    5.2870   -1.3820 O   0  0  0  0  0  0  0  0  0  0  0  0
   -3.9270    1.9960    0.5060 C   0  0  0  0  0  0  0  0  0  0  0  0
   -3.0840    0.8940    0.5730 C   0  0  0  0  0  0  0  0  0  0  0  0
   -2.6420   -2.1110   -0.3480 N   0  0  0  0  0  0  0  0  0  0  0  0
   -3.8070   -2.2340   -1.0760 C   0  0  0  0  0  0  0  0  0  0  0  0
   -4.4250   -3.3730   -0.7050 C   0  0  0  0  0  0  0  0  0  0  0  0
   -3.6730   -3.9300    0.2130 N   0  0  0  0  0  0  0  0  0  0  0  0
   -2.5620   -3.1450    0.4370 C   0  0  0  0  0  0  0  0  0  0  0  0
   -1.5790   -3.5380    1.3940 N   0  0  0  0  0  0  0  0  0  0  0  0
   -0.2760   -3.9950    1.2130 C   0  0  0  0  0  0  0  0  0  0  0  0
    0.5500   -3.7490    2.1770 O   0  0  0  0  0  0  0  0  0  0  0  0
    0.3140   -4.7130    0.1000 C   0  0  0  0  0  0  0  0  0  0  0  0
    1.2230   -5.5730    0.4130 O   0  0  0  0  0  0  0  0  0  0  0  0
    0.0250   -4.5910   -1.2650 N   0  0  0  0  0  0  0  0  0  0  0  0
  1  2  2  0
  2  3  1  0
  2 43  1  0
  3  4  1  0
  4  5  1  0
  5  6  1  1
  5 15  1  0
  5 19  1  0
  6  7  1  0
  7  8  1  0
  8  9  2  0
 10  8  1  6
 10 11  1  0
 10 14  1  0
 11 12  1  0
 12 13  1  0
 13 14  1  0
 15 16  1  0
 16 17  1  0
 17 18  1  0
 18 19  1  0
 19 20  1  0
 20 21  2  0
 20 22  1  0
 22 23  1  1
 22 33  1  0
 23 24  2  0
 23 32  1  0
 24 25  1  0
 25 26  2  0
 26 27  1  0
 26 31  1  0
 27 28  1  0
 28 29  1  0
 29 30  1  0
 31 32  2  0
 33 34  1  0
 33 37  1  0
 34 35  2  0
 35 36  1  0
 36 37  2  0
 37 38  1  0
 38 39  1  0
 39 40  2  0
 39 41  1  0
 41 42  2  0
 41 43  1  0
M  END
