
     RDKit          3D

 43 46  0  0  0  0  0  0  0  0999 V2000
   -2.1960    6.2450   -1.5380 C   0  0  0  0  0  0  0  0  0  0  0  0
   -2.5410    5.0700   -2.2320 O   0  0  0  0  0  0  0  0  0  0  0  0
   -3.7220    4.4510   -2.0220 N   0  0  0  0  0  0  0  0  0  0  0  0
   -3.7720    3.3380   -1.3170 C   0  0  0  0  0  0  0  0  0  0  0  0
   -2.5280    2.8340   -0.8010 C   0  0  0  0  0  0  0  0  0  0  0  0
   -2.3650    1.7270   -0.0700 C   0  0  0  0  0  0  0  0  0  0  0  0
   -3.5520    0.9310    0.2540 C   0  0  0  0  0  0  0  0  0  0  0  0
   -3.5150   -0.4120    0.4160 C   0  0  0  0  0  0  0  0  0  0  0  0
   -2.3390   -1.0970    0.2880 O   0  0  0  0  0  0  0  0  0  0  0  0
   -2.5760   -2.4650    0.1960 C   0  0  2  0  0  0  0  0  0  0  0  0
   -2.4800   -2.9560   -1.2060 C   0  0  0  0  0  0  0  0  0  0  0  0
   -1.4590   -2.2200   -2.0590 C   0  0  0  0  0  0  0  0  0  0  0  0
   -0.2830   -1.7190   -1.2940 C   0  0  0  0  0  0  0  0  0  0  0  0
    0.9690   -2.3540   -1.7470 N   0  0  0  0  0  0  0  0  0  0  0  0
    2.0630   -2.4920   -0.8090 C   0  0  0  0  0  0  0  0  0  0  0  0
    2.8520   -3.4700   -1.0610 O   0  0  0  0  0  0  0  0  0  0  0  0
    2.1460   -1.6130    0.2040 O   0  0  0  0  0  0  0  0  0  0  0  0
    2.5450   -0.2950    0.3310 C   0  0  1  0  0  0  0  0  0  0  0  0
    1.5730    0.6350    0.2470 O   0  0  0  0  0  0  0  0  0  0  0  0
    1.0460    1.2670    1.3020 C   0  0  2  0  0  0  0  0  0  0  0  0
    1.7780    1.1790    2.6130 C   0  0  0  0  0  0  0  0  0  0  0  0
    3.2890    1.0360    2.3420 C   0  0  0  0  0  0  0  0  0  0  0  0
    3.4160   -0.2530    1.5850 C   0  0  2  0  0  0  0  0  0  0  0  0
    4.8020   -0.5050    1.2370 N   0  0  0  0  0  0  0  0  0  0  0  0
    5.6410   -1.5650    1.7390 C   0  0  0  0  0  0  0  0  0  0  0  0
    7.0600   -1.1050    1.4510 C   0  0  0  0  0  0  0  0  0  0  0  0
    6.8450   -0.3730    0.2050 N   0  0  0  0  0  0  0  0  0  0  0  0
    7.7060   -0.3060   -0.9130 C   0  0  0  0  0  0  0  0  0  0  0  0
    8.2020    0.7810   -1.3800 N   0  0  0  0  0  0  0  0  0  0  0  0
    5.5780    0.2650    0.3270 C   0  0  0  0  0  0  0  0  0  0  0  0
    5.2190    1.3060   -0.2620 O   0  0  0  0  0  0  0  0  0  0  0  0
   -0.4590    1.0630    1.5020 C   0  0  0  0  0  0  0  0  0  0  0  0
   -1.1690    1.3330    0.3650 O   0  0  0  0  0  0  0  0  0  0  0  0
   -3.8820   -2.6770    0.7630 N   0  0  0  0  0  0  0  0  0  0  0  0
   -4.4600   -3.8610    1.3240 C   0  0  0  0  0  0  0  0  0  0  0  0
   -5.1780   -4.5850    0.4340 O   0  0  0  0  0  0  0  0  0  0  0  0
   -4.5170   -5.0380   -0.5790 O   0  0  0  0  0  0  0  0  0  0  0  0
   -4.5390   -1.3860    0.7200 C   0  0  0  0  0  0  0  0  0  0  0  0
   -5.7710   -1.2020    0.9180 O   0  0  0  0  0  0  0  0  0  0  0  0
   -5.0300    2.8190   -1.1790 O   0  0  0  0  0  0  0  0  0  0  0  0
   -6.1590    3.3950   -1.7380 C   0  0  0  0  0  0  0  0  0  0  0  0
   -6.0040    4.4690   -2.4140 O   0  0  0  0  0  0  0  0  0  0  0  0
   -7.4340    2.8780   -1.6080 O   0  0  0  0  0  0  0  0  0  0  0  0
  1  2  1  0
  2  3  1  0
  3  4  2  3
  4  5  1  0
  4 40  1  0
  5  6  2  3
  6  7  1  0
  6 33  1  0
  7  8  2  0
  8  9  1  0
  8 38  1  0
  9 10  1  0
 10 11  1  6
 10 34  1  0
 11 12  1  0
 12 13  1  0
 13 14  1  0
 14 15  1  0
 15 16  2  0
 15 17  1  0
 18 17  1  1
 18 19  1  0
 18 23  1  0
 19 20  1  0
 20 21  1  1
 20 32  1  0
 21 22  1  0
 22 23  1  0
 23 24  1  6
 24 25  1  0
 24 30  1  0
 25 26  1  0
 26 27  1  0
 27 28  1  0
 27 30  1  0
 28 29  2  0
 30 31  2  0
 32 33  1  0
 34 35  1  0
 34 38  1  0
 35 36  1  0
 36 37  1  0
 38 39  2  0
 40 41  1  0
 41 42  2  0
 41 43  1  0
M  END
