
     RDKit          3D

 43 45  0  0  0  0  0  0  0  0999 V2000
    3.9220   -0.4940    2.0990 C   0  0  0  0  0  0  0  0  0  0  0  0
    4.1120   -1.1860    0.7660 C   0  0  1  0  0  0  0  0  0  0  0  0
    4.8500   -2.5010    0.9500 C   0  0  0  0  0  0  0  0  0  0  0  0
    2.8550   -1.4440    0.1820 O   0  0  0  0  0  0  0  0  0  0  0  0
    1.9650   -0.3870   -0.1040 C   0  0  0  0  0  0  0  0  0  0  0  0
    2.3650    0.7440    0.1990 O   0  0  0  0  0  0  0  0  0  0  0  0
    0.6730   -0.7490   -0.7320 C   0  0  2  0  0  0  0  0  0  0  0  0
    1.0420   -1.1690   -2.1380 C   0  0  0  0  0  0  0  0  0  0  0  0
    1.2360    0.1090   -2.9530 C   0  0  0  0  0  0  0  0  0  0  0  0
   -0.0900    0.6890   -3.0200 N   0  0  0  0  0  0  0  0  0  0  0  0
   -0.7560    1.0400   -1.8220 C   0  0  0  0  0  0  0  0  0  0  0  0
   -0.3380    0.3050   -0.5880 C   0  0  2  0  0  0  0  0  0  0  0  0
    0.1780    1.2830    0.4450 C   0  0  0  0  0  0  0  0  0  0  0  0
    0.4640    2.4380    0.1220 O   0  0  0  0  0  0  0  0  0  0  0  0
    0.3030    0.8100    1.7650 N   0  0  0  0  0  0  0  0  0  0  0  0
    0.7760    1.6520    2.8540 C   0  0  0  0  0  0  0  0  0  0  0  0
    0.7880    0.8690    4.1470 C   0  0  0  0  0  0  0  0  0  0  0  0
    1.2360    1.6430    5.2130 O   0  0  0  0  0  0  0  0  0  0  0  0
   -1.6200   -0.1720    0.0430 C   0  0  0  0  0  0  0  0  0  0  0  0
   -1.9930    0.5860    1.2010 N   0  0  0  0  0  0  0  0  0  0  0  0
   -3.1660    1.0180    1.4150 C   0  0  0  0  0  0  0  0  0  0  0  0
   -4.2330    0.7990    0.5330 O   0  0  0  0  0  0  0  0  0  0  0  0
   -3.4440    1.7920    2.6480 C   0  0  0  0  0  0  0  0  0  0  0  0
   -3.9270    3.1100    2.3010 N   0  0  0  0  0  0  0  0  0  0  0  0
   -4.2540    4.0170    3.3280 C   0  0  0  0  0  0  0  0  0  0  0  0
   -4.1270    3.6840    4.5180 O   0  0  0  0  0  0  0  0  0  0  0  0
   -4.7170    5.2820    2.9520 O   0  0  0  0  0  0  0  0  0  0  0  0
   -2.3060   -1.1100   -0.3880 N   0  0  0  0  0  0  0  0  0  0  0  0
   -2.2270   -2.0100   -1.4780 C   0  0  0  0  0  0  0  0  0  0  0  0
   -2.0520   -3.3730   -1.3530 C   0  0  0  0  0  0  0  0  0  0  0  0
   -1.9890   -4.2370   -2.4350 C   0  0  0  0  0  0  0  0  0  0  0  0
   -2.1140   -3.6610   -3.6790 C   0  0  0  0  0  0  0  0  0  0  0  0
   -2.2890   -2.2970   -3.7970 C   0  0  0  0  0  0  0  0  0  0  0  0
   -2.3390   -1.5410   -2.7290 N   0  0  0  0  0  0  0  0  0  0  0  0
   -2.4220   -1.6630   -5.1280 C   0  0  0  0  0  0  0  0  0  0  0  0
   -2.3240   -2.4430   -6.1000 O   0  0  0  0  0  0  0  0  0  0  0  0
   -2.6330   -0.3320   -5.1650 O   0  0  0  0  0  0  0  0  0  0  0  0
   -1.9470    0.6900   -4.6800 O   0  0  0  0  0  0  0  0  0  0  0  0
   -0.6460    0.8820   -4.3480 C   0  0  0  0  0  0  0  0  0  0  0  0
    0.2850    1.2660   -5.1630 O   0  0  0  0  0  0  0  0  0  0  0  0
    4.8820   -0.2770   -0.1210 C   0  0  0  0  0  0  0  0  0  0  0  0
    4.4710    0.1620   -1.2210 O   0  0  0  0  0  0  0  0  0  0  0  0
    6.1700    0.1590    0.2420 O   0  0  0  0  0  0  0  0  0  0  0  0
  2  1  1  1
  2  3  1  0
  2  4  1  0
  2 41  1  0
  4  5  1  0
  5  6  2  0
  7  5  1  6
  7  8  1  0
  7 12  1  0
  8  9  1  0
  9 10  1  0
 10 11  1  0
 10 39  1  0
 11 12  1  0
 12 13  1  1
 12 19  1  0
 13 14  2  0
 13 15  1  0
 15 16  1  0
 16 17  1  0
 17 18  1  0
 19 20  1  0
 19 28  2  0
 20 21  2  3
 21 22  1  0
 21 23  1  0
 23 24  1  0
 24 25  1  0
 25 26  2  0
 25 27  1  0
 28 29  1  0
 29 30  2  0
 29 34  1  0
 30 31  1  0
 31 32  2  0
 32 33  1  0
 33 34  2  0
 33 35  1  0
 35 36  2  0
 35 37  1  0
 37 38  1  0
 38 39  1  0
 39 40  2  0
 41 42  2  0
 41 43  1  0
M  END
