
     RDKit          3D

 19 20  0  0  0  0  0  0  0  0999 V2000
    4.9990   -1.3510    0.8730 C   0  0  0  0  0  0  0  0  0  0  0  0
    4.8860   -0.4050   -0.2960 C   0  0  0  0  0  0  0  0  0  0  0  0
    3.9520    0.7590    0.0330 C   0  0  0  0  0  0  0  0  0  0  0  0
    4.3290    1.9870    0.3720 C   0  0  0  0  0  0  0  0  0  0  0  0
    3.4210    2.9480    0.6530 C   0  0  0  0  0  0  0  0  0  0  0  0
    1.8630    2.0870    0.4300 S   0  0  0  0  0  0  0  0  0  0  0  0
    2.5550    0.5280   -0.0160 C   0  0  0  0  0  0  0  0  0  0  0  0
    1.8450   -0.7090   -0.3630 C   0  0  0  0  0  0  0  0  0  0  0  0
    0.4160   -0.4140   -0.2650 N   0  0  0  0  0  0  0  0  0  0  0  0
   -0.5300   -1.4330   -0.5590 C   0  0  0  0  0  0  0  0  0  0  0  0
   -0.1820   -2.5880   -0.9030 O   0  0  0  0  0  0  0  0  0  0  0  0
   -1.9260   -1.0750   -0.4430 C   0  0  0  0  0  0  0  0  0  0  0  0
   -2.5450    0.0750   -0.1020 C   0  0  0  0  0  0  0  0  0  0  0  0
   -3.8930    0.1080   -0.0840 C   0  0  0  0  0  0  0  0  0  0  0  0
   -4.6590    1.3690    0.2890 C   0  0  0  0  0  0  0  0  0  0  0  0
   -3.8310    2.4180    0.5870 O   0  0  0  0  0  0  0  0  0  0  0  0
   -4.5760   -1.0100   -0.4060 C   0  0  0  0  0  0  0  0  0  0  0  0
   -5.9940   -1.3690   -0.5030 C   0  0  0  0  0  0  0  0  0  0  0  0
   -3.3030   -2.1910   -0.7600 S   0  0  0  0  0  0  0  0  0  0  0  0
  1  2  1  0
  2  3  1  0
  3  4  1  0
  3  7  2  0
  4  5  2  0
  5  6  1  0
  6  7  1  0
  7  8  1  0
  8  9  1  0
  9 10  1  0
 10 11  2  0
 10 12  1  0
 12 13  2  0
 12 19  1  0
 13 14  1  0
 14 15  1  0
 14 17  2  0
 15 16  1  0
 17 18  1  0
 17 19  1  0
M  END
