
     RDKit          3D

 19 20  0  0  0  0  0  0  0  0999 V2000
    3.5850    2.6560    0.0550 C   0  0  0  0  0  0  0  0  0  0  0  0
    2.5640    1.9890   -0.8200 C   0  0  0  0  0  0  0  0  0  0  0  0
    2.4520    0.5290   -0.4060 C   0  0  0  0  0  0  0  0  0  0  0  0
    3.3890   -0.3880   -0.7010 C   0  0  0  0  0  0  0  0  0  0  0  0
    3.3370   -1.6280   -0.1460 C   0  0  0  0  0  0  0  0  0  0  0  0
    4.2240   -2.7730   -0.2930 C   0  0  0  0  0  0  0  0  0  0  0  0
    1.8420   -1.5740    0.8780 S   0  0  0  0  0  0  0  0  0  0  0  0
    1.4050    0.1470    0.4810 C   0  0  0  0  0  0  0  0  0  0  0  0
    0.3840    0.9760    0.9980 C   0  0  0  0  0  0  0  0  0  0  0  0
   -0.9570    0.5850    0.5490 N   0  0  0  0  0  0  0  0  0  0  0  0
   -1.3030   -0.8100    0.2900 C   0  0  0  0  0  0  0  0  0  0  0  0
   -0.4750   -1.6740    0.2630 O   0  0  0  0  0  0  0  0  0  0  0  0
   -2.6630   -1.0840    0.1130 C   0  0  0  0  0  0  0  0  0  0  0  0
   -3.1330   -2.8800    0.3270 S   0  0  0  0  0  0  0  0  0  0  0  0
   -4.8660   -2.6120    0.3400 C   0  0  0  0  0  0  0  0  0  0  0  0
   -5.0120   -1.2920    0.1580 C   0  0  0  0  0  0  0  0  0  0  0  0
   -3.8790   -0.4720    0.0420 C   0  0  0  0  0  0  0  0  0  0  0  0
   -3.9320    0.9970   -0.3490 C   0  0  0  0  0  0  0  0  0  0  0  0
   -4.4060    1.7780    0.6190 O   0  0  0  0  0  0  0  0  0  0  0  0
  1  2  1  0
  2  3  1  0
  3  4  1  0
  3  8  2  0
  4  5  2  0
  5  6  1  0
  5  7  1  0
  7  8  1  0
  8  9  1  0
  9 10  1  0
 10 11  1  0
 11 12  2  0
 11 13  1  0
 13 14  1  0
 13 17  2  0
 14 15  1  0
 15 16  2  0
 16 17  1  0
 17 18  1  0
 18 19  1  0
M  END
