
     RDKit          3D

 19 20  0  0  0  0  0  0  0  0999 V2000
    5.1860   -0.1000    1.2940 C   0  0  0  0  0  0  0  0  0  0  0  0
    5.1230    0.4010   -0.1110 C   0  0  2  0  0  0  0  0  0  0  0  0
    5.8690    1.7260   -0.1860 C   0  0  0  0  0  0  0  0  0  0  0  0
    3.4510    0.5000   -0.8170 S   0  0  0  0  0  0  0  0  0  0  0  0
    2.8060   -1.1910   -0.7770 C   0  0  0  0  0  0  0  0  0  0  0  0
    2.0660   -1.4290    0.5310 C   0  0  0  0  0  0  0  0  0  0  0  0
    0.7760   -0.5990    0.3620 C   0  0  0  0  0  0  0  0  0  0  0  0
    0.8320    0.2920   -0.5040 O   0  0  0  0  0  0  0  0  0  0  0  0
   -0.3710   -0.8560    1.0960 N   0  0  0  0  0  0  0  0  0  0  0  0
   -1.6740   -0.3270    0.9710 C   0  0  0  0  0  0  0  0  0  0  0  0
   -2.8810   -0.3310    2.2600 S   0  0  0  0  0  0  0  0  0  0  0  0
   -4.2930    0.0300    1.2490 C   0  0  0  0  0  0  0  0  0  0  0  0
   -3.7670    0.1320    0.0260 C   0  0  0  0  0  0  0  0  0  0  0  0
   -2.4320   -0.0430   -0.1780 C   0  0  0  0  0  0  0  0  0  0  0  0
   -1.7120    0.1600   -1.5030 C   0  0  0  0  0  0  0  0  0  0  0  0
   -1.8340   -0.9450   -2.3110 O   0  0  0  0  0  0  0  0  0  0  0  0
   -4.9480    0.4800   -0.9350 C   0  0  0  0  0  0  0  0  0  0  0  0
   -5.8670    1.2430    0.0100 C   0  0  0  0  0  0  0  0  0  0  0  0
   -5.7840    0.2840    1.2140 C   0  0  0  0  0  0  0  0  0  0  0  0
  2  1  1  1
  2  3  1  0
  2  4  1  0
  4  5  1  0
  5  6  1  0
  6  7  1  0
  7  8  2  0
  7  9  1  0
  9 10  1  0
 10 11  1  0
 10 14  2  0
 11 12  1  0
 12 13  2  0
 12 19  1  0
 13 14  1  0
 13 17  1  0
 14 15  1  0
 15 16  1  0
 17 18  1  0
 18 19  1  0
M  END
