
     RDKit          3D

 19 20  0  0  0  0  0  0  0  0999 V2000
   -5.7830    1.5840   -0.5290 C   0  0  0  0  0  0  0  0  0  0  0  0
   -4.4830    0.8840   -0.2080 C   0  0  0  0  0  0  0  0  0  0  0  0
   -4.5650   -0.3250    0.4570 C   0  0  0  0  0  0  0  0  0  0  0  0
   -3.3440   -0.9420    0.7530 C   0  0  0  0  0  0  0  0  0  0  0  0
   -3.2770   -2.2230    1.4780 C   0  0  0  0  0  0  0  0  0  0  0  0
   -2.1690   -0.3250    0.3730 C   0  0  0  0  0  0  0  0  0  0  0  0
   -0.4280   -0.8780    0.6270 S   0  0  0  0  0  0  0  0  0  0  0  0
    0.2520    0.6260   -0.2150 C   0  0  0  0  0  0  0  0  0  0  0  0
    1.6610    0.8460   -0.3720 C   0  0  0  0  0  0  0  0  0  0  0  0
    2.0020    1.9290   -0.9270 O   0  0  0  0  0  0  0  0  0  0  0  0
    2.7220   -0.0710    0.0580 C   0  0  0  0  0  0  0  0  0  0  0  0
    4.0350    0.9350    0.8100 S   0  0  0  0  0  0  0  0  0  0  0  0
    5.4790   -0.0660    1.2240 C   0  0  0  0  0  0  0  0  0  0  0  0
    6.1640   -0.5390   -0.0060 C   0  0  0  0  0  0  0  0  0  0  0  0
    7.3420   -1.3500    0.0900 N   0  0  0  0  0  0  0  0  0  0  0  0
    5.6780   -0.2080   -1.1150 O   0  0  0  0  0  0  0  0  0  0  0  0
   -0.8300    1.3290   -0.5700 C   0  0  0  0  0  0  0  0  0  0  0  0
   -2.0580    0.8590   -0.2790 C   0  0  0  0  0  0  0  0  0  0  0  0
   -3.3040    1.4640   -0.5670 C   0  0  0  0  0  0  0  0  0  0  0  0
  1  2  1  0
  2  3  2  0
  2 19  1  0
  3  4  1  0
  4  5  1  0
  4  6  2  0
  6  7  1  0
  6 18  1  0
  7  8  1  0
  8  9  1  0
  8 17  2  0
  9 10  2  0
  9 11  1  0
 11 12  1  0
 12 13  1  0
 13 14  1  0
 14 15  1  0
 14 16  2  0
 17 18  1  0
 18 19  2  0
M  END
