
     RDKit          3D

 43 45  0  0  0  0  0  0  0  0999 V2000
    1.5420   -2.2600    1.9860 C   0  0  0  0  0  0  0  0  0  0  0  0
    0.9200   -1.2150    1.0480 C   0  0  1  0  0  0  0  0  0  0  0  0
    1.2840   -1.6260   -0.3400 C   0  0  0  0  0  0  0  0  0  0  0  0
    2.6760   -2.2100   -0.4770 C   0  0  0  0  0  0  0  0  0  0  0  0
    3.6860   -1.1310   -0.6070 N   0  0  0  0  0  0  0  0  0  0  0  0
    4.9490   -1.5750   -1.0930 C   0  0  0  0  0  0  0  0  0  0  0  0
    5.9080   -2.0490   -0.0360 C   0  0  0  0  0  0  0  0  0  0  0  0
    6.2880   -1.0160    0.9690 C   0  0  0  0  0  0  0  0  0  0  0  0
    6.9320    0.0730    0.3850 O   0  0  0  0  0  0  0  0  0  0  0  0
    7.2520    0.9630    1.2980 O   0  0  0  0  0  0  0  0  0  0  0  0
    3.4530    0.2350   -0.2740 C   0  0  0  0  0  0  0  0  0  0  0  0
    4.2840    1.0250   -0.7470 O   0  0  0  0  0  0  0  0  0  0  0  0
    2.3650    0.8370    0.5490 N   0  0  0  0  0  0  0  0  0  0  0  0
    2.3130    2.2060    0.1070 C   0  0  0  0  0  0  0  0  0  0  0  0
    1.4210    2.3940   -1.1130 C   0  0  2  0  0  0  0  0  0  0  0  0
    1.7300    3.7060   -1.6520 N   0  0  0  0  0  0  0  0  0  0  0  0
    2.3940    3.8900   -2.8930 C   0  0  0  0  0  0  0  0  0  0  0  0
    2.7350    2.8760   -3.5630 O   0  0  0  0  0  0  0  0  0  0  0  0
    2.7030    5.1160   -3.4350 O   0  0  0  0  0  0  0  0  0  0  0  0
   -0.0290    2.2200   -0.8090 C   0  0  0  0  0  0  0  0  0  0  0  0
   -0.4470    3.0730    0.3490 C   0  0  0  0  0  0  0  0  0  0  0  0
   -1.9290    3.3480    0.3750 C   0  0  0  0  0  0  0  0  0  0  0  0
   -2.6890    2.2160    0.5640 O   0  0  0  0  0  0  0  0  0  0  0  0
   -4.0280    2.6130    0.5660 C   0  0  0  0  0  0  0  0  0  0  0  0
   -4.9560    1.4630    0.8780 C   0  0  0  0  0  0  0  0  0  0  0  0
   -5.8300    1.2200   -0.2480 N   0  0  0  0  0  0  0  0  0  0  0  0
   -6.2040   -0.0760   -0.6870 C   0  0  0  0  0  0  0  0  0  0  0  0
   -7.3420   -0.2900   -1.2290 O   0  0  0  0  0  0  0  0  0  0  0  0
   -5.3270   -1.2310   -0.5490 C   0  0  0  0  0  0  0  0  0  0  0  0
   -4.0450   -1.0140   -0.4680 O   0  0  0  0  0  0  0  0  0  0  0  0
   -3.4090   -2.1170   -0.3520 N   0  0  0  0  0  0  0  0  0  0  0  0
   -4.3100   -3.1470   -0.3530 C   0  0  0  0  0  0  0  0  0  0  0  0
   -4.0430   -4.3690   -0.2560 O   0  0  0  0  0  0  0  0  0  0  0  0
   -5.5600   -2.6110   -0.4780 C   0  0  0  0  0  0  0  0  0  0  0  0
   -6.8600   -3.1570   -0.5390 N   0  0  0  0  0  0  0  0  0  0  0  0
   -7.1860   -4.5320   -0.4890 C   0  0  0  0  0  0  0  0  0  0  0  0
   -6.3170   -5.3990   -0.3850 O   0  0  0  0  0  0  0  0  0  0  0  0
   -1.9650   -2.1330   -0.2440 C   0  0  0  0  0  0  0  0  0  0  0  0
   -1.5140   -1.7690    1.1250 C   0  0  0  0  0  0  0  0  0  0  0  0
   -2.2390   -2.2280    2.0740 O   0  0  0  0  0  0  0  0  0  0  0  0
   -0.4140   -1.0070    1.3110 O   0  0  0  0  0  0  0  0  0  0  0  0
    1.6450    0.0780    1.4570 C   0  0  0  0  0  0  0  0  0  0  0  0
    1.4140    0.2020    2.6790 O   0  0  0  0  0  0  0  0  0  0  0  0
  2  1  1  1
  2  3  1  0
  2 41  1  0
  2 42  1  0
  3  4  1  0
  4  5  1  0
  5  6  1  0
  5 11  1  0
  6  7  1  0
  7  8  1  0
  8  9  1  0
  9 10  1  0
 11 12  2  0
 11 13  1  0
 13 14  1  0
 13 42  1  0
 14 15  1  0
 15 16  1  1
 15 20  1  0
 16 17  1  0
 17 18  2  0
 17 19  1  0
 20 21  1  0
 21 22  1  0
 22 23  1  0
 23 24  1  0
 24 25  1  0
 25 26  1  0
 26 27  1  0
 27 28  2  0
 27 29  1  0
 29 30  1  0
 29 34  2  0
 30 31  1  0
 31 32  1  0
 31 38  1  0
 32 33  2  0
 32 34  1  0
 34 35  1  0
 35 36  1  0
 36 37  2  0
 38 39  1  0
 39 40  2  0
 39 41  1  0
 42 43  2  0
M  END
