
     RDKit          3D

 43 46  0  0  0  0  0  0  0  0999 V2000
   -8.4990    2.0300   -0.7320 C   0  0  0  0  0  0  0  0  0  0  0  0
   -9.4570    0.9000   -0.5210 C   0  0  0  0  0  0  0  0  0  0  0  0
   -9.0590    0.0160    0.5360 O   0  0  0  0  0  0  0  0  0  0  0  0
   -7.8550   -0.6520    0.4630 C   0  0  0  0  0  0  0  0  0  0  0  0
   -7.0980   -0.4750   -0.5420 O   0  0  0  0  0  0  0  0  0  0  0  0
   -7.3850   -1.5310    1.4310 O   0  0  0  0  0  0  0  0  0  0  0  0
   -6.1390   -2.1840    1.2830 C   0  0  0  0  0  0  0  0  0  0  0  0
   -5.0190   -1.1790    1.2090 C   0  0  0  0  0  0  0  0  0  0  0  0
   -5.0700    0.1000    1.2700 O   0  0  0  0  0  0  0  0  0  0  0  0
   -3.8460    0.6480    1.1670 C   0  0  0  0  0  0  0  0  0  0  0  0
   -3.5960    1.8400    1.1950 N   0  0  0  0  0  0  0  0  0  0  0  0
   -2.9340   -0.3520    1.0270 N   0  0  0  0  0  0  0  0  0  0  0  0
   -1.5990   -0.3410    0.8850 C   0  0  0  0  0  0  0  0  0  0  0  0
   -0.8150    0.6810    0.8510 C   0  0  0  0  0  0  0  0  0  0  0  0
   -0.9990    2.1150    0.9380 C   0  0  0  0  0  0  0  0  0  0  0  0
   -0.8910    2.8680    2.1240 C   0  0  0  0  0  0  0  0  0  0  0  0
   -1.1180    4.1260    1.7920 N   0  0  0  0  0  0  0  0  0  0  0  0
   -1.3630    4.2040    0.4560 C   0  0  0  0  0  0  0  0  0  0  0  0
   -1.2800    2.9850    0.0030 O   0  0  0  0  0  0  0  0  0  0  0  0
   -0.9860   -1.6310    0.7640 C   0  0  0  0  0  0  0  0  0  0  0  0
    0.3110   -1.7660    0.6150 C   0  0  0  0  0  0  0  0  0  0  0  0
    1.0680   -2.9940    0.4820 C   0  0  0  0  0  0  0  0  0  0  0  0
    2.4080   -2.8910    0.3350 C   0  0  0  0  0  0  0  0  0  0  0  0
    3.1590   -1.7010    0.2990 N   0  0  0  0  0  0  0  0  0  0  0  0
    4.4370   -1.9630    0.1560 C   0  0  0  0  0  0  0  0  0  0  0  0
    5.4250   -0.9520    0.0920 N   0  0  0  0  0  0  0  0  0  0  0  0
    5.0760    0.4090   -0.3010 C   0  0  2  0  0  0  0  0  0  0  0  0
    6.3320    1.2930   -0.2910 C   0  0  0  0  0  0  0  0  0  0  0  0
    7.3200    0.8710   -1.1450 O   0  0  0  0  0  0  0  0  0  0  0  0
    6.9380    0.8720   -2.4670 C   0  0  0  0  0  0  0  0  0  0  0  0
    8.0150    0.4330   -3.4330 C   0  0  0  0  0  0  0  0  0  0  0  0
    9.1500    1.2130   -3.4080 O   0  0  0  0  0  0  0  0  0  0  0  0
   10.0080    0.7330   -4.2860 O   0  0  0  0  0  0  0  0  0  0  0  0
    4.1760    0.9970    0.7410 C   0  0  0  0  0  0  0  0  0  0  0  0
    3.8760    0.3290    1.7570 O   0  0  0  0  0  0  0  0  0  0  0  0
    3.6580    2.2880    0.5940 O   0  0  0  0  0  0  0  0  0  0  0  0
    4.6020   -3.3570    0.0860 O   0  0  0  0  0  0  0  0  0  0  0  0
    3.3570   -3.9690    0.1940 C   0  0  0  0  0  0  0  0  0  0  0  0
    3.1040   -5.2210    0.1730 O   0  0  0  0  0  0  0  0  0  0  0  0
   -1.8010   -2.7520    0.8010 C   0  0  0  0  0  0  0  0  0  0  0  0
   -1.3450   -3.9490    0.7020 N   0  0  0  0  0  0  0  0  0  0  0  0
   -3.1080   -2.6360    0.9440 O   0  0  0  0  0  0  0  0  0  0  0  0
   -3.6740   -1.4850    1.0550 C   0  0  0  0  0  0  0  0  0  0  0  0
  1  2  1  0
  2  3  1  0
  3  4  1  0
  4  5  2  0
  4  6  1  0
  6  7  1  0
  7  8  1  0
  8  9  1  0
  8 43  2  0
  9 10  1  0
 10 11  2  0
 10 12  1  0
 12 13  1  0
 12 43  1  0
 13 14  2  3
 13 20  1  0
 14 15  1  0
 15 16  2  0
 15 19  1  0
 16 17  1  0
 17 18  2  0
 18 19  1  0
 20 21  2  3
 20 40  1  0
 21 22  1  0
 22 23  2  3
 23 24  1  0
 23 38  1  0
 24 25  2  0
 25 26  1  0
 25 37  1  0
 26 27  1  0
 27 28  1  1
 27 34  1  0
 28 29  1  0
 29 30  1  0
 30 31  1  0
 31 32  1  0
 32 33  1  0
 34 35  2  0
 34 36  1  0
 37 38  1  0
 38 39  2  0
 40 41  2  0
 40 42  1  0
 42 43  1  0
M  END
