
     RDKit          3D

 44 48  0  0  0  0  0  0  0  0999 V2000
  -11.2960    1.2960    0.5200 N   0  0  0  0  0  0  0  0  0  0  0  0
  -10.2460    1.5530   -0.3780 C   0  0  0  0  0  0  0  0  0  0  0  0
  -10.1270    2.6420   -0.9550 O   0  0  0  0  0  0  0  0  0  0  0  0
   -9.2440    0.5110   -0.6370 C   0  0  0  0  0  0  0  0  0  0  0  0
   -9.5810   -0.8210   -0.7860 C   0  0  0  0  0  0  0  0  0  0  0  0
   -8.5720   -1.7410   -0.9450 C   0  0  0  0  0  0  0  0  0  0  0  0
   -7.2240   -1.3500   -0.9370 C   0  0  0  0  0  0  0  0  0  0  0  0
   -6.9390   -0.0490   -0.7870 N   0  0  0  0  0  0  0  0  0  0  0  0
   -5.5990    0.3960   -0.5800 C   0  0  2  0  0  0  0  0  0  0  0  0
   -4.5620   -0.1640   -1.2640 O   0  0  0  0  0  0  0  0  0  0  0  0
   -3.5180    0.0290   -0.4970 C   0  0  2  0  0  0  0  0  0  0  0  0
   -2.2270   -0.7640   -0.5850 C   0  0  0  0  0  0  0  0  0  0  0  0
   -1.6930   -0.2670    0.6460 O   0  0  0  0  0  0  0  0  0  0  0  0
   -0.1440    0.2490    0.5810 P   0  0  1  0  0  0  0  0  0  0  0  0
   -0.2190    1.7940    1.0440 O   0  0  0  0  0  0  0  0  0  0  0  0
    0.8770   -0.4440    1.6430 O   0  0  0  0  0  0  0  0  0  0  0  0
    0.4390    0.3280   -0.9960 O   0  0  0  0  0  0  0  0  0  0  0  0
    1.3980   -1.0010   -1.2720 P   0  0  1  0  0  0  0  0  0  0  0  0
    1.6450   -1.7210    0.1040 O   0  0  0  0  0  0  0  0  0  0  0  0
    0.6860   -2.0960   -2.2950 O   0  0  0  0  0  0  0  0  0  0  0  0
    2.9180   -0.5530   -1.7570 O   0  0  0  0  0  0  0  0  0  0  0  0
    3.1630    0.8480   -1.5260 C   0  0  0  0  0  0  0  0  0  0  0  0
    3.7050    0.8120   -0.0960 C   0  0  1  0  0  0  0  0  0  0  0  0
    4.6100   -0.2730   -0.1530 O   0  0  0  0  0  0  0  0  0  0  0  0
    5.6070   -0.0600    0.6630 C   0  0  1  0  0  0  0  0  0  0  0  0
    6.9460   -0.1510    0.1390 N   0  0  0  0  0  0  0  0  0  0  0  0
    7.6650    0.8790   -0.3600 C   0  0  0  0  0  0  0  0  0  0  0  0
    8.9220    0.5310   -0.5510 N   0  0  0  0  0  0  0  0  0  0  0  0
    9.0430   -0.7600   -0.1740 C   0  0  0  0  0  0  0  0  0  0  0  0
   10.1290   -1.5910   -0.1460 C   0  0  0  0  0  0  0  0  0  0  0  0
   11.4470   -1.0480   -0.3810 N   0  0  0  0  0  0  0  0  0  0  0  0
    9.9310   -2.8410    0.2810 N   0  0  0  0  0  0  0  0  0  0  0  0
    8.7320   -3.2900    0.6880 C   0  0  0  0  0  0  0  0  0  0  0  0
    7.6920   -2.4470    0.6640 N   0  0  0  0  0  0  0  0  0  0  0  0
    7.7770   -1.1810    0.2540 C   0  0  0  0  0  0  0  0  0  0  0  0
    5.4840    1.3680    1.2420 C   0  0  2  0  0  0  0  0  0  0  0  0
    5.1260    1.3850    2.5480 O   0  0  0  0  0  0  0  0  0  0  0  0
    4.5020    1.9850    0.2830 C   0  0  2  0  0  0  0  0  0  0  0  0
    3.7240    2.8690    1.0980 O   0  0  0  0  0  0  0  0  0  0  0  0
   -3.8860    0.1610    0.9730 C   0  0  1  0  0  0  0  0  0  0  0  0
   -3.8210    1.5140    1.3260 O   0  0  0  0  0  0  0  0  0  0  0  0
   -5.3060   -0.2060    0.8880 C   0  0  1  0  0  0  0  0  0  0  0  0
   -6.1690    0.3990    1.7560 O   0  0  0  0  0  0  0  0  0  0  0  0
   -7.9170    0.8450   -0.6480 C   0  0  0  0  0  0  0  0  0  0  0  0
  1  2  1  0
  2  3  2  0
  2  4  1  0
  4  5  2  0
  4 44  1  0
  5  6  1  0
  6  7  2  0
  7  8  1  0
  9  8  1  6
  8 44  2  0
  9 10  1  0
  9 42  1  0
 10 11  1  0
 11 12  1  1
 11 40  1  0
 12 13  1  0
 13 14  1  0
 14 15  2  0
 14 16  1  1
 14 17  1  0
 17 18  1  0
 18 19  2  0
 18 20  1  6
 18 21  1  0
 21 22  1  0
 23 22  1  6
 23 24  1  0
 23 38  1  0
 24 25  1  0
 25 26  1  6
 25 36  1  0
 26 27  1  0
 26 35  1  0
 27 28  2  0
 28 29  1  0
 29 30  2  0
 29 35  1  0
 30 31  1  0
 30 32  1  0
 32 33  2  0
 33 34  1  0
 34 35  2  0
 36 37  1  1
 36 38  1  0
 38 39  1  1
 40 41  1  6
 40 42  1  0
 42 43  1  1
M  CHG  2   8   1  16  -1
M  END
