
     RDKit          3D

 43 46  0  0  0  0  0  0  0  0999 V2000
    0.4400    8.2880   -2.3140 C   0  0  0  0  0  0  0  0  0  0  0  0
   -0.4560    7.3150   -1.5780 C   0  0  0  0  0  0  0  0  0  0  0  0
    0.3020    6.1090   -1.4320 O   0  0  0  0  0  0  0  0  0  0  0  0
   -0.2780    5.0270   -0.7860 C   0  0  0  0  0  0  0  0  0  0  0  0
   -1.4640    5.1030   -0.3300 O   0  0  0  0  0  0  0  0  0  0  0  0
    0.3990    3.8310   -0.6110 O   0  0  0  0  0  0  0  0  0  0  0  0
   -0.2140    2.7670    0.0420 C   0  0  0  0  0  0  0  0  0  0  0  0
    0.6580    1.5240    0.1550 C   0  0  1  0  0  0  0  0  0  0  0  0
    1.8080    1.6940    1.1070 C   0  0  0  0  0  0  0  0  0  0  0  0
    2.7740    2.7740    0.7720 C   0  0  0  0  0  0  0  0  0  0  0  0
    3.4440    2.6440   -0.4170 O   0  0  0  0  0  0  0  0  0  0  0  0
    4.2570    1.5140   -0.4860 C   0  0  0  0  0  0  0  0  0  0  0  0
    5.3230    1.4970    0.5560 C   0  0  0  0  0  0  0  0  0  0  0  0
    6.1080    0.3330    0.4330 O   0  0  0  0  0  0  0  0  0  0  0  0
    5.6580   -0.9590    0.5560 C   0  0  0  0  0  0  0  0  0  0  0  0
    4.4490   -1.1580    0.8030 O   0  0  0  0  0  0  0  0  0  0  0  0
    6.5500   -2.0860    0.4070 N   0  0  0  0  0  0  0  0  0  0  0  0
    6.0590   -3.4430    0.5410 C   0  0  0  0  0  0  0  0  0  0  0  0
    7.2440   -4.3700    0.3270 C   0  0  0  0  0  0  0  0  0  0  0  0
    6.7630   -5.6740    0.4580 O   0  0  0  0  0  0  0  0  0  0  0  0
   -0.2330    0.3710    0.6820 C   0  0  0  0  0  0  0  0  0  0  0  0
   -0.6330   -0.3850   -0.4620 N   0  0  0  0  0  0  0  0  0  0  0  0
   -1.7670   -1.1890   -0.6570 C   0  0  0  0  0  0  0  0  0  0  0  0
   -1.8530   -1.6960   -1.8440 O   0  0  0  0  0  0  0  0  0  0  0  0
   -2.8000   -1.5170    0.2180 N   0  0  0  0  0  0  0  0  0  0  0  0
   -2.7130   -1.1760    1.6440 C   0  0  0  0  0  0  0  0  0  0  0  0
   -3.3380   -2.2180    2.5240 C   0  0  0  0  0  0  0  0  0  0  0  0
   -4.1260   -3.1560    1.9540 O   0  0  0  0  0  0  0  0  0  0  0  0
   -3.9010   -3.5000    0.6530 C   0  0  0  0  0  0  0  0  0  0  0  0
   -4.0080   -2.1640   -0.1370 C   0  0  1  0  0  0  0  0  0  0  0  0
   -5.2370   -1.4930    0.5790 C   0  0  0  0  0  0  0  0  0  0  0  0
   -6.1590   -2.4880    0.9710 O   0  0  0  0  0  0  0  0  0  0  0  0
   -6.8860   -3.3970    0.1940 C   0  0  0  0  0  0  0  0  0  0  0  0
   -8.0230   -4.0700    0.5140 C   0  0  0  0  0  0  0  0  0  0  0  0
   -8.3490   -4.8190   -0.5330 O   0  0  0  0  0  0  0  0  0  0  0  0
   -7.4890   -4.6600   -1.4940 N   0  0  0  0  0  0  0  0  0  0  0  0
   -6.5450   -3.7830   -1.1090 C   0  0  0  0  0  0  0  0  0  0  0  0
   -5.4200   -3.3380   -1.8890 N   0  0  0  0  0  0  0  0  0  0  0  0
   -4.4310   -2.3380   -1.5060 C   0  0  0  0  0  0  0  0  0  0  0  0
   -4.0450   -1.7000   -2.4980 O   0  0  0  0  0  0  0  0  0  0  0  0
    0.4180   -0.1740   -1.4300 C   0  0  0  0  0  0  0  0  0  0  0  0
    0.7250   -0.9450   -2.3930 O   0  0  0  0  0  0  0  0  0  0  0  0
    1.0540    1.0470   -1.1250 N   0  0  0  0  0  0  0  0  0  0  0  0
  1  2  1  0
  2  3  1  0
  3  4  1  0
  4  5  2  0
  4  6  1  0
  6  7  1  0
  8  7  1  6
  8  9  1  0
  8 21  1  0
  8 43  1  0
  9 10  1  0
 10 11  1  0
 11 12  1  0
 12 13  1  0
 13 14  1  0
 14 15  1  0
 15 16  2  0
 15 17  1  0
 17 18  1  0
 18 19  1  0
 19 20  1  0
 21 22  1  0
 22 23  1  0
 22 41  1  0
 23 24  2  0
 23 25  1  0
 25 26  1  0
 25 30  1  0
 26 27  1  0
 27 28  1  0
 28 29  1  0
 30 29  1  1
 30 31  1  0
 30 39  1  0
 31 32  1  0
 32 33  1  0
 33 34  2  0
 33 37  1  0
 34 35  1  0
 35 36  1  0
 36 37  2  0
 37 38  1  0
 38 39  1  0
 39 40  2  0
 41 42  2  0
 41 43  1  0
M  END
