
     RDKit          3D

 43 45  0  0  0  0  0  0  0  0999 V2000
   -5.5130   -1.1400   -0.0240 C   0  0  0  0  0  0  0  0  0  0  0  0
   -4.5540    0.0330   -0.2280 C   0  0  1  0  0  0  0  0  0  0  0  0
   -5.0480    1.1330    0.6860 C   0  0  0  0  0  0  0  0  0  0  0  0
   -3.2760   -0.4160    0.0890 O   0  0  0  0  0  0  0  0  0  0  0  0
   -2.1200    0.3570    0.0280 C   0  0  0  0  0  0  0  0  0  0  0  0
   -2.2920    1.5410   -0.3510 O   0  0  0  0  0  0  0  0  0  0  0  0
   -0.7910   -0.2060    0.3910 C   0  0  2  0  0  0  0  0  0  0  0  0
   -0.8610   -0.7150    1.7920 C   0  0  0  0  0  0  0  0  0  0  0  0
   -0.5170    0.2340    2.8560 C   0  0  0  0  0  0  0  0  0  0  0  0
   -0.0640    1.5300    2.4440 N   0  0  0  0  0  0  0  0  0  0  0  0
    0.2980    1.8770    1.1130 C   0  0  0  0  0  0  0  0  0  0  0  0
    0.3470    0.7600    0.1520 C   0  0  2  0  0  0  0  0  0  0  0  0
    0.0100    1.3850   -1.1960 C   0  0  0  0  0  0  0  0  0  0  0  0
    0.0220    2.6310   -1.3340 O   0  0  0  0  0  0  0  0  0  0  0  0
   -0.3200    0.6160   -2.3280 N   0  0  0  0  0  0  0  0  0  0  0  0
   -0.6250    1.2820   -3.6000 C   0  0  0  0  0  0  0  0  0  0  0  0
   -0.9390    0.2540   -4.6680 C   0  0  0  0  0  0  0  0  0  0  0  0
   -1.2260    0.8970   -5.8680 O   0  0  0  0  0  0  0  0  0  0  0  0
    1.6150    0.0400   -0.0220 C   0  0  0  0  0  0  0  0  0  0  0  0
    1.7720   -0.5050   -1.3780 N   0  0  0  0  0  0  0  0  0  0  0  0
    2.0840   -1.7500   -1.5240 C   0  0  0  0  0  0  0  0  0  0  0  0
    2.2790   -2.5990   -0.4520 O   0  0  0  0  0  0  0  0  0  0  0  0
    2.2370   -2.2780   -2.8960 C   0  0  0  0  0  0  0  0  0  0  0  0
    3.5390   -2.7610   -3.2260 N   0  0  0  0  0  0  0  0  0  0  0  0
    4.1670   -3.8370   -2.5510 C   0  0  0  0  0  0  0  0  0  0  0  0
    3.6360   -4.4610   -1.6080 O   0  0  0  0  0  0  0  0  0  0  0  0
    5.4540   -4.2650   -2.9210 O   0  0  0  0  0  0  0  0  0  0  0  0
    2.5760   -0.2010    0.7240 N   0  0  0  0  0  0  0  0  0  0  0  0
    2.9700    0.0470    2.0250 C   0  0  0  0  0  0  0  0  0  0  0  0
    3.4850   -0.9870    2.8180 C   0  0  0  0  0  0  0  0  0  0  0  0
    3.8810   -0.7960    4.1220 C   0  0  0  0  0  0  0  0  0  0  0  0
    3.7510    0.4820    4.6410 C   0  0  0  0  0  0  0  0  0  0  0  0
    3.2430    1.4900    3.8520 C   0  0  0  0  0  0  0  0  0  0  0  0
    2.8890    1.2330    2.6220 N   0  0  0  0  0  0  0  0  0  0  0  0
    3.0640    2.8650    4.4180 C   0  0  0  0  0  0  0  0  0  0  0  0
    3.7760    3.1080    5.4230 O   0  0  0  0  0  0  0  0  0  0  0  0
    2.1730    3.7120    3.8170 O   0  0  0  0  0  0  0  0  0  0  0  0
    0.9010    3.5590    3.5050 O   0  0  0  0  0  0  0  0  0  0  0  0
    0.0260    2.5360    3.4810 C   0  0  0  0  0  0  0  0  0  0  0  0
   -0.8200    2.4060    4.4420 O   0  0  0  0  0  0  0  0  0  0  0  0
   -4.6790    0.4750   -1.6290 C   0  0  0  0  0  0  0  0  0  0  0  0
   -5.7560    0.9110   -2.1110 O   0  0  0  0  0  0  0  0  0  0  0  0
   -3.5940    0.4190   -2.4670 O   0  0  0  0  0  0  0  0  0  0  0  0
  2  1  1  6
  2  3  1  0
  2  4  1  0
  2 41  1  0
  4  5  1  0
  5  6  2  0
  7  5  1  1
  7  8  1  0
  7 12  1  0
  8  9  1  0
  9 10  1  0
 10 11  1  0
 10 39  1  0
 11 12  1  0
 12 13  1  6
 12 19  1  0
 13 14  2  0
 13 15  1  0
 15 16  1  0
 16 17  1  0
 17 18  1  0
 19 20  1  0
 19 28  2  0
 20 21  2  3
 21 22  1  0
 21 23  1  0
 23 24  1  0
 24 25  1  0
 25 26  2  0
 25 27  1  0
 28 29  1  0
 29 30  2  0
 29 34  1  0
 30 31  1  0
 31 32  2  0
 32 33  1  0
 33 34  2  0
 33 35  1  0
 35 36  2  0
 35 37  1  0
 37 38  1  0
 38 39  1  0
 39 40  2  0
 41 42  2  0
 41 43  1  0
M  END
