
     RDKit          3D

  9  9  0  0  0  0  0  0  0  0999 V2000
    2.6040    0.6590   -0.1300 C   0  0  0  0  0  0  0  0  0  0  0  0
    1.6480    0.2260    0.8680 N   0  0  0  0  0  0  0  0  0  0  0  0
    0.8310   -0.9120    0.6290 C   0  0  0  0  0  0  0  0  0  0  0  0
   -0.4110   -0.7940    0.1790 C   0  0  0  0  0  0  0  0  0  0  0  0
   -1.3260   -1.8950   -0.0970 C   0  0  0  0  0  0  0  0  0  0  0  0
   -2.4460   -1.3290   -0.5250 C   0  0  0  0  0  0  0  0  0  0  0  0
   -2.3010    0.1030   -0.5410 C   0  0  0  0  0  0  0  0  0  0  0  0
   -1.0810    0.4650   -0.1210 C   0  0  0  0  0  0  0  0  0  0  0  0
   -0.5980    1.7960   -0.0110 N   0  0  0  0  0  0  0  0  0  0  0  0
  1  2  1  0
  2  3  1  0
  3  4  2  3
  4  5  1  0
  4  8  1  0
  5  6  2  0
  6  7  1  0
  7  8  2  0
  8  9  1  0
M  END
