
     RDKit          3D

  9  9  0  0  0  0  0  0  0  0999 V2000
   -1.5530   -1.9430   -0.1750 N   0  0  0  0  0  0  0  0  0  0  0  0
   -1.9450   -0.6030   -0.3940 C   0  0  0  0  0  0  0  0  0  0  0  0
   -1.0490    0.3890   -0.2690 C   0  0  0  0  0  0  0  0  0  0  0  0
   -1.2910    1.8120   -0.4590 C   0  0  0  0  0  0  0  0  0  0  0  0
   -0.1410    2.4270   -0.2370 C   0  0  0  0  0  0  0  0  0  0  0  0
    0.8910    1.4550    0.1020 C   0  0  0  0  0  0  0  0  0  0  0  0
    0.3590    0.2320    0.0870 C   0  0  0  0  0  0  0  0  0  0  0  0
    1.0670   -1.0520    0.3760 C   0  0  0  0  0  0  0  0  0  0  0  0
    2.4520   -0.7540    0.6840 N   0  0  0  0  0  0  0  0  0  0  0  0
  1  2  1  0
  2  3  2  3
  3  4  1  0
  3  7  1  0
  4  5  2  0
  5  6  1  0
  6  7  2  0
  7  8  1  0
  8  9  1  0
M  END
