
     RDKit          3D

  9  9  0  0  0  0  0  0  0  0999 V2000
   -2.3780   -0.8210   -0.4940 N   0  0  0  0  0  0  0  0  0  0  0  0
   -1.5720    0.2350   -0.0200 C   0  0  0  0  0  0  0  0  0  0  0  0
   -2.1330    1.3180    0.3680 N   0  0  0  0  0  0  0  0  0  0  0  0
   -0.1340    0.0740    0.0180 C   0  0  0  0  0  0  0  0  0  0  0  0
    0.4220   -1.1110   -0.4100 C   0  0  0  0  0  0  0  0  0  0  0  0
    1.7690   -1.3220   -0.3980 C   0  0  0  0  0  0  0  0  0  0  0  0
    2.6170   -0.3330    0.0530 C   0  0  0  0  0  0  0  0  0  0  0  0
    2.1200    0.8740    0.4940 C   0  0  0  0  0  0  0  0  0  0  0  0
    0.7370    1.0410    0.4620 C   0  0  0  0  0  0  0  0  0  0  0  0
  1  2  1  0
  2  3  2  0
  2  4  1  0
  4  5  2  0
  4  9  1  0
  5  6  1  0
  6  7  2  0
  7  8  1  0
  8  9  2  0
M  CHG  1   3   1
M  END
