
     RDKit          3D

  9  9  0  0  0  0  0  0  0  0999 V2000
   -2.8770   -0.0660    0.3900 C   0  0  0  0  0  0  0  0  0  0  0  0
   -1.9650    0.7870   -0.3400 N   0  0  0  0  0  0  0  0  0  0  0  0
   -0.6120    0.3860   -0.2020 C   0  0  0  0  0  0  0  0  0  0  0  0
   -0.2680   -0.9440   -0.1100 C   0  0  0  0  0  0  0  0  0  0  0  0
    1.0560   -1.3150    0.0240 C   0  0  0  0  0  0  0  0  0  0  0  0
    2.0560   -0.3640    0.0680 C   0  0  0  0  0  0  0  0  0  0  0  0
    3.4310   -0.7250    0.2060 N   0  0  0  0  0  0  0  0  0  0  0  0
    1.7270    0.9760   -0.0230 C   0  0  0  0  0  0  0  0  0  0  0  0
    0.4050    1.3120   -0.1550 C   0  0  0  0  0  0  0  0  0  0  0  0
  1  2  1  0
  2  3  1  0
  3  4  2  0
  3  9  1  0
  4  5  1  0
  5  6  2  0
  6  7  1  0
  6  8  1  0
  8  9  2  0
M  CHG  1   2   1
M  END
