
     RDKit          3D

  9  9  0  0  0  0  0  0  0  0999 V2000
   -2.0600    1.0140    0.8600 C   0  0  0  0  0  0  0  0  0  0  0  0
   -0.7520    0.4760    1.1270 N   0  0  0  0  0  0  0  0  0  0  0  0
   -0.2270   -0.5020    0.2500 C   0  0  0  0  0  0  0  0  0  0  0  0
   -0.6450   -1.7140   -0.0290 C   0  0  0  0  0  0  0  0  0  0  0  0
    0.2000   -2.3890   -0.9990 C   0  0  0  0  0  0  0  0  0  0  0  0
    1.1660   -1.5500   -1.3160 C   0  0  0  0  0  0  0  0  0  0  0  0
    0.9860   -0.3150   -0.5740 C   0  0  0  0  0  0  0  0  0  0  0  0
    1.7240    0.7770   -0.5960 C   0  0  0  0  0  0  0  0  0  0  0  0
    1.3790    1.8900    0.2110 N   0  0  0  0  0  0  0  0  0  0  0  0
  1  2  1  0
  2  3  1  0
  3  4  2  0
  3  7  1  0
  4  5  1  0
  5  6  2  0
  6  7  1  0
  7  8  2  3
  8  9  1  0
M  END
