
     RDKit          3D

  9  9  0  0  0  0  0  0  0  0999 V2000
   -2.4580    0.9430   -0.1290 C   0  0  0  0  0  0  0  0  0  0  0  0
   -1.7000   -0.1060   -0.0430 C   0  0  0  0  0  0  0  0  0  0  0  0
   -2.3650   -1.3830    0.1120 N   0  0  0  0  0  0  0  0  0  0  0  0
   -0.2370   -0.0570   -0.0940 C   0  0  0  0  0  0  0  0  0  0  0  0
    0.4290   -1.2270    0.0080 C   0  0  0  0  0  0  0  0  0  0  0  0
    1.8710   -1.1530   -0.0460 C   0  0  0  0  0  0  0  0  0  0  0  0
    2.5460   -0.0380   -0.1840 C   0  0  0  0  0  0  0  0  0  0  0  0
    1.8890    1.2580   -0.3000 C   0  0  0  0  0  0  0  0  0  0  0  0
    0.4560    1.1560   -0.2440 N   0  0  0  0  0  0  0  0  0  0  0  0
  1  2  2  0
  2  3  1  0
  2  4  1  0
  4  5  2  0
  4  9  1  0
  5  6  1  0
  6  7  2  0
  7  8  1  0
  8  9  1  0
M  END
