
     RDKit          3D

  9  9  0  0  0  0  0  0  0  0999 V2000
    3.1510   -0.5510    0.0740 N   0  0  0  0  0  0  0  0  0  0  0  0
    2.1870    0.5520   -0.0810 C   0  0  0  0  0  0  0  0  0  0  0  0
    1.0220    0.2430    0.7680 C   0  0  0  0  0  0  0  0  0  0  0  0
   -0.2090    0.0900    0.3640 C   0  0  0  0  0  0  0  0  0  0  0  0
   -0.5510    0.2180   -1.0360 C   0  0  0  0  0  0  0  0  0  0  0  0
   -1.8380    0.0480   -1.3860 C   0  0  0  0  0  0  0  0  0  0  0  0
   -2.8690   -0.2550   -0.4120 C   0  0  0  0  0  0  0  0  0  0  0  0
   -2.6100   -0.3840    0.8830 C   0  0  0  0  0  0  0  0  0  0  0  0
   -1.2550   -0.2090    1.2810 N   0  0  0  0  0  0  0  0  0  0  0  0
  1  2  1  0
  2  3  1  0
  3  4  2  3
  4  5  1  0
  4  9  1  0
  5  6  2  0
  6  7  1  0
  7  8  2  0
  8  9  1  0
M  END
