
     RDKit          3D

  9  9  0  0  0  0  0  0  0  0999 V2000
    3.2370   -0.4520   -0.3360 C   0  0  0  0  0  0  0  0  0  0  0  0
    2.3130    0.1030    0.6170 N   0  0  0  0  0  0  0  0  0  0  0  0
    0.9290    0.1070    0.3710 C   0  0  0  0  0  0  0  0  0  0  0  0
    0.3910   -0.4230   -0.8010 C   0  0  0  0  0  0  0  0  0  0  0  0
   -0.9660   -0.4100   -1.0260 C   0  0  0  0  0  0  0  0  0  0  0  0
   -1.8470    0.1220   -0.1110 C   0  0  0  0  0  0  0  0  0  0  0  0
   -3.2570    0.1450   -0.3260 N   0  0  0  0  0  0  0  0  0  0  0  0
   -1.3160    0.6480    1.0520 C   0  0  0  0  0  0  0  0  0  0  0  0
    0.0390    0.6410    1.2880 C   0  0  0  0  0  0  0  0  0  0  0  0
  1  2  1  0
  2  3  1  0
  3  4  2  0
  3  9  1  0
  4  5  1  0
  5  6  2  0
  6  7  1  0
  6  8  1  0
  8  9  2  0
M  CHG  1   7   1
M  END
