
     RDKit          3D

  9  9  0  0  0  0  0  0  0  0999 V2000
    0.1910   -1.4370    1.2680 C   0  0  0  0  0  0  0  0  0  0  0  0
   -0.2760   -0.2490    0.5220 C   0  0  0  0  0  0  0  0  0  0  0  0
   -1.3450    0.4450    0.8850 C   0  0  0  0  0  0  0  0  0  0  0  0
   -2.0640    0.0250    2.0370 N   0  0  0  0  0  0  0  0  0  0  0  0
    0.4540    0.1930   -0.6610 C   0  0  0  0  0  0  0  0  0  0  0  0
    1.5980   -0.4100   -1.1930 C   0  0  0  0  0  0  0  0  0  0  0  0
    2.0050    0.2880   -2.3160 C   0  0  0  0  0  0  0  0  0  0  0  0
    1.1030    1.3090   -2.4550 C   0  0  0  0  0  0  0  0  0  0  0  0
    0.1820    1.2410   -1.4600 N   0  0  0  0  0  0  0  0  0  0  0  0
  1  2  1  0
  2  3  2  3
  2  5  1  0
  3  4  1  0
  5  6  2  0
  5  9  1  0
  6  7  1  0
  7  8  2  0
  8  9  1  0
M  CHG  1   4   1
M  END
