
     RDKit          3D

 23 26  0  0  0  0  0  0  0  0999 V2000
    1.4180    4.2380    0.3130 C   0  0  0  0  0  0  0  0  0  0  0  0
    1.2450    3.1500   -0.5720 O   0  0  0  0  0  0  0  0  0  0  0  0
    1.2130    1.8630   -0.0760 C   0  0  0  0  0  0  0  0  0  0  0  0
    1.3410    1.7340    1.1570 O   0  0  0  0  0  0  0  0  0  0  0  0
    1.0370    0.7140   -0.9940 C   0  0  1  0  0  0  0  0  0  0  0  0
    2.4180    0.0800   -0.9910 C   0  0  2  0  0  0  0  0  0  0  0  0
    2.7740   -0.7610   -2.1430 C   0  0  0  0  0  0  0  0  0  0  0  0
    2.6750   -0.5160    0.3520 C   0  0  0  0  0  0  0  0  0  0  0  0
    3.6540   -0.5220    1.2390 C   0  0  0  0  0  0  0  0  0  0  0  0
    3.2500   -1.3320    2.3960 C   0  0  0  0  0  0  0  0  0  0  0  0
    1.8770   -1.8010    2.0550 C   0  0  0  0  0  0  0  0  0  0  0  0
    1.5820   -1.3160    0.8790 C   0  0  0  0  0  0  0  0  0  0  0  0
    0.3830   -1.4630    0.0280 C   0  0  0  0  0  0  0  0  0  0  0  0
   -0.0700   -0.2220   -0.6870 C   0  0  2  0  0  0  0  0  0  0  0  0
   -0.5290   -0.8450   -2.0600 C   0  0  0  0  0  0  0  0  0  0  0  0
   -1.5040   -1.9180   -1.7820 C   0  0  0  0  0  0  0  0  0  0  0  0
   -2.5370   -1.7180   -0.7780 C   0  0  0  0  0  0  0  0  0  0  0  0
   -2.4110   -0.5930    0.1770 C   0  0  2  0  0  0  0  0  0  0  0  0
   -2.4160   -0.9910    1.6150 C   0  0  0  0  0  0  0  0  0  0  0  0
   -3.5970    0.3900    0.0480 C   0  0  0  0  0  0  0  0  0  0  0  0
   -3.0270    1.5650    0.8040 C   0  0  0  0  0  0  0  0  0  0  0  0
   -1.4850    1.4240    0.7530 C   0  0  0  0  0  0  0  0  0  0  0  0
   -1.3380    0.3730   -0.2480 C   0  0  1  0  0  0  0  0  0  0  0  0
  1  2  1  0
  2  3  1  0
  3  4  2  0
  5  3  1  1
  5  6  1  0
  5 14  1  0
  6  7  1  6
  6  8  1  0
  8  9  2  0
  8 12  1  0
  9 10  1  0
 10 11  1  0
 11 12  2  0
 12 13  1  0
 14 13  1  1
 14 15  1  0
 14 23  1  0
 15 16  1  0
 16 17  1  0
 17 18  1  0
 18 19  1  1
 18 20  1  0
 18 23  1  0
 20 21  1  0
 21 22  1  0
 23 22  1  1
M  END
