
     RDKit          3D

  9  9  0  0  0  0  0  0  0  0999 V2000
    2.5210   -0.3510   -0.6660 C   0  0  0  0  0  0  0  0  0  0  0  0
    1.2960    0.0360   -1.3450 N   0  0  0  0  0  0  0  0  0  0  0  0
    0.2610    0.6350   -0.6080 C   0  0  0  0  0  0  0  0  0  0  0  0
   -0.0550    1.9350   -0.4890 C   0  0  0  0  0  0  0  0  0  0  0  0
   -1.2090    2.0710    0.3830 C   0  0  0  0  0  0  0  0  0  0  0  0
   -1.6180    0.8770    0.8100 C   0  0  0  0  0  0  0  0  0  0  0  0
   -0.7060   -0.0860    0.2020 C   0  0  0  0  0  0  0  0  0  0  0  0
   -0.7580   -1.4040    0.3680 C   0  0  0  0  0  0  0  0  0  0  0  0
   -1.7300   -2.0290    1.1730 N   0  0  0  0  0  0  0  0  0  0  0  0
  1  2  1  0
  2  3  1  0
  3  4  2  0
  3  7  1  0
  4  5  1  0
  5  6  2  0
  6  7  1  0
  7  8  2  3
  8  9  1  0
M  END
