
     RDKit          3D

  9  9  0  0  0  0  0  0  0  0999 V2000
    2.9230   -0.3510    0.0510 C   0  0  0  0  0  0  0  0  0  0  0  0
    1.9940    0.7190   -0.1710 N   0  0  0  0  0  0  0  0  0  0  0  0
    0.6430    0.3430   -0.0750 C   0  0  0  0  0  0  0  0  0  0  0  0
   -0.3090    1.2210   -0.5730 C   0  0  0  0  0  0  0  0  0  0  0  0
   -1.6480    0.9510   -0.5290 C   0  0  0  0  0  0  0  0  0  0  0  0
   -2.0820   -0.2330    0.0280 C   0  0  0  0  0  0  0  0  0  0  0  0
   -3.4940   -0.5190    0.0760 N   0  0  0  0  0  0  0  0  0  0  0  0
   -1.1700   -1.1360    0.5360 C   0  0  0  0  0  0  0  0  0  0  0  0
    0.1710   -0.8220    0.4710 C   0  0  0  0  0  0  0  0  0  0  0  0
  1  2  1  0
  2  3  1  0
  3  4  2  0
  3  9  1  0
  4  5  1  0
  5  6  2  0
  6  7  1  0
  6  8  1  0
  8  9  2  0
M  CHG  1   2   1
M  END
