
     RDKit          3D

  9  9  0  0  0  0  0  0  0  0999 V2000
   -1.1120   -1.5440   -0.1680 C   0  0  0  0  0  0  0  0  0  0  0  0
   -0.6090   -0.2030    0.1790 C   0  0  0  0  0  0  0  0  0  0  0  0
   -1.4170    0.8080    0.4520 C   0  0  0  0  0  0  0  0  0  0  0  0
   -2.8330    0.6990    0.4380 N   0  0  0  0  0  0  0  0  0  0  0  0
    0.8330    0.0190    0.2220 C   0  0  0  0  0  0  0  0  0  0  0  0
    1.4910    1.2140    0.5290 C   0  0  0  0  0  0  0  0  0  0  0  0
    2.8520    1.0160    0.4630 C   0  0  0  0  0  0  0  0  0  0  0  0
    3.0190   -0.3060    0.1150 C   0  0  0  0  0  0  0  0  0  0  0  0
    1.8060   -0.8850   -0.0250 N   0  0  0  0  0  0  0  0  0  0  0  0
  1  2  1  0
  2  3  2  3
  2  5  1  0
  3  4  1  0
  5  6  2  0
  5  9  1  0
  6  7  1  0
  7  8  2  0
  8  9  1  0
M  CHG  1   4   1
M  END
