
     RDKit          3D

  9 10  0  0  0  0  0  0  0  0999 V2000
   -2.3450    1.1710   -0.6180 N   0  0  0  0  0  0  0  0  0  0  0  0
   -1.5250   -0.0100   -0.6930 C   0  0  2  0  0  0  0  0  0  0  0  0
   -1.8320   -0.9780    0.4430 C   0  0  0  0  0  0  0  0  0  0  0  0
   -0.6200   -0.7330    1.3420 C   0  0  0  0  0  0  0  0  0  0  0  0
    0.4230   -0.6920    0.3100 N   0  0  0  0  0  0  0  0  0  0  0  0
    1.7200   -0.4820    0.8690 C   0  0  1  0  0  0  0  0  0  0  0  0
    2.8880   -0.6400   -0.0450 C   0  0  0  0  0  0  0  0  0  0  0  0
    2.4700    0.7110    0.4250 C   0  0  0  0  0  0  0  0  0  0  0  0
   -0.0640    0.3940   -0.5050 C   0  0  0  0  0  0  0  0  0  0  0  0
  2  1  1  1
  2  3  1  0
  2  9  1  0
  3  4  1  0
  4  5  1  0
  6  5  1  6
  5  9  1  0
  6  7  1  0
  6  8  1  0
  7  8  1  0
M  CHG  1   1   1
M  END
