
     RDKit          3D

 23 26  0  0  0  0  0  0  0  0999 V2000
    1.4150    4.0400    0.0950 C   0  0  0  0  0  0  0  0  0  0  0  0
    1.2980    2.6360    0.1490 O   0  0  0  0  0  0  0  0  0  0  0  0
    1.4020    1.7980   -0.9370 C   0  0  0  0  0  0  0  0  0  0  0  0
    1.6180    2.3020   -2.0620 O   0  0  0  0  0  0  0  0  0  0  0  0
    1.2700    0.3410   -0.7980 C   0  0  1  0  0  0  0  0  0  0  0  0
    2.4740    0.0060    0.0660 C   0  0  2  0  0  0  0  0  0  0  0  0
    3.7450    0.2270   -0.7350 C   0  0  0  0  0  0  0  0  0  0  0  0
    2.4470   -1.3690    0.5890 C   0  0  0  0  0  0  0  0  0  0  0  0
    3.2460   -2.3930    0.6640 C   0  0  0  0  0  0  0  0  0  0  0  0
    2.5150   -3.4820    1.3490 C   0  0  0  0  0  0  0  0  0  0  0  0
    1.1770   -2.9200    1.6520 C   0  0  0  0  0  0  0  0  0  0  0  0
    1.1410   -1.6950    1.2100 C   0  0  0  0  0  0  0  0  0  0  0  0
    0.1640   -0.5590    1.1650 C   0  0  0  0  0  0  0  0  0  0  0  0
   -0.0180   -0.1870   -0.3020 C   0  0  2  0  0  0  0  0  0  0  0  0
   -0.2450   -1.6060   -0.9130 C   0  0  0  0  0  0  0  0  0  0  0  0
   -1.5240   -2.2160   -0.5420 C   0  0  0  0  0  0  0  0  0  0  0  0
   -2.6000   -1.4180    0.0430 C   0  0  0  0  0  0  0  0  0  0  0  0
   -2.4630    0.0420    0.1330 C   0  0  2  0  0  0  0  0  0  0  0  0
   -2.5900    0.6260    1.5000 C   0  0  0  0  0  0  0  0  0  0  0  0
   -3.5510    0.7520   -0.7070 C   0  0  0  0  0  0  0  0  0  0  0  0
   -2.9160    2.0520   -1.0570 C   0  0  0  0  0  0  0  0  0  0  0  0
   -1.4350    1.9540   -0.6180 C   0  0  0  0  0  0  0  0  0  0  0  0
   -1.2510    0.4910   -0.6530 C   0  0  1  0  0  0  0  0  0  0  0  0
  1  2  1  0
  2  3  1  0
  3  4  2  0
  5  3  1  1
  5  6  1  0
  5 14  1  0
  6  7  1  6
  6  8  1  0
  8  9  2  0
  8 12  1  0
  9 10  1  0
 10 11  1  0
 11 12  2  0
 12 13  1  0
 14 13  1  1
 14 15  1  0
 14 23  1  0
 15 16  1  0
 16 17  1  0
 17 18  1  0
 18 19  1  1
 18 20  1  0
 18 23  1  0
 20 21  1  0
 21 22  1  0
 23 22  1  1
M  END
