
     RDKit          3D

  9  9  0  0  0  0  0  0  0  0999 V2000
    2.8480    0.7210    1.3600 N   0  0  0  0  0  0  0  0  0  0  0  0
    2.0400   -0.4420    1.0590 C   0  0  0  0  0  0  0  0  0  0  0  0
    1.2840   -0.1370   -0.1720 C   0  0  0  0  0  0  0  0  0  0  0  0
   -0.0250   -0.1100   -0.3010 C   0  0  0  0  0  0  0  0  0  0  0  0
   -0.9820   -0.3750    0.7390 C   0  0  0  0  0  0  0  0  0  0  0  0
   -2.2780   -0.3140    0.4770 C   0  0  0  0  0  0  0  0  0  0  0  0
   -2.8000    0.0140   -0.8410 C   0  0  0  0  0  0  0  0  0  0  0  0
   -1.9570    0.2720   -1.8540 C   0  0  0  0  0  0  0  0  0  0  0  0
   -0.5630    0.2140   -1.6010 N   0  0  0  0  0  0  0  0  0  0  0  0
  1  2  1  0
  2  3  1  0
  3  4  2  3
  4  5  1  0
  4  9  1  0
  5  6  2  0
  6  7  1  0
  7  8  2  0
  8  9  1  0
M  END
