
     RDKit          3D

  9  9  0  0  0  0  0  0  0  0999 V2000
   -2.0780   -1.7960    0.8640 N   0  0  0  0  0  0  0  0  0  0  0  0
   -0.8120   -1.2830    0.5400 C   0  0  0  0  0  0  0  0  0  0  0  0
   -0.6160    0.0170    0.2770 C   0  0  0  0  0  0  0  0  0  0  0  0
   -1.6190    1.0740    0.2800 C   0  0  0  0  0  0  0  0  0  0  0  0
   -1.0040    2.2010   -0.0300 C   0  0  0  0  0  0  0  0  0  0  0  0
    0.4120    1.9690   -0.2530 C   0  0  0  0  0  0  0  0  0  0  0  0
    0.6330    0.6800   -0.0700 C   0  0  0  0  0  0  0  0  0  0  0  0
    1.9390   -0.0450   -0.1870 C   0  0  0  0  0  0  0  0  0  0  0  0
    1.8460   -1.0570   -1.2000 N   0  0  0  0  0  0  0  0  0  0  0  0
  1  2  1  0
  2  3  2  3
  3  4  1  0
  3  7  1  0
  4  5  2  0
  5  6  1  0
  6  7  2  0
  7  8  1  0
  8  9  1  0
M  END
