
     RDKit          3D

 34 38  0  0  0  0  0  0  0  0999 V2000
    1.1200    2.4030    0.4250 O   0  0  0  0  0  0  0  0  0  0  0  0
    1.2930    1.2090    0.0370 C   0  0  0  0  0  0  0  0  0  0  0  0
    2.6370    0.8130   -0.4200 C   0  0  2  0  0  0  0  0  0  0  0  0
    3.2290   -0.2660    0.4430 C   0  0  0  0  0  0  0  0  0  0  0  0
    4.4850    0.2390    1.1650 C   0  0  0  0  0  0  0  0  0  0  0  0
    5.4380    0.7120    0.1820 N   0  0  0  0  0  0  0  0  0  0  0  0
    6.8230    0.4160    0.2540 C   0  0  0  0  0  0  0  0  0  0  0  0
    7.4020   -0.2690    1.2950 C   0  0  0  0  0  0  0  0  0  0  0  0
    8.7750   -0.5410    1.3190 C   0  0  0  0  0  0  0  0  0  0  0  0
    9.5430   -0.1220    0.3000 N   0  0  0  0  0  0  0  0  0  0  0  0
    9.0120    0.5480   -0.7310 C   0  0  0  0  0  0  0  0  0  0  0  0
    7.6610    0.8190   -0.7610 C   0  0  0  0  0  0  0  0  0  0  0  0
    4.9270    1.5190   -0.9030 C   0  0  0  0  0  0  0  0  0  0  0  0
    3.5530    2.0220   -0.4950 C   0  0  0  0  0  0  0  0  0  0  0  0
    0.2140    0.2850    0.0460 N   0  0  0  0  0  0  0  0  0  0  0  0
   -1.0720    0.7220    0.5060 C   0  0  0  0  0  0  0  0  0  0  0  0
   -2.0110   -0.4310    0.5000 C   0  0  0  0  0  0  0  0  0  0  0  0
   -2.0470   -1.0900   -0.7770 N   0  0  0  0  0  0  0  0  0  0  0  0
   -3.3210   -2.2000   -0.9400 S   0  0  2  0  0  0  0  0  0  0  0  0
   -3.3350   -3.2660    0.1150 O   0  0  0  0  0  0  0  0  0  0  0  0
   -3.2330   -2.8810   -2.2760 O   0  0  0  0  0  0  0  0  0  0  0  0
   -4.8390   -1.3130   -0.7780 C   0  0  0  0  0  0  0  0  0  0  0  0
   -5.4680   -0.7750   -1.8770 C   0  0  0  0  0  0  0  0  0  0  0  0
   -6.6560   -0.0800   -1.7610 C   0  0  0  0  0  0  0  0  0  0  0  0
   -7.2590    0.1000   -0.5260 C   0  0  0  0  0  0  0  0  0  0  0  0
   -8.4520    0.7960   -0.4000 C   0  0  0  0  0  0  0  0  0  0  0  0
   -9.0530    0.9750    0.8360 C   0  0  0  0  0  0  0  0  0  0  0  0
  -10.5640    1.8580    0.9910 Cl  0  0  0  0  0  0  0  0  0  0  0  0
   -8.4170    0.4340    1.9280 C   0  0  0  0  0  0  0  0  0  0  0  0
   -7.2330   -0.2590    1.8100 C   0  0  0  0  0  0  0  0  0  0  0  0
   -6.6220   -0.4430    0.5700 C   0  0  0  0  0  0  0  0  0  0  0  0
   -5.4340   -1.1370    0.4520 C   0  0  0  0  0  0  0  0  0  0  0  0
   -0.7730   -1.5640   -1.2300 C   0  0  0  0  0  0  0  0  0  0  0  0
    0.3820   -1.0700   -0.3960 C   0  0  0  0  0  0  0  0  0  0  0  0
  1  2  2  0
  3  2  1  1
  2 15  1  0
  3  4  1  0
  3 14  1  0
  4  5  1  0
  5  6  1  0
  6  7  1  0
  6 13  1  0
  7  8  2  0
  7 12  1  0
  8  9  1  0
  9 10  2  0
 10 11  1  0
 11 12  2  0
 13 14  1  0
 15 16  1  0
 15 34  1  0
 16 17  1  0
 17 18  1  0
 19 18  1  1
 18 33  1  0
 19 20  2  0
 19 21  2  0
 19 22  1  0
 22 23  2  0
 22 32  1  0
 23 24  1  0
 24 25  2  0
 25 26  1  0
 25 31  1  0
 26 27  2  0
 27 28  1  0
 27 29  1  0
 29 30  2  0
 30 31  1  0
 31 32  2  0
 33 34  1  0
M  END
