
     RDKit          3D

 34 36  0  0  0  0  0  0  0  0999 V2000
   -1.0680    4.9760   -1.6760 C   0  0  0  0  0  0  0  0  0  0  0  0
   -2.2760    4.2490   -1.5570 O   0  0  0  0  0  0  0  0  0  0  0  0
   -2.2710    2.8780   -1.3050 C   0  0  0  0  0  0  0  0  0  0  0  0
   -1.0910    2.1690   -1.1590 C   0  0  0  0  0  0  0  0  0  0  0  0
   -1.0390    0.8150   -0.9100 C   0  0  0  0  0  0  0  0  0  0  0  0
    0.1750    0.1010   -0.8300 N   0  0  0  0  0  0  0  0  0  0  0  0
    1.4430    0.7350   -0.7460 C   0  0  0  0  0  0  0  0  0  0  0  0
    1.6590    1.9510   -0.7260 O   0  0  0  0  0  0  0  0  0  0  0  0
    2.6040   -0.1030   -0.6760 N   0  0  0  0  0  0  0  0  0  0  0  0
    3.9330    0.4700   -0.5920 C   0  0  0  0  0  0  0  0  0  0  0  0
    4.9300   -0.6820   -0.5240 C   0  0  0  0  0  0  0  0  0  0  0  0
    4.6270   -1.4520    0.6450 O   0  0  0  0  0  0  0  0  0  0  0  0
    4.6930   -0.8210    1.8770 C   0  0  0  0  0  0  0  0  0  0  0  0
    5.8310   -0.3540    2.3100 C   0  0  0  0  0  0  0  0  0  0  0  0
    6.0010    0.3360    3.6140 C   0  0  1  0  0  0  0  0  0  0  0  0
    6.4360    1.6450    3.4040 F   0  0  0  0  0  0  0  0  0  0  0  0
    4.7890    0.4220    4.3140 O   0  0  0  0  0  0  0  0  0  0  0  0
    3.5820   -0.0730    3.8580 C   0  0  0  0  0  0  0  0  0  0  0  0
    3.5030   -0.6760    2.6910 C   0  0  0  0  0  0  0  0  0  0  0  0
    2.3370   -1.1780    2.2070 F   0  0  0  0  0  0  0  0  0  0  0  0
   -2.2220    0.0970   -0.7930 C   0  0  0  0  0  0  0  0  0  0  0  0
   -2.3350   -1.2990   -0.4160 C   0  0  0  0  0  0  0  0  0  0  0  0
   -1.3730   -2.0130    0.0160 O   0  0  0  0  0  0  0  0  0  0  0  0
   -3.6190   -2.0230   -0.5100 C   0  0  0  0  0  0  0  0  0  0  0  0
   -3.9290   -2.9420    0.4980 C   0  0  0  0  0  0  0  0  0  0  0  0
   -5.0890   -3.6940    0.4210 C   0  0  0  0  0  0  0  0  0  0  0  0
   -5.9690   -3.5700   -0.6320 C   0  0  0  0  0  0  0  0  0  0  0  0
   -5.6720   -2.6690   -1.6300 C   0  0  0  0  0  0  0  0  0  0  0  0
   -6.5720   -2.5170   -2.7440 C   0  0  0  0  0  0  0  0  0  0  0  0
   -7.2920   -2.3960   -3.6410 N   0  0  0  0  0  0  0  0  0  0  0  0
   -4.5010   -1.9140   -1.5470 C   0  0  0  0  0  0  0  0  0  0  0  0
   -3.4070    0.8320   -0.9440 C   0  0  0  0  0  0  0  0  0  0  0  0
   -3.4290    2.1840   -1.1930 C   0  0  0  0  0  0  0  0  0  0  0  0
   -4.6070    2.8550   -1.3340 F   0  0  0  0  0  0  0  0  0  0  0  0
  1  2  1  0
  2  3  1  0
  3  4  2  0
  3 33  1  0
  4  5  1  0
  5  6  1  0
  5 21  2  0
  6  7  1  0
  7  8  2  0
  7  9  1  0
  9 10  1  0
 10 11  1  0
 11 12  1  0
 12 13  1  0
 13 14  2  0
 13 19  1  0
 14 15  1  0
 15 16  1  6
 15 17  1  0
 17 18  1  0
 18 19  2  0
 19 20  1  0
 21 22  1  0
 21 32  1  0
 22 23  2  0
 22 24  1  0
 24 25  2  0
 24 31  1  0
 25 26  1  0
 26 27  2  0
 27 28  1  0
 28 29  1  0
 28 31  2  0
 29 30  3  0
 32 33  2  0
 33 34  1  0
M  END
