
     RDKit          3D

 34 36  0  0  0  0  0  0  0  0999 V2000
   -3.8050    2.4830    3.1930 C   0  0  0  0  0  0  0  0  0  0  0  0
   -3.0610    2.9860    1.9860 C   0  0  0  0  0  0  0  0  0  0  0  0
   -2.6470    1.9020    1.2120 O   0  0  0  0  0  0  0  0  0  0  0  0
   -3.5240    1.0380    0.6340 C   0  0  0  0  0  0  0  0  0  0  0  0
   -4.8860    1.1880    0.7640 C   0  0  0  0  0  0  0  0  0  0  0  0
   -5.7840    0.2970    0.1660 C   0  0  0  0  0  0  0  0  0  0  0  0
   -5.2510   -0.7350   -0.5570 C   0  0  0  0  0  0  0  0  0  0  0  0
   -6.1310   -1.7100   -1.2130 C   0  0  0  0  0  0  0  0  0  0  0  0
   -5.6480   -2.6760   -1.8810 O   0  0  0  0  0  0  0  0  0  0  0  0
   -7.5410   -1.6430   -1.1490 N   0  0  0  0  0  0  0  0  0  0  0  0
   -8.4010   -2.6220   -1.8080 C   0  0  0  0  0  0  0  0  0  0  0  0
   -3.8600   -0.8830   -0.6860 C   0  0  0  0  0  0  0  0  0  0  0  0
   -2.9710   -0.0250   -0.1100 C   0  0  0  0  0  0  0  0  0  0  0  0
   -1.5540   -0.1220   -0.2040 N   0  0  0  0  0  0  0  0  0  0  0  0
   -0.8230   -1.0960   -0.8910 C   0  0  0  0  0  0  0  0  0  0  0  0
   -1.4030   -2.0050   -1.5090 O   0  0  0  0  0  0  0  0  0  0  0  0
    0.6360   -1.0960   -0.9180 C   0  0  0  0  0  0  0  0  0  0  0  0
    1.3230   -1.9760   -1.7590 C   0  0  0  0  0  0  0  0  0  0  0  0
    2.6910   -1.9780   -1.7810 C   0  0  0  0  0  0  0  0  0  0  0  0
    3.4340   -1.1770   -1.0350 N   0  0  0  0  0  0  0  0  0  0  0  0
    2.8160   -0.3150   -0.2120 C   0  0  0  0  0  0  0  0  0  0  0  0
    3.5930    0.5210    0.5670 O   0  0  0  0  0  0  0  0  0  0  0  0
    4.9680    0.4440    0.4730 C   0  0  0  0  0  0  0  0  0  0  0  0
    5.7450   -0.3890    1.2560 C   0  0  0  0  0  0  0  0  0  0  0  0
    7.1070   -0.4170    1.1110 C   0  0  0  0  0  0  0  0  0  0  0  0
    7.7890    0.3780    0.1810 C   0  0  0  0  0  0  0  0  0  0  0  0
    9.1460    0.2780    0.1140 O   0  0  0  0  0  0  0  0  0  0  0  0
   10.1040    0.8850   -0.6520 C   0  0  2  0  0  0  0  0  0  0  0  0
   10.8440   -0.0420   -1.3850 F   0  0  0  0  0  0  0  0  0  0  0  0
   11.0230    1.4950    0.2250 F   0  0  0  0  0  0  0  0  0  0  0  0
    7.0000    1.1980   -0.5870 C   0  0  0  0  0  0  0  0  0  0  0  0
    7.5780    2.0020   -1.5130 F   0  0  0  0  0  0  0  0  0  0  0  0
    5.6040    1.2400   -0.4520 C   0  0  0  0  0  0  0  0  0  0  0  0
    1.4280   -0.2750   -0.1540 C   0  0  0  0  0  0  0  0  0  0  0  0
  1  2  1  0
  2  3  1  0
  3  4  1  0
  4  5  2  0
  4 13  1  0
  5  6  1  0
  6  7  2  0
  7  8  1  0
  7 12  1  0
  8  9  2  0
  8 10  1  0
 10 11  1  0
 12 13  2  0
 13 14  1  0
 14 15  1  0
 15 16  2  0
 15 17  1  0
 17 18  2  0
 17 34  1  0
 18 19  1  0
 19 20  2  0
 20 21  1  0
 21 22  1  0
 21 34  2  0
 22 23  1  0
 23 24  2  0
 23 33  1  0
 24 25  1  0
 25 26  2  0
 26 27  1  0
 26 31  1  0
 27 28  1  0
 28 29  1  1
 28 30  1  0
 31 32  1  0
 31 33  2  0
M  END
