
     RDKit          3D

 34 36  0  0  0  0  0  0  0  0999 V2000
    8.4860   -1.1010    1.6070 C   0  0  0  0  0  0  0  0  0  0  0  0
    7.9700    0.2060    1.0490 C   0  0  0  0  0  0  0  0  0  0  0  0
    6.5490    0.1090    0.6990 C   0  0  0  0  0  0  0  0  0  0  0  0
    5.5920    0.6730    1.5300 C   0  0  0  0  0  0  0  0  0  0  0  0
    4.2330    0.5850    1.2080 C   0  0  0  0  0  0  0  0  0  0  0  0
    3.8500   -0.0530    0.0810 C   0  0  0  0  0  0  0  0  0  0  0  0
    2.4810   -0.1510   -0.2940 N   0  0  0  0  0  0  0  0  0  0  0  0
    1.4030    0.5560    0.2250 C   0  0  0  0  0  0  0  0  0  0  0  0
    1.5820    1.4020    1.1310 O   0  0  0  0  0  0  0  0  0  0  0  0
    0.0470    0.3660   -0.2330 C   0  0  0  0  0  0  0  0  0  0  0  0
   -0.2390   -0.5320   -1.2230 C   0  0  0  0  0  0  0  0  0  0  0  0
   -1.5540   -0.6840   -1.6330 C   0  0  0  0  0  0  0  0  0  0  0  0
   -2.5260    0.0410   -1.0640 N   0  0  0  0  0  0  0  0  0  0  0  0
   -2.2500    0.9160   -0.1010 C   0  0  0  0  0  0  0  0  0  0  0  0
   -3.2740    1.6560    0.4730 O   0  0  0  0  0  0  0  0  0  0  0  0
   -4.5680    1.4580    0.0240 C   0  0  0  0  0  0  0  0  0  0  0  0
   -5.2720    2.4920   -0.5280 C   0  0  0  0  0  0  0  0  0  0  0  0
   -6.5750    2.2750   -0.9750 C   0  0  0  0  0  0  0  0  0  0  0  0
   -7.2570    3.3490   -1.5290 O   0  0  0  0  0  0  0  0  0  0  0  0
   -8.5780    3.1200   -1.9800 C   0  0  0  0  0  0  0  0  0  0  0  0
   -7.1390    1.0240   -0.8580 C   0  0  0  0  0  0  0  0  0  0  0  0
   -6.4160   -0.0160   -0.2970 C   0  0  0  0  0  0  0  0  0  0  0  0
   -5.1230    0.1540    0.1610 C   0  0  0  0  0  0  0  0  0  0  0  0
   -4.3340   -0.7720    0.7230 O   0  0  0  0  0  0  0  0  0  0  0  0
   -4.4500   -2.0580    1.0770 C   0  0  0  0  0  0  0  0  0  0  0  0
   -5.3980   -2.4320    2.1650 C   0  0  1  0  0  0  0  0  0  0  0  0
   -5.0620   -1.7800    3.3660 F   0  0  0  0  0  0  0  0  0  0  0  0
   -6.6920   -2.2780    1.8420 F   0  0  0  0  0  0  0  0  0  0  0  0
   -5.2300   -3.8040    2.4640 F   0  0  0  0  0  0  0  0  0  0  0  0
   -0.9650    1.0640    0.3000 N   0  0  0  0  0  0  0  0  0  0  0  0
    4.8400   -0.6110   -0.7360 C   0  0  0  0  0  0  0  0  0  0  0  0
    6.1820   -0.5460   -0.4550 C   0  0  0  0  0  0  0  0  0  0  0  0
    7.2000   -1.1340   -1.3200 C   0  0  0  0  0  0  0  0  0  0  0  0
    6.6720   -1.7590   -2.4460 O   0  0  0  0  0  0  0  0  0  0  0  0
  1  2  1  0
  2  3  1  0
  3  4  2  0
  3 32  1  0
  4  5  1  0
  5  6  2  0
  6  7  1  0
  6 31  1  0
  7  8  1  0
  8  9  2  0
  8 10  1  0
 10 11  2  0
 10 30  1  0
 11 12  1  0
 12 13  2  0
 13 14  1  0
 14 15  1  0
 14 30  2  0
 15 16  1  0
 16 17  2  0
 16 23  1  0
 17 18  1  0
 18 19  1  0
 18 21  2  0
 19 20  1  0
 21 22  1  0
 22 23  2  0
 23 24  1  0
 24 25  1  0
 25 26  1  0
 26 27  1  1
 26 28  1  0
 26 29  1  0
 31 32  2  0
 32 33  1  0
 33 34  1  0
M  END
