
     RDKit          3D

 29 31  0  0  0  0  0  0  0  0999 V2000
    6.9200    1.7630   -0.0090 N   0  0  0  0  0  0  0  0  0  0  0  0
    6.6230    0.3180   -0.0440 C   0  0  0  0  0  0  0  0  0  0  0  0
    5.1750    0.0980   -0.0960 C   0  0  0  0  0  0  0  0  0  0  0  0
    4.3880    0.5240   -1.1660 C   0  0  0  0  0  0  0  0  0  0  0  0
    5.0500    1.1050   -2.2790 O   0  0  0  0  0  0  0  0  0  0  0  0
    3.0420    0.4190   -1.1050 C   0  0  0  0  0  0  0  0  0  0  0  0
    2.3320   -0.0700   -0.0570 C   0  0  0  0  0  0  0  0  0  0  0  0
    1.0290    0.2240    0.1760 N   0  0  0  0  0  0  0  0  0  0  0  0
   -0.0450   -0.3330    0.8150 C   0  0  0  0  0  0  0  0  0  0  0  0
   -0.4470   -1.7120    0.4190 C   0  0  0  0  0  0  0  0  0  0  0  0
    0.3380   -2.7980    0.5850 C   0  0  0  0  0  0  0  0  0  0  0  0
   -0.2190   -4.1020    0.5980 C   0  0  0  0  0  0  0  0  0  0  0  0
    0.5350   -5.1750    0.8710 F   0  0  0  0  0  0  0  0  0  0  0  0
   -1.5500   -4.2230    0.4090 C   0  0  0  0  0  0  0  0  0  0  0  0
   -2.3520   -3.1490    0.2020 C   0  0  0  0  0  0  0  0  0  0  0  0
   -1.8360   -1.8940    0.2110 C   0  0  0  0  0  0  0  0  0  0  0  0
   -2.6770   -0.7880    0.2630 N   0  0  0  0  0  0  0  0  0  0  0  0
   -2.6210    0.4060   -0.5720 C   0  0  0  0  0  0  0  0  0  0  0  0
   -1.8290    0.4640   -1.4430 O   0  0  0  0  0  0  0  0  0  0  0  0
   -3.6750    1.3070   -0.1400 C   0  0  0  0  0  0  0  0  0  0  0  0
   -3.4990    2.1710    0.9640 C   0  0  0  0  0  0  0  0  0  0  0  0
   -4.5800    2.7380    1.4510 N   0  0  0  0  0  0  0  0  0  0  0  0
   -5.8410    2.6100    0.9680 C   0  0  0  0  0  0  0  0  0  0  0  0
   -6.0030    1.7810   -0.1500 C   0  0  0  0  0  0  0  0  0  0  0  0
   -7.2580    1.6160   -0.7820 N   0  0  0  0  0  0  0  0  0  0  0  0
   -4.9030    1.1410   -0.6130 C   0  0  0  0  0  0  0  0  0  0  0  0
    3.1350   -0.4730    0.9840 C   0  0  0  0  0  0  0  0  0  0  0  0
    4.4060   -0.3980    0.9980 C   0  0  0  0  0  0  0  0  0  0  0  0
    5.2050   -1.2020    1.8810 F   0  0  0  0  0  0  0  0  0  0  0  0
  1  2  1  0
  2  3  1  0
  3  4  2  0
  3 28  1  0
  4  5  1  0
  4  6  1  0
  6  7  2  0
  7  8  1  0
  7 27  1  0
  8  9  1  0
  9 10  1  0
 10 11  2  0
 10 16  1  0
 11 12  1  0
 12 13  1  0
 12 14  2  0
 14 15  1  0
 15 16  2  0
 16 17  1  0
 17 18  1  0
 18 19  2  0
 18 20  1  0
 20 21  2  0
 20 26  1  0
 21 22  1  0
 22 23  2  0
 23 24  1  0
 24 25  1  0
 24 26  2  0
 27 28  2  0
 28 29  1  0
M  CHG  2   1   1  25   1
M  END
