
     RDKit          3D

 29 30  0  0  0  0  0  0  0  0999 V2000
   -4.5680    4.9220    0.2900 N   0  0  0  0  0  0  0  0  0  0  0  0
   -3.2460    4.3350    0.3770 C   0  0  0  0  0  0  0  0  0  0  0  0
   -3.3190    2.9120   -0.1240 C   0  0  0  0  0  0  0  0  0  0  0  0
   -1.9710    2.2250   -0.0640 C   0  0  0  0  0  0  0  0  0  0  0  0
   -2.1610    0.8340   -0.5790 C   0  0  0  0  0  0  0  0  0  0  0  0
   -0.8780    0.0140   -0.5790 C   0  0  2  0  0  0  0  0  0  0  0  0
    0.1010    0.6940   -1.4420 N   0  0  0  0  0  0  0  0  0  0  0  0
    1.2060    1.1780   -0.5920 C   0  0  1  0  0  0  0  0  0  0  0  0
    2.2000    0.0820   -0.3750 C   0  0  0  0  0  0  0  0  0  0  0  0
    3.3280    0.5540    0.4970 C   0  0  0  0  0  0  0  0  0  0  0  0
    4.3090   -0.5660    0.7400 C   0  0  0  0  0  0  0  0  0  0  0  0
    4.1630   -1.4130    1.8130 C   0  0  0  0  0  0  0  0  0  0  0  0
    5.0500   -2.4560    2.0650 C   0  0  0  0  0  0  0  0  0  0  0  0
    6.1170   -2.6580    1.2160 C   0  0  0  0  0  0  0  0  0  0  0  0
    6.2630   -1.8100    0.1410 C   0  0  0  0  0  0  0  0  0  0  0  0
    5.3710   -0.7620   -0.1100 C   0  0  0  0  0  0  0  0  0  0  0  0
    1.8500    2.3180   -1.2620 C   0  0  0  0  0  0  0  0  0  0  0  0
    1.5360    2.5410   -2.4800 O   0  0  0  0  0  0  0  0  0  0  0  0
    2.7560    3.1250   -0.6130 O   0  0  0  0  0  0  0  0  0  0  0  0
   -1.2110   -1.2910   -1.2400 C   0  0  0  0  0  0  0  0  0  0  0  0
   -0.8640   -1.4740   -2.4650 O   0  0  0  0  0  0  0  0  0  0  0  0
   -1.8850   -2.3510   -0.6110 N   0  0  0  0  0  0  0  0  0  0  0  0
   -2.2440   -3.6060   -1.2320 C   0  0  0  0  0  0  0  0  0  0  0  0
   -3.6250   -3.8160   -0.6580 C   0  0  0  0  0  0  0  0  0  0  0  0
   -3.6810   -3.1570    0.4940 C   0  0  0  0  0  0  0  0  0  0  0  0
   -2.3540   -2.4800    0.7460 C   0  0  1  0  0  0  0  0  0  0  0  0
   -1.4730   -3.3650    1.5550 C   0  0  0  0  0  0  0  0  0  0  0  0
   -1.7630   -3.5660    2.7590 O   0  0  0  0  0  0  0  0  0  0  0  0
   -0.3740   -3.9270    0.9420 O   0  0  0  0  0  0  0  0  0  0  0  0
  1  2  1  0
  2  3  1  0
  3  4  1  0
  4  5  1  0
  6  5  1  6
  6  7  1  0
  6 20  1  0
  7  8  1  0
  8  9  1  6
  8 17  1  0
  9 10  1  0
 10 11  1  0
 11 12  2  0
 11 16  1  0
 12 13  1  0
 13 14  2  0
 14 15  1  0
 15 16  2  0
 17 18  2  0
 17 19  1  0
 20 21  2  0
 20 22  1  0
 22 23  1  0
 22 26  1  0
 23 24  1  0
 24 25  2  0
 25 26  1  0
 26 27  1  1
 27 28  2  0
 27 29  1  0
M  CHG  2   1   1   7   1
M  END
