
     RDKit          3D

 31 34  0  0  0  0  0  0  0  0999 V2000
    7.0340    1.7210    0.9040 C   0  0  0  0  0  0  0  0  0  0  0  0
    7.2690    0.4260    0.4450 O   0  0  0  0  0  0  0  0  0  0  0  0
    6.2790   -0.4080   -0.0450 C   0  0  0  0  0  0  0  0  0  0  0  0
    4.9600    0.0410   -0.0960 C   0  0  0  0  0  0  0  0  0  0  0  0
    3.9520   -0.7530   -0.5730 C   0  0  0  0  0  0  0  0  0  0  0  0
    2.5670   -0.3220   -0.6420 C   0  0  0  0  0  0  0  0  0  0  0  0
    2.1250    0.9070   -0.2350 C   0  0  0  0  0  0  0  0  0  0  0  0
    0.7660    1.1970   -0.3520 C   0  0  0  0  0  0  0  0  0  0  0  0
   -0.1190    0.2780   -0.8630 C   0  0  0  0  0  0  0  0  0  0  0  0
   -1.5330    0.5630   -0.9950 N   0  0  0  0  0  0  0  0  0  0  0  0
   -2.3890    0.1740    0.0220 N   0  0  0  0  0  0  0  0  0  0  0  0
   -3.7320    0.3680   -0.0500 C   0  0  0  0  0  0  0  0  0  0  0  0
   -4.3290    0.8590   -1.2930 C   0  0  0  0  0  0  0  0  0  0  0  0
   -5.4890    1.3700   -1.5970 C   0  0  0  0  0  0  0  0  0  0  0  0
   -5.5460    1.6790   -2.9890 O   0  0  0  0  0  0  0  0  0  0  0  0
   -4.5340    0.8770   -3.6010 C   0  0  0  0  0  0  0  0  0  0  0  0
   -3.6220    0.8360   -2.5250 O   0  0  0  0  0  0  0  0  0  0  0  0
   -4.4730    0.0020    1.0440 C   0  0  0  0  0  0  0  0  0  0  0  0
   -5.9450    0.1350    1.0400 C   0  0  0  0  0  0  0  0  0  0  0  0
   -3.9420   -0.5490    2.2060 C   0  0  0  0  0  0  0  0  0  0  0  0
   -4.7750   -0.9210    3.3500 C   0  0  0  0  0  0  0  0  0  0  0  0
   -2.5850   -0.7330    2.2450 C   0  0  0  0  0  0  0  0  0  0  0  0
   -1.9880   -1.2740    3.3630 F   0  0  0  0  0  0  0  0  0  0  0  0
   -1.8520   -0.3680    1.1560 C   0  0  0  0  0  0  0  0  0  0  0  0
   -0.6160   -0.5430    1.2050 O   0  0  0  0  0  0  0  0  0  0  0  0
    0.3650   -0.9090   -1.2460 N   0  0  0  0  0  0  0  0  0  0  0  0
    1.6380   -1.1860   -1.1380 N   0  0  0  0  0  0  0  0  0  0  0  0
    4.3020   -2.0150   -1.0000 C   0  0  0  0  0  0  0  0  0  0  0  0
    5.6110   -2.4680   -0.9520 C   0  0  0  0  0  0  0  0  0  0  0  0
    6.6140   -1.6640   -0.4710 C   0  0  0  0  0  0  0  0  0  0  0  0
    7.9310   -2.0650   -0.4020 O   0  0  0  0  0  0  0  0  0  0  0  0
  1  2  1  0
  2  3  1  0
  3  4  2  0
  3 30  1  0
  4  5  1  0
  5  6  1  0
  5 28  2  0
  6  7  2  0
  6 27  1  0
  7  8  1  0
  8  9  2  0
  9 10  1  0
  9 26  1  0
 10 11  1  0
 11 12  1  0
 11 24  1  0
 12 13  1  0
 12 18  2  0
 13 14  2  0
 13 17  1  0
 14 15  1  0
 15 16  1  0
 16 17  1  0
 18 19  1  0
 18 20  1  0
 20 21  1  0
 20 22  2  0
 22 23  1  0
 22 24  1  0
 24 25  2  0
 26 27  2  0
 28 29  1  0
 29 30  2  0
 30 31  1  0
M  END
