
     RDKit          3D

 31 34  0  0  0  0  0  0  0  0999 V2000
    7.3330    0.1730   -1.4440 C   0  0  0  0  0  0  0  0  0  0  0  0
    6.8720   -0.1880   -0.0610 C   0  0  1  0  0  0  0  0  0  0  0  0
    7.7560   -1.2150    0.3810 O   0  0  0  0  0  0  0  0  0  0  0  0
    6.9220    0.8800    0.8420 O   0  0  0  0  0  0  0  0  0  0  0  0
    5.7580    0.9250    1.6260 C   0  0  0  0  0  0  0  0  0  0  0  0
    5.5580    1.6980    2.5870 O   0  0  0  0  0  0  0  0  0  0  0  0
    4.8610   -0.0760    1.1170 C   0  0  0  0  0  0  0  0  0  0  0  0
    3.6660   -0.6570    1.1470 N   0  0  0  0  0  0  0  0  0  0  0  0
    3.4580   -1.5630    0.2520 N   0  0  0  0  0  0  0  0  0  0  0  0
    2.2750   -2.3780    0.0720 C   0  0  0  0  0  0  0  0  0  0  0  0
    1.2290   -1.5720   -0.7020 C   0  0  0  0  0  0  0  0  0  0  0  0
    0.1380   -2.0500   -0.9200 O   0  0  0  0  0  0  0  0  0  0  0  0
    1.6350   -0.2920   -1.0990 N   0  0  0  0  0  0  0  0  0  0  0  0
    0.8830    0.7340   -1.7460 C   0  0  0  0  0  0  0  0  0  0  0  0
   -0.3740    1.0040   -0.9550 C   0  0  0  0  0  0  0  0  0  0  0  0
   -1.4730    0.1890   -1.0550 C   0  0  0  0  0  0  0  0  0  0  0  0
   -2.6140    0.5170   -0.2930 C   0  0  0  0  0  0  0  0  0  0  0  0
   -2.6340    1.5980    0.5050 C   0  0  0  0  0  0  0  0  0  0  0  0
   -1.4900    2.4130    0.5640 C   0  0  0  0  0  0  0  0  0  0  0  0
   -0.3790    2.1160   -0.1590 C   0  0  0  0  0  0  0  0  0  0  0  0
    0.7810    2.9170   -0.1330 O   0  0  0  0  0  0  0  0  0  0  0  0
   -3.7820    1.9130    1.3620 C   0  0  0  0  0  0  0  0  0  0  0  0
   -4.2790    0.5030    1.8400 C   0  0  0  0  0  0  0  0  0  0  0  0
   -4.7730   -0.0450    0.5910 N   0  0  0  0  0  0  0  0  0  0  0  0
   -6.1470   -0.0940    0.3220 C   0  0  0  0  0  0  0  0  0  0  0  0
   -6.8910   -1.1940    0.2320 C   0  0  0  0  0  0  0  0  0  0  0  0
   -8.3320   -1.1340   -0.0420 C   0  0  0  0  0  0  0  0  0  0  0  0
   -9.0140   -1.6120    1.0940 F   0  0  0  0  0  0  0  0  0  0  0  0
   -3.8150   -0.4130   -0.4360 C   0  0  0  0  0  0  0  0  0  0  0  0
    4.5980   -1.6220   -0.4620 C   0  0  0  0  0  0  0  0  0  0  0  0
    5.5170   -0.7290    0.0160 C   0  0  0  0  0  0  0  0  0  0  0  0
  2  1  1  6
  2  3  1  0
  2  4  1  0
  2 31  1  0
  4  5  1  0
  5  6  2  0
  5  7  1  0
  7  8  2  0
  7 31  1  0
  8  9  1  0
  9 10  1  0
  9 30  1  0
 10 11  1  0
 11 12  2  0
 11 13  1  0
 13 14  1  0
 14 15  1  0
 15 16  2  0
 15 20  1  0
 16 17  1  0
 17 18  2  0
 17 29  1  0
 18 19  1  0
 18 22  1  0
 19 20  2  0
 20 21  1  0
 22 23  1  0
 23 24  1  0
 24 25  1  0
 24 29  1  0
 25 26  2  3
 26 27  1  0
 27 28  1  0
 30 31  2  0
M  END
