
     RDKit          3D

 29 30  0  0  0  0  0  0  0  0999 V2000
   -2.4420   -3.2310   -1.3750 C   0  0  0  0  0  0  0  0  0  0  0  0
   -2.3870   -1.8680   -0.7770 C   0  0  0  0  0  0  0  0  0  0  0  0
   -3.4850   -1.3420   -0.2630 C   0  0  0  0  0  0  0  0  0  0  0  0
   -4.7440   -2.1150   -0.2920 C   0  0  0  0  0  0  0  0  0  0  0  0
   -3.4580   -0.0090    0.3320 C   0  0  0  0  0  0  0  0  0  0  0  0
   -4.5550    0.5050    0.8400 C   0  0  0  0  0  0  0  0  0  0  0  0
   -4.7260    1.8100    1.4720 C   0  0  0  0  0  0  0  0  0  0  0  0
   -5.7260    2.5400    0.6810 N   0  0  0  0  0  0  0  0  0  0  0  0
   -2.1680    0.6930    0.3230 C   0  0  0  0  0  0  0  0  0  0  0  0
   -1.0990    0.1570   -0.1910 C   0  0  0  0  0  0  0  0  0  0  0  0
    0.2070    0.8140   -0.2320 C   0  0  0  0  0  0  0  0  0  0  0  0
    0.3560    2.1490   -0.3180 C   0  0  0  0  0  0  0  0  0  0  0  0
   -0.6110    3.1190   -0.8460 C   0  0  2  0  0  0  0  0  0  0  0  0
   -1.8670    2.8590   -1.0870 F   0  0  0  0  0  0  0  0  0  0  0  0
   -0.0890    3.1950   -2.2500 F   0  0  0  0  0  0  0  0  0  0  0  0
    1.6680    2.6440   -0.0800 C   0  0  0  0  0  0  0  0  0  0  0  0
    2.6990    1.8610    0.2030 N   0  0  0  0  0  0  0  0  0  0  0  0
    2.5120    0.5390    0.2710 C   0  0  0  0  0  0  0  0  0  0  0  0
    3.6100   -0.2990    0.5680 O   0  0  0  0  0  0  0  0  0  0  0  0
    4.8800    0.2430    0.7890 C   0  0  1  0  0  0  0  0  0  0  0  0
    5.8180   -0.9310    1.0790 C   0  0  0  0  0  0  0  0  0  0  0  0
    5.4510    0.9560   -0.4110 C   0  0  0  0  0  0  0  0  0  0  0  0
    4.8900    1.1230    1.9970 C   0  0  0  0  0  0  0  0  0  0  0  0
    1.3160   -0.0360    0.0680 C   0  0  0  0  0  0  0  0  0  0  0  0
    1.0860   -1.4170    0.1250 N   0  0  0  0  0  0  0  0  0  0  0  0
    1.2510   -2.1980   -1.0600 C   0  0  0  0  0  0  0  0  0  0  0  0
    1.1730   -3.6050   -0.9410 N   0  0  0  0  0  0  0  0  0  0  0  0
    1.4650   -1.6570   -2.2190 N   0  0  0  0  0  0  0  0  0  0  0  0
   -1.2490   -1.1100   -0.7230 O   0  0  0  0  0  0  0  0  0  0  0  0
  1  2  1  0
  2  3  2  0
  2 29  1  0
  3  4  1  0
  3  5  1  0
  5  6  2  3
  5  9  1  0
  6  7  1  0
  7  8  1  0
  9 10  2  0
 10 11  1  0
 10 29  1  0
 11 12  2  0
 11 24  1  0
 12 13  1  0
 12 16  1  0
 13 14  1  6
 13 15  1  0
 16 17  2  0
 17 18  1  0
 18 19  1  0
 18 24  2  0
 19 20  1  0
 20 21  1  1
 20 22  1  0
 20 23  1  0
 24 25  1  0
 25 26  1  0
 26 27  1  0
 26 28  2  0
M  CHG  2   8   1  28   1
M  END
