
     RDKit          3D

 29 31  0  0  0  0  0  0  0  0999 V2000
    3.0690   -2.8390   -1.3550 N   0  0  0  0  0  0  0  0  0  0  0  0
    3.9180   -1.6870   -1.2450 C   0  0  0  0  0  0  0  0  0  0  0  0
    5.2340   -1.7360   -1.6460 C   0  0  0  0  0  0  0  0  0  0  0  0
    6.0570   -0.6360   -1.5440 C   0  0  0  0  0  0  0  0  0  0  0  0
    7.3760   -0.7220   -1.9570 O   0  0  0  0  0  0  0  0  0  0  0  0
    5.5150    0.5160   -1.0250 C   0  0  0  0  0  0  0  0  0  0  0  0
    4.1850    0.6160   -0.6040 C   0  0  0  0  0  0  0  0  0  0  0  0
    3.3950   -0.4870   -0.7160 C   0  0  0  0  0  0  0  0  0  0  0  0
    2.0400   -0.5220   -0.3310 N   0  0  0  0  0  0  0  0  0  0  0  0
    1.2750    0.5260    0.2220 C   0  0  0  0  0  0  0  0  0  0  0  0
    1.7820    1.6250    0.4180 O   0  0  0  0  0  0  0  0  0  0  0  0
   -0.0990    0.3760    0.5770 N   0  0  0  0  0  0  0  0  0  0  0  0
   -0.8600    1.4390    1.1340 C   0  0  0  0  0  0  0  0  0  0  0  0
   -2.1410    1.1550    1.4200 C   0  0  0  0  0  0  0  0  0  0  0  0
   -2.6830   -0.1330    1.1740 N   0  0  0  0  0  0  0  0  0  0  0  0
   -2.9270   -0.5190   -0.1690 C   0  0  0  0  0  0  0  0  0  0  0  0
   -2.9770    0.4800   -1.1640 C   0  0  0  0  0  0  0  0  0  0  0  0
   -3.3430    0.2020   -2.4540 C   0  0  0  0  0  0  0  0  0  0  0  0
   -3.6700   -1.0900   -2.7890 C   0  0  0  0  0  0  0  0  0  0  0  0
   -4.0410   -1.3880   -4.0720 F   0  0  0  0  0  0  0  0  0  0  0  0
   -3.6190   -2.0560   -1.8280 C   0  0  0  0  0  0  0  0  0  0  0  0
   -3.2450   -1.8070   -0.4920 C   0  0  0  0  0  0  0  0  0  0  0  0
   -3.0980   -2.9750    0.3500 C   0  0  0  0  0  0  0  0  0  0  0  0
   -2.3900   -3.1450    1.4310 C   0  0  0  0  0  0  0  0  0  0  0  0
   -2.4280   -4.3790    2.0620 F   0  0  0  0  0  0  0  0  0  0  0  0
   -3.0090    2.2000    2.0000 C   0  0  0  0  0  0  0  0  0  0  0  0
   -2.5120    3.5380    1.4780 C   0  0  0  0  0  0  0  0  0  0  0  0
   -1.1740    3.6910    2.0110 N   0  0  0  0  0  0  0  0  0  0  0  0
   -0.2610    2.7760    1.3800 C   0  0  0  0  0  0  0  0  0  0  0  0
  1  2  1  0
  2  3  2  0
  2  8  1  0
  3  4  1  0
  4  5  1  0
  4  6  2  0
  6  7  1  0
  7  8  2  0
  8  9  1  0
  9 10  1  0
 10 11  2  0
 10 12  1  0
 12 13  1  0
 13 14  2  0
 13 29  1  0
 14 15  1  0
 14 26  1  0
 15 16  1  0
 16 17  2  0
 16 22  1  0
 17 18  1  0
 18 19  2  0
 19 20  1  0
 19 21  1  0
 21 22  2  0
 22 23  1  0
 23 24  2  3
 24 25  1  0
 26 27  1  0
 27 28  1  0
 28 29  1  0
M  CHG  2   1   1  28   1
M  END
