
     RDKit          3D

 29 31  0  0  0  0  0  0  0  0999 V2000
   -5.2860   -0.0170   -0.9800 C   0  0  0  0  0  0  0  0  0  0  0  0
   -3.9530    0.1430   -0.3390 C   0  0  0  0  0  0  0  0  0  0  0  0
   -2.9100   -0.5780   -0.8710 C   0  0  0  0  0  0  0  0  0  0  0  0
   -1.6470   -0.4550   -0.2980 C   0  0  0  0  0  0  0  0  0  0  0  0
   -1.4470    0.3860    0.7960 C   0  0  0  0  0  0  0  0  0  0  0  0
   -2.5300    1.0830    1.2840 C   0  0  0  0  0  0  0  0  0  0  0  0
   -3.8010    0.9840    0.7400 C   0  0  0  0  0  0  0  0  0  0  0  0
   -4.9610    1.7520    1.2890 C   0  0  0  0  0  0  0  0  0  0  0  0
   -4.5510    2.5600    2.4140 N   0  0  0  0  0  0  0  0  0  0  0  0
   -0.2700    0.6700    1.5350 O   0  0  0  0  0  0  0  0  0  0  0  0
    1.0590    0.3620    1.0580 C   0  0  0  0  0  0  0  0  0  0  0  0
    1.9700    1.2470    1.1530 C   0  0  0  0  0  0  0  0  0  0  0  0
    1.5020    2.4610    1.7790 F   0  0  0  0  0  0  0  0  0  0  0  0
    3.3080    1.4280    0.6060 C   0  0  0  0  0  0  0  0  0  0  0  0
    3.9860    2.4690    1.0290 C   0  0  0  0  0  0  0  0  0  0  0  0
    5.3010    3.0040    0.7390 C   0  0  0  0  0  0  0  0  0  0  0  0
    6.0550    2.4090   -0.2010 F   0  0  0  0  0  0  0  0  0  0  0  0
    3.8780    0.4930   -0.3060 C   0  0  0  0  0  0  0  0  0  0  0  0
    5.1200   -0.0420   -0.3730 C   0  0  0  0  0  0  0  0  0  0  0  0
    5.2500   -0.7440   -1.5250 N   0  0  0  0  0  0  0  0  0  0  0  0
    4.1150   -0.6680   -2.1960 N   0  0  0  0  0  0  0  0  0  0  0  0
    3.2520    0.0700   -1.4990 C   0  0  0  0  0  0  0  0  0  0  0  0
    1.3280   -0.9730    0.4940 C   0  0  0  0  0  0  0  0  0  0  0  0
    2.4910   -1.5060    0.9920 O   0  0  0  0  0  0  0  0  0  0  0  0
    0.6090   -1.6550   -0.3710 C   0  0  0  0  0  0  0  0  0  0  0  0
    1.0410   -2.9770   -0.8190 C   0  0  0  0  0  0  0  0  0  0  0  0
    0.0500   -4.0080   -0.5250 N   0  0  0  0  0  0  0  0  0  0  0  0
   -0.6680   -1.2620   -0.9510 N   0  0  0  0  0  0  0  0  0  0  0  0
   -0.9990   -1.7000   -2.2570 C   0  0  0  0  0  0  0  0  0  0  0  0
  1  2  1  0
  2  3  2  0
  2  7  1  0
  3  4  1  0
  4  5  2  0
  4 28  1  0
  5  6  1  0
  5 10  1  0
  6  7  2  0
  7  8  1  0
  8  9  1  0
 10 11  1  0
 11 12  2  3
 11 23  1  0
 12 13  1  0
 12 14  1  0
 14 15  2  3
 14 18  1  0
 15 16  1  0
 16 17  1  0
 18 19  1  0
 18 22  2  0
 19 20  2  0
 20 21  1  0
 21 22  1  0
 23 24  1  0
 23 25  2  0
 25 26  1  0
 25 28  1  0
 26 27  1  0
 28 29  1  0
M  CHG  2   9   1  27   1
M  END
