
     RDKit          3D

 12 12  0  0  0  0  0  0  0  0999 V2000
    1.4080    1.7750    0.4530 N   0  0  0  0  0  0  0  0  0  0  0  0
    0.6730    0.5770    0.2180 C   0  0  0  0  0  0  0  0  0  0  0  0
    1.3140   -0.5150   -0.1610 C   0  0  0  0  0  0  0  0  0  0  0  0
    2.7870   -0.5240   -0.3490 C   0  0  0  0  0  0  0  0  0  0  0  0
    3.3520    0.7030   -0.0850 O   0  0  0  0  0  0  0  0  0  0  0  0
    0.5670   -1.7390   -0.4020 C   0  0  0  0  0  0  0  0  0  0  0  0
   -0.7000   -1.8190   -0.2640 N   0  0  0  0  0  0  0  0  0  0  0  0
   -1.5080   -0.7070    0.1420 C   0  0  2  0  0  0  0  0  0  0  0  0
   -2.1430   -1.0460    1.3470 O   0  0  0  0  0  0  0  0  0  0  0  0
   -2.4540   -0.4220   -0.8490 O   0  0  0  0  0  0  0  0  0  0  0  0
   -3.1960    0.6280   -0.4360 N   0  0  0  0  0  0  0  0  0  0  0  0
   -0.7200    0.4810    0.3670 N   0  0  0  0  0  0  0  0  0  0  0  0
  1  2  1  0
  2  3  2  0
  2 12  1  0
  3  4  1  0
  3  6  1  0
  4  5  1  0
  6  7  2  0
  7  8  1  0
  8  9  1  1
  8 10  1  0
  8 12  1  0
 10 11  1  0
M  CHG  1  11   1
M  END
