
     RDKit          3D

 12 11  0  0  0  0  0  0  0  0999 V2000
   -2.0480   -2.3990    0.0180 N   0  0  0  0  0  0  0  0  0  0  0  0
   -1.1890   -1.6040   -0.6910 O   0  0  0  0  0  0  0  0  0  0  0  0
   -1.0220   -0.2490   -0.4500 C   0  0  0  0  0  0  0  0  0  0  0  0
    0.2190    0.1500   -0.2440 C   0  0  0  0  0  0  0  0  0  0  0  0
    1.3730   -0.7340   -0.2580 C   0  0  0  0  0  0  0  0  0  0  0  0
    1.1040   -2.1180   -0.5150 N   0  0  0  0  0  0  0  0  0  0  0  0
    2.5970   -0.3380   -0.0550 C   0  0  0  0  0  0  0  0  0  0  0  0
    2.9260    1.0210    0.2050 N   0  0  0  0  0  0  0  0  0  0  0  0
    2.5610    1.9850   -0.6700 O   0  0  0  0  0  0  0  0  0  0  0  0
   -2.1620    0.6210   -0.4370 C   0  0  0  0  0  0  0  0  0  0  0  0
   -2.0940    2.0220   -0.1990 N   0  0  0  0  0  0  0  0  0  0  0  0
   -3.3040    0.1360   -0.6460 O   0  0  0  0  0  0  0  0  0  0  0  0
  1  2  1  0
  2  3  1  0
  3  4  2  3
  3 10  1  0
  4  5  1  0
  5  6  1  0
  5  7  2  3
  7  8  1  0
  8  9  1  0
 10 11  1  0
 10 12  2  0
M  CHG  1  11   1
M  END
