
     RDKit          3D

 12 11  0  0  0  0  0  0  0  0999 V2000
   -3.0180    1.0180    1.0030 N   0  0  0  0  0  0  0  0  0  0  0  0
   -1.9000    0.2250    0.8970 O   0  0  0  0  0  0  0  0  0  0  0  0
   -1.4810   -0.1390   -0.3720 C   0  0  0  0  0  0  0  0  0  0  0  0
   -0.1950   -0.3020   -0.5950 C   0  0  0  0  0  0  0  0  0  0  0  0
    0.7560   -0.0990    0.4860 C   0  0  0  0  0  0  0  0  0  0  0  0
    0.2650    0.2630    1.7280 O   0  0  0  0  0  0  0  0  0  0  0  0
    2.0460   -0.2400    0.3520 C   0  0  0  0  0  0  0  0  0  0  0  0
    2.5840   -0.6070   -0.8970 N   0  0  0  0  0  0  0  0  0  0  0  0
    2.9040   -0.0270    1.4410 N   0  0  0  0  0  0  0  0  0  0  0  0
    3.6920    0.9540    1.5560 N   0  0  0  0  0  0  0  0  0  0  0  0
   -2.4360   -0.3500   -1.4870 C   0  0  0  0  0  0  0  0  0  0  0  0
   -3.3050   -1.3860   -1.0910 O   0  0  0  0  0  0  0  0  0  0  0  0
  1  2  1  0
  2  3  1  0
  3  4  2  3
  3 11  1  0
  4  5  1  0
  5  6  1  0
  5  7  2  3
  7  8  1  0
  7  9  1  0
  9 10  2  0
 11 12  1  0
M  CHG  1  10   1
M  END
