
     RDKit          3D

 16 17  0  0  0  0  0  0  0  0999 V2000
    2.6640    0.6330   -0.6240 O   0  0  0  0  0  0  0  0  0  0  0  0
    2.0500   -0.2430    0.0170 C   0  0  0  0  0  0  0  0  0  0  0  0
    2.7600   -1.2370    0.6460 O   0  0  0  0  0  0  0  0  0  0  0  0
    4.1340   -1.4220    0.6850 C   0  0  0  0  0  0  0  0  0  0  0  0
    4.9360   -0.3370    1.3350 C   0  0  0  0  0  0  0  0  0  0  0  0
    4.8130    0.8950    0.7410 O   0  0  0  0  0  0  0  0  0  0  0  0
    0.6400   -0.1910    0.0790 N   0  0  0  0  0  0  0  0  0  0  0  0
   -0.2170   -1.1510    0.7940 C   0  0  0  0  0  0  0  0  0  0  0  0
   -1.5140   -0.9670    0.0810 C   0  0  1  0  0  0  0  0  0  0  0  0
   -2.9640   -1.3690    1.0730 S   0  0  0  0  0  0  0  0  0  0  0  0
   -3.8270    0.2250    1.3520 C   0  0  0  0  0  0  0  0  0  0  0  0
   -3.8960    1.0630    0.1330 C   0  0  0  0  0  0  0  0  0  0  0  0
   -2.6890    0.9780   -0.7730 C   0  0  2  0  0  0  0  0  0  0  0  0
   -3.0280    0.0480   -1.7820 O   0  0  0  0  0  0  0  0  0  0  0  0
   -1.5200    0.5720    0.0190 C   0  0  2  0  0  0  0  0  0  0  0  0
   -0.1810    0.8190   -0.5540 C   0  0  0  0  0  0  0  0  0  0  0  0
  1  2  2  0
  2  3  1  0
  2  7  1  0
  3  4  1  0
  4  5  1  0
  5  6  1  0
  7  8  1  0
  7 16  1  0
  9  8  1  1
  9 10  1  0
  9 15  1  0
 10 11  1  0
 11 12  1  0
 12 13  1  0
 13 14  1  6
 13 15  1  0
 15 16  1  6
M  END
