
     RDKit          3D

 12 11  0  0  0  0  0  0  0  0999 V2000
    1.1540    1.2910   -0.3080 N   0  0  0  0  0  0  0  0  0  0  0  0
    1.1370   -0.1220   -0.0260 C   0  0  0  0  0  0  0  0  0  0  0  0
    2.2720   -0.7730    0.0610 C   0  0  0  0  0  0  0  0  0  0  0  0
    3.4980   -0.1240   -0.1150 N   0  0  0  0  0  0  0  0  0  0  0  0
    4.5990   -0.3050    0.7150 N   0  0  0  0  0  0  0  0  0  0  0  0
    4.7050   -1.1720    1.5770 O   0  0  0  0  0  0  0  0  0  0  0  0
   -0.1640   -0.7430    0.1460 C   0  0  0  0  0  0  0  0  0  0  0  0
   -1.2930   -0.0690    0.0540 C   0  0  0  0  0  0  0  0  0  0  0  0
   -1.2330    1.2970   -0.2200 O   0  0  0  0  0  0  0  0  0  0  0  0
   -2.5940   -0.6980    0.2280 C   0  0  0  0  0  0  0  0  0  0  0  0
   -3.7820    0.0450    0.1250 N   0  0  0  0  0  0  0  0  0  0  0  0
   -2.6930   -1.9280    0.4770 O   0  0  0  0  0  0  0  0  0  0  0  0
  1  2  1  0
  2  3  2  3
  2  7  1  0
  3  4  1  0
  4  5  1  0
  5  6  2  0
  7  8  2  3
  8  9  1  0
  8 10  1  0
 10 11  1  0
 10 12  2  0
M  CHG  1  11   1
M  END
