
     RDKit          3D

 45 48  0  0  0  0  0  0  0  0999 V2000
    4.6690    2.9860    3.5500 C   0  0  0  0  0  0  0  0  0  0  0  0
    5.4820    3.2250    2.4100 O   0  0  0  0  0  0  0  0  0  0  0  0
    5.2120    2.5490    1.2390 C   0  0  0  0  0  0  0  0  0  0  0  0
    4.1510    1.6430    1.1920 C   0  0  0  0  0  0  0  0  0  0  0  0
    3.9250    0.9980    0.0050 C   0  0  0  0  0  0  0  0  0  0  0  0
    2.8270    0.0340   -0.1480 C   0  0  2  0  0  0  0  0  0  0  0  0
    2.9530   -0.6210   -1.3790 F   0  0  0  0  0  0  0  0  0  0  0  0
    1.6530    0.7900   -0.2340 F   0  0  0  0  0  0  0  0  0  0  0  0
    2.7850   -0.9100    0.9690 C   0  0  0  0  0  0  0  0  0  0  0  0
    3.6670   -0.8570    1.8570 O   0  0  0  0  0  0  0  0  0  0  0  0
    1.7690   -1.9110    1.1030 N   0  0  0  0  0  0  0  0  0  0  0  0
    1.7850   -2.8260    2.1960 C   0  0  0  0  0  0  0  0  0  0  0  0
    1.5180   -4.2520    1.7630 C   0  0  0  0  0  0  0  0  0  0  0  0
    0.4460   -4.3870    0.7340 C   0  0  0  0  0  0  0  0  0  0  0  0
    0.6470   -3.4170   -0.4140 C   0  0  0  0  0  0  0  0  0  0  0  0
    0.7200   -1.9830    0.1190 C   0  0  1  0  0  0  0  0  0  0  0  0
   -0.6280   -1.6000    0.6740 C   0  0  0  0  0  0  0  0  0  0  0  0
   -0.8270   -1.6770    1.9080 O   0  0  0  0  0  0  0  0  0  0  0  0
   -1.6430   -1.1670   -0.1310 O   0  0  0  0  0  0  0  0  0  0  0  0
   -2.9440   -0.7910    0.2950 C   0  0  1  0  0  0  0  0  0  0  0  0
   -3.0340    0.7110    0.2650 C   0  0  0  0  0  0  0  0  0  0  0  0
   -2.7930    1.3650   -1.0430 C   0  0  0  0  0  0  0  0  0  0  0  0
   -2.9230    2.8840   -0.8590 C   0  0  0  0  0  0  0  0  0  0  0  0
   -2.6760    3.6380   -2.0790 C   0  0  0  0  0  0  0  0  0  0  0  0
   -1.4050    4.0690   -2.3710 C   0  0  0  0  0  0  0  0  0  0  0  0
   -1.1630    4.7770   -3.5040 C   0  0  0  0  0  0  0  0  0  0  0  0
   -2.2040    5.0720   -4.3780 C   0  0  0  0  0  0  0  0  0  0  0  0
   -3.4650    4.6370   -4.0760 C   0  0  0  0  0  0  0  0  0  0  0  0
   -3.6920    3.9310   -2.9410 C   0  0  0  0  0  0  0  0  0  0  0  0
   -3.9550   -1.5330   -0.4410 C   0  0  0  0  0  0  0  0  0  0  0  0
   -5.3770   -1.2790   -0.1260 C   0  0  0  0  0  0  0  0  0  0  0  0
   -5.8250   -1.6190    1.2700 C   0  0  0  0  0  0  0  0  0  0  0  0
   -5.6650   -3.0770    1.5180 C   0  0  0  0  0  0  0  0  0  0  0  0
   -6.7200   -3.9350    1.1820 C   0  0  0  0  0  0  0  0  0  0  0  0
   -6.6280   -5.2990    1.3860 C   0  0  0  0  0  0  0  0  0  0  0  0
   -5.4920   -5.8490    1.9270 C   0  0  0  0  0  0  0  0  0  0  0  0
   -4.4830   -5.0250    2.2490 N   0  0  0  0  0  0  0  0  0  0  0  0
   -4.5550   -3.6720    2.0550 C   0  0  0  0  0  0  0  0  0  0  0  0
    4.7300    1.2490   -1.0880 C   0  0  0  0  0  0  0  0  0  0  0  0
    5.7750    2.1320   -1.0630 C   0  0  0  0  0  0  0  0  0  0  0  0
    6.6150    2.4210   -2.1210 O   0  0  0  0  0  0  0  0  0  0  0  0
    6.5360    1.8500   -3.3920 C   0  0  0  0  0  0  0  0  0  0  0  0
    6.0180    2.7920    0.1220 C   0  0  0  0  0  0  0  0  0  0  0  0
    7.0590    3.7010    0.2170 O   0  0  0  0  0  0  0  0  0  0  0  0
    8.3330    3.2420    0.6030 C   0  0  0  0  0  0  0  0  0  0  0  0
  1  2  1  0
  2  3  1  0
  3  4  2  0
  3 43  1  0
  4  5  1  0
  5  6  1  0
  5 39  2  0
  6  7  1  6
  6  8  1  0
  6  9  1  0
  9 10  2  0
  9 11  1  0
 11 12  1  0
 11 16  1  0
 12 13  1  0
 13 14  1  0
 14 15  1  0
 15 16  1  0
 16 17  1  1
 17 18  2  0
 17 19  1  0
 19 20  1  0
 20 21  1  6
 20 30  1  0
 21 22  1  0
 22 23  1  0
 23 24  1  0
 24 25  2  0
 24 29  1  0
 25 26  1  0
 26 27  2  0
 27 28  1  0
 28 29  2  0
 30 31  1  0
 31 32  1  0
 32 33  1  0
 33 34  2  0
 33 38  1  0
 34 35  1  0
 35 36  2  0
 36 37  1  0
 37 38  2  0
 39 40  1  0
 40 41  1  0
 40 43  2  0
 41 42  1  0
 43 44  1  0
 44 45  1  0
M  END
