
     RDKit          3D

 45 48  0  0  0  0  0  0  0  0999 V2000
   -3.8270   -3.8800    1.5510 C   0  0  0  0  0  0  0  0  0  0  0  0
   -3.0740   -2.6820    1.0290 C   0  0  0  0  0  0  0  0  0  0  0  0
   -1.7030   -2.5740    1.1550 C   0  0  0  0  0  0  0  0  0  0  0  0
   -1.3610   -1.3520    0.5450 C   0  0  0  0  0  0  0  0  0  0  0  0
    0.0150   -0.9330    0.4900 C   0  0  0  0  0  0  0  0  0  0  0  0
    0.6030    0.0440   -0.1060 C   0  0  0  0  0  0  0  0  0  0  0  0
    2.0220    0.2850   -0.0200 C   0  0  0  0  0  0  0  0  0  0  0  0
    2.4960    1.2910   -0.6380 O   0  0  0  0  0  0  0  0  0  0  0  0
    2.9130   -0.5240    0.7080 N   0  0  0  0  0  0  0  0  0  0  0  0
    4.3100   -0.2070    0.7500 C   0  0  0  0  0  0  0  0  0  0  0  0
    5.0060   -0.1740   -0.5660 C   0  0  0  0  0  0  0  0  0  0  0  0
    6.4540    0.1640   -0.3670 C   0  0  0  0  0  0  0  0  0  0  0  0
    6.8640    0.2910    0.7970 O   0  0  0  0  0  0  0  0  0  0  0  0
    7.3320    0.3360   -1.4580 N   0  0  0  0  0  0  0  0  0  0  0  0
    8.7110    0.6520   -1.3830 C   0  0  0  0  0  0  0  0  0  0  0  0
    9.3740    1.0850   -2.5420 C   0  0  0  0  0  0  0  0  0  0  0  0
   10.7080    1.3970   -2.5540 C   0  0  0  0  0  0  0  0  0  0  0  0
   11.4770    1.3010   -1.4110 C   0  0  0  0  0  0  0  0  0  0  0  0
   12.7770    1.6030   -1.4050 N   0  0  0  0  0  0  0  0  0  0  0  0
   13.4660    1.4880   -0.2610 C   0  0  0  0  0  0  0  0  0  0  0  0
   14.7020    1.7740   -0.2490 O   0  0  0  0  0  0  0  0  0  0  0  0
   12.8640    1.0720    0.8860 C   0  0  0  0  0  0  0  0  0  0  0  0
   13.4830    0.9510    1.9830 O   0  0  0  0  0  0  0  0  0  0  0  0
   11.5520    0.7720    0.8590 N   0  0  0  0  0  0  0  0  0  0  0  0
   10.8350    0.8780   -0.2770 C   0  0  0  0  0  0  0  0  0  0  0  0
    9.4710    0.5550   -0.2510 C   0  0  0  0  0  0  0  0  0  0  0  0
   -2.5130   -0.7680    0.0800 C   0  0  0  0  0  0  0  0  0  0  0  0
   -2.7100    0.4950   -0.5870 C   0  0  0  0  0  0  0  0  0  0  0  0
   -2.7800    1.7540    0.1750 C   0  0  1  0  0  0  0  0  0  0  0  0
   -3.9290    1.7970    1.2030 C   0  0  0  0  0  0  0  0  0  0  0  0
   -1.5900    2.2630    0.8840 C   0  0  0  0  0  0  0  0  0  0  0  0
   -3.1820    2.8620   -0.8310 C   0  0  0  0  0  0  0  0  0  0  0  0
   -3.2860    4.1780   -0.2090 C   0  0  0  0  0  0  0  0  0  0  0  0
   -2.2090    5.1050   -0.3480 N   0  0  0  0  0  0  0  0  0  0  0  0
   -4.3080    4.5050    0.4460 O   0  0  0  0  0  0  0  0  0  0  0  0
   -3.5600   -1.6120    0.3900 N   0  0  0  0  0  0  0  0  0  0  0  0
   -4.9230   -1.3980    0.0680 C   0  0  1  0  0  0  0  0  0  0  0  0
   -5.3740   -2.1770   -1.1630 C   0  0  0  0  0  0  0  0  0  0  0  0
   -6.6600   -1.5330   -1.6390 C   0  0  1  0  0  0  0  0  0  0  0  0
   -7.1960   -2.1830   -2.8960 C   0  0  0  0  0  0  0  0  0  0  0  0
   -7.6990   -1.7290   -0.5620 C   0  0  0  0  0  0  0  0  0  0  0  0
   -7.2600   -1.0920    0.7380 C   0  0  1  0  0  0  0  0  0  0  0  0
   -8.3290   -1.3570    1.7670 C   0  0  0  0  0  0  0  0  0  0  0  0
   -5.9230   -1.7420    1.1570 C   0  0  2  0  0  0  0  0  0  0  0  0
   -5.5620   -1.1040    2.4860 C   0  0  0  0  0  0  0  0  0  0  0  0
  1  2  1  0
  2  3  2  0
  2 36  1  0
  3  4  1  0
  4  5  1  0
  4 27  2  0
  5  6  2  3
  6  7  1  0
  7  8  2  0
  7  9  1  0
  9 10  1  0
 10 11  1  0
 11 12  1  0
 12 13  2  0
 12 14  1  0
 14 15  1  0
 15 16  2  0
 15 26  1  0
 16 17  1  0
 17 18  2  0
 18 19  1  0
 18 25  1  0
 19 20  1  0
 20 21  2  0
 20 22  1  0
 22 23  2  0
 22 24  1  0
 24 25  1  0
 25 26  2  0
 27 28  1  0
 27 36  1  0
 28 29  1  0
 29 30  1  1
 29 31  1  0
 29 32  1  0
 32 33  1  0
 33 34  1  0
 33 35  2  0
 37 36  1  1
 37 38  1  0
 37 44  1  0
 38 39  1  0
 39 40  1  6
 39 41  1  0
 41 42  1  0
 42 43  1  1
 42 44  1  0
 44 45  1  1
M  END
