
     RDKit          3D

 45 49  0  0  0  0  0  0  0  0999 V2000
    2.2260    0.9960   -2.8720 C   0  0  0  0  0  0  0  0  0  0  0  0
    3.1090    1.1420   -1.6760 C   0  0  0  0  0  0  0  0  0  0  0  0
    2.8290    0.2980   -0.5490 N   0  0  0  0  0  0  0  0  0  0  0  0
    3.4300   -0.9660   -0.4120 C   0  0  0  0  0  0  0  0  0  0  0  0
    3.1490   -1.6320    0.6570 O   0  0  0  0  0  0  0  0  0  0  0  0
    4.3410   -1.6300   -1.3530 C   0  0  2  0  0  0  0  0  0  0  0  0
    3.5440   -2.5830   -2.2640 C   0  0  0  0  0  0  0  0  0  0  0  0
    4.5130   -3.2160   -3.1710 C   0  0  0  0  0  0  0  0  0  0  0  0
    5.5240   -3.8710   -2.5850 C   0  0  0  0  0  0  0  0  0  0  0  0
    5.5080   -3.8610   -1.1050 C   0  0  0  0  0  0  0  0  0  0  0  0
    5.3900   -2.4500   -0.5880 C   0  0  0  0  0  0  0  0  0  0  0  0
    1.9360    0.7260    0.5450 C   0  0  2  0  0  0  0  0  0  0  0  0
    0.5280    0.8880    0.1100 C   0  0  0  0  0  0  0  0  0  0  0  0
    0.2200    1.6730   -0.8060 O   0  0  0  0  0  0  0  0  0  0  0  0
   -0.4400    0.1110    0.7800 N   0  0  0  0  0  0  0  0  0  0  0  0
   -1.8790    0.0840    0.5680 C   0  0  2  0  0  0  0  0  0  0  0  0
   -2.4930    0.3060    1.9080 C   0  0  0  0  0  0  0  0  0  0  0  0
   -2.9960    1.5050    2.0860 O   0  0  0  0  0  0  0  0  0  0  0  0
   -2.6100   -0.5390    3.0070 N   0  0  0  0  0  0  0  0  0  0  0  0
   -2.1040   -1.8340    3.4100 C   0  0  0  0  0  0  0  0  0  0  0  0
   -3.3710   -2.5450    3.8340 C   0  0  0  0  0  0  0  0  0  0  0  0
   -3.9140   -1.4610    4.7890 C   0  0  0  0  0  0  0  0  0  0  0  0
   -3.4580   -0.1790    4.1870 C   0  0  0  0  0  0  0  0  0  0  0  0
   -2.3410   -1.0330   -0.2120 C   0  0  0  0  0  0  0  0  0  0  0  0
   -2.0120   -2.3430   -0.0550 C   0  0  0  0  0  0  0  0  0  0  0  0
   -2.5180   -3.4020   -0.8160 C   0  0  0  0  0  0  0  0  0  0  0  0
   -2.1560   -4.7690   -0.5630 N   0  0  0  0  0  0  0  0  0  0  0  0
   -3.4100   -3.0800   -1.7970 C   0  0  0  0  0  0  0  0  0  0  0  0
   -3.8030   -1.7550   -2.0300 C   0  0  0  0  0  0  0  0  0  0  0  0
   -3.2860   -0.7390   -1.2610 C   0  0  0  0  0  0  0  0  0  0  0  0
   -3.6130    0.5540   -1.4150 O   0  0  0  0  0  0  0  0  0  0  0  0
   -4.7000    1.1530   -1.9660 C   0  0  2  0  0  0  0  0  0  0  0  0
   -5.1630    0.9340   -3.3860 C   0  0  0  0  0  0  0  0  0  0  0  0
   -6.3500    1.9810   -3.3640 C   0  0  0  0  0  0  0  0  0  0  0  0
   -5.6600    3.1470   -2.8930 N   0  0  0  0  0  0  0  0  0  0  0  0
   -4.6070    2.6830   -1.9970 C   0  0  0  0  0  0  0  0  0  0  0  0
    2.4160    1.9420    1.2000 C   0  0  0  0  0  0  0  0  0  0  0  0
    1.6240    2.9770    1.6300 C   0  0  0  0  0  0  0  0  0  0  0  0
    2.1010    4.1050    2.2610 C   0  0  0  0  0  0  0  0  0  0  0  0
    3.4460    4.2780    2.5090 C   0  0  0  0  0  0  0  0  0  0  0  0
    3.9960    5.4020    3.2170 C   0  0  0  0  0  0  0  0  0  0  0  0
    4.8380    6.3400    2.5840 N   0  0  0  0  0  0  0  0  0  0  0  0
    3.7480    5.5730    4.4250 O   0  0  0  0  0  0  0  0  0  0  0  0
    4.2650    3.2270    2.0710 C   0  0  0  0  0  0  0  0  0  0  0  0
    3.7920    2.1140    1.4500 C   0  0  0  0  0  0  0  0  0  0  0  0
  1  2  1  0
  2  3  1  0
  3  4  1  0
 12  3  1  6
  4  5  2  0
  6  4  1  1
  6  7  1  0
  6 11  1  0
  7  8  1  0
  8  9  2  0
  9 10  1  0
 10 11  1  0
 12 13  1  0
 12 37  1  0
 13 14  2  0
 13 15  1  0
 16 15  1  1
 16 17  1  0
 16 24  1  0
 17 18  2  0
 17 19  1  0
 19 20  1  0
 19 23  1  0
 20 21  1  0
 21 22  1  0
 22 23  1  0
 24 25  2  0
 24 30  1  0
 25 26  1  0
 26 27  1  0
 26 28  2  0
 28 29  1  0
 29 30  2  0
 30 31  1  0
 32 31  1  6
 32 33  1  0
 32 36  1  0
 33 34  1  0
 34 35  1  0
 35 36  1  0
 37 38  2  0
 37 45  1  0
 38 39  1  0
 39 40  2  0
 40 41  1  0
 40 44  1  0
 41 42  1  0
 41 43  2  0
 44 45  2  0
M  END
