
     RDKit          3D

 45 49  0  0  0  0  0  0  0  0999 V2000
    8.4440    4.7310   -1.5990 C   0  0  0  0  0  0  0  0  0  0  0  0
    9.4460    3.6160   -1.5570 C   0  0  0  0  0  0  0  0  0  0  0  0
    8.7590    2.3600   -1.0440 C   0  0  2  0  0  0  0  0  0  0  0  0
    8.2390    2.6740    0.3490 C   0  0  0  0  0  0  0  0  0  0  0  0
    9.6680    1.2330   -1.0430 N   0  0  0  0  0  0  0  0  0  0  0  0
    9.1980   -0.0390   -0.6830 C   0  0  0  0  0  0  0  0  0  0  0  0
   10.0640   -1.0870   -0.5810 C   0  0  0  0  0  0  0  0  0  0  0  0
    9.5700   -2.3480   -0.2270 C   0  0  0  0  0  0  0  0  0  0  0  0
    8.2460   -2.5960    0.0270 C   0  0  0  0  0  0  0  0  0  0  0  0
    7.7200   -3.8760    0.3250 N   0  0  0  0  0  0  0  0  0  0  0  0
    8.5090   -4.9990    0.6320 C   0  0  0  0  0  0  0  0  0  0  0  0
    9.7500   -4.9670    0.6740 O   0  0  0  0  0  0  0  0  0  0  0  0
    7.8120   -6.2800    0.9170 C   0  0  0  0  0  0  0  0  0  0  0  0
    8.5380   -7.4600    1.2350 N   0  0  0  0  0  0  0  0  0  0  0  0
    6.5670   -6.2990    0.8710 O   0  0  0  0  0  0  0  0  0  0  0  0
    7.3470   -1.5060   -0.0780 C   0  0  0  0  0  0  0  0  0  0  0  0
    5.9980   -1.7000    0.2530 N   0  0  0  0  0  0  0  0  0  0  0  0
    4.9800   -0.7770   -0.1020 C   0  0  0  0  0  0  0  0  0  0  0  0
    5.1910    0.2660   -0.7430 O   0  0  0  0  0  0  0  0  0  0  0  0
    3.5840   -1.0420    0.2970 C   0  0  0  0  0  0  0  0  0  0  0  0
    3.3300   -2.0540    0.9500 O   0  0  0  0  0  0  0  0  0  0  0  0
    2.5790   -0.1370   -0.0760 N   0  0  0  0  0  0  0  0  0  0  0  0
    1.2060   -0.2530    0.2390 C   0  0  0  0  0  0  0  0  0  0  0  0
    0.6600   -1.0920    1.1720 C   0  0  0  0  0  0  0  0  0  0  0  0
   -0.7230   -1.1370    1.3910 C   0  0  0  0  0  0  0  0  0  0  0  0
   -1.5870   -0.3480    0.6850 C   0  0  0  0  0  0  0  0  0  0  0  0
   -2.9550   -0.3430    0.8520 O   0  0  0  0  0  0  0  0  0  0  0  0
   -3.7860    0.4880    0.0910 C   0  0  0  0  0  0  0  0  0  0  0  0
   -5.2150    0.2970    0.4840 C   0  0  2  0  0  0  0  0  0  0  0  0
   -5.6700   -1.1560    0.2750 C   0  0  0  0  0  0  0  0  0  0  0  0
   -7.0230   -1.2290    0.9420 C   0  0  0  0  0  0  0  0  0  0  0  0
   -8.0150   -0.2720    0.2570 C   0  0  1  0  0  0  0  0  0  0  0  0
   -9.2310   -0.3020    1.1230 C   0  0  0  0  0  0  0  0  0  0  0  0
  -10.4360    0.3710    0.5210 C   0  0  2  0  0  0  0  0  0  0  0  0
  -10.5660    0.2180   -0.9420 C   0  0  0  0  0  0  0  0  0  0  0  0
   -9.8070    1.1030   -1.8250 C   0  0  0  0  0  0  0  0  0  0  0  0
   -9.1870    2.3190   -1.2420 C   0  0  0  0  0  0  0  0  0  0  0  0
   -8.2890    2.1250   -0.0710 C   0  0  1  0  0  0  0  0  0  0  0  0
   -9.1110    2.3730    1.1780 C   0  0  0  0  0  0  0  0  0  0  0  0
  -10.4950    1.7710    1.0420 C   0  0  0  0  0  0  0  0  0  0  0  0
   -7.4940    0.9680   -0.0530 N   0  0  0  0  0  0  0  0  0  0  0  0
   -6.1410    1.1000   -0.4100 C   0  0  0  0  0  0  0  0  0  0  0  0
   -1.0350    0.4970   -0.2560 C   0  0  0  0  0  0  0  0  0  0  0  0
    0.3030    0.5480   -0.4750 C   0  0  0  0  0  0  0  0  0  0  0  0
    7.8410   -0.2810   -0.4240 C   0  0  0  0  0  0  0  0  0  0  0  0
  1  2  1  0
  2  3  1  0
  3  4  1  1
  3  5  1  0
  5  6  1  0
  6  7  2  0
  6 45  1  0
  7  8  1  0
  8  9  2  0
  9 10  1  0
  9 16  1  0
 10 11  1  0
 11 12  2  0
 11 13  1  0
 13 14  1  0
 13 15  2  0
 16 17  1  0
 16 45  2  0
 17 18  1  0
 18 19  2  0
 18 20  1  0
 20 21  2  0
 20 22  1  0
 22 23  1  0
 23 24  2  0
 23 44  1  0
 24 25  1  0
 25 26  2  0
 26 27  1  0
 26 43  1  0
 27 28  1  0
 29 28  1  6
 29 30  1  0
 29 42  1  0
 30 31  1  0
 32 31  1  1
 32 33  1  0
 32 41  1  0
 34 33  1  6
 34 35  1  0
 34 40  1  0
 35 36  1  0
 36 37  1  0
 38 37  1  6
 38 39  1  0
 38 41  1  0
 39 40  1  0
 41 42  1  0
 43 44  2  0
M  END
