
     RDKit          3D

 45 49  0  0  0  0  0  0  0  0999 V2000
    8.6790   -4.9400   -0.3240 C   0  0  0  0  0  0  0  0  0  0  0  0
    8.4060   -3.4750   -0.2790 N   0  0  0  0  0  0  0  0  0  0  0  0
    9.4240   -2.5810   -0.4710 C   0  0  0  0  0  0  0  0  0  0  0  0
   10.5910   -3.1660   -0.6930 O   0  0  0  0  0  0  0  0  0  0  0  0
    9.5110   -1.1620   -0.4830 C   0  0  0  0  0  0  0  0  0  0  0  0
    8.6210   -0.2260   -0.2880 C   0  0  0  0  0  0  0  0  0  0  0  0
    7.2940   -0.5810    0.0250 N   0  0  0  0  0  0  0  0  0  0  0  0
    6.2370    0.3240    0.2700 C   0  0  0  0  0  0  0  0  0  0  0  0
    6.3970    1.5380    0.2250 O   0  0  0  0  0  0  0  0  0  0  0  0
    4.8360   -0.1760    0.6170 C   0  0  0  0  0  0  0  0  0  0  0  0
    4.0580    0.9850    0.8850 N   0  0  0  0  0  0  0  0  0  0  0  0
    2.6830    0.9840    1.3340 C   0  0  0  0  0  0  0  0  0  0  0  0
    2.1190   -0.0910    1.4960 O   0  0  0  0  0  0  0  0  0  0  0  0
    2.1530    2.3280    1.5540 C   0  0  0  0  0  0  0  0  0  0  0  0
    2.8440    3.0380    2.5680 C   0  0  0  0  0  0  0  0  0  0  0  0
    2.5830    4.3610    2.7930 C   0  0  0  0  0  0  0  0  0  0  0  0
    1.6300    4.9660    2.0010 C   0  0  0  0  0  0  0  0  0  0  0  0
    0.9530    4.2890    1.0190 C   0  0  0  0  0  0  0  0  0  0  0  0
    1.2320    2.9060    0.7940 C   0  0  0  0  0  0  0  0  0  0  0  0
    0.3640    2.2460   -0.1480 C   0  0  0  0  0  0  0  0  0  0  0  0
    0.1980    2.7300   -1.3180 O   0  0  0  0  0  0  0  0  0  0  0  0
   -0.3890    1.0520    0.0940 N   0  0  0  0  0  0  0  0  0  0  0  0
   -1.2410    0.5070   -0.9030 C   0  0  0  0  0  0  0  0  0  0  0  0
   -0.8340   -0.1760   -2.0080 C   0  0  0  0  0  0  0  0  0  0  0  0
   -1.7630   -0.5980   -2.9780 C   0  0  0  0  0  0  0  0  0  0  0  0
   -3.1110   -0.3200   -2.8140 C   0  0  0  0  0  0  0  0  0  0  0  0
   -3.5460    0.3650   -1.7110 C   0  0  0  0  0  0  0  0  0  0  0  0
   -4.8990    0.7530   -1.5540 N   0  0  0  0  0  0  0  0  0  0  0  0
   -5.5900    0.4850   -0.3650 C   0  0  0  0  0  0  0  0  0  0  0  0
   -4.9960   -0.1570    0.5660 O   0  0  0  0  0  0  0  0  0  0  0  0
   -6.9900    0.9180   -0.1210 C   0  0  0  0  0  0  0  0  0  0  0  0
   -7.5640    0.0840    0.9980 C   0  0  1  0  0  0  0  0  0  0  0  0
   -8.8970    0.4860    1.3450 N   0  0  0  0  0  0  0  0  0  0  0  0
   -9.7230   -0.6690    1.5110 C   0  0  1  0  0  0  0  0  0  0  0  0
  -10.5590   -0.7820    0.2490 C   0  0  0  0  0  0  0  0  0  0  0  0
   -9.7250   -0.8530   -0.9850 C   0  0  0  0  0  0  0  0  0  0  0  0
   -8.3650   -1.4190   -0.8550 C   0  0  0  0  0  0  0  0  0  0  0  0
   -7.7460   -1.3630    0.5190 C   0  0  2  0  0  0  0  0  0  0  0  0
   -8.7980   -1.8670    1.4920 C   0  0  1  0  0  0  0  0  0  0  0  0
   -8.2650   -2.2730    2.8180 C   0  0  0  0  0  0  0  0  0  0  0  0
   -2.5970    0.7750   -0.7540 C   0  0  0  0  0  0  0  0  0  0  0  0
    8.9500    1.1670   -0.6240 C   0  0  0  0  0  0  0  0  0  0  0  0
   10.1280    1.4980   -1.1450 C   0  0  0  0  0  0  0  0  0  0  0  0
   11.1270    0.4610   -1.4110 C   0  0  0  0  0  0  0  0  0  0  0  0
   10.9580   -0.6620   -0.4970 C   0  0  0  0  0  0  0  0  0  0  0  0
  1  2  1  0
  2  3  1  0
  3  4  2  0
  3  5  1  0
  5  6  2  0
  5 45  1  0
  6  7  1  0
  6 42  1  0
  7  8  1  0
  8  9  2  0
  8 10  1  0
 10 11  1  0
 11 12  1  0
 12 13  2  0
 12 14  1  0
 14 15  2  0
 14 19  1  0
 15 16  1  0
 16 17  2  0
 17 18  1  0
 18 19  2  0
 19 20  1  0
 20 21  2  0
 20 22  1  0
 22 23  1  0
 23 24  2  0
 23 41  1  0
 24 25  1  0
 25 26  2  0
 26 27  1  0
 27 28  1  0
 27 41  2  0
 28 29  1  0
 29 30  2  0
 29 31  1  0
 32 31  1  6
 32 33  1  0
 32 38  1  0
 33 34  1  0
 34 35  1  6
 34 39  1  0
 35 36  1  0
 36 37  1  0
 38 37  1  6
 38 39  1  0
 39 40  1  1
 42 43  2  0
 43 44  1  0
 44 45  1  0
M  END
