
     RDKit          3D

 45 48  0  0  0  0  0  0  0  0999 V2000
   -2.0170    3.4180    4.3760 C   0  0  0  0  0  0  0  0  0  0  0  0
   -1.1400    2.7750    3.2730 C   0  0  0  0  0  0  0  0  0  0  0  0
   -1.9080    2.8960    2.0290 C   0  0  0  0  0  0  0  0  0  0  0  0
   -1.1950    2.3310    0.7580 C   0  0  1  0  0  0  0  0  0  0  0  0
    0.0840    3.2390    0.8180 C   0  0  0  0  0  0  0  0  0  0  0  0
   -0.0480    4.6190    0.5550 N   0  0  0  0  0  0  0  0  0  0  0  0
    1.1900    2.7520    1.0930 O   0  0  0  0  0  0  0  0  0  0  0  0
   -0.7210    1.0080    0.8990 C   0  0  0  0  0  0  0  0  0  0  0  0
   -1.1560   -0.2500    0.2740 C   0  0  0  0  0  0  0  0  0  0  0  0
   -2.5660   -0.4770    0.0410 C   0  0  0  0  0  0  0  0  0  0  0  0
   -3.3060    0.5280    0.3120 O   0  0  0  0  0  0  0  0  0  0  0  0
   -3.2850   -1.6930   -0.4600 C   0  0  2  0  0  0  0  0  0  0  0  0
   -4.7510   -1.3240   -0.2130 C   0  0  0  0  0  0  0  0  0  0  0  0
   -5.7930   -2.2920   -0.4810 C   0  0  0  0  0  0  0  0  0  0  0  0
   -7.0770   -1.5980   -0.1380 N   0  0  0  0  0  0  0  0  0  0  0  0
   -2.9590   -2.9760    0.2030 C   0  0  0  0  0  0  0  0  0  0  0  0
   -2.6970   -3.9600   -0.9430 C   0  0  0  0  0  0  0  0  0  0  0  0
   -2.4000   -3.2010   -2.0320 O   0  0  0  0  0  0  0  0  0  0  0  0
   -2.9890   -1.9550   -1.9050 C   0  0  2  0  0  0  0  0  0  0  0  0
   -2.0170   -0.9370   -2.4880 C   0  0  0  0  0  0  0  0  0  0  0  0
   -4.1730   -1.9490   -2.8400 C   0  0  0  0  0  0  0  0  0  0  0  0
   -0.2320   -1.2140    0.0180 C   0  0  0  0  0  0  0  0  0  0  0  0
    1.2050   -1.2080    0.2740 C   0  0  0  0  0  0  0  0  0  0  0  0
    1.7250   -2.0950    1.3270 N   0  0  0  0  0  0  0  0  0  0  0  0
    1.1390   -2.3230    2.6110 C   0  0  0  0  0  0  0  0  0  0  0  0
    2.1380   -0.6010   -0.4420 C   0  0  0  0  0  0  0  0  0  0  0  0
    3.5480   -0.6610   -0.0570 C   0  0  0  0  0  0  0  0  0  0  0  0
    3.8850   -0.6160    1.2720 C   0  0  0  0  0  0  0  0  0  0  0  0
    5.2230   -0.6850    1.6270 C   0  0  0  0  0  0  0  0  0  0  0  0
    5.6180   -0.6400    3.0510 C   0  0  0  0  0  0  0  0  0  0  0  0
    6.2440   -0.7980    0.6810 C   0  0  0  0  0  0  0  0  0  0  0  0
    7.6560   -0.8680    1.1310 C   0  0  0  0  0  0  0  0  0  0  0  0
    5.8540   -0.8380   -0.6500 C   0  0  0  0  0  0  0  0  0  0  0  0
    4.5460   -0.7730   -1.0420 C   0  0  0  0  0  0  0  0  0  0  0  0
    4.1020   -0.7840   -2.3750 N   0  0  0  0  0  0  0  0  0  0  0  0
    2.7100   -0.8820   -2.7410 C   0  0  0  0  0  0  0  0  0  0  0  0
    1.9440    0.0850   -1.7790 C   0  0  2  0  0  0  0  0  0  0  0  0
    2.6440    1.3800   -1.9020 C   0  0  0  0  0  0  0  0  0  0  0  0
    2.1000    2.3250   -2.9010 C   0  0  0  0  0  0  0  0  0  0  0  0
    2.7170    2.5690   -4.0030 O   0  0  0  0  0  0  0  0  0  0  0  0
    0.8590    3.0250   -2.7030 N   0  0  0  0  0  0  0  0  0  0  0  0
   -0.2360    2.2480   -2.1520 C   0  0  0  0  0  0  0  0  0  0  0  0
   -1.3800    3.0070   -1.7300 N   0  0  0  0  0  0  0  0  0  0  0  0
   -1.8700    2.8970   -0.4190 C   0  0  0  0  0  0  0  0  0  0  0  0
   -3.0470    3.3620   -0.2750 O   0  0  0  0  0  0  0  0  0  0  0  0
  1  2  1  0
  2  3  1  0
  4  3  1  1
  4  5  1  0
  4  8  1  0
  4 44  1  0
  5  6  1  0
  5  7  2  0
  8  9  1  0
  9 10  1  0
  9 22  2  0
 10 11  2  0
 10 12  1  0
 12 13  1  6
 12 16  1  0
 12 19  1  0
 13 14  1  0
 14 15  1  0
 16 17  1  0
 17 18  1  0
 18 19  1  0
 19 20  1  6
 19 21  1  0
 22 23  1  0
 23 24  1  0
 23 26  2  0
 24 25  1  0
 26 27  1  0
 26 37  1  0
 27 28  2  0
 27 34  1  0
 28 29  1  0
 29 30  1  0
 29 31  2  0
 31 32  1  0
 31 33  1  0
 33 34  2  0
 34 35  1  0
 35 36  1  0
 37 36  1  6
 37 38  1  0
 38 39  1  0
 39 40  2  0
 39 41  1  0
 41 42  1  0
 42 43  1  0
 43 44  1  0
 44 45  2  0
M  END
