
     RDKit          3D

 45 49  0  0  0  0  0  0  0  0999 V2000
   -1.1130    2.3780   -2.0810 C   0  0  0  0  0  0  0  0  0  0  0  0
   -0.6400    0.9810   -2.2180 C   0  0  0  0  0  0  0  0  0  0  0  0
   -0.5460    0.0500   -1.1150 C   0  0  0  0  0  0  0  0  0  0  0  0
    0.2380    0.2160    0.1010 C   0  0  1  0  0  0  0  0  0  0  0  0
   -0.0070    1.2760    1.0980 C   0  0  0  0  0  0  0  0  0  0  0  0
   -1.2210    1.2790    1.8170 N   0  0  0  0  0  0  0  0  0  0  0  0
   -2.5570    1.4180    1.4320 C   0  0  0  0  0  0  0  0  0  0  0  0
   -2.8550    1.5920    0.2570 O   0  0  0  0  0  0  0  0  0  0  0  0
   -3.6300    1.3590    2.4120 N   0  0  0  0  0  0  0  0  0  0  0  0
   -4.9930    1.5100    1.9680 C   0  0  0  0  0  0  0  0  0  0  0  0
   -5.4100    0.4830    0.9940 C   0  0  0  0  0  0  0  0  0  0  0  0
   -4.5960   -0.3960    0.6450 O   0  0  0  0  0  0  0  0  0  0  0  0
   -6.7080    0.4920    0.4670 N   0  0  0  0  0  0  0  0  0  0  0  0
   -7.6440    1.5160    0.8780 C   0  0  0  0  0  0  0  0  0  0  0  0
   -8.1100    2.2180   -0.4030 C   0  0  0  0  0  0  0  0  0  0  0  0
   -8.8010    1.2200   -1.2990 C   0  0  2  0  0  0  0  0  0  0  0  0
  -10.2920    1.5330   -1.4070 C   0  0  0  0  0  0  0  0  0  0  0  0
   -8.6490   -0.1910   -0.7850 C   0  0  0  0  0  0  0  0  0  0  0  0
   -7.2000   -0.4760   -0.4920 C   0  0  2  0  0  0  0  0  0  0  0  0
   -6.9890   -1.9020   -0.0410 C   0  0  0  0  0  0  0  0  0  0  0  0
   -7.6690   -2.2320    1.2480 C   0  0  0  0  0  0  0  0  0  0  0  0
   -7.1750   -1.3990    2.2400 O   0  0  0  0  0  0  0  0  0  0  0  0
   -0.1000   -1.1080    0.8780 C   0  0  0  0  0  0  0  0  0  0  0  0
    0.6870   -1.2540    2.1200 C   0  0  0  0  0  0  0  0  0  0  0  0
    2.1270   -1.5390    1.7480 C   0  0  0  0  0  0  0  0  0  0  0  0
    2.5240   -0.6820    0.5870 C   0  0  0  0  0  0  0  0  0  0  0  0
    1.7280    0.1020   -0.1570 C   0  0  0  0  0  0  0  0  0  0  0  0
    2.5230    0.7230   -1.1030 C   0  0  0  0  0  0  0  0  0  0  0  0
    3.7860    0.2980   -0.9100 N   0  0  0  0  0  0  0  0  0  0  0  0
    3.8320   -0.5650    0.1170 C   0  0  0  0  0  0  0  0  0  0  0  0
    5.0420   -1.2500    0.6340 C   0  0  0  0  0  0  0  0  0  0  0  0
    4.9090   -2.0370    1.5830 O   0  0  0  0  0  0  0  0  0  0  0  0
    6.3050   -1.0140    0.0650 N   0  0  0  0  0  0  0  0  0  0  0  0
    7.5560   -1.5850    0.4370 C   0  0  0  0  0  0  0  0  0  0  0  0
    7.6370   -2.5560    1.3910 C   0  0  0  0  0  0  0  0  0  0  0  0
    8.8580   -3.1470    1.7520 C   0  0  0  0  0  0  0  0  0  0  0  0
    9.9830   -2.7190    1.1120 C   0  0  0  0  0  0  0  0  0  0  0  0
    9.9050   -1.7260    0.1350 C   0  0  0  0  0  0  0  0  0  0  0  0
    8.7150   -1.1550   -0.2110 C   0  0  0  0  0  0  0  0  0  0  0  0
    8.5580   -0.0890   -1.2190 C   0  0  0  0  0  0  0  0  0  0  0  0
    9.8120    0.5010   -1.7480 C   0  0  1  0  0  0  0  0  0  0  0  0
    9.9950    1.8940   -1.1500 C   0  0  0  0  0  0  0  0  0  0  0  0
   10.9990   -0.2970   -1.5410 N   0  0  0  0  0  0  0  0  0  0  0  0
   11.1200   -1.2840   -0.5580 C   0  0  0  0  0  0  0  0  0  0  0  0
   12.2090   -1.8270   -0.2190 O   0  0  0  0  0  0  0  0  0  0  0  0
  1  2  1  0
  2  3  1  0
  4  3  1  6
  4  5  1  0
  4 23  1  0
  4 27  1  0
  5  6  1  0
  6  7  1  0
  7  8  2  0
  7  9  1  0
  9 10  1  0
 10 11  1  0
 11 12  2  0
 11 13  1  0
 13 14  1  0
 13 19  1  0
 14 15  1  0
 15 16  1  0
 16 17  1  1
 16 18  1  0
 18 19  1  0
 19 20  1  1
 20 21  1  0
 21 22  1  0
 23 24  1  0
 24 25  1  0
 25 26  1  0
 26 27  1  0
 26 30  2  0
 27 28  2  0
 28 29  1  0
 29 30  1  0
 30 31  1  0
 31 32  2  0
 31 33  1  0
 33 34  1  0
 34 35  2  0
 34 39  1  0
 35 36  1  0
 36 37  2  0
 37 38  1  0
 38 39  2  0
 38 44  1  0
 39 40  1  0
 40 41  1  0
 41 42  1  1
 41 43  1  0
 43 44  1  0
 44 45  2  0
M  END
