
     RDKit          3D

 45 49  0  0  0  0  0  0  0  0999 V2000
   -2.6520   -4.8280   -0.4800 C   0  0  0  0  0  0  0  0  0  0  0  0
   -2.5260   -3.3200   -0.8760 C   0  0  0  0  0  0  0  0  0  0  0  0
   -3.4860   -2.5310   -0.0850 C   0  0  0  0  0  0  0  0  0  0  0  0
   -3.6200   -1.0670   -0.2930 C   0  0  2  0  0  0  0  0  0  0  0  0
   -2.3900   -0.2970   -0.0740 C   0  0  0  0  0  0  0  0  0  0  0  0
   -1.3540   -0.6120   -1.0300 N   0  0  0  0  0  0  0  0  0  0  0  0
   -0.0770    0.0000   -0.9760 C   0  0  0  0  0  0  0  0  0  0  0  0
    0.0410    0.8440   -0.0070 O   0  0  0  0  0  0  0  0  0  0  0  0
    1.0750   -0.1940   -1.8430 C   0  0  2  0  0  0  0  0  0  0  0  0
    2.1400    0.6940   -1.4080 N   0  0  0  0  0  0  0  0  0  0  0  0
    3.3590    0.2800   -0.8100 C   0  0  0  0  0  0  0  0  0  0  0  0
    3.5210   -0.9330   -0.6570 O   0  0  0  0  0  0  0  0  0  0  0  0
    4.3560    1.1800   -0.4020 N   0  0  0  0  0  0  0  0  0  0  0  0
    5.5680    0.7550    0.1890 C   0  0  0  0  0  0  0  0  0  0  0  0
    6.0690   -0.4910    0.4760 C   0  0  0  0  0  0  0  0  0  0  0  0
    7.3110   -0.3830    1.0730 C   0  0  0  0  0  0  0  0  0  0  0  0
    7.5520    0.9290    1.1420 N   0  0  0  0  0  0  0  0  0  0  0  0
    6.5450    1.6100    0.6300 N   0  0  0  0  0  0  0  0  0  0  0  0
    8.8490    1.1850    1.7620 C   0  0  2  0  0  0  0  0  0  0  0  0
    9.7110    1.8270    0.7300 C   0  0  0  0  0  0  0  0  0  0  0  0
   11.1580    1.5470    1.0560 C   0  0  0  0  0  0  0  0  0  0  0  0
   11.3530    1.0840    2.4860 C   0  0  0  0  0  0  0  0  0  0  0  0
   10.6930   -0.2710    2.7080 C   0  0  0  0  0  0  0  0  0  0  0  0
    9.3590   -0.1760    2.0580 C   0  0  0  0  0  0  0  0  0  0  0  0
    8.4620   -1.0670    1.6560 C   0  0  0  0  0  0  0  0  0  0  0  0
    0.8860   -0.2020   -3.3050 C   0  0  1  0  0  0  0  0  0  0  0  0
   -0.0120   -1.2920   -3.8130 C   0  0  0  0  0  0  0  0  0  0  0  0
    0.3040    1.1120   -3.8330 C   0  0  0  0  0  0  0  0  0  0  0  0
   -4.7660   -0.5710    0.5950 C   0  0  2  0  0  0  0  0  0  0  0  0
   -5.9520   -1.3270    0.1600 N   0  0  0  0  0  0  0  0  0  0  0  0
   -6.5370   -2.3020    0.9790 C   0  0  0  0  0  0  0  0  0  0  0  0
   -6.0480   -2.5470    2.1060 O   0  0  0  0  0  0  0  0  0  0  0  0
   -7.6600   -3.0000    0.5460 O   0  0  0  0  0  0  0  0  0  0  0  0
   -8.2660   -3.9820    1.3480 C   0  0  0  0  0  0  0  0  0  0  0  0
   -5.0930    0.8420    0.3830 C   0  0  0  0  0  0  0  0  0  0  0  0
   -4.7140    1.5310   -0.7300 C   0  0  0  0  0  0  0  0  0  0  0  0
   -5.0740    2.8670   -0.8810 C   0  0  0  0  0  0  0  0  0  0  0  0
   -4.6330    3.5620   -2.1090 C   0  0  0  0  0  0  0  0  0  0  0  0
   -5.8090    3.5030    0.0770 C   0  0  0  0  0  0  0  0  0  0  0  0
   -6.1730    4.8620   -0.0820 O   0  0  0  0  0  0  0  0  0  0  0  0
   -6.1920    2.8120    1.1960 C   0  0  0  0  0  0  0  0  0  0  0  0
   -5.8400    1.4880    1.3570 C   0  0  0  0  0  0  0  0  0  0  0  0
   -6.3150    1.0310    2.5080 C   0  0  0  0  0  0  0  0  0  0  0  0
   -7.0560    2.1260    3.1940 C   0  0  0  0  0  0  0  0  0  0  0  0
   -6.9040    3.2390    2.2420 C   0  0  0  0  0  0  0  0  0  0  0  0
  1  2  1  0
  2  3  1  0
  4  3  1  1
  4  5  1  0
  4 29  1  0
  5  6  1  0
  6  7  1  0
  7  8  2  0
  7  9  1  0
  9 10  1  6
  9 26  1  0
 10 11  1  0
 11 12  2  0
 11 13  1  0
 13 14  1  0
 14 15  1  0
 14 18  2  0
 15 16  2  0
 16 17  1  0
 16 25  1  0
 17 18  1  0
 17 19  1  0
 19 20  1  6
 19 24  1  0
 20 21  1  0
 21 22  1  0
 22 23  1  0
 23 24  1  0
 24 25  2  0
 26 27  1  1
 26 28  1  0
 29 30  1  6
 29 35  1  0
 30 31  1  0
 31 32  2  0
 31 33  1  0
 33 34  1  0
 35 36  2  0
 35 42  1  0
 36 37  1  0
 37 38  1  0
 37 39  2  0
 39 40  1  0
 39 41  1  0
 41 42  1  0
 41 45  2  0
 42 43  2  0
 43 44  1  0
 44 45  1  0
M  END
