
     RDKit          3D

 45 50  0  0  0  0  0  0  0  0999 V2000
   10.5330    0.4270   -3.4350 C   0  0  0  0  0  0  0  0  0  0  0  0
    9.6130   -0.1760   -2.5480 O   0  0  0  0  0  0  0  0  0  0  0  0
    8.8490    0.5270   -1.6480 C   0  0  0  0  0  0  0  0  0  0  0  0
    8.9440    1.7720   -1.5800 O   0  0  0  0  0  0  0  0  0  0  0  0
    7.9270   -0.1730   -0.7720 C   0  0  0  0  0  0  0  0  0  0  0  0
    7.2080    0.5960    0.1110 C   0  0  0  0  0  0  0  0  0  0  0  0
    6.3160   -0.0160    0.9740 C   0  0  0  0  0  0  0  0  0  0  0  0
    5.5720    0.8300    1.9010 C   0  0  0  0  0  0  0  0  0  0  0  0
    5.7200    2.1080    1.8410 O   0  0  0  0  0  0  0  0  0  0  0  0
    4.6740    0.3940    2.8940 N   0  0  0  0  0  0  0  0  0  0  0  0
    3.9930    1.3750    3.7590 C   0  0  0  0  0  0  0  0  0  0  0  0
    3.1170    0.6580    4.7080 C   0  0  0  0  0  0  0  0  0  0  0  0
    2.0120   -0.1930    4.2700 C   0  0  0  0  0  0  0  0  0  0  0  0
    0.9490    0.4180    3.5590 N   0  0  0  0  0  0  0  0  0  0  0  0
    1.0280    0.9940    2.2870 C   0  0  0  0  0  0  0  0  0  0  0  0
    2.0370    1.0160    1.5990 O   0  0  0  0  0  0  0  0  0  0  0  0
   -0.1480    1.6140    1.7210 N   0  0  0  0  0  0  0  0  0  0  0  0
   -0.0920    2.2020    0.4360 C   0  0  0  0  0  0  0  0  0  0  0  0
    0.2350    1.3670   -0.7330 C   0  0  0  0  0  0  0  0  0  0  0  0
   -0.6810    0.2610   -1.1060 C   0  0  1  0  0  0  0  0  0  0  0  0
   -0.8880   -0.8120   -0.0970 C   0  0  0  0  0  0  0  0  0  0  0  0
   -2.2630   -0.7400    0.6000 C   0  0  0  0  0  0  0  0  0  0  0  0
   -3.2440   -1.0180   -0.4830 C   0  0  2  0  0  0  0  0  0  0  0  0
   -3.1910    0.1970   -1.3780 C   0  0  0  0  0  0  0  0  0  0  0  0
   -1.9740    0.7440   -1.6890 C   0  0  0  0  0  0  0  0  0  0  0  0
   -1.9600    1.8040   -2.5700 C   0  0  0  0  0  0  0  0  0  0  0  0
   -3.1410    2.3220   -3.1410 C   0  0  0  0  0  0  0  0  0  0  0  0
   -4.3540    1.7550   -2.8110 C   0  0  0  0  0  0  0  0  0  0  0  0
   -4.3000    0.7110   -1.9310 C   0  0  0  0  0  0  0  0  0  0  0  0
   -5.6760    0.2490   -1.6130 C   0  0  1  0  0  0  0  0  0  0  0  0
   -6.2310    0.9540   -0.3940 C   0  0  0  0  0  0  0  0  0  0  0  0
   -7.3840    1.8220   -0.8680 C   0  0  0  0  0  0  0  0  0  0  0  0
   -7.7490    1.2250   -2.1890 C   0  0  0  0  0  0  0  0  0  0  0  0
   -6.4450    0.7160   -2.7870 C   0  0  1  0  0  0  0  0  0  0  0  0
   -5.7310    1.9600   -3.2060 N   0  0  0  0  0  0  0  0  0  0  0  0
   -5.5770   -1.1930   -1.2990 C   0  0  0  0  0  0  0  0  0  0  0  0
   -4.6370   -1.3340   -0.0900 C   0  0  1  0  0  0  0  0  0  0  0  0
   -4.6540   -2.7460    0.4340 C   0  0  0  0  0  0  0  0  0  0  0  0
   -5.9860   -3.2380    0.8790 C   0  0  0  0  0  0  0  0  0  0  0  0
   -6.5600   -2.4590    1.9460 N   0  0  0  0  0  0  0  0  0  0  0  0
    6.2150   -1.3730    0.8790 C   0  0  0  0  0  0  0  0  0  0  0  0
    5.4150   -1.9840    1.6420 O   0  0  0  0  0  0  0  0  0  0  0  0
    6.9210   -2.1230    0.0130 N   0  0  0  0  0  0  0  0  0  0  0  0
    7.7800   -1.5490   -0.8190 C   0  0  0  0  0  0  0  0  0  0  0  0
    8.5830   -2.3400   -1.7990 C   0  0  0  0  0  0  0  0  0  0  0  0
  1  2  1  0
  2  3  1  0
  3  4  2  0
  3  5  1  0
  5  6  1  0
  5 44  2  0
  6  7  2  0
  7  8  1  0
  7 41  1  0
  8  9  2  0
  8 10  1  0
 10 11  1  0
 11 12  1  0
 12 13  1  0
 13 14  1  0
 14 15  1  0
 15 16  2  0
 15 17  1  0
 17 18  1  0
 18 19  1  0
 20 19  1  1
 20 21  1  0
 20 25  1  0
 21 22  1  0
 23 22  1  1
 23 24  1  0
 23 37  1  0
 24 25  2  0
 24 29  1  0
 25 26  1  0
 26 27  2  0
 27 28  1  0
 28 29  2  0
 28 35  1  0
 29 30  1  0
 30 31  1  1
 30 34  1  0
 30 36  1  0
 31 32  1  0
 32 33  1  0
 34 33  1  1
 34 35  1  0
 36 37  1  0
 37 38  1  6
 38 39  1  0
 39 40  1  0
 41 42  2  0
 41 43  1  0
 43 44  1  0
 44 45  1  0
M  CHG  1  40   1
M  END
