
     RDKit          3D

 11 11  0  0  0  0  0  0  0  0999 V2000
    2.8680    0.4130    0.0270 N   0  0  0  0  0  0  0  0  0  0  0  0
    1.4860    0.7270    0.1750 C   0  0  0  0  0  0  0  0  0  0  0  0
    0.8560    2.3040    0.7500 S   0  0  0  0  0  0  0  0  0  0  0  0
   -0.9060    1.7540    0.6010 C   0  0  0  0  0  0  0  0  0  0  0  0
   -0.8200    0.4690    0.1430 C   0  0  0  0  0  0  0  0  0  0  0  0
   -2.1170   -0.2600   -0.0470 C   0  0  0  0  0  0  0  0  0  0  0  0
   -2.1390   -1.4530   -0.3870 O   0  0  0  0  0  0  0  0  0  0  0  0
   -3.3370    0.3530    0.1460 O   0  0  0  0  0  0  0  0  0  0  0  0
    0.3940   -0.0550   -0.0750 C   0  0  0  0  0  0  0  0  0  0  0  0
    0.6390   -1.4670   -0.5800 C   0  0  0  0  0  0  0  0  0  0  0  0
    0.9680   -2.2670    0.4930 F   0  0  0  0  0  0  0  0  0  0  0  0
  1  2  1  0
  2  3  1  0
  2  9  2  0
  3  4  1  0
  4  5  2  0
  5  6  1  0
  5  9  1  0
  6  7  2  0
  6  8  1  0
  9 10  1  0
 10 11  1  0
M  END
