
     RDKit          3D

 11 11  0  0  0  0  0  0  0  0999 V2000
    2.5320    1.6460   -0.4030 O   0  0  0  0  0  0  0  0  0  0  0  0
    2.8320    0.1790   -0.3380 S   0  0  1  0  0  0  0  0  0  0  0  0
    4.0690   -0.0640    0.4910 O   0  0  0  0  0  0  0  0  0  0  0  0
    1.5170   -0.7330    0.2990 N   0  0  0  0  0  0  0  0  0  0  0  0
    0.1670   -0.3600    0.1850 C   0  0  0  0  0  0  0  0  0  0  0  0
   -0.6740   -0.4400    1.2740 C   0  0  0  0  0  0  0  0  0  0  0  0
   -2.0020   -0.0760    1.1720 C   0  0  0  0  0  0  0  0  0  0  0  0
   -2.5400    0.3800   -0.0130 C   0  0  0  0  0  0  0  0  0  0  0  0
   -3.8600    0.7380   -0.1010 F   0  0  0  0  0  0  0  0  0  0  0  0
   -1.7020    0.4620   -1.1060 C   0  0  0  0  0  0  0  0  0  0  0  0
   -0.3630    0.0950   -1.0030 C   0  0  0  0  0  0  0  0  0  0  0  0
  1  2  2  0
  2  3  2  0
  2  4  1  1
  4  5  1  0
  5  6  2  0
  5 11  1  0
  6  7  1  0
  7  8  2  0
  8  9  1  0
  8 10  1  0
 10 11  2  0
M  END
