
     RDKit          3D

 11 11  0  0  0  0  0  0  0  0999 V2000
   -2.6900   -0.9580   -0.0170 C   0  0  0  0  0  0  0  0  0  0  0  0
   -1.3010   -0.9270    0.0390 O   0  0  0  0  0  0  0  0  0  0  0  0
   -0.5590    0.2910   -0.0620 C   0  0  0  0  0  0  0  0  0  0  0  0
   -1.2950    1.4550   -0.2210 C   0  0  0  0  0  0  0  0  0  0  0  0
   -0.0560    2.7360   -0.3070 S   0  0  0  0  0  0  0  0  0  0  0  0
    1.3530    1.6130   -0.1240 C   0  0  0  0  0  0  0  0  0  0  0  0
    0.7680    0.3370   -0.0100 C   0  0  0  0  0  0  0  0  0  0  0  0
    1.5980   -0.8410    0.1550 N   0  0  0  0  0  0  0  0  0  0  0  0
    3.0020   -0.8210    0.2130 C   0  0  0  0  0  0  0  0  0  0  0  0
    3.6430    0.2340    0.1260 O   0  0  0  0  0  0  0  0  0  0  0  0
    3.6680   -2.0270    0.3740 F   0  0  0  0  0  0  0  0  0  0  0  0
  1  2  1  0
  2  3  1  0
  3  4  2  0
  3  7  1  0
  4  5  1  0
  5  6  1  0
  6  7  2  0
  7  8  1  0
  8  9  1  0
  9 10  2  0
  9 11  1  0
M  END
