
     RDKit          3D

 11 10  0  0  0  0  0  0  0  0999 V2000
    2.7590    1.3580   -0.0410 C   0  0  0  0  0  0  0  0  0  0  0  0
    2.3470   -0.0540    0.0110 C   0  0  0  0  0  0  0  0  0  0  0  0
    2.8390   -0.9140   -0.8540 C   0  0  0  0  0  0  0  0  0  0  0  0
    2.4900   -2.2390   -0.8500 F   0  0  0  0  0  0  0  0  0  0  0  0
    1.4360   -0.5040    0.9800 N   0  0  0  0  0  0  0  0  0  0  0  0
    0.0800   -0.8660    0.7570 C   0  0  0  0  0  0  0  0  0  0  0  0
   -0.8420    0.2800    0.3910 C   0  0  0  0  0  0  0  0  0  0  0  0
   -2.4440   -0.4540    0.1780 S   0  0  1  0  0  0  0  0  0  0  0  0
   -3.7060    0.6740   -0.2510 C   0  0  0  0  0  0  0  0  0  0  0  0
   -2.2870   -1.5650   -0.8180 O   0  0  0  0  0  0  0  0  0  0  0  0
   -2.8140   -1.1420    1.4920 O   0  0  0  0  0  0  0  0  0  0  0  0
  1  2  1  0
  2  3  2  3
  2  5  1  0
  3  4  1  0
  5  6  1  0
  6  7  1  0
  7  8  1  0
  8  9  1  6
  8 10  2  0
  8 11  2  0
M  END
