
     RDKit          3D

 11 11  0  0  0  0  0  0  0  0999 V2000
   -2.6530    1.6780    0.5640 O   0  0  0  0  0  0  0  0  0  0  0  0
   -1.4860    2.1390    0.2260 C   0  0  0  0  0  0  0  0  0  0  0  0
   -1.3270    3.5100    0.1530 F   0  0  0  0  0  0  0  0  0  0  0  0
   -0.4380    1.2860   -0.0500 N   0  0  0  0  0  0  0  0  0  0  0  0
   -0.4760   -0.1270   -0.0090 C   0  0  0  0  0  0  0  0  0  0  0  0
   -1.6260   -0.8610   -0.0520 C   0  0  0  0  0  0  0  0  0  0  0  0
   -1.4580   -2.2810   -0.0360 C   0  0  0  0  0  0  0  0  0  0  0  0
    0.3000   -2.5380    0.0030 S   0  0  0  0  0  0  0  0  0  0  0  0
    0.7360   -0.7750    0.0190 C   0  0  0  0  0  0  0  0  0  0  0  0
    2.1140   -0.1920    0.1610 C   0  0  0  0  0  0  0  0  0  0  0  0
    2.9850   -0.4680   -0.8430 O   0  0  0  0  0  0  0  0  0  0  0  0
  1  2  2  0
  2  3  1  0
  2  4  1  0
  4  5  1  0
  5  6  1  0
  5  9  2  0
  6  7  2  0
  7  8  1  0
  8  9  1  0
  9 10  1  0
 10 11  1  0
M  END
