
     RDKit          3D

 11 11  0  0  0  0  0  0  0  0999 V2000
   -3.5030    0.4670    0.0730 C   0  0  0  0  0  0  0  0  0  0  0  0
   -2.7000   -0.5570   -0.4730 O   0  0  0  0  0  0  0  0  0  0  0  0
   -1.4090   -0.2160   -0.3650 N   0  0  0  0  0  0  0  0  0  0  0  0
   -0.3790   -1.1370   -0.0870 C   0  0  0  0  0  0  0  0  0  0  0  0
   -0.6760   -2.3430    0.0690 O   0  0  0  0  0  0  0  0  0  0  0  0
    0.9850   -0.6930    0.0160 C   0  0  0  0  0  0  0  0  0  0  0  0
    1.5840    0.5600   -0.0970 C   0  0  0  0  0  0  0  0  0  0  0  0
    2.8810    0.6970    0.0490 C   0  0  0  0  0  0  0  0  0  0  0  0
    3.6160   -0.4810    0.3210 C   0  0  0  0  0  0  0  0  0  0  0  0
    5.0240   -0.5490    0.5160 F   0  0  0  0  0  0  0  0  0  0  0  0
    2.4350   -1.7560    0.3620 S   0  0  0  0  0  0  0  0  0  0  0  0
  1  2  1  0
  2  3  1  0
  3  4  1  0
  4  5  2  0
  4  6  1  0
  6  7  2  0
  6 11  1  0
  7  8  1  0
  8  9  2  0
  9 10  1  0
  9 11  1  0
M  END
