
     RDKit          3D

 22 22  0  0  0  0  0  0  0  0999 V2000
   -4.5840    2.7410   -0.1110 C   0  0  0  0  0  0  0  0  0  0  0  0
   -3.3050    2.2270   -0.3580 O   0  0  0  0  0  0  0  0  0  0  0  0
   -3.4480    0.8910   -0.7650 C   0  0  0  0  0  0  0  0  0  0  0  0
   -2.0960    0.2740   -1.0500 C   0  0  1  0  0  0  0  0  0  0  0  0
   -1.4780    1.0930   -2.1620 C   0  0  0  0  0  0  0  0  0  0  0  0
   -2.3070    1.0330   -3.2810 O   0  0  0  0  0  0  0  0  0  0  0  0
   -1.2780    0.2810    0.1930 C   0  0  1  0  0  0  0  0  0  0  0  0
   -1.9620   -0.5220    1.2620 C   0  0  0  0  0  0  0  0  0  0  0  0
   -2.2300   -2.2550    0.7740 S   0  0  0  0  0  0  0  0  0  0  0  0
   -3.0590   -3.0780    2.1640 C   0  0  0  0  0  0  0  0  0  0  0  0
    0.1080   -0.0220    0.0450 N   0  0  0  0  0  0  0  0  0  0  0  0
    1.0450    0.7700    0.6540 C   0  0  0  0  0  0  0  0  0  0  0  0
    2.3990    0.5370    0.5550 C   0  0  0  0  0  0  0  0  0  0  0  0
    2.8820   -0.5250   -0.1760 C   0  0  0  0  0  0  0  0  0  0  0  0
    4.2820   -0.8230   -0.3190 C   0  0  0  0  0  0  0  0  0  0  0  0
    5.2240   -0.1060    0.2360 C   0  0  0  0  0  0  0  0  0  0  0  0
    6.6480   -0.4330    0.0740 C   0  0  0  0  0  0  0  0  0  0  0  0
    7.6720    0.3290    0.6650 N   0  0  0  0  0  0  0  0  0  0  0  0
    6.9710   -1.4320   -0.6190 O   0  0  0  0  0  0  0  0  0  0  0  0
    1.9130   -1.3370   -0.8000 C   0  0  0  0  0  0  0  0  0  0  0  0
    0.5760   -1.0570   -0.6670 C   0  0  0  0  0  0  0  0  0  0  0  0
   -0.2420   -1.8330   -1.2560 N   0  0  0  0  0  0  0  0  0  0  0  0
  1  2  1  0
  2  3  1  0
  4  3  1  1
  4  5  1  0
  4  7  1  0
  5  6  1  0
  7  8  1  1
  7 11  1  0
  8  9  1  0
  9 10  1  0
 11 12  1  0
 11 21  1  0
 12 13  2  0
 13 14  1  0
 14 15  1  0
 14 20  2  0
 15 16  2  3
 16 17  1  0
 17 18  1  0
 17 19  2  0
 20 21  1  0
 21 22  2  0
M  END
