
     RDKit          3D

 22 22  0  0  0  0  0  0  0  0999 V2000
    2.9120    3.8730    0.9170 N   0  0  0  0  0  0  0  0  0  0  0  0
    2.5180    2.5120    1.0230 C   0  0  0  0  0  0  0  0  0  0  0  0
    3.3070    1.5790    0.5570 C   0  0  0  0  0  0  0  0  0  0  0  0
    4.5810    1.9180   -0.0690 C   0  0  0  0  0  0  0  0  0  0  0  0
    5.3290    1.0010   -0.5140 O   0  0  0  0  0  0  0  0  0  0  0  0
    2.9240    0.2270    0.6580 O   0  0  0  0  0  0  0  0  0  0  0  0
    1.7560   -0.2140   -0.0360 C   0  0  0  0  0  0  0  0  0  0  0  0
    1.5950   -1.7000    0.2560 C   0  0  2  0  0  0  0  0  0  0  0  0
    2.7480   -2.4410   -0.3900 C   0  0  0  0  0  0  0  0  0  0  0  0
    2.1020   -3.2980   -1.4580 C   0  0  0  0  0  0  0  0  0  0  0  0
    0.8710   -2.4690   -1.7870 C   0  0  0  0  0  0  0  0  0  0  0  0
    0.4010   -2.1360   -0.4580 N   0  0  0  0  0  0  0  0  0  0  0  0
   -0.9220   -2.2120    0.0520 C   0  0  0  0  0  0  0  0  0  0  0  0
   -1.8180   -2.6180   -0.7270 O   0  0  0  0  0  0  0  0  0  0  0  0
   -1.2780   -1.8460    1.4320 C   0  0  0  0  0  0  0  0  0  0  0  0
   -2.6680   -1.4050    1.6760 C   0  0  0  0  0  0  0  0  0  0  0  0
   -3.1400   -0.1490    1.0610 C   0  0  0  0  0  0  0  0  0  0  0  0
   -3.1150   -0.0020   -0.4090 C   0  0  0  0  0  0  0  0  0  0  0  0
   -3.6790    1.3850   -0.7610 C   0  0  0  0  0  0  0  0  0  0  0  0
   -2.8720    2.4910   -0.2320 C   0  0  0  0  0  0  0  0  0  0  0  0
   -3.4480    3.8060   -0.2670 N   0  0  0  0  0  0  0  0  0  0  0  0
   -1.3650    2.3380    0.3590 S   0  0  0  0  0  0  0  0  0  0  0  0
  1  2  1  0
  2  3  2  3
  3  4  1  0
  3  6  1  0
  4  5  2  0
  6  7  1  0
  8  7  1  6
  8  9  1  0
  8 12  1  0
  9 10  1  0
 10 11  1  0
 11 12  1  0
 12 13  1  0
 13 14  2  0
 13 15  1  0
 15 16  1  0
 16 17  1  0
 17 18  1  0
 18 19  1  0
 19 20  1  0
 20 21  1  0
 20 22  2  0
M  END
