
     RDKit          3D

 22 22  0  0  0  0  0  0  0  0999 V2000
   -6.3190    0.6420   -0.5810 C   0  0  0  0  0  0  0  0  0  0  0  0
   -4.8750    0.2230   -0.8120 C   0  0  0  0  0  0  0  0  0  0  0  0
   -4.4250   -0.7900    0.1400 C   0  0  0  0  0  0  0  0  0  0  0  0
   -3.4260   -0.6440    0.9830 C   0  0  0  0  0  0  0  0  0  0  0  0
   -2.6740    0.6040    1.0120 C   0  0  0  0  0  0  0  0  0  0  0  0
   -1.3800    0.7640    1.3400 C   0  0  0  0  0  0  0  0  0  0  0  0
   -0.9140    2.1720    1.2730 C   0  0  0  0  0  0  0  0  0  0  0  0
   -1.9760    3.0060    0.8700 O   0  0  0  0  0  0  0  0  0  0  0  0
   -0.4100   -0.2550    1.7480 C   0  0  0  0  0  0  0  0  0  0  0  0
    0.9500    0.1050    1.5600 N   0  0  0  0  0  0  0  0  0  0  0  0
    1.5350    0.3490    0.2710 C   0  0  0  0  0  0  0  0  0  0  0  0
    0.8270    0.2320   -0.7440 O   0  0  0  0  0  0  0  0  0  0  0  0
    2.8970    0.7190    0.1500 N   0  0  0  0  0  0  0  0  0  0  0  0
    3.5500    0.9730   -1.1050 C   0  0  0  0  0  0  0  0  0  0  0  0
    3.5110   -0.2520   -1.9680 C   0  0  0  0  0  0  0  0  0  0  0  0
    4.2220   -1.3800   -1.2440 C   0  0  0  0  0  0  0  0  0  0  0  0
    5.9450   -0.9570   -0.9030 S   0  0  0  0  0  0  0  0  0  0  0  0
    6.8620   -0.8140   -2.4460 C   0  0  0  0  0  0  0  0  0  0  0  0
   -0.6520   -1.4620    2.2710 C   0  0  0  0  0  0  0  0  0  0  0  0
   -1.9210   -2.0780    2.5670 N   0  0  0  0  0  0  0  0  0  0  0  0
   -3.1330   -1.7890    1.8590 C   0  0  0  0  0  0  0  0  0  0  0  0
   -4.0390   -2.6260    2.0210 O   0  0  0  0  0  0  0  0  0  0  0  0
  1  2  1  0
  2  3  1  0
  3  4  2  3
  4  5  1  0
  4 21  1  0
  5  6  2  0
  6  7  1  0
  6  9  1  0
  7  8  1  0
  9 10  1  0
  9 19  2  0
 10 11  1  0
 11 12  2  0
 11 13  1  0
 13 14  1  0
 14 15  1  0
 15 16  1  0
 16 17  1  0
 17 18  1  0
 19 20  1  0
 20 21  1  0
 21 22  2  0
M  END
