
     RDKit          3D

 22 22  0  0  0  0  0  0  0  0999 V2000
   -3.8700    1.8690    0.0290 C   0  0  0  0  0  0  0  0  0  0  0  0
   -5.1990    1.3040   -0.3530 C   0  0  0  0  0  0  0  0  0  0  0  0
   -5.2140   -0.1250   -0.7220 C   0  0  0  0  0  0  0  0  0  0  0  0
   -4.9030   -1.1750    0.2640 C   0  0  1  0  0  0  0  0  0  0  0  0
   -5.0010   -2.5770   -0.3910 C   0  0  0  0  0  0  0  0  0  0  0  0
   -3.7230   -1.0800    1.1290 C   0  0  0  0  0  0  0  0  0  0  0  0
   -2.4090   -1.0180    0.4970 C   0  0  0  0  0  0  0  0  0  0  0  0
   -2.3370   -1.1380   -0.7560 O   0  0  0  0  0  0  0  0  0  0  0  0
   -1.2190   -0.8280    1.2360 N   0  0  0  0  0  0  0  0  0  0  0  0
    0.0340   -0.7730    0.5650 N   0  0  0  0  0  0  0  0  0  0  0  0
    1.1480   -0.1660    1.1600 C   0  0  0  0  0  0  0  0  0  0  0  0
    0.9450    0.3200    2.3300 O   0  0  0  0  0  0  0  0  0  0  0  0
    2.4500   -0.0590    0.5650 C   0  0  0  0  0  0  0  0  0  0  0  0
    3.4010    0.5500    1.2760 C   0  0  0  0  0  0  0  0  0  0  0  0
    4.7970    0.7890    0.9080 C   0  0  0  0  0  0  0  0  0  0  0  0
    5.1200    0.3010   -0.4270 C   0  0  0  0  0  0  0  0  0  0  0  0
    6.3700    0.4740   -0.9250 C   0  0  0  0  0  0  0  0  0  0  0  0
    7.4300    1.1430   -0.1640 C   0  0  0  0  0  0  0  0  0  0  0  0
    7.8950    2.2770   -0.8410 O   0  0  0  0  0  0  0  0  0  0  0  0
    4.1470   -0.3480   -1.2060 N   0  0  0  0  0  0  0  0  0  0  0  0
    2.8110   -0.5420   -0.7410 C   0  0  0  0  0  0  0  0  0  0  0  0
    1.7810   -1.2990   -1.7210 S   0  0  0  0  0  0  0  0  0  0  0  0
  1  2  1  0
  2  3  1  0
  3  4  1  0
  4  5  1  6
  4  6  1  0
  6  7  1  0
  7  8  2  0
  7  9  1  0
  9 10  1  0
 10 11  1  0
 11 12  2  0
 11 13  1  0
 13 14  2  0
 13 21  1  0
 14 15  1  0
 15 16  1  0
 16 17  2  3
 16 20  1  0
 17 18  1  0
 18 19  1  0
 20 21  1  0
 21 22  2  0
M  END
