
     RDKit          3D

 22 22  0  0  0  0  0  0  0  0999 V2000
   -4.4180    1.1360    2.3230 C   0  0  0  0  0  0  0  0  0  0  0  0
   -4.8390    1.0310    0.9070 C   0  0  0  0  0  0  0  0  0  0  0  0
   -4.4730   -0.1420    0.1200 C   0  0  0  0  0  0  0  0  0  0  0  0
   -3.0450   -0.4710   -0.1580 C   0  0  2  0  0  0  0  0  0  0  0  0
   -2.1900   -0.7250    1.0210 C   0  0  0  0  0  0  0  0  0  0  0  0
   -0.8250   -1.0630    0.8750 N   0  0  0  0  0  0  0  0  0  0  0  0
    0.2200   -0.2230    0.4290 C   0  0  0  0  0  0  0  0  0  0  0  0
    0.0530    0.9810    0.1510 O   0  0  0  0  0  0  0  0  0  0  0  0
    1.5710   -0.7300    0.2680 N   0  0  0  0  0  0  0  0  0  0  0  0
    2.6280    0.0870   -0.1740 C   0  0  0  0  0  0  0  0  0  0  0  0
    2.3070    1.5330   -0.4810 C   0  0  0  0  0  0  0  0  0  0  0  0
    3.8610   -0.2900   -0.3430 C   0  0  0  0  0  0  0  0  0  0  0  0
    4.7700    0.6960   -0.7970 O   0  0  0  0  0  0  0  0  0  0  0  0
    5.7200    1.2510    0.1100 C   0  0  0  0  0  0  0  0  0  0  0  0
    6.5800    2.2750   -0.5880 C   0  0  0  0  0  0  0  0  0  0  0  0
    4.3820   -1.6080   -0.1130 C   0  0  0  0  0  0  0  0  0  0  0  0
    3.6630   -2.7280    0.3340 N   0  0  0  0  0  0  0  0  0  0  0  0
    5.6360   -1.8190   -0.3310 O   0  0  0  0  0  0  0  0  0  0  0  0
   -2.4340    0.4040   -1.1850 C   0  0  0  0  0  0  0  0  0  0  0  0
   -3.4070    0.4270   -2.3770 C   0  0  0  0  0  0  0  0  0  0  0  0
   -3.9630   -1.3010   -2.4010 S   0  0  0  0  0  0  0  0  0  0  0  0
   -3.1330   -1.8730   -0.8690 C   0  0  0  0  0  0  0  0  0  0  0  0
  1  2  1  0
  2  3  1  0
  4  3  1  1
  4  5  1  0
  4 19  1  0
  4 22  1  0
  5  6  1  0
  6  7  1  0
  7  8  2  0
  7  9  1  0
  9 10  1  0
 10 11  1  0
 10 12  2  3
 12 13  1  0
 12 16  1  0
 13 14  1  0
 14 15  1  0
 16 17  1  0
 16 18  2  0
 19 20  1  0
 20 21  1  0
 21 22  1  0
M  END
