
     RDKit          3D

 22 22  0  0  0  0  0  0  0  0999 V2000
   -2.6750   -3.0310    0.1180 C   0  0  0  0  0  0  0  0  0  0  0  0
   -2.6930   -1.7360    0.1630 C   0  0  0  0  0  0  0  0  0  0  0  0
   -1.4800   -1.0690    0.3760 O   0  0  0  0  0  0  0  0  0  0  0  0
   -1.2950    0.3030    0.0820 C   0  0  1  0  0  0  0  0  0  0  0  0
   -0.7640    0.3970   -1.3130 C   0  0  0  0  0  0  0  0  0  0  0  0
    0.5130   -0.3050   -1.4220 N   0  0  0  0  0  0  0  0  0  0  0  0
    1.6650    0.0450   -0.6900 C   0  0  0  0  0  0  0  0  0  0  0  0
    1.5920    1.0400    0.0870 O   0  0  0  0  0  0  0  0  0  0  0  0
    2.9110   -0.6220   -0.7430 N   0  0  0  0  0  0  0  0  0  0  0  0
    4.0770   -0.2290    0.0240 C   0  0  1  0  0  0  0  0  0  0  0  0
    4.4260   -1.2270    1.0740 C   0  0  0  0  0  0  0  0  0  0  0  0
    5.2140    0.1570   -0.8930 C   0  0  0  0  0  0  0  0  0  0  0  0
    6.3890    0.5290   -0.1040 C   0  0  0  0  0  0  0  0  0  0  0  0
    6.4130    1.7570    0.5950 N   0  0  0  0  0  0  0  0  0  0  0  0
    7.3750   -0.2380   -0.0450 O   0  0  0  0  0  0  0  0  0  0  0  0
   -2.5170    1.0990    0.2930 C   0  0  0  0  0  0  0  0  0  0  0  0
   -3.8050    0.3740    0.0680 C   0  0  0  0  0  0  0  0  0  0  0  0
   -4.9790    1.2120   -0.0810 C   0  0  0  0  0  0  0  0  0  0  0  0
   -4.7780    2.7030    0.0540 C   0  0  0  0  0  0  0  0  0  0  0  0
   -6.4990    0.7420   -0.3480 S   0  0  0  0  0  0  0  0  0  0  0  0
   -3.9070   -0.9500    0.0030 C   0  0  0  0  0  0  0  0  0  0  0  0
   -5.2340   -1.6120   -0.2150 C   0  0  0  0  0  0  0  0  0  0  0  0
  1  2  2  0
  2  3  1  0
  2 21  1  0
  3  4  1  0
  4  5  1  6
  4 16  1  0
  5  6  1  0
  6  7  1  0
  7  8  2  0
  7  9  1  0
  9 10  1  0
 10 11  1  6
 10 12  1  0
 12 13  1  0
 13 14  1  0
 13 15  2  0
 16 17  1  0
 17 18  1  0
 17 21  2  0
 18 19  1  0
 18 20  2  0
 21 22  1  0
M  END
