
     RDKit          3D

 22 22  0  0  0  0  0  0  0  0999 V2000
    2.0750   -1.3160    1.6570 C   0  0  0  0  0  0  0  0  0  0  0  0
    1.8530   -0.0020    0.9320 C   0  0  2  0  0  0  0  0  0  0  0  0
    0.4950   -0.0290    0.4210 N   0  0  0  0  0  0  0  0  0  0  0  0
   -0.4820    0.9070    0.8390 C   0  0  0  0  0  0  0  0  0  0  0  0
   -0.0660    1.7550    1.6930 O   0  0  0  0  0  0  0  0  0  0  0  0
   -1.8620    0.9090    0.3370 C   0  0  1  0  0  0  0  0  0  0  0  0
   -1.8810    1.3300   -1.1210 C   0  0  0  0  0  0  0  0  0  0  0  0
   -0.9180    0.2680   -2.2000 S   0  0  0  0  0  0  0  0  0  0  0  0
   -2.4940   -0.4360    0.5660 C   0  0  0  0  0  0  0  0  0  0  0  0
   -3.8830   -0.4310    0.0970 C   0  0  0  0  0  0  0  0  0  0  0  0
   -4.2620   -0.7800   -1.1650 C   0  0  0  0  0  0  0  0  0  0  0  0
   -5.5920   -0.7490   -1.5400 C   0  0  0  0  0  0  0  0  0  0  0  0
   -6.5570   -0.3610   -0.6360 C   0  0  0  0  0  0  0  0  0  0  0  0
   -6.1850   -0.0040    0.6480 C   0  0  0  0  0  0  0  0  0  0  0  0
   -4.8620   -0.0370    1.0150 C   0  0  0  0  0  0  0  0  0  0  0  0
    2.8580    0.1200   -0.1230 C   0  0  0  0  0  0  0  0  0  0  0  0
    2.5350    0.1910   -1.3300 O   0  0  0  0  0  0  0  0  0  0  0  0
    4.2330    0.1600    0.2120 N   0  0  0  0  0  0  0  0  0  0  0  0
    5.2820    0.2810   -0.7940 C   0  0  0  0  0  0  0  0  0  0  0  0
    6.5950    0.2950   -0.1390 C   0  0  0  0  0  0  0  0  0  0  0  0
    7.7790    0.4060   -0.9120 N   0  0  0  0  0  0  0  0  0  0  0  0
    6.6900    0.2110    1.0980 O   0  0  0  0  0  0  0  0  0  0  0  0
  2  1  1  6
  2  3  1  0
  2 16  1  0
  3  4  1  0
  4  5  2  0
  4  6  1  0
  6  7  1  6
  6  9  1  0
  7  8  1  0
  9 10  1  0
 10 11  2  0
 10 15  1  0
 11 12  1  0
 12 13  2  0
 13 14  1  0
 14 15  2  0
 16 17  2  0
 16 18  1  0
 18 19  1  0
 19 20  1  0
 20 21  1  0
 20 22  2  0
M  END
