
     RDKit          3D

 27 28  0  0  0  0  0  0  0  0999 V2000
    1.1170    0.5090    0.1400 O   0  0  0  0  0  0  0  0  0  0  0  0
    1.4000   -0.6270    0.5340 C   0  0  0  0  0  0  0  0  0  0  0  0
    0.3920   -1.6540    0.5890 C   0  0  0  0  0  0  0  0  0  0  0  0
   -0.8630   -1.4670    0.2400 C   0  0  0  0  0  0  0  0  0  0  0  0
   -1.8220   -2.5910    0.3330 C   0  0  0  0  0  0  0  0  0  0  0  0
   -3.1250   -2.0430    0.8700 C   0  0  0  0  0  0  0  0  0  0  0  0
   -3.6950   -1.1070   -0.1870 C   0  0  0  0  0  0  0  0  0  0  0  0
   -2.7370   -0.1400   -0.6080 N   0  0  0  0  0  0  0  0  0  0  0  0
   -3.1460    0.9140   -1.4570 C   0  0  0  0  0  0  0  0  0  0  0  0
   -2.8880    0.7830   -2.8870 C   0  0  0  0  0  0  0  0  0  0  0  0
   -2.2910   -0.2800   -3.4020 C   0  0  0  0  0  0  0  0  0  0  0  0
   -2.0190   -0.3590   -5.1200 Cl  0  0  0  0  0  0  0  0  0  0  0  0
   -3.7370    1.9710   -0.9870 C   0  0  0  0  0  0  0  0  0  0  0  0
   -4.0700    2.2530    0.4140 C   0  0  2  0  0  0  0  0  0  0  0  0
   -3.6160    3.5440    0.6930 F   0  0  0  0  0  0  0  0  0  0  0  0
   -3.4800    1.3550    1.2450 F   0  0  0  0  0  0  0  0  0  0  0  0
   -5.4420    2.2700    0.6210 F   0  0  0  0  0  0  0  0  0  0  0  0
   -1.3250   -0.1660   -0.2340 C   0  0  0  0  0  0  0  0  0  0  0  0
    2.7240   -0.9320    0.9370 N   0  0  0  0  0  0  0  0  0  0  0  0
    3.8390   -0.0510    0.9500 C   0  0  0  0  0  0  0  0  0  0  0  0
    3.7320    1.2690    0.5450 C   0  0  0  0  0  0  0  0  0  0  0  0
    4.8200    2.1330    0.5580 C   0  0  0  0  0  0  0  0  0  0  0  0
    4.7100    3.4670    0.1500 O   0  0  0  0  0  0  0  0  0  0  0  0
    6.0190    1.6250    0.9920 C   0  0  0  0  0  0  0  0  0  0  0  0
    6.1460    0.3160    1.3970 C   0  0  0  0  0  0  0  0  0  0  0  0
    5.0510   -0.5580    1.3850 C   0  0  0  0  0  0  0  0  0  0  0  0
    5.2240   -1.8440    1.7950 O   0  0  0  0  0  0  0  0  0  0  0  0
  1  2  2  0
  2  3  1  0
  2 19  1  0
  3  4  2  3
  4  5  1  0
  4 18  1  0
  5  6  1  0
  6  7  1  0
  7  8  1  0
  8  9  1  0
  8 18  1  0
  9 10  1  0
  9 13  2  3
 10 11  2  3
 11 12  1  0
 13 14  1  0
 14 15  1  1
 14 16  1  0
 14 17  1  0
 19 20  1  0
 20 21  2  0
 20 26  1  0
 21 22  1  0
 22 23  1  0
 22 24  2  0
 24 25  1  0
 25 26  2  0
 26 27  1  0
M  END
