
     RDKit          3D

 21 20  0  0  0  0  0  0  0  0999 V2000
   -4.4480   -0.1300   -1.1910 C   0  0  0  0  0  0  0  0  0  0  0  0
   -3.4570   -0.8980   -0.4000 C   0  0  1  0  0  0  0  0  0  0  0  0
   -3.1390   -2.1930   -1.1730 C   0  0  0  0  0  0  0  0  0  0  0  0
   -2.1560   -0.2710   -0.1130 C   0  0  0  0  0  0  0  0  0  0  0  0
   -2.0740    0.9750    0.6660 C   0  0  2  0  0  0  0  0  0  0  0  0
   -2.7730    2.1580    0.1400 C   0  0  0  0  0  0  0  0  0  0  0  0
   -2.2050    3.0230   -0.5820 O   0  0  0  0  0  0  0  0  0  0  0  0
   -4.1430    2.3770    0.4280 N   0  0  0  0  0  0  0  0  0  0  0  0
   -4.8420    3.4450   -0.0330 O   0  0  0  0  0  0  0  0  0  0  0  0
   -0.6080    1.3610    0.6710 C   0  0  0  0  0  0  0  0  0  0  0  0
   -0.1690    2.4160    0.2030 O   0  0  0  0  0  0  0  0  0  0  0  0
    0.3000    0.4480    1.2500 N   0  0  0  0  0  0  0  0  0  0  0  0
    1.7320    0.7020    1.3160 C   0  0  1  0  0  0  0  0  0  0  0  0
    2.2320    0.7850    2.7280 C   0  0  0  0  0  0  0  0  0  0  0  0
    2.4040   -0.3510    0.5210 C   0  0  0  0  0  0  0  0  0  0  0  0
    1.7700   -1.2630   -0.0710 O   0  0  0  0  0  0  0  0  0  0  0  0
    3.8290   -0.3760    0.3910 N   0  0  0  0  0  0  0  0  0  0  0  0
    4.5150   -1.3920   -0.3790 C   0  0  0  0  0  0  0  0  0  0  0  0
    5.9590   -1.1500   -0.3220 C   0  0  0  0  0  0  0  0  0  0  0  0
    6.8470   -2.0260   -1.0100 N   0  0  0  0  0  0  0  0  0  0  0  0
    6.4120   -0.1830    0.3230 O   0  0  0  0  0  0  0  0  0  0  0  0
  2  1  1  6
  2  3  1  0
  2  4  1  0
  5  4  1  6
  5  6  1  0
  5 10  1  0
  6  7  2  0
  6  8  1  0
  8  9  1  0
 10 11  2  0
 10 12  1  0
 12 13  1  0
 13 14  1  1
 13 15  1  0
 15 16  2  0
 15 17  1  0
 17 18  1  0
 18 19  1  0
 19 20  1  0
 19 21  2  0
M  END
