
     RDKit          3D

 28 29  0  0  0  0  0  0  0  0999 V2000
   -3.2120    0.7590   -1.3410 O   0  0  0  0  0  0  0  0  0  0  0  0
   -3.7330    0.2070   -0.3030 C   0  0  0  0  0  0  0  0  0  0  0  0
   -2.8220   -0.3010    0.6420 N   0  0  0  0  0  0  0  0  0  0  0  0
   -1.3810   -0.2630    0.5770 C   0  0  0  0  0  0  0  0  0  0  0  0
   -0.8620    1.1360    0.5660 C   0  0  1  0  0  0  0  0  0  0  0  0
   -1.3290    1.9330    1.6240 O   0  0  0  0  0  0  0  0  0  0  0  0
    0.7200    1.0670    0.8180 C   0  0  0  0  0  0  0  0  0  0  0  0
    0.8450    0.9020   -0.5820 N   0  0  0  0  0  0  0  0  0  0  0  0
    1.5880    0.3570   -1.6190 C   0  0  0  0  0  0  0  0  0  0  0  0
    1.0640    0.5600   -2.8210 O   0  0  0  0  0  0  0  0  0  0  0  0
    2.8040   -0.3750   -1.6200 C   0  0  0  0  0  0  0  0  0  0  0  0
    3.6490   -0.7830   -0.7290 C   0  0  0  0  0  0  0  0  0  0  0  0
    4.8640   -1.5670   -1.1870 C   0  0  0  0  0  0  0  0  0  0  0  0
    6.1250   -0.9410   -0.6740 C   0  0  0  0  0  0  0  0  0  0  0  0
    5.9060   -0.1730    0.6120 C   0  0  0  0  0  0  0  0  0  0  0  0
    4.8310   -0.9120    1.4120 C   0  0  0  0  0  0  0  0  0  0  0  0
    3.4950   -0.5120    0.7180 C   0  0  0  0  0  0  0  0  0  0  0  0
   -0.4040    1.7780   -0.6530 C   0  0  0  0  0  0  0  0  0  0  0  0
   -5.1780    0.1670   -0.2140 C   0  0  0  0  0  0  0  0  0  0  0  0
   -5.8800   -0.3470    0.7690 C   0  0  0  0  0  0  0  0  0  0  0  0
   -5.5500   -1.0060    2.0210 C   0  0  1  0  0  0  0  0  0  0  0  0
   -6.7680   -1.0990    2.7900 F   0  0  0  0  0  0  0  0  0  0  0  0
   -5.1410   -2.3170    1.7860 F   0  0  0  0  0  0  0  0  0  0  0  0
   -6.0170    0.7380   -1.2940 C   0  0  0  0  0  0  0  0  0  0  0  0
   -7.8020    0.6160   -1.0450 Cl  0  0  0  0  0  0  0  0  0  0  0  0
   -5.6600    1.2990   -2.3650 C   0  0  0  0  0  0  0  0  0  0  0  0
   -6.6970    1.7560   -3.2260 F   0  0  0  0  0  0  0  0  0  0  0  0
   -4.4710    1.5660   -2.8850 F   0  0  0  0  0  0  0  0  0  0  0  0
  1  2  2  0
  2  3  1  0
  2 19  1  0
  3  4  1  0
  4  5  1  0
  5  6  1  1
  5  7  1  0
  5 18  1  0
  7  8  1  0
  8  9  1  0
  8 18  1  0
  9 10  2  0
  9 11  1  0
 11 12  2  3
 12 13  1  0
 12 17  1  0
 13 14  1  0
 14 15  1  0
 15 16  1  0
 16 17  1  0
 19 20  2  3
 19 24  1  0
 20 21  1  0
 21 22  1  1
 21 23  1  0
 24 25  1  0
 24 26  2  3
 26 27  1  0
 26 28  1  0
M  END
