
     RDKit          3D

 28 29  0  0  0  0  0  0  0  0999 V2000
   -8.2080   -0.1560    0.5830 C   0  0  0  0  0  0  0  0  0  0  0  0
   -6.9000   -0.4090    0.9230 O   0  0  0  0  0  0  0  0  0  0  0  0
   -5.8120    0.0610    0.1610 C   0  0  0  0  0  0  0  0  0  0  0  0
   -6.1220    0.7210   -0.8260 O   0  0  0  0  0  0  0  0  0  0  0  0
   -4.4940   -0.2840    0.6330 C   0  0  0  0  0  0  0  0  0  0  0  0
   -4.3880   -1.2150    1.6840 C   0  0  0  0  0  0  0  0  0  0  0  0
   -3.1990   -1.6500    2.1710 C   0  0  0  0  0  0  0  0  0  0  0  0
   -3.1280   -2.5580    3.1950 F   0  0  0  0  0  0  0  0  0  0  0  0
   -2.0160   -1.1490    1.5980 C   0  0  0  0  0  0  0  0  0  0  0  0
   -2.0620   -0.2210    0.5590 C   0  0  0  0  0  0  0  0  0  0  0  0
   -0.8350    0.1420   -0.0550 N   0  0  0  0  0  0  0  0  0  0  0  0
    0.4000    0.0420    0.5870 C   0  0  0  0  0  0  0  0  0  0  0  0
    0.3480   -0.3110    1.8290 O   0  0  0  0  0  0  0  0  0  0  0  0
    1.7310    0.2650    0.0530 C   0  0  0  0  0  0  0  0  0  0  0  0
    2.8020    0.3960    0.9860 C   0  0  0  0  0  0  0  0  0  0  0  0
    4.0990    0.4080    0.6040 C   0  0  0  0  0  0  0  0  0  0  0  0
    5.1640    0.5450    1.4900 F   0  0  0  0  0  0  0  0  0  0  0  0
    4.3910    0.2850   -0.7780 C   0  0  0  0  0  0  0  0  0  0  0  0
    5.7820   -0.0110   -1.0830 C   0  0  0  0  0  0  0  0  0  0  0  0
    6.7870    0.9740   -0.7010 N   0  0  0  0  0  0  0  0  0  0  0  0
    8.1160    0.3300   -0.7560 C   0  0  1  0  0  0  0  0  0  0  0  0
    8.0590   -0.8460    0.0180 F   0  0  0  0  0  0  0  0  0  0  0  0
    8.6230   -0.1050   -2.3720 Cl  0  0  0  0  0  0  0  0  0  0  0  0
    3.3860    0.1740   -1.6960 C   0  0  0  0  0  0  0  0  0  0  0  0
    2.0510    0.1610   -1.2950 C   0  0  0  0  0  0  0  0  0  0  0  0
    1.0420    0.0120   -2.1860 F   0  0  0  0  0  0  0  0  0  0  0  0
   -3.2860    0.1860    0.1030 C   0  0  0  0  0  0  0  0  0  0  0  0
   -3.2940    1.2480   -0.9320 C   0  0  0  0  0  0  0  0  0  0  0  0
  1  2  1  0
  2  3  1  0
  3  4  2  0
  3  5  1  0
  5  6  2  0
  5 27  1  0
  6  7  1  0
  7  8  1  0
  7  9  2  0
  9 10  1  0
 10 11  1  0
 10 27  2  0
 11 12  1  0
 12 13  2  0
 12 14  1  0
 14 15  2  0
 14 25  1  0
 15 16  1  0
 16 17  1  0
 16 18  2  0
 18 19  1  0
 18 24  1  0
 19 20  1  0
 20 21  1  0
 21 22  1  1
 21 23  1  0
 24 25  2  0
 25 26  1  0
 27 28  1  0
M  END
