
     RDKit          3D

 28 29  0  0  0  0  0  0  0  0999 V2000
   -0.9810   -1.1970   -2.7290 C   0  0  0  0  0  0  0  0  0  0  0  0
   -1.9910   -1.7930   -1.7980 C   0  0  0  0  0  0  0  0  0  0  0  0
   -1.9460   -1.3970   -0.5280 C   0  0  0  0  0  0  0  0  0  0  0  0
   -2.9400   -1.9820    0.3850 C   0  0  0  0  0  0  0  0  0  0  0  0
   -2.9760   -1.7270    1.6720 C   0  0  0  0  0  0  0  0  0  0  0  0
   -2.1120   -0.9060    2.3190 F   0  0  0  0  0  0  0  0  0  0  0  0
   -4.2020   -2.4580    2.7250 Cl  0  0  0  0  0  0  0  0  0  0  0  0
   -3.9740   -2.9270   -0.1730 C   0  0  1  0  0  0  0  0  0  0  0  0
   -4.8280   -3.3140    0.8160 F   0  0  0  0  0  0  0  0  0  0  0  0
   -4.7360   -2.3120   -1.1530 F   0  0  0  0  0  0  0  0  0  0  0  0
   -3.3250   -4.0680   -0.6450 F   0  0  0  0  0  0  0  0  0  0  0  0
   -0.9070   -0.4910   -0.0620 C   0  0  0  0  0  0  0  0  0  0  0  0
   -1.1800    0.7580    0.4480 C   0  0  0  0  0  0  0  0  0  0  0  0
   -2.5220    1.3600    0.3210 C   0  0  0  0  0  0  0  0  0  0  0  0
   -2.5190    2.7340    0.9820 C   0  0  0  0  0  0  0  0  0  0  0  0
   -3.9120    3.3680    0.8560 C   0  0  0  0  0  0  0  0  0  0  0  0
   -0.1510    1.4900    0.9810 N   0  0  0  0  0  0  0  0  0  0  0  0
    1.1090    1.0090    1.0080 C   0  0  0  0  0  0  0  0  0  0  0  0
    1.9860    1.7550    1.5180 O   0  0  0  0  0  0  0  0  0  0  0  0
    1.4150   -0.2020    0.5180 N   0  0  0  0  0  0  0  0  0  0  0  0
    2.7600   -0.6870    0.5570 C   0  0  0  0  0  0  0  0  0  0  0  0
    3.5610   -0.3230   -0.6730 C   0  0  2  0  0  0  0  0  0  0  0  0
    4.9510   -0.9240   -0.4410 C   0  0  0  0  0  0  0  0  0  0  0  0
    5.6050    0.2690    0.2720 C   0  0  0  0  0  0  0  0  0  0  0  0
    5.0060    1.3890   -0.5540 C   0  0  0  0  0  0  0  0  0  0  0  0
    3.7210    1.0210   -0.8350 O   0  0  0  0  0  0  0  0  0  0  0  0
    0.4260   -0.9330   -0.0050 C   0  0  0  0  0  0  0  0  0  0  0  0
    0.6740   -2.0670   -0.4700 O   0  0  0  0  0  0  0  0  0  0  0  0
  1  2  1  0
  2  3  2  3
  3  4  1  0
  3 12  1  0
  4  5  2  3
  4  8  1  0
  5  6  1  0
  5  7  1  0
  8  9  1  1
  8 10  1  0
  8 11  1  0
 12 13  2  0
 12 27  1  0
 13 14  1  0
 13 17  1  0
 14 15  1  0
 15 16  1  0
 17 18  1  0
 18 19  2  0
 18 20  1  0
 20 21  1  0
 20 27  1  0
 22 21  1  1
 22 23  1  0
 22 26  1  0
 23 24  1  0
 24 25  1  0
 25 26  1  0
 27 28  2  0
M  END
