
     RDKit          3D

 28 29  0  0  0  0  0  0  0  0999 V2000
   -1.6770    3.9930    0.7080 C   0  0  0  0  0  0  0  0  0  0  0  0
   -1.2050    2.9780   -0.3460 C   0  0  0  0  0  0  0  0  0  0  0  0
   -0.9650    1.6740    0.4050 C   0  0  0  0  0  0  0  0  0  0  0  0
   -0.4990    0.6250   -0.4770 N   0  0  0  0  0  0  0  0  0  0  0  0
   -1.4120   -0.2970   -1.0630 C   0  0  0  0  0  0  0  0  0  0  0  0
   -1.2520   -0.4800   -2.2840 O   0  0  0  0  0  0  0  0  0  0  0  0
   -2.4470   -0.9860   -0.3060 C   0  0  0  0  0  0  0  0  0  0  0  0
   -2.3600   -0.9490    1.0140 C   0  0  0  0  0  0  0  0  0  0  0  0
   -3.2120   -1.5270    2.0140 C   0  0  0  0  0  0  0  0  0  0  0  0
   -3.8990   -0.6650    2.8460 F   0  0  0  0  0  0  0  0  0  0  0  0
   -3.5900   -1.5990   -0.9460 C   0  0  0  0  0  0  0  0  0  0  0  0
   -4.6630   -2.1410   -0.0830 N   0  0  0  0  0  0  0  0  0  0  0  0
   -3.8490   -1.7100   -2.2010 C   0  0  0  0  0  0  0  0  0  0  0  0
   -3.0680   -1.2380   -3.6190 Cl  0  0  0  0  0  0  0  0  0  0  0  0
    0.8970    0.2990   -0.6100 C   0  0  1  0  0  0  0  0  0  0  0  0
    1.5870    1.0900   -1.7350 C   0  0  0  0  0  0  0  0  0  0  0  0
    3.0220    0.6470   -1.7050 C   0  0  0  0  0  0  0  0  0  0  0  0
    3.7900    0.9960   -2.6570 O   0  0  0  0  0  0  0  0  0  0  0  0
    3.5630   -0.1580   -0.6350 C   0  0  0  0  0  0  0  0  0  0  0  0
    4.7160   -0.9280   -0.4870 C   0  0  0  0  0  0  0  0  0  0  0  0
    4.7180   -1.4760    0.7730 C   0  0  0  0  0  0  0  0  0  0  0  0
    5.7640   -2.3590    1.3430 C   0  0  2  0  0  0  0  0  0  0  0  0
    6.4150   -1.6640    2.3480 F   0  0  0  0  0  0  0  0  0  0  0  0
    6.6160   -2.8220    0.3780 F   0  0  0  0  0  0  0  0  0  0  0  0
    5.2210   -3.4990    1.9350 F   0  0  0  0  0  0  0  0  0  0  0  0
    3.6120   -1.0570    1.3440 O   0  0  0  0  0  0  0  0  0  0  0  0
    2.9090   -0.2810    0.5560 C   0  0  0  0  0  0  0  0  0  0  0  0
    1.6240    0.4560    0.6880 C   0  0  0  0  0  0  0  0  0  0  0  0
  1  2  1  0
  2  3  1  0
  3  4  1  0
  4  5  1  0
 15  4  1  1
  5  6  2  0
  5  7  1  0
  7  8  2  3
  7 11  1  0
  8  9  1  0
  9 10  1  0
 11 12  1  0
 11 13  2  3
 13 14  1  0
 15 16  1  0
 15 28  1  0
 16 17  1  0
 17 18  2  0
 17 19  1  0
 19 20  1  0
 19 27  2  0
 20 21  2  0
 21 22  1  0
 21 26  1  0
 22 23  1  1
 22 24  1  0
 22 25  1  0
 26 27  1  0
 27 28  1  0
M  END
