
     RDKit          3D

 24 25  0  0  0  0  0  0  0  0999 V2000
   -5.8240   -2.0310    0.8990 C   0  0  0  0  0  0  0  0  0  0  0  0
   -4.8490   -1.9530   -0.3580 C   0  0  0  0  0  0  0  0  0  0  0  0
   -4.8770   -0.6260   -0.5590 O   0  0  0  0  0  0  0  0  0  0  0  0
   -3.4750    0.3010   -0.7190 P   0  0  0  0  0  0  0  0  0  0  0  0
   -3.8340    1.9110   -1.0630 O   0  0  0  0  0  0  0  0  0  0  0  0
   -4.3670    2.6470   -0.0120 C   0  0  0  0  0  0  0  0  0  0  0  0
   -5.7970    2.1390    0.2530 C   0  0  0  0  0  0  0  0  0  0  0  0
   -1.8730   -0.3100   -0.3540 C   0  0  0  0  0  0  0  0  0  0  0  0
   -1.3720   -1.4750   -0.9610 C   0  0  0  0  0  0  0  0  0  0  0  0
   -0.1020   -1.8600   -0.8400 C   0  0  0  0  0  0  0  0  0  0  0  0
    0.7970   -1.1470   -0.1160 C   0  0  0  0  0  0  0  0  0  0  0  0
    2.1150   -1.5970   -0.2670 N   0  0  0  0  0  0  0  0  0  0  0  0
    3.2040   -0.5230   -0.2790 C   0  0  0  0  0  0  0  0  0  0  0  0
    2.9350    0.7980   -0.0770 C   0  0  0  0  0  0  0  0  0  0  0  0
    3.9470    1.7100    0.1460 C   0  0  0  0  0  0  0  0  0  0  0  0
    3.6220    3.0900    0.3510 O   0  0  0  0  0  0  0  0  0  0  0  0
    5.2800    1.3160    0.1700 C   0  0  0  0  0  0  0  0  0  0  0  0
    6.3260    2.2150    0.3880 O   0  0  0  0  0  0  0  0  0  0  0  0
    5.5530   -0.0290   -0.0570 C   0  0  0  0  0  0  0  0  0  0  0  0
    6.9830   -0.4510   -0.0720 C   0  0  0  0  0  0  0  0  0  0  0  0
    7.1810   -1.7460   -0.3280 O   0  0  0  0  0  0  0  0  0  0  0  0
    4.5560   -0.9930   -0.2860 C   0  0  0  0  0  0  0  0  0  0  0  0
    0.3580   -0.0220    0.5370 C   0  0  0  0  0  0  0  0  0  0  0  0
   -0.9400    0.4330    0.4360 C   0  0  0  0  0  0  0  0  0  0  0  0
  1  2  1  0
  2  3  1  0
  3  4  1  0
  4  5  1  0
  4  8  1  0
  5  6  1  0
  6  7  1  0
  8  9  2  0
  8 24  1  0
  9 10  1  0
 10 11  2  0
 11 12  1  0
 11 23  1  0
 12 13  1  0
 13 14  2  0
 13 22  1  0
 14 15  1  0
 15 16  1  0
 15 17  2  0
 17 18  1  0
 17 19  1  0
 19 20  1  0
 19 22  2  0
 20 21  1  0
 23 24  2  0
M  END
