
     RDKit          3D

 23 25  0  0  0  0  0  0  0  0999 V2000
    4.3640    0.5330    1.2810 O   0  0  0  0  0  0  0  0  0  0  0  0
    4.7510    0.0490    0.2030 C   0  0  0  0  0  0  0  0  0  0  0  0
    5.9150   -0.7880    0.0800 N   0  0  0  0  0  0  0  0  0  0  0  0
    6.6200   -1.0590    1.2010 O   0  0  0  0  0  0  0  0  0  0  0  0
    7.9030   -0.8370    1.0350 O   0  0  0  0  0  0  0  0  0  0  0  0
    4.0580    0.3010   -0.9680 O   0  0  0  0  0  0  0  0  0  0  0  0
    2.9070    1.0910   -1.0200 C   0  0  0  0  0  0  0  0  0  0  0  0
    1.8100    0.5370   -0.1610 C   0  0  0  0  0  0  0  0  0  0  0  0
    0.4930    0.8190   -0.2690 N   0  0  0  0  0  0  0  0  0  0  0  0
   -0.2070    0.1490    0.6600 C   0  0  0  0  0  0  0  0  0  0  0  0
   -1.6140    0.0840    0.9630 C   0  0  0  0  0  0  0  0  0  0  0  0
   -2.5660    0.0290    0.0190 C   0  0  0  0  0  0  0  0  0  0  0  0
   -2.3880    0.0230   -1.4250 C   0  0  0  0  0  0  0  0  0  0  0  0
   -1.2840    0.0680   -2.0460 O   0  0  0  0  0  0  0  0  0  0  0  0
   -3.6930   -0.0450   -1.9720 N   0  0  0  0  0  0  0  0  0  0  0  0
   -4.6560   -0.0800   -0.8950 C   0  0  0  0  0  0  0  0  0  0  0  0
   -4.0160   -0.0380    0.2510 C   0  0  0  0  0  0  0  0  0  0  0  0
   -5.0170   -0.0680    1.3210 C   0  0  0  0  0  0  0  0  0  0  0  0
   -4.7120   -0.0390    2.5570 O   0  0  0  0  0  0  0  0  0  0  0  0
   -6.2450   -0.1300    0.7380 O   0  0  0  0  0  0  0  0  0  0  0  0
   -6.1250   -0.1540   -0.6440 C   0  0  0  0  0  0  0  0  0  0  0  0
    0.7420   -0.5540    1.3400 N   0  0  0  0  0  0  0  0  0  0  0  0
    1.9070   -0.3030    0.8340 O   0  0  0  0  0  0  0  0  0  0  0  0
  1  2  2  0
  2  3  1  0
  2  6  1  0
  3  4  1  0
  4  5  1  0
  6  7  1  0
  7  8  1  0
  8  9  2  0
  8 23  1  0
  9 10  1  0
 10 11  1  0
 10 22  2  0
 11 12  2  3
 12 13  1  0
 12 17  1  0
 13 14  2  0
 13 15  1  0
 15 16  1  0
 16 17  2  0
 16 21  1  0
 17 18  1  0
 18 19  2  0
 18 20  1  0
 20 21  1  0
 22 23  1  0
M  END
