
     RDKit          3D

 24 25  0  0  0  0  0  0  0  0999 V2000
   -5.6010    3.5060   -0.0840 C   0  0  0  0  0  0  0  0  0  0  0  0
   -5.1880    2.0590    0.0730 C   0  0  0  0  0  0  0  0  0  0  0  0
   -4.8210    1.8550    1.4200 O   0  0  0  0  0  0  0  0  0  0  0  0
   -4.3370    0.2060    1.6590 P   0  0  0  0  0  0  0  0  0  0  0  0
   -2.4980    0.1920    1.9300 C   0  0  0  0  0  0  0  0  0  0  0  0
   -1.8340    0.1770    0.5700 C   0  0  0  0  0  0  0  0  0  0  0  0
   -0.3240    0.1650    0.7630 C   0  0  0  0  0  0  0  0  0  0  0  0
    0.3460    0.1510   -0.4840 O   0  0  0  0  0  0  0  0  0  0  0  0
    1.7310    0.1390   -0.5050 C   0  0  0  0  0  0  0  0  0  0  0  0
    2.4310    1.0130   -1.2110 C   0  0  0  0  0  0  0  0  0  0  0  0
    3.8520    1.0260   -1.2530 N   0  0  0  0  0  0  0  0  0  0  0  0
    4.5580    0.0560   -0.5020 C   0  0  0  0  0  0  0  0  0  0  0  0
    5.8910    0.1580   -0.6120 C   0  0  0  0  0  0  0  0  0  0  0  0
    6.9390   -0.6490    0.0030 C   0  0  0  0  0  0  0  0  0  0  0  0
    8.3480   -0.3560   -0.3670 C   0  0  0  0  0  0  0  0  0  0  0  0
    6.7930   -1.6390    0.8740 C   0  0  0  0  0  0  0  0  0  0  0  0
    5.6480   -2.1970    1.4520 O   0  0  0  0  0  0  0  0  0  0  0  0
    4.3200   -1.9690    1.1040 C   0  0  0  0  0  0  0  0  0  0  0  0
    3.4580   -2.7530    1.5340 O   0  0  0  0  0  0  0  0  0  0  0  0
    3.7640   -0.8950    0.2670 C   0  0  0  0  0  0  0  0  0  0  0  0
    2.4410   -0.8810    0.2850 C   0  0  0  0  0  0  0  0  0  0  0  0
   -4.7040   -0.7950    0.3130 O   0  0  0  0  0  0  0  0  0  0  0  0
   -5.8920   -1.5030    0.4840 C   0  0  0  0  0  0  0  0  0  0  0  0
   -6.1450   -2.3520   -0.7280 C   0  0  0  0  0  0  0  0  0  0  0  0
  1  2  1  0
  2  3  1  0
  3  4  1  0
  4  5  1  0
  4 22  1  0
  5  6  1  0
  6  7  1  0
  7  8  1  0
  8  9  1  0
  9 10  2  0
  9 21  1  0
 10 11  1  0
 11 12  1  0
 12 13  2  0
 12 20  1  0
 13 14  1  0
 14 15  1  0
 14 16  2  0
 16 17  1  0
 17 18  1  0
 18 19  2  0
 18 20  1  0
 20 21  2  0
 22 23  1  0
 23 24  1  0
M  END
