
     RDKit          3D

 24 25  0  0  0  0  0  0  0  0999 V2000
    7.2090    0.1200    1.3860 C   0  0  0  0  0  0  0  0  0  0  0  0
    7.0120    0.0110   -0.1090 C   0  0  2  0  0  0  0  0  0  0  0  0
    7.6610    1.0520   -0.7710 O   0  0  0  0  0  0  0  0  0  0  0  0
    5.6520    0.1280   -0.3620 O   0  0  0  0  0  0  0  0  0  0  0  0
    5.1700   -1.0280   -0.9720 C   0  0  0  0  0  0  0  0  0  0  0  0
    3.7920   -0.8520   -1.2030 O   0  0  0  0  0  0  0  0  0  0  0  0
    2.9160   -0.6370   -0.1580 C   0  0  0  0  0  0  0  0  0  0  0  0
    3.3540   -0.5950    1.1380 C   0  0  0  0  0  0  0  0  0  0  0  0
    2.4180   -0.3750    2.1360 C   0  0  0  0  0  0  0  0  0  0  0  0
    1.0580   -0.1960    1.8680 C   0  0  0  0  0  0  0  0  0  0  0  0
    0.6220   -0.2390    0.5780 C   0  0  0  0  0  0  0  0  0  0  0  0
   -0.7290   -0.0860    0.1830 N   0  0  0  0  0  0  0  0  0  0  0  0
   -1.8540   -0.0510    1.0070 C   0  0  0  0  0  0  0  0  0  0  0  0
   -1.7030   -0.1680    2.2500 O   0  0  0  0  0  0  0  0  0  0  0  0
   -3.2320    0.1200    0.4830 C   0  0  0  0  0  0  0  0  0  0  0  0
   -4.2930    0.1010    1.3910 C   0  0  0  0  0  0  0  0  0  0  0  0
   -5.6140    0.2530    1.0020 C   0  0  0  0  0  0  0  0  0  0  0  0
   -5.8980    0.4290   -0.3320 C   0  0  0  0  0  0  0  0  0  0  0  0
   -7.6530    0.6240   -0.8020 P   0  0  0  0  0  0  0  0  0  0  0  0
   -7.8680   -0.0130   -2.5150 C   0  0  0  0  0  0  0  0  0  0  0  0
   -8.2270    2.2220   -0.5860 O   0  0  0  0  0  0  0  0  0  0  0  0
   -4.8620    0.4490   -1.2380 C   0  0  0  0  0  0  0  0  0  0  0  0
   -3.5260    0.2950   -0.8400 C   0  0  0  0  0  0  0  0  0  0  0  0
    1.5820   -0.4640   -0.4320 C   0  0  0  0  0  0  0  0  0  0  0  0
  2  1  1  1
  2  3  1  0
  2  4  1  0
  4  5  1  0
  5  6  1  0
  6  7  1  0
  7  8  2  0
  7 24  1  0
  8  9  1  0
  9 10  2  0
 10 11  1  0
 11 12  1  0
 11 24  2  0
 12 13  1  0
 13 14  2  0
 13 15  1  0
 15 16  2  0
 15 23  1  0
 16 17  1  0
 17 18  2  0
 18 19  1  0
 18 22  1  0
 19 20  1  0
 19 21  1  0
 22 23  2  0
M  END
