
     RDKit          3D

 25 24  0  0  0  0  0  0  0  0999 V2000
   -1.9660    2.2280    1.3000 O   0  0  0  0  0  0  0  0  0  0  0  0
   -2.2100    2.2510    0.0700 C   0  0  0  0  0  0  0  0  0  0  0  0
   -2.2670    3.5230   -0.5240 O   0  0  0  0  0  0  0  0  0  0  0  0
   -2.4300    1.0260   -0.7380 C   0  0  0  0  0  0  0  0  0  0  0  0
   -2.3330   -0.1850    0.0360 N   0  0  1  0  0  0  0  0  0  0  0  0
   -1.1660   -0.2410    0.8660 C   0  0  0  0  0  0  0  0  0  0  0  0
   -0.3400   -1.4770    0.7370 C   0  0  1  0  0  0  0  0  0  0  0  0
   -1.0770   -2.6340    1.0290 O   0  0  0  0  0  0  0  0  0  0  0  0
    0.3770   -1.6500   -0.5490 C   0  0  1  0  0  0  0  0  0  0  0  0
   -0.5090   -1.8640   -1.6170 O   0  0  0  0  0  0  0  0  0  0  0  0
    1.2910   -0.5450   -0.9540 C   0  0  2  0  0  0  0  0  0  0  0  0
    1.8940   -1.0060   -2.1760 O   0  0  0  0  0  0  0  0  0  0  0  0
    2.4880   -0.3660   -0.0120 C   0  0  2  0  0  0  0  0  0  0  0  0
    2.0370    0.1060    1.1970 O   0  0  0  0  0  0  0  0  0  0  0  0
    3.4830    0.5910   -0.5640 C   0  0  0  0  0  0  0  0  0  0  0  0
    4.5230    0.6480    0.3970 O   0  0  0  0  0  0  0  0  0  0  0  0
    5.6550    1.5940   -0.0010 P   0  0  0  0  0  0  0  0  0  0  0  0
    4.6860    2.8750   -0.1860 O   0  0  0  0  0  0  0  0  0  0  0  0
    5.9830    0.5910   -1.3070 O   0  0  0  0  0  0  0  0  0  0  0  0
    6.4180    1.3390    1.4420 O   0  0  0  0  0  0  0  0  0  0  0  0
   -3.5780   -0.2960    0.8180 C   0  0  0  0  0  0  0  0  0  0  0  0
   -4.8540   -0.7650   -0.2770 P   0  0  0  0  0  0  0  0  0  0  0  0
   -6.1230   -1.6400    0.3920 O   0  0  0  0  0  0  0  0  0  0  0  0
   -4.3100   -2.1640   -0.7100 O   0  0  0  0  0  0  0  0  0  0  0  0
   -5.8160    0.4480   -0.1680 O   0  0  0  0  0  0  0  0  0  0  0  0
  1  2  2  0
  2  3  1  0
  2  4  1  0
  5  4  1  1
  5  6  1  0
  5 21  1  0
  6  7  1  0
  7  8  1  6
  7  9  1  0
  9 10  1  6
  9 11  1  0
 11 12  1  6
 11 13  1  0
 13 14  1  1
 13 15  1  0
 15 16  1  0
 16 17  1  0
 17 18  1  0
 17 19  1  0
 17 20  1  0
 21 22  1  0
 22 23  1  0
 22 24  1  0
 22 25  1  0
M  CHG  1   5   1
M  END
