
     RDKit          3D

 24 25  0  0  0  0  0  0  0  0999 V2000
    1.5350    4.2130    0.9550 C   0  0  0  0  0  0  0  0  0  0  0  0
    1.8830    3.1300    0.0710 O   0  0  0  0  0  0  0  0  0  0  0  0
    1.5520    1.8370    0.4120 C   0  0  0  0  0  0  0  0  0  0  0  0
    2.0260    1.2920    1.7040 C   0  0  0  0  0  0  0  0  0  0  0  0
    0.8320    1.1050   -0.3820 C   0  0  0  0  0  0  0  0  0  0  0  0
    0.4490   -0.2710   -0.0890 C   0  0  0  0  0  0  0  0  0  0  0  0
    1.3690   -1.2970   -0.1110 C   0  0  0  0  0  0  0  0  0  0  0  0
    2.7620   -1.1490   -0.5990 C   0  0  0  0  0  0  0  0  0  0  0  0
    2.7480   -1.1680   -2.1250 C   0  0  0  0  0  0  0  0  0  0  0  0
    4.3950   -0.9610   -2.8880 P   0  0  0  0  0  0  0  0  0  0  0  0
    4.2050   -1.2470   -4.6120 O   0  0  0  0  0  0  0  0  0  0  0  0
    5.5600   -2.0850   -2.3320 O   0  0  0  0  0  0  0  0  0  0  0  0
    0.9720   -2.5840    0.2680 C   0  0  0  0  0  0  0  0  0  0  0  0
   -0.3320   -2.7760    0.6460 C   0  0  0  0  0  0  0  0  0  0  0  0
   -1.2130   -1.7530    0.6550 N   0  0  0  0  0  0  0  0  0  0  0  0
   -0.8590   -0.5030    0.2980 C   0  0  0  0  0  0  0  0  0  0  0  0
   -1.7310    0.5710    0.2950 O   0  0  0  0  0  0  0  0  0  0  0  0
   -3.0570    0.4210    0.6730 C   0  0  0  0  0  0  0  0  0  0  0  0
   -3.5280    0.5930    1.9520 C   0  0  0  0  0  0  0  0  0  0  0  0
   -4.8470    0.4380    2.3000 C   0  0  0  0  0  0  0  0  0  0  0  0
   -5.7620    0.0850    1.2980 C   0  0  0  0  0  0  0  0  0  0  0  0
   -7.0730   -0.0550    1.7230 O   0  0  0  0  0  0  0  0  0  0  0  0
   -5.3390   -0.0980    0.0050 C   0  0  0  0  0  0  0  0  0  0  0  0
   -4.0080    0.0690   -0.2960 C   0  0  0  0  0  0  0  0  0  0  0  0
  1  2  1  0
  2  3  1  0
  3  4  1  0
  3  5  2  3
  5  6  1  0
  6  7  2  0
  6 16  1  0
  7  8  1  0
  7 13  1  0
  8  9  1  0
  9 10  1  0
 10 11  1  0
 10 12  1  0
 13 14  2  0
 14 15  1  0
 15 16  2  0
 16 17  1  0
 17 18  1  0
 18 19  2  0
 18 24  1  0
 19 20  1  0
 20 21  2  0
 21 22  1  0
 21 23  1  0
 23 24  2  0
M  END
