
     RDKit          3D

 23 24  0  0  0  0  0  0  0  0999 V2000
   -1.4510    0.3150    2.1760 O   0  0  0  0  0  0  0  0  0  0  0  0
   -2.2040    0.1250    1.1000 C   0  0  0  0  0  0  0  0  0  0  0  0
   -1.4540   -0.2840   -0.0670 C   0  0  0  0  0  0  0  0  0  0  0  0
   -1.9040   -0.5420   -1.2580 C   0  0  0  0  0  0  0  0  0  0  0  0
   -1.0430   -0.9530   -2.3840 C   0  0  0  0  0  0  0  0  0  0  0  0
    0.2540   -1.5840   -2.0410 C   0  0  0  0  0  0  0  0  0  0  0  0
    0.8760   -0.8620   -0.9490 N   0  0  0  0  0  0  0  0  0  0  0  0
    2.3080   -0.5890   -0.9650 C   0  0  0  0  0  0  0  0  0  0  0  0
    2.5750    0.7240   -1.6400 C   0  0  0  0  0  0  0  0  0  0  0  0
    3.9930    1.0860   -1.7780 C   0  0  0  0  0  0  0  0  0  0  0  0
    4.8390    1.2330   -0.5790 C   0  0  0  0  0  0  0  0  0  0  0  0
    5.1010   -0.2570    0.4420 P   0  0  0  0  0  0  0  0  0  0  0  0
    6.7020   -0.9060    0.2930 O   0  0  0  0  0  0  0  0  0  0  0  0
    4.8060    0.1230    2.1270 O   0  0  0  0  0  0  0  0  0  0  0  0
    0.0270   -0.4540    0.0930 C   0  0  0  0  0  0  0  0  0  0  0  0
    0.5250   -0.2200    1.2140 O   0  0  0  0  0  0  0  0  0  0  0  0
   -3.5810    0.3770    1.3740 C   0  0  0  0  0  0  0  0  0  0  0  0
   -4.6130    0.2730    0.4860 C   0  0  0  0  0  0  0  0  0  0  0  0
   -5.9490    0.5420    0.8440 C   0  0  0  0  0  0  0  0  0  0  0  0
   -6.2470    0.9230    2.1230 C   0  0  0  0  0  0  0  0  0  0  0  0
   -5.2470    1.0420    3.0520 C   0  0  0  0  0  0  0  0  0  0  0  0
   -3.9550    0.7760    2.6830 C   0  0  0  0  0  0  0  0  0  0  0  0
   -2.9250    0.8940    3.6210 O   0  0  0  0  0  0  0  0  0  0  0  0
  1  2  2  0
  2  3  1  0
  2 17  1  0
  3  4  2  0
  3 15  1  0
  4  5  1  0
  5  6  1  0
  6  7  1  0
  7  8  1  0
  7 15  1  0
  8  9  1  0
  9 10  1  0
 10 11  1  0
 11 12  1  0
 12 13  1  0
 12 14  1  0
 15 16  2  0
 17 18  2  0
 17 22  1  0
 18 19  1  0
 19 20  2  0
 20 21  1  0
 21 22  2  0
 22 23  1  0
M  END
