
     RDKit          3D

 12 12  0  0  0  0  0  0  0  0999 V2000
   -4.4680    0.3000   -0.7700 C   0  0  0  0  0  0  0  0  0  0  0  0
   -3.0720    0.3520   -0.6080 O   0  0  0  0  0  0  0  0  0  0  0  0
   -2.3640   -0.7350   -0.1220 C   0  0  0  0  0  0  0  0  0  0  0  0
   -3.0170   -1.7700    0.1680 O   0  0  0  0  0  0  0  0  0  0  0  0
   -0.8850   -0.7060    0.0590 C   0  0  0  0  0  0  0  0  0  0  0  0
   -0.2090    0.8820   -0.4280 S   0  0  0  0  0  0  0  0  0  0  0  0
    1.5580    0.8580   -0.1900 C   0  0  0  0  0  0  0  0  0  0  0  0
    2.3760    1.8460   -0.4420 N   0  0  0  0  0  0  0  0  0  0  0  0
    3.6560    1.4070   -0.1170 N   0  0  0  0  0  0  0  0  0  0  0  0
    3.6400    0.0120   -0.1010 N   0  0  0  0  0  0  0  0  0  0  0  0
    4.5310   -0.4820    0.7870 O   0  0  0  0  0  0  0  0  0  0  0  0
    2.3170   -0.2360    0.3040 N   0  0  0  0  0  0  0  0  0  0  0  0
  1  2  1  0
  2  3  1  0
  3  4  2  0
  3  5  1  0
  5  6  1  0
  6  7  1  0
  7  8  2  0
  7 12  1  0
  8  9  1  0
  9 10  1  0
 10 11  1  0
 10 12  1  0
M  END
