
     RDKit          3D

 13 13  0  0  0  0  0  0  0  0999 V2000
    4.4150   -0.1490    0.6970 C   0  0  0  0  0  0  0  0  0  0  0  0
    2.8340   -0.7710    1.2400 S   0  0  1  0  0  0  0  0  0  0  0  0
    2.5620   -2.0170    0.4390 O   0  0  0  0  0  0  0  0  0  0  0  0
    2.8760   -1.0590    2.7170 O   0  0  0  0  0  0  0  0  0  0  0  0
    1.6440    0.4500    0.9870 N   0  0  0  0  0  0  0  0  0  0  0  0
    0.4230   -0.0470    0.4630 C   0  0  0  0  0  0  0  0  0  0  0  0
    0.1660   -1.2400    0.2280 O   0  0  0  0  0  0  0  0  0  0  0  0
   -0.6440    0.7950    0.1410 N   0  0  0  0  0  0  0  0  0  0  0  0
   -1.8540    0.2950   -0.3070 C   0  0  0  0  0  0  0  0  0  0  0  0
   -2.5970    1.0370   -0.9310 N   0  0  0  0  0  0  0  0  0  0  0  0
   -3.7640    0.5390   -1.3810 N   0  0  0  0  0  0  0  0  0  0  0  0
   -4.4980   -0.1620   -0.3170 C   0  0  0  0  0  0  0  0  0  0  0  0
   -2.9420   -1.0970    0.1300 S   0  0  0  0  0  0  0  0  0  0  0  0
  2  1  1  6
  2  3  2  0
  2  4  2  0
  2  5  1  0
  5  6  1  0
  6  7  2  0
  6  8  1  0
  8  9  1  0
  9 10  2  0
  9 13  1  0
 10 11  1  0
 11 12  1  0
 12 13  1  0
M  END
