
     RDKit          3D

 12 12  0  0  0  0  0  0  0  0999 V2000
    4.2260    0.0150   -0.7300 N   0  0  0  0  0  0  0  0  0  0  0  0
    3.4600   -0.2250    0.3100 O   0  0  0  0  0  0  0  0  0  0  0  0
    2.1180   -0.0400   -0.0610 C   0  0  0  0  0  0  0  0  0  0  0  0
    1.0100   -0.3570    1.3300 S   0  0  0  0  0  0  0  0  0  0  0  0
   -0.6590   -0.1110    0.8110 C   0  0  0  0  0  0  0  0  0  0  0  0
   -1.2060    1.1120    0.9230 N   0  0  0  0  0  0  0  0  0  0  0  0
   -2.4520    1.3350    0.5450 N   0  0  0  0  0  0  0  0  0  0  0  0
   -3.2210    0.3490    0.0330 C   0  0  0  0  0  0  0  0  0  0  0  0
   -4.7530    0.7450   -0.4010 S   0  0  0  0  0  0  0  0  0  0  0  0
   -2.7180   -0.8670   -0.0930 N   0  0  0  0  0  0  0  0  0  0  0  0
   -1.4520   -1.1100    0.2870 C   0  0  0  0  0  0  0  0  0  0  0  0
   -0.9660   -2.2820    0.1660 O   0  0  0  0  0  0  0  0  0  0  0  0
  1  2  1  0
  2  3  1  0
  3  4  1  0
  4  5  1  0
  5  6  2  0
  5 11  1  0
  6  7  1  0
  7  8  1  0
  8  9  2  0
  8 10  1  0
 10 11  1  0
 11 12  2  0
M  END
