
     RDKit          3D

 13 13  0  0  0  0  0  0  0  0999 V2000
    3.6230   -0.3370   -1.2760 O   0  0  0  0  0  0  0  0  0  0  0  0
    3.3560   -0.1530   -0.0620 C   0  0  0  0  0  0  0  0  0  0  0  0
    4.3600   -0.2390    0.9200 O   0  0  0  0  0  0  0  0  0  0  0  0
    2.0200    0.1440    0.3220 N   0  0  0  0  0  0  0  0  0  0  0  0
    1.0580    0.2180   -0.6870 N   0  0  0  0  0  0  0  0  0  0  0  0
   -0.1840    0.1520   -0.3410 C   0  0  0  0  0  0  0  0  0  0  0  0
   -0.7350   -0.0210    1.2810 S   0  0  0  0  0  0  0  0  0  0  0  0
   -2.4370   -0.0740    1.3750 C   0  0  0  0  0  0  0  0  0  0  0  0
   -3.2220   -0.2340    2.7940 S   0  0  0  0  0  0  0  0  0  0  0  0
   -3.0650    0.0260    0.1940 N   0  0  0  0  0  0  0  0  0  0  0  0
   -2.5070    0.1540   -0.9730 N   0  0  0  0  0  0  0  0  0  0  0  0
   -1.2130    0.2160   -1.2620 C   0  0  0  0  0  0  0  0  0  0  0  0
   -0.8260    0.3450   -2.4760 O   0  0  0  0  0  0  0  0  0  0  0  0
  1  2  2  0
  2  3  1  0
  2  4  1  0
  4  5  1  0
  5  6  2  3
  6  7  1  0
  6 12  1  0
  7  8  1  0
  8  9  2  0
  8 10  1  0
 10 11  1  0
 11 12  1  0
 12 13  2  0
M  END
