
     RDKit          3D

 12 12  0  0  0  0  0  0  0  0999 V2000
   -3.2320   -1.6810   -0.0250 O   0  0  0  0  0  0  0  0  0  0  0  0
   -2.1580   -1.0430    0.1270 C   0  0  0  0  0  0  0  0  0  0  0  0
   -1.0190   -1.6460    0.5780 N   0  0  0  0  0  0  0  0  0  0  0  0
    0.1150   -0.9540    0.7330 C   0  0  0  0  0  0  0  0  0  0  0  0
    1.1300   -1.5730    1.1540 O   0  0  0  0  0  0  0  0  0  0  0  0
    0.1640    0.3580    0.4490 N   0  0  0  0  0  0  0  0  0  0  0  0
    1.3820    1.1310    0.6060 C   0  0  0  0  0  0  0  0  0  0  0  0
    2.3980    1.1590   -0.8830 S   0  0  0  0  0  0  0  0  0  0  0  0
    3.0380   -0.3700   -1.2850 O   0  0  0  0  0  0  0  0  0  0  0  0
   -0.9700    0.9530    0.0010 C   0  0  0  0  0  0  0  0  0  0  0  0
   -1.0050    2.5440   -0.3730 S   0  0  0  0  0  0  0  0  0  0  0  0
   -2.1240    0.2700   -0.1620 N   0  0  0  0  0  0  0  0  0  0  0  0
  1  2  2  0
  2  3  1  0
  2 12  1  0
  3  4  1  0
  4  5  2  0
  4  6  1  0
  6  7  1  0
  6 10  1  0
  7  8  1  0
  8  9  1  0
 10 11  2  0
 10 12  1  0
M  END
