
     RDKit          3D

 13 13  0  0  0  0  0  0  0  0999 V2000
    4.3600   -0.0670    0.2930 C   0  0  0  0  0  0  0  0  0  0  0  0
    2.9200    0.0500    0.6060 C   0  0  0  0  0  0  0  0  0  0  0  0
    2.5580    0.1260    1.8090 O   0  0  0  0  0  0  0  0  0  0  0  0
    1.9760    0.0740   -0.4520 N   0  0  0  0  0  0  0  0  0  0  0  0
    0.6030    0.1910   -0.0200 C   0  0  0  0  0  0  0  0  0  0  0  0
   -0.0790    0.2790    0.9060 N   0  0  0  0  0  0  0  0  0  0  0  0
   -1.3730    0.3730    0.9170 N   0  0  0  0  0  0  0  0  0  0  0  0
   -2.0460    0.3790   -0.1050 C   0  0  0  0  0  0  0  0  0  0  0  0
   -3.7370    0.4870   -0.4790 S   0  0  1  0  0  0  0  0  0  0  0  0
   -4.3790   -1.1170   -0.5220 N   0  0  0  0  0  0  0  0  0  0  0  0
   -4.3770    1.3120    0.6020 O   0  0  0  0  0  0  0  0  0  0  0  0
   -3.9680    1.1170   -1.8320 O   0  0  0  0  0  0  0  0  0  0  0  0
   -0.7200    0.2300   -1.3800 S   0  0  0  0  0  0  0  0  0  0  0  0
  1  2  1  0
  2  3  2  0
  2  4  1  0
  4  5  1  0
  5  6  2  0
  5 13  1  0
  6  7  1  0
  7  8  2  0
  8  9  1  0
  8 13  1  0
  9 10  1  6
  9 11  2  0
  9 12  2  0
M  END
