
     RDKit          3D

 20 22  0  0  0  0  0  0  0  0999 V2000
    5.3350   -0.5190   -0.2000 N   0  0  0  0  0  0  0  0  0  0  0  0
    3.9310   -0.3540   -0.1880 C   0  0  0  0  0  0  0  0  0  0  0  0
    3.0790   -1.4360   -0.1450 C   0  0  0  0  0  0  0  0  0  0  0  0
    1.7680   -1.2290   -0.1360 N   0  0  0  0  0  0  0  0  0  0  0  0
    1.2220   -0.0220   -0.1650 C   0  0  0  0  0  0  0  0  0  0  0  0
   -0.2340    0.1060   -0.1520 C   0  0  0  0  0  0  0  0  0  0  0  0
   -0.7940    1.3800   -0.1830 C   0  0  0  0  0  0  0  0  0  0  0  0
   -2.1560    1.5730   -0.1730 C   0  0  0  0  0  0  0  0  0  0  0  0
   -2.9520    0.4450   -0.1290 C   0  0  0  0  0  0  0  0  0  0  0  0
   -4.3180    0.5600   -0.1160 C   0  0  0  0  0  0  0  0  0  0  0  0
   -5.0530    2.3380   -0.1610 Br  0  0  0  0  0  0  0  0  0  0  0  0
   -5.1240   -0.5480   -0.0730 C   0  0  0  0  0  0  0  0  0  0  0  0
   -4.5920   -1.8190   -0.0420 C   0  0  0  0  0  0  0  0  0  0  0  0
   -5.7300   -3.3710    0.0190 Br  0  0  0  0  0  0  0  0  0  0  0  0
   -3.2190   -1.9380   -0.0550 C   0  0  0  0  0  0  0  0  0  0  0  0
   -2.3880   -0.8250   -0.0980 C   0  0  0  0  0  0  0  0  0  0  0  0
   -1.0440   -0.9570   -0.1100 N   0  0  0  0  0  0  0  0  0  0  0  0
    2.0360    1.0430   -0.2070 N   0  0  0  0  0  0  0  0  0  0  0  0
    3.3900    0.8960   -0.2190 C   0  0  0  0  0  0  0  0  0  0  0  0
    4.2560    2.0070   -0.2630 N   0  0  0  0  0  0  0  0  0  0  0  0
  1  2  1  0
  2  3  2  0
  2 19  1  0
  3  4  1  0
  4  5  2  0
  5  6  1  0
  5 18  1  0
  6  7  2  0
  6 17  1  0
  7  8  1  0
  8  9  2  0
  9 10  1  0
  9 16  1  0
 10 11  1  0
 10 12  2  0
 12 13  1  0
 13 14  1  0
 13 15  2  0
 15 16  1  0
 16 17  2  0
 18 19  2  0
 19 20  1  0
M  END
