
     RDKit          3D

 13 13  0  0  0  0  0  0  0  0999 V2000
   -3.7410    0.1400    0.6740 N   0  0  0  0  0  0  0  0  0  0  0  0
   -2.6600   -0.7920    0.4400 C   0  0  0  0  0  0  0  0  0  0  0  0
   -2.7990   -2.3420    0.8330 S   0  0  0  0  0  0  0  0  0  0  0  0
   -1.4220   -0.2520   -0.1780 C   0  0  0  0  0  0  0  0  0  0  0  0
   -0.2220   -0.5960    0.5570 N   0  0  0  0  0  0  0  0  0  0  0  0
    1.0060    0.0990    0.2220 C   0  0  0  0  0  0  0  0  0  0  0  0
    0.9470    1.2780   -0.2870 N   0  0  0  0  0  0  0  0  0  0  0  0
    2.5890    1.7560   -0.5380 S   0  0  1  0  0  0  0  0  0  0  0  0
    2.8870    2.0000   -1.9810 O   0  0  0  0  0  0  0  0  0  0  0  0
    2.9360    2.9210    0.3480 O   0  0  0  0  0  0  0  0  0  0  0  0
    3.2960    0.3070    0.0800 N   0  0  0  0  0  0  0  0  0  0  0  0
    2.3230   -0.4450    0.4270 C   0  0  0  0  0  0  0  0  0  0  0  0
    2.6050   -1.7300    0.9770 O   0  0  0  0  0  0  0  0  0  0  0  0
  1  2  1  0
  2  3  2  0
  2  4  1  0
  4  5  1  0
  5  6  1  0
  6  7  2  0
  6 12  1  0
  8  7  1  6
  8  9  2  0
  8 10  2  0
  8 11  1  0
 11 12  2  0
 12 13  1  0
M  END
