
     RDKit          3D

 16 18  0  0  0  0  0  0  0  0999 V2000
   -2.5040    1.5740    0.3690 C   0  0  0  0  0  0  0  0  0  0  0  0
   -2.1480    0.2280    0.8500 C   0  0  0  0  0  0  0  0  0  0  0  0
   -2.6950   -0.4550    1.8610 N   0  0  0  0  0  0  0  0  0  0  0  0
   -2.1780   -1.6520    1.9450 N   0  0  0  0  0  0  0  0  0  0  0  0
   -1.2400   -1.8040    0.9590 C   0  0  0  0  0  0  0  0  0  0  0  0
   -1.2080   -0.6360    0.2710 C   0  0  0  0  0  0  0  0  0  0  0  0
   -0.3020   -0.2300   -0.8540 C   0  0  2  0  0  0  0  0  0  0  0  0
    0.0730   -1.3470   -1.7630 C   0  0  0  0  0  0  0  0  0  0  0  0
    1.2530   -2.1330   -1.4770 C   0  0  0  0  0  0  0  0  0  0  0  0
    1.2640   -3.4120   -1.6770 O   0  0  0  0  0  0  0  0  0  0  0  0
    2.3920   -1.5500   -0.9890 O   0  0  0  0  0  0  0  0  0  0  0  0
    2.2480   -0.2850   -0.4080 C   0  0  0  0  0  0  0  0  0  0  0  0
    3.2350    0.4530    0.1290 C   0  0  0  0  0  0  0  0  0  0  0  0
    2.6280    1.6800    0.6100 C   0  0  0  0  0  0  0  0  0  0  0  0
    1.1910    1.5540    0.2860 C   0  0  0  0  0  0  0  0  0  0  0  0
    0.9720    0.4060   -0.3070 C   0  0  0  0  0  0  0  0  0  0  0  0
  1  2  1  0
  2  3  1  0
  2  6  2  0
  3  4  1  0
  4  5  2  0
  5  6  1  0
  7  6  1  1
  7  8  1  0
  7 16  1  0
  8  9  1  0
  9 10  2  0
  9 11  1  0
 11 12  1  0
 12 13  2  0
 12 16  1  0
 13 14  1  0
 14 15  1  0
 15 16  2  0
M  END
