
     RDKit          3D

 16 18  0  0  0  0  0  0  0  0999 V2000
   -2.5640   -1.9950   -0.0030 C   0  0  0  0  0  0  0  0  0  0  0  0
   -1.2590   -1.2990   -0.0080 C   0  0  0  0  0  0  0  0  0  0  0  0
   -0.1150   -2.0120   -0.0360 N   0  0  0  0  0  0  0  0  0  0  0  0
    1.1060   -1.4490   -0.0430 C   0  0  0  0  0  0  0  0  0  0  0  0
    2.3480   -2.2560   -0.0740 C   0  0  0  0  0  0  0  0  0  0  0  0
    1.1710   -0.0730   -0.0190 C   0  0  0  0  0  0  0  0  0  0  0  0
    2.3430    0.6170   -0.0230 C   0  0  0  0  0  0  0  0  0  0  0  0
    3.4320   -0.0310   -0.0490 O   0  0  0  0  0  0  0  0  0  0  0  0
    2.3640    1.9680    0.0010 N   0  0  0  0  0  0  0  0  0  0  0  0
    1.2550    2.7220    0.0290 C   0  0  0  0  0  0  0  0  0  0  0  0
    0.0490    2.0530    0.0340 C   0  0  0  0  0  0  0  0  0  0  0  0
   -1.1340    2.7950    0.0630 O   0  0  0  0  0  0  0  0  0  0  0  0
   -2.3760    2.1710    0.0690 C   0  0  0  0  0  0  0  0  0  0  0  0
   -2.4930    0.8480    0.0470 C   0  0  0  0  0  0  0  0  0  0  0  0
   -1.2510    0.0770    0.0160 C   0  0  0  0  0  0  0  0  0  0  0  0
   -0.0050    0.6870    0.0100 C   0  0  0  0  0  0  0  0  0  0  0  0
  1  2  1  0
  2  3  2  0
  2 15  1  0
  3  4  1  0
  4  5  1  0
  4  6  2  0
  6  7  1  0
  6 16  1  0
  7  8  2  0
  7  9  1  0
  9 10  1  0
 10 11  2  0
 11 12  1  0
 11 16  1  0
 12 13  1  0
 13 14  2  0
 14 15  1  0
 15 16  2  0
M  END
