
     RDKit          3D

 15 16  0  0  0  0  0  0  0  0999 V2000
   -3.2140   -1.5690    0.1170 C   0  0  0  0  0  0  0  0  0  0  0  0
   -2.6200   -0.4180   -0.5060 N   0  0  0  0  0  0  0  0  0  0  0  0
   -3.2280    0.1670   -1.6700 C   0  0  0  0  0  0  0  0  0  0  0  0
   -1.4370    0.1320    0.0300 C   0  0  0  0  0  0  0  0  0  0  0  0
   -0.2500   -0.2980   -0.3220 N   0  0  0  0  0  0  0  0  0  0  0  0
    0.9150    0.2850    0.2430 C   0  0  0  0  0  0  0  0  0  0  0  0
    2.1380   -0.1180   -0.0830 C   0  0  0  0  0  0  0  0  0  0  0  0
    2.5230   -1.1660   -1.0190 C   0  0  0  0  0  0  0  0  0  0  0  0
    3.8530   -1.2090   -1.0160 C   0  0  0  0  0  0  0  0  0  0  0  0
    4.4060   -0.2270   -0.1100 C   0  0  0  0  0  0  0  0  0  0  0  0
    3.3920    0.4130    0.4370 C   0  0  0  0  0  0  0  0  0  0  0  0
    3.4950    1.4460    1.3760 O   0  0  0  0  0  0  0  0  0  0  0  0
    0.7510    1.3060    1.1620 O   0  0  0  0  0  0  0  0  0  0  0  0
   -0.5260    1.7600    1.5330 C   0  0  0  0  0  0  0  0  0  0  0  0
   -1.5870    1.2120    1.0020 C   0  0  0  0  0  0  0  0  0  0  0  0
  1  2  1  0
  2  3  1  0
  2  4  1  0
  4  5  2  0
  4 15  1  0
  5  6  1  0
  6  7  2  3
  6 13  1  0
  7  8  1  0
  7 11  1  0
  8  9  2  0
  9 10  1  0
 10 11  2  0
 11 12  1  0
 13 14  1  0
 14 15  2  0
M  END
