
     RDKit          3D

 20 23  0  0  0  0  0  0  0  0999 V2000
   -2.3250   -0.9330    1.3780 C   0  0  0  0  0  0  0  0  0  0  0  0
   -2.1910   -0.5180   -0.0530 C   0  0  2  0  0  0  0  0  0  0  0  0
   -1.5330   -1.6100   -0.8390 C   0  0  0  0  0  0  0  0  0  0  0  0
   -0.1220   -1.8320   -0.3560 C   0  0  0  0  0  0  0  0  0  0  0  0
    0.6290   -0.5400   -0.4370 C   0  0  2  0  0  0  0  0  0  0  0  0
    2.0680   -0.6520   -0.1840 C   0  0  0  0  0  0  0  0  0  0  0  0
    2.7370   -1.8280    0.0800 C   0  0  0  0  0  0  0  0  0  0  0  0
    4.1050   -1.7630    0.2970 C   0  0  0  0  0  0  0  0  0  0  0  0
    4.7880   -0.5540    0.2520 C   0  0  0  0  0  0  0  0  0  0  0  0
    6.1390   -0.5290    0.4720 O   0  0  0  0  0  0  0  0  0  0  0  0
    4.1090    0.6140   -0.0130 C   0  0  0  0  0  0  0  0  0  0  0  0
    2.7670    0.5490   -0.2260 C   0  0  0  0  0  0  0  0  0  0  0  0
    1.9440    1.7580   -0.5190 C   0  0  0  0  0  0  0  0  0  0  0  0
    0.8150    1.7350    0.5120 C   0  0  0  0  0  0  0  0  0  0  0  0
   -0.0430    0.5230    0.4140 C   0  0  1  0  0  0  0  0  0  0  0  0
   -1.3600    0.7340   -0.2360 C   0  0  2  0  0  0  0  0  0  0  0  0
   -2.2270    1.7930    0.2970 C   0  0  0  0  0  0  0  0  0  0  0  0
   -3.5480    1.4430   -0.4120 C   0  0  0  0  0  0  0  0  0  0  0  0
   -3.5050   -0.0710   -0.5970 C   0  0  2  0  0  0  0  0  0  0  0  0
   -4.6000   -0.5920    0.0630 O   0  0  0  0  0  0  0  0  0  0  0  0
  2  1  1  1
  2  3  1  0
  2 16  1  0
  2 19  1  0
  3  4  1  0
  5  4  1  1
  5  6  1  0
  5 15  1  0
  6  7  2  0
  6 12  1  0
  7  8  1  0
  8  9  2  0
  9 10  1  0
  9 11  1  0
 11 12  2  0
 12 13  1  0
 13 14  1  0
 15 14  1  6
 15 16  1  0
 16 17  1  1
 17 18  1  0
 18 19  1  0
 19 20  1  1
M  END
