
     RDKit          3D

 16 17  0  0  0  0  0  0  0  0999 V2000
    3.5040   -2.0100    0.5700 C   0  0  0  0  0  0  0  0  0  0  0  0
    2.5070   -1.5300   -0.0830 N   0  0  0  0  0  0  0  0  0  0  0  0
    2.2170   -0.1710   -0.0260 C   0  0  0  0  0  0  0  0  0  0  0  0
    3.2000    0.7480    0.0440 C   0  0  0  0  0  0  0  0  0  0  0  0
    0.8370    0.3780   -0.0450 C   0  0  0  0  0  0  0  0  0  0  0  0
   -0.2480   -0.3690   -0.1100 C   0  0  0  0  0  0  0  0  0  0  0  0
   -0.0770   -1.8430   -0.1640 C   0  0  0  0  0  0  0  0  0  0  0  0
   -1.3280   -2.6440   -0.1010 C   0  0  0  0  0  0  0  0  0  0  0  0
   -2.5260   -1.9850   -0.2790 O   0  0  0  0  0  0  0  0  0  0  0  0
   -2.7550   -0.6260   -0.2310 C   0  0  0  0  0  0  0  0  0  0  0  0
   -3.9100   -0.1220   -0.2600 O   0  0  0  0  0  0  0  0  0  0  0  0
   -1.5850    0.2400   -0.1430 C   0  0  0  0  0  0  0  0  0  0  0  0
   -1.7630    1.5470   -0.1110 C   0  0  0  0  0  0  0  0  0  0  0  0
   -3.1190    2.1860   -0.1430 C   0  0  0  0  0  0  0  0  0  0  0  0
   -0.5900    2.3410   -0.0540 N   0  0  0  0  0  0  0  0  0  0  0  0
    0.7310    1.8640    0.0340 C   0  0  0  0  0  0  0  0  0  0  0  0
  1  2  2  0
  2  3  1  0
  3  4  2  0
  3  5  1  0
  5  6  2  0
  5 16  1  0
  6  7  1  0
  6 12  1  0
  7  8  1  0
  8  9  1  0
  9 10  1  0
 10 11  2  0
 10 12  1  0
 12 13  2  0
 13 14  1  0
 13 15  1  0
 15 16  1  0
M  END
