
     RDKit          3D

 16 18  0  0  0  0  0  0  0  0999 V2000
   -1.6810    3.0400    0.1220 O   0  0  0  0  0  0  0  0  0  0  0  0
   -0.7090    2.2950   -0.1090 C   0  0  0  0  0  0  0  0  0  0  0  0
    0.5280    2.9040   -0.5020 N   0  0  0  0  0  0  0  0  0  0  0  0
    1.7850    2.3830   -0.3070 N   0  0  0  0  0  0  0  0  0  0  0  0
    2.2400    1.2010   -0.0760 C   0  0  0  0  0  0  0  0  0  0  0  0
    3.5690    0.8680    0.0990 O   0  0  0  0  0  0  0  0  0  0  0  0
    3.7010   -0.5020    0.3420 C   0  0  0  0  0  0  0  0  0  0  0  0
    2.2990   -1.0720    0.3060 C   0  0  0  0  0  0  0  0  0  0  0  0
    1.5050   -0.0690    0.0620 C   0  0  0  0  0  0  0  0  0  0  0  0
    0.0650   -0.2080   -0.0870 C   0  0  0  0  0  0  0  0  0  0  0  0
   -0.1080   -1.4690   -0.4140 C   0  0  0  0  0  0  0  0  0  0  0  0
   -1.4370   -2.0640   -0.6600 C   0  0  0  0  0  0  0  0  0  0  0  0
   -2.6180   -1.6560   -0.2520 C   0  0  0  0  0  0  0  0  0  0  0  0
   -3.0070   -0.4950    0.5700 C   0  0  0  0  0  0  0  0  0  0  0  0
   -2.2270    0.7280    0.3180 C   0  0  0  0  0  0  0  0  0  0  0  0
   -0.9500    0.8650    0.0520 C   0  0  0  0  0  0  0  0  0  0  0  0
  1  2  2  0
  2  3  1  0
  2 16  1  0
  3  4  1  0
  4  5  2  0
  5  6  1  0
  5  9  1  0
  6  7  1  0
  7  8  1  0
  8  9  2  0
  9 10  1  0
 10 11  2  0
 10 16  1  0
 11 12  1  0
 12 13  2  0
 13 14  1  0
 14 15  1  0
 15 16  2  0
M  END
