
     RDKit          3D

 16 17  0  0  0  0  0  0  0  0999 V2000
    4.3410    0.2720    1.5010 C   0  0  0  0  0  0  0  0  0  0  0  0
    3.0140    0.2810    1.3880 C   0  0  0  0  0  0  0  0  0  0  0  0
    2.4210   -0.0360    0.1040 C   0  0  0  0  0  0  0  0  0  0  0  0
    1.1300   -0.0410   -0.0600 C   0  0  0  0  0  0  0  0  0  0  0  0
    0.1860    0.2630    1.0040 C   0  0  0  0  0  0  0  0  0  0  0  0
   -1.1350    0.2370    0.7580 C   0  0  0  0  0  0  0  0  0  0  0  0
   -2.0560    0.5480    1.8490 C   0  0  0  0  0  0  0  0  0  0  0  0
   -1.6120    0.8310    2.9890 O   0  0  0  0  0  0  0  0  0  0  0  0
   -3.4470    0.5250    1.6050 N   0  0  0  0  0  0  0  0  0  0  0  0
   -3.9160    0.2020    0.3100 C   0  0  0  0  0  0  0  0  0  0  0  0
   -5.2030    0.1850    0.1040 O   0  0  0  0  0  0  0  0  0  0  0  0
   -3.0330   -0.1160   -0.8110 C   0  0  0  0  0  0  0  0  0  0  0  0
   -1.6240   -0.0830   -0.5280 N   0  0  0  0  0  0  0  0  0  0  0  0
   -0.6890   -0.3860   -1.5890 C   0  0  0  0  0  0  0  0  0  0  0  0
    0.6030   -0.3730   -1.3970 C   0  0  0  0  0  0  0  0  0  0  0  0
    1.5750   -0.6880   -2.4960 C   0  0  0  0  0  0  0  0  0  0  0  0
  1  2  2  0
  2  3  1  0
  3  4  2  3
  4  5  1  0
  4 15  1  0
  5  6  2  0
  6  7  1  0
  6 13  1  0
  7  8  2  0
  7  9  1  0
  9 10  1  0
 10 11  2  0
 10 12  1  0
 12 13  1  0
 13 14  1  0
 14 15  2  0
 15 16  1  0
M  END
