
     RDKit          3D

 18 17  0  0  0  0  0  0  0  0999 V2000
   -2.4290   -1.5770    1.1010 C   0  0  0  0  0  0  0  0  0  0  0  0
   -3.1120   -0.8440    0.1910 C   0  0  0  0  0  0  0  0  0  0  0  0
   -4.5840   -0.8430    0.3010 C   0  0  0  0  0  0  0  0  0  0  0  0
   -2.3760   -0.1010   -0.7970 C   0  0  0  0  0  0  0  0  0  0  0  0
   -2.8690    0.6250   -1.7430 C   0  0  0  0  0  0  0  0  0  0  0  0
   -4.2680    0.8830   -2.0610 C   0  0  0  0  0  0  0  0  0  0  0  0
   -0.9160   -0.1740   -0.7190 N   0  0  0  0  0  0  0  0  0  0  0  0
   -0.1940    0.3800    0.3600 C   0  0  0  0  0  0  0  0  0  0  0  0
   -0.8340    0.9550    1.2650 O   0  0  0  0  0  0  0  0  0  0  0  0
    1.2770    0.3210    0.4850 C   0  0  2  0  0  0  0  0  0  0  0  0
    1.6300    0.9640    1.6650 O   0  0  0  0  0  0  0  0  0  0  0  0
    1.9630    1.0520   -0.6410 C   0  0  0  0  0  0  0  0  0  0  0  0
    1.5700    2.5130   -0.7070 C   0  0  0  0  0  0  0  0  0  0  0  0
    2.3300    3.1120   -1.8740 C   0  0  0  0  0  0  0  0  0  0  0  0
    1.8230   -1.0610    0.5270 C   0  0  0  0  0  0  0  0  0  0  0  0
    3.3150   -1.1060    0.6560 C   0  0  0  0  0  0  0  0  0  0  0  0
    3.8380   -2.3960    0.7250 O   0  0  0  0  0  0  0  0  0  0  0  0
    3.4100   -3.1520    1.7790 C   0  0  0  0  0  0  0  0  0  0  0  0
  1  2  2  0
  2  3  1  0
  2  4  1  0
  4  5  2  3
  4  7  1  0
  5  6  1  0
  7  8  1  0
  8  9  2  0
  8 10  1  0
 10 11  1  1
 10 12  1  0
 10 15  1  0
 12 13  1  0
 13 14  1  0
 15 16  1  0
 16 17  1  0
 17 18  1  0
M  END
