
     RDKit          3D

 18 18  0  0  0  0  0  0  0  0999 V2000
    5.4070   -1.3920   -0.2160 C   0  0  0  0  0  0  0  0  0  0  0  0
    4.8390   -1.5230    1.1740 C   0  0  0  0  0  0  0  0  0  0  0  0
    4.3220   -0.2440    1.5440 O   0  0  0  0  0  0  0  0  0  0  0  0
    3.3230    0.3250    0.7850 C   0  0  0  0  0  0  0  0  0  0  0  0
    3.6080    1.2380   -0.1000 C   0  0  0  0  0  0  0  0  0  0  0  0
    2.6240    1.9040   -0.9550 C   0  0  0  0  0  0  0  0  0  0  0  0
    1.2340    1.4630   -0.7490 C   0  0  0  0  0  0  0  0  0  0  0  0
    0.9720    0.4330    0.2600 C   0  0  0  0  0  0  0  0  0  0  0  0
   -0.3890   -0.0260    0.4900 C   0  0  0  0  0  0  0  0  0  0  0  0
   -0.6390   -0.9100    1.3520 O   0  0  0  0  0  0  0  0  0  0  0  0
   -1.5050    0.4820   -0.2270 N   0  0  0  0  0  0  0  0  0  0  0  0
   -2.8510    0.0620   -0.0320 C   0  0  1  0  0  0  0  0  0  0  0  0
   -3.2480    0.3510    1.3970 C   0  0  0  0  0  0  0  0  0  0  0  0
   -3.7810    0.7780   -0.9960 C   0  0  0  0  0  0  0  0  0  0  0  0
   -5.2050    0.3510   -0.8090 C   0  0  0  0  0  0  0  0  0  0  0  0
   -3.0650   -1.4180   -0.2540 C   0  0  0  0  0  0  0  0  0  0  0  0
   -2.7310   -1.8110   -1.5510 O   0  0  0  0  0  0  0  0  0  0  0  0
    1.9410   -0.0910    0.9680 C   0  0  0  0  0  0  0  0  0  0  0  0
  1  2  1  0
  2  3  1  0
  3  4  1  0
  4  5  2  0
  4 18  1  0
  5  6  1  0
  6  7  1  0
  7  8  1  0
  8  9  1  0
  8 18  2  0
  9 10  2  0
  9 11  1  0
 11 12  1  0
 12 13  1  1
 12 14  1  0
 12 16  1  0
 14 15  1  0
 16 17  1  0
M  END
