
     RDKit          3D

 18 17  0  0  0  0  0  0  0  0999 V2000
   -1.8160   -2.3870    2.2900 C   0  0  0  0  0  0  0  0  0  0  0  0
   -2.1890   -2.1490    1.0680 C   0  0  0  0  0  0  0  0  0  0  0  0
   -1.7170   -1.1910    0.1150 C   0  0  0  0  0  0  0  0  0  0  0  0
   -2.3380   -1.2480   -1.0950 C   0  0  0  0  0  0  0  0  0  0  0  0
   -3.4170   -2.2380   -1.3510 C   0  0  0  0  0  0  0  0  0  0  0  0
   -0.6510   -0.1860    0.2790 C   0  0  2  0  0  0  0  0  0  0  0  0
   -0.9210    0.6580    1.5000 C   0  0  0  0  0  0  0  0  0  0  0  0
   -2.1640    1.2700    1.4000 O   0  0  0  0  0  0  0  0  0  0  0  0
   -0.6230    0.7660   -0.8840 C   0  0  0  0  0  0  0  0  0  0  0  0
   -1.8000    1.6270   -1.1100 C   0  0  0  0  0  0  0  0  0  0  0  0
   -1.6480    2.4520   -2.4090 C   0  0  0  0  0  0  0  0  0  0  0  0
    0.6350   -0.9590    0.3800 C   0  0  0  0  0  0  0  0  0  0  0  0
    1.7970   -0.1710    0.5460 N   0  0  0  0  0  0  0  0  0  0  0  0
    3.0530   -0.8470    0.6490 C   0  0  0  0  0  0  0  0  0  0  0  0
    3.1190   -2.1030    0.5940 O   0  0  0  0  0  0  0  0  0  0  0  0
    4.3330   -0.1160    0.8250 C   0  0  0  0  0  0  0  0  0  0  0  0
    4.0570    1.2500    0.8630 O   0  0  0  0  0  0  0  0  0  0  0  0
    5.2720    1.9060    1.0290 C   0  0  0  0  0  0  0  0  0  0  0  0
  1  2  2  0
  2  3  1  0
  3  4  2  3
  3  6  1  0
  4  5  1  0
  6  7  1  1
  6  9  1  0
  6 12  1  0
  7  8  1  0
  9 10  1  0
 10 11  1  0
 12 13  1  0
 13 14  1  0
 14 15  2  0
 14 16  1  0
 16 17  1  0
 17 18  1  0
M  END
