
     RDKit          3D

 18 17  0  0  0  0  0  0  0  0999 V2000
    4.4310    0.7890   -0.2400 C   0  0  0  0  0  0  0  0  0  0  0  0
    3.8120   -0.2270    0.7010 C   0  0  2  0  0  0  0  0  0  0  0  0
    4.8550   -0.8600    1.4010 O   0  0  0  0  0  0  0  0  0  0  0  0
    3.1390   -1.2720   -0.1140 C   0  0  0  0  0  0  0  0  0  0  0  0
    2.0380   -0.7230   -1.0170 C   0  0  0  0  0  0  0  0  0  0  0  0
    0.9930   -0.0700   -0.1490 C   0  0  0  0  0  0  0  0  0  0  0  0
   -0.1080    0.4580   -1.0320 C   0  0  1  0  0  0  0  0  0  0  0  0
    0.6900    1.4780   -1.9680 C   0  0  0  0  0  0  0  0  0  0  0  0
   -0.5690   -0.5680   -2.0020 C   0  0  0  0  0  0  0  0  0  0  0  0
   -1.0940    1.3050   -0.3830 C   0  0  0  0  0  0  0  0  0  0  0  0
   -1.9340    0.9930    0.7450 C   0  0  0  0  0  0  0  0  0  0  0  0
   -2.9130   -0.1200    0.7080 C   0  0  2  0  0  0  0  0  0  0  0  0
   -3.8680    0.0010   -0.3770 C   0  0  0  0  0  0  0  0  0  0  0  0
   -4.6470    0.0860   -1.2350 N   0  0  0  0  0  0  0  0  0  0  0  0
   -3.8350    0.0700    2.0090 C   0  0  0  0  0  0  0  0  0  0  0  0
   -4.4100    1.3050    1.8550 O   0  0  0  0  0  0  0  0  0  0  0  0
   -2.3480   -1.4690    0.9410 C   0  0  0  0  0  0  0  0  0  0  0  0
   -3.3510   -2.4550    0.8840 O   0  0  0  0  0  0  0  0  0  0  0  0
  2  1  1  6
  2  3  1  0
  2  4  1  0
  4  5  1  0
  5  6  1  0
  6  7  1  0
  7  8  1  6
  7  9  1  0
  7 10  1  0
 10 11  1  0
 12 11  1  6
 12 13  1  0
 12 15  1  0
 12 17  1  0
 13 14  3  0
 15 16  1  0
 17 18  1  0
M  END
