
     RDKit          3D

 18 17  0  0  0  0  0  0  0  0999 V2000
    3.4800   -2.5000    1.6610 C   0  0  0  0  0  0  0  0  0  0  0  0
    4.2130   -1.7780    0.8720 C   0  0  0  0  0  0  0  0  0  0  0  0
    3.6810   -0.6130    0.0610 C   0  0  0  0  0  0  0  0  0  0  0  0
    4.5860   -0.0310   -0.6540 C   0  0  0  0  0  0  0  0  0  0  0  0
    4.6210    1.0660   -1.5590 C   0  0  0  0  0  0  0  0  0  0  0  0
    3.6420    1.7590   -1.8640 O   0  0  0  0  0  0  0  0  0  0  0  0
    2.2670   -0.4150    0.2620 C   0  0  2  0  0  0  0  0  0  0  0  0
    1.6400   -1.6370   -0.1610 O   0  0  0  0  0  0  0  0  0  0  0  0
    1.5040    0.6550   -0.3870 C   0  0  0  0  0  0  0  0  0  0  0  0
    0.1030    0.5190    0.1120 N   0  0  0  0  0  0  0  0  0  0  0  0
   -0.9190    1.3880   -0.3030 C   0  0  0  0  0  0  0  0  0  0  0  0
   -0.5640    2.2930   -1.1270 O   0  0  0  0  0  0  0  0  0  0  0  0
   -2.3130    1.3290    0.1260 C   0  0  1  0  0  0  0  0  0  0  0  0
   -2.4720    1.2850    1.6330 C   0  0  0  0  0  0  0  0  0  0  0  0
   -2.9810    2.6570   -0.2980 C   0  0  0  0  0  0  0  0  0  0  0  0
   -3.1400    0.2420   -0.4650 C   0  0  0  0  0  0  0  0  0  0  0  0
   -2.6760   -1.1470   -0.2070 C   0  0  0  0  0  0  0  0  0  0  0  0
   -3.6880   -2.0720   -0.9000 C   0  0  0  0  0  0  0  0  0  0  0  0
  1  2  2  0
  2  3  1  0
  3  4  2  3
  3  7  1  0
  4  5  1  0
  5  6  2  0
  7  8  1  6
  7  9  1  0
  9 10  1  0
 10 11  1  0
 11 12  2  0
 11 13  1  0
 13 14  1  1
 13 15  1  0
 13 16  1  0
 16 17  1  0
 17 18  1  0
M  END
