
     RDKit          3D

 18 18  0  0  0  0  0  0  0  0999 V2000
   -3.8460    0.2170    0.9510 C   0  0  0  0  0  0  0  0  0  0  0  0
   -4.1560    0.2350   -0.3500 C   0  0  0  0  0  0  0  0  0  0  0  0
   -5.3290    1.0370   -0.7610 C   0  0  0  0  0  0  0  0  0  0  0  0
   -3.3240   -0.5070   -1.2660 C   0  0  0  0  0  0  0  0  0  0  0  0
   -3.4320   -0.6490   -2.5470 C   0  0  0  0  0  0  0  0  0  0  0  0
   -4.4570   -0.0740   -3.4020 C   0  0  0  0  0  0  0  0  0  0  0  0
   -2.1290   -1.2460   -0.6750 C   0  0  0  0  0  0  0  0  0  0  0  0
   -1.2480   -0.3650   -0.0530 O   0  0  0  0  0  0  0  0  0  0  0  0
   -0.2160   -1.1380    0.4630 C   0  0  0  0  0  0  0  0  0  0  0  0
    0.8010   -0.2930    1.1570 C   0  0  0  0  0  0  0  0  0  0  0  0
    0.6990    0.9510    1.2100 O   0  0  0  0  0  0  0  0  0  0  0  0
    1.9190   -0.9080    1.7760 N   0  0  0  0  0  0  0  0  0  0  0  0
    2.9720   -0.2190    2.4720 C   0  0  0  0  0  0  0  0  0  0  0  0
    3.6810    0.7270    1.5020 C   0  0  2  0  0  0  0  0  0  0  0  0
    4.2500   -0.0420    0.3420 C   0  0  0  0  0  0  0  0  0  0  0  0
    5.6970    0.4190    0.3190 C   0  0  0  0  0  0  0  0  0  0  0  0
    5.5820    1.7040    1.1260 C   0  0  0  0  0  0  0  0  0  0  0  0
    4.6980    1.4010    2.1380 O   0  0  0  0  0  0  0  0  0  0  0  0
  1  2  2  0
  2  3  1  0
  2  4  1  0
  4  5  2  3
  4  7  1  0
  5  6  1  0
  7  8  1  0
  8  9  1  0
  9 10  1  0
 10 11  2  0
 10 12  1  0
 12 13  1  0
 14 13  1  1
 14 15  1  0
 14 18  1  0
 15 16  1  0
 16 17  1  0
 17 18  1  0
M  END
