
     RDKit          3D

 18 18  0  0  0  0  0  0  0  0999 V2000
   -2.2370   -3.8340    0.8980 C   0  0  0  0  0  0  0  0  0  0  0  0
   -1.3480   -2.9840   -0.0240 C   0  0  1  0  0  0  0  0  0  0  0  0
   -2.2760   -2.3660   -1.0350 C   0  0  0  0  0  0  0  0  0  0  0  0
   -0.6670   -1.9660    0.7890 C   0  0  0  0  0  0  0  0  0  0  0  0
    0.2540   -1.0110    0.1320 C   0  0  2  0  0  0  0  0  0  0  0  0
    1.4110   -1.6020   -0.5920 C   0  0  0  0  0  0  0  0  0  0  0  0
    0.9040   -0.2110    1.2950 C   0  0  0  0  0  0  0  0  0  0  0  0
    1.8580    0.7160    0.7660 N   0  0  0  0  0  0  0  0  0  0  0  0
    2.6030    1.5790    1.6250 C   0  0  0  0  0  0  0  0  0  0  0  0
    2.3750    1.4790    2.8510 O   0  0  0  0  0  0  0  0  0  0  0  0
    3.5920    2.5470    1.1350 C   0  0  1  0  0  0  0  0  0  0  0  0
    4.5080    1.9710    0.0300 C   0  0  0  0  0  0  0  0  0  0  0  0
    3.5390    3.0670   -0.2550 C   0  0  0  0  0  0  0  0  0  0  0  0
   -0.3780   -0.1600   -0.7330 O   0  0  0  0  0  0  0  0  0  0  0  0
   -1.3130    0.6830   -0.2230 C   0  0  0  0  0  0  0  0  0  0  0  0
   -1.8600    1.5080   -1.3970 C   0  0  0  0  0  0  0  0  0  0  0  0
   -2.9140    2.4790   -0.9170 C   0  0  0  0  0  0  0  0  0  0  0  0
   -3.3540    3.1830   -2.0370 O   0  0  0  0  0  0  0  0  0  0  0  0
  2  1  1  1
  2  3  1  0
  2  4  1  0
  4  5  1  0
  5  6  1  6
  5  7  1  0
  5 14  1  0
  7  8  1  0
  8  9  1  0
  9 10  2  0
 11  9  1  6
 11 12  1  0
 11 13  1  0
 12 13  1  0
 14 15  1  0
 15 16  1  0
 16 17  1  0
 17 18  1  0
M  END
