
     RDKit          3D

 20 20  0  0  0  0  0  0  0  0999 V2000
    5.9460    1.5410    1.2990 C   0  0  0  0  0  0  0  0  0  0  0  0
    5.2200    0.1660    2.1920 S   0  0  0  0  0  0  0  0  0  0  0  0
    3.8530   -0.5320    1.2780 C   0  0  0  0  0  0  0  0  0  0  0  0
    3.1980   -1.5080    1.7200 O   0  0  0  0  0  0  0  0  0  0  0  0
    3.4870   -0.0090    0.0560 O   0  0  0  0  0  0  0  0  0  0  0  0
    2.4370   -0.5300   -0.6690 C   0  0  0  0  0  0  0  0  0  0  0  0
    2.4730   -1.5310   -1.6080 C   0  0  0  0  0  0  0  0  0  0  0  0
    1.1530   -1.6770   -2.0370 C   0  0  0  0  0  0  0  0  0  0  0  0
    0.3880   -0.8110   -1.3860 O   0  0  0  0  0  0  0  0  0  0  0  0
    1.1320   -0.1080   -0.5570 C   0  0  0  0  0  0  0  0  0  0  0  0
    0.6640    0.9670    0.3580 C   0  0  0  0  0  0  0  0  0  0  0  0
   -0.6760    1.2110    0.2940 O   0  0  0  0  0  0  0  0  0  0  0  0
   -1.5030    0.1680    0.6000 C   0  0  1  0  0  0  0  0  0  0  0  0
   -2.6370    0.5000    2.0120 P   0  0  0  0  0  0  0  0  0  0  0  0
   -3.0320   -0.9250    2.8990 O   0  0  0  0  0  0  0  0  0  0  0  0
   -3.9970    1.4400    1.5920 O   0  0  0  0  0  0  0  0  0  0  0  0
   -2.4990   -0.3130   -0.8930 P   0  0  0  0  0  0  0  0  0  0  0  0
   -2.7330    1.1360   -2.0460 C   0  0  0  0  0  0  0  0  0  0  0  0
   -4.1970   -0.8620   -0.3570 C   0  0  0  0  0  0  0  0  0  0  0  0
   -4.5240   -2.0490   -1.0520 O   0  0  0  0  0  0  0  0  0  0  0  0
  1  2  1  0
  2  3  1  0
  3  4  2  0
  3  5  1  0
  5  6  1  0
  6  7  1  0
  6 10  2  0
  7  8  2  0
  8  9  1  0
  9 10  1  0
 10 11  1  0
 11 12  1  0
 13 12  1  6
 13 14  1  0
 13 17  1  0
 14 15  1  0
 14 16  1  0
 17 18  1  0
 17 19  1  0
 19 20  1  0
M  END
