
     RDKit          3D

 13 13  0  0  0  0  0  0  0  0999 V2000
    1.4900    0.8900    1.7490 O   0  0  0  0  0  0  0  0  0  0  0  0
    1.1680    0.3110    0.7200 C   0  0  0  0  0  0  0  0  0  0  0  0
    2.1160    0.3510   -0.3460 O   0  0  0  0  0  0  0  0  0  0  0  0
    3.2920    1.0800   -0.1940 C   0  0  0  0  0  0  0  0  0  0  0  0
    4.1840    0.7100    0.7930 O   0  0  0  0  0  0  0  0  0  0  0  0
   -0.1140   -0.3890    0.4800 C   0  0  2  0  0  0  0  0  0  0  0  0
    0.0590   -1.8840    0.1040 C   0  0  0  0  0  0  0  0  0  0  0  0
   -1.2730   -2.1140   -0.3780 O   0  0  0  0  0  0  0  0  0  0  0  0
   -1.7520   -0.9490   -0.7740 C   0  0  1  0  0  0  0  0  0  0  0  0
   -2.9250   -0.3230   -0.0270 C   0  0  0  0  0  0  0  0  0  0  0  0
   -2.4680    0.9550    0.4040 O   0  0  0  0  0  0  0  0  0  0  0  0
   -3.3070    1.8470   -0.1550 O   0  0  0  0  0  0  0  0  0  0  0  0
   -0.7080   -0.0030   -0.7500 O   0  0  0  0  0  0  0  0  0  0  0  0
  1  2  2  0
  2  3  1  0
  6  2  1  6
  3  4  1  0
  4  5  1  0
  6  7  1  0
  6 13  1  0
  7  8  1  0
  8  9  1  0
  9 10  1  1
  9 13  1  0
 10 11  1  0
 11 12  1  0
M  END
