
     RDKit          3D

 20 21  0  0  0  0  0  0  0  0999 V2000
    5.6010    1.7630   -2.1010 O   0  0  0  0  0  0  0  0  0  0  0  0
    4.6010    1.2230   -1.5500 C   0  0  0  0  0  0  0  0  0  0  0  0
    3.4200    1.8990   -1.3080 C   0  0  0  0  0  0  0  0  0  0  0  0
    2.3590    1.2490   -0.6990 C   0  0  0  0  0  0  0  0  0  0  0  0
    2.4300   -0.0460   -0.3240 N   0  0  0  0  0  0  0  0  0  0  0  0
    1.3480   -0.6990    0.2930 C   0  0  1  0  0  0  0  0  0  0  0  0
    0.9680   -0.0940    1.6520 C   0  0  0  0  0  0  0  0  0  0  0  0
   -0.2260   -0.9940    1.9190 C   0  0  2  0  0  0  0  0  0  0  0  0
    0.3010   -2.2180    2.3550 O   0  0  0  0  0  0  0  0  0  0  0  0
   -0.7810   -1.1680    0.5300 C   0  0  1  0  0  0  0  0  0  0  0  0
   -2.1010   -0.4320    0.4770 C   0  0  0  0  0  0  0  0  0  0  0  0
   -2.6450   -0.4890   -0.7870 O   0  0  0  0  0  0  0  0  0  0  0  0
   -4.1460    0.3910   -0.7030 P   0  0  0  0  0  0  0  0  0  0  0  0
   -4.3470    1.3340   -2.1080 O   0  0  0  0  0  0  0  0  0  0  0  0
   -5.4420   -0.7420   -0.5220 O   0  0  0  0  0  0  0  0  0  0  0  0
   -4.0990    1.4000    0.6980 O   0  0  0  0  0  0  0  0  0  0  0  0
    0.1330   -0.6150   -0.3550 O   0  0  0  0  0  0  0  0  0  0  0  0
    3.5960   -0.6780   -0.5750 C   0  0  0  0  0  0  0  0  0  0  0  0
    3.6750   -1.8990   -0.2250 O   0  0  0  0  0  0  0  0  0  0  0  0
    4.6440   -0.0670   -1.1660 N   0  0  0  0  0  0  0  0  0  0  0  0
  1  2  2  0
  2  3  1  0
  2 20  1  0
  3  4  2  0
  4  5  1  0
  6  5  1  6
  5 18  1  0
  6  7  1  0
  6 17  1  0
  7  8  1  0
  8  9  1  6
  8 10  1  0
 10 11  1  1
 10 17  1  0
 11 12  1  0
 12 13  1  0
 13 14  1  0
 13 15  1  0
 13 16  1  0
 18 19  2  0
 18 20  1  0
M  END
