
     RDKit          3D

 13 13  0  0  0  0  0  0  0  0999 V2000
    3.6060    0.0410   -1.1710 O   0  0  0  0  0  0  0  0  0  0  0  0
    3.7310   -0.4280   -0.0070 C   0  0  0  0  0  0  0  0  0  0  0  0
    2.5940   -0.5440    0.7780 O   0  0  0  0  0  0  0  0  0  0  0  0
    1.3650   -0.1480    0.2720 C   0  0  1  0  0  0  0  0  0  0  0  0
    0.4390   -1.2130    0.2080 O   0  0  0  0  0  0  0  0  0  0  0  0
   -0.5330   -0.9940   -0.7330 C   0  0  0  0  0  0  0  0  0  0  0  0
   -1.6670   -0.1360   -0.2580 C   0  0  1  0  0  0  0  0  0  0  0  0
   -2.0990   -0.5130    0.9860 O   0  0  0  0  0  0  0  0  0  0  0  0
   -3.3300   -0.9320    0.9710 O   0  0  0  0  0  0  0  0  0  0  0  0
   -1.3330    1.3380   -0.3280 C   0  0  0  0  0  0  0  0  0  0  0  0
   -0.4260    1.6170    0.7400 O   0  0  0  0  0  0  0  0  0  0  0  0
    0.7050    0.9050    1.0790 C   0  0  0  0  0  0  0  0  0  0  0  0
    1.2710    1.1360    2.1720 O   0  0  0  0  0  0  0  0  0  0  0  0
  1  2  2  0
  2  3  1  0
  4  3  1  1
  4  5  1  0
  4 12  1  0
  5  6  1  0
  6  7  1  0
  7  8  1  1
  7 10  1  0
  8  9  1  0
 10 11  1  0
 11 12  1  0
 12 13  2  0
M  END
