
     RDKit          3D

 13 13  0  0  0  0  0  0  0  0999 V2000
   -1.5470   -2.3750    1.5070 O   0  0  0  0  0  0  0  0  0  0  0  0
   -2.0500   -1.3390    1.0410 C   0  0  0  0  0  0  0  0  0  0  0  0
   -3.3970   -1.0170    1.0970 O   0  0  0  0  0  0  0  0  0  0  0  0
   -3.6110    0.2650    0.5200 C   0  0  0  0  0  0  0  0  0  0  0  0
   -2.5110    0.2730   -0.5500 C   0  0  0  0  0  0  0  0  0  0  0  0
   -1.3630   -0.2310    0.3350 C   0  0  2  0  0  0  0  0  0  0  0  0
   -0.2700   -0.6130   -0.3840 O   0  0  0  0  0  0  0  0  0  0  0  0
    0.8030    0.1740    0.0320 C   0  0  0  0  0  0  0  0  0  0  0  0
    2.0750   -0.1470   -0.6860 C   0  0  1  0  0  0  0  0  0  0  0  0
    1.8630    0.0730   -2.0490 O   0  0  0  0  0  0  0  0  0  0  0  0
    3.0850    0.6460   -0.1870 O   0  0  0  0  0  0  0  0  0  0  0  0
    4.0330   -0.0450    0.3800 O   0  0  0  0  0  0  0  0  0  0  0  0
    5.2140    0.4720    0.1270 O   0  0  0  0  0  0  0  0  0  0  0  0
  1  2  2  0
  2  3  1  0
  2  6  1  0
  3  4  1  0
  4  5  1  0
  5  6  1  0
  6  7  1  6
  7  8  1  0
  8  9  1  0
  9 10  1  6
  9 11  1  0
 11 12  1  0
 12 13  1  0
M  END
