
     RDKit          3D

 13 13  0  0  0  0  0  0  0  0999 V2000
   -3.7510    0.5370    1.9730 O   0  0  0  0  0  0  0  0  0  0  0  0
   -3.2590    0.1750    0.8490 C   0  0  0  0  0  0  0  0  0  0  0  0
   -1.9600   -0.5470    0.7800 C   0  0  0  0  0  0  0  0  0  0  0  0
   -1.0760   -0.0240   -0.3240 C   0  0  2  0  0  0  0  0  0  0  0  0
    0.1580    0.3840    0.1580 O   0  0  0  0  0  0  0  0  0  0  0  0
    1.1770   -0.3490   -0.3900 C   0  0  0  0  0  0  0  0  0  0  0  0
    2.5190    0.1270    0.1630 C   0  0  0  0  0  0  0  0  0  0  0  0
    3.5630   -0.6370   -0.4090 O   0  0  0  0  0  0  0  0  0  0  0  0
    4.7170   -0.2550    0.0410 O   0  0  0  0  0  0  0  0  0  0  0  0
   -1.7480    1.0410   -1.1150 C   0  0  0  0  0  0  0  0  0  0  0  0
   -1.0930    2.0600   -1.5300 O   0  0  0  0  0  0  0  0  0  0  0  0
   -3.1020    0.8780   -1.3770 O   0  0  0  0  0  0  0  0  0  0  0  0
   -3.8950    0.4280   -0.3590 O   0  0  0  0  0  0  0  0  0  0  0  0
  1  2  2  0
  2  3  1  0
  2 13  1  0
  3  4  1  0
  4  5  1  1
  4 10  1  0
  5  6  1  0
  6  7  1  0
  7  8  1  0
  8  9  1  0
 10 11  2  0
 10 12  1  0
 12 13  1  0
M  END
