
     RDKit          3D

 13 13  0  0  0  0  0  0  0  0999 V2000
   -2.4530    2.0790   -1.3480 O   0  0  0  0  0  0  0  0  0  0  0  0
   -1.9310    1.6750   -0.3830 C   0  0  0  0  0  0  0  0  0  0  0  0
   -1.1410    2.2760    0.6280 O   0  0  0  0  0  0  0  0  0  0  0  0
   -0.4870    1.3330    1.4560 C   0  0  0  0  0  0  0  0  0  0  0  0
   -0.4210    0.1760    0.5820 C   0  0  2  0  0  0  0  0  0  0  0  0
    0.3510    0.3850   -0.5240 O   0  0  0  0  0  0  0  0  0  0  0  0
    1.0300   -0.5520   -1.1200 C   0  0  0  0  0  0  0  0  0  0  0  0
    2.0760   -1.2550   -0.1740 C   0  0  0  0  0  0  0  0  0  0  0  0
    2.7730   -0.1530    0.3410 O   0  0  0  0  0  0  0  0  0  0  0  0
    4.0550   -0.1320    0.1070 O   0  0  0  0  0  0  0  0  0  0  0  0
   -1.9350    0.2090    0.0660 C   0  0  2  0  0  0  0  0  0  0  0  0
   -2.1550   -0.6470   -0.9520 O   0  0  0  0  0  0  0  0  0  0  0  0
   -3.3680   -1.1300   -0.7040 O   0  0  0  0  0  0  0  0  0  0  0  0
  1  2  2  0
  2  3  1  0
  2 11  1  0
  3  4  1  0
  4  5  1  0
  5  6  1  6
  5 11  1  0
  6  7  1  0
  7  8  1  0
  8  9  1  0
  9 10  1  0
 11 12  1  6
 12 13  1  0
M  END
