
     RDKit          3D

 13 13  0  0  0  0  0  0  0  0999 V2000
    0.1810    0.0180   -1.4260 O   0  0  0  0  0  0  0  0  0  0  0  0
   -0.2750   -0.0890   -0.2630 C   0  0  0  0  0  0  0  0  0  0  0  0
    0.3580   -0.8510    0.6590 O   0  0  0  0  0  0  0  0  0  0  0  0
    1.5350   -1.5720    0.4600 C   0  0  0  0  0  0  0  0  0  0  0  0
    2.7550   -0.7790    0.1340 C   0  0  0  0  0  0  0  0  0  0  0  0
    2.6910   -0.0190   -1.0160 O   0  0  0  0  0  0  0  0  0  0  0  0
    3.8280    0.6210   -1.1750 O   0  0  0  0  0  0  0  0  0  0  0  0
    4.0840    1.3860   -0.1430 O   0  0  0  0  0  0  0  0  0  0  0  0
   -1.5290    0.6720   -0.0100 C   0  0  2  0  0  0  0  0  0  0  0  0
   -2.6730   -0.2200    0.3930 C   0  0  0  0  0  0  0  0  0  0  0  0
   -3.8190    0.6410   -0.1630 C   0  0  0  0  0  0  0  0  0  0  0  0
   -3.2140    1.1040   -1.3250 O   0  0  0  0  0  0  0  0  0  0  0  0
   -1.9860    1.3700   -1.0860 O   0  0  0  0  0  0  0  0  0  0  0  0
  1  2  2  0
  2  3  1  0
  9  2  1  6
  3  4  1  0
  4  5  1  0
  5  6  1  0
  6  7  1  0
  7  8  1  0
  9 10  1  0
  9 13  1  0
 10 11  1  0
 11 12  1  0
 12 13  1  0
M  END
