
     RDKit          3D

 13 13  0  0  0  0  0  0  0  0999 V2000
   -3.1100   -1.3980   -0.7800 O   0  0  0  0  0  0  0  0  0  0  0  0
   -1.9870   -1.1030   -0.2970 C   0  0  0  0  0  0  0  0  0  0  0  0
   -0.9360   -2.0140   -0.2860 O   0  0  0  0  0  0  0  0  0  0  0  0
    0.1840   -1.7500    0.5270 C   0  0  0  0  0  0  0  0  0  0  0  0
    0.5310   -0.3040    0.6330 C   0  0  1  0  0  0  0  0  0  0  0  0
    1.8870   -0.0450    0.0040 C   0  0  0  0  0  0  0  0  0  0  0  0
    2.8760   -0.8480    0.5680 O   0  0  0  0  0  0  0  0  0  0  0  0
    4.0030   -0.5340   -0.0560 O   0  0  0  0  0  0  0  0  0  0  0  0
    4.5500    0.5370    0.4290 O   0  0  0  0  0  0  0  0  0  0  0  0
   -0.3740    0.5410    0.0030 O   0  0  0  0  0  0  0  0  0  0  0  0
   -1.6960    0.2410    0.3020 C   0  0  1  0  0  0  0  0  0  0  0  0
   -2.5830    1.2300   -0.3840 C   0  0  0  0  0  0  0  0  0  0  0  0
   -2.3400    2.5410    0.0100 O   0  0  0  0  0  0  0  0  0  0  0  0
  1  2  2  0
  2  3  1  0
  2 11  1  0
  3  4  1  0
  4  5  1  0
  5  6  1  6
  5 10  1  0
  6  7  1  0
  7  8  1  0
  8  9  1  0
 10 11  1  0
 11 12  1  6
 12 13  1  0
M  END
