
     RDKit          3D

 13 14  0  0  0  0  0  0  0  0999 V2000
    2.4210    0.2220   -1.1390 O   0  0  0  0  0  0  0  0  0  0  0  0
    2.4840   -0.5180   -0.1330 C   0  0  0  0  0  0  0  0  0  0  0  0
    1.4150   -0.4850    0.7470 O   0  0  0  0  0  0  0  0  0  0  0  0
    0.3360    0.3510    0.4860 C   0  0  2  0  0  0  0  0  0  0  0  0
   -0.5850    0.1710    1.5430 O   0  0  0  0  0  0  0  0  0  0  0  0
   -1.1910   -1.0720    1.2870 C   0  0  0  0  0  0  0  0  0  0  0  0
   -2.1710   -0.8620    0.3550 O   0  0  0  0  0  0  0  0  0  0  0  0
   -1.7440   -0.2300   -0.7960 C   0  0  0  0  0  0  0  0  0  0  0  0
   -0.2930    0.0680   -0.8510 C   0  0  1  0  0  0  0  0  0  0  0  0
    0.0130    1.1840   -1.6030 O   0  0  0  0  0  0  0  0  0  0  0  0
    0.1560    2.2230   -0.8060 O   0  0  0  0  0  0  0  0  0  0  0  0
    0.6880    1.7760    0.3850 C   0  0  0  0  0  0  0  0  0  0  0  0
    1.3340    2.4780    1.1890 O   0  0  0  0  0  0  0  0  0  0  0  0
  1  2  2  0
  2  3  1  0
  4  3  1  1
  4  5  1  0
  4  9  1  0
  4 12  1  0
  5  6  1  0
  6  7  1  0
  7  8  1  0
  9  8  1  1
  9 10  1  0
 10 11  1  0
 11 12  1  0
 12 13  2  0
M  END
