
     RDKit          3D

 13 13  0  0  0  0  0  0  0  0999 V2000
    2.4850   -1.2350    0.7360 O   0  0  0  0  0  0  0  0  0  0  0  0
    1.5970   -0.4410    0.4550 C   0  0  0  0  0  0  0  0  0  0  0  0
    1.8290    0.8280   -0.0480 O   0  0  0  0  0  0  0  0  0  0  0  0
    3.2110    1.2460   -0.2280 C   0  0  0  0  0  0  0  0  0  0  0  0
    3.7520    1.2150    0.9830 O   0  0  0  0  0  0  0  0  0  0  0  0
    0.1600   -0.8800    0.6840 C   0  0  2  0  0  0  0  0  0  0  0  0
   -0.0400   -1.8840   -0.5380 C   0  0  0  0  0  0  0  0  0  0  0  0
   -1.4340   -1.8340   -0.5350 O   0  0  0  0  0  0  0  0  0  0  0  0
   -1.6930   -0.5330   -0.6060 C   0  0  1  0  0  0  0  0  0  0  0  0
   -3.0650   -0.2390    0.1060 C   0  0  0  0  0  0  0  0  0  0  0  0
   -3.4660    0.9440   -0.5200 O   0  0  0  0  0  0  0  0  0  0  0  0
   -2.8850    1.9820   -0.2660 O   0  0  0  0  0  0  0  0  0  0  0  0
   -0.7430    0.1000    0.2710 O   0  0  0  0  0  0  0  0  0  0  0  0
  1  2  2  0
  2  3  1  0
  6  2  1  6
  3  4  1  0
  4  5  1  0
  6  7  1  0
  6 13  1  0
  7  8  1  0
  8  9  1  0
  9 10  1  1
  9 13  1  0
 10 11  1  0
 11 12  1  0
M  END
