
     RDKit          3D

 13 13  0  0  0  0  0  0  0  0999 V2000
   -3.4560    1.8310   -1.6320 O   0  0  0  0  0  0  0  0  0  0  0  0
   -3.1550    0.8850   -0.8890 C   0  0  0  0  0  0  0  0  0  0  0  0
   -1.9660    0.0420   -1.2010 C   0  0  0  0  0  0  0  0  0  0  0  0
   -1.0890    0.0690    0.0530 C   0  0  2  0  0  0  0  0  0  0  0  0
    0.0930   -0.6080   -0.1240 O   0  0  0  0  0  0  0  0  0  0  0  0
    1.2070    0.2090    0.0400 C   0  0  0  0  0  0  0  0  0  0  0  0
    2.4910   -0.5450   -0.1560 C   0  0  0  0  0  0  0  0  0  0  0  0
    3.5880    0.2720    0.0090 O   0  0  0  0  0  0  0  0  0  0  0  0
    4.7200   -0.3420   -0.1520 O   0  0  0  0  0  0  0  0  0  0  0  0
   -1.9190   -0.4720    1.1550 C   0  0  0  0  0  0  0  0  0  0  0  0
   -1.4230   -1.2550    2.0080 O   0  0  0  0  0  0  0  0  0  0  0  0
   -3.2530   -0.1110    1.2470 O   0  0  0  0  0  0  0  0  0  0  0  0
   -3.8810    0.5620    0.2420 O   0  0  0  0  0  0  0  0  0  0  0  0
  1  2  2  0
  2  3  1  0
  2 13  1  0
  3  4  1  0
  4  5  1  6
  4 10  1  0
  5  6  1  0
  6  7  1  0
  7  8  1  0
  8  9  1  0
 10 11  2  0
 10 12  1  0
 12 13  1  0
M  END
