
     RDKit          3D

 20 20  0  0  0  0  0  0  0  0999 V2000
    5.1950    1.1920    2.3990 C   0  0  0  0  0  0  0  0  0  0  0  0
    4.8670   -0.5660    2.2690 S   0  0  0  0  0  0  0  0  0  0  0  0
    3.9960   -0.9010    0.7700 C   0  0  0  0  0  0  0  0  0  0  0  0
    3.6490   -2.0640    0.4470 O   0  0  0  0  0  0  0  0  0  0  0  0
    3.6770    0.1350   -0.0910 O   0  0  0  0  0  0  0  0  0  0  0  0
    2.9920   -0.1460   -1.2650 C   0  0  0  0  0  0  0  0  0  0  0  0
    3.5180   -0.4560   -2.5030 C   0  0  0  0  0  0  0  0  0  0  0  0
    2.4160   -0.6440   -3.3200 C   0  0  0  0  0  0  0  0  0  0  0  0
    1.3250   -0.4560   -2.6080 O   0  0  0  0  0  0  0  0  0  0  0  0
    1.6230   -0.1550   -1.3680 C   0  0  0  0  0  0  0  0  0  0  0  0
    0.6720    0.1290   -0.2630 C   0  0  0  0  0  0  0  0  0  0  0  0
   -0.6250    0.0240   -0.7520 O   0  0  0  0  0  0  0  0  0  0  0  0
   -1.5870    0.2710    0.2030 C   0  0  1  0  0  0  0  0  0  0  0  0
   -2.6060    1.7590   -0.1660 P   0  0  0  0  0  0  0  0  0  0  0  0
   -2.8530    2.0030   -1.8530 O   0  0  0  0  0  0  0  0  0  0  0  0
   -4.1510    1.5790    0.5960 O   0  0  0  0  0  0  0  0  0  0  0  0
   -2.6040   -1.2320    0.5440 P   0  0  0  0  0  0  0  0  0  0  0  0
   -3.2820   -1.1680    2.2580 C   0  0  0  0  0  0  0  0  0  0  0  0
   -3.8930   -1.5410   -0.7210 C   0  0  0  0  0  0  0  0  0  0  0  0
   -5.1800   -1.3340   -0.2570 O   0  0  0  0  0  0  0  0  0  0  0  0
  1  2  1  0
  2  3  1  0
  3  4  2  0
  3  5  1  0
  5  6  1  0
  6  7  1  0
  6 10  2  0
  7  8  2  0
  8  9  1  0
  9 10  1  0
 10 11  1  0
 11 12  1  0
 13 12  1  6
 13 14  1  0
 13 17  1  0
 14 15  1  0
 14 16  1  0
 17 18  1  0
 17 19  1  0
 19 20  1  0
M  END
