
     RDKit          3D

 42 45  0  0  0  0  0  0  0  0999 V2000
    7.6370    0.2290    1.2010 O   0  0  0  0  0  0  0  0  0  0  0  0
    7.4950    1.1430    2.0260 C   0  0  0  0  0  0  0  0  0  0  0  0
    8.6170    1.9220    2.3620 O   0  0  0  0  0  0  0  0  0  0  0  0
    6.3030    1.4200    2.6160 O   0  0  0  0  0  0  0  0  0  0  0  0
    5.1330    0.6970    2.3410 C   0  0  0  0  0  0  0  0  0  0  0  0
    4.7790    0.8310    0.9000 C   0  0  0  0  0  0  0  0  0  0  0  0
    3.5730    0.1070    0.5530 N   0  0  0  0  0  0  0  0  0  0  0  0
    2.2900    0.7270    0.6340 C   0  0  0  0  0  0  0  0  0  0  0  0
    1.3740    0.4130   -0.5080 C   0  0  2  0  0  0  0  0  0  0  0  0
    1.5340   -0.9410   -1.1050 C   0  0  0  0  0  0  0  0  0  0  0  0
    2.4490   -1.8140   -0.4140 N   0  0  0  0  0  0  0  0  0  0  0  0
    2.2330   -3.2400   -0.2350 C   0  0  0  0  0  0  0  0  0  0  0  0
    1.2870   -3.7910   -1.2040 C   0  0  0  0  0  0  0  0  0  0  0  0
    1.2400   -3.3060   -2.3850 O   0  0  0  0  0  0  0  0  0  0  0  0
    0.4500   -4.8110   -0.8840 O   0  0  0  0  0  0  0  0  0  0  0  0
   -0.4010   -4.8380    0.2920 C   0  0  0  0  0  0  0  0  0  0  0  0
   -1.5180   -3.8400    0.1460 C   0  0  0  0  0  0  0  0  0  0  0  0
   -1.4590   -3.4050   -1.1010 N   0  0  0  0  0  0  0  0  0  0  0  0
   -2.2810   -2.5180   -1.5970 O   0  0  0  0  0  0  0  0  0  0  0  0
   -3.2880   -1.9990   -0.7460 C   0  0  0  0  0  0  0  0  0  0  0  0
   -4.0700   -1.1010   -1.3560 N   0  0  0  0  0  0  0  0  0  0  0  0
   -5.1180   -0.4380   -0.7850 C   0  0  0  0  0  0  0  0  0  0  0  0
   -5.2760   -0.8070    0.5080 C   0  0  0  0  0  0  0  0  0  0  0  0
   -4.4710   -1.7560    1.1960 C   0  0  0  0  0  0  0  0  0  0  0  0
   -3.4300   -2.4010    0.5930 C   0  0  0  0  0  0  0  0  0  0  0  0
   -2.4750   -3.3830    1.0460 N   0  0  0  0  0  0  0  0  0  0  0  0
   -5.7870    0.4810   -1.6430 N   0  0  0  0  0  0  0  0  0  0  0  0
   -5.5150    1.9020   -1.5630 C   0  0  0  0  0  0  0  0  0  0  0  0
   -6.1560    2.6920   -2.2950 O   0  0  0  0  0  0  0  0  0  0  0  0
   -4.5110    2.4860   -0.6580 C   0  0  1  0  0  0  0  0  0  0  0  0
   -4.3420    1.7860    0.5270 O   0  0  0  0  0  0  0  0  0  0  0  0
   -4.6180    2.5110    1.5840 O   0  0  0  0  0  0  0  0  0  0  0  0
   -5.7390    3.1850    1.4680 O   0  0  0  0  0  0  0  0  0  0  0  0
   -3.2760    2.6790   -1.3130 O   0  0  0  0  0  0  0  0  0  0  0  0
   -2.5000    3.4730   -0.5900 O   0  0  0  0  0  0  0  0  0  0  0  0
   -1.3500    3.8260   -1.2490 C   0  0  0  0  0  0  0  0  0  0  0  0
   -0.1360    3.1000   -0.6870 C   0  0  0  0  0  0  0  0  0  0  0  0
    0.6110    2.5000   -1.7660 N   0  0  0  0  0  0  0  0  0  0  0  0
    1.5090    1.4100   -1.6100 C   0  0  0  0  0  0  0  0  0  0  0  0
    2.4590    1.2990   -2.4520 O   0  0  0  0  0  0  0  0  0  0  0  0
    3.6390   -1.2450    0.1240 C   0  0  0  0  0  0  0  0  0  0  0  0
    4.7140   -1.9250    0.2130 O   0  0  0  0  0  0  0  0  0  0  0  0
  1  2  2  0
  2  3  1  0
  2  4  1  0
  4  5  1  0
  5  6  1  0
  6  7  1  0
  7  8  1  0
  7 41  1  0
  9  8  1  1
  9 10  1  0
  9 39  1  0
 10 11  1  0
 11 12  1  0
 11 41  1  0
 12 13  1  0
 13 14  2  0
 13 15  1  0
 15 16  1  0
 16 17  1  0
 17 18  2  0
 17 26  1  0
 18 19  1  0
 19 20  1  0
 20 21  2  0
 20 25  1  0
 21 22  1  0
 22 23  2  0
 22 27  1  0
 23 24  1  0
 24 25  2  0
 25 26  1  0
 27 28  1  0
 28 29  2  0
 28 30  1  0
 30 31  1  1
 30 34  1  0
 31 32  1  0
 32 33  1  0
 34 35  1  0
 35 36  1  0
 36 37  1  0
 37 38  1  0
 38 39  1  0
 39 40  2  0
 41 42  2  0
M  END
