
     RDKit          3D

 41 43  0  0  0  0  0  0  0  0999 V2000
    7.5290   -0.7060    2.5830 C   0  0  0  0  0  0  0  0  0  0  0  0
    7.4900    0.2060    1.3510 C   0  0  1  0  0  0  0  0  0  0  0  0
    7.0550   -0.5710    0.2740 O   0  0  0  0  0  0  0  0  0  0  0  0
    6.5200    1.2110    1.6560 O   0  0  0  0  0  0  0  0  0  0  0  0
    6.8200    2.5600    1.6640 C   0  0  0  0  0  0  0  0  0  0  0  0
    7.9850    2.9140    1.3950 O   0  0  0  0  0  0  0  0  0  0  0  0
    5.8040    3.5550    1.9760 C   0  0  0  0  0  0  0  0  0  0  0  0
    4.5860    3.1590    2.2570 C   0  0  0  0  0  0  0  0  0  0  0  0
    4.2730    1.8260    2.2580 O   0  0  0  0  0  0  0  0  0  0  0  0
    3.7960    1.2050    1.0830 C   0  0  0  0  0  0  0  0  0  0  0  0
    3.6610    1.8930    0.0540 O   0  0  0  0  0  0  0  0  0  0  0  0
    3.4750   -0.1740    1.0690 N   0  0  0  0  0  0  0  0  0  0  0  0
    2.9860   -0.7680   -0.1690 C   0  0  0  0  0  0  0  0  0  0  0  0
    1.5430   -0.4300   -0.3850 C   0  0  0  0  0  0  0  0  0  0  0  0
    0.9030    0.7310   -0.2570 N   0  0  0  0  0  0  0  0  0  0  0  0
   -0.4030    0.5220   -0.5520 N   0  0  0  0  0  0  0  0  0  0  0  0
   -0.6090   -0.7540   -0.8700 C   0  0  0  0  0  0  0  0  0  0  0  0
   -1.7860   -1.4790   -1.3340 C   0  0  0  0  0  0  0  0  0  0  0  0
   -1.5740   -2.8250   -1.4750 N   0  0  0  0  0  0  0  0  0  0  0  0
   -2.5040   -3.6770   -1.8870 C   0  0  0  0  0  0  0  0  0  0  0  0
   -2.2230   -5.0510   -2.0090 O   0  0  0  0  0  0  0  0  0  0  0  0
   -0.9130   -5.4920   -1.6760 C   0  0  0  0  0  0  0  0  0  0  0  0
   -0.7330   -5.1340   -0.3270 O   0  0  0  0  0  0  0  0  0  0  0  0
   -3.7420   -3.1810   -2.1880 C   0  0  0  0  0  0  0  0  0  0  0  0
   -4.0480   -1.7900   -2.0700 C   0  0  0  0  0  0  0  0  0  0  0  0
   -3.0210   -0.9480   -1.6360 C   0  0  0  0  0  0  0  0  0  0  0  0
   -3.0510    0.5150   -1.6440 C   0  0  0  0  0  0  0  0  0  0  0  0
   -2.1520    1.0440   -2.4910 O   0  0  0  0  0  0  0  0  0  0  0  0
   -3.8070    1.4650   -0.9650 N   0  0  0  0  0  0  0  0  0  0  0  0
   -3.9510    1.7490    0.4300 C   0  0  0  0  0  0  0  0  0  0  0  0
   -5.2660    1.4100    1.0490 C   0  0  0  0  0  0  0  0  0  0  0  0
   -6.1360    2.4890    0.7470 O   0  0  0  0  0  0  0  0  0  0  0  0
   -6.3950    2.3310   -0.5630 O   0  0  0  0  0  0  0  0  0  0  0  0
   -6.8240    1.1310   -0.6710 O   0  0  0  0  0  0  0  0  0  0  0  0
   -6.8100    0.5350   -1.9090 C   0  0  0  0  0  0  0  0  0  0  0  0
   -6.4870   -0.8950   -1.7410 C   0  0  0  0  0  0  0  0  0  0  0  0
   -5.3570   -1.4460   -2.4080 N   0  0  0  0  0  0  0  0  0  0  0  0
    0.6440   -1.3100   -0.7480 N   0  0  0  0  0  0  0  0  0  0  0  0
    3.5670    4.1410    2.5690 C   0  0  0  0  0  0  0  0  0  0  0  0
    2.3730    3.8060    2.8460 O   0  0  0  0  0  0  0  0  0  0  0  0
    3.8610    5.4900    2.5770 O   0  0  0  0  0  0  0  0  0  0  0  0
  2  1  1  1
  2  3  1  0
  2  4  1  0
  4  5  1  0
  5  6  2  0
  5  7  1  0
  7  8  2  3
  8  9  1  0
  8 39  1  0
  9 10  1  0
 10 11  2  0
 10 12  1  0
 12 13  1  0
 13 14  1  0
 14 15  2  0
 14 38  1  0
 15 16  1  0
 16 17  1  0
 17 18  1  0
 17 38  2  0
 18 19  2  0
 18 26  1  0
 19 20  1  0
 20 21  1  0
 20 24  2  0
 21 22  1  0
 22 23  1  0
 24 25  1  0
 25 26  2  0
 25 37  1  0
 26 27  1  0
 27 28  2  0
 27 29  1  0
 29 30  1  0
 30 31  1  0
 31 32  1  0
 32 33  1  0
 33 34  1  0
 34 35  1  0
 35 36  1  0
 36 37  1  0
 39 40  2  0
 39 41  1  0
M  END
