
     RDKit          3D

 42 46  0  0  0  0  0  0  0  0999 V2000
    9.2090    3.4350    0.6310 N   0  0  0  0  0  0  0  0  0  0  0  0
    7.8820    3.0070    0.6140 C   0  0  0  0  0  0  0  0  0  0  0  0
    6.8480    3.7900    0.9010 N   0  0  0  0  0  0  0  0  0  0  0  0
    5.5660    3.3370    0.8370 C   0  0  0  0  0  0  0  0  0  0  0  0
    5.2640    2.0620    0.4700 N   0  0  0  0  0  0  0  0  0  0  0  0
    6.2980    1.2440    0.1700 C   0  0  0  0  0  0  0  0  0  0  0  0
    7.5900    1.7050    0.2410 C   0  0  0  0  0  0  0  0  0  0  0  0
    8.3700    0.6620   -0.1170 N   0  0  0  0  0  0  0  0  0  0  0  0
    7.5500   -0.3890   -0.3880 C   0  0  0  0  0  0  0  0  0  0  0  0
    6.2820   -0.0750   -0.2280 N   0  0  0  0  0  0  0  0  0  0  0  0
    5.1200   -0.8200   -0.4730 C   0  0  2  0  0  0  0  0  0  0  0  0
    3.9840   -0.2940    0.1830 O   0  0  0  0  0  0  0  0  0  0  0  0
    3.0450   -1.2780    0.0230 C   0  0  2  0  0  0  0  0  0  0  0  0
    2.2600   -1.4050    1.2940 C   0  0  0  0  0  0  0  0  0  0  0  0
    1.7120   -0.1420    1.5560 O   0  0  0  0  0  0  0  0  0  0  0  0
    0.2490    0.2020    1.2700 P   0  0  0  0  0  0  0  0  0  0  0  0
    0.8100    1.4350    0.3090 O   0  0  0  0  0  0  0  0  0  0  0  0
    0.1170   -1.3400    0.5980 O   0  0  0  0  0  0  0  0  0  0  0  0
   -1.1870    0.4100    0.7310 O   0  0  0  0  0  0  0  0  0  0  0  0
   -1.8290   -0.1070   -0.5580 P   0  0  0  0  0  0  0  0  0  0  0  0
   -2.5550    1.2440   -1.0230 O   0  0  0  0  0  0  0  0  0  0  0  0
   -0.3360   -0.4980   -1.1880 O   0  0  0  0  0  0  0  0  0  0  0  0
   -2.5470   -1.2800    0.3640 O   0  0  0  0  0  0  0  0  0  0  0  0
   -3.8560   -1.2070    0.5470 C   0  0  1  0  0  0  0  0  0  0  0  0
   -4.4690    0.1660    0.7590 C   0  0  0  0  0  0  0  0  0  0  0  0
   -5.4830    0.1820   -0.3250 C   0  0  2  0  0  0  0  0  0  0  0  0
   -6.5150    1.1230   -0.0870 N   0  0  0  0  0  0  0  0  0  0  0  0
   -6.1340    2.4180    0.0430 C   0  0  0  0  0  0  0  0  0  0  0  0
   -7.0460    3.4510    0.2630 C   0  0  0  0  0  0  0  0  0  0  0  0
   -8.3660    3.0800    0.3440 C   0  0  0  0  0  0  0  0  0  0  0  0
   -9.2050    3.9970    0.5510 O   0  0  0  0  0  0  0  0  0  0  0  0
   -8.7370    1.7970    0.2170 N   0  0  0  0  0  0  0  0  0  0  0  0
   -7.8060    0.8230    0.0030 C   0  0  0  0  0  0  0  0  0  0  0  0
   -8.1150   -0.3970   -0.1190 O   0  0  0  0  0  0  0  0  0  0  0  0
   -5.9350   -1.1540   -0.2610 O   0  0  0  0  0  0  0  0  0  0  0  0
   -4.7000   -1.7660   -0.5840 C   0  0  2  0  0  0  0  0  0  0  0  0
   -4.7420   -3.2530   -0.5790 C   0  0  0  0  0  0  0  0  0  0  0  0
   -5.0710   -3.7730    0.6800 O   0  0  0  0  0  0  0  0  0  0  0  0
    3.6180   -2.5500   -0.4370 C   0  0  1  0  0  0  0  0  0  0  0  0
    3.5170   -2.5750   -1.8690 O   0  0  0  0  0  0  0  0  0  0  0  0
    5.1320   -2.2560   -0.1270 C   0  0  1  0  0  0  0  0  0  0  0  0
    5.8100   -3.0690   -1.0460 O   0  0  0  0  0  0  0  0  0  0  0  0
  1  2  1  0
  2  3  2  0
  2  7  1  0
  3  4  1  0
  4  5  2  0
  5  6  1  0
  6  7  2  0
  6 10  1  0
  7  8  1  0
  8  9  2  0
  9 10  1  0
 11 10  1  1
 11 12  1  0
 11 41  1  0
 12 13  1  0
 13 14  1  1
 13 39  1  0
 14 15  1  0
 15 16  1  0
 16 17  1  0
 16 18  1  0
 16 19  1  0
 19 20  1  0
 20 21  1  0
 20 22  1  0
 20 23  1  0
 24 23  1  6
 24 25  1  0
 24 36  1  0
 25 26  1  0
 26 27  1  1
 26 35  1  0
 27 28  1  0
 27 33  1  0
 28 29  2  0
 29 30  1  0
 30 31  2  0
 30 32  1  0
 32 33  1  0
 33 34  2  0
 35 36  1  0
 36 37  1  1
 37 38  1  0
 39 40  1  6
 39 41  1  0
 41 42  1  6
M  END
