
     RDKit          3D

 42 45  0  0  0  0  0  0  0  0999 V2000
    5.5610    3.9760    1.1740 C   0  0  0  0  0  0  0  0  0  0  0  0
    4.7110    2.8700    0.9590 O   0  0  0  0  0  0  0  0  0  0  0  0
    3.4200    2.7940    1.4130 C   0  0  0  0  0  0  0  0  0  0  0  0
    3.0140    3.8090    2.0640 O   0  0  0  0  0  0  0  0  0  0  0  0
    2.5240    1.6870    1.2130 C   0  0  0  0  0  0  0  0  0  0  0  0
    1.1920    1.6110    1.6760 C   0  0  0  0  0  0  0  0  0  0  0  0
    0.6470    0.4620    1.3180 N   0  0  0  0  0  0  0  0  0  0  0  0
   -0.6570    0.0210    1.6280 N   0  0  0  0  0  0  0  0  0  0  0  0
   -1.1400   -1.2240    1.1440 C   0  0  0  0  0  0  0  0  0  0  0  0
   -0.8710   -2.3700    1.7990 N   0  0  0  0  0  0  0  0  0  0  0  0
   -1.2430   -3.5890    1.3830 C   0  0  0  0  0  0  0  0  0  0  0  0
   -1.1130   -4.8200    1.8170 O   0  0  0  0  0  0  0  0  0  0  0  0
   -1.6860   -5.6800    0.9980 C   0  0  0  0  0  0  0  0  0  0  0  0
   -1.7050   -6.9320    1.1810 O   0  0  0  0  0  0  0  0  0  0  0  0
   -2.2090   -4.9700   -0.0120 N   0  0  0  0  0  0  0  0  0  0  0  0
   -1.9490   -3.6710    0.2030 C   0  0  0  0  0  0  0  0  0  0  0  0
   -2.2180   -2.4880   -0.4580 C   0  0  0  0  0  0  0  0  0  0  0  0
   -2.8700   -2.6390   -1.5460 O   0  0  0  0  0  0  0  0  0  0  0  0
   -1.8280   -1.2740   -0.0060 N   0  0  0  0  0  0  0  0  0  0  0  0
   -2.1750   -0.1320   -0.7850 C   0  0  0  0  0  0  0  0  0  0  0  0
   -3.4450    0.5640   -0.5700 C   0  0  1  0  0  0  0  0  0  0  0  0
   -3.6160    1.1010    0.8560 C   0  0  0  0  0  0  0  0  0  0  0  0
   -4.8780    1.7480    1.0110 O   0  0  0  0  0  0  0  0  0  0  0  0
   -5.2500    2.2980    2.2280 C   0  0  0  0  0  0  0  0  0  0  0  0
   -6.4950    2.9500    2.4420 N   0  0  0  0  0  0  0  0  0  0  0  0
   -4.4140    2.2010    3.1940 O   0  0  0  0  0  0  0  0  0  0  0  0
   -3.3330    1.8800   -1.4000 C   0  0  0  0  0  0  0  0  0  0  0  0
   -3.7270    1.6570   -2.8170 C   0  0  0  0  0  0  0  0  0  0  0  0
   -5.0060    1.1210   -2.9500 O   0  0  0  0  0  0  0  0  0  0  0  0
   -5.5870    1.0120   -1.6820 C   0  0  0  0  0  0  0  0  0  0  0  0
   -4.7290   -0.0420   -0.9450 C   0  0  0  0  0  0  0  0  0  0  0  0
    1.5650   -0.2010    0.6480 N   0  0  0  0  0  0  0  0  0  0  0  0
    2.7210    0.5100    0.5630 C   0  0  0  0  0  0  0  0  0  0  0  0
    3.9470    0.0360   -0.1040 C   0  0  0  0  0  0  0  0  0  0  0  0
    4.9960    0.6830   -0.1540 O   0  0  0  0  0  0  0  0  0  0  0  0
    3.9550   -1.2110   -0.7210 O   0  0  0  0  0  0  0  0  0  0  0  0
    5.0520   -1.7850   -1.3790 C   0  0  0  0  0  0  0  0  0  0  0  0
    6.1780   -1.9880   -0.4120 C   0  0  0  0  0  0  0  0  0  0  0  0
    7.2980   -2.5630   -1.0230 O   0  0  0  0  0  0  0  0  0  0  0  0
    8.2620   -2.7340   -0.1620 O   0  0  0  0  0  0  0  0  0  0  0  0
    9.3690   -3.0040   -0.8340 O   0  0  0  0  0  0  0  0  0  0  0  0
   10.2780   -2.0680   -0.5750 O   0  0  0  0  0  0  0  0  0  0  0  0
  1  2  1  0
  2  3  1  0
  3  4  2  0
  3  5  1  0
  5  6  2  0
  5 33  1  0
  6  7  1  0
  7  8  1  0
  7 32  1  0
  8  9  1  0
  9 10  2  0
  9 19  1  0
 10 11  1  0
 11 12  1  0
 11 16  2  0
 12 13  1  0
 13 14  2  0
 13 15  1  0
 15 16  1  0
 16 17  1  0
 17 18  2  0
 17 19  1  0
 19 20  1  0
 21 20  1  1
 21 22  1  0
 21 27  1  0
 21 31  1  0
 22 23  1  0
 23 24  1  0
 24 25  1  0
 24 26  2  0
 27 28  1  0
 28 29  1  0
 29 30  1  0
 30 31  1  0
 32 33  2  0
 33 34  1  0
 34 35  2  0
 34 36  1  0
 36 37  1  0
 37 38  1  0
 38 39  1  0
 39 40  1  0
 40 41  1  0
 41 42  1  0
M  END
