
     RDKit          3D

 41 44  0  0  0  0  0  0  0  0999 V2000
   -2.1640    1.4390   -2.4730 O   0  0  0  0  0  0  0  0  0  0  0  0
   -2.3630    2.3460   -1.5830 C   0  0  0  0  0  0  0  0  0  0  0  0
   -2.7360    1.8210   -0.2560 C   0  0  0  0  0  0  0  0  0  0  0  0
   -3.7550    0.7990   -0.3730 N   0  0  0  0  0  0  0  0  0  0  0  0
   -5.0230    1.0350    0.3430 C   0  0  0  0  0  0  0  0  0  0  0  0
   -4.9480    0.4600    1.7410 C   0  0  0  0  0  0  0  0  0  0  0  0
   -6.1310    0.6670    2.4410 O   0  0  0  0  0  0  0  0  0  0  0  0
   -3.6460   -0.4070   -1.1200 C   0  0  0  0  0  0  0  0  0  0  0  0
   -4.6580   -0.6640   -1.8910 O   0  0  0  0  0  0  0  0  0  0  0  0
   -2.5570   -1.3150   -1.0880 N   0  0  0  0  0  0  0  0  0  0  0  0
   -2.0250   -2.0190    0.0400 C   0  0  1  0  0  0  0  0  0  0  0  0
   -2.0430   -3.5150   -0.2130 C   0  0  0  0  0  0  0  0  0  0  0  0
   -3.3910   -3.8790   -0.4270 O   0  0  0  0  0  0  0  0  0  0  0  0
   -3.4910   -5.1700   -0.6540 O   0  0  0  0  0  0  0  0  0  0  0  0
   -0.6150   -1.6440    0.4040 C   0  0  0  0  0  0  0  0  0  0  0  0
    0.3410   -2.4460   -0.4120 C   0  0  0  0  0  0  0  0  0  0  0  0
    1.6700   -2.0010   -0.2010 N   0  0  0  0  0  0  0  0  0  0  0  0
    2.5990   -1.6620   -1.3100 N   0  0  0  0  0  0  0  0  0  0  0  0
    3.7230   -1.3360   -0.6650 C   0  0  0  0  0  0  0  0  0  0  0  0
    4.8500   -1.8270   -1.3400 N   0  0  0  0  0  0  0  0  0  0  0  0
    6.0630   -2.0560   -0.7070 C   0  0  0  0  0  0  0  0  0  0  0  0
    5.9490   -1.8400    0.5420 O   0  0  0  0  0  0  0  0  0  0  0  0
    7.2190   -2.4490   -1.2670 O   0  0  0  0  0  0  0  0  0  0  0  0
    8.3310   -2.6520   -0.5920 O   0  0  0  0  0  0  0  0  0  0  0  0
    8.3660   -2.0980    0.5920 O   0  0  0  0  0  0  0  0  0  0  0  0
    3.1100   -0.5170    0.3950 C   0  0  1  0  0  0  0  0  0  0  0  0
    3.9620    0.1250    1.3560 C   0  0  0  0  0  0  0  0  0  0  0  0
    3.2260    1.1610    1.9860 O   0  0  0  0  0  0  0  0  0  0  0  0
    2.3740    2.0310    1.2670 C   0  0  0  0  0  0  0  0  0  0  0  0
    2.2010    3.3270    1.6680 C   0  0  0  0  0  0  0  0  0  0  0  0
    1.3530    4.0840    0.9030 C   0  0  0  0  0  0  0  0  0  0  0  0
    0.6580    3.6190   -0.2550 C   0  0  0  0  0  0  0  0  0  0  0  0
    0.8460    2.3210   -0.6400 C   0  0  0  0  0  0  0  0  0  0  0  0
    1.7110    1.5600    0.1500 C   0  0  0  0  0  0  0  0  0  0  0  0
    2.0300    0.2180   -0.0700 O   0  0  0  0  0  0  0  0  0  0  0  0
   -0.1610    4.6680   -0.8200 N   0  0  0  0  0  0  0  0  0  0  0  0
   -1.4330    4.7090   -1.3890 C   0  0  0  0  0  0  0  0  0  0  0  0
   -2.0680    5.8430   -1.3930 O   0  0  0  0  0  0  0  0  0  0  0  0
   -2.1990    3.6780   -1.9980 N   0  0  0  0  0  0  0  0  0  0  0  0
    2.3910   -1.8010    0.9720 C   0  0  0  0  0  0  0  0  0  0  0  0
    2.6640   -2.1610    2.1140 O   0  0  0  0  0  0  0  0  0  0  0  0
  1  2  2  0
  2  3  1  0
  2 39  1  0
  3  4  1  0
  4  5  1  0
  4  8  1  0
  5  6  1  0
  6  7  1  0
  8  9  2  0
  8 10  1  0
 10 11  1  0
 11 12  1  6
 11 15  1  0
 12 13  1  0
 13 14  1  0
 15 16  1  0
 16 17  1  0
 17 18  1  0
 17 40  1  0
 18 19  2  0
 19 20  1  0
 19 26  1  0
 20 21  1  0
 21 22  2  0
 21 23  1  0
 23 24  1  0
 24 25  1  0
 26 27  1  1
 26 35  1  0
 26 40  1  0
 27 28  1  0
 28 29  1  0
 29 30  2  0
 29 34  1  0
 30 31  1  0
 31 32  2  0
 32 33  1  0
 32 36  1  0
 33 34  2  0
 34 35  1  0
 36 37  1  0
 37 38  2  0
 37 39  1  0
 40 41  2  0
M  END
