
     RDKit          3D

 41 44  0  0  0  0  0  0  0  0999 V2000
    4.1070    3.0440    0.7390 O   0  0  0  0  0  0  0  0  0  0  0  0
    4.2290    3.8470   -0.0820 C   0  0  0  0  0  0  0  0  0  0  0  0
    5.2680    4.6290   -0.4120 O   0  0  0  0  0  0  0  0  0  0  0  0
    2.8390    4.1000   -1.0750 N   0  0  0  0  0  0  0  0  0  0  0  0
    2.0150    3.1330   -0.4340 C   0  0  0  0  0  0  0  0  0  0  0  0
    2.1730    2.3660    0.4280 O   0  0  0  0  0  0  0  0  0  0  0  0
    0.6700    3.1600   -1.0640 N   0  0  0  0  0  0  0  0  0  0  0  0
   -0.3450    2.2490   -0.7570 C   0  0  2  0  0  0  0  0  0  0  0  0
   -1.6140    2.9780   -0.5220 C   0  0  0  0  0  0  0  0  0  0  0  0
   -2.1900    2.8190    0.7710 O   0  0  0  0  0  0  0  0  0  0  0  0
   -3.5820    2.7080    0.8970 C   0  0  0  0  0  0  0  0  0  0  0  0
   -4.1790    3.3240    1.8050 O   0  0  0  0  0  0  0  0  0  0  0  0
   -4.3480    1.9000    0.0020 N   0  0  0  0  0  0  0  0  0  0  0  0
   -3.8470    0.6370   -0.4780 C   0  0  0  0  0  0  0  0  0  0  0  0
   -4.0760    0.3520   -1.6710 O   0  0  0  0  0  0  0  0  0  0  0  0
   -3.0940   -0.2770    0.4190 C   0  0  1  0  0  0  0  0  0  0  0  0
   -4.1070   -0.8240    1.4590 C   0  0  0  0  0  0  0  0  0  0  0  0
   -5.3490   -1.3310    0.8060 C   0  0  1  0  0  0  0  0  0  0  0  0
   -6.0200   -0.3710    0.0580 O   0  0  0  0  0  0  0  0  0  0  0  0
   -4.9440   -2.5420    0.0060 C   0  0  0  0  0  0  0  0  0  0  0  0
   -3.4870   -2.5940   -0.2450 C   0  0  0  0  0  0  0  0  0  0  0  0
   -2.9810   -3.7070   -0.3580 O   0  0  0  0  0  0  0  0  0  0  0  0
   -2.6380   -1.4180   -0.3610 N   0  0  0  0  0  0  0  0  0  0  0  0
   -1.4840   -1.4990   -1.1490 N   0  0  0  0  0  0  0  0  0  0  0  0
   -0.2540   -1.0320   -0.9020 C   0  0  0  0  0  0  0  0  0  0  0  0
    0.8080   -1.4200   -1.8120 C   0  0  0  0  0  0  0  0  0  0  0  0
    0.5870   -2.2160   -2.8830 C   0  0  0  0  0  0  0  0  0  0  0  0
   -0.6490   -2.6460   -3.0910 N   0  0  0  0  0  0  0  0  0  0  0  0
   -1.6330   -2.2980   -2.2560 C   0  0  0  0  0  0  0  0  0  0  0  0
   -2.7810   -2.7430   -2.5290 O   0  0  0  0  0  0  0  0  0  0  0  0
    2.1610   -0.9200   -1.5000 C   0  0  0  0  0  0  0  0  0  0  0  0
    2.5450   -0.8850   -0.0820 C   0  0  2  0  0  0  0  0  0  0  0  0
    3.2640   -2.0630    0.2390 O   0  0  0  0  0  0  0  0  0  0  0  0
    4.5130   -1.6330    0.6600 C   0  0  0  0  0  0  0  0  0  0  0  0
    5.4650   -2.7010    1.0770 C   0  0  0  0  0  0  0  0  0  0  0  0
    6.6570   -2.0530    1.4550 O   0  0  0  0  0  0  0  0  0  0  0  0
    7.5830   -2.8400    1.8640 O   0  0  0  0  0  0  0  0  0  0  0  0
    1.3810   -0.6760    0.8520 C   0  0  0  0  0  0  0  0  0  0  0  0
    0.2750   -0.1330    0.0550 N   0  0  0  0  0  0  0  0  0  0  0  0
   -0.0500    1.2420    0.3070 C   0  0  0  0  0  0  0  0  0  0  0  0
   -0.0860    1.6180    1.4990 O   0  0  0  0  0  0  0  0  0  0  0  0
  1  2  2  0
  2  3  1  0
  2  4  1  0
  4  5  1  0
  5  6  2  0
  5  7  1  0
  8  7  1  1
  8  9  1  0
  8 40  1  0
  9 10  1  0
 10 11  1  0
 11 12  2  0
 11 13  1  0
 13 14  1  0
 14 15  2  0
 14 16  1  0
 16 17  1  1
 16 23  1  0
 17 18  1  0
 18 19  1  6
 18 20  1  0
 20 21  1  0
 21 22  2  0
 21 23  1  0
 23 24  1  0
 24 25  1  0
 24 29  1  0
 25 26  2  0
 25 39  1  0
 26 27  1  0
 26 31  1  0
 27 28  2  0
 28 29  1  0
 29 30  2  0
 31 32  1  0
 32 33  1  1
 32 38  1  0
 33 34  1  0
 34 35  1  0
 35 36  1  0
 36 37  1  0
 38 39  1  0
 39 40  1  0
 40 41  2  0
M  END
