
     RDKit          3D

 42 45  0  0  0  0  0  0  0  0999 V2000
    6.8480   -1.5470   -0.4010 O   0  0  0  0  0  0  0  0  0  0  0  0
    6.1410   -0.5310   -0.6610 C   0  0  0  0  0  0  0  0  0  0  0  0
    6.7570    0.7190   -0.9120 N   0  0  0  0  0  0  0  0  0  0  0  0
    8.1710    0.8530   -0.8760 C   0  0  0  0  0  0  0  0  0  0  0  0
    8.8480   -0.1720   -0.6150 O   0  0  0  0  0  0  0  0  0  0  0  0
    8.8120    2.0730   -1.1190 O   0  0  0  0  0  0  0  0  0  0  0  0
   10.1610    2.1210   -1.0670 O   0  0  0  0  0  0  0  0  0  0  0  0
   10.6010    1.2020   -0.2160 O   0  0  0  0  0  0  0  0  0  0  0  0
    4.7760   -0.6750   -0.6920 O   0  0  0  0  0  0  0  0  0  0  0  0
    4.0950   -1.8740   -0.4550 C   0  0  0  0  0  0  0  0  0  0  0  0
    2.6020   -1.7320   -0.5550 C   0  0  0  0  0  0  0  0  0  0  0  0
    2.0980   -0.8130    0.3630 O   0  0  0  0  0  0  0  0  0  0  0  0
    0.7360   -0.6750    0.2910 C   0  0  1  0  0  0  0  0  0  0  0  0
    0.0670   -1.0730    1.5810 C   0  0  0  0  0  0  0  0  0  0  0  0
   -0.0860   -0.1640    2.4470 O   0  0  0  0  0  0  0  0  0  0  0  0
   -0.3740   -2.3930    1.8270 N   0  0  0  0  0  0  0  0  0  0  0  0
   -0.9960   -3.2560    0.8710 C   0  0  0  0  0  0  0  0  0  0  0  0
   -2.4670   -3.3630    1.0960 C   0  0  0  0  0  0  0  0  0  0  0  0
   -2.9280   -4.0140    2.1810 N   0  0  0  0  0  0  0  0  0  0  0  0
   -4.2120   -4.1330    2.4190 N   0  0  0  0  0  0  0  0  0  0  0  0
   -5.0940   -3.5970    1.5690 C   0  0  0  0  0  0  0  0  0  0  0  0
   -4.6530   -2.9350    0.4660 C   0  0  0  0  0  0  0  0  0  0  0  0
   -3.3410   -2.8290    0.2490 N   0  0  0  0  0  0  0  0  0  0  0  0
   -5.5670   -2.3070   -0.5350 C   0  0  0  0  0  0  0  0  0  0  0  0
   -6.2970   -1.2640   -0.0150 O   0  0  0  0  0  0  0  0  0  0  0  0
   -5.5910   -0.1360    0.2690 C   0  0  0  0  0  0  0  0  0  0  0  0
   -5.1520    0.6550   -0.9330 C   0  0  1  0  0  0  0  0  0  0  0  0
   -6.1520    0.7180   -1.9050 O   0  0  0  0  0  0  0  0  0  0  0  0
   -5.7440    0.3630   -3.0830 O   0  0  0  0  0  0  0  0  0  0  0  0
   -4.9300    2.0970   -0.4560 C   0  0  0  0  0  0  0  0  0  0  0  0
   -3.6910    2.2160    0.3700 C   0  0  0  0  0  0  0  0  0  0  0  0
   -2.6240    2.8620   -0.3640 N   0  0  0  0  0  0  0  0  0  0  0  0
   -1.2580    2.4870   -0.2820 C   0  0  0  0  0  0  0  0  0  0  0  0
   -0.3180    3.4130   -0.4320 C   0  0  0  0  0  0  0  0  0  0  0  0
    1.0490    3.0420   -0.3510 N   0  0  0  0  0  0  0  0  0  0  0  0
    2.2470    3.7930   -0.4670 C   0  0  0  0  0  0  0  0  0  0  0  0
    2.4150    5.0190   -0.6040 O   0  0  0  0  0  0  0  0  0  0  0  0
    3.3530    2.7910   -0.3930 C   0  0  0  0  0  0  0  0  0  0  0  0
    2.7300    1.5590   -0.0720 O   0  0  0  0  0  0  0  0  0  0  0  0
    1.3580    1.6760   -0.1100 C   0  0  0  0  0  0  0  0  0  0  0  0
    0.4160    0.7590    0.0380 C   0  0  0  0  0  0  0  0  0  0  0  0
   -0.9170    1.1660   -0.0490 O   0  0  0  0  0  0  0  0  0  0  0  0
  1  2  2  0
  2  3  1  0
  2  9  1  0
  3  4  1  0
  4  5  2  0
  4  6  1  0
  6  7  1  0
  7  8  1  0
  9 10  1  0
 10 11  1  0
 11 12  1  0
 13 12  1  1
 13 14  1  0
 13 41  1  0
 14 15  2  0
 14 16  1  0
 16 17  1  0
 17 18  1  0
 18 19  2  0
 18 23  1  0
 19 20  1  0
 20 21  2  0
 21 22  1  0
 22 23  2  0
 22 24  1  0
 24 25  1  0
 25 26  1  0
 26 27  1  0
 27 28  1  6
 27 30  1  0
 28 29  1  0
 30 31  1  0
 31 32  1  0
 32 33  1  0
 33 34  2  0
 33 42  1  0
 34 35  1  0
 35 36  1  0
 35 40  1  0
 36 37  2  0
 36 38  1  0
 38 39  1  0
 39 40  1  0
 40 41  2  0
 41 42  1  0
M  END
