
     RDKit          3D

 20 20  0  0  0  0  0  0  0  0999 V2000
    3.4250    2.6970    0.4030 O   0  0  0  0  0  0  0  0  0  0  0  0
    3.3940    1.2170    0.1900 P   0  0  2  0  0  0  0  0  0  0  0  0
    4.9830    0.6390    0.4360 O   0  0  0  0  0  0  0  0  0  0  0  0
    3.0760    0.9780   -1.4760 O   0  0  0  0  0  0  0  0  0  0  0  0
    2.3530    0.3480    1.0520 O   0  0  0  0  0  0  0  0  0  0  0  0
    1.1770   -0.0730    0.5680 C   0  0  2  0  0  0  0  0  0  0  0  0
   -0.0620    0.4020    1.2720 C   0  0  2  0  0  0  0  0  0  0  0  0
   -0.3430   -0.5390    2.2820 O   0  0  0  0  0  0  0  0  0  0  0  0
   -1.2190    0.2280    0.2710 C   0  0  2  0  0  0  0  0  0  0  0  0
   -2.3640    0.5590    1.0000 O   0  0  0  0  0  0  0  0  0  0  0  0
   -3.1980    1.8550    0.3310 P   0  0  2  0  0  0  0  0  0  0  0  0
   -4.6480    1.5280    0.1610 O   0  0  0  0  0  0  0  0  0  0  0  0
   -2.4870    2.4020   -1.0940 O   0  0  0  0  0  0  0  0  0  0  0  0
   -3.1050    3.1350    1.4580 O   0  0  0  0  0  0  0  0  0  0  0  0
   -1.3500   -1.2350   -0.0890 C   0  0  1  0  0  0  0  0  0  0  0  0
   -2.2730   -1.3450   -1.1260 O   0  0  0  0  0  0  0  0  0  0  0  0
   -0.0610   -1.8470   -0.5370 C   0  0  2  0  0  0  0  0  0  0  0  0
   -0.2630   -3.1880   -0.7790 O   0  0  0  0  0  0  0  0  0  0  0  0
    1.0340   -1.5950    0.4840 C   0  0  1  0  0  0  0  0  0  0  0  0
    2.2100   -2.2090    0.1530 O   0  0  0  0  0  0  0  0  0  0  0  0
  1  2  2  0
  2  3  1  6
  2  4  1  0
  2  5  1  0
  6  5  1  1
  6  7  1  0
  6 19  1  0
  7  8  1  1
  7  9  1  0
  9 10  1  1
  9 15  1  0
 10 11  1  0
 11 12  2  0
 11 13  1  6
 11 14  1  0
 15 16  1  6
 15 17  1  0
 17 18  1  1
 17 19  1  0
 19 20  1  6
M  END
