
     RDKit          3D

 27 29  0  0  0  0  0  0  0  0999 V2000
    3.4850    1.3110    1.9030 O   0  0  0  0  0  0  0  0  0  0  0  0
    3.1790    0.6700    0.8290 C   0  0  0  0  0  0  0  0  0  0  0  0
    4.1700    0.0000    0.1130 N   0  0  0  0  0  0  0  0  0  0  0  0
    5.5410   -0.0660    0.4650 C   0  0  0  0  0  0  0  0  0  0  0  0
    6.4640   -0.4870   -0.5030 C   0  0  0  0  0  0  0  0  0  0  0  0
    7.8050   -0.5990   -0.2470 C   0  0  0  0  0  0  0  0  0  0  0  0
    8.3060   -0.2950    0.9940 C   0  0  0  0  0  0  0  0  0  0  0  0
    7.4090    0.1180    1.9470 C   0  0  0  0  0  0  0  0  0  0  0  0
    6.0320    0.2360    1.6990 C   0  0  0  0  0  0  0  0  0  0  0  0
    1.7860    0.6990    0.4360 C   0  0  0  0  0  0  0  0  0  0  0  0
    0.9350    1.6730    0.9850 C   0  0  0  0  0  0  0  0  0  0  0  0
   -0.3880    1.7280    0.6030 C   0  0  0  0  0  0  0  0  0  0  0  0
   -0.8770    0.8310   -0.3170 C   0  0  0  0  0  0  0  0  0  0  0  0
   -2.3310    0.9160   -0.7180 C   0  0  0  0  0  0  0  0  0  0  0  0
   -2.5740   -0.1940   -1.7190 C   0  0  0  0  0  0  0  0  0  0  0  0
   -4.2590   -0.2100   -2.2740 S   0  0  2  0  0  0  0  0  0  0  0  0
   -4.3710   -1.3050   -3.3070 O   0  0  0  0  0  0  0  0  0  0  0  0
   -4.5170    1.0820   -3.0030 O   0  0  0  0  0  0  0  0  0  0  0  0
   -5.3720   -0.4440   -0.9580 C   0  0  0  0  0  0  0  0  0  0  0  0
   -5.9180    0.6120   -0.2600 C   0  0  0  0  0  0  0  0  0  0  0  0
   -6.8000    0.4200    0.7910 C   0  0  0  0  0  0  0  0  0  0  0  0
   -7.1690   -0.8480    1.1820 C   0  0  0  0  0  0  0  0  0  0  0  0
   -6.6300   -1.9100    0.4930 C   0  0  0  0  0  0  0  0  0  0  0  0
   -5.7490   -1.7070   -0.5560 C   0  0  0  0  0  0  0  0  0  0  0  0
   -0.0820   -0.0570   -0.8100 O   0  0  0  0  0  0  0  0  0  0  0  0
    1.2080   -0.1400   -0.4610 C   0  0  0  0  0  0  0  0  0  0  0  0
    1.8720   -1.0740   -1.0330 O   0  0  0  0  0  0  0  0  0  0  0  0
  1  2  2  0
  2  3  1  0
  2 10  1  0
  3  4  1  0
  4  5  2  0
  4  9  1  0
  5  6  1  0
  6  7  2  0
  7  8  1  0
  8  9  2  0
 10 11  2  0
 10 26  1  0
 11 12  1  0
 12 13  2  0
 13 14  1  0
 13 25  1  0
 14 15  1  0
 16 15  1  1
 16 17  2  0
 16 18  2  0
 16 19  1  0
 19 20  2  0
 19 24  1  0
 20 21  1  0
 21 22  2  0
 22 23  1  0
 23 24  2  0
 25 26  1  0
 26 27  2  0
M  END
