
     RDKit          3D

 27 29  0  0  0  0  0  0  0  0999 V2000
   -4.6260    2.4570    0.6450 C   0  0  0  0  0  0  0  0  0  0  0  0
   -4.4720    0.9300    0.6650 C   0  0  2  0  0  0  0  0  0  0  0  0
   -2.9230    0.7230    0.6590 C   0  0  0  0  0  0  0  0  0  0  0  0
   -2.4670   -0.0140   -0.2550 C   0  0  0  0  0  0  0  0  0  0  0  0
   -1.2620   -0.5820   -0.8090 C   0  0  0  0  0  0  0  0  0  0  0  0
   -1.5360   -1.3490   -1.9160 C   0  0  0  0  0  0  0  0  0  0  0  0
   -0.2440   -2.1690   -2.7980 S   0  0  0  0  0  0  0  0  0  0  0  0
    1.2680   -1.7330   -1.9980 C   0  0  0  0  0  0  0  0  0  0  0  0
    1.2290   -0.9650   -0.9400 C   0  0  0  0  0  0  0  0  0  0  0  0
    2.5640   -0.6770   -0.3680 C   0  0  0  0  0  0  0  0  0  0  0  0
    3.6570   -0.6420   -1.0750 C   0  0  0  0  0  0  0  0  0  0  0  0
    4.9980   -0.3770   -0.6090 C   0  0  0  0  0  0  0  0  0  0  0  0
    5.8270    0.5150   -1.3110 C   0  0  0  0  0  0  0  0  0  0  0  0
    7.1110    0.7370   -0.8700 C   0  0  0  0  0  0  0  0  0  0  0  0
    7.5640    0.0720    0.2670 C   0  0  0  0  0  0  0  0  0  0  0  0
    8.8520    0.3270    0.6680 O   0  0  0  0  0  0  0  0  0  0  0  0
    6.7540   -0.8010    0.9550 C   0  0  0  0  0  0  0  0  0  0  0  0
    5.4580   -1.0290    0.5140 C   0  0  0  0  0  0  0  0  0  0  0  0
    2.6430   -0.3520    1.1040 C   0  0  0  0  0  0  0  0  0  0  0  0
    1.5830    0.5440    1.3830 O   0  0  0  0  0  0  0  0  0  0  0  0
    0.3030    0.3510    0.8290 C   0  0  0  0  0  0  0  0  0  0  0  0
   -0.6330    0.8900    1.4430 O   0  0  0  0  0  0  0  0  0  0  0  0
    0.0620   -0.4030   -0.3450 N   0  0  0  0  0  0  0  0  0  0  0  0
   -4.9710    0.4670   -0.5030 O   0  0  0  0  0  0  0  0  0  0  0  0
   -5.9910   -0.4730   -0.3580 C   0  0  0  0  0  0  0  0  0  0  0  0
   -7.1730    0.1170    0.3950 C   0  0  0  0  0  0  0  0  0  0  0  0
   -7.6530    1.1960   -0.3110 O   0  0  0  0  0  0  0  0  0  0  0  0
  2  1  1  6
  2  3  1  0
  2 24  1  0
  3  4  2  3
  4  5  1  0
  5  6  2  0
  5 23  1  0
  6  7  1  0
  7  8  1  0
  8  9  2  0
  9 10  1  0
  9 23  1  0
 10 11  2  3
 10 19  1  0
 11 12  1  0
 12 13  2  0
 12 18  1  0
 13 14  1  0
 14 15  2  0
 15 16  1  0
 15 17  1  0
 17 18  2  0
 19 20  1  0
 20 21  1  0
 21 22  2  0
 21 23  1  0
 24 25  1  0
 25 26  1  0
 26 27  1  0
M  END
