
     RDKit          3D

 27 28  0  0  0  0  0  0  0  0999 V2000
   -0.2920    1.0310    0.5650 C   0  0  0  0  0  0  0  0  0  0  0  0
   -1.3650   -0.0620    0.2150 C   0  0  2  0  0  0  0  0  0  0  0  0
   -1.4000   -0.1160   -1.2670 C   0  0  0  0  0  0  0  0  0  0  0  0
   -2.6090    0.5340    0.7910 C   0  0  0  0  0  0  0  0  0  0  0  0
   -3.8470    0.3880    0.5890 C   0  0  0  0  0  0  0  0  0  0  0  0
   -4.7200    1.2710    1.4760 C   0  0  0  0  0  0  0  0  0  0  0  0
   -5.9450    1.7300    0.7290 C   0  0  0  0  0  0  0  0  0  0  0  0
   -5.7140    2.2930   -0.5220 O   0  0  0  0  0  0  0  0  0  0  0  0
   -5.6080    1.5760   -1.7340 C   0  0  0  0  0  0  0  0  0  0  0  0
   -5.1410    0.3480   -1.8780 C   0  0  0  0  0  0  0  0  0  0  0  0
   -4.5370   -0.6810   -0.5530 S   0  0  1  0  0  0  0  0  0  0  0  0
   -3.7300   -1.7910   -1.0600 O   0  0  0  0  0  0  0  0  0  0  0  0
   -5.8550   -1.2860    0.0080 O   0  0  0  0  0  0  0  0  0  0  0  0
   -0.9730   -1.3100    0.9070 C   0  0  0  0  0  0  0  0  0  0  0  0
    0.3650   -1.8890    0.6510 C   0  0  0  0  0  0  0  0  0  0  0  0
    0.7430   -2.2710   -0.7260 C   0  0  0  0  0  0  0  0  0  0  0  0
    2.1520   -2.9100   -0.7220 C   0  0  0  0  0  0  0  0  0  0  0  0
    3.1640   -2.0550   -0.2260 N   0  0  0  0  0  0  0  0  0  0  0  0
    3.5310   -0.8150   -0.7890 C   0  0  0  0  0  0  0  0  0  0  0  0
    2.9070   -0.4280   -1.8330 O   0  0  0  0  0  0  0  0  0  0  0  0
    4.5920    0.0420   -0.2310 C   0  0  0  0  0  0  0  0  0  0  0  0
    5.3070   -0.2930    0.8850 C   0  0  0  0  0  0  0  0  0  0  0  0
    6.3050    0.5260    1.4010 C   0  0  0  0  0  0  0  0  0  0  0  0
    6.6050    1.7100    0.7950 C   0  0  0  0  0  0  0  0  0  0  0  0
    7.5840    2.5810    1.2470 O   0  0  0  0  0  0  0  0  0  0  0  0
    5.9000    2.0730   -0.3310 C   0  0  0  0  0  0  0  0  0  0  0  0
    4.8990    1.2420   -0.8400 C   0  0  0  0  0  0  0  0  0  0  0  0
  2  1  1  6
  2  3  1  0
  2  4  1  0
  2 14  1  0
  4  5  2  3
  5  6  1  0
  5 11  1  0
  6  7  1  0
  7  8  1  0
  8  9  1  0
  9 10  2  0
 11 10  1  6
 11 12  2  0
 11 13  2  0
 14 15  1  0
 15 16  1  0
 16 17  1  0
 17 18  1  0
 18 19  1  0
 19 20  2  0
 19 21  1  0
 21 22  2  0
 21 27  1  0
 22 23  1  0
 23 24  2  0
 24 25  1  0
 24 26  1  0
 26 27  2  0
M  END
