
     RDKit          3D

 29 31  0  0  0  0  0  0  0  0999 V2000
   -2.0930    2.1050    1.3940 N   0  0  0  0  0  0  0  0  0  0  0  0
   -2.2680    2.4800   -0.0190 C   0  0  0  0  0  0  0  0  0  0  0  0
   -2.8940    1.3750   -0.7790 C   0  0  0  0  0  0  0  0  0  0  0  0
   -2.4200    0.7220   -1.7860 C   0  0  0  0  0  0  0  0  0  0  0  0
   -3.3130   -0.3680   -2.3490 C   0  0  0  0  0  0  0  0  0  0  0  0
   -4.4240   -0.8080   -1.4590 C   0  0  0  0  0  0  0  0  0  0  0  0
   -3.9600   -1.4470   -0.1660 C   0  0  0  0  0  0  0  0  0  0  0  0
   -5.0960   -1.8930    0.7210 C   0  0  0  0  0  0  0  0  0  0  0  0
   -5.9600   -0.7320    1.1300 C   0  0  0  0  0  0  0  0  0  0  0  0
   -5.1630    0.2380    1.8740 N   0  0  0  0  0  0  0  0  0  0  0  0
   -0.8980    0.8710   -2.6560 S   0  0  0  0  0  0  0  0  0  0  0  0
    0.3920    1.8740   -1.9950 C   0  0  0  0  0  0  0  0  0  0  0  0
    0.9460    1.2740   -0.7330 C   0  0  1  0  0  0  0  0  0  0  0  0
    1.4800   -0.0140   -0.9780 O   0  0  0  0  0  0  0  0  0  0  0  0
    2.2670   -0.3350    0.0910 C   0  0  1  0  0  0  0  0  0  0  0  0
    3.5310   -0.9330   -0.2810 N   0  0  0  0  0  0  0  0  0  0  0  0
    3.9950   -1.2970   -1.4900 C   0  0  0  0  0  0  0  0  0  0  0  0
    5.2520   -1.8200   -1.3350 N   0  0  0  0  0  0  0  0  0  0  0  0
    5.5770   -1.7860   -0.0430 C   0  0  0  0  0  0  0  0  0  0  0  0
    6.6880   -2.1750    0.6420 C   0  0  0  0  0  0  0  0  0  0  0  0
    7.7880   -2.7440   -0.0400 N   0  0  0  0  0  0  0  0  0  0  0  0
    6.7810   -2.0330    1.9990 N   0  0  0  0  0  0  0  0  0  0  0  0
    5.7220   -1.4870    2.6450 C   0  0  0  0  0  0  0  0  0  0  0  0
    4.6300   -1.1060    1.9630 N   0  0  0  0  0  0  0  0  0  0  0  0
    4.5050   -1.2330    0.6190 C   0  0  0  0  0  0  0  0  0  0  0  0
    2.6210    0.9670    0.8170 C   0  0  2  0  0  0  0  0  0  0  0  0
    1.7660    1.1060    1.8890 O   0  0  0  0  0  0  0  0  0  0  0  0
    2.2010    1.9780   -0.2590 C   0  0  2  0  0  0  0  0  0  0  0  0
    1.9790    3.2250    0.2510 O   0  0  0  0  0  0  0  0  0  0  0  0
  1  2  1  0
  2  3  1  0
  3  4  2  3
  4  5  1  0
  4 11  1  0
  5  6  1  0
  6  7  1  0
  7  8  1  0
  8  9  1  0
  9 10  1  0
 11 12  1  0
 13 12  1  6
 13 14  1  0
 13 28  1  0
 14 15  1  0
 15 16  1  6
 15 26  1  0
 16 17  1  0
 16 25  1  0
 17 18  2  0
 18 19  1  0
 19 20  2  0
 19 25  1  0
 20 21  1  0
 20 22  1  0
 22 23  2  0
 23 24  1  0
 24 25  2  0
 26 27  1  1
 26 28  1  0
 28 29  1  1
M  END
