
     RDKit          3D

 30 34  0  0  0  0  0  0  0  0999 V2000
   -3.6270    1.1070    2.0500 N   0  0  0  0  0  0  0  0  0  0  0  0
   -4.3710    1.4950    0.9020 C   0  0  0  0  0  0  0  0  0  0  0  0
   -5.3840    2.4300    0.9720 C   0  0  0  0  0  0  0  0  0  0  0  0
   -6.0830    2.7800   -0.1640 C   0  0  0  0  0  0  0  0  0  0  0  0
   -5.7230    2.1610   -1.3420 C   0  0  0  0  0  0  0  0  0  0  0  0
   -4.7170    1.2290   -1.4300 C   0  0  0  0  0  0  0  0  0  0  0  0
   -4.0160    0.8750   -0.2990 C   0  0  0  0  0  0  0  0  0  0  0  0
   -2.9640   -0.0840   -0.3290 N   0  0  0  0  0  0  0  0  0  0  0  0
   -1.6730    0.1280   -0.6390 C   0  0  0  0  0  0  0  0  0  0  0  0
   -0.9930   -1.0660   -0.5450 C   0  0  0  0  0  0  0  0  0  0  0  0
    0.4560   -1.3460   -0.7910 C   0  0  0  0  0  0  0  0  0  0  0  0
    1.1720   -0.1660   -1.1740 N   0  0  0  0  0  0  0  0  0  0  0  0
    1.5760    0.5990   -0.0080 C   0  0  0  0  0  0  0  0  0  0  0  0
    3.0480    0.4850    0.2420 C   0  0  0  0  0  0  0  0  0  0  0  0
    3.5310   -0.5220    1.0500 C   0  0  0  0  0  0  0  0  0  0  0  0
    4.8410   -0.6690    1.3070 N   0  0  0  0  0  0  0  0  0  0  0  0
    5.7280    0.1930    0.7610 C   0  0  0  0  0  0  0  0  0  0  0  0
    7.0760    0.0710    1.0030 C   0  0  0  0  0  0  0  0  0  0  0  0
    7.9550    0.9390    0.4510 N   0  0  0  0  0  0  0  0  0  0  0  0
    7.5610    1.9320   -0.3360 C   0  0  0  0  0  0  0  0  0  0  0  0
    8.4610    2.8340   -0.9110 O   0  0  0  0  0  0  0  0  0  0  0  0
    6.2170    2.0900   -0.6040 C   0  0  0  0  0  0  0  0  0  0  0  0
    5.2790    1.2120   -0.0520 C   0  0  0  0  0  0  0  0  0  0  0  0
    3.9380    1.3610   -0.3140 C   0  0  0  0  0  0  0  0  0  0  0  0
   -1.8920   -2.0410   -0.1650 C   0  0  0  0  0  0  0  0  0  0  0  0
   -1.7630   -3.3840    0.0730 C   0  0  0  0  0  0  0  0  0  0  0  0
   -2.8770   -4.0940    0.4460 C   0  0  0  0  0  0  0  0  0  0  0  0
   -4.0940   -3.4630    0.5740 C   0  0  0  0  0  0  0  0  0  0  0  0
   -4.2120   -2.1310    0.3360 C   0  0  0  0  0  0  0  0  0  0  0  0
   -3.1150   -1.3910   -0.0390 C   0  0  0  0  0  0  0  0  0  0  0  0
  1  2  1  0
  2  3  2  0
  2  7  1  0
  3  4  1  0
  4  5  2  0
  5  6  1  0
  6  7  2  0
  7  8  1  0
  8  9  1  0
  8 30  1  0
  9 10  2  0
 10 11  1  0
 10 25  1  0
 11 12  1  0
 12 13  1  0
 13 14  1  0
 14 15  2  0
 14 24  1  0
 15 16  1  0
 16 17  2  0
 17 18  1  0
 17 23  1  0
 18 19  2  0
 19 20  1  0
 20 21  1  0
 20 22  2  0
 22 23  1  0
 23 24  2  0
 25 26  2  0
 25 30  1  0
 26 27  1  0
 27 28  2  0
 28 29  1  0
 29 30  2  0
M  CHG  1  12   1
M  END
