
     RDKit          3D

 30 33  0  0  0  0  0  0  0  0999 V2000
   -7.3180   -2.5560    3.1990 C   0  0  0  0  0  0  0  0  0  0  0  0
   -7.0560   -1.8790    1.9000 C   0  0  0  0  0  0  0  0  0  0  0  0
   -8.0600   -1.7610    0.9630 C   0  0  0  0  0  0  0  0  0  0  0  0
   -7.8400   -1.1390   -0.2450 C   0  0  0  0  0  0  0  0  0  0  0  0
   -6.6010   -0.6070   -0.5650 C   0  0  0  0  0  0  0  0  0  0  0  0
   -6.0880    0.0550   -1.6600 C   0  0  0  0  0  0  0  0  0  0  0  0
   -4.7650    0.3470   -1.4030 C   0  0  0  0  0  0  0  0  0  0  0  0
   -4.5010   -0.1300   -0.1840 N   0  0  0  0  0  0  0  0  0  0  0  0
   -5.5810   -0.7130    0.3560 C   0  0  0  0  0  0  0  0  0  0  0  0
   -5.8240   -1.3490    1.5790 C   0  0  0  0  0  0  0  0  0  0  0  0
   -3.2490   -0.0770    0.5480 C   0  0  0  0  0  0  0  0  0  0  0  0
   -2.4490    1.1490    0.1710 C   0  0  0  0  0  0  0  0  0  0  0  0
   -1.8070    0.9020   -1.0730 N   0  0  0  0  0  0  0  0  0  0  0  0
   -0.3900    0.9520   -1.1220 C   0  0  0  0  0  0  0  0  0  0  0  0
    0.2160    0.7460   -2.2340 O   0  0  0  0  0  0  0  0  0  0  0  0
    0.4670    1.2310    0.0520 C   0  0  1  0  0  0  0  0  0  0  0  0
    0.4110    0.1380    1.0870 C   0  0  0  0  0  0  0  0  0  0  0  0
    1.8800    1.5190   -0.4100 C   0  0  0  0  0  0  0  0  0  0  0  0
    2.7810    1.8110    0.7660 C   0  0  0  0  0  0  0  0  0  0  0  0
    4.1810    2.1020    0.3250 C   0  0  0  0  0  0  0  0  0  0  0  0
    4.8210    1.0360   -0.3960 N   0  0  0  0  0  0  0  0  0  0  0  0
    5.0950   -0.1120    0.4260 C   0  0  0  0  0  0  0  0  0  0  0  0
    6.5630   -0.4410    0.3560 C   0  0  0  0  0  0  0  0  0  0  0  0
    7.5200    0.0560    1.2040 C   0  0  0  0  0  0  0  0  0  0  0  0
    8.7080   -0.4770    0.8110 C   0  0  0  0  0  0  0  0  0  0  0  0
    8.4330   -1.2850   -0.2690 C   0  0  0  0  0  0  0  0  0  0  0  0
    9.4500   -2.0840   -1.0370 C   0  0  0  0  0  0  0  0  0  0  0  0
    7.1440   -1.2240   -0.4940 O   0  0  0  0  0  0  0  0  0  0  0  0
   -2.4660    0.5960   -2.3300 C   0  0  0  0  0  0  0  0  0  0  0  0
   -3.8950    1.0620   -2.3700 C   0  0  0  0  0  0  0  0  0  0  0  0
  1  2  1  0
  2  3  2  0
  2 10  1  0
  3  4  1  0
  4  5  2  0
  5  6  1  0
  5  9  1  0
  6  7  2  0
  7  8  1  0
  7 30  1  0
  8  9  1  0
  8 11  1  0
  9 10  2  0
 11 12  1  0
 12 13  1  0
 13 14  1  0
 13 29  1  0
 14 15  2  0
 14 16  1  0
 16 17  1  1
 16 18  1  0
 18 19  1  0
 19 20  1  0
 20 21  1  0
 21 22  1  0
 22 23  1  0
 23 24  2  0
 23 28  1  0
 24 25  1  0
 25 26  2  0
 26 27  1  0
 26 28  1  0
 29 30  1  0
M  CHG  1  21   1
M  END
