
     RDKit          3D

 30 34  0  0  0  0  0  0  0  0999 V2000
   -5.3100   -2.7150   -1.5150 N   0  0  0  0  0  0  0  0  0  0  0  0
   -5.1300   -2.0730   -0.2270 C   0  0  0  0  0  0  0  0  0  0  0  0
   -3.8240   -1.3610   -0.1810 C   0  0  0  0  0  0  0  0  0  0  0  0
   -2.6470   -1.8470    0.2170 N   0  0  0  0  0  0  0  0  0  0  0  0
   -1.6900   -0.9020    0.1160 C   0  0  0  0  0  0  0  0  0  0  0  0
   -0.2920   -1.1080    0.4710 C   0  0  0  0  0  0  0  0  0  0  0  0
    0.6500   -0.1110    0.3520 C   0  0  0  0  0  0  0  0  0  0  0  0
    1.9920   -0.3150    0.6940 C   0  0  0  0  0  0  0  0  0  0  0  0
    2.4290   -1.5260    1.1670 C   0  0  0  0  0  0  0  0  0  0  0  0
    3.7840   -1.7660    1.4930 N   0  0  0  0  0  0  0  0  0  0  0  0
    4.8170   -1.0570    0.8740 C   0  0  0  0  0  0  0  0  0  0  0  0
    6.0120   -0.8760    1.5450 C   0  0  0  0  0  0  0  0  0  0  0  0
    7.0260   -0.2140    0.9290 C   0  0  0  0  0  0  0  0  0  0  0  0
    6.9170    0.2840   -0.3330 C   0  0  0  0  0  0  0  0  0  0  0  0
    7.9370    0.9550   -0.9680 C   0  0  0  0  0  0  0  0  0  0  0  0
    7.8080    1.4510   -2.2430 C   0  0  0  0  0  0  0  0  0  0  0  0
    6.6160    1.2760   -2.9260 C   0  0  0  0  0  0  0  0  0  0  0  0
    5.5850    0.6020   -2.2980 C   0  0  0  0  0  0  0  0  0  0  0  0
    5.7290    0.1080   -1.0140 C   0  0  0  0  0  0  0  0  0  0  0  0
    4.6890   -0.5620   -0.4010 C   0  0  0  0  0  0  0  0  0  0  0  0
    1.4690   -2.5340    1.2870 C   0  0  0  0  0  0  0  0  0  0  0  0
    0.1540   -2.3210    0.9470 C   0  0  0  0  0  0  0  0  0  0  0  0
   -2.3070    0.1790   -0.3530 N   0  0  0  0  0  0  0  0  0  0  0  0
   -3.5990   -0.0790   -0.5390 N   0  0  0  0  0  0  0  0  0  0  0  0
   -4.6350    0.8240   -1.0390 C   0  0  0  0  0  0  0  0  0  0  0  0
   -5.2170    1.5150    0.1700 C   0  0  1  0  0  0  0  0  0  0  0  0
   -4.1680    2.3010    0.9270 C   0  0  0  0  0  0  0  0  0  0  0  0
   -4.9980    3.3890    1.5420 C   0  0  0  0  0  0  0  0  0  0  0  0
   -6.2480    3.3490    0.9830 O   0  0  0  0  0  0  0  0  0  0  0  0
   -6.1760    2.6220   -0.1970 C   0  0  0  0  0  0  0  0  0  0  0  0
  1  2  1  0
  2  3  1  0
  3  4  2  0
  3 24  1  0
  4  5  1  0
  5  6  1  0
  5 23  2  0
  6  7  2  0
  6 22  1  0
  7  8  1  0
  8  9  2  0
  9 10  1  0
  9 21  1  0
 10 11  1  0
 11 12  2  0
 11 20  1  0
 12 13  1  0
 13 14  2  0
 14 15  1  0
 14 19  1  0
 15 16  2  0
 16 17  1  0
 17 18  2  0
 18 19  1  0
 19 20  2  0
 21 22  2  0
 23 24  1  0
 24 25  1  0
 26 25  1  6
 26 27  1  0
 26 30  1  0
 27 28  1  0
 28 29  1  0
 29 30  1  0
M  CHG  1   1   1
M  END
