
     RDKit          3D

 30 34  0  0  0  0  0  0  0  0999 V2000
   -0.1770   -4.7400    1.7100 C   0  0  0  0  0  0  0  0  0  0  0  0
   -1.0490   -4.0430    0.7530 C   0  0  0  0  0  0  0  0  0  0  0  0
   -2.0090   -4.7600    0.0790 C   0  0  0  0  0  0  0  0  0  0  0  0
   -2.8620   -4.1830   -0.8290 C   0  0  0  0  0  0  0  0  0  0  0  0
   -2.7560   -2.8120   -1.0860 C   0  0  0  0  0  0  0  0  0  0  0  0
   -1.8040   -2.0790   -0.4250 C   0  0  0  0  0  0  0  0  0  0  0  0
   -0.9540   -2.6880    0.4910 C   0  0  0  0  0  0  0  0  0  0  0  0
   -1.9040   -0.6680   -0.8780 C   0  0  0  0  0  0  0  0  0  0  0  0
   -0.9900    0.3870   -0.4020 C   0  0  2  0  0  0  0  0  0  0  0  0
   -1.4410    1.7560   -0.8210 C   0  0  0  0  0  0  0  0  0  0  0  0
   -2.7490    2.2040   -0.2780 C   0  0  0  0  0  0  0  0  0  0  0  0
   -3.0200    3.5900   -0.8380 C   0  0  0  0  0  0  0  0  0  0  0  0
   -4.3370    4.1370   -0.3420 C   0  0  2  0  0  0  0  0  0  0  0  0
   -4.6500    5.5220   -0.8760 C   0  0  0  0  0  0  0  0  0  0  0  0
   -4.4040    5.2600    0.6030 C   0  0  0  0  0  0  0  0  0  0  0  0
    0.3530    0.2180   -0.9770 N   0  0  0  0  0  0  0  0  0  0  0  0
    1.5060    0.1060   -0.1400 C   0  0  0  0  0  0  0  0  0  0  0  0
    1.3500    0.1550    1.0830 O   0  0  0  0  0  0  0  0  0  0  0  0
    2.8020   -0.0570   -0.6760 N   0  0  0  0  0  0  0  0  0  0  0  0
    3.9980   -0.1770    0.0500 C   0  0  0  0  0  0  0  0  0  0  0  0
    4.1630   -0.1630    1.4030 C   0  0  0  0  0  0  0  0  0  0  0  0
    5.3990   -0.2900    2.0320 C   0  0  0  0  0  0  0  0  0  0  0  0
    6.5340   -0.4400    1.2770 C   0  0  0  0  0  0  0  0  0  0  0  0
    7.8370   -0.5820    1.5900 N   0  0  0  0  0  0  0  0  0  0  0  0
    8.5000   -0.6880    0.4440 C   0  0  0  0  0  0  0  0  0  0  0  0
    7.6580   -0.6160   -0.5770 N   0  0  0  0  0  0  0  0  0  0  0  0
    6.4130   -0.4600   -0.0960 C   0  0  0  0  0  0  0  0  0  0  0  0
    5.1770   -0.3320   -0.6880 C   0  0  0  0  0  0  0  0  0  0  0  0
   -2.8690   -0.6650   -1.7420 C   0  0  0  0  0  0  0  0  0  0  0  0
   -3.4620   -1.9490   -1.9350 N   0  0  0  0  0  0  0  0  0  0  0  0
  1  2  1  0
  2  3  2  0
  2  7  1  0
  3  4  1  0
  4  5  2  0
  5  6  1  0
  5 30  1  0
  6  7  2  0
  6  8  1  0
  8  9  1  0
  8 29  2  0
  9 10  1  6
  9 16  1  0
 10 11  1  0
 11 12  1  0
 13 12  1  6
 13 14  1  0
 13 15  1  0
 14 15  1  0
 16 17  1  0
 17 18  2  0
 17 19  1  0
 19 20  1  0
 20 21  2  0
 20 28  1  0
 21 22  1  0
 22 23  2  0
 23 24  1  0
 23 27  1  0
 24 25  2  0
 25 26  1  0
 26 27  1  0
 27 28  2  0
 29 30  1  0
M  CHG  1  30   1
M  END
