
     RDKit          3D

 30 34  0  0  0  0  0  0  0  0999 V2000
    2.8410   -1.7230   -2.3080 C   0  0  0  0  0  0  0  0  0  0  0  0
    1.4200   -1.3260   -1.9880 C   0  0  0  0  0  0  0  0  0  0  0  0
    0.4500   -1.2520   -2.8810 N   0  0  0  0  0  0  0  0  0  0  0  0
   -0.5810   -0.7450   -2.3550 N   0  0  0  0  0  0  0  0  0  0  0  0
   -0.3010   -0.4500   -0.9760 C   0  0  0  0  0  0  0  0  0  0  0  0
   -1.4330    0.1200   -0.2210 C   0  0  0  0  0  0  0  0  0  0  0  0
   -2.1280    1.1160   -0.9460 C   0  0  0  0  0  0  0  0  0  0  0  0
   -3.4120    1.4860   -0.6880 C   0  0  0  0  0  0  0  0  0  0  0  0
   -4.0530    0.8580    0.3420 C   0  0  0  0  0  0  0  0  0  0  0  0
   -3.4610   -0.0830    1.1020 C   0  0  0  0  0  0  0  0  0  0  0  0
   -2.1100   -0.4730    0.8170 C   0  0  0  0  0  0  0  0  0  0  0  0
   -4.3920   -0.4440    2.2130 C   0  0  1  0  0  0  0  0  0  0  0  0
   -3.9120    0.1400    3.4320 O   0  0  0  0  0  0  0  0  0  0  0  0
   -5.6790    0.3370    1.9320 C   0  0  0  0  0  0  0  0  0  0  0  0
   -5.5680    0.7050    0.5430 C   0  0  1  0  0  0  0  0  0  0  0  0
   -6.3520    1.7660   -0.0970 C   0  0  0  0  0  0  0  0  0  0  0  0
   -5.7720   -0.6500   -0.2620 C   0  0  0  0  0  0  0  0  0  0  0  0
    0.9400   -0.8020   -0.7500 C   0  0  0  0  0  0  0  0  0  0  0  0
    1.7530   -0.9650    0.4660 C   0  0  0  0  0  0  0  0  0  0  0  0
    2.0600    0.0270    1.3860 N   0  0  0  0  0  0  0  0  0  0  0  0
    3.3230   -0.4770    2.0960 C   0  0  0  0  0  0  0  0  0  0  0  0
    4.4590    0.1530    1.2600 C   0  0  0  0  0  0  0  0  0  0  0  0
    4.9400    1.3860    1.5950 C   0  0  0  0  0  0  0  0  0  0  0  0
    5.7650    2.0790    0.6830 C   0  0  0  0  0  0  0  0  0  0  0  0
    6.0720    1.4890   -0.5220 C   0  0  0  0  0  0  0  0  0  0  0  0
    6.7910    1.9840   -1.6000 N   0  0  0  0  0  0  0  0  0  0  0  0
    6.7310    1.0350   -2.5850 C   0  0  0  0  0  0  0  0  0  0  0  0
    5.9960   -0.0010   -2.0800 C   0  0  0  0  0  0  0  0  0  0  0  0
    5.5970    0.2920   -0.8090 N   0  0  0  0  0  0  0  0  0  0  0  0
    4.7990   -0.3910    0.0590 C   0  0  0  0  0  0  0  0  0  0  0  0
  1  2  1  0
  2  3  2  0
  2 18  1  0
  3  4  1  0
  4  5  1  0
  5  6  1  0
  5 18  2  0
  6  7  2  0
  6 11  1  0
  7  8  1  0
  8  9  2  0
  9 10  1  0
  9 15  1  0
 10 11  2  0
 10 12  1  0
 12 13  1  1
 12 14  1  0
 14 15  1  0
 15 16  1  6
 15 17  1  0
 18 19  1  0
 19 20  1  0
 20 21  1  0
 21 22  1  0
 22 23  1  0
 22 30  2  0
 23 24  2  0
 24 25  1  0
 25 26  2  0
 25 29  1  0
 26 27  1  0
 27 28  2  0
 28 29  1  0
 29 30  1  0
M  CHG  1  20   1
M  END
