
     RDKit          3D

 17 17  0  0  0  0  0  0  0  0999 V2000
   -3.6160   -1.4500   -0.7700 C   0  0  0  0  0  0  0  0  0  0  0  0
   -2.8190   -0.4050   -0.0950 C   0  0  0  0  0  0  0  0  0  0  0  0
   -3.4280    0.4650    0.6640 C   0  0  0  0  0  0  0  0  0  0  0  0
   -4.8910    0.4830    0.9040 C   0  0  0  0  0  0  0  0  0  0  0  0
   -5.4170    1.7770    0.4380 N   0  0  0  0  0  0  0  0  0  0  0  0
   -1.3910   -0.3810   -0.2970 C   0  0  0  0  0  0  0  0  0  0  0  0
   -0.8360   -1.2570   -1.0520 O   0  0  0  0  0  0  0  0  0  0  0  0
   -0.4800    0.5440    0.2690 N   0  0  0  0  0  0  0  0  0  0  0  0
    0.9010    0.5180    0.0360 N   0  0  0  0  0  0  0  0  0  0  0  0
    1.7230   -0.6250    0.2250 C   0  0  0  0  0  0  0  0  0  0  0  0
    1.1550   -1.6690    0.6280 O   0  0  0  0  0  0  0  0  0  0  0  0
    3.1960   -0.5810   -0.0440 C   0  0  2  0  0  0  0  0  0  0  0  0
    3.9960   -0.8730    1.1900 C   0  0  0  0  0  0  0  0  0  0  0  0
    5.2080   -0.2220    1.1680 O   0  0  0  0  0  0  0  0  0  0  0  0
    5.7570   -0.0550   -0.0890 C   0  0  0  0  0  0  0  0  0  0  0  0
    4.8160    0.5740   -1.0840 C   0  0  0  0  0  0  0  0  0  0  0  0
    3.5660    0.7030   -0.4820 O   0  0  0  0  0  0  0  0  0  0  0  0
  1  2  1  0
  2  3  2  3
  2  6  1  0
  3  4  1  0
  4  5  1  0
  6  7  2  0
  6  8  1  0
  8  9  1  0
  9 10  1  0
 10 11  2  0
 12 10  1  1
 12 13  1  0
 12 17  1  0
 13 14  1  0
 14 15  1  0
 15 16  1  0
 16 17  1  0
M  CHG  1   5   1
M  END
