
     RDKit          3D

 17 17  0  0  0  0  0  0  0  0999 V2000
   -3.1670    2.3830    0.0980 C   0  0  0  0  0  0  0  0  0  0  0  0
   -2.4280    1.1780    0.6650 C   0  0  1  0  0  0  0  0  0  0  0  0
   -2.2310    0.2600   -0.4220 N   0  0  0  0  0  0  0  0  0  0  0  0
   -1.2830   -0.7700   -0.1920 C   0  0  1  0  0  0  0  0  0  0  0  0
   -2.0440   -1.9690    0.3940 C   0  0  0  0  0  0  0  0  0  0  0  0
   -0.7690   -1.2420   -1.5470 C   0  0  0  0  0  0  0  0  0  0  0  0
   -0.1750   -0.4290    0.7510 C   0  0  1  0  0  0  0  0  0  0  0  0
    1.1320   -1.0510    0.3290 C   0  0  0  0  0  0  0  0  0  0  0  0
    1.1380   -2.2900    0.1060 O   0  0  0  0  0  0  0  0  0  0  0  0
    2.3140   -0.2740    0.1870 N   0  0  0  0  0  0  0  0  0  0  0  0
    3.5140   -0.9340   -0.2170 C   0  0  0  0  0  0  0  0  0  0  0  0
    4.6770   -0.0560   -0.3370 C   0  0  0  0  0  0  0  0  0  0  0  0
    4.6360    1.3400   -0.0770 N   0  0  0  0  0  0  0  0  0  0  0  0
    5.7850   -0.5340   -0.6860 O   0  0  0  0  0  0  0  0  0  0  0  0
   -0.0170    0.9610    0.9620 O   0  0  0  0  0  0  0  0  0  0  0  0
   -1.1730    1.6730    1.2510 C   0  0  0  0  0  0  0  0  0  0  0  0
   -1.2070    2.6980    1.9710 O   0  0  0  0  0  0  0  0  0  0  0  0
  2  1  1  6
  2  3  1  0
  2 16  1  0
  3  4  1  0
  4  5  1  1
  4  6  1  0
  4  7  1  0
  7  8  1  6
  7 15  1  0
  8  9  2  0
  8 10  1  0
 10 11  1  0
 11 12  1  0
 12 13  1  0
 12 14  2  0
 15 16  1  0
 16 17  2  0
M  CHG  1   3   1
M  END
