
     RDKit          3D

 17 18  0  0  0  0  0  0  0  0999 V2000
    1.2020    1.2040    1.4660 O   0  0  0  0  0  0  0  0  0  0  0  0
    1.6820    0.6140    0.4650 C   0  0  0  0  0  0  0  0  0  0  0  0
    0.8660    0.2270   -0.6180 N   0  0  0  0  0  0  0  0  0  0  0  0
   -0.4910    0.5060   -0.5650 N   0  0  0  0  0  0  0  0  0  0  0  0
   -1.4280   -0.5040   -0.2460 C   0  0  0  0  0  0  0  0  0  0  0  0
   -0.9880   -1.6610   -0.0170 O   0  0  0  0  0  0  0  0  0  0  0  0
   -2.8820   -0.3080   -0.1600 C   0  0  1  0  0  0  0  0  0  0  0  0
   -3.5280    0.2810   -1.3660 C   0  0  0  0  0  0  0  0  0  0  0  0
   -4.7120    0.8860   -0.9490 O   0  0  0  0  0  0  0  0  0  0  0  0
   -5.2130    0.3220    0.2190 C   0  0  0  0  0  0  0  0  0  0  0  0
   -4.9040   -1.1440    0.3330 C   0  0  0  0  0  0  0  0  0  0  0  0
   -3.5710   -1.4460    0.1920 O   0  0  0  0  0  0  0  0  0  0  0  0
    3.1390    0.3520    0.4890 C   0  0  0  0  0  0  0  0  0  0  0  0
    4.0040    0.6430    1.4070 C   0  0  0  0  0  0  0  0  0  0  0  0
    5.3030    0.2320    1.0710 N   0  0  0  0  0  0  0  0  0  0  0  0
    5.1960   -0.6800   -0.0360 C   0  0  0  0  0  0  0  0  0  0  0  0
    3.8410   -0.3290   -0.6180 C   0  0  0  0  0  0  0  0  0  0  0  0
  1  2  2  0
  2  3  1  0
  2 13  1  0
  3  4  1  0
  4  5  1  0
  5  6  2  0
  7  5  1  6
  7  8  1  0
  7 12  1  0
  8  9  1  0
  9 10  1  0
 10 11  1  0
 11 12  1  0
 13 14  2  0
 13 17  1  0
 14 15  1  0
 15 16  1  0
 16 17  1  0
M  CHG  1  15   1
M  END
