
     RDKit          3D

  8  8  0  0  0  0  0  0  0  0999 V2000
   -3.0270    0.2900    0.0380 N   0  0  0  0  0  0  0  0  0  0  0  0
   -1.6200    0.4490   -0.2030 C   0  0  0  0  0  0  0  0  0  0  0  0
   -0.7730   -0.3670    0.7480 C   0  0  0  0  0  0  0  0  0  0  0  0
    0.6580   -0.1340    0.4170 C   0  0  0  0  0  0  0  0  0  0  0  0
    1.4490   -0.8550   -0.4830 C   0  0  0  0  0  0  0  0  0  0  0  0
    2.6810   -0.3130   -0.4800 N   0  0  0  0  0  0  0  0  0  0  0  0
    2.7040    0.7190    0.3830 C   0  0  0  0  0  0  0  0  0  0  0  0
    1.4640    0.7990    0.9070 N   0  0  0  0  0  0  0  0  0  0  0  0
  1  2  1  0
  2  3  1  0
  3  4  1  0
  4  5  2  0
  4  8  1  0
  5  6  1  0
  6  7  1  0
  7  8  2  0
M  END
