
     RDKit          3D

 17 17  0  0  0  0  0  0  0  0999 V2000
   -1.2050   -1.4030   -2.6920 C   0  0  0  0  0  0  0  0  0  0  0  0
   -1.8600   -0.9360   -1.6640 C   0  0  0  0  0  0  0  0  0  0  0  0
   -1.2110   -0.4700   -0.4230 C   0  0  0  0  0  0  0  0  0  0  0  0
   -1.9420   -0.0190    0.5560 C   0  0  0  0  0  0  0  0  0  0  0  0
   -3.3920    0.0800    0.5580 C   0  0  0  0  0  0  0  0  0  0  0  0
   -3.8450    1.4680    0.7440 N   0  0  0  0  0  0  0  0  0  0  0  0
    0.2100   -0.5460   -0.3760 N   0  0  0  0  0  0  0  0  0  0  0  0
    1.0110   -0.1550    0.7080 C   0  0  0  0  0  0  0  0  0  0  0  0
    0.5840    0.3080    1.7660 O   0  0  0  0  0  0  0  0  0  0  0  0
    2.4940   -0.3040    0.5890 C   0  0  2  0  0  0  0  0  0  0  0  0
    2.8360   -1.7110    0.1850 C   0  0  0  0  0  0  0  0  0  0  0  0
    3.1560    0.1250    1.7410 O   0  0  0  0  0  0  0  0  0  0  0  0
    3.3610    1.4870    1.6830 C   0  0  0  0  0  0  0  0  0  0  0  0
    3.6110    2.2990    2.6250 O   0  0  0  0  0  0  0  0  0  0  0  0
    3.2420    1.8620    0.3150 N   0  0  0  0  0  0  0  0  0  0  0  0
    2.9580    0.6680   -0.4330 C   0  0  0  0  0  0  0  0  0  0  0  0
    3.0950    0.5420   -1.6760 O   0  0  0  0  0  0  0  0  0  0  0  0
  1  2  2  0
  2  3  1  0
  3  4  2  3
  3  7  1  0
  4  5  1  0
  5  6  1  0
  7  8  1  0
  8  9  2  0
  8 10  1  0
 10 11  1  6
 10 12  1  0
 10 16  1  0
 12 13  1  0
 13 14  2  0
 13 15  1  0
 15 16  1  0
 16 17  2  0
M  CHG  1   6   1
M  END
