
     RDKit          3D

 17 18  0  0  0  0  0  0  0  0999 V2000
    1.4690   -1.2250   -1.0530 O   0  0  0  0  0  0  0  0  0  0  0  0
    2.1030   -0.2510   -0.5740 C   0  0  0  0  0  0  0  0  0  0  0  0
    1.3540    0.9200   -0.3170 N   0  0  0  0  0  0  0  0  0  0  0  0
   -0.0470    0.9500   -0.6030 N   0  0  0  0  0  0  0  0  0  0  0  0
   -0.9630    0.2470    0.2240 C   0  0  0  0  0  0  0  0  0  0  0  0
   -0.4590   -0.3760    1.2080 O   0  0  0  0  0  0  0  0  0  0  0  0
   -2.4180    0.2040    0.0080 C   0  0  1  0  0  0  0  0  0  0  0  0
   -3.0190   -0.5580    1.0110 O   0  0  0  0  0  0  0  0  0  0  0  0
   -4.3030   -0.9420    0.6320 C   0  0  0  0  0  0  0  0  0  0  0  0
   -5.1260    0.2960    0.4400 C   0  0  0  0  0  0  0  0  0  0  0  0
   -4.3650    1.5000    0.0180 C   0  0  0  0  0  0  0  0  0  0  0  0
   -3.0390    1.3830   -0.2330 O   0  0  0  0  0  0  0  0  0  0  0  0
    3.5250   -0.3940   -0.3240 C   0  0  0  0  0  0  0  0  0  0  0  0
    4.1980   -1.4980   -0.5740 C   0  0  0  0  0  0  0  0  0  0  0  0
    5.5460   -1.3420   -0.2340 N   0  0  0  0  0  0  0  0  0  0  0  0
    5.6500   -0.0280    0.2530 C   0  0  0  0  0  0  0  0  0  0  0  0
    4.4730    0.5520    0.2100 C   0  0  0  0  0  0  0  0  0  0  0  0
  1  2  2  0
  2  3  1  0
  2 13  1  0
  3  4  1  0
  4  5  1  0
  5  6  2  0
  7  5  1  1
  7  8  1  0
  7 12  1  0
  8  9  1  0
  9 10  1  0
 10 11  1  0
 11 12  1  0
 13 14  2  0
 13 17  1  0
 14 15  1  0
 15 16  1  0
 16 17  2  0
M  CHG  1  15   1
M  END
