
     RDKit          3D

 47 51  0  0  0  0  0  0  0  0999 V2000
   -5.1970   -1.7740    0.7110 C   0  0  0  0  0  0  0  0  0  0  0  0
   -4.1070   -1.2750   -0.2280 C   0  0  0  0  0  0  0  0  0  0  0  0
   -2.7340   -1.7030    0.1290 C   0  0  2  0  0  0  0  0  0  0  0  0
   -2.3230   -3.0890    0.1680 C   0  0  0  0  0  0  0  0  0  0  0  0
   -2.8630   -4.1710    0.9980 C   0  0  2  0  0  0  0  0  0  0  0  0
   -2.0090   -5.3870    0.6560 C   0  0  0  0  0  0  0  0  0  0  0  0
   -2.6830   -6.4610    0.4220 C   0  0  0  0  0  0  0  0  0  0  0  0
   -4.1280   -6.2110    0.5550 C   0  0  0  0  0  0  0  0  0  0  0  0
   -4.2200   -4.7000    0.6250 C   0  0  0  0  0  0  0  0  0  0  0  0
   -2.0130   -0.8270    1.0500 N   0  0  0  0  0  0  0  0  0  0  0  0
   -1.4310    0.3590    0.3970 C   0  0  2  0  0  0  0  0  0  0  0  0
   -0.4580   -0.0520   -0.3270 O   0  0  0  0  0  0  0  0  0  0  0  0
    0.4440   -0.4310   -0.9980 N   0  0  0  0  0  0  0  0  0  0  0  0
    1.7610   -0.8990   -0.5210 C   0  0  0  0  0  0  0  0  0  0  0  0
    1.8280   -0.8150    0.7330 O   0  0  0  0  0  0  0  0  0  0  0  0
    2.7900   -1.3760   -1.3970 C   0  0  0  0  0  0  0  0  0  0  0  0
    2.5130   -1.6010   -2.7250 C   0  0  0  0  0  0  0  0  0  0  0  0
    3.4550   -2.1880   -3.6020 C   0  0  0  0  0  0  0  0  0  0  0  0
    4.6670   -2.5380   -3.0900 C   0  0  0  0  0  0  0  0  0  0  0  0
    4.9870   -2.3320   -1.7640 C   0  0  0  0  0  0  0  0  0  0  0  0
    6.3260   -2.8160   -1.2600 C   0  0  0  0  0  0  0  0  0  0  0  0
    4.0460   -1.7520   -0.9460 C   0  0  0  0  0  0  0  0  0  0  0  0
    4.3560   -1.4920    0.4120 N   0  0  0  0  0  0  0  0  0  0  0  0
    4.7500   -0.3560    1.1030 C   0  0  0  0  0  0  0  0  0  0  0  0
    5.6790    0.6670    0.5310 C   0  0  1  0  0  0  0  0  0  0  0  0
    5.8380    1.7080    1.6270 C   0  0  0  0  0  0  0  0  0  0  0  0
    7.2850    1.9950    1.9370 C   0  0  0  0  0  0  0  0  0  0  0  0
    7.9440    2.4100    0.6280 C   0  0  0  0  0  0  0  0  0  0  0  0
    8.0840    1.1420   -0.1550 C   0  0  0  0  0  0  0  0  0  0  0  0
    6.9200    0.2130   -0.0860 C   0  0  0  0  0  0  0  0  0  0  0  0
   -0.9960    1.2380    1.4730 N   0  0  0  0  0  0  0  0  0  0  0  0
   -1.9210    1.3800    2.4990 N   0  0  0  0  0  0  0  0  0  0  0  0
   -2.7490    2.5010    2.7070 C   0  0  0  0  0  0  0  0  0  0  0  0
   -4.0110    2.3730    2.9000 O   0  0  0  0  0  0  0  0  0  0  0  0
   -2.2460    3.8840    2.7190 C   0  0  0  0  0  0  0  0  0  0  0  0
   -3.1840    4.8060    2.2910 O   0  0  0  0  0  0  0  0  0  0  0  0
   -3.2100    5.0630    0.9500 C   0  0  0  0  0  0  0  0  0  0  0  0
   -4.3150    4.2680    0.3690 C   0  0  0  0  0  0  0  0  0  0  0  0
   -5.5570    4.4600    0.9470 C   0  0  0  0  0  0  0  0  0  0  0  0
   -6.6820    3.8130    0.5410 C   0  0  0  0  0  0  0  0  0  0  0  0
   -6.5490    2.9250   -0.5010 C   0  0  0  0  0  0  0  0  0  0  0  0
   -5.3030    2.7180   -1.0960 C   0  0  0  0  0  0  0  0  0  0  0  0
   -4.1700    3.3750   -0.6840 C   0  0  0  0  0  0  0  0  0  0  0  0
   -2.8780    3.1750   -1.3530 C   0  0  2  0  0  0  0  0  0  0  0  0
   -3.0220    2.6020   -2.7570 C   0  0  0  0  0  0  0  0  0  0  0  0
   -1.9120    2.4050   -0.6460 N   0  0  0  0  0  0  0  0  0  0  0  0
   -2.4410    1.1210   -0.3730 N   0  0  0  0  0  0  0  0  0  0  0  0
  1  2  1  0
  3  2  1  1
  3  4  1  0
  3 10  1  0
  5  4  1  6
  5  6  1  0
  5  9  1  0
  6  7  2  0
  7  8  1  0
  8  9  1  0
 11 10  1  1
 11 12  1  0
 11 31  1  0
 11 47  1  0
 12 13  1  0
 13 14  1  0
 14 15  2  0
 14 16  1  0
 16 17  2  0
 16 22  1  0
 17 18  1  0
 18 19  2  0
 19 20  1  0
 20 21  1  0
 20 22  2  0
 22 23  1  0
 23 24  1  0
 25 24  1  1
 25 26  1  0
 25 30  1  0
 26 27  1  0
 27 28  1  0
 28 29  1  0
 29 30  1  0
 31 32  1  0
 32 33  1  0
 33 34  2  0
 33 35  1  0
 35 36  1  0
 36 37  1  0
 37 38  1  0
 38 39  2  0
 38 43  1  0
 39 40  1  0
 40 41  2  0
 41 42  1  0
 42 43  2  0
 43 44  1  0
 44 45  1  6
 44 46  1  0
 46 47  1  0
M  CHG  1  46   1
M  END
