
     RDKit          3D

 47 49  0  0  0  0  0  0  0  0999 V2000
   11.5690   -0.2390    2.0050 C   0  0  0  0  0  0  0  0  0  0  0  0
   10.8100   -1.3150    1.2420 C   0  0  1  0  0  0  0  0  0  0  0  0
   11.2480   -2.6510    1.8020 C   0  0  0  0  0  0  0  0  0  0  0  0
    9.3780   -1.2020    1.4840 N   0  0  0  0  0  0  0  0  0  0  0  0
    8.4230   -0.9400    0.4730 C   0  0  0  0  0  0  0  0  0  0  0  0
    8.8440   -0.7940   -0.7140 O   0  0  0  0  0  0  0  0  0  0  0  0
    6.9940   -0.8310    0.7330 C   0  0  0  0  0  0  0  0  0  0  0  0
    6.2400   -1.9420    1.0410 C   0  0  0  0  0  0  0  0  0  0  0  0
    4.8830   -1.8310    1.3000 C   0  0  0  0  0  0  0  0  0  0  0  0
    4.3010   -0.5590    1.2400 C   0  0  0  0  0  0  0  0  0  0  0  0
    5.0260    0.5650    0.9360 C   0  0  0  0  0  0  0  0  0  0  0  0
    4.4280    1.8800    0.8760 C   0  0  0  0  0  0  0  0  0  0  0  0
    4.6040    2.7780    1.9290 C   0  0  0  0  0  0  0  0  0  0  0  0
    4.0660    4.0460    1.9280 C   0  0  0  0  0  0  0  0  0  0  0  0
    3.3120    4.4770    0.8460 C   0  0  0  0  0  0  0  0  0  0  0  0
    3.1290    3.6120   -0.1940 C   0  0  0  0  0  0  0  0  0  0  0  0
    3.6800    2.3220   -0.1840 C   0  0  0  0  0  0  0  0  0  0  0  0
    3.4720    1.4320   -1.3230 C   0  0  0  0  0  0  0  0  0  0  0  0
    4.5440    1.1850   -2.1680 C   0  0  0  0  0  0  0  0  0  0  0  0
    4.3190    0.3570   -3.2460 C   0  0  0  0  0  0  0  0  0  0  0  0
    3.1070   -0.2080   -3.4960 C   0  0  0  0  0  0  0  0  0  0  0  0
    2.0500    0.0590   -2.6270 C   0  0  0  0  0  0  0  0  0  0  0  0
    2.2180    0.8790   -1.5320 C   0  0  0  0  0  0  0  0  0  0  0  0
    1.1710    1.1760   -0.5510 C   0  0  0  0  0  0  0  0  0  0  0  0
   -0.0770    0.5770   -0.8860 N   0  0  0  0  0  0  0  0  0  0  0  0
   -1.1690    0.6880    0.0500 C   0  0  0  0  0  0  0  0  0  0  0  0
   -0.9640    1.2930    1.1070 O   0  0  0  0  0  0  0  0  0  0  0  0
   -2.4260    0.1390   -0.2050 N   0  0  0  0  0  0  0  0  0  0  0  0
   -3.5580    0.1520    0.5890 N   0  0  0  0  0  0  0  0  0  0  0  0
   -4.0270    1.1750    1.4200 C   0  0  0  0  0  0  0  0  0  0  0  0
   -3.3220    2.2370    1.4780 O   0  0  0  0  0  0  0  0  0  0  0  0
   -5.2760    1.0910    2.2280 C   0  0  0  0  0  0  0  0  0  0  0  0
   -5.9720   -0.1330    1.9360 N   0  0  0  0  0  0  0  0  0  0  0  0
   -6.4690   -0.3050    0.5910 C   0  0  0  0  0  0  0  0  0  0  0  0
   -6.2860    0.6060   -0.2260 O   0  0  0  0  0  0  0  0  0  0  0  0
   -7.1610   -1.5420    0.2580 C   0  0  0  0  0  0  0  0  0  0  0  0
   -7.7160   -1.6300   -1.1070 C   0  0  1  0  0  0  0  0  0  0  0  0
   -8.3520   -2.9940   -1.2740 C   0  0  0  0  0  0  0  0  0  0  0  0
   -7.1870   -3.9450   -1.0980 C   0  0  0  0  0  0  0  0  0  0  0  0
   -6.3090   -4.6670   -0.9720 N   0  0  0  0  0  0  0  0  0  0  0  0
   -8.4150   -0.4900   -1.6990 C   0  0  0  0  0  0  0  0  0  0  0  0
   -9.6150    0.0930   -1.0730 C   0  0  1  0  0  0  0  0  0  0  0  0
  -10.0310    1.2850   -1.9810 C   0  0  0  0  0  0  0  0  0  0  0  0
  -10.8260   -0.8120   -1.0780 C   0  0  0  0  0  0  0  0  0  0  0  0
  -11.9850   -0.1770   -0.4770 C   0  0  0  0  0  0  0  0  0  0  0  0
  -12.9310    0.3550    0.0300 N   0  0  0  0  0  0  0  0  0  0  0  0
    6.3940    0.4180    0.6790 C   0  0  0  0  0  0  0  0  0  0  0  0
  2  1  1  1
  2  3  1  0
  2  4  1  0
  4  5  1  0
  5  6  2  0
  5  7  1  0
  7  8  2  0
  7 47  1  0
  8  9  1  0
  9 10  2  0
 10 11  1  0
 11 12  1  0
 11 47  2  0
 12 13  2  0
 12 17  1  0
 13 14  1  0
 14 15  2  0
 15 16  1  0
 16 17  2  0
 17 18  1  0
 18 19  2  0
 18 23  1  0
 19 20  1  0
 20 21  2  0
 21 22  1  0
 22 23  2  0
 23 24  1  0
 24 25  1  0
 25 26  1  0
 26 27  2  0
 26 28  1  0
 28 29  1  0
 29 30  1  0
 30 31  2  0
 30 32  1  0
 32 33  1  0
 33 34  1  0
 34 35  2  0
 34 36  1  0
 37 36  1  1
 37 38  1  0
 37 41  1  0
 38 39  1  0
 39 40  3  0
 41 42  1  0
 42 43  1  6
 42 44  1  0
 44 45  1  0
 45 46  3  0
M  END
