
     RDKit          3D

 48 52  0  0  0  0  0  0  0  0999 V2000
    9.3700    0.7220   -1.0220 C   0  0  0  0  0  0  0  0  0  0  0  0
    9.5410    1.2820    0.0090 C   0  0  0  0  0  0  0  0  0  0  0  0
    9.7340    1.9950    1.3260 C   0  0  0  0  0  0  0  0  0  0  0  0
    8.5160    2.2760    2.0780 C   0  0  0  0  0  0  0  0  0  0  0  0
    7.7650    1.2530    2.7480 N   0  0  0  0  0  0  0  0  0  0  0  0
    7.2710    0.1280    2.1380 C   0  0  0  0  0  0  0  0  0  0  0  0
    7.5180   -0.0930    0.9590 O   0  0  0  0  0  0  0  0  0  0  0  0
    6.4080   -0.8970    2.7470 N   0  0  0  0  0  0  0  0  0  0  0  0
    6.0250   -1.8840    1.7150 C   0  0  0  0  0  0  0  0  0  0  0  0
    6.9960   -2.6350    1.1520 C   0  0  0  0  0  0  0  0  0  0  0  0
    6.8120   -3.1430   -0.1780 C   0  0  0  0  0  0  0  0  0  0  0  0
    5.6840   -2.8550   -0.8400 C   0  0  0  0  0  0  0  0  0  0  0  0
    4.6810   -2.0970   -0.2490 C   0  0  0  0  0  0  0  0  0  0  0  0
    4.8560   -1.6050    1.0560 C   0  0  0  0  0  0  0  0  0  0  0  0
    3.5640   -1.7600   -1.0200 N   0  0  0  0  0  0  0  0  0  0  0  0
    2.2540   -1.6920   -0.4570 C   0  0  0  0  0  0  0  0  0  0  0  0
    1.5590   -2.7350   -0.5110 O   0  0  0  0  0  0  0  0  0  0  0  0
    1.7850   -0.5050    0.1020 N   0  0  0  0  0  0  0  0  0  0  0  0
    0.4650   -0.1680    0.5740 C   0  0  0  0  0  0  0  0  0  0  0  0
    0.2010    0.9280    1.1030 C   0  0  0  0  0  0  0  0  0  0  0  0
   -1.0650    1.5180    1.3220 C   0  0  0  0  0  0  0  0  0  0  0  0
   -2.1390    0.6560    0.8110 C   0  0  0  0  0  0  0  0  0  0  0  0
   -1.9570   -0.5130    0.2440 C   0  0  0  0  0  0  0  0  0  0  0  0
   -0.5860   -1.0190    0.0960 C   0  0  0  0  0  0  0  0  0  0  0  0
   -2.9080   -1.4910   -0.3450 C   0  0  0  0  0  0  0  0  0  0  0  0
   -3.1010   -2.4850    0.4880 O   0  0  0  0  0  0  0  0  0  0  0  0
   -3.6820   -1.6520   -1.5800 C   0  0  0  0  0  0  0  0  0  0  0  0
   -5.1010   -1.2660   -1.6600 C   0  0  0  0  0  0  0  0  0  0  0  0
   -5.7210   -0.9220   -0.4300 N   0  0  0  0  0  0  0  0  0  0  0  0
   -6.9260   -0.5180    0.0400 C   0  0  0  0  0  0  0  0  0  0  0  0
   -7.6390   -1.4630    0.9160 C   0  0  0  0  0  0  0  0  0  0  0  0
   -8.7610   -1.3810    1.4880 C   0  0  0  0  0  0  0  0  0  0  0  0
   -9.6090   -0.1950    1.3450 C   0  0  0  0  0  0  0  0  0  0  0  0
   -8.9290    0.7370    0.4960 C   0  0  0  0  0  0  0  0  0  0  0  0
   -7.7560    0.6260   -0.0770 C   0  0  0  0  0  0  0  0  0  0  0  0
   -7.2160    1.9750   -0.6520 C   0  0  1  0  0  0  0  0  0  0  0  0
   -6.8620    2.7730    0.5430 C   0  0  0  0  0  0  0  0  0  0  0  0
   -6.3990    4.0810    0.4170 C   0  0  0  0  0  0  0  0  0  0  0  0
   -6.0040    5.1860    0.3160 N   0  0  0  0  0  0  0  0  0  0  0  0
   -6.5430    1.9440   -1.8470 N   0  0  0  0  0  0  0  0  0  0  0  0
   -5.1410    1.9980   -2.1710 C   0  0  0  0  0  0  0  0  0  0  0  0
   -4.9570    2.2600   -3.4430 O   0  0  0  0  0  0  0  0  0  0  0  0
   -4.0530    1.8060   -1.3330 N   0  0  0  0  0  0  0  0  0  0  0  0
   -3.5330    2.4330   -0.1800 C   0  0  0  0  0  0  0  0  0  0  0  0
   -3.3940    1.4920    1.0300 C   0  0  0  0  0  0  0  0  0  0  0  0
    3.7330   -1.3100   -2.4320 C   0  0  0  0  0  0  0  0  0  0  0  0
    5.1440   -1.6240   -2.8810 C   0  0  0  0  0  0  0  0  0  0  0  0
    5.5170   -3.0640   -2.3270 C   0  0  0  0  0  0  0  0  0  0  0  0
  1  2  3  0
  2  3  1  0
  3  4  1  0
  4  5  1  0
  5  6  1  0
  6  7  2  0
  6  8  1  0
  8  9  1  0
  9 10  2  0
  9 14  1  0
 10 11  1  0
 11 12  2  0
 12 13  1  0
 12 48  1  0
 13 14  2  0
 13 15  1  0
 15 16  1  0
 15 46  1  0
 16 17  2  0
 16 18  1  0
 18 19  1  0
 19 20  2  0
 19 24  1  0
 20 21  1  0
 21 22  2  0
 22 23  1  0
 22 45  1  0
 23 24  2  0
 23 25  1  0
 25 26  2  0
 25 27  1  0
 27 28  1  0
 28 29  1  0
 29 30  1  0
 30 31  2  0
 30 35  1  0
 31 32  1  0
 32 33  2  0
 33 34  1  0
 34 35  2  0
 35 36  1  0
 36 37  1  1
 36 40  1  0
 37 38  1  0
 38 39  3  0
 40 41  1  0
 41 42  2  0
 41 43  1  0
 43 44  1  0
 44 45  1  0
 46 47  1  0
 47 48  1  0
M  END
