
     RDKit          3D

 33 35  0  0  0  0  0  0  0  0999 V2000
    0.8290    1.4180    1.6340 O   0  0  0  0  0  0  0  0  0  0  0  0
    1.1370    1.1360    0.4390 C   0  0  0  0  0  0  0  0  0  0  0  0
    2.4490    1.3850    0.0240 N   0  0  0  0  0  0  0  0  0  0  0  0
    3.4470    1.9410    0.9080 C   0  0  0  0  0  0  0  0  0  0  0  0
    3.7180    1.0750    2.0910 C   0  0  0  0  0  0  0  0  0  0  0  0
    4.2140   -0.3010    1.7150 C   0  0  0  0  0  0  0  0  0  0  0  0
    5.4340   -0.2710    0.9690 N   0  0  2  0  0  0  0  0  0  0  0  0
    5.6750   -1.6270    0.4710 C   0  0  0  0  0  0  0  0  0  0  0  0
    6.7490   -1.5290   -0.5800 C   0  0  0  0  0  0  0  0  0  0  0  0
    7.6630   -0.5190   -0.2600 O   0  0  0  0  0  0  0  0  0  0  0  0
    7.8600   -0.4620    1.1140 C   0  0  0  0  0  0  0  0  0  0  0  0
    6.5940    0.0920    1.7530 C   0  0  0  0  0  0  0  0  0  0  0  0
    0.1570    0.5690   -0.4780 C   0  0  0  0  0  0  0  0  0  0  0  0
   -1.1930    0.4960   -0.1180 C   0  0  0  0  0  0  0  0  0  0  0  0
   -2.1500   -0.0330   -0.9480 C   0  0  0  0  0  0  0  0  0  0  0  0
   -3.4790   -0.1210   -0.6290 O   0  0  0  0  0  0  0  0  0  0  0  0
   -4.0650    0.2960    0.5480 C   0  0  1  0  0  0  0  0  0  0  0  0
   -5.0310    1.2900    0.3660 O   0  0  0  0  0  0  0  0  0  0  0  0
   -6.0610    0.8650   -0.4650 C   0  0  2  0  0  0  0  0  0  0  0  0
   -6.9940    2.0420   -0.6650 C   0  0  0  0  0  0  0  0  0  0  0  0
   -6.2480    3.0600   -1.2530 O   0  0  0  0  0  0  0  0  0  0  0  0
   -6.8100   -0.3150    0.1340 C   0  0  2  0  0  0  0  0  0  0  0  0
   -7.3050   -0.0270    1.3980 O   0  0  0  0  0  0  0  0  0  0  0  0
   -5.7750   -1.4230    0.3110 C   0  0  2  0  0  0  0  0  0  0  0  0
   -6.3680   -2.5910    0.7840 O   0  0  0  0  0  0  0  0  0  0  0  0
   -4.7440   -0.8760    1.2810 C   0  0  1  0  0  0  0  0  0  0  0  0
   -3.8210   -1.8290    1.6540 O   0  0  0  0  0  0  0  0  0  0  0  0
   -1.7280   -0.5110   -2.1980 C   0  0  0  0  0  0  0  0  0  0  0  0
   -0.4280   -0.4360   -2.5350 C   0  0  0  0  0  0  0  0  0  0  0  0
    0.0060   -0.9220   -3.8100 N   0  0  0  0  0  0  0  0  0  0  0  0
    1.1900   -0.8790   -4.1760 O   0  0  0  0  0  0  0  0  0  0  0  0
   -0.9210   -1.4530   -4.6540 O   0  0  0  0  0  0  0  0  0  0  0  0
    0.5310    0.0960   -1.6980 C   0  0  0  0  0  0  0  0  0  0  0  0
  1  2  2  0
  2  3  1  0
  2 13  1  0
  3  4  1  0
  4  5  1  0
  5  6  1  0
  7  6  1  1
  7  8  1  0
  7 12  1  0
  8  9  1  0
  9 10  1  0
 10 11  1  0
 11 12  1  0
 13 14  2  0
 13 33  1  0
 14 15  1  0
 15 16  1  0
 15 28  2  0
 17 16  1  6
 17 18  1  0
 17 26  1  0
 18 19  1  0
 19 20  1  1
 19 22  1  0
 20 21  1  0
 22 23  1  1
 22 24  1  0
 24 25  1  1
 24 26  1  0
 26 27  1  6
 28 29  1  0
 29 30  1  0
 29 33  2  0
 30 31  2  0
 30 32  1  0
M  CHG  3   7   1  30   1  32  -1
M  END
