
     RDKit          3D

 46 49  0  0  0  0  0  0  0  0999 V2000
    6.6520   -3.6710    2.8240 C   0  0  0  0  0  0  0  0  0  0  0  0
    5.5790   -2.9240    2.1220 C   0  0  0  0  0  0  0  0  0  0  0  0
    4.4970   -3.4990    1.4660 C   0  0  0  0  0  0  0  0  0  0  0  0
    3.7780   -2.4520    0.8320 C   0  0  0  0  0  0  0  0  0  0  0  0
    2.5630   -2.8030    0.0010 C   0  0  0  0  0  0  0  0  0  0  0  0
    2.7050   -3.9700   -0.7620 C   0  0  0  0  0  0  0  0  0  0  0  0
    1.0720   -4.2530   -1.4500 S   0  0  0  0  0  0  0  0  0  0  0  0
    0.3080   -2.7400   -0.6750 C   0  0  0  0  0  0  0  0  0  0  0  0
   -1.0870   -2.5900   -0.9470 C   0  0  0  0  0  0  0  0  0  0  0  0
   -1.8750   -3.3150   -1.3290 O   0  0  0  0  0  0  0  0  0  0  0  0
   -1.6080   -0.9420   -0.6420 N   0  0  0  0  0  0  0  0  0  0  0  0
   -2.9030   -1.0970   -1.0950 C   0  0  0  0  0  0  0  0  0  0  0  0
   -3.2820   -1.7980   -1.9410 O   0  0  0  0  0  0  0  0  0  0  0  0
   -3.7880   -0.1990   -0.3500 N   0  0  0  0  0  0  0  0  0  0  0  0
   -5.1530   -0.0050   -0.5790 C   0  0  1  0  0  0  0  0  0  0  0  0
   -5.8360   -1.3190   -1.2240 C   0  0  0  0  0  0  0  0  0  0  0  0
   -7.2830   -0.9380   -1.3420 C   0  0  1  0  0  0  0  0  0  0  0  0
   -8.0390   -2.1330   -1.9440 C   0  0  0  0  0  0  0  0  0  0  0  0
   -7.9290   -0.5920    0.0210 C   0  0  0  0  0  0  0  0  0  0  0  0
   -7.2870    0.4650    0.7810 C   0  0  1  0  0  0  0  0  0  0  0  0
   -7.4660    1.8100    0.3600 N   0  0  0  0  0  0  0  0  0  0  0  0
   -8.6930    2.3310    0.1460 C   0  0  1  0  0  0  0  0  0  0  0  0
   -8.4930    3.8720    0.1960 C   0  0  0  0  0  0  0  0  0  0  0  0
   -9.2780    2.0770   -1.2420 C   0  0  0  0  0  0  0  0  0  0  0  0
   -9.7900    2.0910    1.1450 C   0  0  0  0  0  0  0  0  0  0  0  0
   -7.5010    0.2840    2.2380 C   0  0  0  0  0  0  0  0  0  0  0  0
   -7.3600   -1.0040    2.7750 N   0  0  0  0  0  0  0  0  0  0  0  0
   -7.7800    1.2310    2.9660 O   0  0  0  0  0  0  0  0  0  0  0  0
   -5.7570    0.1910    0.6940 C   0  0  0  0  0  0  0  0  0  0  0  0
    1.3380   -2.2520   -0.0090 C   0  0  0  0  0  0  0  0  0  0  0  0
    4.3540   -1.3340    1.0740 C   0  0  0  0  0  0  0  0  0  0  0  0
    4.3740    0.0340    0.6360 C   0  0  0  0  0  0  0  0  0  0  0  0
    4.5670    0.9490    1.5390 O   0  0  0  0  0  0  0  0  0  0  0  0
    4.2440    0.4670   -0.6960 N   0  0  0  0  0  0  0  0  0  0  0  0
    4.5360    1.9280   -0.9210 C   0  0  0  0  0  0  0  0  0  0  0  0
    6.0730    1.8630   -0.7210 C   0  0  0  0  0  0  0  0  0  0  0  0
    6.7750    2.6840    0.1160 C   0  0  0  0  0  0  0  0  0  0  0  0
    8.1600    2.4450    0.2010 C   0  0  0  0  0  0  0  0  0  0  0  0
    8.8250    1.4820   -0.4890 C   0  0  0  0  0  0  0  0  0  0  0  0
   10.3020    1.3650   -0.4330 C   0  0  1  0  0  0  0  0  0  0  0  0
   10.8300    0.2060   -1.2310 C   0  0  0  0  0  0  0  0  0  0  0  0
   10.8830    2.6520   -1.0800 C   0  0  0  0  0  0  0  0  0  0  0  0
   10.8940    1.2370    0.9470 C   0  0  0  0  0  0  0  0  0  0  0  0
    8.0680    0.6740   -1.3250 C   0  0  0  0  0  0  0  0  0  0  0  0
    6.7150    0.8730   -1.4310 C   0  0  0  0  0  0  0  0  0  0  0  0
    5.4980   -1.6440    1.9000 N   0  0  0  0  0  0  0  0  0  0  0  0
  1  2  1  0
  2  3  2  0
  2 46  1  0
  3  4  1  0
  4  5  1  0
  4 31  2  0
  5  6  2  0
  5 30  1  0
  6  7  1  0
  7  8  1  0
  8  9  1  0
  8 30  2  0
  9 10  2  0
  9 11  1  0
 11 12  1  0
 12 13  2  0
 12 14  1  0
 15 14  1  1
 15 16  1  0
 15 29  1  0
 16 17  1  0
 17 18  1  1
 17 19  1  0
 19 20  1  0
 20 21  1  6
 20 26  1  0
 20 29  1  0
 21 22  1  0
 22 23  1  6
 22 24  1  0
 22 25  1  0
 26 27  1  0
 26 28  2  0
 31 32  1  0
 31 46  1  0
 32 33  2  0
 32 34  1  0
 34 35  1  0
 35 36  1  0
 36 37  2  0
 36 45  1  0
 37 38  1  0
 38 39  2  0
 39 40  1  0
 39 44  1  0
 40 41  1  6
 40 42  1  0
 40 43  1  0
 44 45  2  0
M  CHG  1  21   1
M  END
