
     RDKit          3D

 46 50  0  0  0  0  0  0  0  0999 V2000
   -3.8950   -2.4290   -3.8560 C   0  0  0  0  0  0  0  0  0  0  0  0
   -3.1190   -1.1580   -3.6700 C   0  0  0  0  0  0  0  0  0  0  0  0
   -3.0440   -0.6950   -2.3620 O   0  0  0  0  0  0  0  0  0  0  0  0
   -4.1680   -0.3420   -1.6480 C   0  0  0  0  0  0  0  0  0  0  0  0
   -5.4160   -0.4240   -2.2140 C   0  0  0  0  0  0  0  0  0  0  0  0
   -6.5410   -0.0750   -1.5170 C   0  0  0  0  0  0  0  0  0  0  0  0
   -6.3970    0.3640   -0.2220 C   0  0  0  0  0  0  0  0  0  0  0  0
   -5.1260    0.4510    0.3640 C   0  0  0  0  0  0  0  0  0  0  0  0
   -3.9950    0.1050   -0.3270 C   0  0  0  0  0  0  0  0  0  0  0  0
   -2.6200    0.1570    0.1540 C   0  0  0  0  0  0  0  0  0  0  0  0
   -2.3900    0.6020    1.4860 N   0  0  0  0  0  0  0  0  0  0  0  0
   -1.7960   -0.3770    2.3250 C   0  0  0  0  0  0  0  0  0  0  0  0
   -0.3050   -0.3530    2.4970 C   0  0  2  0  0  0  0  0  0  0  0  0
    0.2020    0.9150    3.0770 C   0  0  0  0  0  0  0  0  0  0  0  0
    1.6530    1.0420    3.3250 C   0  0  0  0  0  0  0  0  0  0  0  0
    2.5120    0.9070    2.1470 N   0  0  0  0  0  0  0  0  0  0  0  0
    3.3000   -0.2660    1.9750 C   0  0  0  0  0  0  0  0  0  0  0  0
    3.1510   -1.2390    2.9450 N   0  0  0  0  0  0  0  0  0  0  0  0
    3.7730   -2.4080    2.9170 C   0  0  0  0  0  0  0  0  0  0  0  0
    3.6120   -3.3460    3.8810 N   0  0  0  0  0  0  0  0  0  0  0  0
    4.2440   -4.5300    3.8550 C   0  0  0  0  0  0  0  0  0  0  0  0
    4.0490   -5.4970    4.8960 N   0  0  0  0  0  0  0  0  0  0  0  0
    5.0860   -4.7780    2.7920 C   0  0  0  0  0  0  0  0  0  0  0  0
    5.2710   -3.8280    1.7820 C   0  0  0  0  0  0  0  0  0  0  0  0
    4.6020   -2.6260    1.8480 C   0  0  0  0  0  0  0  0  0  0  0  0
    4.7820   -1.6710    0.8500 C   0  0  0  0  0  0  0  0  0  0  0  0
    4.1240   -0.4390    0.8850 C   0  0  0  0  0  0  0  0  0  0  0  0
    4.3660    0.5910   -0.0950 C   0  0  0  0  0  0  0  0  0  0  0  0
    3.8800    1.7640    0.1860 O   0  0  0  0  0  0  0  0  0  0  0  0
    5.0330    0.5390   -1.3020 N   0  0  0  0  0  0  0  0  0  0  0  0
    5.6460   -0.5760   -1.9270 C   0  0  0  0  0  0  0  0  0  0  0  0
    5.1380    1.8110   -2.0660 C   0  0  0  0  0  0  0  0  0  0  0  0
    6.3860    2.5410   -1.7470 C   0  0  0  0  0  0  0  0  0  0  0  0
    6.3980    3.5980   -0.8790 C   0  0  0  0  0  0  0  0  0  0  0  0
    7.5610    4.3090   -0.5690 C   0  0  0  0  0  0  0  0  0  0  0  0
    8.7680    3.9470   -1.1540 C   0  0  0  0  0  0  0  0  0  0  0  0
    8.7460    2.8850   -2.0230 C   0  0  0  0  0  0  0  0  0  0  0  0
    7.6040    2.1790   -2.3330 C   0  0  0  0  0  0  0  0  0  0  0  0
    0.3680   -0.7440    1.2090 C   0  0  0  0  0  0  0  0  0  0  0  0
    0.5550    0.1840    0.1540 N   0  0  0  0  0  0  0  0  0  0  0  0
    0.7830   -1.9250    1.0410 O   0  0  0  0  0  0  0  0  0  0  0  0
   -7.6410    0.7360    0.4900 C   0  0  0  0  0  0  0  0  0  0  0  0
   -8.4200    1.7070   -0.3910 C   0  0  2  0  0  0  0  0  0  0  0  0
   -9.6840    2.0960    0.1870 N   0  0  0  0  0  0  0  0  0  0  0  0
   -8.5600    1.2180   -1.7930 C   0  0  0  0  0  0  0  0  0  0  0  0
   -7.9260   -0.1290   -2.0520 C   0  0  0  0  0  0  0  0  0  0  0  0
  1  2  1  0
  2  3  1  0
  3  4  1  0
  4  5  2  0
  4  9  1  0
  5  6  1  0
  6  7  2  0
  6 46  1  0
  7  8  1  0
  7 42  1  0
  8  9  2  0
  9 10  1  0
 10 11  1  0
 11 12  1  0
 13 12  1  6
 13 14  1  0
 13 39  1  0
 14 15  1  0
 15 16  1  0
 16 17  1  0
 17 18  2  0
 17 27  1  0
 18 19  1  0
 19 20  2  0
 19 25  1  0
 20 21  1  0
 21 22  1  0
 21 23  2  0
 23 24  1  0
 24 25  2  0
 25 26  1  0
 26 27  2  0
 27 28  1  0
 28 29  2  0
 28 30  1  0
 30 31  1  0
 30 32  1  0
 32 33  1  0
 33 34  2  0
 33 38  1  0
 34 35  1  0
 35 36  2  0
 36 37  1  0
 37 38  2  0
 39 40  1  0
 39 41  2  0
 42 43  1  0
 43 44  1  1
 43 45  1  0
 45 46  1  0
M  CHG  2  11   1  44   1
M  END
