
     RDKit          3D

 47 52  0  0  0  0  0  0  0  0999 V2000
   -5.3570   -4.3000    1.7250 C   0  0  0  0  0  0  0  0  0  0  0  0
   -4.4630   -3.4630    0.8970 C   0  0  0  0  0  0  0  0  0  0  0  0
   -3.9760   -4.0170   -0.1390 O   0  0  0  0  0  0  0  0  0  0  0  0
   -4.1400   -2.1020    1.2180 N   0  0  0  0  0  0  0  0  0  0  0  0
   -3.2600   -1.4270    0.3250 C   0  0  0  0  0  0  0  0  0  0  0  0
   -2.9510   -0.0190    0.7010 C   0  0  2  0  0  0  0  0  0  0  0  0
   -4.1890    0.7360    0.7320 N   0  0  0  0  0  0  0  0  0  0  0  0
   -4.8550    0.8730   -0.5160 C   0  0  2  0  0  0  0  0  0  0  0  0
   -5.2200    2.2470   -0.8740 C   0  0  0  0  0  0  0  0  0  0  0  0
   -6.4610    2.5080   -1.3790 C   0  0  0  0  0  0  0  0  0  0  0  0
   -6.8180    3.8100   -1.7190 C   0  0  0  0  0  0  0  0  0  0  0  0
   -5.9400    4.8070   -1.5480 N   0  0  0  0  0  0  0  0  0  0  0  0
   -4.6990    4.6000   -1.0520 C   0  0  0  0  0  0  0  0  0  0  0  0
   -4.3480    3.3120   -0.7160 C   0  0  0  0  0  0  0  0  0  0  0  0
   -6.0790    0.0380   -0.6180 C   0  0  0  0  0  0  0  0  0  0  0  0
   -6.9480    0.0380    0.4600 C   0  0  0  0  0  0  0  0  0  0  0  0
   -8.1240   -0.7240    0.4340 C   0  0  0  0  0  0  0  0  0  0  0  0
   -8.4000   -1.4750   -0.6850 C   0  0  0  0  0  0  0  0  0  0  0  0
   -7.5530   -1.4940   -1.7740 C   0  0  0  0  0  0  0  0  0  0  0  0
   -7.8980   -2.3150   -2.9770 C   0  0  0  0  0  0  0  0  0  0  0  0
   -6.3980   -0.7240   -1.7060 C   0  0  0  0  0  0  0  0  0  0  0  0
   -1.9110    0.6210   -0.1640 C   0  0  0  0  0  0  0  0  0  0  0  0
   -0.6370   -0.2180   -0.1570 C   0  0  0  0  0  0  0  0  0  0  0  0
   -0.1190   -0.1550    1.1760 N   0  0  0  0  0  0  0  0  0  0  0  0
    1.2740    0.1110    1.4530 C   0  0  0  0  0  0  0  0  0  0  0  0
    1.5360    0.2850    2.6730 O   0  0  0  0  0  0  0  0  0  0  0  0
    2.2920    0.1800    0.5080 N   0  0  0  0  0  0  0  0  0  0  0  0
    3.6840    0.4720    0.7010 C   0  0  1  0  0  0  0  0  0  0  0  0
    3.9470    0.8070    2.1610 C   0  0  0  0  0  0  0  0  0  0  0  0
    4.5400   -0.6140    0.1790 C   0  0  0  0  0  0  0  0  0  0  0  0
    6.0020   -0.3950    0.3370 C   0  0  0  0  0  0  0  0  0  0  0  0
    6.6420   -0.9970    1.4040 C   0  0  0  0  0  0  0  0  0  0  0  0
    7.9680   -0.8020    1.6060 C   0  0  0  0  0  0  0  0  0  0  0  0
    8.8490   -1.2780    2.5830 C   0  0  0  0  0  0  0  0  0  0  0  0
   10.0630   -0.7810    2.3210 N   0  0  0  0  0  0  0  0  0  0  0  0
    9.9970    0.0010    1.2090 C   0  0  0  0  0  0  0  0  0  0  0  0
    8.6750   -0.0040    0.7470 C   0  0  0  0  0  0  0  0  0  0  0  0
    8.0420    0.6010   -0.3220 C   0  0  0  0  0  0  0  0  0  0  0  0
    6.6790    0.4100   -0.5440 C   0  0  0  0  0  0  0  0  0  0  0  0
    6.0480    1.0380   -1.6780 N   0  0  0  0  0  0  0  0  0  0  0  0
    6.8190    1.8340   -2.5430 C   0  0  0  0  0  0  0  0  0  0  0  0
    6.2590    2.3910   -3.5490 O   0  0  0  0  0  0  0  0  0  0  0  0
    8.2070    2.0250   -2.3130 N   0  0  0  0  0  0  0  0  0  0  0  0
    8.8830    1.4360   -1.1910 C   0  0  2  0  0  0  0  0  0  0  0  0
    9.9950    0.5440   -1.7490 C   0  0  0  0  0  0  0  0  0  0  0  0
   -1.0200   -0.4470    2.2740 C   0  0  0  0  0  0  0  0  0  0  0  0
   -2.4120    0.0260    2.1230 C   0  0  0  0  0  0  0  0  0  0  0  0
  1  2  1  0
  2  3  2  0
  2  4  1  0
  4  5  1  0
  6  5  1  6
  6  7  1  0
  6 22  1  0
  6 47  1  0
  8  7  1  1
  8  9  1  0
  8 15  1  0
  9 10  2  0
  9 14  1  0
 10 11  1  0
 11 12  2  0
 12 13  1  0
 13 14  2  0
 15 16  2  0
 15 21  1  0
 16 17  1  0
 17 18  2  0
 18 19  1  0
 19 20  1  0
 19 21  2  0
 22 23  1  0
 23 24  1  0
 24 25  1  0
 24 46  1  0
 25 26  2  0
 25 27  1  0
 27 28  1  0
 28 29  1  1
 28 30  1  0
 30 31  1  0
 31 32  2  0
 31 39  1  0
 32 33  1  0
 33 34  2  0
 33 37  1  0
 34 35  1  0
 35 36  1  0
 36 37  2  0
 37 38  1  0
 38 39  2  0
 38 44  1  0
 39 40  1  0
 40 41  1  0
 41 42  2  0
 41 43  1  0
 43 44  1  0
 44 45  1  6
 46 47  1  0
M  CHG  1   7   1
M  END
