
     RDKit          3D

 22 25  0  0  0  0  0  0  0  0999 V2000
    6.9480    0.7040   -0.2160 C   0  0  0  0  0  0  0  0  0  0  0  0
    5.6630    0.4080    0.1270 C   0  0  0  0  0  0  0  0  0  0  0  0
    4.6240    0.8080   -0.7620 C   0  0  0  0  0  0  0  0  0  0  0  0
    3.3520    0.6880   -0.7400 C   0  0  0  0  0  0  0  0  0  0  0  0
    2.5100    0.0750    0.2490 C   0  0  0  0  0  0  0  0  0  0  0  0
    2.7990   -0.5310    1.3990 N   0  0  0  0  0  0  0  0  0  0  0  0
    1.6560   -0.9480    1.9850 N   0  0  0  0  0  0  0  0  0  0  0  0
    0.6230   -0.6150    1.2180 C   0  0  0  0  0  0  0  0  0  0  0  0
    1.0940    0.0330    0.1070 C   0  0  0  0  0  0  0  0  0  0  0  0
    0.2430    0.4750   -0.8300 N   0  0  0  0  0  0  0  0  0  0  0  0
   -1.0910    0.2700   -0.6600 C   0  0  0  0  0  0  0  0  0  0  0  0
   -1.9470    0.7560   -1.6790 N   0  0  0  0  0  0  0  0  0  0  0  0
   -3.3820    0.5820   -1.5830 C   0  0  0  0  0  0  0  0  0  0  0  0
   -4.1490    1.0340   -2.5260 C   0  0  0  0  0  0  0  0  0  0  0  0
   -3.8980   -0.1050   -0.4090 C   0  0  0  0  0  0  0  0  0  0  0  0
   -5.1990   -0.2840   -0.2810 C   0  0  0  0  0  0  0  0  0  0  0  0
   -2.9810   -0.5920    0.6220 C   0  0  0  0  0  0  0  0  0  0  0  0
   -3.4370   -1.2400    1.7340 C   0  0  0  0  0  0  0  0  0  0  0  0
   -2.5110   -1.6830    2.6850 C   0  0  0  0  0  0  0  0  0  0  0  0
   -1.2160   -1.4590    2.4760 N   0  0  0  0  0  0  0  0  0  0  0  0
   -0.7390   -0.8290    1.4000 C   0  0  0  0  0  0  0  0  0  0  0  0
   -1.6100   -0.3770    0.4400 C   0  0  0  0  0  0  0  0  0  0  0  0
  1  2  2  0
  2  3  1  0
  3  4  2  3
  4  5  1  0
  5  6  1  0
  5  9  2  0
  6  7  1  0
  7  8  2  0
  8  9  1  0
  8 21  1  0
  9 10  1  0
 10 11  2  0
 11 12  1  0
 11 22  1  0
 12 13  1  0
 13 14  2  0
 13 15  1  0
 15 16  2  0
 15 17  1  0
 17 18  1  0
 17 22  2  0
 18 19  2  0
 19 20  1  0
 20 21  2  0
 21 22  1  0
M  END
