
     RDKit          3D

 22 25  0  0  0  0  0  0  0  0999 V2000
    3.4300   -2.4590    0.8630 C   0  0  0  0  0  0  0  0  0  0  0  0
    3.2610   -3.4810    0.1030 N   0  0  0  0  0  0  0  0  0  0  0  0
    2.7440   -3.0440   -1.1550 C   0  0  0  0  0  0  0  0  0  0  0  0
    2.6310   -1.5780   -1.0220 C   0  0  0  0  0  0  0  0  0  0  0  0
    3.0430   -1.2280    0.1900 C   0  0  0  0  0  0  0  0  0  0  0  0
    3.0900    0.1040    0.7130 N   0  0  0  0  0  0  0  0  0  0  0  0
    2.1620    1.0920    0.2810 C   0  0  0  0  0  0  0  0  0  0  0  0
    0.8640    0.8310    0.2020 C   0  0  0  0  0  0  0  0  0  0  0  0
    0.3080   -0.4220    0.5320 N   0  0  0  0  0  0  0  0  0  0  0  0
   -0.9600   -0.6480    0.4440 C   0  0  0  0  0  0  0  0  0  0  0  0
   -1.5270   -1.9620    0.7930 C   0  0  0  0  0  0  0  0  0  0  0  0
   -0.8540   -3.0810    1.2360 C   0  0  0  0  0  0  0  0  0  0  0  0
   -1.7890   -4.0840    1.4390 C   0  0  0  0  0  0  0  0  0  0  0  0
   -2.9970   -3.5940    1.1290 N   0  0  0  0  0  0  0  0  0  0  0  0
   -2.8550   -2.3180    0.7380 C   0  0  0  0  0  0  0  0  0  0  0  0
   -1.8800    0.3930   -0.0060 C   0  0  0  0  0  0  0  0  0  0  0  0
   -1.4350    1.5890   -0.3320 C   0  0  0  0  0  0  0  0  0  0  0  0
   -2.3760    2.6280   -0.7840 C   0  0  0  0  0  0  0  0  0  0  0  0
   -1.8650    3.9530   -0.2010 C   0  0  0  0  0  0  0  0  0  0  0  0
   -0.5430    4.1990   -0.9020 C   0  0  0  0  0  0  0  0  0  0  0  0
    0.4570    3.1530   -0.5910 C   0  0  0  0  0  0  0  0  0  0  0  0
   -0.0550    1.8570   -0.2430 N   0  0  0  0  0  0  0  0  0  0  0  0
  1  2  2  0
  1  5  1  0
  2  3  1  0
  3  4  1  0
  4  5  2  0
  5  6  1  0
  6  7  1  0
  7  8  2  3
  8  9  1  0
  8 22  1  0
  9 10  2  0
 10 11  1  0
 10 16  1  0
 11 12  1  0
 11 15  2  0
 12 13  2  0
 13 14  1  0
 14 15  1  0
 16 17  2  0
 17 18  1  0
 17 22  1  0
 18 19  1  0
 19 20  1  0
 20 21  1  0
 21 22  1  0
M  END
