
     RDKit          3D

  6  5  0  0  0  0  0  0  0  0999 V2000
    2.5910    0.6050    0.3760 C   0  0  0  0  0  0  0  0  0  0  0  0
    1.2630    0.4200    0.2130 C   0  0  0  0  0  0  0  0  0  0  0  0
    0.7320   -0.9060    0.0130 C   0  0  0  0  0  0  0  0  0  0  0  0
   -0.5050   -1.1770   -0.1500 C   0  0  0  0  0  0  0  0  0  0  0  0
   -1.7060   -0.3550   -0.1910 C   0  0  0  0  0  0  0  0  0  0  0  0
   -1.5920    1.0380   -0.0290 N   0  0  0  0  0  0  0  0  0  0  0  0
  1  2  2  0
  2  3  1  0
  3  4  2  3
  4  5  1  0
  5  6  1  0
M  END
