
     RDKit          3D

 22 25  0  0  0  0  0  0  0  0999 V2000
   -6.3170    1.2160    0.0120 C   0  0  0  0  0  0  0  0  0  0  0  0
   -5.2710    0.3890    0.1010 C   0  0  0  0  0  0  0  0  0  0  0  0
   -3.9160    0.8920    0.0310 C   0  0  0  0  0  0  0  0  0  0  0  0
   -2.9100    0.0430    0.1220 C   0  0  0  0  0  0  0  0  0  0  0  0
   -1.6240    0.5350    0.0540 C   0  0  0  0  0  0  0  0  0  0  0  0
   -0.4910   -0.2500    0.1370 C   0  0  0  0  0  0  0  0  0  0  0  0
    0.8360    0.3440    0.0560 C   0  0  0  0  0  0  0  0  0  0  0  0
    2.0040   -0.2910    0.1210 N   0  0  0  0  0  0  0  0  0  0  0  0
    2.9990    0.6260    0.0060 C   0  0  0  0  0  0  0  0  0  0  0  0
    4.4330    0.3950    0.0210 C   0  0  0  0  0  0  0  0  0  0  0  0
    4.9650   -0.8680    0.1650 C   0  0  0  0  0  0  0  0  0  0  0  0
    6.3430   -1.0470    0.1750 C   0  0  0  0  0  0  0  0  0  0  0  0
    7.1560    0.0580    0.0390 C   0  0  0  0  0  0  0  0  0  0  0  0
    6.6370    1.2850   -0.1000 N   0  0  0  0  0  0  0  0  0  0  0  0
    5.2980    1.4560   -0.1100 C   0  0  0  0  0  0  0  0  0  0  0  0
    2.4150    1.8260   -0.1300 N   0  0  0  0  0  0  0  0  0  0  0  0
    1.1060    1.6350   -0.0970 N   0  0  0  0  0  0  0  0  0  0  0  0
   -0.6790   -1.6070    0.2970 C   0  0  0  0  0  0  0  0  0  0  0  0
   -1.9530   -2.1350    0.3690 C   0  0  0  0  0  0  0  0  0  0  0  0
   -3.0670   -1.3170    0.2820 C   0  0  0  0  0  0  0  0  0  0  0  0
   -4.2570   -1.7950    0.3480 N   0  0  0  0  0  0  0  0  0  0  0  0
   -5.4770   -1.0680    0.2730 C   0  0  0  0  0  0  0  0  0  0  0  0
  1  2  2  0
  2  3  1  0
  2 22  1  0
  3  4  2  0
  4  5  1  0
  4 20  1  0
  5  6  2  0
  6  7  1  0
  6 18  1  0
  7  8  2  0
  7 17  1  0
  8  9  1  0
  9 10  1  0
  9 16  2  0
 10 11  2  0
 10 15  1  0
 11 12  1  0
 12 13  2  0
 13 14  1  0
 14 15  2  0
 16 17  1  0
 18 19  2  0
 19 20  1  0
 20 21  2  0
 21 22  1  0
M  END
