
     RDKit          3D

  6  5  0  0  0  0  0  0  0  0999 V2000
    2.2810    0.2030    0.1960 C   0  0  0  0  0  0  0  0  0  0  0  0
    1.6580   -0.8590   -0.2810 C   0  0  0  0  0  0  0  0  0  0  0  0
    0.1790   -1.0040   -0.1740 C   0  0  0  0  0  0  0  0  0  0  0  0
   -0.4480    0.1770    0.4130 N   0  0  0  0  0  0  0  0  0  0  0  0
   -1.8120   -0.1410    0.8600 C   0  0  0  0  0  0  0  0  0  0  0  0
   -0.5660    1.2150   -0.6310 C   0  0  0  0  0  0  0  0  0  0  0  0
  1  2  2  0
  2  3  1  0
  3  4  1  0
  4  5  1  0
  4  6  1  0
M  END
