
     RDKit          3D

 22 25  0  0  0  0  0  0  0  0999 V2000
    5.2950    1.7750    0.6130 C   0  0  0  0  0  0  0  0  0  0  0  0
    4.5180    0.8660    1.5370 C   0  0  0  0  0  0  0  0  0  0  0  0
    3.1460    0.6030    1.0340 C   0  0  0  0  0  0  0  0  0  0  0  0
    2.7990   -0.4220    0.2120 N   0  0  0  0  0  0  0  0  0  0  0  0
    1.4860   -0.3020   -0.0000 C   0  0  0  0  0  0  0  0  0  0  0  0
    0.6300   -1.0690   -0.7500 C   0  0  0  0  0  0  0  0  0  0  0  0
   -0.7320   -0.7500   -0.8260 C   0  0  0  0  0  0  0  0  0  0  0  0
   -1.2480    0.3380   -0.1580 C   0  0  0  0  0  0  0  0  0  0  0  0
   -2.6190    0.7160   -0.3570 C   0  0  0  0  0  0  0  0  0  0  0  0
   -3.4460    0.1180   -1.2120 N   0  0  0  0  0  0  0  0  0  0  0  0
   -4.7210    0.7410   -1.1680 C   0  0  0  0  0  0  0  0  0  0  0  0
   -4.3910    1.9400   -0.6260 C   0  0  0  0  0  0  0  0  0  0  0  0
   -3.4840    1.6520    0.3340 C   0  0  0  0  0  0  0  0  0  0  0  0
   -3.4670    2.1020    1.7060 C   0  0  0  0  0  0  0  0  0  0  0  0
   -0.3330    1.0730    0.5800 C   0  0  0  0  0  0  0  0  0  0  0  0
   -0.7250    2.2480    1.2450 N   0  0  0  0  0  0  0  0  0  0  0  0
    0.9970    0.7550    0.6540 N   0  0  0  0  0  0  0  0  0  0  0  0
    2.0270    1.2910    1.2780 N   0  0  0  0  0  0  0  0  0  0  0  0
   -1.5370   -1.6820   -1.6110 C   0  0  0  0  0  0  0  0  0  0  0  0
   -1.1420   -3.0980   -1.0750 C   0  0  0  0  0  0  0  0  0  0  0  0
    0.2760   -3.4270   -1.3930 C   0  0  0  0  0  0  0  0  0  0  0  0
    1.1490   -2.2160   -1.5000 C   0  0  0  0  0  0  0  0  0  0  0  0
  1  2  1  0
  2  3  1  0
  3  4  1  0
  3 18  2  0
  4  5  2  0
  5  6  1  0
  5 17  1  0
  6  7  2  0
  6 22  1  0
  7  8  1  0
  7 19  1  0
  8  9  1  0
  8 15  2  0
  9 10  2  0
  9 13  1  0
 10 11  1  0
 11 12  2  0
 12 13  2  0
 13 14  1  0
 15 16  1  0
 15 17  1  0
 17 18  1  0
 19 20  1  0
 20 21  1  0
 21 22  1  0
M  END
