
     RDKit          3D

 22 25  0  0  0  0  0  0  0  0999 V2000
    6.7780    1.9140    0.3440 C   0  0  0  0  0  0  0  0  0  0  0  0
    5.6520    1.4810   -0.1760 C   0  0  0  0  0  0  0  0  0  0  0  0
    4.6600    0.9090    0.6420 N   0  0  0  0  0  0  0  0  0  0  0  0
    3.2670    1.0110    0.3940 C   0  0  0  0  0  0  0  0  0  0  0  0
    2.4740   -0.0300    0.5080 C   0  0  0  0  0  0  0  0  0  0  0  0
    2.8420   -1.4150    0.8900 C   0  0  0  0  0  0  0  0  0  0  0  0
    1.8810   -2.2480    0.1040 C   0  0  0  0  0  0  0  0  0  0  0  0
    0.6820   -1.4040    0.0380 N   0  0  0  0  0  0  0  0  0  0  0  0
    1.0210   -0.0560    0.2800 C   0  0  0  0  0  0  0  0  0  0  0  0
    0.0970    0.8230    0.2620 N   0  0  0  0  0  0  0  0  0  0  0  0
   -1.2660    0.5100    0.0070 C   0  0  0  0  0  0  0  0  0  0  0  0
   -2.2840    1.5680    0.0060 C   0  0  0  0  0  0  0  0  0  0  0  0
   -3.5500    1.4770   -0.1990 N   0  0  0  0  0  0  0  0  0  0  0  0
   -4.2130    2.7610   -0.1150 C   0  0  0  0  0  0  0  0  0  0  0  0
   -3.0580    3.7020   -0.4800 C   0  0  0  0  0  0  0  0  0  0  0  0
   -1.9300    3.0090    0.2670 C   0  0  0  0  0  0  0  0  0  0  0  0
   -1.6710   -0.7560   -0.2340 C   0  0  0  0  0  0  0  0  0  0  0  0
   -3.0800   -1.0720   -0.4970 C   0  0  0  0  0  0  0  0  0  0  0  0
   -3.2680   -2.5230   -0.7780 C   0  0  0  0  0  0  0  0  0  0  0  0
   -2.3720   -3.3330    0.1070 C   0  0  0  0  0  0  0  0  0  0  0  0
   -0.9630   -3.1670   -0.4550 C   0  0  0  0  0  0  0  0  0  0  0  0
   -0.6510   -1.7460   -0.2160 N   0  0  0  0  0  0  0  0  0  0  0  0
  1  2  2  0
  2  3  1  0
  3  4  1  0
  4  5  2  3
  5  6  1  0
  5  9  1  0
  6  7  1  0
  7  8  1  0
  8  9  1  0
  8 22  1  0
  9 10  2  0
 10 11  1  0
 11 12  1  0
 11 17  2  0
 12 13  2  0
 12 16  1  0
 13 14  1  0
 14 15  1  0
 15 16  1  0
 17 18  1  0
 17 22  1  0
 18 19  1  0
 19 20  1  0
 20 21  1  0
 21 22  1  0
M  END
