
     RDKit          3D

 21 24  0  0  0  0  0  0  0  0999 V2000
   -5.7470   -1.8110    0.6160 C   0  0  0  0  0  0  0  0  0  0  0  0
   -4.3740   -1.8930    0.7530 C   0  0  0  0  0  0  0  0  0  0  0  0
   -3.5880   -0.9010    0.1930 C   0  0  0  0  0  0  0  0  0  0  0  0
   -2.1960   -0.9240    0.2950 C   0  0  0  0  0  0  0  0  0  0  0  0
   -1.4250    0.0680   -0.2660 C   0  0  0  0  0  0  0  0  0  0  0  0
   -0.0010    0.0360   -0.1560 N   0  0  0  0  0  0  0  0  0  0  0  0
    0.8470    1.0400   -0.7190 C   0  0  0  0  0  0  0  0  0  0  0  0
    2.2660    0.7190   -0.4320 C   0  0  0  0  0  0  0  0  0  0  0  0
    2.7890    1.2370    0.7490 C   0  0  0  0  0  0  0  0  0  0  0  0
    4.0840    0.9850    1.0810 C   0  0  0  0  0  0  0  0  0  0  0  0
    4.8650    0.2090    0.2280 C   0  0  0  0  0  0  0  0  0  0  0  0
    6.1500   -0.1990    0.2920 N   0  0  0  0  0  0  0  0  0  0  0  0
    6.4090   -0.9280   -0.7860 C   0  0  0  0  0  0  0  0  0  0  0  0
    5.2950   -0.9900   -1.5430 N   0  0  0  0  0  0  0  0  0  0  0  0
    4.3080   -0.2860   -0.9330 C   0  0  0  0  0  0  0  0  0  0  0  0
    3.0170   -0.0350   -1.2640 N   0  0  0  0  0  0  0  0  0  0  0  0
   -2.0860    1.0770   -0.9280 C   0  0  0  0  0  0  0  0  0  0  0  0
   -3.4610    1.1170   -1.0390 C   0  0  0  0  0  0  0  0  0  0  0  0
   -4.2330    0.1190   -0.4750 C   0  0  0  0  0  0  0  0  0  0  0  0
   -5.6080    0.1700   -0.5930 C   0  0  0  0  0  0  0  0  0  0  0  0
   -6.3400   -0.7990   -0.0440 N   0  0  0  0  0  0  0  0  0  0  0  0
  1  2  2  0
  1 21  1  0
  2  3  1  0
  3  4  2  0
  3 19  1  0
  4  5  1  0
  5  6  1  0
  5 17  2  0
  6  7  1  0
  7  8  1  0
  8  9  2  0
  8 16  1  0
  9 10  1  0
 10 11  2  0
 11 12  1  0
 11 15  1  0
 12 13  1  0
 13 14  2  0
 14 15  1  0
 15 16  2  0
 17 18  1  0
 18 19  2  0
 19 20  1  0
 20 21  2  0
M  END
