
     RDKit          3D

 14 14  0  0  0  0  0  0  0  0999 V2000
    3.2320    2.7990    0.4650 C   0  0  0  0  0  0  0  0  0  0  0  0
    2.2620    1.8070    0.6380 O   0  0  0  0  0  0  0  0  0  0  0  0
    2.2410    0.5860   -0.0220 C   0  0  0  0  0  0  0  0  0  0  0  0
    3.1800    0.3790   -0.8340 O   0  0  0  0  0  0  0  0  0  0  0  0
    1.1860   -0.4390    0.1950 C   0  0  1  0  0  0  0  0  0  0  0  0
   -0.1760    0.1360    0.0730 C   0  0  0  0  0  0  0  0  0  0  0  0
   -1.1180   -0.5250   -0.8500 C   0  0  2  0  0  0  0  0  0  0  0  0
   -2.5460   -0.6090   -0.3490 C   0  0  0  0  0  0  0  0  0  0  0  0
   -3.2940    0.9890   -0.0240 S   0  0  0  0  0  0  0  0  0  0  0  0
   -2.5650    1.8840    1.3450 C   0  0  0  0  0  0  0  0  0  0  0  0
   -0.7390   -1.9110   -1.2940 C   0  0  0  0  0  0  0  0  0  0  0  0
   -0.2820   -2.7800   -0.1410 C   0  0  0  0  0  0  0  0  0  0  0  0
    1.1200   -2.7390   -0.1750 O   0  0  0  0  0  0  0  0  0  0  0  0
    1.4730   -1.5550   -0.6280 N   0  0  0  0  0  0  0  0  0  0  0  0
  1  2  1  0
  2  3  1  0
  3  4  2  0
  5  3  1  6
  5  6  1  0
  5 14  1  0
  6  7  1  0
  7  8  1  1
  7 11  1  0
  8  9  1  0
  9 10  1  0
 11 12  1  0
 12 13  1  0
 13 14  1  0
M  END
