
     RDKit          3D

 14 14  0  0  0  0  0  0  0  0999 V2000
    4.7960    0.8320    0.1380 C   0  0  0  0  0  0  0  0  0  0  0  0
    4.0160   -0.0880   -0.7840 C   0  0  0  0  0  0  0  0  0  0  0  0
    2.9150   -0.6890   -0.1190 O   0  0  0  0  0  0  0  0  0  0  0  0
    1.8980    0.0660    0.4410 C   0  0  0  0  0  0  0  0  0  0  0  0
    1.9420    1.3370    0.3620 O   0  0  0  0  0  0  0  0  0  0  0  0
    0.7840   -0.6200    1.1150 C   0  0  0  0  0  0  0  0  0  0  0  0
   -0.3850   -0.6990    0.1600 C   0  0  2  0  0  0  0  0  0  0  0  0
   -0.9720    0.9040   -0.3790 S   0  0  0  0  0  0  0  0  0  0  0  0
   -2.7740    0.9990   -0.2680 C   0  0  1  0  0  0  0  0  0  0  0  0
   -3.4390    0.9190   -1.6260 C   0  0  0  0  0  0  0  0  0  0  0  0
   -3.3460   -0.0110    0.6710 C   0  0  0  0  0  0  0  0  0  0  0  0
   -2.7960   -1.3410    0.5410 N   0  0  0  0  0  0  0  0  0  0  0  0
   -1.4250   -1.5810    0.7130 C   0  0  0  0  0  0  0  0  0  0  0  0
   -0.9880   -2.5920    1.3680 O   0  0  0  0  0  0  0  0  0  0  0  0
  1  2  1  0
  2  3  1  0
  3  4  1  0
  4  5  2  0
  4  6  1  0
  7  6  1  1
  7  8  1  0
  7 13  1  0
  8  9  1  0
  9 10  1  6
  9 11  1  0
 11 12  1  0
 12 13  1  0
 13 14  2  0
M  END
