
     RDKit          3D

 14 14  0  0  0  0  0  0  0  0999 V2000
    4.8520    0.1360    1.4610 C   0  0  0  0  0  0  0  0  0  0  0  0
    4.5000    0.4070    0.0240 C   0  0  0  0  0  0  0  0  0  0  0  0
    3.4030   -0.3510   -0.4000 O   0  0  0  0  0  0  0  0  0  0  0  0
    2.1490   -0.2290    0.1670 C   0  0  0  0  0  0  0  0  0  0  0  0
    1.9200    0.5770    1.1060 O   0  0  0  0  0  0  0  0  0  0  0  0
    1.0460   -1.0670   -0.3410 C   0  0  0  0  0  0  0  0  0  0  0  0
   -0.1400   -0.2020   -0.7520 C   0  0  1  0  0  0  0  0  0  0  0  0
   -1.2590   -1.0520   -1.2640 C   0  0  0  0  0  0  0  0  0  0  0  0
   -2.4370   -0.2800   -1.5140 N   0  0  0  0  0  0  0  0  0  0  0  0
   -2.5490    0.9150   -0.7380 C   0  0  1  0  0  0  0  0  0  0  0  0
   -4.3140    1.2620   -0.4260 S   0  0  0  0  0  0  0  0  0  0  0  0
   -4.9770   -0.0490    0.6390 C   0  0  0  0  0  0  0  0  0  0  0  0
   -1.8240    0.6830    0.5810 C   0  0  0  0  0  0  0  0  0  0  0  0
   -0.4720    0.5790    0.3230 O   0  0  0  0  0  0  0  0  0  0  0  0
  1  2  1  0
  2  3  1  0
  3  4  1  0
  4  5  2  0
  4  6  1  0
  7  6  1  1
  7  8  1  0
  7 14  1  0
  8  9  1  0
  9 10  1  0
 10 11  1  1
 10 13  1  0
 11 12  1  0
 13 14  1  0
M  END
