
     RDKit          3D

 14 14  0  0  0  0  0  0  0  0999 V2000
   -2.9960    0.7520    0.9940 C   0  0  0  0  0  0  0  0  0  0  0  0
   -1.6890    0.6890    0.2050 C   0  0  2  0  0  0  0  0  0  0  0  0
   -2.1370    0.7670   -1.2640 C   0  0  0  0  0  0  0  0  0  0  0  0
   -3.0370    2.3430   -1.5230 S   0  0  0  0  0  0  0  0  0  0  0  0
   -0.9800   -0.5690    0.4680 C   0  0  0  0  0  0  0  0  0  0  0  0
   -1.6270   -1.4710    1.1080 O   0  0  0  0  0  0  0  0  0  0  0  0
    0.3470   -0.8870    0.0840 N   0  0  0  0  0  0  0  0  0  0  0  0
    0.9400   -2.1770    0.3650 C   0  0  0  0  0  0  0  0  0  0  0  0
    2.4040   -1.8450    0.4820 C   0  0  0  0  0  0  0  0  0  0  0  0
    2.5350   -0.9770   -0.7740 C   0  0  0  0  0  0  0  0  0  0  0  0
    1.3130   -0.0760   -0.5980 C   0  0  2  0  0  0  0  0  0  0  0  0
    1.7950    1.0630    0.2230 C   0  0  0  0  0  0  0  0  0  0  0  0
    1.4220    1.1930    1.4090 O   0  0  0  0  0  0  0  0  0  0  0  0
    2.6620    2.0100   -0.2870 O   0  0  0  0  0  0  0  0  0  0  0  0
  2  1  1  1
  2  3  1  0
  2  5  1  0
  3  4  1  0
  5  6  2  0
  5  7  1  0
  7  8  1  0
  7 11  1  0
  8  9  1  0
  9 10  1  0
 10 11  1  0
 11 12  1  1
 12 13  2  0
 12 14  1  0
M  END
