
     RDKit          3D

 14 14  0  0  0  0  0  0  0  0999 V2000
    4.3000    1.9950   -0.3570 C   0  0  0  0  0  0  0  0  0  0  0  0
    3.5780    0.7060   -0.6670 C   0  0  0  0  0  0  0  0  0  0  0  0
    1.9020    0.8220   -0.0530 S   0  0  0  0  0  0  0  0  0  0  0  0
    0.9240   -0.6430   -0.3560 C   0  0  1  0  0  0  0  0  0  0  0  0
    1.4010   -1.8610    0.4000 C   0  0  0  0  0  0  0  0  0  0  0  0
    0.2980   -2.6060    0.7220 O   0  0  0  0  0  0  0  0  0  0  0  0
   -0.8260   -2.0320    0.1850 C   0  0  0  0  0  0  0  0  0  0  0  0
   -0.4810   -0.5340    0.1970 C   0  0  1  0  0  0  0  0  0  0  0  0
   -0.4930   -0.1210    1.6440 C   0  0  0  0  0  0  0  0  0  0  0  0
   -1.3230    0.2340   -0.6440 N   0  0  0  0  0  0  0  0  0  0  0  0
   -2.7280    0.3290   -0.5100 C   0  0  0  0  0  0  0  0  0  0  0  0
   -3.2580   -0.3320    0.4450 O   0  0  0  0  0  0  0  0  0  0  0  0
   -3.5310    1.0880   -1.3480 O   0  0  0  0  0  0  0  0  0  0  0  0
   -4.9200    1.0990   -1.1070 C   0  0  0  0  0  0  0  0  0  0  0  0
  1  2  1  0
  2  3  1  0
  4  3  1  1
  4  5  1  0
  4  8  1  0
  5  6  1  0
  6  7  1  0
  7  8  1  0
  8  9  1  1
  8 10  1  0
 10 11  1  0
 11 12  2  0
 11 13  1  0
 13 14  1  0
M  END
