
     RDKit          3D

 13 13  0  0  0  0  0  0  0  0999 V2000
    4.6130    0.5610    0.6760 C   0  0  0  0  0  0  0  0  0  0  0  0
    3.7520    0.0970   -0.8430 S   0  0  0  0  0  0  0  0  0  0  0  0
    2.2680   -0.8950   -0.5200 C   0  0  0  0  0  0  0  0  0  0  0  0
    1.2510   -0.0450    0.2100 C   0  0  2  0  0  0  0  0  0  0  0  0
   -0.0180   -0.8170    0.5090 C   0  0  0  0  0  0  0  0  0  0  0  0
   -1.1180    0.0520    0.1570 N   0  0  0  0  0  0  0  0  0  0  0  0
   -2.3830   -0.3830    0.6670 C   0  0  0  0  0  0  0  0  0  0  0  0
   -2.4820   -0.2940    2.1670 C   0  0  0  0  0  0  0  0  0  0  0  0
   -2.3030    1.0090    2.5870 O   0  0  0  0  0  0  0  0  0  0  0  0
   -1.1100    0.1220   -1.3020 C   0  0  1  0  0  0  0  0  0  0  0  0
   -2.2980    0.9410   -1.7470 C   0  0  0  0  0  0  0  0  0  0  0  0
    0.2080    0.7680   -1.6900 C   0  0  0  0  0  0  0  0  0  0  0  0
    0.9990    1.0760   -0.6010 O   0  0  0  0  0  0  0  0  0  0  0  0
  1  2  1  0
  2  3  1  0
  4  3  1  6
  4  5  1  0
  4 13  1  0
  5  6  1  0
  6  7  1  0
  6 10  1  0
  7  8  1  0
  8  9  1  0
 10 11  1  1
 10 12  1  0
 12 13  1  0
M  END
