
     RDKit          3D

 14 14  0  0  0  0  0  0  0  0999 V2000
    1.1820    1.1140    2.1780 C   0  0  0  0  0  0  0  0  0  0  0  0
    1.9080    0.7500    1.1550 C   0  0  0  0  0  0  0  0  0  0  0  0
    3.2930    0.9920    1.1410 O   0  0  0  0  0  0  0  0  0  0  0  0
    3.8430    1.2770   -0.0840 O   0  0  0  0  0  0  0  0  0  0  0  0
    3.6750    0.1090   -0.8000 C   0  0  0  0  0  0  0  0  0  0  0  0
    2.2520   -0.2180   -0.9670 C   0  0  0  0  0  0  0  0  0  0  0  0
    1.3670    0.0750   -0.0390 C   0  0  0  0  0  0  0  0  0  0  0  0
   -0.0060   -0.2040   -0.1150 N   0  0  0  0  0  0  0  0  0  0  0  0
   -0.6380   -0.8420   -1.1990 C   0  0  0  0  0  0  0  0  0  0  0  0
   -0.0620   -1.2380   -2.2240 O   0  0  0  0  0  0  0  0  0  0  0  0
   -2.1330   -1.0680   -1.1230 C   0  0  1  0  0  0  0  0  0  0  0  0
   -2.4430   -1.8450    0.1320 C   0  0  0  0  0  0  0  0  0  0  0  0
   -2.9810    0.5040   -1.2140 S   0  0  0  0  0  0  0  0  0  0  0  0
   -2.7190    1.5830    0.1890 C   0  0  0  0  0  0  0  0  0  0  0  0
  1  2  2  0
  2  3  1  0
  2  7  1  0
  3  4  1  0
  4  5  1  0
  5  6  1  0
  6  7  2  0
  7  8  1  0
  8  9  1  0
  9 10  2  0
  9 11  1  0
 11 12  1  1
 11 13  1  0
 13 14  1  0
M  END
