
     RDKit          3D

 10  9  0  0  0  0  0  0  0  0999 V2000
   -0.1690   -0.1210    0.9240 O   0  0  0  0  0  0  0  0  0  0  0  0
   -0.6740   -0.5850   -0.1070 C   0  0  0  0  0  0  0  0  0  0  0  0
   -2.1140   -0.5180   -0.3740 C   0  0  0  0  0  0  0  0  0  0  0  0
   -2.6710    0.7960    0.0380 N   0  0  0  0  0  0  0  0  0  0  0  0
   -2.9840    1.4340   -1.1910 F   0  0  0  0  0  0  0  0  0  0  0  0
    0.1410   -1.1710   -1.0580 O   0  0  0  0  0  0  0  0  0  0  0  0
    1.4520   -1.3070   -0.9820 O   0  0  0  0  0  0  0  0  0  0  0  0
    2.1430    0.1510   -0.2760 P   0  0  0  0  0  0  0  0  0  0  0  0
    2.7990    1.1330   -1.5240 O   0  0  0  0  0  0  0  0  0  0  0  0
    3.4780   -0.4290    0.7070 O   0  0  0  0  0  0  0  0  0  0  0  0
  1  2  2  0
  2  3  1  0
  2  6  1  0
  3  4  1  0
  4  5  1  0
  6  7  1  0
  7  8  1  0
  8  9  1  0
  8 10  1  0
M  END
