
     RDKit          3D

 10  9  0  0  0  0  0  0  0  0999 V2000
    1.2010   -0.0920   -1.4680 O   0  0  0  0  0  0  0  0  0  0  0  0
    1.8280   -0.0950   -0.3580 C   0  0  0  0  0  0  0  0  0  0  0  0
    3.1230    0.3830   -0.3250 O   0  0  0  0  0  0  0  0  0  0  0  0
    1.1310   -0.5940    0.7570 N   0  0  0  0  0  0  0  0  0  0  0  0
   -0.2340   -1.0820    0.6510 C   0  0  1  0  0  0  0  0  0  0  0  0
   -0.3290   -2.3720    1.0840 F   0  0  0  0  0  0  0  0  0  0  0  0
   -1.0410   -0.2670    1.4730 O   0  0  0  0  0  0  0  0  0  0  0  0
   -2.2180    0.5770    0.4960 P   0  0  0  0  0  0  0  0  0  0  0  0
   -2.3460   -0.2770   -1.0120 O   0  0  0  0  0  0  0  0  0  0  0  0
   -1.6420    2.2020    0.2040 O   0  0  0  0  0  0  0  0  0  0  0  0
  1  2  2  0
  2  3  1  0
  2  4  1  0
  4  5  1  0
  5  6  1  1
  5  7  1  0
  7  8  1  0
  8  9  1  0
  8 10  1  0
M  END
