
     RDKit          3D

 10  9  0  0  0  0  0  0  0  0999 V2000
    3.9470   -0.2270    0.2500 O   0  0  0  0  0  0  0  0  0  0  0  0
    2.9000   -0.2690   -0.5400 O   0  0  0  0  0  0  0  0  0  0  0  0
    1.7150   -0.0860    0.1670 C   0  0  0  0  0  0  0  0  0  0  0  0
    0.5870   -0.1580   -0.8700 C   0  0  0  0  0  0  0  0  0  0  0  0
   -0.7010    0.0200   -0.2460 N   0  0  0  0  0  0  0  0  0  0  0  0
   -1.6440    0.5660   -0.9200 C   0  0  0  0  0  0  0  0  0  0  0  0
   -1.4110    0.9580   -2.1890 F   0  0  0  0  0  0  0  0  0  0  0  0
   -2.8630    0.7130   -0.2730 O   0  0  0  0  0  0  0  0  0  0  0  0
   -2.8140    0.9280    1.0460 O   0  0  0  0  0  0  0  0  0  0  0  0
   -3.7040    0.1350    1.5980 O   0  0  0  0  0  0  0  0  0  0  0  0
  1  2  1  0
  2  3  1  0
  3  4  1  0
  4  5  1  0
  5  6  2  3
  6  7  1  0
  6  8  1  0
  8  9  1  0
  9 10  1  0
M  END
