
     RDKit          3D

 10  9  0  0  0  0  0  0  0  0999 V2000
    1.0970   -1.7710   -0.5580 N   0  0  0  0  0  0  0  0  0  0  0  0
    0.7100   -0.8450   -1.4670 O   0  0  0  0  0  0  0  0  0  0  0  0
    0.1400    0.2190   -0.7800 C   0  0  2  0  0  0  0  0  0  0  0  0
   -0.2660    1.1820   -1.6820 F   0  0  0  0  0  0  0  0  0  0  0  0
    1.4050    0.9630    0.3380 P   0  0  0  0  0  0  0  0  0  0  0  0
    1.7120    2.6140   -0.0240 O   0  0  0  0  0  0  0  0  0  0  0  0
   -1.0810   -0.2290   -0.0050 C   0  0  1  0  0  0  0  0  0  0  0  0
   -1.9830   -0.7410   -0.9670 O   0  0  0  0  0  0  0  0  0  0  0  0
   -0.6880   -1.2330    0.8740 O   0  0  0  0  0  0  0  0  0  0  0  0
   -1.6430    0.8340    0.6610 O   0  0  0  0  0  0  0  0  0  0  0  0
  1  2  1  0
  2  3  1  0
  3  4  1  6
  3  5  1  0
  3  7  1  0
  5  6  1  0
  7  8  1  6
  7  9  1  0
  7 10  1  0
M  END
