
     RDKit          3D

 10  9  0  0  0  0  0  0  0  0999 V2000
    2.0690   -1.8160   -0.1130 O   0  0  0  0  0  0  0  0  0  0  0  0
    2.1310   -0.5620    0.0810 C   0  0  0  0  0  0  0  0  0  0  0  0
    0.9750    0.2650    0.0060 N   0  0  0  0  0  0  0  0  0  0  0  0
   -0.3040   -0.3660   -0.3020 C   0  0  0  0  0  0  0  0  0  0  0  0
   -1.6560    0.8650   -0.3510 P   0  0  0  0  0  0  0  0  0  0  0  0
   -1.2500    2.3810    0.3410 O   0  0  0  0  0  0  0  0  0  0  0  0
   -3.1780    0.2650    0.1430 O   0  0  0  0  0  0  0  0  0  0  0  0
   -3.2740   -1.0140   -0.1440 O   0  0  0  0  0  0  0  0  0  0  0  0
    3.3580   -0.0150    0.3680 O   0  0  0  0  0  0  0  0  0  0  0  0
    4.5030   -0.6860    0.4640 F   0  0  0  0  0  0  0  0  0  0  0  0
  1  2  2  0
  2  3  1  0
  2  9  1  0
  3  4  1  0
  4  5  1  0
  5  6  1  0
  5  7  1  0
  7  8  1  0
  9 10  1  0
M  END
