
     RDKit          3D

  9  8  0  0  0  0  0  0  0  0999 V2000
   -1.9040    1.2300   -1.1390 O   0  0  0  0  0  0  0  0  0  0  0  0
   -1.6110    0.7350    0.0290 O   0  0  0  0  0  0  0  0  0  0  0  0
   -0.9500   -0.4840   -0.0570 C   0  0  1  0  0  0  0  0  0  0  0  0
    0.4410   -0.2830    0.5120 C   0  0  0  0  0  0  0  0  0  0  0  0
    1.2590    1.0150   -0.5220 P   0  0  0  0  0  0  0  0  0  0  0  0
    2.1320    2.1610    0.4140 O   0  0  0  0  0  0  0  0  0  0  0  0
    2.2110    0.2720   -1.7440 O   0  0  0  0  0  0  0  0  0  0  0  0
   -1.6750   -1.5240    0.6340 N   0  0  0  0  0  0  0  0  0  0  0  0
   -1.8200   -1.2350    1.9270 F   0  0  0  0  0  0  0  0  0  0  0  0
  1  2  1  0
  2  3  1  0
  3  4  1  1
  3  8  1  0
  4  5  1  0
  5  6  1  0
  5  7  1  0
  8  9  1  0
M  END
