
     RDKit          3D

  9  8  0  0  0  0  0  0  0  0999 V2000
    2.5760   -0.8100   -0.6310 O   0  0  0  0  0  0  0  0  0  0  0  0
    2.1320    0.3690   -0.6100 C   0  0  0  0  0  0  0  0  0  0  0  0
    2.7790    1.4200   -1.1670 F   0  0  0  0  0  0  0  0  0  0  0  0
    0.8760    0.6490    0.0300 N   0  0  0  0  0  0  0  0  0  0  0  0
    0.1580   -0.4640    0.6390 C   0  0  1  0  0  0  0  0  0  0  0  0
   -0.0230   -0.2010    1.9950 O   0  0  0  0  0  0  0  0  0  0  0  0
   -1.5250   -0.6190   -0.1260 P   0  0  0  0  0  0  0  0  0  0  0  0
   -2.4400    0.8360    0.0640 O   0  0  0  0  0  0  0  0  0  0  0  0
   -1.3240   -1.0060   -1.7960 O   0  0  0  0  0  0  0  0  0  0  0  0
  1  2  2  0
  2  3  1  0
  2  4  1  0
  4  5  1  0
  5  6  1  1
  5  7  1  0
  7  8  1  0
  7  9  1  0
M  END
