
     RDKit          3D

 10  9  0  0  0  0  0  0  0  0999 V2000
   -1.8260    1.8770   -0.2680 O   0  0  0  0  0  0  0  0  0  0  0  0
   -2.1580    0.5270   -0.1060 C   0  0  0  0  0  0  0  0  0  0  0  0
   -0.9970   -0.2790   -0.6370 C   0  0  2  0  0  0  0  0  0  0  0  0
   -1.2290   -1.7060   -0.5210 N   0  0  0  0  0  0  0  0  0  0  0  0
   -1.4020   -1.9850    0.7920 F   0  0  0  0  0  0  0  0  0  0  0  0
    0.1090    0.0320    0.1780 O   0  0  0  0  0  0  0  0  0  0  0  0
    1.0930    0.5500   -0.4910 O   0  0  0  0  0  0  0  0  0  0  0  0
    2.5700    0.0620    0.2970 P   0  0  0  0  0  0  0  0  0  0  0  0
    3.8270    1.1790   -0.0350 O   0  0  0  0  0  0  0  0  0  0  0  0
    2.9330   -1.5460   -0.2100 O   0  0  0  0  0  0  0  0  0  0  0  0
  1  2  1  0
  3  2  1  1
  3  4  1  0
  3  6  1  0
  4  5  1  0
  6  7  1  0
  7  8  1  0
  8  9  1  0
  8 10  1  0
M  END
