
     RDKit          3D

 10  9  0  0  0  0  0  0  0  0999 V2000
    3.3350   -0.1340   -0.0060 N   0  0  0  0  0  0  0  0  0  0  0  0
    2.2900    0.8190   -0.2040 C   0  0  2  0  0  0  0  0  0  0  0  0
    2.8270    2.0840    0.0060 F   0  0  0  0  0  0  0  0  0  0  0  0
    1.1790    0.5830    0.6220 O   0  0  0  0  0  0  0  0  0  0  0  0
   -0.0740    0.2850    0.1230 C   0  0  0  0  0  0  0  0  0  0  0  0
   -0.2250    0.2210   -1.1320 O   0  0  0  0  0  0  0  0  0  0  0  0
   -1.1450    0.0590    0.9770 O   0  0  0  0  0  0  0  0  0  0  0  0
   -2.7450   -0.3220    0.3750 P   0  0  0  0  0  0  0  0  0  0  0  0
   -3.9300    0.0150    1.5930 O   0  0  0  0  0  0  0  0  0  0  0  0
   -3.0760    0.5620   -1.0780 O   0  0  0  0  0  0  0  0  0  0  0  0
  2  1  1  1
  2  3  1  0
  2  4  1  0
  4  5  1  0
  5  6  2  0
  5  7  1  0
  7  8  1  0
  8  9  1  0
  8 10  1  0
M  END
