
     RDKit          3D

 19 20  0  0  0  0  0  0  0  0999 V2000
    2.6690    2.1670   -1.7690 C   0  0  0  0  0  0  0  0  0  0  0  0
    3.1620    1.3770   -0.8400 C   0  0  0  0  0  0  0  0  0  0  0  0
    4.5900    1.1710   -0.5850 C   0  0  0  0  0  0  0  0  0  0  0  0
    4.6450    0.3120    0.4320 C   0  0  0  0  0  0  0  0  0  0  0  0
    3.3090   -0.0620    0.8620 C   0  0  0  0  0  0  0  0  0  0  0  0
    2.3950    0.5780    0.0980 C   0  0  0  0  0  0  0  0  0  0  0  0
    1.0180    0.4520    0.2380 O   0  0  0  0  0  0  0  0  0  0  0  0
    0.4270   -0.7760    0.0490 C   0  0  0  0  0  0  0  0  0  0  0  0
    1.1290   -1.9120   -0.2860 C   0  0  0  0  0  0  0  0  0  0  0  0
    0.5110   -3.1330   -0.4680 C   0  0  0  0  0  0  0  0  0  0  0  0
   -0.8700   -3.2090   -0.3040 C   0  0  0  0  0  0  0  0  0  0  0  0
   -1.5370   -4.4110   -0.4750 O   0  0  0  0  0  0  0  0  0  0  0  0
   -1.6020   -2.0890    0.0310 C   0  0  0  0  0  0  0  0  0  0  0  0
   -0.9560   -0.8750    0.2060 C   0  0  0  0  0  0  0  0  0  0  0  0
   -1.6990    0.3430    0.5310 C   0  0  2  0  0  0  0  0  0  0  0  0
   -3.1170    0.0130    1.0530 C   0  0  0  0  0  0  0  0  0  0  0  0
   -3.8400    1.2870    1.2470 N   0  0  0  0  0  0  0  0  0  0  0  0
   -1.9970    1.0010   -0.6860 O   0  0  0  0  0  0  0  0  0  0  0  0
   -1.6160    2.3080   -0.7410 C   0  0  0  0  0  0  0  0  0  0  0  0
  1  2  2  0
  2  3  1  0
  2  6  1  0
  3  4  2  0
  4  5  1  0
  5  6  2  0
  6  7  1  0
  7  8  1  0
  8  9  2  0
  8 14  1  0
  9 10  1  0
 10 11  2  0
 11 12  1  0
 11 13  1  0
 13 14  2  0
 14 15  1  0
 15 16  1  6
 15 18  1  0
 16 17  1  0
 18 19  1  0
M  CHG  1  17   1
M  END
