
     RDKit          3D

 19 20  0  0  0  0  0  0  0  0999 V2000
   -1.9780    3.5190    0.9210 C   0  0  0  0  0  0  0  0  0  0  0  0
   -1.5520    2.1180    0.9530 C   0  0  0  0  0  0  0  0  0  0  0  0
   -2.2550    1.1580    0.3460 C   0  0  0  0  0  0  0  0  0  0  0  0
   -1.8170   -0.2070    0.3920 C   0  0  0  0  0  0  0  0  0  0  0  0
   -0.6190   -0.5060    1.0980 O   0  0  0  0  0  0  0  0  0  0  0  0
    0.6110   -0.2280    0.5400 C   0  0  0  0  0  0  0  0  0  0  0  0
    0.6780    0.3400   -0.7040 C   0  0  0  0  0  0  0  0  0  0  0  0
    1.9100    0.6240   -1.2750 C   0  0  0  0  0  0  0  0  0  0  0  0
    3.0740    0.3170   -0.5530 C   0  0  0  0  0  0  0  0  0  0  0  0
    3.0100   -0.2460    0.6800 C   0  0  0  0  0  0  0  0  0  0  0  0
    1.7640   -0.5180    1.2250 C   0  0  0  0  0  0  0  0  0  0  0  0
    4.3950   -0.4430    1.1680 C   0  0  2  0  0  0  0  0  0  0  0  0
    4.5380   -0.0810    2.5030 O   0  0  0  0  0  0  0  0  0  0  0  0
    5.2060    0.4130    0.2440 C   0  0  0  0  0  0  0  0  0  0  0  0
    4.4010    0.5170   -0.9340 O   0  0  0  0  0  0  0  0  0  0  0  0
   -2.4570   -1.1920   -0.1790 C   0  0  0  0  0  0  0  0  0  0  0  0
   -1.8570   -2.5760   -0.0340 C   0  0  0  0  0  0  0  0  0  0  0  0
   -3.6910   -1.0390   -0.9310 C   0  0  0  0  0  0  0  0  0  0  0  0
   -3.5630   -1.4750   -2.3180 N   0  0  0  0  0  0  0  0  0  0  0  0
  1  2  1  0
  2  3  2  3
  3  4  1  0
  4  5  1  0
  4 16  2  3
  5  6  1  0
  6  7  2  0
  6 11  1  0
  7  8  1  0
  8  9  2  0
  9 10  1  0
  9 15  1  0
 10 11  2  0
 10 12  1  0
 12 13  1  1
 12 14  1  0
 14 15  1  0
 16 17  1  0
 16 18  1  0
 18 19  1  0
M  CHG  1  19   1
M  END
