
     RDKit          3D

 19 20  0  0  0  0  0  0  0  0999 V2000
    6.2740   -1.2570    1.0140 C   0  0  0  0  0  0  0  0  0  0  0  0
    5.3630   -0.9410   -0.1490 C   0  0  2  0  0  0  0  0  0  0  0  0
    5.9660   -0.0060   -0.9570 O   0  0  0  0  0  0  0  0  0  0  0  0
    4.0470   -0.4530    0.3500 C   0  0  0  0  0  0  0  0  0  0  0  0
    3.6170   -0.5660    1.6530 C   0  0  0  0  0  0  0  0  0  0  0  0
    2.3530    0.0060    1.6940 C   0  0  0  0  0  0  0  0  0  0  0  0
    2.0750    0.4390    0.4130 C   0  0  0  0  0  0  0  0  0  0  0  0
    0.8150    1.1280   -0.0440 C   0  0  0  0  0  0  0  0  0  0  0  0
   -0.1960    0.1230   -0.4990 C   0  0  0  0  0  0  0  0  0  0  0  0
   -1.4860    0.7470   -0.9770 C   0  0  1  0  0  0  0  0  0  0  0  0
   -1.1340    1.5840   -2.0610 O   0  0  0  0  0  0  0  0  0  0  0  0
   -2.3610   -0.3650   -1.4710 C   0  0  0  0  0  0  0  0  0  0  0  0
   -3.8120   -0.1050   -1.4460 C   0  0  0  0  0  0  0  0  0  0  0  0
   -4.4570    0.2400   -0.1820 C   0  0  0  0  0  0  0  0  0  0  0  0
   -3.7070   -0.0200    1.0900 C   0  0  1  0  0  0  0  0  0  0  0  0
   -3.3590   -1.3990    1.2930 N   0  0  0  0  0  0  0  0  0  0  0  0
   -2.5290    0.9050    1.2920 C   0  0  0  0  0  0  0  0  0  0  0  0
   -2.1380    1.6250    0.0440 C   0  0  0  0  0  0  0  0  0  0  0  0
    3.1080    0.1420   -0.3390 O   0  0  0  0  0  0  0  0  0  0  0  0
  2  1  1  1
  2  3  1  0
  2  4  1  0
  4  5  2  0
  4 19  1  0
  5  6  1  0
  6  7  2  0
  7  8  1  0
  7 19  1  0
  8  9  1  0
  9 10  1  0
 10 11  1  6
 10 12  1  0
 10 18  1  0
 12 13  1  0
 13 14  1  0
 14 15  1  0
 15 16  1  6
 15 17  1  0
 17 18  1  0
M  CHG  1  16   1
M  END
