
     RDKit          3D

 19 20  0  0  0  0  0  0  0  0999 V2000
    6.5170   -0.7760    0.5700 C   0  0  0  0  0  0  0  0  0  0  0  0
    5.1150   -1.1100    0.8190 C   0  0  0  0  0  0  0  0  0  0  0  0
    4.2180   -1.2310   -0.1450 C   0  0  0  0  0  0  0  0  0  0  0  0
    2.9030   -1.5420    0.0700 O   0  0  0  0  0  0  0  0  0  0  0  0
    1.9180   -0.5660   -0.0980 C   0  0  0  0  0  0  0  0  0  0  0  0
    0.5730   -0.8590    0.1150 C   0  0  0  0  0  0  0  0  0  0  0  0
   -0.3740    0.1140   -0.0560 C   0  0  0  0  0  0  0  0  0  0  0  0
   -0.0070    1.3890   -0.4420 C   0  0  0  0  0  0  0  0  0  0  0  0
    1.3020    1.7150   -0.6610 C   0  0  0  0  0  0  0  0  0  0  0  0
    2.2530    0.7230   -0.4840 C   0  0  0  0  0  0  0  0  0  0  0  0
    3.5760    1.0600   -0.7080 O   0  0  0  0  0  0  0  0  0  0  0  0
   -1.1150    2.4030   -0.6130 C   0  0  0  0  0  0  0  0  0  0  0  0
   -2.2980    1.8330   -1.3190 C   0  0  0  0  0  0  0  0  0  0  0  0
   -2.4450    0.3330   -1.1890 C   0  0  0  0  0  0  0  0  0  0  0  0
   -1.8280   -0.0640    0.1370 C   0  0  1  0  0  0  0  0  0  0  0  0
   -2.2620   -1.2980    0.6570 N   0  0  0  0  0  0  0  0  0  0  0  0
   -3.2720   -1.0710    1.7060 C   0  0  0  0  0  0  0  0  0  0  0  0
   -4.5840   -0.6060    1.1160 C   0  0  0  0  0  0  0  0  0  0  0  0
   -5.1270   -1.5280    0.2260 O   0  0  0  0  0  0  0  0  0  0  0  0
  1  2  1  0
  2  3  2  3
  3  4  1  0
  4  5  1  0
  5  6  2  0
  5 10  1  0
  6  7  1  0
  7  8  2  0
  7 15  1  0
  8  9  1  0
  8 12  1  0
  9 10  2  0
 10 11  1  0
 12 13  1  0
 13 14  1  0
 14 15  1  0
 15 16  1  6
 16 17  1  0
 17 18  1  0
 18 19  1  0
M  CHG  1  16   1
M  END
