
     RDKit          3D

 18 19  0  0  0  0  0  0  0  0999 V2000
    4.5510    0.4910    1.1640 C   0  0  0  0  0  0  0  0  0  0  0  0
    3.6020   -0.0860    0.5110 O   0  0  0  0  0  0  0  0  0  0  0  0
    2.6420   -0.6700   -0.1500 C   0  0  0  0  0  0  0  0  0  0  0  0
    3.0400   -1.7050   -0.9660 C   0  0  0  0  0  0  0  0  0  0  0  0
    4.3840   -2.0660   -1.0430 O   0  0  0  0  0  0  0  0  0  0  0  0
    1.2230   -0.3860   -0.1320 C   0  0  0  0  0  0  0  0  0  0  0  0
    0.3450   -1.3510   -0.6420 C   0  0  0  0  0  0  0  0  0  0  0  0
   -1.0000   -1.0950   -0.6740 C   0  0  0  0  0  0  0  0  0  0  0  0
   -1.5280    0.0840   -0.2200 C   0  0  0  0  0  0  0  0  0  0  0  0
   -0.7080    1.0600    0.2890 C   0  0  0  0  0  0  0  0  0  0  0  0
   -1.3270    2.2920    0.7610 C   0  0  0  0  0  0  0  0  0  0  0  0
   -0.4570    3.2970    1.2800 N   0  0  0  0  0  0  0  0  0  0  0  0
    0.6760    0.7960    0.3210 C   0  0  0  0  0  0  0  0  0  0  0  0
    1.4260    1.7940    0.8220 O   0  0  0  0  0  0  0  0  0  0  0  0
   -3.0040    0.2460   -0.3140 C   0  0  0  0  0  0  0  0  0  0  0  0
   -3.7880   -1.0040   -0.1390 C   0  0  0  0  0  0  0  0  0  0  0  0
   -3.0100   -2.2870   -0.1830 C   0  0  0  0  0  0  0  0  0  0  0  0
   -1.9120   -2.1260   -1.2140 C   0  0  0  0  0  0  0  0  0  0  0  0
  1  2  1  0
  2  3  1  0
  3  4  2  3
  3  6  1  0
  4  5  1  0
  6  7  2  0
  6 13  1  0
  7  8  1  0
  8  9  2  0
  8 18  1  0
  9 10  1  0
  9 15  1  0
 10 11  1  0
 10 13  2  0
 11 12  1  0
 13 14  1  0
 15 16  1  0
 16 17  1  0
 17 18  1  0
M  CHG  1  12   1
M  END
