
     RDKit          3D

 19 20  0  0  0  0  0  0  0  0999 V2000
    5.2860   -1.7240    1.0140 C   0  0  0  0  0  0  0  0  0  0  0  0
    4.2510   -0.9030    0.3500 C   0  0  0  0  0  0  0  0  0  0  0  0
    3.0270   -0.8510    0.7840 C   0  0  0  0  0  0  0  0  0  0  0  0
    2.0130   -0.0020    0.0680 C   0  0  0  0  0  0  0  0  0  0  0  0
    0.8010   -0.2700    0.3100 C   0  0  0  0  0  0  0  0  0  0  0  0
   -0.5330    0.2370   -0.1110 C   0  0  0  0  0  0  0  0  0  0  0  0
   -1.5560   -0.3900    0.4400 C   0  0  0  0  0  0  0  0  0  0  0  0
   -2.9620   -0.3450    0.4430 C   0  0  0  0  0  0  0  0  0  0  0  0
   -3.6900   -1.2890    1.1090 C   0  0  0  0  0  0  0  0  0  0  0  0
   -5.1540   -1.3450    1.1820 C   0  0  0  0  0  0  0  0  0  0  0  0
   -5.8110   -0.2230    0.6980 O   0  0  0  0  0  0  0  0  0  0  0  0
   -5.1200    0.7580    0.0270 C   0  0  0  0  0  0  0  0  0  0  0  0
   -3.7680    0.7180   -0.1050 C   0  0  0  0  0  0  0  0  0  0  0  0
   -3.2690    1.8930   -0.7290 N   0  0  0  0  0  0  0  0  0  0  0  0
   -0.5820    1.1800   -1.2310 C   0  0  0  0  0  0  0  0  0  0  0  0
   -0.1560    2.4440   -0.9680 O   0  0  0  0  0  0  0  0  0  0  0  0
    2.6120    1.0190   -0.8060 C   0  0  0  0  0  0  0  0  0  0  0  0
    4.0110    1.1520   -0.5890 O   0  0  0  0  0  0  0  0  0  0  0  0
    4.6270   -0.0850   -0.8460 C   0  0  0  0  0  0  0  0  0  0  0  0
  1  2  1  0
  2  3  2  0
  2 19  1  0
  3  4  1  0
  4  5  2  3
  4 17  1  0
  5  6  1  0
  6  7  2  3
  6 15  1  0
  7  8  1  0
  8  9  2  0
  8 13  1  0
  9 10  1  0
 10 11  1  0
 11 12  1  0
 12 13  2  0
 13 14  1  0
 15 16  1  0
 17 18  1  0
 18 19  1  0
M  END
