
     RDKit          3D

 22 22  0  0  0  0  0  0  0  0999 V2000
    4.2510    0.3740    2.0480 O   0  0  0  0  0  0  0  0  0  0  0  0
    3.9790    1.3880    1.3830 C   0  0  0  0  0  0  0  0  0  0  0  0
    3.5520    2.5210    2.0950 O   0  0  0  0  0  0  0  0  0  0  0  0
    4.0800    1.4300    0.0070 O   0  0  0  0  0  0  0  0  0  0  0  0
    4.5020    0.3130   -0.7420 C   0  0  0  0  0  0  0  0  0  0  0  0
    3.5760   -0.8550   -0.5510 C   0  0  2  0  0  0  0  0  0  0  0  0
    4.0260   -1.9350   -1.3070 O   0  0  0  0  0  0  0  0  0  0  0  0
    2.1530   -0.4370   -1.0010 C   0  0  1  0  0  0  0  0  0  0  0  0
    2.3470   -0.0970   -2.3750 O   0  0  0  0  0  0  0  0  0  0  0  0
    1.2870   -1.4650   -0.9200 O   0  0  0  0  0  0  0  0  0  0  0  0
    0.1220   -1.4180   -0.2660 C   0  0  0  0  0  0  0  0  0  0  0  0
   -0.9700   -0.5190   -0.7500 C   0  0  2  0  0  0  0  0  0  0  0  0
   -1.2200   -0.9140   -2.0900 O   0  0  0  0  0  0  0  0  0  0  0  0
   -0.6320    0.9070   -0.6720 C   0  0  0  0  0  0  0  0  0  0  0  0
   -1.8610    1.8180   -0.7490 C   0  0  0  0  0  0  0  0  0  0  0  0
   -2.8060    1.5450    0.3950 C   0  0  0  0  0  0  0  0  0  0  0  0
   -2.5670    0.1880    1.0150 C   0  0  1  0  0  0  0  0  0  0  0  0
   -3.7250   -0.2090    1.8680 C   0  0  1  0  0  0  0  0  0  0  0  0
   -3.9530    0.6890    2.9080 O   0  0  0  0  0  0  0  0  0  0  0  0
   -4.9080   -0.2760    1.1290 O   0  0  0  0  0  0  0  0  0  0  0  0
   -2.2690   -0.8630   -0.0260 C   0  0  1  0  0  0  0  0  0  0  0  0
   -3.2950   -1.0620   -0.9080 O   0  0  0  0  0  0  0  0  0  0  0  0
  1  2  2  0
  2  3  1  0
  2  4  1  0
  4  5  1  0
  5  6  1  0
  6  7  1  6
  6  8  1  0
  8  9  1  6
  8 10  1  0
 10 11  1  0
 11 12  1  0
 12 13  1  6
 12 14  1  0
 12 21  1  0
 14 15  1  0
 15 16  1  0
 17 16  1  6
 17 18  1  0
 17 21  1  0
 18 19  1  1
 18 20  1  0
 21 22  1  6
M  END
