
     RDKit          3D

 22 22  0  0  0  0  0  0  0  0999 V2000
   -1.3480    3.4360    0.5220 O   0  0  0  0  0  0  0  0  0  0  0  0
   -1.2660    2.4140    1.2570 C   0  0  0  0  0  0  0  0  0  0  0  0
   -1.4000    2.6410    2.6170 O   0  0  0  0  0  0  0  0  0  0  0  0
   -1.0470    1.0590    0.7620 C   0  0  2  0  0  0  0  0  0  0  0  0
   -0.9150    0.1950    1.8750 O   0  0  0  0  0  0  0  0  0  0  0  0
    0.2400    0.9370   -0.0340 C   0  0  0  0  0  0  0  0  0  0  0  0
    0.5570   -0.4630   -0.3680 C   0  0  2  0  0  0  0  0  0  0  0  0
    1.4840   -0.4870   -1.4080 O   0  0  0  0  0  0  0  0  0  0  0  0
    2.6600   -1.1240   -1.1330 C   0  0  1  0  0  0  0  0  0  0  0  0
    2.7100   -2.2250   -2.0350 O   0  0  0  0  0  0  0  0  0  0  0  0
    3.7810   -0.3700   -1.4120 O   0  0  0  0  0  0  0  0  0  0  0  0
    4.6930   -0.2920   -0.3780 C   0  0  0  0  0  0  0  0  0  0  0  0
    4.1680    0.3660    0.8690 C   0  0  0  0  0  0  0  0  0  0  0  0
    3.7670    1.6810    0.6320 O   0  0  0  0  0  0  0  0  0  0  0  0
   -0.6020   -1.2920   -0.8290 C   0  0  0  0  0  0  0  0  0  0  0  0
   -1.9110   -0.9610   -0.2270 C   0  0  2  0  0  0  0  0  0  0  0  0
   -1.9660   -1.5200    1.0600 O   0  0  0  0  0  0  0  0  0  0  0  0
   -2.9870   -1.6530   -1.0440 C   0  0  0  0  0  0  0  0  0  0  0  0
   -2.6630   -3.0180   -1.0390 O   0  0  0  0  0  0  0  0  0  0  0  0
   -2.1320    0.5310   -0.1530 C   0  0  1  0  0  0  0  0  0  0  0  0
   -3.5170    0.8770    0.3150 C   0  0  0  0  0  0  0  0  0  0  0  0
   -3.6350    2.2580    0.3640 O   0  0  0  0  0  0  0  0  0  0  0  0
  1  2  2  0
  2  3  1  0
  2  4  1  0
  4  5  1  1
  4  6  1  0
  4 20  1  0
  6  7  1  0
  7  8  1  6
  7 15  1  0
  8  9  1  0
  9 10  1  6
  9 11  1  0
 11 12  1  0
 12 13  1  0
 13 14  1  0
 15 16  1  0
 16 17  1  1
 16 18  1  0
 16 20  1  0
 18 19  1  0
 20 21  1  1
 21 22  1  0
M  END
