
     RDKit          3D

 22 23  0  0  0  0  0  0  0  0999 V2000
    4.9750   -1.0610    0.6420 C   0  0  0  0  0  0  0  0  0  0  0  0
    3.6690   -1.0120    0.0620 O   0  0  0  0  0  0  0  0  0  0  0  0
    3.0150    0.2090   -0.0340 C   0  0  0  0  0  0  0  0  0  0  0  0
    3.5890    1.2480    0.3940 O   0  0  0  0  0  0  0  0  0  0  0  0
    1.6470    0.2540   -0.6420 C   0  0  2  0  0  0  0  0  0  0  0  0
    1.2260    1.5330   -0.6240 O   0  0  0  0  0  0  0  0  0  0  0  0
   -0.1410    1.7310   -0.7980 C   0  0  2  0  0  0  0  0  0  0  0  0
   -0.4500    3.1620   -0.6380 C   0  0  0  0  0  0  0  0  0  0  0  0
   -1.6610    3.5200   -0.7660 O   0  0  0  0  0  0  0  0  0  0  0  0
    0.5050    4.1060   -0.3590 O   0  0  0  0  0  0  0  0  0  0  0  0
   -0.8060    0.8450    0.1820 C   0  0  1  0  0  0  0  0  0  0  0  0
   -0.2310    1.0620    1.5600 C   0  0  0  0  0  0  0  0  0  0  0  0
   -2.2720    0.7840    0.1800 C   0  0  1  0  0  0  0  0  0  0  0  0
   -2.7710    0.6160   -1.0910 O   0  0  0  0  0  0  0  0  0  0  0  0
   -2.4990   -0.5170    0.9430 C   0  0  0  0  0  0  0  0  0  0  0  0
   -1.4110   -1.4050    0.3610 C   0  0  1  0  0  0  0  0  0  0  0  0
   -0.8840   -2.2600    1.3230 O   0  0  0  0  0  0  0  0  0  0  0  0
   -2.1070   -2.2950   -0.6720 C   0  0  0  0  0  0  0  0  0  0  0  0
   -1.2120   -3.1810   -1.2570 O   0  0  0  0  0  0  0  0  0  0  0  0
   -0.4300   -0.5620   -0.3240 C   0  0  1  0  0  0  0  0  0  0  0  0
   -0.5160   -0.5730   -1.7210 O   0  0  0  0  0  0  0  0  0  0  0  0
    0.8820   -0.6810    0.0260 O   0  0  0  0  0  0  0  0  0  0  0  0
  1  2  1  0
  2  3  1  0
  3  4  2  0
  5  3  1  1
  5  6  1  0
  5 22  1  0
  6  7  1  0
  7  8  1  1
  7 11  1  0
  8  9  2  0
  8 10  1  0
 11 12  1  1
 11 13  1  0
 11 20  1  0
 13 14  1  6
 13 15  1  0
 15 16  1  0
 16 17  1  1
 16 18  1  0
 16 20  1  0
 18 19  1  0
 20 21  1  6
 20 22  1  0
M  END
