
     RDKit          3D

 23 23  0  0  0  0  0  0  0  0999 V2000
   -2.7500   -0.8980   -1.6290 C   0  0  0  0  0  0  0  0  0  0  0  0
   -1.8160   -0.1630   -0.6700 C   0  0  1  0  0  0  0  0  0  0  0  0
   -1.2660    0.8760   -1.4090 O   0  0  0  0  0  0  0  0  0  0  0  0
   -2.6950    0.3720    0.4100 C   0  0  2  0  0  0  0  0  0  0  0  0
   -3.7130    1.2970   -0.2390 C   0  0  0  0  0  0  0  0  0  0  0  0
   -4.5710    1.8440    0.7180 O   0  0  0  0  0  0  0  0  0  0  0  0
   -2.0060    1.0410    1.5560 C   0  0  0  0  0  0  0  0  0  0  0  0
   -2.9490    1.4920    2.5010 O   0  0  0  0  0  0  0  0  0  0  0  0
   -0.7080   -1.0550   -0.2020 C   0  0  2  0  0  0  0  0  0  0  0  0
   -1.2210   -2.0580    0.6030 O   0  0  0  0  0  0  0  0  0  0  0  0
    0.4250   -0.3720    0.4920 C   0  0  0  0  0  0  0  0  0  0  0  0
    1.6250   -0.7350   -0.3980 C   0  0  1  0  0  0  0  0  0  0  0  0
    1.5940    0.1230   -1.4770 O   0  0  0  0  0  0  0  0  0  0  0  0
    2.8880   -0.6980    0.3450 C   0  0  0  0  0  0  0  0  0  0  0  0
    3.0380   -1.4290    1.3410 O   0  0  0  0  0  0  0  0  0  0  0  0
    3.8980    0.1330   -0.0500 O   0  0  0  0  0  0  0  0  0  0  0  0
    5.1540    0.2060    0.6440 C   0  0  0  0  0  0  0  0  0  0  0  0
    6.0400    1.1870   -0.0140 C   0  0  0  0  0  0  0  0  0  0  0  0
    7.1830    1.3800    0.4630 O   0  0  0  0  0  0  0  0  0  0  0  0
    5.6140    1.8730   -1.1250 O   0  0  0  0  0  0  0  0  0  0  0  0
    1.2500   -2.0170   -0.7850 O   0  0  0  0  0  0  0  0  0  0  0  0
   -0.0050   -1.7560   -1.3500 C   0  0  1  0  0  0  0  0  0  0  0  0
   -0.5600   -3.0130   -1.6290 O   0  0  0  0  0  0  0  0  0  0  0  0
  2  1  1  6
  2  3  1  0
  2  4  1  0
  2  9  1  0
  4  5  1  6
  4  7  1  0
  5  6  1  0
  7  8  1  0
  9 10  1  1
  9 11  1  0
  9 22  1  0
 11 12  1  0
 12 13  1  6
 12 14  1  0
 12 21  1  0
 14 15  2  0
 14 16  1  0
 16 17  1  0
 17 18  1  0
 18 19  2  0
 18 20  1  0
 21 22  1  0
 22 23  1  1
M  END
