
     RDKit          3D

 23 24  0  0  0  0  0  0  0  0999 V2000
    2.4400    0.8770    3.5050 O   0  0  0  0  0  0  0  0  0  0  0  0
    3.1990    0.1210    2.6230 C   0  0  0  0  0  0  0  0  0  0  0  0
    2.5090   -0.0670    1.2980 C   0  0  2  0  0  0  0  0  0  0  0  0
    1.2980   -0.7110    1.4100 O   0  0  0  0  0  0  0  0  0  0  0  0
    0.6550   -0.9390    0.2120 C   0  0  1  0  0  0  0  0  0  0  0  0
   -0.1070    0.1130   -0.2470 O   0  0  0  0  0  0  0  0  0  0  0  0
   -1.4470   -0.1030   -0.3040 C   0  0  1  0  0  0  0  0  0  0  0  0
   -2.1660    0.9800    0.4650 C   0  0  1  0  0  0  0  0  0  0  0  0
   -1.3350    2.2590    0.5520 C   0  0  0  0  0  0  0  0  0  0  0  0
   -0.1140    2.0670    1.1480 O   0  0  0  0  0  0  0  0  0  0  0  0
   -3.3540    1.3590   -0.1480 O   0  0  0  0  0  0  0  0  0  0  0  0
   -4.1220    0.3210   -0.5940 C   0  0  1  0  0  0  0  0  0  0  0  0
   -5.2350    0.9040   -1.2480 O   0  0  0  0  0  0  0  0  0  0  0  0
   -3.4330   -0.5340   -1.6320 C   0  0  2  0  0  0  0  0  0  0  0  0
   -3.4030   -1.8660   -1.1680 O   0  0  0  0  0  0  0  0  0  0  0  0
   -1.9940   -0.0060   -1.7390 C   0  0  1  0  0  0  0  0  0  0  0  0
   -2.0510    1.3140   -2.1350 O   0  0  0  0  0  0  0  0  0  0  0  0
    1.5140   -1.5750   -0.8400 C   0  0  2  0  0  0  0  0  0  0  0  0
    1.9520   -2.8520   -0.4540 O   0  0  0  0  0  0  0  0  0  0  0  0
    2.7590   -0.7320   -1.0100 C   0  0  1  0  0  0  0  0  0  0  0  0
    2.4290    0.6200   -1.1900 O   0  0  0  0  0  0  0  0  0  0  0  0
    3.4690   -0.8000    0.3510 C   0  0  1  0  0  0  0  0  0  0  0  0
    4.6980   -0.1740    0.3220 O   0  0  0  0  0  0  0  0  0  0  0  0
  1  2  1  0
  3  2  1  1
  3  4  1  0
  3 22  1  0
  4  5  1  0
  5  6  1  6
  5 18  1  0
  7  6  1  6
  7  8  1  0
  7 16  1  0
  8  9  1  6
  8 11  1  0
  9 10  1  0
 11 12  1  0
 12 13  1  6
 12 14  1  0
 14 15  1  1
 14 16  1  0
 16 17  1  1
 18 19  1  1
 18 20  1  0
 20 21  1  1
 20 22  1  0
 22 23  1  6
M  END
