
     RDKit          3D

 23 23  0  0  0  0  0  0  0  0999 V2000
   -3.1990    1.1610    2.0270 O   0  0  0  0  0  0  0  0  0  0  0  0
   -3.0310    0.9010    0.7890 C   0  0  0  0  0  0  0  0  0  0  0  0
   -3.3340    1.9200   -0.0770 O   0  0  0  0  0  0  0  0  0  0  0  0
   -2.5460   -0.4180    0.4120 C   0  0  2  0  0  0  0  0  0  0  0  0
   -2.5730   -1.3450    1.6210 C   0  0  0  0  0  0  0  0  0  0  0  0
   -3.9420   -1.3880    1.9980 O   0  0  0  0  0  0  0  0  0  0  0  0
   -1.2500   -0.4790   -0.3470 C   0  0  1  0  0  0  0  0  0  0  0  0
   -1.4520    0.2960   -1.6290 C   0  0  0  0  0  0  0  0  0  0  0  0
   -0.2400    0.2950   -2.5370 C   0  0  2  0  0  0  0  0  0  0  0  0
   -0.5570    1.0560   -3.6900 O   0  0  0  0  0  0  0  0  0  0  0  0
    0.0690   -0.9790   -3.0130 O   0  0  0  0  0  0  0  0  0  0  0  0
   -0.1030    0.1120    0.4450 C   0  0  0  0  0  0  0  0  0  0  0  0
    0.9820   -0.9360    0.4850 C   0  0  2  0  0  0  0  0  0  0  0  0
    1.1820   -1.3200    1.9370 C   0  0  0  0  0  0  0  0  0  0  0  0
    1.5700   -0.2940    2.7630 O   0  0  0  0  0  0  0  0  0  0  0  0
    2.0760   -0.4740   -0.1350 O   0  0  0  0  0  0  0  0  0  0  0  0
    2.7540    0.6100    0.2310 C   0  0  1  0  0  0  0  0  0  0  0  0
    4.0410    0.3540    0.7480 O   0  0  0  0  0  0  0  0  0  0  0  0
    2.9470    1.7170   -0.7660 C   0  0  2  0  0  0  0  0  0  0  0  0
    3.6400    1.2490   -1.9000 O   0  0  0  0  0  0  0  0  0  0  0  0
    3.8490    2.6390   -0.1740 O   0  0  0  0  0  0  0  0  0  0  0  0
    0.3080   -2.1100   -0.1690 C   0  0  0  0  0  0  0  0  0  0  0  0
   -0.8930   -1.7450   -0.6890 O   0  0  0  0  0  0  0  0  0  0  0  0
  1  2  2  0
  2  3  1  0
  2  4  1  0
  4  5  1  1
  4  7  1  0
  5  6  1  0
  7  8  1  6
  7 12  1  0
  7 23  1  0
  8  9  1  0
  9 10  1  6
  9 11  1  0
 12 13  1  0
 13 14  1  1
 13 16  1  0
 13 22  1  0
 14 15  1  0
 16 17  1  0
 17 18  1  6
 17 19  1  0
 19 20  1  6
 19 21  1  0
 22 23  1  0
M  END
