
     RDKit          3D

 23 23  0  0  0  0  0  0  0  0999 V2000
    2.5270   -0.7860    0.8280 O   0  0  0  0  0  0  0  0  0  0  0  0
    2.4110   -0.5600   -0.3950 C   0  0  0  0  0  0  0  0  0  0  0  0
    3.4410   -0.8810   -1.2380 O   0  0  0  0  0  0  0  0  0  0  0  0
    4.6740   -1.4500   -0.9220 C   0  0  0  0  0  0  0  0  0  0  0  0
    5.5520   -0.6150   -0.0350 C   0  0  2  0  0  0  0  0  0  0  0  0
    4.9910   -0.3500    1.1950 O   0  0  0  0  0  0  0  0  0  0  0  0
    5.9090    0.5960   -0.6750 O   0  0  0  0  0  0  0  0  0  0  0  0
    1.1850    0.0450   -0.9310 C   0  0  1  0  0  0  0  0  0  0  0  0
    1.2130    0.2290   -2.2970 O   0  0  0  0  0  0  0  0  0  0  0  0
   -0.0680   -0.8040   -0.6090 C   0  0  0  0  0  0  0  0  0  0  0  0
   -1.0360    0.3510   -0.2980 C   0  0  1  0  0  0  0  0  0  0  0  0
   -1.1620    1.0520   -1.4820 O   0  0  0  0  0  0  0  0  0  0  0  0
   -2.2700   -0.0020    0.4020 C   0  0  2  0  0  0  0  0  0  0  0  0
   -2.0520   -0.5610    1.8010 C   0  0  0  0  0  0  0  0  0  0  0  0
   -3.2620   -0.8770    2.4160 O   0  0  0  0  0  0  0  0  0  0  0  0
   -2.7610   -1.3340   -0.3310 C   0  0  0  0  0  0  0  0  0  0  0  0
   -1.8370   -2.3250   -0.1970 O   0  0  0  0  0  0  0  0  0  0  0  0
   -3.4860    0.8250    0.2280 C   0  0  0  0  0  0  0  0  0  0  0  0
   -3.5400    2.2410    0.5450 C   0  0  0  0  0  0  0  0  0  0  0  0
   -2.7230    3.0980   -0.1820 O   0  0  0  0  0  0  0  0  0  0  0  0
   -0.0020    1.0340    0.6300 C   0  0  2  0  0  0  0  0  0  0  0  0
   -0.4390    2.0790    1.3400 O   0  0  0  0  0  0  0  0  0  0  0  0
    0.9730    1.2880   -0.3340 O   0  0  0  0  0  0  0  0  0  0  0  0
  1  2  2  0
  2  3  1  0
  2  8  1  0
  3  4  1  0
  4  5  1  0
  5  6  1  1
  5  7  1  0
  8  9  1  6
  8 10  1  0
  8 23  1  0
 10 11  1  0
 11 12  1  6
 11 13  1  0
 11 21  1  0
 13 14  1  1
 13 16  1  0
 13 18  1  0
 14 15  1  0
 16 17  1  0
 18 19  1  0
 19 20  1  0
 21 22  1  6
 21 23  1  0
M  END
