
     RDKit          3D

 36 39  0  0  0  0  0  0  0  0999 V2000
   10.2600    0.6190    3.3570 N   0  0  0  0  0  0  0  0  0  0  0  0
    9.6010    0.4460    2.4290 C   0  0  0  0  0  0  0  0  0  0  0  0
    8.7370    0.2280    1.2530 C   0  0  2  0  0  0  0  0  0  0  0  0
    7.7360    1.3220    1.0770 C   0  0  0  0  0  0  0  0  0  0  0  0
    6.4600    1.1070    1.8190 C   0  0  0  0  0  0  0  0  0  0  0  0
    5.9390   -0.2470    1.7250 N   0  0  1  0  0  0  0  0  0  0  0  0
    5.3930   -0.4570    0.4300 C   0  0  0  0  0  0  0  0  0  0  0  0
    4.0220   -1.0270    0.5410 C   0  0  0  0  0  0  0  0  0  0  0  0
    3.0470   -0.8880    1.4320 C   0  0  0  0  0  0  0  0  0  0  0  0
    1.8820   -1.5470    1.2710 C   0  0  0  0  0  0  0  0  0  0  0  0
    1.7700   -2.3550    0.1490 C   0  0  0  0  0  0  0  0  0  0  0  0
    0.6080   -3.2020   -0.2880 C   0  0  0  0  0  0  0  0  0  0  0  0
   -0.5230   -2.3040   -0.3970 N   0  0  0  0  0  0  0  0  0  0  0  0
   -0.4650   -1.2020   -1.2720 C   0  0  0  0  0  0  0  0  0  0  0  0
    0.5290   -0.9130   -2.0050 O   0  0  0  0  0  0  0  0  0  0  0  0
   -1.5940   -0.3000   -1.3810 N   0  0  0  0  0  0  0  0  0  0  0  0
   -1.5620    0.8230   -2.2450 C   0  0  0  0  0  0  0  0  0  0  0  0
   -2.7710    1.6810   -2.2790 C   0  0  0  0  0  0  0  0  0  0  0  0
   -2.6360    2.6770   -3.0880 O   0  0  0  0  0  0  0  0  0  0  0  0
   -3.9300    1.4600   -1.5350 N   0  0  0  0  0  0  0  0  0  0  0  0
   -5.0620    2.2910   -1.5730 C   0  0  0  0  0  0  0  0  0  0  0  0
   -5.0980    3.5260   -2.1960 C   0  0  0  0  0  0  0  0  0  0  0  0
   -6.2690    4.2790   -2.1250 C   0  0  0  0  0  0  0  0  0  0  0  0
   -7.3430    3.7900   -1.4500 C   0  0  0  0  0  0  0  0  0  0  0  0
   -7.2740    2.5900   -0.8570 N   0  0  0  0  0  0  0  0  0  0  0  0
   -6.1760    1.8190   -0.8920 C   0  0  0  0  0  0  0  0  0  0  0  0
   -6.1740    0.5710   -0.2770 N   0  0  0  0  0  0  0  0  0  0  0  0
   -6.3900    0.4500    1.1510 C   0  0  0  0  0  0  0  0  0  0  0  0
   -6.9330   -0.6440    1.6600 C   0  0  0  0  0  0  0  0  0  0  0  0
   -7.1850   -0.7610    3.4220 Cl  0  0  0  0  0  0  0  0  0  0  0  0
   -7.3450   -1.7920    0.8480 C   0  0  0  0  0  0  0  0  0  0  0  0
   -7.2630   -1.5380   -0.6100 C   0  0  0  0  0  0  0  0  0  0  0  0
   -6.0020   -0.7040   -0.9440 C   0  0  0  0  0  0  0  0  0  0  0  0
    3.3060   -2.1620   -0.6430 S   0  0  0  0  0  0  0  0  0  0  0  0
    6.9050   -1.2030    2.1710 C   0  0  0  0  0  0  0  0  0  0  0  0
    8.1450   -1.1430    1.3490 C   0  0  0  0  0  0  0  0  0  0  0  0
  1  2  3  0
  3  2  1  1
  3  4  1  0
  3 36  1  0
  4  5  1  0
  5  6  1  0
  6  7  1  6
  6 35  1  0
  7  8  1  0
  8  9  2  0
  8 34  1  0
  9 10  1  0
 10 11  2  0
 11 12  1  0
 11 34  1  0
 12 13  1  0
 13 14  1  0
 14 15  2  0
 14 16  1  0
 16 17  1  0
 17 18  1  0
 18 19  2  0
 18 20  1  0
 20 21  1  0
 21 22  2  0
 21 26  1  0
 22 23  1  0
 23 24  2  0
 24 25  1  0
 25 26  2  0
 26 27  1  0
 27 28  1  0
 27 33  1  0
 28 29  2  0
 29 30  1  0
 29 31  1  0
 31 32  1  0
 32 33  1  0
 35 36  1  0
M  CHG  1   6   1
M  END
