
     RDKit          3D

 37 40  0  0  0  0  0  0  0  0999 V2000
    8.5320   -1.8140   -1.0310 C   0  0  0  0  0  0  0  0  0  0  0  0
    7.3650   -0.8700   -1.3220 C   0  0  0  0  0  0  0  0  0  0  0  0
    6.0800   -1.5410   -1.2120 C   0  0  0  0  0  0  0  0  0  0  0  0
    5.1320   -1.2080   -0.3710 C   0  0  0  0  0  0  0  0  0  0  0  0
    5.2110   -0.1440    0.5610 N   0  0  0  0  0  0  0  0  0  0  0  0
    4.1520    0.1540    1.4340 N   0  0  0  0  0  0  0  0  0  0  0  0
    3.0400   -0.4930    1.4680 C   0  0  0  0  0  0  0  0  0  0  0  0
    1.7340   -0.0320    2.6320 S   0  0  0  0  0  0  0  0  0  0  0  0
    0.3580   -1.0990    2.4000 C   0  0  0  0  0  0  0  0  0  0  0  0
    0.4840   -2.3430    3.0440 C   0  0  0  0  0  0  0  0  0  0  0  0
   -0.4820   -3.2850    2.9420 C   0  0  0  0  0  0  0  0  0  0  0  0
   -0.3270   -4.8460    3.7500 Cl  0  0  0  0  0  0  0  0  0  0  0  0
   -1.5820   -2.9810    2.1910 C   0  0  0  0  0  0  0  0  0  0  0  0
   -1.7070   -1.7460    1.5530 C   0  0  0  0  0  0  0  0  0  0  0  0
   -0.7330   -0.7690    1.6450 C   0  0  0  0  0  0  0  0  0  0  0  0
   -1.1600    0.3620    0.9010 C   0  0  0  0  0  0  0  0  0  0  0  0
   -0.4190    1.5810    0.8150 C   0  0  0  0  0  0  0  0  0  0  0  0
    0.7080    1.5680    1.5010 O   0  0  0  0  0  0  0  0  0  0  0  0
   -0.5410    2.8110    0.2040 N   0  0  0  0  0  0  0  0  0  0  0  0
   -1.5890    3.3210   -0.6170 C   0  0  0  0  0  0  0  0  0  0  0  0
   -1.3370    4.8010   -1.0250 C   0  0  0  0  0  0  0  0  0  0  0  0
   -1.0640    5.5960    0.1250 N   0  0  0  0  0  0  0  0  0  0  0  0
   -1.0600    6.9940   -0.1300 C   0  0  0  0  0  0  0  0  0  0  0  0
    0.0680    5.0970    0.8760 C   0  0  0  0  0  0  0  0  0  0  0  0
    0.5740    3.7980    0.3780 C   0  0  2  0  0  0  0  0  0  0  0  0
    1.4240    3.9200   -0.8300 C   0  0  0  0  0  0  0  0  0  0  0  0
   -2.3920   -0.0320    0.3980 C   0  0  0  0  0  0  0  0  0  0  0  0
   -3.2970    0.7390   -0.4830 C   0  0  0  0  0  0  0  0  0  0  0  0
   -2.7010   -1.2820    0.7940 N   0  0  0  0  0  0  0  0  0  0  0  0
   -3.9020   -2.0340    0.4860 C   0  0  0  0  0  0  0  0  0  0  0  0
   -3.6290   -2.7800   -0.8210 C   0  0  0  0  0  0  0  0  0  0  0  0
   -4.7910   -3.5540   -1.1900 N   0  0  0  0  0  0  0  0  0  0  0  0
   -4.7240   -4.8260   -0.5040 C   0  0  0  0  0  0  0  0  0  0  0  0
   -5.7850   -4.9090    0.5770 C   0  0  0  0  0  0  0  0  0  0  0  0
    2.8960   -1.5890    0.5430 C   0  0  0  0  0  0  0  0  0  0  0  0
    1.8150   -2.2300    0.5650 O   0  0  0  0  0  0  0  0  0  0  0  0
    3.9010   -1.9740   -0.3780 N   0  0  0  0  0  0  0  0  0  0  0  0
  1  2  1  0
  2  3  1  0
  3  4  2  3
  4  5  1  0
  4 37  1  0
  5  6  1  0
  6  7  2  0
  7  8  1  0
  7 35  1  0
  8  9  1  0
  9 10  2  0
  9 15  1  0
 10 11  1  0
 11 12  1  0
 11 13  2  0
 13 14  1  0
 14 15  2  0
 14 29  1  0
 15 16  1  0
 16 17  1  0
 16 27  2  0
 17 18  2  0
 17 19  1  0
 19 20  1  0
 19 25  1  0
 20 21  1  0
 21 22  1  0
 22 23  1  0
 22 24  1  0
 24 25  1  0
 25 26  1  6
 27 28  1  0
 27 29  1  0
 29 30  1  0
 30 31  1  0
 31 32  1  0
 32 33  1  0
 33 34  1  0
 35 36  2  0
 35 37  1  0
M  CHG  1  32   1
M  END
