
     RDKit          3D

 37 41  0  0  0  0  0  0  0  0999 V2000
   -6.2180    2.4380   -1.5060 C   0  0  0  0  0  0  0  0  0  0  0  0
   -5.6810    1.4680   -0.8040 C   0  0  0  0  0  0  0  0  0  0  0  0
   -4.4210    1.6310   -0.1150 C   0  0  0  0  0  0  0  0  0  0  0  0
   -4.1000    2.8160    0.5080 C   0  0  0  0  0  0  0  0  0  0  0  0
   -2.8560    2.9030    1.0940 C   0  0  0  0  0  0  0  0  0  0  0  0
   -1.9740    1.8250    1.0490 C   0  0  0  0  0  0  0  0  0  0  0  0
   -2.3100    0.6350    0.4190 C   0  0  0  0  0  0  0  0  0  0  0  0
   -1.4600   -0.4490    0.3590 C   0  0  0  0  0  0  0  0  0  0  0  0
   -0.1500   -0.4040    0.9580 C   0  0  0  0  0  0  0  0  0  0  0  0
    0.5820   -1.4550    0.8590 O   0  0  0  0  0  0  0  0  0  0  0  0
    0.4460    0.6210    1.6370 O   0  0  0  0  0  0  0  0  0  0  0  0
    1.7460    0.4730    2.1520 C   0  0  0  0  0  0  0  0  0  0  0  0
    2.7440    0.1960    1.0880 C   0  0  0  0  0  0  0  0  0  0  0  0
    2.4440    0.1140   -0.1240 O   0  0  0  0  0  0  0  0  0  0  0  0
    4.1110    0.0090    1.4250 N   0  0  0  0  0  0  0  0  0  0  0  0
    5.1220   -0.2570    0.4810 C   0  0  0  0  0  0  0  0  0  0  0  0
    5.4210   -1.5490    0.1510 C   0  0  0  0  0  0  0  0  0  0  0  0
    4.6710   -2.6470    0.7960 C   0  0  0  0  0  0  0  0  0  0  0  0
    6.4060   -1.8250   -0.7690 C   0  0  0  0  0  0  0  0  0  0  0  0
    7.1070   -0.7910   -1.3720 C   0  0  0  0  0  0  0  0  0  0  0  0
    6.8140    0.5220   -1.0460 C   0  0  0  0  0  0  0  0  0  0  0  0
    5.8060    0.7810   -0.1050 C   0  0  0  0  0  0  0  0  0  0  0  0
    5.4690    2.1810    0.2650 C   0  0  0  0  0  0  0  0  0  0  0  0
   -1.8790   -1.6220   -0.3000 C   0  0  0  0  0  0  0  0  0  0  0  0
   -1.1030   -2.7150   -0.3970 O   0  0  0  0  0  0  0  0  0  0  0  0
   -3.1390   -1.6770   -0.8820 C   0  0  0  0  0  0  0  0  0  0  0  0
   -3.6150   -2.8740   -1.5760 C   0  0  0  0  0  0  0  0  0  0  0  0
   -2.9790   -4.0590   -1.7720 C   0  0  0  0  0  0  0  0  0  0  0  0
   -3.8320   -4.8860   -2.4840 C   0  0  0  0  0  0  0  0  0  0  0  0
   -4.9720   -4.1520   -2.6940 C   0  0  0  0  0  0  0  0  0  0  0  0
   -4.8040   -2.9950   -2.1520 O   0  0  0  0  0  0  0  0  0  0  0  0
   -3.9180   -0.5910   -0.7890 N   0  0  0  0  0  0  0  0  0  0  0  0
   -3.5490    0.5380   -0.1690 C   0  0  0  0  0  0  0  0  0  0  0  0
   -2.7890    4.2340    1.6820 C   0  0  0  0  0  0  0  0  0  0  0  0
   -1.8130    4.7160    2.3140 O   0  0  0  0  0  0  0  0  0  0  0  0
   -4.0420    4.9340    1.4230 C   0  0  0  0  0  0  0  0  0  0  0  0
   -4.7890    4.0850    0.7380 C   0  0  0  0  0  0  0  0  0  0  0  0
  1  2  2  0
  2  3  1  0
  3  4  2  0
  3 33  1  0
  4  5  1  0
  4 37  1  0
  5  6  2  0
  5 34  1  0
  6  7  1  0
  7  8  2  0
  7 33  1  0
  8  9  1  0
  8 24  1  0
  9 10  2  0
  9 11  1  0
 11 12  1  0
 12 13  1  0
 13 14  2  0
 13 15  1  0
 15 16  1  0
 16 17  2  0
 16 22  1  0
 17 18  1  0
 17 19  1  0
 19 20  2  0
 20 21  1  0
 21 22  2  0
 22 23  1  0
 24 25  1  0
 24 26  2  0
 26 27  1  0
 26 32  1  0
 27 28  2  0
 27 31  1  0
 28 29  1  0
 29 30  2  0
 30 31  1  0
 32 33  2  0
 34 35  2  0
 34 36  1  0
 36 37  2  0
M  END
