
     RDKit          3D

 36 39  0  0  0  0  0  0  0  0999 V2000
   -3.0570    3.8730    1.0440 C   0  0  0  0  0  0  0  0  0  0  0  0
   -3.5750    2.6420   -0.1650 S   0  0  0  0  0  0  0  0  0  0  0  0
   -4.4940    1.3630    0.6760 C   0  0  0  0  0  0  0  0  0  0  0  0
   -5.8200    1.4890    0.8110 N   0  0  0  0  0  0  0  0  0  0  0  0
   -6.5730    0.5670    1.4320 C   0  0  0  0  0  0  0  0  0  0  0  0
   -8.0380    0.7870    1.5370 C   0  0  0  0  0  0  0  0  0  0  0  0
   -8.7810    0.2010    0.3550 C   0  0  2  0  0  0  0  0  0  0  0  0
   -8.5670   -1.2850    0.2370 C   0  0  0  0  0  0  0  0  0  0  0  0
   -9.1080   -1.5580   -1.1620 C   0  0  0  0  0  0  0  0  0  0  0  0
   -8.8730   -0.2950   -1.9520 C   0  0  0  0  0  0  0  0  0  0  0  0
   -8.2850    0.7160   -0.9610 C   0  0  0  0  0  0  0  0  0  0  0  0
   -5.9710   -0.5170    1.9310 N   0  0  0  0  0  0  0  0  0  0  0  0
   -4.6270   -0.6830    1.8150 C   0  0  0  0  0  0  0  0  0  0  0  0
   -3.8540    0.2620    1.1790 C   0  0  0  0  0  0  0  0  0  0  0  0
   -2.4070    0.0520    1.0710 C   0  0  0  0  0  0  0  0  0  0  0  0
   -1.9620   -0.3770   -0.2880 C   0  0  0  0  0  0  0  0  0  0  0  0
   -0.5270   -0.5810   -0.3620 N   0  0  0  0  0  0  0  0  0  0  0  0
    0.4310    0.4340   -0.1170 C   0  0  0  0  0  0  0  0  0  0  0  0
   -0.0050    1.5960    0.1830 O   0  0  0  0  0  0  0  0  0  0  0  0
    1.8640    0.2310   -0.1870 C   0  0  0  0  0  0  0  0  0  0  0  0
    2.4180   -0.9250   -0.4870 C   0  0  0  0  0  0  0  0  0  0  0  0
    3.8820   -1.0420   -0.5360 C   0  0  0  0  0  0  0  0  0  0  0  0
    4.4170   -2.2200   -0.8420 N   0  0  0  0  0  0  0  0  0  0  0  0
    5.7570   -2.3410   -0.8900 C   0  0  0  0  0  0  0  0  0  0  0  0
    6.6090   -1.2890   -0.6330 C   0  0  0  0  0  0  0  0  0  0  0  0
    6.0490   -0.0770   -0.3180 C   0  0  0  0  0  0  0  0  0  0  0  0
    6.8480    1.1390   -0.0310 C   0  0  2  0  0  0  0  0  0  0  0  0
    7.7790    0.9310    1.1460 C   0  0  0  0  0  0  0  0  0  0  0  0
    5.8660    2.2310    0.4430 C   0  0  0  0  0  0  0  0  0  0  0  0
    7.5380    1.7120   -1.2430 C   0  0  0  0  0  0  0  0  0  0  0  0
    4.6880   -0.0110   -0.2840 N   0  0  0  0  0  0  0  0  0  0  0  0
    8.0660   -1.4270   -0.6760 C   0  0  0  0  0  0  0  0  0  0  0  0
    8.4880   -2.5500   -1.5170 N   0  0  0  0  0  0  0  0  0  0  0  0
    7.7360   -3.7050   -1.2580 C   0  0  0  0  0  0  0  0  0  0  0  0
    8.2690   -4.8390   -1.0590 O   0  0  0  0  0  0  0  0  0  0  0  0
    6.3210   -3.6040   -1.2160 N   0  0  0  0  0  0  0  0  0  0  0  0
  1  2  1  0
  2  3  1  0
  3  4  2  0
  3 14  1  0
  4  5  1  0
  5  6  1  0
  5 12  2  0
  7  6  1  1
  7  8  1  0
  7 11  1  0
  8  9  1  0
  9 10  1  0
 10 11  1  0
 12 13  1  0
 13 14  2  0
 14 15  1  0
 15 16  1  0
 16 17  1  0
 17 18  1  0
 18 19  2  0
 18 20  1  0
 20 21  2  3
 21 22  1  0
 22 23  2  0
 22 31  1  0
 23 24  1  0
 24 25  2  0
 24 36  1  0
 25 26  1  0
 25 32  1  0
 26 27  1  0
 26 31  2  0
 27 28  1  1
 27 29  1  0
 27 30  1  0
 32 33  1  0
 33 34  1  0
 34 35  2  0
 34 36  1  0
M  CHG  1  33   1
M  END
