
     RDKit          3D

 37 40  0  0  0  0  0  0  0  0999 V2000
    3.7670    1.8970    3.1560 C   0  0  0  0  0  0  0  0  0  0  0  0
    3.5720    1.0320    2.1490 C   0  0  0  0  0  0  0  0  0  0  0  0
    3.5800    1.5330    0.8650 O   0  0  0  0  0  0  0  0  0  0  0  0
    3.3690   -0.3720    2.4680 C   0  0  0  0  0  0  0  0  0  0  0  0
    3.1600   -1.3260    1.6320 C   0  0  0  0  0  0  0  0  0  0  0  0
    3.0800   -1.2430    0.1940 N   0  0  0  0  0  0  0  0  0  0  0  0
    3.7060   -2.1070   -0.5090 C   0  0  0  0  0  0  0  0  0  0  0  0
    3.6900   -2.1200   -1.9500 C   0  0  0  0  0  0  0  0  0  0  0  0
    4.4100   -3.1090   -2.6350 C   0  0  0  0  0  0  0  0  0  0  0  0
    4.4220   -3.1860   -3.9970 C   0  0  0  0  0  0  0  0  0  0  0  0
    5.1930   -4.2500   -4.7170 C   0  0  0  0  0  0  0  0  0  0  0  0
    3.6930   -2.2420   -4.7070 C   0  0  0  0  0  0  0  0  0  0  0  0
    2.9760   -1.2590   -4.0760 C   0  0  0  0  0  0  0  0  0  0  0  0
    2.9970   -1.2250   -2.6690 C   0  0  0  0  0  0  0  0  0  0  0  0
    2.2470   -0.2010   -2.1310 O   0  0  0  0  0  0  0  0  0  0  0  0
    0.9430   -0.3870   -1.7520 C   0  0  0  0  0  0  0  0  0  0  0  0
    0.5310   -1.6040   -1.9280 O   0  0  0  0  0  0  0  0  0  0  0  0
    0.0250    0.5940   -1.2070 C   0  0  0  0  0  0  0  0  0  0  0  0
   -1.2840    0.1890   -0.8850 C   0  0  0  0  0  0  0  0  0  0  0  0
   -2.2180    1.0390   -0.3710 C   0  0  0  0  0  0  0  0  0  0  0  0
   -3.5170    0.5730   -0.0850 N   0  0  0  0  0  0  0  0  0  0  0  0
   -4.3010    0.0490   -1.1500 C   0  0  0  0  0  0  0  0  0  0  0  0
   -3.8310    0.1070   -2.3060 O   0  0  0  0  0  0  0  0  0  0  0  0
   -5.6400   -0.5580   -0.9250 C   0  0  0  0  0  0  0  0  0  0  0  0
   -6.1070   -0.3660    0.3760 O   0  0  0  0  0  0  0  0  0  0  0  0
   -5.4020    0.1260    1.4410 C   0  0  0  0  0  0  0  0  0  0  0  0
   -5.9240    0.1740    2.7470 C   0  0  0  0  0  0  0  0  0  0  0  0
   -5.1600    0.6790    3.7700 C   0  0  0  0  0  0  0  0  0  0  0  0
   -5.7230    0.7160    5.1570 C   0  0  0  0  0  0  0  0  0  0  0  0
   -3.8730    1.1510    3.5670 C   0  0  0  0  0  0  0  0  0  0  0  0
   -3.4010    1.0820    2.2630 C   0  0  0  0  0  0  0  0  0  0  0  0
   -4.1140    0.5930    1.2150 C   0  0  0  0  0  0  0  0  0  0  0  0
   -1.8690    2.3550   -0.1530 C   0  0  0  0  0  0  0  0  0  0  0  0
   -0.5950    2.8040   -0.4520 C   0  0  0  0  0  0  0  0  0  0  0  0
   -0.1620    4.1940   -0.2340 C   0  0  0  0  0  0  0  0  0  0  0  0
    0.3590    1.9070   -0.9850 C   0  0  0  0  0  0  0  0  0  0  0  0
    1.6070    2.3980   -1.2680 O   0  0  0  0  0  0  0  0  0  0  0  0
  1  2  2  0
  2  3  1  0
  2  4  1  0
  4  5  2  3
  5  6  1  0
  6  7  2  3
  7  8  1  0
  8  9  2  0
  8 14  1  0
  9 10  1  0
 10 11  1  0
 10 12  2  0
 12 13  1  0
 13 14  2  0
 14 15  1  0
 15 16  1  0
 16 17  2  0
 16 18  1  0
 18 19  2  0
 18 36  1  0
 19 20  1  0
 20 21  1  0
 20 33  2  0
 21 22  1  0
 21 32  1  0
 22 23  2  0
 22 24  1  0
 24 25  1  0
 25 26  1  0
 26 27  2  0
 26 32  1  0
 27 28  1  0
 28 29  1  0
 28 30  2  0
 30 31  1  0
 31 32  2  0
 33 34  1  0
 34 35  1  0
 34 36  2  0
 36 37  1  0
M  END
