
     RDKit          3D

 37 40  0  0  0  0  0  0  0  0999 V2000
   12.0930    0.3820    0.3390 C   0  0  0  0  0  0  0  0  0  0  0  0
   11.0730   -0.0290   -0.5560 N   0  0  0  0  0  0  0  0  0  0  0  0
    9.7080   -0.2340   -0.1830 C   0  0  0  0  0  0  0  0  0  0  0  0
    8.4470   -0.7390   -1.3630 S   0  0  0  0  0  0  0  0  0  0  0  0
    7.1130   -0.7740   -0.1740 C   0  0  0  0  0  0  0  0  0  0  0  0
    5.7000   -1.1330   -0.4900 C   0  0  0  0  0  0  0  0  0  0  0  0
    4.9850    0.1400   -0.8590 C   0  0  0  0  0  0  0  0  0  0  0  0
    3.6300   -0.0250   -1.1900 N   0  0  0  0  0  0  0  0  0  0  0  0
    2.8940    1.1200   -1.5550 C   0  0  0  0  0  0  0  0  0  0  0  0
    1.5500    0.8310   -2.1720 C   0  0  0  0  0  0  0  0  0  0  0  0
    0.8830   -0.3190   -1.5540 N   0  0  0  0  0  0  0  0  0  0  0  0
   -0.4680   -0.2050   -1.1190 C   0  0  0  0  0  0  0  0  0  0  0  0
   -1.0340    0.9320   -1.3020 O   0  0  0  0  0  0  0  0  0  0  0  0
   -1.1600   -1.2750   -0.5190 N   0  0  0  0  0  0  0  0  0  0  0  0
   -2.4920   -1.2380   -0.0670 C   0  0  0  0  0  0  0  0  0  0  0  0
   -3.3340   -0.1790   -0.1460 C   0  0  0  0  0  0  0  0  0  0  0  0
   -4.6610   -0.1890    0.3160 C   0  0  0  0  0  0  0  0  0  0  0  0
   -5.4690    0.9570    0.1770 N   0  0  0  0  0  0  0  0  0  0  0  0
   -6.6960    1.2280    0.7800 C   0  0  0  0  0  0  0  0  0  0  0  0
   -7.1980    0.4080    1.5590 O   0  0  0  0  0  0  0  0  0  0  0  0
   -7.4430    2.4230    0.5570 N   0  0  0  0  0  0  0  0  0  0  0  0
   -8.7140    2.7050    1.1790 C   0  0  0  0  0  0  0  0  0  0  0  0
   -9.6410    1.6240    0.7780 C   0  0  0  0  0  0  0  0  0  0  0  0
   -9.8930    1.3940   -0.5540 C   0  0  0  0  0  0  0  0  0  0  0  0
  -10.7700    0.3790   -0.9580 C   0  0  0  0  0  0  0  0  0  0  0  0
  -11.3880   -0.4020    0.0180 C   0  0  0  0  0  0  0  0  0  0  0  0
  -11.1060   -0.1370    1.3360 C   0  0  0  0  0  0  0  0  0  0  0  0
  -10.2540    0.8520    1.6870 N   0  0  0  0  0  0  0  0  0  0  0  0
   -5.1220   -1.3380    0.8770 C   0  0  0  0  0  0  0  0  0  0  0  0
   -4.2690   -2.4490    0.9710 C   0  0  0  0  0  0  0  0  0  0  0  0
   -2.9900   -2.4130    0.5170 C   0  0  0  0  0  0  0  0  0  0  0  0
   -1.9710   -3.8540    0.6690 Cl  0  0  0  0  0  0  0  0  0  0  0  0
    1.6830   -1.4980   -1.4420 C   0  0  0  0  0  0  0  0  0  0  0  0
    2.9190   -1.1180   -0.6540 C   0  0  0  0  0  0  0  0  0  0  0  0
    7.7030   -0.4170    0.9670 C   0  0  0  0  0  0  0  0  0  0  0  0
    9.0210   -0.1380    0.9890 C   0  0  0  0  0  0  0  0  0  0  0  0
    9.7620    0.2750    2.2580 C   0  0  0  0  0  0  0  0  0  0  0  0
  1  2  1  0
  2  3  1  0
  3  4  1  0
  3 36  2  0
  4  5  1  0
  5  6  1  0
  5 35  2  0
  6  7  1  0
  7  8  1  0
  8  9  1  0
  8 34  1  0
  9 10  1  0
 10 11  1  0
 11 12  1  0
 11 33  1  0
 12 13  2  0
 12 14  1  0
 14 15  1  0
 15 16  2  0
 15 31  1  0
 16 17  1  0
 17 18  1  0
 17 29  2  0
 18 19  1  0
 19 20  2  0
 19 21  1  0
 21 22  1  0
 22 23  1  0
 23 24  2  0
 23 28  1  0
 24 25  1  0
 25 26  2  0
 26 27  1  0
 27 28  2  0
 29 30  1  0
 30 31  2  0
 31 32  1  0
 33 34  1  0
 35 36  1  0
 36 37  1  0
M  CHG  1  28   1
M  END
