
     RDKit          3D

 37 40  0  0  0  0  0  0  0  0999 V2000
    7.4450    0.3230    0.4440 C   0  0  0  0  0  0  0  0  0  0  0  0
    7.9520   -1.0360    0.1940 C   0  0  0  0  0  0  0  0  0  0  0  0
    7.1170   -1.9870   -0.5580 C   0  0  0  0  0  0  0  0  0  0  0  0
    5.8710   -2.3260    0.0410 N   0  0  0  0  0  0  0  0  0  0  0  0
    4.7700   -1.4690    0.2500 C   0  0  0  0  0  0  0  0  0  0  0  0
    4.7450   -0.2720   -0.0910 O   0  0  0  0  0  0  0  0  0  0  0  0
    3.5650   -1.9360    0.8910 N   0  0  0  0  0  0  0  0  0  0  0  0
    2.4450   -1.0860    1.1100 C   0  0  0  0  0  0  0  0  0  0  0  0
    1.4630   -0.9960    0.1460 C   0  0  0  0  0  0  0  0  0  0  0  0
    1.6220   -1.8060   -1.1010 C   0  0  0  0  0  0  0  0  0  0  0  0
    0.3830   -0.2190    0.2820 N   0  0  0  0  0  0  0  0  0  0  0  0
   -0.6280   -0.1310   -0.7180 C   0  0  0  0  0  0  0  0  0  0  0  0
   -0.4050    0.3270   -1.9960 C   0  0  0  0  0  0  0  0  0  0  0  0
   -1.4040    0.4050   -2.9530 C   0  0  0  0  0  0  0  0  0  0  0  0
   -2.6770    0.0070   -2.6140 C   0  0  0  0  0  0  0  0  0  0  0  0
   -3.7430    0.0950   -3.6480 C   0  0  0  0  0  0  0  0  0  0  0  0
   -2.9510   -0.4630   -1.3340 C   0  0  0  0  0  0  0  0  0  0  0  0
   -4.2880   -0.8220   -1.0640 N   0  0  0  0  0  0  0  0  0  0  0  0
   -4.6480   -1.4590    0.1550 C   0  0  0  0  0  0  0  0  0  0  0  0
   -4.0060   -2.4350    0.6850 N   0  0  0  0  0  0  0  0  0  0  0  0
   -4.6250   -2.8680    1.9370 C   0  0  0  0  0  0  0  0  0  0  0  0
   -5.5900   -1.7640    2.2640 C   0  0  0  0  0  0  0  0  0  0  0  0
   -5.7900   -1.1380    0.9820 N   0  0  0  0  0  0  0  0  0  0  0  0
   -6.9210   -0.3310    0.5690 C   0  0  0  0  0  0  0  0  0  0  0  0
   -1.9380   -0.5250   -0.4160 C   0  0  0  0  0  0  0  0  0  0  0  0
    0.2830    0.4980    1.4310 C   0  0  0  0  0  0  0  0  0  0  0  0
   -1.1240    1.5430    1.6670 S   0  0  0  0  0  0  0  0  0  0  0  0
   -0.8610    3.1850    1.0420 C   0  0  0  0  0  0  0  0  0  0  0  0
   -1.1820    3.4870   -0.2500 C   0  0  0  0  0  0  0  0  0  0  0  0
   -0.9780    4.7710   -0.7460 C   0  0  0  0  0  0  0  0  0  0  0  0
   -0.4500    5.7840    0.0330 C   0  0  0  0  0  0  0  0  0  0  0  0
   -0.1270    5.4710    1.3390 C   0  0  0  0  0  0  0  0  0  0  0  0
    0.5440    6.7350    2.3510 Cl  0  0  0  0  0  0  0  0  0  0  0  0
   -0.3280    4.2000    1.8330 C   0  0  0  0  0  0  0  0  0  0  0  0
    1.2220    0.4330    2.3910 N   0  0  0  0  0  0  0  0  0  0  0  0
    2.3110   -0.3420    2.2700 C   0  0  0  0  0  0  0  0  0  0  0  0
    3.2000   -0.4200    3.1480 O   0  0  0  0  0  0  0  0  0  0  0  0
  1  2  1  0
  2  3  1  0
  3  4  1  0
  4  5  1  0
  5  6  2  0
  5  7  1  0
  7  8  1  0
  8  9  2  0
  8 36  1  0
  9 10  1  0
  9 11  1  0
 11 12  1  0
 11 26  1  0
 12 13  2  0
 12 25  1  0
 13 14  1  0
 14 15  2  0
 15 16  1  0
 15 17  1  0
 17 18  1  0
 17 25  2  0
 18 19  1  0
 19 20  2  0
 19 23  1  0
 20 21  1  0
 21 22  1  0
 22 23  1  0
 23 24  1  0
 26 27  1  0
 26 35  2  0
 27 28  1  0
 28 29  2  0
 28 34  1  0
 29 30  1  0
 30 31  2  0
 31 32  1  0
 32 33  1  0
 32 34  2  0
 35 36  1  0
 36 37  2  0
M  CHG  1  20   1
M  END
