
     RDKit          3D

 37 40  0  0  0  0  0  0  0  0999 V2000
    7.1360    1.9330   -1.3150 C   0  0  0  0  0  0  0  0  0  0  0  0
    5.9220    1.1180   -1.0740 C   0  0  0  0  0  0  0  0  0  0  0  0
    5.7640   -0.0990   -1.7330 C   0  0  0  0  0  0  0  0  0  0  0  0
    4.6310   -0.8470   -1.5030 C   0  0  0  0  0  0  0  0  0  0  0  0
    4.3810   -2.3940   -2.3090 Cl  0  0  0  0  0  0  0  0  0  0  0  0
    3.6910   -0.3480   -0.6190 C   0  0  0  0  0  0  0  0  0  0  0  0
    2.4970   -1.1320   -0.3980 N   0  0  0  0  0  0  0  0  0  0  0  0
    1.4860   -0.6950    0.4870 C   0  0  0  0  0  0  0  0  0  0  0  0
    1.7280    0.4230    1.0750 O   0  0  0  0  0  0  0  0  0  0  0  0
    0.2840   -1.3860    0.7480 N   0  0  0  0  0  0  0  0  0  0  0  0
   -0.6920   -0.9540    1.7200 C   0  0  0  0  0  0  0  0  0  0  0  0
   -1.7260   -0.0480    1.2240 C   0  0  0  0  0  0  0  0  0  0  0  0
   -1.8470    1.1530    1.7480 C   0  0  0  0  0  0  0  0  0  0  0  0
   -0.9700    1.5940    2.8120 N   0  0  0  0  0  0  0  0  0  0  0  0
   -2.8270    2.1250    1.3750 N   0  0  0  0  0  0  0  0  0  0  0  0
   -2.5800    3.4260    0.8050 C   0  0  0  0  0  0  0  0  0  0  0  0
   -3.7090    3.6010   -0.1780 C   0  0  0  0  0  0  0  0  0  0  0  0
   -4.7850    2.6450    0.2560 C   0  0  0  0  0  0  0  0  0  0  0  0
   -4.2650    2.0290    1.5070 C   0  0  0  0  0  0  0  0  0  0  0  0
   -2.5950   -0.4260    0.1280 C   0  0  0  0  0  0  0  0  0  0  0  0
   -2.7970    0.3410   -0.9970 N   0  0  0  0  0  0  0  0  0  0  0  0
   -3.6650   -0.3200   -1.7460 C   0  0  0  0  0  0  0  0  0  0  0  0
   -4.0430   -1.4980   -1.1520 C   0  0  0  0  0  0  0  0  0  0  0  0
   -3.3540   -1.5370    0.0260 N   0  0  0  0  0  0  0  0  0  0  0  0
   -3.5100   -2.6390    0.9510 C   0  0  0  0  0  0  0  0  0  0  0  0
    0.0260   -2.5930    0.0310 C   0  0  0  0  0  0  0  0  0  0  0  0
   -0.0110   -3.7820    0.7220 C   0  0  0  0  0  0  0  0  0  0  0  0
   -0.2550   -4.9470    0.0330 C   0  0  0  0  0  0  0  0  0  0  0  0
   -0.4560   -4.8910   -1.3320 C   0  0  0  0  0  0  0  0  0  0  0  0
   -0.4230   -3.7110   -2.0330 C   0  0  0  0  0  0  0  0  0  0  0  0
   -0.1770   -2.5330   -1.3440 C   0  0  0  0  0  0  0  0  0  0  0  0
   -0.1380   -1.2640   -2.0510 C   0  0  0  0  0  0  0  0  0  0  0  0
   -0.3110   -1.1930   -3.2750 O   0  0  0  0  0  0  0  0  0  0  0  0
    3.8860    0.8170   -0.0140 N   0  0  0  0  0  0  0  0  0  0  0  0
    4.9720    1.5890   -0.1990 C   0  0  0  0  0  0  0  0  0  0  0  0
    5.1840    2.8820    0.4660 C   0  0  0  0  0  0  0  0  0  0  0  0
    3.8370    3.3180    1.5970 S   0  0  0  0  0  0  0  0  0  0  0  0
  1  2  1  0
  2  3  2  0
  2 35  1  0
  3  4  1  0
  4  5  1  0
  4  6  2  0
  6  7  1  0
  6 34  1  0
  7  8  1  0
  8  9  2  0
  8 10  1  0
 10 11  1  0
 10 26  1  0
 11 12  1  0
 12 13  2  3
 12 20  1  0
 13 14  1  0
 13 15  1  0
 15 16  1  0
 15 19  1  0
 16 17  1  0
 17 18  1  0
 18 19  1  0
 20 21  2  0
 20 24  1  0
 21 22  1  0
 22 23  2  0
 23 24  1  0
 24 25  1  0
 26 27  2  0
 26 31  1  0
 27 28  1  0
 28 29  2  0
 29 30  1  0
 30 31  2  0
 31 32  1  0
 32 33  2  0
 34 35  2  0
 35 36  1  0
 36 37  1  0
M  CHG  1  21   1
M  END
