
     RDKit          3D

 37 40  0  0  0  0  0  0  0  0999 V2000
    8.1470   -2.3640   -1.4280 C   0  0  0  0  0  0  0  0  0  0  0  0
    7.4430   -1.2370   -0.9410 O   0  0  0  0  0  0  0  0  0  0  0  0
    6.1270   -0.9670   -1.3200 C   0  0  0  0  0  0  0  0  0  0  0  0
    5.5910   -1.7570   -2.1080 O   0  0  0  0  0  0  0  0  0  0  0  0
    5.4710    0.2380   -0.7540 C   0  0  1  0  0  0  0  0  0  0  0  0
    4.0340    0.3600   -1.2150 C   0  0  0  0  0  0  0  0  0  0  0  0
    3.1640   -0.7120   -0.5890 C   0  0  0  0  0  0  0  0  0  0  0  0
    3.2410   -0.5370    0.8490 N   0  0  0  0  0  0  0  0  0  0  0  0
    2.1020   -0.2920    1.6620 C   0  0  0  0  0  0  0  0  0  0  0  0
    2.3180   -0.1950    2.8990 O   0  0  0  0  0  0  0  0  0  0  0  0
    0.7160   -0.1510    1.1450 C   0  0  2  0  0  0  0  0  0  0  0  0
    0.5990    1.2140    0.5270 C   0  0  0  0  0  0  0  0  0  0  0  0
   -0.7130    1.5220   -0.0500 C   0  0  0  0  0  0  0  0  0  0  0  0
   -0.9910    1.2460   -1.3810 C   0  0  0  0  0  0  0  0  0  0  0  0
   -2.2440    1.5630   -1.8310 C   0  0  0  0  0  0  0  0  0  0  0  0
   -3.1890    2.1270   -1.0130 C   0  0  0  0  0  0  0  0  0  0  0  0
   -2.9290    2.4110    0.3260 C   0  0  0  0  0  0  0  0  0  0  0  0
   -3.9380    2.9990    1.1720 C   0  0  0  0  0  0  0  0  0  0  0  0
   -5.2160    3.2650    0.5960 N   0  0  0  0  0  0  0  0  0  0  0  0
   -3.7430    3.2950    2.4010 N   0  0  0  0  0  0  0  0  0  0  0  0
   -1.6590    2.0910    0.7840 C   0  0  0  0  0  0  0  0  0  0  0  0
   -0.1540   -0.0940    2.3370 N   0  0  0  0  0  0  0  0  0  0  0  0
   -1.1800   -1.4540    2.3180 S   0  0  1  0  0  0  0  0  0  0  0  0
   -0.2990   -2.6880    2.4090 O   0  0  0  0  0  0  0  0  0  0  0  0
   -1.9970   -1.4310    3.5810 O   0  0  0  0  0  0  0  0  0  0  0  0
   -2.2390   -1.5310    0.9470 C   0  0  0  0  0  0  0  0  0  0  0  0
   -1.8790   -2.2090   -0.1920 C   0  0  0  0  0  0  0  0  0  0  0  0
   -2.7320   -2.2770   -1.2990 C   0  0  0  0  0  0  0  0  0  0  0  0
   -3.9630   -1.6670   -1.2890 C   0  0  0  0  0  0  0  0  0  0  0  0
   -4.8090   -1.7330   -2.3780 C   0  0  0  0  0  0  0  0  0  0  0  0
   -6.0340   -1.1330   -2.3740 C   0  0  0  0  0  0  0  0  0  0  0  0
   -6.4330   -0.4390   -1.2410 C   0  0  0  0  0  0  0  0  0  0  0  0
   -5.5830   -0.3790   -0.1610 C   0  0  0  0  0  0  0  0  0  0  0  0
   -4.3420   -0.9800   -0.1510 C   0  0  0  0  0  0  0  0  0  0  0  0
   -3.4880   -0.9250    0.9290 C   0  0  0  0  0  0  0  0  0  0  0  0
    4.5780   -0.6350    1.4210 C   0  0  0  0  0  0  0  0  0  0  0  0
    5.5810    0.2600    0.7490 C   0  0  0  0  0  0  0  0  0  0  0  0
  1  2  1  0
  2  3  1  0
  3  4  2  0
  5  3  1  1
  5  6  1  0
  5 37  1  0
  6  7  1  0
  7  8  1  0
  8  9  1  0
  8 36  1  0
  9 10  2  0
  9 11  1  0
 11 12  1  1
 11 22  1  0
 12 13  1  0
 13 14  2  0
 13 21  1  0
 14 15  1  0
 15 16  2  0
 16 17  1  0
 17 18  1  0
 17 21  2  0
 18 19  1  0
 18 20  2  0
 23 22  1  6
 23 24  2  0
 23 25  2  0
 23 26  1  0
 26 27  2  0
 26 35  1  0
 27 28  1  0
 28 29  2  0
 29 30  1  0
 29 34  1  0
 30 31  2  0
 31 32  1  0
 32 33  2  0
 33 34  1  0
 34 35  2  0
 36 37  1  0
M  CHG  1  20   1
M  END
