
     RDKit          3D

 36 40  0  0  0  0  0  0  0  0999 V2000
    7.8270    2.9840   -1.2880 C   0  0  0  0  0  0  0  0  0  0  0  0
    8.0250    1.5870   -0.7850 C   0  0  0  0  0  0  0  0  0  0  0  0
    6.9460    0.7080   -0.6930 C   0  0  0  0  0  0  0  0  0  0  0  0
    7.0790   -0.5720   -0.2460 C   0  0  0  0  0  0  0  0  0  0  0  0
    6.0580   -1.4910   -0.1030 N   0  0  0  0  0  0  0  0  0  0  0  0
    4.7000   -1.3420    0.2360 C   0  0  0  0  0  0  0  0  0  0  0  0
    4.0490   -0.2020    0.6180 C   0  0  0  0  0  0  0  0  0  0  0  0
    2.6790   -0.1640    0.9190 C   0  0  0  0  0  0  0  0  0  0  0  0
    1.9170   -1.2980    0.8420 C   0  0  0  0  0  0  0  0  0  0  0  0
    0.4930   -1.3520    1.1370 C   0  0  0  0  0  0  0  0  0  0  0  0
   -0.2840   -2.5130    1.0900 C   0  0  0  0  0  0  0  0  0  0  0  0
   -1.5430   -2.1640    1.4330 N   0  0  0  0  0  0  0  0  0  0  0  0
   -1.5930   -0.8570    1.6890 C   0  0  0  0  0  0  0  0  0  0  0  0
   -2.7300   -0.1230    2.0820 N   0  0  0  0  0  0  0  0  0  0  0  0
   -3.9200   -0.1210    1.2980 N   0  0  0  0  0  0  0  0  0  0  0  0
   -4.6210   -1.3130    1.0130 C   0  0  0  0  0  0  0  0  0  0  0  0
   -4.1140   -2.3760    1.5040 O   0  0  0  0  0  0  0  0  0  0  0  0
   -5.8320   -1.4510    0.2290 C   0  0  0  0  0  0  0  0  0  0  0  0
   -6.1980   -2.6790   -0.2840 N   0  0  0  0  0  0  0  0  0  0  0  0
   -7.3170   -2.5600   -0.9430 N   0  0  0  0  0  0  0  0  0  0  0  0
   -7.7090   -1.2720   -0.8790 C   0  0  0  0  0  0  0  0  0  0  0  0
   -6.7940   -0.6210   -0.1630 N   0  0  0  0  0  0  0  0  0  0  0  0
   -6.9500    0.7970    0.1240 C   0  0  0  0  0  0  0  0  0  0  0  0
   -8.4340    1.0750    0.2620 C   0  0  0  0  0  0  0  0  0  0  0  0
   -9.2560    0.6860   -0.9120 C   0  0  2  0  0  0  0  0  0  0  0  0
   -9.2540    1.7320   -2.0150 C   0  0  0  0  0  0  0  0  0  0  0  0
  -10.7170    0.6370   -0.4340 C   0  0  0  0  0  0  0  0  0  0  0  0
   -8.9230   -0.6340   -1.4950 C   0  0  0  0  0  0  0  0  0  0  0  0
   -0.3590   -0.3840    1.5060 N   0  0  0  0  0  0  0  0  0  0  0  0
    2.5980   -2.4470    0.4530 C   0  0  0  0  0  0  0  0  0  0  0  0
    3.9020   -2.4510    0.1730 N   0  0  0  0  0  0  0  0  0  0  0  0
    8.3820   -0.9590    0.1190 C   0  0  0  0  0  0  0  0  0  0  0  0
    9.4670   -0.1190    0.0390 C   0  0  0  0  0  0  0  0  0  0  0  0
   10.8200   -0.6000    0.4390 C   0  0  0  0  0  0  0  0  0  0  0  0
    9.2850    1.1720   -0.4190 C   0  0  0  0  0  0  0  0  0  0  0  0
   10.4570    2.1010   -0.5120 C   0  0  0  0  0  0  0  0  0  0  0  0
  1  2  1  0
  2  3  2  0
  2 35  1  0
  3  4  1  0
  4  5  1  0
  4 32  2  0
  5  6  1  0
  6  7  2  0
  6 31  1  0
  7  8  1  0
  8  9  2  0
  9 10  1  0
  9 30  1  0
 10 11  2  0
 10 29  1  0
 11 12  1  0
 12 13  2  0
 13 14  1  0
 13 29  1  0
 14 15  1  0
 15 16  1  0
 16 17  2  0
 16 18  1  0
 18 19  2  0
 18 22  1  0
 19 20  1  0
 20 21  2  0
 21 22  1  0
 21 28  1  0
 22 23  1  0
 23 24  1  0
 24 25  1  0
 25 26  1  6
 25 27  1  0
 25 28  1  0
 30 31  2  0
 32 33  1  0
 33 34  1  0
 33 35  2  0
 35 36  1  0
M  END
