
     RDKit          3D

 36 40  0  0  0  0  0  0  0  0999 V2000
   -5.6380   -2.5350   -0.1010 C   0  0  0  0  0  0  0  0  0  0  0  0
   -6.3780   -1.7500    0.6300 C   0  0  0  0  0  0  0  0  0  0  0  0
   -5.9970   -0.3490    0.8250 C   0  0  0  0  0  0  0  0  0  0  0  0
   -6.6710    0.4780    1.5270 N   0  0  0  0  0  0  0  0  0  0  0  0
   -7.8960    0.1390    2.2200 C   0  0  0  0  0  0  0  0  0  0  0  0
   -4.8040    0.1550    0.2050 N   0  0  0  0  0  0  0  0  0  0  0  0
   -4.7640    1.0630   -0.7860 C   0  0  0  0  0  0  0  0  0  0  0  0
   -5.9370    1.7400   -1.4470 C   0  0  1  0  0  0  0  0  0  0  0  0
   -5.7370    3.2400   -1.4020 C   0  0  0  0  0  0  0  0  0  0  0  0
   -5.8770    1.3360   -2.9250 C   0  0  0  0  0  0  0  0  0  0  0  0
   -3.4620    1.2480   -1.0670 N   0  0  0  0  0  0  0  0  0  0  0  0
   -2.7060    0.4710   -0.2680 C   0  0  0  0  0  0  0  0  0  0  0  0
   -3.5730   -0.2370    0.5560 C   0  0  0  0  0  0  0  0  0  0  0  0
   -2.9640   -1.1800    1.5480 C   0  0  0  0  0  0  0  0  0  0  0  0
   -1.8370   -0.3730    2.2050 C   0  0  0  0  0  0  0  0  0  0  0  0
   -0.8280   -0.1690    1.1550 N   0  0  0  0  0  0  0  0  0  0  0  0
    0.5180   -0.4250    1.5070 C   0  0  0  0  0  0  0  0  0  0  0  0
    0.8250   -0.8140    2.6770 O   0  0  0  0  0  0  0  0  0  0  0  0
    1.5780   -0.2470    0.5330 C   0  0  0  0  0  0  0  0  0  0  0  0
    2.8980   -0.5110    0.9130 C   0  0  0  0  0  0  0  0  0  0  0  0
    3.8960   -0.3420   -0.0100 C   0  0  0  0  0  0  0  0  0  0  0  0
    5.2100   -0.5940    0.3350 C   0  0  0  0  0  0  0  0  0  0  0  0
    6.1910   -0.4140   -0.6200 C   0  0  0  0  0  0  0  0  0  0  0  0
    7.5490   -0.5770   -0.5840 C   0  0  0  0  0  0  0  0  0  0  0  0
    8.2930   -1.0300    0.6280 C   0  0  1  0  0  0  0  0  0  0  0  0
    9.7780   -1.1250    0.3420 C   0  0  0  0  0  0  0  0  0  0  0  0
    8.1270   -0.0210    1.7540 C   0  0  0  0  0  0  0  0  0  0  0  0
    8.0300   -0.2630   -1.7960 N   0  0  0  0  0  0  0  0  0  0  0  0
    7.0220    0.0880   -2.5770 N   0  0  0  0  0  0  0  0  0  0  0  0
    5.8510    0.0130   -1.8990 C   0  0  0  0  0  0  0  0  0  0  0  0
    4.5670    0.2540   -2.2150 N   0  0  0  0  0  0  0  0  0  0  0  0
    3.6000    0.0800   -1.2890 C   0  0  0  0  0  0  0  0  0  0  0  0
    2.3030    0.3370   -1.6540 C   0  0  0  0  0  0  0  0  0  0  0  0
    2.0040    0.7760   -2.9870 N   0  0  0  0  0  0  0  0  0  0  0  0
    1.3510    0.1610   -0.7260 N   0  0  0  0  0  0  0  0  0  0  0  0
   -1.2290    0.2680   -0.1420 C   0  0  0  0  0  0  0  0  0  0  0  0
  1  2  2  0
  2  3  1  0
  3  4  2  3
  3  6  1  0
  4  5  1  0
  6  7  1  0
  6 13  1  0
  7  8  1  0
  7 11  2  0
  8  9  1  6
  8 10  1  0
 11 12  1  0
 12 13  2  0
 12 36  1  0
 13 14  1  0
 14 15  1  0
 15 16  1  0
 16 17  1  0
 16 36  1  0
 17 18  2  0
 17 19  1  0
 19 20  2  0
 19 35  1  0
 20 21  1  0
 21 22  2  0
 21 32  1  0
 22 23  1  0
 23 24  1  0
 23 30  2  0
 24 25  1  0
 24 28  2  0
 25 26  1  6
 25 27  1  0
 28 29  1  0
 29 30  1  0
 30 31  1  0
 31 32  2  0
 32 33  1  0
 33 34  1  0
 33 35  2  0
M  END
