
     RDKit          3D

 36 41  0  0  0  0  0  0  0  0999 V2000
   10.4730   -2.4730    3.1360 C   0  0  0  0  0  0  0  0  0  0  0  0
    9.1850   -1.9800    2.5900 C   0  0  0  0  0  0  0  0  0  0  0  0
    9.1860   -0.9350    1.6890 C   0  0  0  0  0  0  0  0  0  0  0  0
    7.9600   -0.4850    1.1860 C   0  0  0  0  0  0  0  0  0  0  0  0
    6.7910   -1.0790    1.5900 C   0  0  0  0  0  0  0  0  0  0  0  0
    5.4990   -0.6420    1.0920 C   0  0  0  0  0  0  0  0  0  0  0  0
    4.2740   -1.1160    1.3870 N   0  0  0  0  0  0  0  0  0  0  0  0
    3.3790   -0.4270    0.7090 N   0  0  0  0  0  0  0  0  0  0  0  0
    4.0250    0.4870   -0.0200 C   0  0  0  0  0  0  0  0  0  0  0  0
    3.4060    1.4700   -0.9260 C   0  0  0  0  0  0  0  0  0  0  0  0
    4.2520    2.3480   -1.6030 C   0  0  0  0  0  0  0  0  0  0  0  0
    3.6420    3.2220   -2.4140 N   0  0  0  0  0  0  0  0  0  0  0  0
    2.3190    3.3040   -2.6080 C   0  0  0  0  0  0  0  0  0  0  0  0
    1.7240    4.2470   -3.4780 N   0  0  0  0  0  0  0  0  0  0  0  0
    1.5220    2.3920   -1.8960 C   0  0  0  0  0  0  0  0  0  0  0  0
    0.1220    2.4560   -2.0830 N   0  0  0  0  0  0  0  0  0  0  0  0
   -0.7930    1.5990   -1.4300 C   0  0  0  0  0  0  0  0  0  0  0  0
   -2.2000    1.6210   -1.5810 C   0  0  0  0  0  0  0  0  0  0  0  0
   -2.7830    0.6630   -0.8120 C   0  0  0  0  0  0  0  0  0  0  0  0
   -4.1600    0.2840   -0.5710 C   0  0  0  0  0  0  0  0  0  0  0  0
   -4.4320   -0.5810    0.5150 C   0  0  0  0  0  0  0  0  0  0  0  0
   -5.6990   -1.0100    0.8140 C   0  0  0  0  0  0  0  0  0  0  0  0
   -6.7600   -0.6120    0.0630 C   0  0  0  0  0  0  0  0  0  0  0  0
   -6.5570    0.2260   -1.0030 C   0  0  0  0  0  0  0  0  0  0  0  0
   -5.2520    0.6490   -1.2880 C   0  0  0  0  0  0  0  0  0  0  0  0
   -5.0770    1.5320   -2.4800 C   0  0  0  0  0  0  0  0  0  0  0  0
   -8.1720   -1.0260    0.3140 C   0  0  0  0  0  0  0  0  0  0  0  0
   -8.3200   -2.0360    1.4020 C   0  0  0  0  0  0  0  0  0  0  0  0
   -7.0650   -2.8690    1.6190 C   0  0  0  0  0  0  0  0  0  0  0  0
   -5.9260   -1.9180    1.9660 C   0  0  0  0  0  0  0  0  0  0  0  0
   -1.7170    0.0560   -0.1890 N   0  0  0  0  0  0  0  0  0  0  0  0
   -0.5910    0.6070   -0.5580 N   0  0  0  0  0  0  0  0  0  0  0  0
    2.0900    1.5020   -1.0760 N   0  0  0  0  0  0  0  0  0  0  0  0
    5.3010    0.3350    0.2310 O   0  0  0  0  0  0  0  0  0  0  0  0
    6.8390   -2.1160    2.4890 C   0  0  0  0  0  0  0  0  0  0  0  0
    8.0420   -2.5380    2.9650 N   0  0  0  0  0  0  0  0  0  0  0  0
  1  2  1  0
  2  3  2  0
  2 36  1  0
  3  4  1  0
  4  5  2  0
  5  6  1  0
  5 35  1  0
  6  7  2  0
  6 34  1  0
  7  8  1  0
  8  9  2  0
  9 10  1  0
  9 34  1  0
 10 11  2  0
 10 33  1  0
 11 12  1  0
 12 13  2  0
 13 14  1  0
 13 15  1  0
 15 16  1  0
 15 33  2  0
 16 17  1  0
 17 18  2  0
 17 32  1  0
 18 19  1  0
 19 20  1  0
 19 31  2  0
 20 21  2  0
 20 25  1  0
 21 22  1  0
 22 23  2  0
 22 30  1  0
 23 24  1  0
 23 27  1  0
 24 25  2  0
 25 26  1  0
 27 28  1  0
 28 29  1  0
 29 30  1  0
 31 32  1  0
 35 36  2  0
M  END
