
     RDKit          3D

 35 39  0  0  0  0  0  0  0  0999 V2000
   -1.2070   -2.3540   -1.3010 C   0  0  0  0  0  0  0  0  0  0  0  0
   -2.1670   -1.2750   -1.6920 C   0  0  0  0  0  0  0  0  0  0  0  0
   -3.4230   -1.4360   -2.1230 C   0  0  0  0  0  0  0  0  0  0  0  0
   -4.0280   -0.1470   -2.4010 C   0  0  0  0  0  0  0  0  0  0  0  0
   -5.2610    0.2760   -2.8520 C   0  0  0  0  0  0  0  0  0  0  0  0
   -5.5530    1.6150   -3.0210 C   0  0  0  0  0  0  0  0  0  0  0  0
   -4.6070    2.5780   -2.7390 C   0  0  0  0  0  0  0  0  0  0  0  0
   -3.3830    2.1590   -2.2920 C   0  0  0  0  0  0  0  0  0  0  0  0
   -3.0850    0.8200   -2.1210 C   0  0  0  0  0  0  0  0  0  0  0  0
   -1.8630    0.1290   -1.6580 C   0  0  0  0  0  0  0  0  0  0  0  0
   -0.8080    0.7860   -1.3200 N   0  0  0  0  0  0  0  0  0  0  0  0
    0.3950    0.2610   -0.8680 C   0  0  0  0  0  0  0  0  0  0  0  0
    1.3190   -0.3360   -1.7130 C   0  0  0  0  0  0  0  0  0  0  0  0
    1.2220   -0.5090   -3.2030 C   0  0  0  0  0  0  0  0  0  0  0  0
    2.3730   -0.7500   -0.9350 C   0  0  0  0  0  0  0  0  0  0  0  0
    3.5890   -1.4460   -1.4050 C   0  0  0  0  0  0  0  0  0  0  0  0
    3.8310   -1.7650   -2.6860 N   0  0  0  0  0  0  0  0  0  0  0  0
    4.9990   -2.3670   -2.7290 N   0  0  0  0  0  0  0  0  0  0  0  0
    5.5180   -2.4470   -1.5200 N   0  0  0  0  0  0  0  0  0  0  0  0
    4.6420   -1.8680   -0.6560 C   0  0  0  0  0  0  0  0  0  0  0  0
    4.7790   -1.7250    0.7460 N   0  0  0  0  0  0  0  0  0  0  0  0
    5.9280   -2.2060    1.4200 C   0  0  0  0  0  0  0  0  0  0  0  0
    6.1250   -2.0940    2.8210 N   0  0  0  0  0  0  0  0  0  0  0  0
    6.8160   -2.7640    0.7040 O   0  0  0  0  0  0  0  0  0  0  0  0
    2.0590   -0.4010    0.3050 N   0  0  0  0  0  0  0  0  0  0  0  0
    0.8630    0.2150    0.3690 N   0  0  0  0  0  0  0  0  0  0  0  0
    0.3010    0.7140    1.6050 C   0  0  0  0  0  0  0  0  0  0  0  0
    1.0570    0.4270    2.8590 C   0  0  0  0  0  0  0  0  0  0  0  0
   -0.8140    1.3590    1.6600 C   0  0  0  0  0  0  0  0  0  0  0  0
   -1.4340    1.8890    2.8570 C   0  0  0  0  0  0  0  0  0  0  0  0
   -2.7770    1.6930    3.1120 C   0  0  0  0  0  0  0  0  0  0  0  0
   -3.3540    2.2280    4.2440 C   0  0  0  0  0  0  0  0  0  0  0  0
   -2.6100    2.9400    5.1010 N   0  0  0  0  0  0  0  0  0  0  0  0
   -1.3110    3.1470    4.8840 C   0  0  0  0  0  0  0  0  0  0  0  0
   -0.7010    2.6170    3.7440 C   0  0  0  0  0  0  0  0  0  0  0  0
  1  2  1  0
  2  3  2  0
  2 10  1  0
  3  4  1  0
  4  5  2  0
  4  9  1  0
  5  6  1  0
  6  7  2  0
  7  8  1  0
  8  9  2  0
  9 10  1  0
 10 11  2  3
 11 12  1  0
 12 13  2  0
 12 26  1  0
 13 14  1  0
 13 15  1  0
 15 16  1  0
 15 25  2  0
 16 17  2  0
 16 20  1  0
 17 18  1  0
 18 19  1  0
 19 20  2  0
 20 21  1  0
 21 22  1  0
 22 23  1  0
 22 24  2  0
 25 26  1  0
 26 27  1  0
 27 28  1  0
 27 29  2  3
 29 30  1  0
 30 31  2  0
 30 35  1  0
 31 32  1  0
 32 33  2  0
 33 34  1  0
 34 35  2  0
M  END
