
     RDKit          3D

 36 41  0  0  0  0  0  0  0  0999 V2000
   -5.9000    3.7230   -1.0130 C   0  0  0  0  0  0  0  0  0  0  0  0
   -5.4750    2.3260   -0.7430 C   0  0  0  0  0  0  0  0  0  0  0  0
   -6.4000    1.3460   -0.6460 C   0  0  0  0  0  0  0  0  0  0  0  0
   -6.1090   -0.0070   -0.3950 C   0  0  0  0  0  0  0  0  0  0  0  0
   -7.1650   -0.9990   -0.2750 C   0  0  0  0  0  0  0  0  0  0  0  0
   -4.7830   -0.3320   -0.2430 C   0  0  0  0  0  0  0  0  0  0  0  0
   -4.3850   -1.6250    0.0060 C   0  0  0  0  0  0  0  0  0  0  0  0
   -3.0250   -1.9680    0.1700 C   0  0  0  0  0  0  0  0  0  0  0  0
   -2.0870   -0.9780    0.0740 C   0  0  0  0  0  0  0  0  0  0  0  0
   -2.4790    0.3340   -0.1800 C   0  0  0  0  0  0  0  0  0  0  0  0
   -1.4170    1.3090   -0.2650 C   0  0  0  0  0  0  0  0  0  0  0  0
   -0.1930    0.9400   -0.1080 N   0  0  0  0  0  0  0  0  0  0  0  0
    0.8880    1.8450   -0.1800 C   0  0  0  0  0  0  0  0  0  0  0  0
    0.8240    3.0930   -0.7230 N   0  0  0  0  0  0  0  0  0  0  0  0
    2.0180    3.6310   -0.6070 N   0  0  0  0  0  0  0  0  0  0  0  0
    2.8780    2.7790   -0.0030 C   0  0  0  0  0  0  0  0  0  0  0  0
    2.1720    1.6410    0.2740 C   0  0  0  0  0  0  0  0  0  0  0  0
    2.6940    0.4400    0.9290 C   0  0  0  0  0  0  0  0  0  0  0  0
    1.9220   -0.1780    1.7230 O   0  0  0  0  0  0  0  0  0  0  0  0
    4.0020   -0.0390    0.7070 N   0  0  0  0  0  0  0  0  0  0  0  0
    4.5390   -1.1970    1.3240 C   0  0  0  0  0  0  0  0  0  0  0  0
    3.9920   -2.0840    2.2180 C   0  0  0  0  0  0  0  0  0  0  0  0
    4.9180   -3.0260    2.5060 N   0  0  0  0  0  0  0  0  0  0  0  0
    5.9830   -2.7300    1.8190 N   0  0  0  0  0  0  0  0  0  0  0  0
    5.8020   -1.6380    1.0940 N   0  0  0  0  0  0  0  0  0  0  0  0
    6.7450   -1.0240    0.2270 C   0  0  0  0  0  0  0  0  0  0  0  0
    7.9210   -0.5470    0.7810 C   0  0  0  0  0  0  0  0  0  0  0  0
    8.9000    0.0690    0.0050 C   0  0  0  0  0  0  0  0  0  0  0  0
    8.7240    0.2200   -1.3450 C   0  0  0  0  0  0  0  0  0  0  0  0
    7.5430   -0.2630   -1.8870 C   0  0  0  0  0  0  0  0  0  0  0  0
    6.5680   -0.8740   -1.1210 C   0  0  0  0  0  0  0  0  0  0  0  0
   -3.8050    0.6850   -0.3410 C   0  0  0  0  0  0  0  0  0  0  0  0
   -4.1570    2.0000   -0.5900 C   0  0  0  0  0  0  0  0  0  0  0  0
   -2.9480   -3.3770    0.4370 N   0  0  0  0  0  0  0  0  0  0  0  0
   -4.2960   -3.7500    0.9030 C   0  0  0  0  0  0  0  0  0  0  0  0
   -5.1340   -2.8240    0.1020 N   0  0  0  0  0  0  0  0  0  0  0  0
  1  2  1  0
  2  3  2  0
  2 33  1  0
  3  4  1  0
  4  5  1  0
  4  6  2  0
  6  7  1  0
  6 32  1  0
  7  8  2  0
  7 36  1  0
  8  9  1  0
  8 34  1  0
  9 10  2  0
 10 11  1  0
 10 32  1  0
 11 12  2  3
 12 13  1  0
 13 14  1  0
 13 17  2  0
 14 15  1  0
 15 16  2  0
 16 17  1  0
 17 18  1  0
 18 19  2  0
 18 20  1  0
 20 21  1  0
 21 22  2  0
 21 25  1  0
 22 23  1  0
 23 24  2  0
 24 25  1  0
 25 26  1  0
 26 27  2  0
 26 31  1  0
 27 28  1  0
 28 29  2  0
 29 30  1  0
 30 31  2  0
 32 33  2  0
 34 35  1  0
 35 36  1  0
M  END
