
     RDKit          3D

 35 39  0  0  0  0  0  0  0  0999 V2000
   -3.4630    5.2930   -0.3220 C   0  0  0  0  0  0  0  0  0  0  0  0
   -3.7710    4.2980    0.7190 N   0  0  0  0  0  0  0  0  0  0  0  0
   -3.2790    3.0620    0.6840 N   0  0  0  0  0  0  0  0  0  0  0  0
   -3.6390    1.8680    0.6170 C   0  0  0  0  0  0  0  0  0  0  0  0
   -4.9520    1.2420    0.5400 C   0  0  0  0  0  0  0  0  0  0  0  0
   -6.1990    1.7600    0.5280 N   0  0  0  0  0  0  0  0  0  0  0  0
   -7.3030    1.0200    0.3750 C   0  0  0  0  0  0  0  0  0  0  0  0
   -7.1920   -0.3610    0.2200 C   0  0  0  0  0  0  0  0  0  0  0  0
   -8.3730   -1.2480    0.0160 C   0  0  0  0  0  0  0  0  0  0  0  0
   -5.9400   -0.9430    0.2280 C   0  0  0  0  0  0  0  0  0  0  0  0
   -4.8260   -0.1450    0.3900 C   0  0  0  0  0  0  0  0  0  0  0  0
   -3.3890   -0.4450    0.3710 C   0  0  0  0  0  0  0  0  0  0  0  0
   -2.6960    0.7170    0.4940 C   0  0  0  0  0  0  0  0  0  0  0  0
   -1.3600    0.7440    0.3820 N   0  0  0  0  0  0  0  0  0  0  0  0
   -0.6690   -0.3840    0.1370 C   0  0  0  0  0  0  0  0  0  0  0  0
    0.5170   -0.4720   -0.1350 N   0  0  0  0  0  0  0  0  0  0  0  0
    1.7330    0.0070   -0.3700 C   0  0  0  0  0  0  0  0  0  0  0  0
    1.9280    0.7960   -1.4230 O   0  0  0  0  0  0  0  0  0  0  0  0
    2.9330   -0.2080    0.3510 N   0  0  0  0  0  0  0  0  0  0  0  0
    4.2180    0.3340   -0.0190 C   0  0  0  0  0  0  0  0  0  0  0  0
    4.4350    1.3690   -0.8760 C   0  0  0  0  0  0  0  0  0  0  0  0
    5.7040    1.7350   -1.2550 C   0  0  0  0  0  0  0  0  0  0  0  0
    6.8180    1.0910   -0.7970 C   0  0  0  0  0  0  0  0  0  0  0  0
    6.6460    0.0420    0.0760 C   0  0  0  0  0  0  0  0  0  0  0  0
    5.3470   -0.3320    0.4620 C   0  0  0  0  0  0  0  0  0  0  0  0
    7.7060   -0.7920    0.6880 C   0  0  0  0  0  0  0  0  0  0  0  0
    9.0240   -0.1420    0.8700 C   0  0  0  0  0  0  0  0  0  0  0  0
    9.7130    0.1740   -0.4040 C   0  0  0  0  0  0  0  0  0  0  0  0
    9.2660    0.9470   -1.3720 C   0  0  0  0  0  0  0  0  0  0  0  0
    8.0320    1.6280   -1.3900 N   0  0  0  0  0  0  0  0  0  0  0  0
   -1.3950   -1.5410    0.0230 N   0  0  0  0  0  0  0  0  0  0  0  0
   -2.7470   -1.6410    0.1320 C   0  0  0  0  0  0  0  0  0  0  0  0
   -3.3740   -2.9800    0.2140 C   0  0  2  0  0  0  0  0  0  0  0  0
   -3.3410   -3.7820   -1.0470 C   0  0  0  0  0  0  0  0  0  0  0  0
   -4.2680   -3.3390    1.3120 C   0  0  0  0  0  0  0  0  0  0  0  0
  1  2  1  0
  2  3  1  0
  3  4  2  3
  4  5  1  0
  4 13  1  0
  5  6  2  0
  5 11  1  0
  6  7  1  0
  7  8  2  0
  8  9  1  0
  8 10  1  0
 10 11  2  0
 11 12  1  0
 12 13  1  0
 12 32  2  0
 13 14  2  0
 14 15  1  0
 15 16  2  3
 15 31  1  0
 16 17  1  0
 17 18  2  0
 17 19  1  0
 19 20  1  0
 20 21  2  0
 20 25  1  0
 21 22  1  0
 22 23  2  0
 23 24  1  0
 23 30  1  0
 24 25  2  0
 24 26  1  0
 26 27  1  0
 27 28  1  0
 28 29  2  0
 29 30  1  0
 31 32  1  0
 32 33  1  0
 33 34  1  6
 33 35  1  0
M  END
