
     RDKit          3D

 36 40  0  0  0  0  0  0  0  0999 V2000
   -6.7160    3.8230   -2.3510 C   0  0  0  0  0  0  0  0  0  0  0  0
   -6.1680    2.5810   -1.7500 C   0  0  0  0  0  0  0  0  0  0  0  0
   -4.9720    2.6130   -1.0320 C   0  0  0  0  0  0  0  0  0  0  0  0
   -4.4170    1.4990   -0.4560 C   0  0  0  0  0  0  0  0  0  0  0  0
   -5.0700    0.2780   -0.5910 C   0  0  0  0  0  0  0  0  0  0  0  0
   -4.5010   -0.9260    0.0100 C   0  0  0  0  0  0  0  0  0  0  0  0
   -5.1760   -2.0930   -0.1470 N   0  0  0  0  0  0  0  0  0  0  0  0
   -4.6570   -3.2050    0.4010 C   0  0  0  0  0  0  0  0  0  0  0  0
   -5.3670   -4.4200    0.2330 N   0  0  0  0  0  0  0  0  0  0  0  0
   -3.5000   -3.1570    1.0850 N   0  0  0  0  0  0  0  0  0  0  0  0
   -2.8280   -4.1170    1.6900 N   0  0  0  0  0  0  0  0  0  0  0  0
   -1.7100   -3.6140    2.2540 C   0  0  0  0  0  0  0  0  0  0  0  0
   -1.6520   -2.2680    2.0020 C   0  0  0  0  0  0  0  0  0  0  0  0
   -0.7160   -1.2310    2.3700 C   0  0  0  0  0  0  0  0  0  0  0  0
   -1.2480   -0.0780    2.9800 C   0  0  0  0  0  0  0  0  0  0  0  0
   -0.4000    0.9150    3.3520 C   0  0  0  0  0  0  0  0  0  0  0  0
    0.9520    0.7750    3.1260 C   0  0  0  0  0  0  0  0  0  0  0  0
    1.4750   -0.3000    2.5540 N   0  0  0  0  0  0  0  0  0  0  0  0
    0.6450   -1.3010    2.1760 C   0  0  0  0  0  0  0  0  0  0  0  0
    1.2220   -2.4960    1.5370 C   0  0  0  0  0  0  0  0  0  0  0  0
    2.6540   -2.3240    1.4100 N   0  0  0  0  0  0  0  0  0  0  0  0
    3.1440   -1.2310    0.6030 C   0  0  0  0  0  0  0  0  0  0  0  0
    2.3130   -0.4910    0.0570 O   0  0  0  0  0  0  0  0  0  0  0  0
    4.5290   -1.0250    0.4490 N   0  0  0  0  0  0  0  0  0  0  0  0
    5.1040    0.0110   -0.3110 C   0  0  0  0  0  0  0  0  0  0  0  0
    4.4260    0.9760   -0.9950 C   0  0  0  0  0  0  0  0  0  0  0  0
    5.1200    1.9520   -1.7210 C   0  0  0  0  0  0  0  0  0  0  0  0
    6.4950    1.9830   -1.7780 C   0  0  0  0  0  0  0  0  0  0  0  0
    7.2580    3.0060   -2.5400 C   0  0  0  0  0  0  0  0  0  0  0  0
    7.1430    0.9840   -1.0690 C   0  0  0  0  0  0  0  0  0  0  0  0
    8.6500    0.9860   -1.1100 C   0  0  0  0  0  0  0  0  0  0  0  0
    6.4710    0.0600   -0.3820 N   0  0  0  0  0  0  0  0  0  0  0  0
   -2.8120   -2.0160    1.2550 C   0  0  0  0  0  0  0  0  0  0  0  0
   -3.3510   -0.9130    0.6970 N   0  0  0  0  0  0  0  0  0  0  0  0
   -6.2520    0.2300   -1.2980 C   0  0  0  0  0  0  0  0  0  0  0  0
   -6.7980    1.3730   -1.8730 C   0  0  0  0  0  0  0  0  0  0  0  0
  1  2  1  0
  2  3  2  0
  2 36  1  0
  3  4  1  0
  4  5  2  0
  5  6  1  0
  5 35  1  0
  6  7  1  0
  6 34  2  0
  7  8  2  0
  8  9  1  0
  8 10  1  0
 10 11  1  0
 10 33  1  0
 11 12  2  0
 12 13  1  0
 13 14  1  0
 13 33  2  0
 14 15  2  0
 14 19  1  0
 15 16  1  0
 16 17  2  0
 17 18  1  0
 18 19  2  0
 19 20  1  0
 20 21  1  0
 21 22  1  0
 22 23  2  0
 22 24  1  0
 24 25  1  0
 25 26  2  0
 25 32  1  0
 26 27  1  0
 27 28  2  0
 28 29  1  0
 28 30  1  0
 30 31  1  0
 30 32  2  0
 33 34  1  0
 35 36  2  0
M  END
