
     RDKit          3D

 31 32  0  0  0  0  0  0  0  0999 V2000
    4.0120    2.8890    1.1100 N   0  0  0  0  0  0  0  0  0  0  0  0
    4.4600    2.6500   -0.0400 C   0  0  0  0  0  0  0  0  0  0  0  0
    4.4620    3.7020   -0.9990 O   0  0  0  0  0  0  0  0  0  0  0  0
    4.9460    1.3850   -0.4180 N   0  0  0  0  0  0  0  0  0  0  0  0
    4.0240    0.3030   -0.3600 C   0  0  0  0  0  0  0  0  0  0  0  0
    2.7590    0.3220    0.1420 C   0  0  0  0  0  0  0  0  0  0  0  0
    1.8800   -0.7060    0.1020 C   0  0  0  0  0  0  0  0  0  0  0  0
    0.6280   -0.7090    0.5990 O   0  0  0  0  0  0  0  0  0  0  0  0
    0.0780    0.3750    1.2950 C   0  0  0  0  0  0  0  0  0  0  0  0
   -1.4030    0.1140    1.5860 C   0  0  0  0  0  0  0  0  0  0  0  0
   -2.1120   -0.0440    0.3740 O   0  0  0  0  0  0  0  0  0  0  0  0
   -3.4350   -0.4020    0.2830 C   0  0  0  0  0  0  0  0  0  0  0  0
   -3.6810   -1.7820    0.1090 C   0  0  0  0  0  0  0  0  0  0  0  0
   -2.6360   -2.6100    0.0430 F   0  0  0  0  0  0  0  0  0  0  0  0
   -4.9830   -2.2010    0.0110 C   0  0  0  0  0  0  0  0  0  0  0  0
   -6.0550   -1.3020    0.0830 C   0  0  0  0  0  0  0  0  0  0  0  0
   -7.3400   -1.7510   -0.0100 F   0  0  0  0  0  0  0  0  0  0  0  0
   -5.8180    0.0510    0.2560 C   0  0  0  0  0  0  0  0  0  0  0  0
   -4.4940    0.4760    0.3530 C   0  0  0  0  0  0  0  0  0  0  0  0
   -4.3170    1.8370    0.5200 O   0  0  0  0  0  0  0  0  0  0  0  0
   -4.2640    2.7710   -0.5410 C   0  0  2  0  0  0  0  0  0  0  0  0
   -5.4540    2.7660   -1.2570 F   0  0  0  0  0  0  0  0  0  0  0  0
   -3.2760    2.3960   -1.4600 F   0  0  0  0  0  0  0  0  0  0  0  0
   -3.9800    4.0290   -0.0090 F   0  0  0  0  0  0  0  0  0  0  0  0
    2.3340   -1.8950   -0.5270 C   0  0  0  0  0  0  0  0  0  0  0  0
    3.5990   -1.9640   -1.0450 C   0  0  0  0  0  0  0  0  0  0  0  0
    4.0930   -3.2120   -1.7340 C   0  0  1  0  0  0  0  0  0  0  0  0
    3.7580   -4.3190   -0.9550 F   0  0  0  0  0  0  0  0  0  0  0  0
    3.4780   -3.3440   -2.9710 F   0  0  0  0  0  0  0  0  0  0  0  0
    5.4340   -3.1040   -1.8860 F   0  0  0  0  0  0  0  0  0  0  0  0
    4.4330   -0.8780   -0.9610 C   0  0  0  0  0  0  0  0  0  0  0  0
  1  2  2  0
  2  3  1  0
  2  4  1  0
  4  5  1  0
  5  6  2  0
  5 31  1  0
  6  7  1  0
  7  8  1  0
  7 25  2  0
  8  9  1  0
  9 10  1  0
 10 11  1  0
 11 12  1  0
 12 13  2  0
 12 19  1  0
 13 14  1  0
 13 15  1  0
 15 16  2  0
 16 17  1  0
 16 18  1  0
 18 19  2  0
 19 20  1  0
 20 21  1  0
 21 22  1  6
 21 23  1  0
 21 24  1  0
 25 26  1  0
 26 27  1  0
 26 31  2  0
 27 28  1  1
 27 29  1  0
 27 30  1  0
M  CHG  2   1   1   3  -1
M  END
