
     RDKit          3D

 32 32  0  0  0  0  0  0  0  0999 V2000
    0.6510    3.7410    2.1110 O   0  0  0  0  0  0  0  0  0  0  0  0
    0.1390    2.6100    2.1800 C   0  0  0  0  0  0  0  0  0  0  0  0
   -1.1220    2.4700    2.9770 C   0  0  0  0  0  0  0  0  0  0  0  0
   -1.8290    1.3070    2.6060 O   0  0  0  0  0  0  0  0  0  0  0  0
   -1.3450    0.3580    1.7190 C   0  0  0  0  0  0  0  0  0  0  0  0
   -2.1940   -0.3790    0.9810 C   0  0  0  0  0  0  0  0  0  0  0  0
   -3.6490   -0.2110    1.0830 C   0  0  0  0  0  0  0  0  0  0  0  0
   -4.3580    0.1520   -0.0100 O   0  0  0  0  0  0  0  0  0  0  0  0
   -4.6220   -0.3490   -1.2480 C   0  0  0  0  0  0  0  0  0  0  0  0
   -5.6810    0.1070   -1.9270 C   0  0  0  0  0  0  0  0  0  0  0  0
   -6.0970   -0.3260   -3.2590 C   0  0  1  0  0  0  0  0  0  0  0  0
   -6.6690   -1.6030   -3.2780 F   0  0  0  0  0  0  0  0  0  0  0  0
   -7.1140    0.5110   -3.7210 F   0  0  0  0  0  0  0  0  0  0  0  0
   -3.7320   -1.3910   -1.8220 C   0  0  1  0  0  0  0  0  0  0  0  0
   -4.1910   -1.8970   -3.0260 F   0  0  0  0  0  0  0  0  0  0  0  0
   -2.5270   -0.7550   -2.1290 F   0  0  0  0  0  0  0  0  0  0  0  0
   -3.5530   -2.4680   -0.9820 F   0  0  0  0  0  0  0  0  0  0  0  0
    0.1360    0.1980    1.6260 C   0  0  0  0  0  0  0  0  0  0  0  0
    0.7320    1.4960    1.5250 N   0  0  0  0  0  0  0  0  0  0  0  0
    1.9310    1.7210    0.7560 C   0  0  0  0  0  0  0  0  0  0  0  0
    3.1510    1.5680    1.6150 C   0  0  0  0  0  0  0  0  0  0  0  0
    3.2680    0.2870    2.1280 O   0  0  0  0  0  0  0  0  0  0  0  0
    3.4370   -0.8460    1.3390 C   0  0  0  0  0  0  0  0  0  0  0  0
    3.8840   -0.7290    0.1080 C   0  0  0  0  0  0  0  0  0  0  0  0
    4.1100   -1.7940   -0.8390 C   0  0  0  0  0  0  0  0  0  0  0  0
    4.5740   -1.5020   -2.0480 C   0  0  0  0  0  0  0  0  0  0  0  0
    4.8480   -0.1550   -2.4170 N   0  0  0  0  0  0  0  0  0  0  0  0
    5.4100   -0.0860   -3.6410 O   0  0  0  0  0  0  0  0  0  0  0  0
    3.0990   -2.1620    1.9430 C   0  0  2  0  0  0  0  0  0  0  0  0
    1.7880   -2.4970    1.8350 F   0  0  0  0  0  0  0  0  0  0  0  0
    3.3630   -2.0470    3.3340 F   0  0  0  0  0  0  0  0  0  0  0  0
    3.9120   -3.1860    1.5310 F   0  0  0  0  0  0  0  0  0  0  0  0
  1  2  2  0
  2  3  1  0
  2 19  1  0
  3  4  1  0
  4  5  1  0
  5  6  2  3
  5 18  1  0
  6  7  1  0
  7  8  1  0
  8  9  1  0
  9 10  2  3
  9 14  1  0
 10 11  1  0
 11 12  1  1
 11 13  1  0
 14 15  1  6
 14 16  1  0
 14 17  1  0
 18 19  1  0
 19 20  1  0
 20 21  1  0
 21 22  1  0
 22 23  1  0
 23 24  2  3
 23 29  1  0
 24 25  1  0
 25 26  2  3
 26 27  1  0
 27 28  1  0
 29 30  1  1
 29 31  1  0
 29 32  1  0
M  CHG  2  27   1  28  -1
M  END
