
     RDKit          3D

 33 36  0  0  0  0  0  0  0  0999 V2000
   -6.9070    0.2200   -1.0340 N   0  0  0  0  0  0  0  0  0  0  0  0
   -5.7200   -0.5410   -1.2060 C   0  0  0  0  0  0  0  0  0  0  0  0
   -5.7800   -1.8090   -1.1100 N   0  0  0  0  0  0  0  0  0  0  0  0
   -4.4700    0.1470   -1.4940 C   0  0  0  0  0  0  0  0  0  0  0  0
   -4.4550    1.5390   -1.5780 C   0  0  0  0  0  0  0  0  0  0  0  0
   -3.2830    2.1970   -1.8560 C   0  0  0  0  0  0  0  0  0  0  0  0
   -2.1040    1.5250   -2.0560 C   0  0  0  0  0  0  0  0  0  0  0  0
   -2.0740    0.1050   -1.9780 C   0  0  0  0  0  0  0  0  0  0  0  0
   -0.7900   -0.4560   -2.2920 C   0  0  0  0  0  0  0  0  0  0  0  0
    0.3880   -0.3900   -1.4710 C   0  0  2  0  0  0  0  0  0  0  0  0
    1.5640   -1.0080   -2.1040 N   0  0  0  0  0  0  0  0  0  0  0  0
    2.7890   -0.0170   -2.6280 S   0  0  1  0  0  0  0  0  0  0  0  0
    3.9470   -0.8060   -3.2330 O   0  0  0  0  0  0  0  0  0  0  0  0
    2.3380    1.0460   -3.6210 O   0  0  0  0  0  0  0  0  0  0  0  0
    3.4990    0.8700   -1.3020 C   0  0  0  0  0  0  0  0  0  0  0  0
    3.0410    2.1320   -0.9370 C   0  0  0  0  0  0  0  0  0  0  0  0
    3.6040    2.8360    0.1090 C   0  0  0  0  0  0  0  0  0  0  0  0
    4.6540    2.3140    0.8440 C   0  0  0  0  0  0  0  0  0  0  0  0
    5.2030    3.0410    1.8940 C   0  0  0  0  0  0  0  0  0  0  0  0
    6.2510    2.4670    2.5950 C   0  0  0  0  0  0  0  0  0  0  0  0
    6.7350    1.2130    2.2610 C   0  0  0  0  0  0  0  0  0  0  0  0
    6.1560    0.5310    1.2090 C   0  0  0  0  0  0  0  0  0  0  0  0
    5.0980    1.0700    0.4760 C   0  0  0  0  0  0  0  0  0  0  0  0
    4.5540    0.3520   -0.5600 C   0  0  0  0  0  0  0  0  0  0  0  0
    0.4490   -0.7870   -0.1010 C   0  0  0  0  0  0  0  0  0  0  0  0
    1.6960   -0.5880    0.3850 O   0  0  0  0  0  0  0  0  0  0  0  0
   -0.3480   -1.3150    0.8940 N   0  0  0  0  0  0  0  0  0  0  0  0
   -1.7180   -1.8120    0.8150 C   0  0  0  0  0  0  0  0  0  0  0  0
   -1.9370   -2.8200    1.9700 C   0  0  0  0  0  0  0  0  0  0  0  0
   -1.9920   -2.0500    3.1840 N   0  0  0  0  0  0  0  0  0  0  0  0
   -0.8740   -1.1840    3.2880 C   0  0  0  0  0  0  0  0  0  0  0  0
    0.2000   -1.3890    2.2770 C   0  0  0  0  0  0  0  0  0  0  0  0
   -3.2690   -0.4810   -1.7010 C   0  0  0  0  0  0  0  0  0  0  0  0
  1  2  1  0
  2  3  2  0
  2  4  1  0
  4  5  2  0
  4 33  1  0
  5  6  1  0
  6  7  2  0
  7  8  1  0
  8  9  1  0
  8 33  2  0
 10  9  1  6
 10 11  1  0
 10 25  1  0
 12 11  1  1
 12 13  2  0
 12 14  2  0
 12 15  1  0
 15 16  2  0
 15 24  1  0
 16 17  1  0
 17 18  2  0
 18 19  1  0
 18 23  1  0
 19 20  2  0
 20 21  1  0
 21 22  2  0
 22 23  1  0
 23 24  2  0
 25 26  2  0
 25 27  1  0
 27 28  1  0
 27 32  1  0
 28 29  1  0
 29 30  1  0
 30 31  1  0
 31 32  1  0
M  CHG  2   3   1  30   1
M  END
