
     RDKit          3D

 32 36  0  0  0  0  0  0  0  0999 V2000
   -4.5380   -2.8930    0.2880 F   0  0  0  0  0  0  0  0  0  0  0  0
   -3.2630   -2.3840    0.3520 C   0  0  0  0  0  0  0  0  0  0  0  0
   -2.2860   -3.0470   -0.3100 C   0  0  0  0  0  0  0  0  0  0  0  0
   -0.9900   -2.5430   -0.2970 C   0  0  0  0  0  0  0  0  0  0  0  0
   -0.7200   -1.3330    0.4140 C   0  0  0  0  0  0  0  0  0  0  0  0
    0.6130   -1.0410    0.5060 N   0  0  0  0  0  0  0  0  0  0  0  0
    1.6260   -0.1020    0.8480 C   0  0  0  0  0  0  0  0  0  0  0  0
    2.2590    0.0940   -0.5340 C   0  0  0  0  0  0  0  0  0  0  0  0
    1.4220    0.0550   -1.6290 C   0  0  0  0  0  0  0  0  0  0  0  0
    1.8700    0.3300   -2.8820 C   0  0  0  0  0  0  0  0  0  0  0  0
    0.7790    0.2590   -4.2270 Cl  0  0  0  0  0  0  0  0  0  0  0  0
    3.2230    0.6530   -3.0590 C   0  0  0  0  0  0  0  0  0  0  0  0
    4.0700    0.6830   -1.9120 C   0  0  0  0  0  0  0  0  0  0  0  0
    5.4390    0.8330   -2.0710 C   0  0  0  0  0  0  0  0  0  0  0  0
    6.2370    0.7000   -0.9570 C   0  0  0  0  0  0  0  0  0  0  0  0
    5.7100    0.4510    0.2550 C   0  0  0  0  0  0  0  0  0  0  0  0
    4.3830    0.3020    0.4380 N   0  0  0  0  0  0  0  0  0  0  0  0
    3.5860    0.4110   -0.6690 C   0  0  0  0  0  0  0  0  0  0  0  0
    6.6110    0.2940    1.4320 C   0  0  0  0  0  0  0  0  0  0  0  0
    7.7740    1.1210    1.2360 N   0  0  0  0  0  0  0  0  0  0  0  0
    8.5250    0.6490    0.0860 C   0  0  0  0  0  0  0  0  0  0  0  0
    7.7040    0.6940   -1.1900 C   0  0  0  0  0  0  0  0  0  0  0  0
   -1.7520   -0.7140    1.0510 N   0  0  0  0  0  0  0  0  0  0  0  0
   -2.9920   -1.2120    1.0390 C   0  0  0  0  0  0  0  0  0  0  0  0
   -4.0870   -0.8130    1.9410 C   0  0  0  0  0  0  0  0  0  0  0  0
   -4.6670    0.5160    1.7560 N   0  0  1  0  0  0  0  0  0  0  0  0
   -4.1440    1.2140    0.5630 C   0  0  0  0  0  0  0  0  0  0  0  0
   -4.9400    0.9280   -0.6580 C   0  0  0  0  0  0  0  0  0  0  0  0
   -6.3570    1.1120   -0.8250 C   0  0  0  0  0  0  0  0  0  0  0  0
   -7.4150    0.0940   -0.4010 C   0  0  0  0  0  0  0  0  0  0  0  0
   -7.2410   -0.1980    1.1430 C   0  0  0  0  0  0  0  0  0  0  0  0
   -5.9920    0.2880    1.4100 C   0  0  0  0  0  0  0  0  0  0  0  0
  1  2  1  0
  2  3  2  0
  2 24  1  0
  3  4  1  0
  4  5  2  0
  5  6  1  0
  5 23  1  0
  6  7  1  0
  7  8  1  0
  8  9  2  0
  8 18  1  0
  9 10  1  0
 10 11  1  0
 10 12  2  0
 12 13  1  0
 13 14  2  0
 13 18  1  0
 14 15  1  0
 15 16  2  0
 15 22  1  0
 16 17  1  0
 16 19  1  0
 17 18  2  0
 19 20  1  0
 20 21  1  0
 21 22  1  0
 23 24  2  0
 24 25  1  0
 26 25  1  6
 26 27  1  0
 26 32  1  0
 27 28  1  0
 28 29  1  0
 29 30  1  0
 30 31  1  0
 31 32  1  0
M  CHG  2  20   1  26   1
M  END
