
     RDKit          3D

 32 36  0  0  0  0  0  0  0  0999 V2000
    6.4010    1.1580   -0.2250 C   0  0  0  0  0  0  0  0  0  0  0  0
    5.1200    1.7420    0.1520 N   0  0  0  0  0  0  0  0  0  0  0  0
    4.0360    1.0080   -0.5050 C   0  0  0  0  0  0  0  0  0  0  0  0
    3.7420   -0.2330    0.3050 C   0  0  0  0  0  0  0  0  0  0  0  0
    2.6870   -1.0110   -0.2750 N   0  0  0  0  0  0  0  0  0  0  0  0
    1.3350   -0.5890   -0.3360 C   0  0  0  0  0  0  0  0  0  0  0  0
    0.9540    0.6200   -0.1100 N   0  0  0  0  0  0  0  0  0  0  0  0
   -0.4490    0.7570   -0.2550 C   0  0  0  0  0  0  0  0  0  0  0  0
   -1.1060    1.8420   -0.0900 N   0  0  0  0  0  0  0  0  0  0  0  0
   -0.4100    3.0480    0.2730 C   0  0  0  0  0  0  0  0  0  0  0  0
   -1.3730    4.1840    0.3480 C   0  0  0  0  0  0  0  0  0  0  0  0
   -1.3120    5.2810   -0.3890 C   0  0  0  0  0  0  0  0  0  0  0  0
   -2.4280    6.1690   -0.0350 C   0  0  0  0  0  0  0  0  0  0  0  0
   -3.1540    5.4400    1.0170 C   0  0  0  0  0  0  0  0  0  0  0  0
   -2.5260    4.2990    1.2190 C   0  0  0  0  0  0  0  0  0  0  0  0
   -0.9890   -0.5230   -0.6240 N   0  0  0  0  0  0  0  0  0  0  0  0
   -2.3650   -0.7130   -0.9540 C   0  0  0  0  0  0  0  0  0  0  0  0
   -2.8060   -2.1010   -1.1250 C   0  0  0  0  0  0  0  0  0  0  0  0
   -3.8400   -2.2670   -2.0090 C   0  0  0  0  0  0  0  0  0  0  0  0
   -4.3380   -3.5300   -2.2530 C   0  0  0  0  0  0  0  0  0  0  0  0
   -3.7990   -4.6240   -1.6130 C   0  0  0  0  0  0  0  0  0  0  0  0
   -4.3000   -5.8470   -1.8670 F   0  0  0  0  0  0  0  0  0  0  0  0
   -2.7530   -4.5140   -0.7110 C   0  0  0  0  0  0  0  0  0  0  0  0
   -2.2880   -3.2500   -0.4930 C   0  0  0  0  0  0  0  0  0  0  0  0
   -1.2000   -3.2650    0.4970 C   0  0  0  0  0  0  0  0  0  0  0  0
   -1.4290   -4.1970    1.4690 C   0  0  0  0  0  0  0  0  0  0  0  0
   -0.4840   -4.2740    2.4710 C   0  0  0  0  0  0  0  0  0  0  0  0
   -0.7230   -5.4500    3.7410 Cl  0  0  0  0  0  0  0  0  0  0  0  0
    0.6260   -3.4440    2.4750 C   0  0  0  0  0  0  0  0  0  0  0  0
    0.8240   -2.5080    1.4710 C   0  0  0  0  0  0  0  0  0  0  0  0
   -0.0810   -2.4070    0.4730 C   0  0  0  0  0  0  0  0  0  0  0  0
    0.1750   -1.4100   -0.5860 C   0  0  2  0  0  0  0  0  0  0  0  0
  1  2  1  0
  2  3  1  0
  3  4  1  0
  4  5  1  0
  5  6  1  0
  6  7  2  0
 32  6  1  1
  7  8  1  0
  8  9  2  3
  8 16  1  0
  9 10  1  0
 10 11  1  0
 11 12  2  0
 11 15  1  0
 12 13  1  0
 13 14  1  0
 14 15  2  0
 16 17  1  0
 16 32  1  0
 17 18  1  0
 18 19  2  0
 18 24  1  0
 19 20  1  0
 20 21  2  0
 21 22  1  0
 21 23  1  0
 23 24  2  0
 24 25  1  0
 25 26  2  0
 25 31  1  0
 26 27  1  0
 27 28  1  0
 27 29  2  0
 29 30  1  0
 30 31  2  0
 31 32  1  0
M  CHG  2   2   1   9   1
M  END
