
     RDKit          3D

 31 32  0  0  0  0  0  0  0  0999 V2000
    3.2710    1.3050    1.2120 O   0  0  0  0  0  0  0  0  0  0  0  0
    3.9500    0.8270    0.2890 C   0  0  0  0  0  0  0  0  0  0  0  0
    3.4880   -0.2560   -0.4880 N   0  0  0  0  0  0  0  0  0  0  0  0
    2.2470   -0.9010   -0.3160 C   0  0  0  0  0  0  0  0  0  0  0  0
    1.3430   -0.5890    0.6580 C   0  0  0  0  0  0  0  0  0  0  0  0
    0.1470   -1.3250    0.7190 C   0  0  0  0  0  0  0  0  0  0  0  0
   -0.7060   -0.9420    1.7330 O   0  0  0  0  0  0  0  0  0  0  0  0
   -1.9750   -0.4890    1.4170 C   0  0  0  0  0  0  0  0  0  0  0  0
   -3.1040   -1.2690    1.4800 C   0  0  0  0  0  0  0  0  0  0  0  0
   -4.3410   -0.7700    1.1540 C   0  0  0  0  0  0  0  0  0  0  0  0
   -4.5280    0.5530    0.7390 C   0  0  0  0  0  0  0  0  0  0  0  0
   -5.8860    1.0520    0.3910 C   0  0  0  0  0  0  0  0  0  0  0  0
   -5.8240    2.4680    0.1880 N   0  0  0  0  0  0  0  0  0  0  0  0
   -6.1260    2.9230   -0.9310 O   0  0  0  0  0  0  0  0  0  0  0  0
   -5.4420    3.3270    1.1860 O   0  0  0  0  0  0  0  0  0  0  0  0
   -3.3900    1.3280    0.6790 C   0  0  0  0  0  0  0  0  0  0  0  0
   -2.1430    0.8400    1.0040 C   0  0  0  0  0  0  0  0  0  0  0  0
   -0.1490   -2.3340   -0.1470 C   0  0  0  0  0  0  0  0  0  0  0  0
   -1.3020   -3.0230   -0.0640 F   0  0  0  0  0  0  0  0  0  0  0  0
    0.7850   -2.6160   -1.1100 C   0  0  0  0  0  0  0  0  0  0  0  0
    1.9740   -1.9330   -1.2240 C   0  0  0  0  0  0  0  0  0  0  0  0
    2.9300   -2.2910   -2.2990 C   0  0  2  0  0  0  0  0  0  0  0  0
    3.1540   -1.2360   -3.1490 F   0  0  0  0  0  0  0  0  0  0  0  0
    2.3560   -3.3200   -3.0590 F   0  0  0  0  0  0  0  0  0  0  0  0
    4.0970   -2.8030   -1.7420 F   0  0  0  0  0  0  0  0  0  0  0  0
    5.2860    1.4230    0.0080 C   0  0  0  0  0  0  0  0  0  0  0  0
    5.9740    0.9440   -0.9200 O   0  0  0  0  0  0  0  0  0  0  0  0
    5.7760    2.5590    0.8200 C   0  0  1  0  0  0  0  0  0  0  0  0
    7.0270    2.9680    0.4080 F   0  0  0  0  0  0  0  0  0  0  0  0
    4.8750    3.6300    0.7430 F   0  0  0  0  0  0  0  0  0  0  0  0
    5.8260    2.2100    2.1670 F   0  0  0  0  0  0  0  0  0  0  0  0
  1  2  2  0
  2  3  1  0
  2 26  1  0
  3  4  1  0
  4  5  2  0
  4 21  1  0
  5  6  1  0
  6  7  1  0
  6 18  2  0
  7  8  1  0
  8  9  2  0
  8 17  1  0
  9 10  1  0
 10 11  2  0
 11 12  1  0
 11 16  1  0
 12 13  1  0
 13 14  2  0
 13 15  1  0
 16 17  2  0
 18 19  1  0
 18 20  1  0
 20 21  2  0
 21 22  1  0
 22 23  1  6
 22 24  1  0
 22 25  1  0
 26 27  2  0
 26 28  1  0
 28 29  1  6
 28 30  1  0
 28 31  1  0
M  CHG  2  13   1  15  -1
M  END
