
     RDKit          3D

 31 32  0  0  0  0  0  0  0  0999 V2000
    1.2210   -0.7720   -0.8690 O   0  0  0  0  0  0  0  0  0  0  0  0
    0.7960   -0.2970    0.2040 C   0  0  0  0  0  0  0  0  0  0  0  0
   -0.6550   -0.0470    0.2720 C   0  0  0  0  0  0  0  0  0  0  0  0
   -1.4970   -0.6030   -0.8020 C   0  0  2  0  0  0  0  0  0  0  0  0
   -1.0350   -0.0890   -2.0340 O   0  0  0  0  0  0  0  0  0  0  0  0
   -2.8770   -0.0200   -0.7050 C   0  0  0  0  0  0  0  0  0  0  0  0
   -3.9860   -0.7580   -0.3820 C   0  0  0  0  0  0  0  0  0  0  0  0
   -5.2490   -0.1350   -0.3180 C   0  0  0  0  0  0  0  0  0  0  0  0
   -5.3830    1.2130   -0.5770 C   0  0  0  0  0  0  0  0  0  0  0  0
   -6.7120    1.8990   -0.5040 C   0  0  1  0  0  0  0  0  0  0  0  0
   -7.5960    1.1410   -1.2260 F   0  0  0  0  0  0  0  0  0  0  0  0
   -7.0990    1.9690    0.8220 F   0  0  0  0  0  0  0  0  0  0  0  0
   -4.2680    1.9050   -0.8900 N   0  0  0  0  0  0  0  0  0  0  0  0
   -4.4030    3.2650   -1.1600 O   0  0  0  0  0  0  0  0  0  0  0  0
   -3.0390    1.3370   -0.9610 C   0  0  0  0  0  0  0  0  0  0  0  0
   -1.5700   -2.0840   -0.7440 C   0  0  2  0  0  0  0  0  0  0  0  0
   -2.3890   -2.6170   -1.7340 F   0  0  0  0  0  0  0  0  0  0  0  0
   -2.0390   -2.5190    0.4730 F   0  0  0  0  0  0  0  0  0  0  0  0
   -0.3080   -2.7030   -0.8600 F   0  0  0  0  0  0  0  0  0  0  0  0
    1.6240   -0.0060    1.3020 N   0  0  0  0  0  0  0  0  0  0  0  0
    3.0080   -0.1970    1.3460 C   0  0  0  0  0  0  0  0  0  0  0  0
    3.6380   -0.0650    2.5930 C   0  0  0  0  0  0  0  0  0  0  0  0
    4.9780   -0.2330    2.6790 C   0  0  0  0  0  0  0  0  0  0  0  0
    5.7340   -0.5310    1.5670 C   0  0  0  0  0  0  0  0  0  0  0  0
    5.1480   -0.6670    0.3280 C   0  0  0  0  0  0  0  0  0  0  0  0
    5.9520   -0.9670   -0.7580 O   0  0  0  0  0  0  0  0  0  0  0  0
    6.5470    0.0540   -1.5540 C   0  0  1  0  0  0  0  0  0  0  0  0
    7.3000   -0.5300   -2.5630 F   0  0  0  0  0  0  0  0  0  0  0  0
    5.6100    0.8600   -2.1180 F   0  0  0  0  0  0  0  0  0  0  0  0
    7.3890    0.7890   -0.7260 F   0  0  0  0  0  0  0  0  0  0  0  0
    3.7610   -0.4940    0.2340 C   0  0  0  0  0  0  0  0  0  0  0  0
  1  2  2  0
  2  3  1  0
  2 20  1  0
  3  4  1  0
  4  5  1  6
  4  6  1  0
  4 16  1  0
  6  7  2  0
  6 15  1  0
  7  8  1  0
  8  9  2  0
  9 10  1  0
  9 13  1  0
 10 11  1  6
 10 12  1  0
 13 14  1  0
 13 15  2  0
 16 17  1  6
 16 18  1  0
 16 19  1  0
 20 21  1  0
 21 22  2  0
 21 31  1  0
 22 23  1  0
 23 24  2  0
 24 25  1  0
 25 26  1  0
 25 31  2  0
 26 27  1  0
 27 28  1  6
 27 29  1  0
 27 30  1  0
M  CHG  2  13   1  14  -1
M  END
