
     RDKit          3D

 48 53  0  0  0  0  0  0  0  0999 V2000
   11.5300    1.8320   -1.2640 C   0  0  0  0  0  0  0  0  0  0  0  0
   12.2420    0.9040   -0.4130 N   0  0  0  0  0  0  0  0  0  0  0  0
   11.4090    0.3840    0.6160 C   0  0  0  0  0  0  0  0  0  0  0  0
   11.5060    0.7820    1.9320 C   0  0  0  0  0  0  0  0  0  0  0  0
   10.6940    0.2720    2.9240 C   0  0  0  0  0  0  0  0  0  0  0  0
    9.7560   -0.6710    2.5580 C   0  0  0  0  0  0  0  0  0  0  0  0
    9.6230   -1.1040    1.2330 C   0  0  0  0  0  0  0  0  0  0  0  0
    8.6560   -2.0740    0.8710 N   0  0  0  0  0  0  0  0  0  0  0  0
    8.5230   -2.4860   -0.3820 O   0  0  0  0  0  0  0  0  0  0  0  0
    7.6510   -1.6870   -1.1310 C   0  0  0  0  0  0  0  0  0  0  0  0
    6.2860   -1.6850   -0.5210 C   0  0  0  0  0  0  0  0  0  0  0  0
    5.2990   -2.5750   -0.8860 C   0  0  0  0  0  0  0  0  0  0  0  0
    4.0390   -2.5350   -0.2850 C   0  0  0  0  0  0  0  0  0  0  0  0
    3.7340   -1.6110    0.6900 C   0  0  0  0  0  0  0  0  0  0  0  0
    2.3950   -1.5520    1.3310 C   0  0  2  0  0  0  0  0  0  0  0  0
    1.8750   -2.7930    1.6530 O   0  0  0  0  0  0  0  0  0  0  0  0
    1.4120   -0.8190    0.5130 C   0  0  0  0  0  0  0  0  0  0  0  0
    1.7370   -0.1290   -0.6310 C   0  0  0  0  0  0  0  0  0  0  0  0
    0.7490    0.5410   -1.3380 C   0  0  0  0  0  0  0  0  0  0  0  0
   -0.5910    0.5400   -0.9200 C   0  0  0  0  0  0  0  0  0  0  0  0
   -1.5760    1.2640   -1.7000 C   0  0  0  0  0  0  0  0  0  0  0  0
   -1.1840    1.7950   -2.7600 O   0  0  0  0  0  0  0  0  0  0  0  0
   -2.9130    1.3710   -1.2890 N   0  0  0  0  0  0  0  0  0  0  0  0
   -3.9530    2.0430   -1.9530 C   0  0  0  0  0  0  0  0  0  0  0  0
   -3.7870    2.6640   -3.1540 C   0  0  0  0  0  0  0  0  0  0  0  0
   -4.8640    3.3240   -3.7880 C   0  0  0  0  0  0  0  0  0  0  0  0
   -6.1060    3.3670   -3.2290 C   0  0  0  0  0  0  0  0  0  0  0  0
   -6.2920    2.7470   -2.0200 C   0  0  0  0  0  0  0  0  0  0  0  0
   -5.2350    2.0990   -1.3970 C   0  0  0  0  0  0  0  0  0  0  0  0
   -5.4260    1.4570   -0.1340 N   0  0  0  0  0  0  0  0  0  0  0  0
   -6.1570    0.2070    0.0450 C   0  0  0  0  0  0  0  0  0  0  0  0
   -6.5610    0.1860    1.4990 C   0  0  2  0  0  0  0  0  0  0  0  0
   -7.9930    0.4620    1.7120 C   0  0  0  0  0  0  0  0  0  0  0  0
   -8.3230    1.5870    2.1990 O   0  0  0  0  0  0  0  0  0  0  0  0
   -8.9560   -0.5150    1.3750 N   0  0  0  0  0  0  0  0  0  0  0  0
  -10.3890   -0.2150    1.5510 C   0  0  0  0  0  0  0  0  0  0  0  0
  -11.0610   -0.1690    0.1800 C   0  0  0  0  0  0  0  0  0  0  0  0
  -10.2230   -0.9380   -0.8180 C   0  0  0  0  0  0  0  0  0  0  0  0
   -9.7270   -2.1940   -0.1570 C   0  0  0  0  0  0  0  0  0  0  0  0
   -8.6490   -1.8240    0.8730 C   0  0  0  0  0  0  0  0  0  0  0  0
   -5.6490    1.1370    2.2240 C   0  0  0  0  0  0  0  0  0  0  0  0
   -4.9720    1.8890    1.1390 C   0  0  0  0  0  0  0  0  0  0  0  0
   -4.1100    2.7890    1.3740 O   0  0  0  0  0  0  0  0  0  0  0  0
   -0.9060   -0.1500    0.2170 C   0  0  0  0  0  0  0  0  0  0  0  0
    0.0990   -0.8130    0.9080 C   0  0  0  0  0  0  0  0  0  0  0  0
    4.7220   -0.7200    1.0560 C   0  0  0  0  0  0  0  0  0  0  0  0
    5.9770   -0.7610    0.4560 C   0  0  0  0  0  0  0  0  0  0  0  0
   10.4640   -0.5600    0.2740 C   0  0  0  0  0  0  0  0  0  0  0  0
  1  2  1  0
  2  3  1  0
  3  4  2  0
  3 48  1  0
  4  5  1  0
  5  6  2  0
  6  7  1  0
  7  8  1  0
  7 48  2  0
  8  9  1  0
  9 10  1  0
 10 11  1  0
 11 12  2  0
 11 47  1  0
 12 13  1  0
 13 14  2  0
 14 15  1  0
 14 46  1  0
 15 16  1  6
 15 17  1  0
 17 18  2  0
 17 45  1  0
 18 19  1  0
 19 20  2  0
 20 21  1  0
 20 44  1  0
 21 22  2  0
 21 23  1  0
 23 24  1  0
 24 25  2  0
 24 29  1  0
 25 26  1  0
 26 27  2  0
 27 28  1  0
 28 29  2  0
 29 30  1  0
 30 31  1  0
 30 42  1  0
 31 32  1  0
 32 33  1  6
 32 41  1  0
 33 34  2  0
 33 35  1  0
 35 36  1  0
 35 40  1  0
 36 37  1  0
 37 38  1  0
 38 39  1  0
 39 40  1  0
 41 42  1  0
 42 43  2  0
 44 45  2  0
 46 47  2  0
M  CHG  1   2   1
M  END
