
     RDKit          3D

 48 52  0  0  0  0  0  0  0  0999 V2000
   -6.6000   -6.5340    1.0780 C   0  0  0  0  0  0  0  0  0  0  0  0
   -5.5870   -5.4630    1.2870 C   0  0  0  0  0  0  0  0  0  0  0  0
   -4.9670   -5.0790    2.3850 N   0  0  0  0  0  0  0  0  0  0  0  0
   -4.1190   -4.0860    2.1170 C   0  0  0  0  0  0  0  0  0  0  0  0
   -3.2140   -3.3030    2.8770 C   0  0  0  0  0  0  0  0  0  0  0  0
   -2.4790   -2.3690    2.3970 C   0  0  0  0  0  0  0  0  0  0  0  0
   -1.5250   -1.3900    3.1560 C   0  0  0  0  0  0  0  0  0  0  0  0
   -1.9150   -0.2210    2.5470 O   0  0  0  0  0  0  0  0  0  0  0  0
   -2.2920    0.8100    2.0300 C   0  0  0  0  0  0  0  0  0  0  0  0
   -3.5190    1.4930    2.4030 C   0  0  0  0  0  0  0  0  0  0  0  0
   -3.9940    2.5530    1.9320 C   0  0  0  0  0  0  0  0  0  0  0  0
   -3.3800    3.3430    0.8630 C   0  0  0  0  0  0  0  0  0  0  0  0
   -3.9480    4.4390    0.3860 C   0  0  0  0  0  0  0  0  0  0  0  0
   -4.4960    5.4690   -0.0520 C   0  0  0  0  0  0  0  0  0  0  0  0
   -5.1170    6.6490   -0.5400 C   0  0  0  0  0  0  0  0  0  0  0  0
   -4.7250    7.3110   -1.6750 C   0  0  0  0  0  0  0  0  0  0  0  0
   -5.7410    8.0550   -2.3480 C   0  0  0  0  0  0  0  0  0  0  0  0
   -6.9680    8.0930   -1.8990 C   0  0  0  0  0  0  0  0  0  0  0  0
   -7.4330    7.4500   -0.7420 C   0  0  0  0  0  0  0  0  0  0  0  0
   -8.7260    7.5260   -0.3090 O   0  0  0  0  0  0  0  0  0  0  0  0
   -6.4470    6.7400   -0.0980 C   0  0  0  0  0  0  0  0  0  0  0  0
   -2.1840    2.6720    0.5130 C   0  0  0  0  0  0  0  0  0  0  0  0
   -1.6410    1.5730    0.9610 C   0  0  0  0  0  0  0  0  0  0  0  0
   -0.4960    0.9190    0.4420 N   0  0  0  0  0  0  0  0  0  0  0  0
    0.3010    1.2250   -0.6380 C   0  0  0  0  0  0  0  0  0  0  0  0
    0.0090    2.3490   -1.2410 O   0  0  0  0  0  0  0  0  0  0  0  0
    1.3770    0.5630   -1.2320 N   0  0  0  0  0  0  0  0  0  0  0  0
    2.0660    1.0910   -2.3910 C   0  0  0  0  0  0  0  0  0  0  0  0
    3.1610    0.1610   -2.8750 C   0  0  0  0  0  0  0  0  0  0  0  0
    4.2740    0.1260   -1.8480 C   0  0  0  0  0  0  0  0  0  0  0  0
    4.2800    1.1900   -1.1560 O   0  0  0  0  0  0  0  0  0  0  0  0
    5.0830   -0.9540   -1.7870 N   0  0  0  0  0  0  0  0  0  0  0  0
    4.9330   -2.1640   -2.5500 C   0  0  0  0  0  0  0  0  0  0  0  0
    4.6230   -3.3060   -1.5510 C   0  0  0  0  0  0  0  0  0  0  0  0
    5.5560   -3.2810   -0.3730 C   0  0  0  0  0  0  0  0  0  0  0  0
    5.7150   -1.9210    0.2480 C   0  0  0  0  0  0  0  0  0  0  0  0
    6.2660   -1.0030   -0.8930 C   0  0  2  0  0  0  0  0  0  0  0  0
    6.6570    0.3240   -0.4190 C   0  0  0  0  0  0  0  0  0  0  0  0
    7.9220    0.4520    0.3330 C   0  0  1  0  0  0  0  0  0  0  0  0
    8.1520    1.9050    0.7810 C   0  0  0  0  0  0  0  0  0  0  0  0
    8.2160   -0.4780    1.4090 C   0  0  0  0  0  0  0  0  0  0  0  0
    9.0180   -1.6320    1.0550 N   0  0  0  0  0  0  0  0  0  0  0  0
    7.8330   -0.3560    2.5880 O   0  0  0  0  0  0  0  0  0  0  0  0
   -2.5400   -2.0900    0.9960 C   0  0  0  0  0  0  0  0  0  0  0  0
   -3.3830   -2.7960    0.1870 C   0  0  0  0  0  0  0  0  0  0  0  0
   -4.1790   -3.7970    0.7670 C   0  0  0  0  0  0  0  0  0  0  0  0
   -5.0930   -4.6470    0.2310 C   0  0  0  0  0  0  0  0  0  0  0  0
   -5.5280   -4.7070   -1.1850 C   0  0  0  0  0  0  0  0  0  0  0  0
  1  2  1  0
  2  3  1  0
  2 47  2  0
  3  4  1  0
  4  5  2  0
  4 46  1  0
  5  6  1  0
  6  7  1  0
  6 44  2  0
  7  8  1  0
  8  9  1  0
  9 10  2  0
  9 23  1  0
 10 11  1  0
 11 12  2  0
 12 13  1  0
 12 22  1  0
 13 14  3  0
 14 15  1  0
 15 16  2  0
 15 21  1  0
 16 17  1  0
 17 18  2  0
 18 19  1  0
 19 20  1  0
 19 21  2  0
 22 23  2  0
 23 24  1  0
 24 25  1  0
 25 26  2  0
 25 27  1  0
 27 28  1  0
 28 29  1  0
 29 30  1  0
 30 31  2  0
 30 32  1  0
 32 33  1  0
 32 37  1  0
 33 34  1  0
 34 35  1  0
 35 36  1  0
 36 37  1  0
 37 38  1  1
 38 39  1  0
 39 40  1  1
 39 41  1  0
 41 42  1  0
 41 43  2  0
 44 45  1  0
 45 46  2  0
 46 47  1  0
 47 48  1  0
M  END
