
     RDKit          3D

 36 39  0  0  0  0  0  0  0  0999 V2000
    6.5150   -1.7790    1.1530 C   0  0  0  0  0  0  0  0  0  0  0  0
    5.8410   -0.4640    1.0150 C   0  0  0  0  0  0  0  0  0  0  0  0
    5.9890    0.4120    1.8950 O   0  0  0  0  0  0  0  0  0  0  0  0
    5.0410   -0.2060   -0.1000 N   0  0  0  0  0  0  0  0  0  0  0  0
    4.3660    1.0560   -0.2740 C   0  0  0  0  0  0  0  0  0  0  0  0
    2.8430    0.7800   -0.3370 C   0  0  0  0  0  0  0  0  0  0  0  0
    2.5820   -0.3770   -1.1310 N   0  0  0  0  0  0  0  0  0  0  0  0
    1.4370   -1.1550   -1.1410 C   0  0  0  0  0  0  0  0  0  0  0  0
    1.6240   -2.2140   -1.9770 O   0  0  0  0  0  0  0  0  0  0  0  0
    0.1390   -1.1730   -0.5410 C   0  0  2  0  0  0  0  0  0  0  0  0
   -0.3560   -0.3120    0.4930 C   0  0  0  0  0  0  0  0  0  0  0  0
   -0.4950    1.1180    0.3710 C   0  0  0  0  0  0  0  0  0  0  0  0
   -1.4400    1.7080   -0.4930 C   0  0  0  0  0  0  0  0  0  0  0  0
   -1.6280    3.0580   -0.5270 C   0  0  0  0  0  0  0  0  0  0  0  0
   -0.9070    3.8970    0.2780 C   0  0  0  0  0  0  0  0  0  0  0  0
    0.0450    3.3630    1.1570 C   0  0  0  0  0  0  0  0  0  0  0  0
    0.7880    4.2770    1.9970 C   0  0  0  0  0  0  0  0  0  0  0  0
    0.5100    5.6720    1.8860 N   0  0  0  0  0  0  0  0  0  0  0  0
    1.6680    3.8580    2.8150 N   0  0  0  0  0  0  0  0  0  0  0  0
    0.2080    1.9870    1.1630 C   0  0  0  0  0  0  0  0  0  0  0  0
   -0.1530   -2.5650   -0.1280 N   0  0  0  0  0  0  0  0  0  0  0  0
   -1.3440   -3.3410   -1.0350 S   0  0  1  0  0  0  0  0  0  0  0  0
   -0.9810   -3.4840   -2.4970 O   0  0  0  0  0  0  0  0  0  0  0  0
   -1.4730   -4.7520   -0.5120 O   0  0  0  0  0  0  0  0  0  0  0  0
   -2.8700   -2.4880   -0.8730 C   0  0  0  0  0  0  0  0  0  0  0  0
   -3.3010   -1.5280   -1.7570 C   0  0  0  0  0  0  0  0  0  0  0  0
   -4.5240   -0.8840   -1.5690 C   0  0  0  0  0  0  0  0  0  0  0  0
   -5.3530   -1.1690   -0.5060 C   0  0  0  0  0  0  0  0  0  0  0  0
   -6.5680   -0.5320   -0.3280 C   0  0  0  0  0  0  0  0  0  0  0  0
   -7.4040   -0.8240    0.7400 C   0  0  0  0  0  0  0  0  0  0  0  0
   -6.9760   -1.7850    1.6300 C   0  0  0  0  0  0  0  0  0  0  0  0
   -5.7620   -2.4210    1.4490 C   0  0  0  0  0  0  0  0  0  0  0  0
   -4.9300   -2.1310    0.3870 C   0  0  0  0  0  0  0  0  0  0  0  0
   -3.7220   -2.7690    0.2040 C   0  0  0  0  0  0  0  0  0  0  0  0
    3.6950   -0.7500   -2.0500 C   0  0  0  0  0  0  0  0  0  0  0  0
    4.8480   -1.2010   -1.1300 C   0  0  0  0  0  0  0  0  0  0  0  0
  1  2  1  0
  2  3  2  0
  2  4  1  0
  4  5  1  0
  4 36  1  0
  5  6  1  0
  6  7  1  0
  7  8  1  0
  7 35  1  0
  8  9  2  0
  8 10  1  0
 10 11  1  1
 10 21  1  0
 11 12  1  0
 12 13  2  0
 12 20  1  0
 13 14  1  0
 14 15  2  0
 15 16  1  0
 16 17  1  0
 16 20  2  0
 17 18  1  0
 17 19  2  0
 22 21  1  1
 22 23  2  0
 22 24  2  0
 22 25  1  0
 25 26  2  0
 25 34  1  0
 26 27  1  0
 27 28  2  0
 28 29  1  0
 28 33  1  0
 29 30  2  0
 30 31  1  0
 31 32  2  0
 32 33  1  0
 33 34  2  0
 35 36  1  0
M  CHG  1  19   1
M  END
