
     RDKit          3D

 48 51  0  0  0  0  0  0  0  0999 V2000
    5.4830   -2.3710   -2.8890 C   0  0  0  0  0  0  0  0  0  0  0  0
    6.4430   -2.1120   -2.0720 O   0  0  0  0  0  0  0  0  0  0  0  0
    7.4210   -1.8580   -1.2650 C   0  0  0  0  0  0  0  0  0  0  0  0
    8.7560   -2.1130   -1.5760 C   0  0  0  0  0  0  0  0  0  0  0  0
    9.7570   -1.8310   -0.6960 C   0  0  0  0  0  0  0  0  0  0  0  0
   11.1700   -2.1250   -1.0980 C   0  0  0  0  0  0  0  0  0  0  0  0
    9.4820   -1.2860    0.5300 C   0  0  0  0  0  0  0  0  0  0  0  0
   10.5840   -0.9950    1.4650 C   0  0  0  0  0  0  0  0  0  0  0  0
    8.1700   -1.0120    0.8920 C   0  0  0  0  0  0  0  0  0  0  0  0
    7.1810   -1.2900    0.0200 C   0  0  0  0  0  0  0  0  0  0  0  0
    5.8200   -1.0340    0.2940 N   0  0  0  0  0  0  0  0  0  0  0  0
    5.3950   -0.4260    1.4910 C   0  0  0  0  0  0  0  0  0  0  0  0
    6.1190   -0.0520    2.4340 O   0  0  0  0  0  0  0  0  0  0  0  0
    3.9370   -0.2010    1.6540 C   0  0  0  0  0  0  0  0  0  0  0  0
    3.4110   -0.0670    2.9400 C   0  0  0  0  0  0  0  0  0  0  0  0
    2.0690    0.1530    3.1460 C   0  0  0  0  0  0  0  0  0  0  0  0
    1.2170    0.2450    2.0650 C   0  0  0  0  0  0  0  0  0  0  0  0
    1.6930    0.1200    0.7970 C   0  0  0  0  0  0  0  0  0  0  0  0
    0.8660    0.2020   -0.3940 C   0  0  0  0  0  0  0  0  0  0  0  0
   -0.5400   -0.1060   -0.2430 N   0  0  0  0  0  0  0  0  0  0  0  0
   -1.1590   -0.0670   -1.5330 C   0  0  1  0  0  0  0  0  0  0  0  0
   -2.1000   -1.2060   -1.7270 C   0  0  0  0  0  0  0  0  0  0  0  0
   -3.1960   -1.2720   -0.7080 C   0  0  0  0  0  0  0  0  0  0  0  0
   -3.1360   -0.5160    0.2790 O   0  0  0  0  0  0  0  0  0  0  0  0
   -4.2850   -2.1520   -0.8220 N   0  0  0  0  0  0  0  0  0  0  0  0
   -5.3580   -2.2990    0.0890 C   0  0  0  0  0  0  0  0  0  0  0  0
   -5.3310   -1.9270    1.4100 C   0  0  0  0  0  0  0  0  0  0  0  0
   -6.4430   -2.0740    2.2520 C   0  0  0  0  0  0  0  0  0  0  0  0
   -6.3380   -1.6640    3.6650 C   0  0  0  0  0  0  0  0  0  0  0  0
   -7.6260   -2.6000    1.7970 C   0  0  0  0  0  0  0  0  0  0  0  0
   -8.7690   -2.7670    2.6180 N   0  0  0  0  0  0  0  0  0  0  0  0
   -7.6660   -2.9810    0.4640 C   0  0  0  0  0  0  0  0  0  0  0  0
   -8.9530   -3.5550   -0.0540 C   0  0  0  0  0  0  0  0  0  0  0  0
   -6.5770   -2.8370   -0.3600 C   0  0  0  0  0  0  0  0  0  0  0  0
   -1.6780    1.2580   -1.9520 C   0  0  0  0  0  0  0  0  0  0  0  0
   -1.6950    1.5420   -3.2120 O   0  0  0  0  0  0  0  0  0  0  0  0
   -2.1530    2.2270   -1.0800 N   0  0  0  0  0  0  0  0  0  0  0  0
   -2.6300    3.5310   -1.3950 C   0  0  0  0  0  0  0  0  0  0  0  0
   -2.3520    4.2210   -2.5530 C   0  0  0  0  0  0  0  0  0  0  0  0
   -2.7420    5.5100   -2.8090 C   0  0  0  0  0  0  0  0  0  0  0  0
   -2.4090    6.2320   -4.0260 C   0  0  0  0  0  0  0  0  0  0  0  0
   -2.1250    6.7980   -4.9970 N   0  0  0  0  0  0  0  0  0  0  0  0
   -3.4700    6.1800   -1.8460 C   0  0  0  0  0  0  0  0  0  0  0  0
   -3.7820    5.5420   -0.6630 C   0  0  0  0  0  0  0  0  0  0  0  0
   -4.5660    6.2830    0.3430 C   0  0  0  0  0  0  0  0  0  0  0  0
   -3.3680    4.2390   -0.4420 C   0  0  0  0  0  0  0  0  0  0  0  0
   -3.7070    3.5290    0.8240 C   0  0  0  0  0  0  0  0  0  0  0  0
    3.0700   -0.1050    0.6010 C   0  0  0  0  0  0  0  0  0  0  0  0
  1  2  1  0
  2  3  1  0
  3  4  2  0
  3 10  1  0
  4  5  1  0
  5  6  1  0
  5  7  2  0
  7  8  1  0
  7  9  1  0
  9 10  2  0
 10 11  1  0
 11 12  1  0
 12 13  2  0
 12 14  1  0
 14 15  2  0
 14 48  1  0
 15 16  1  0
 16 17  2  0
 17 18  1  0
 18 19  1  0
 18 48  2  0
 19 20  1  0
 20 21  1  0
 21 22  1  1
 21 35  1  0
 22 23  1  0
 23 24  2  0
 23 25  1  0
 25 26  1  0
 26 27  2  0
 26 34  1  0
 27 28  1  0
 28 29  1  0
 28 30  2  0
 30 31  1  0
 30 32  1  0
 32 33  1  0
 32 34  2  0
 35 36  2  0
 35 37  1  0
 37 38  1  0
 38 39  2  0
 38 46  1  0
 39 40  1  0
 40 41  1  0
 40 43  2  0
 41 42  3  0
 43 44  1  0
 44 45  1  0
 44 46  2  0
 46 47  1  0
M  CHG  1  20   1
M  END
