
     RDKit          3D

 48 53  0  0  0  0  0  0  0  0999 V2000
    1.3440   -3.7230   -1.5990 C   0  0  0  0  0  0  0  0  0  0  0  0
    1.8420   -2.6310   -0.5760 C   0  0  2  0  0  0  0  0  0  0  0  0
    2.6750   -3.6300    0.3490 C   0  0  0  0  0  0  0  0  0  0  0  0
    0.6810   -2.3080    0.1810 C   0  0  0  0  0  0  0  0  0  0  0  0
    0.1540   -3.5000    0.5830 O   0  0  0  0  0  0  0  0  0  0  0  0
   -0.0820   -1.2290    0.6370 N   0  0  0  0  0  0  0  0  0  0  0  0
   -0.9200   -1.4600    1.7930 C   0  0  0  0  0  0  0  0  0  0  0  0
   -0.3530   -1.3470    3.1190 C   0  0  0  0  0  0  0  0  0  0  0  0
    0.5920   -2.1960    3.6810 C   0  0  0  0  0  0  0  0  0  0  0  0
    1.0600   -1.9770    4.9630 C   0  0  0  0  0  0  0  0  0  0  0  0
    0.6450   -0.9420    5.7570 C   0  0  0  0  0  0  0  0  0  0  0  0
   -0.2960   -0.0880    5.2110 C   0  0  0  0  0  0  0  0  0  0  0  0
   -0.7670   -0.2960    3.9430 C   0  0  0  0  0  0  0  0  0  0  0  0
   -0.2200    0.0940    0.0190 C   0  0  1  0  0  0  0  0  0  0  0  0
    0.4190    0.1250   -1.2130 O   0  0  0  0  0  0  0  0  0  0  0  0
   -1.6900    0.2050   -0.4100 C   0  0  0  0  0  0  0  0  0  0  0  0
   -2.5750    1.1030    0.0220 C   0  0  0  0  0  0  0  0  0  0  0  0
   -3.8880    1.0560   -0.4680 C   0  0  0  0  0  0  0  0  0  0  0  0
   -4.2910    0.1170   -1.3770 C   0  0  0  0  0  0  0  0  0  0  0  0
   -3.3720   -0.7980   -1.8120 C   0  0  0  0  0  0  0  0  0  0  0  0
   -2.0750   -0.7590   -1.3310 C   0  0  0  0  0  0  0  0  0  0  0  0
   -3.7330   -1.8390   -2.7940 C   0  0  0  0  0  0  0  0  0  0  0  0
   -5.1300   -2.1280   -2.6780 N   0  0  0  0  0  0  0  0  0  0  0  0
   -5.9240   -0.9300   -2.9160 C   0  0  0  0  0  0  0  0  0  0  0  0
   -5.6830    0.1240   -1.8540 C   0  0  0  0  0  0  0  0  0  0  0  0
    0.0950    1.2730    0.7720 C   0  0  2  0  0  0  0  0  0  0  0  0
   -0.2360    2.4860   -0.0610 C   0  0  0  0  0  0  0  0  0  0  0  0
   -0.5740    2.6240   -1.3650 C   0  0  0  0  0  0  0  0  0  0  0  0
   -0.7700    3.9910   -1.6160 C   0  0  0  0  0  0  0  0  0  0  0  0
   -0.5450    4.6540   -0.4510 C   0  0  0  0  0  0  0  0  0  0  0  0
   -0.2260    3.7310    0.4710 N   0  0  0  0  0  0  0  0  0  0  0  0
    1.3420    1.4520    1.5300 C   0  0  0  0  0  0  0  0  0  0  0  0
    1.8310    0.5160    2.2130 O   0  0  0  0  0  0  0  0  0  0  0  0
    2.1800    2.6880    1.6210 C   0  0  0  0  0  0  0  0  0  0  0  0
    2.3890    3.2200    2.9090 C   0  0  0  0  0  0  0  0  0  0  0  0
    3.0560    4.3490    3.1640 N   0  0  0  0  0  0  0  0  0  0  0  0
    3.5570    5.0170    2.1150 C   0  0  0  0  0  0  0  0  0  0  0  0
    3.3950    4.5550    0.8380 C   0  0  0  0  0  0  0  0  0  0  0  0
    2.6980    3.3640    0.5470 C   0  0  0  0  0  0  0  0  0  0  0  0
    2.6510    2.9220   -0.8610 C   0  0  0  0  0  0  0  0  0  0  0  0
    3.0810    1.8380   -1.4520 C   0  0  0  0  0  0  0  0  0  0  0  0
    3.7580    0.6420   -1.0130 C   0  0  0  0  0  0  0  0  0  0  0  0
    5.0990    0.7990   -1.0870 O   0  0  0  0  0  0  0  0  0  0  0  0
    3.3390   -0.6230   -0.5350 N   0  0  0  0  0  0  0  0  0  0  0  0
    2.8700   -1.8020   -1.1620 C   0  0  2  0  0  0  0  0  0  0  0  0
    2.6970   -1.6750   -2.6400 C   0  0  0  0  0  0  0  0  0  0  0  0
    2.7020   -2.7880   -3.5320 N   0  0  0  0  0  0  0  0  0  0  0  0
    2.5380   -0.5760   -3.2400 O   0  0  0  0  0  0  0  0  0  0  0  0
  2  1  1  6
  2  3  1  0
  2  4  1  0
  2 45  1  0
  4  5  2  0
  4  6  1  0
  6  7  1  0
  6 14  1  0
  7  8  1  0
  8  9  2  0
  8 13  1  0
  9 10  1  0
 10 11  2  0
 11 12  1  0
 12 13  2  0
 14 15  1  6
 14 16  1  0
 14 26  1  0
 16 17  2  0
 16 21  1  0
 17 18  1  0
 18 19  2  0
 19 20  1  0
 19 25  1  0
 20 21  2  0
 20 22  1  0
 22 23  1  0
 23 24  1  0
 24 25  1  0
 26 27  1  6
 26 32  1  0
 27 28  2  0
 27 31  1  0
 28 29  1  0
 29 30  2  0
 30 31  1  0
 32 33  2  0
 32 34  1  0
 34 35  2  0
 34 39  1  0
 35 36  1  0
 36 37  2  0
 37 38  1  0
 38 39  2  0
 39 40  1  0
 40 41  2  0
 41 42  1  0
 42 43  2  0
 42 44  1  0
 44 45  1  0
 45 46  1  6
 46 47  1  0
 46 48  2  0
M  CHG  1  23   1
M  END
