
     RDKit          3D

 48 52  0  0  0  0  0  0  0  0999 V2000
   -4.5920    8.7150   -3.6030 C   0  0  0  0  0  0  0  0  0  0  0  0
   -4.2990    7.5410   -3.7360 C   0  0  0  0  0  0  0  0  0  0  0  0
   -3.9620    6.1560   -3.8910 C   0  0  0  0  0  0  0  0  0  0  0  0
   -3.0200    5.8010   -4.8570 C   0  0  0  0  0  0  0  0  0  0  0  0
   -2.6910    4.4760   -5.0530 C   0  0  0  0  0  0  0  0  0  0  0  0
   -3.2630    3.4650   -4.3210 C   0  0  0  0  0  0  0  0  0  0  0  0
   -2.9270    2.0650   -4.5850 C   0  0  0  0  0  0  0  0  0  0  0  0
   -2.1610    1.4100   -3.5550 N   0  0  0  0  0  0  0  0  0  0  0  0
   -0.7600    1.4150   -3.4060 C   0  0  0  0  0  0  0  0  0  0  0  0
    0.0040    2.2390   -3.9790 O   0  0  0  0  0  0  0  0  0  0  0  0
   -0.3620    0.3160   -2.4880 C   0  0  1  0  0  0  0  0  0  0  0  0
   -0.0550   -0.9530   -3.2620 C   0  0  0  0  0  0  0  0  0  0  0  0
    0.6530    0.6570   -1.5570 N   0  0  0  0  0  0  0  0  0  0  0  0
    1.3540   -0.2930   -0.7570 C   0  0  0  0  0  0  0  0  0  0  0  0
    1.1190   -1.4950   -0.8660 O   0  0  0  0  0  0  0  0  0  0  0  0
    2.3420    0.0970    0.1890 N   0  0  0  0  0  0  0  0  0  0  0  0
    3.0100   -0.9190    1.0000 C   0  0  2  0  0  0  0  0  0  0  0  0
    2.9750   -0.5200    2.4500 C   0  0  0  0  0  0  0  0  0  0  0  0
    4.3730   -1.1800    0.5090 C   0  0  0  0  0  0  0  0  0  0  0  0
    4.5790   -1.3980   -0.8290 C   0  0  0  0  0  0  0  0  0  0  0  0
    5.8450   -1.6310   -1.3260 C   0  0  0  0  0  0  0  0  0  0  0  0
    6.9140   -1.6470   -0.4820 C   0  0  0  0  0  0  0  0  0  0  0  0
    6.7570   -1.4330    0.8720 C   0  0  0  0  0  0  0  0  0  0  0  0
    7.9080   -1.4240    1.7700 C   0  0  0  0  0  0  0  0  0  0  0  0
    7.8040   -1.2480    3.0730 C   0  0  0  0  0  0  0  0  0  0  0  0
    8.9530   -1.2370    3.9620 C   0  0  0  0  0  0  0  0  0  0  0  0
    8.7990   -1.0700    5.1970 O   0  0  0  0  0  0  0  0  0  0  0  0
   10.2550   -1.4060    3.5230 O   0  0  0  0  0  0  0  0  0  0  0  0
   11.3860   -1.4050    4.3550 C   0  0  0  0  0  0  0  0  0  0  0  0
    5.4800   -1.2020    1.3430 C   0  0  0  0  0  0  0  0  0  0  0  0
   -1.6480    0.0610   -1.7710 C   0  0  0  0  0  0  0  0  0  0  0  0
   -1.8900   -0.6840   -0.6410 C   0  0  0  0  0  0  0  0  0  0  0  0
   -3.2080   -0.9480   -0.2320 C   0  0  0  0  0  0  0  0  0  0  0  0
   -3.3940   -1.7740    0.9630 C   0  0  0  0  0  0  0  0  0  0  0  0
   -2.6750   -1.6440    1.9720 O   0  0  0  0  0  0  0  0  0  0  0  0
   -4.4190   -2.7460    0.9610 N   0  0  0  0  0  0  0  0  0  0  0  0
   -4.6820   -3.6200    2.0790 C   0  0  0  0  0  0  0  0  0  0  0  0
   -5.4160   -2.9840    3.1790 C   0  0  0  0  0  0  0  0  0  0  0  0
   -6.6880   -2.5160    2.9600 C   0  0  0  0  0  0  0  0  0  0  0  0
   -7.3420   -1.9350    4.0170 C   0  0  0  0  0  0  0  0  0  0  0  0
   -6.8030   -1.8030    5.2470 N   0  0  0  0  0  0  0  0  0  0  0  0
   -5.5730   -2.2530    5.4680 C   0  0  0  0  0  0  0  0  0  0  0  0
   -4.8710   -2.8460    4.4360 C   0  0  0  0  0  0  0  0  0  0  0  0
   -4.2240   -0.4480   -0.9750 C   0  0  0  0  0  0  0  0  0  0  0  0
   -3.9760    0.3040   -2.1050 C   0  0  0  0  0  0  0  0  0  0  0  0
   -2.6640    0.5690   -2.5140 C   0  0  0  0  0  0  0  0  0  0  0  0
   -4.1930    3.8130   -3.3660 C   0  0  0  0  0  0  0  0  0  0  0  0
   -4.5440    5.1570   -3.1470 C   0  0  0  0  0  0  0  0  0  0  0  0
  1  2  3  0
  2  3  1  0
  3  4  2  0
  3 48  1  0
  4  5  1  0
  5  6  2  0
  6  7  1  0
  6 47  1  0
  7  8  1  0
  8  9  1  0
  8 46  1  0
  9 10  2  0
  9 11  1  0
 11 12  1  6
 11 13  1  0
 11 31  1  0
 13 14  1  0
 14 15  2  0
 14 16  1  0
 16 17  1  0
 17 18  1  1
 17 19  1  0
 19 20  2  0
 19 30  1  0
 20 21  1  0
 21 22  2  0
 22 23  1  0
 23 24  1  0
 23 30  2  0
 24 25  2  3
 25 26  1  0
 26 27  2  0
 26 28  1  0
 28 29  1  0
 31 32  2  0
 31 46  1  0
 32 33  1  0
 33 34  1  0
 33 44  2  0
 34 35  2  0
 34 36  1  0
 36 37  1  0
 37 38  1  0
 38 39  2  0
 38 43  1  0
 39 40  1  0
 40 41  2  0
 41 42  1  0
 42 43  2  0
 44 45  1  0
 45 46  2  0
 47 48  2  0
M  CHG  1  41   1
M  END
