
     RDKit          3D

 48 53  0  0  0  0  0  0  0  0999 V2000
   -9.2600   -2.8910    1.5320 C   0  0  0  0  0  0  0  0  0  0  0  0
   -9.5260   -3.7570    0.3220 C   0  0  0  0  0  0  0  0  0  0  0  0
   -9.7290   -2.9230   -0.9250 C   0  0  0  0  0  0  0  0  0  0  0  0
   -8.5750   -2.1250   -1.2200 N   0  0  0  0  0  0  0  0  0  0  0  0
   -8.8160   -0.7280   -0.9950 C   0  0  2  0  0  0  0  0  0  0  0  0
   -9.4310   -0.0130   -2.1710 C   0  0  0  0  0  0  0  0  0  0  0  0
   -9.6480    1.3130   -1.8130 O   0  0  0  0  0  0  0  0  0  0  0  0
   -8.4500    1.9920   -1.6220 C   0  0  0  0  0  0  0  0  0  0  0  0
   -7.6870    1.4170   -0.4470 C   0  0  0  0  0  0  0  0  0  0  0  0
   -7.5050   -0.0800   -0.5930 C   0  0  2  0  0  0  0  0  0  0  0  0
   -6.4950   -0.4100   -1.6710 C   0  0  0  0  0  0  0  0  0  0  0  0
   -5.1930    0.1810   -1.3630 N   0  0  0  0  0  0  0  0  0  0  0  0
   -4.4560   -0.1420   -0.1960 C   0  0  0  0  0  0  0  0  0  0  0  0
   -4.9180   -0.9780    0.6270 O   0  0  0  0  0  0  0  0  0  0  0  0
   -3.1680    0.4860    0.0570 C   0  0  0  0  0  0  0  0  0  0  0  0
   -2.3240   -0.0820    0.9830 C   0  0  0  0  0  0  0  0  0  0  0  0
   -1.1040    0.4830    1.2580 C   0  0  0  0  0  0  0  0  0  0  0  0
   -0.6470    1.6510    0.6270 C   0  0  0  0  0  0  0  0  0  0  0  0
    0.6260    2.1350    0.9660 N   0  0  0  0  0  0  0  0  0  0  0  0
    1.1140    3.4300    0.7160 C   0  0  0  0  0  0  0  0  0  0  0  0
    0.3880    4.2730    0.1480 O   0  0  0  0  0  0  0  0  0  0  0  0
    2.4960    3.8150    1.1240 C   0  0  0  0  0  0  0  0  0  0  0  0
    2.7130    5.1230    1.4840 C   0  0  0  0  0  0  0  0  0  0  0  0
    3.9870    5.4940    1.8600 C   0  0  0  0  0  0  0  0  0  0  0  0
    5.0040    4.5720    1.8710 C   0  0  0  0  0  0  0  0  0  0  0  0
    4.7990    3.2330    1.5060 C   0  0  0  0  0  0  0  0  0  0  0  0
    5.8780    2.3190    1.5490 N   0  0  0  0  0  0  0  0  0  0  0  0
    5.9710    1.0930    0.8610 C   0  0  0  0  0  0  0  0  0  0  0  0
    5.0380    0.7400    0.1100 O   0  0  0  0  0  0  0  0  0  0  0  0
    7.1220    0.2280    1.0000 N   0  0  0  0  0  0  0  0  0  0  0  0
    7.2060   -1.0220    0.2760 C   0  0  2  0  0  0  0  0  0  0  0  0
    7.0910   -2.2210    1.1460 C   0  0  0  0  0  0  0  0  0  0  0  0
    5.9770   -2.3360    1.9690 C   0  0  0  0  0  0  0  0  0  0  0  0
    5.7860   -3.4130    2.7990 C   0  0  0  0  0  0  0  0  0  0  0  0
    6.7350   -4.4390    2.8300 C   0  0  0  0  0  0  0  0  0  0  0  0
    7.8340   -4.3220    2.0160 C   0  0  0  0  0  0  0  0  0  0  0  0
    8.0230   -3.2310    1.1770 C   0  0  0  0  0  0  0  0  0  0  0  0
    9.1530   -3.1320    0.3540 O   0  0  0  0  0  0  0  0  0  0  0  0
    9.3730   -2.0640   -0.4910 C   0  0  0  0  0  0  0  0  0  0  0  0
   10.4890   -1.9660   -1.3030 C   0  0  0  0  0  0  0  0  0  0  0  0
   10.6860   -0.8830   -2.1410 C   0  0  0  0  0  0  0  0  0  0  0  0
    9.7620    0.1500   -2.1950 C   0  0  0  0  0  0  0  0  0  0  0  0
    9.9870    1.3100   -3.0990 C   0  0  0  0  0  0  0  0  0  0  0  0
    8.6510    0.0330   -1.3730 C   0  0  0  0  0  0  0  0  0  0  0  0
    8.4390   -1.0430   -0.5300 C   0  0  0  0  0  0  0  0  0  0  0  0
    3.5140    2.9050    1.1380 C   0  0  0  0  0  0  0  0  0  0  0  0
   -1.4940    2.2010   -0.2880 C   0  0  0  0  0  0  0  0  0  0  0  0
   -2.7490    1.6280   -0.5770 C   0  0  0  0  0  0  0  0  0  0  0  0
  1  2  1  0
  2  3  1  0
  3  4  1  0
  5  4  1  6
  5  6  1  0
  5 10  1  0
  6  7  1  0
  7  8  1  0
  8  9  1  0
  9 10  1  0
 10 11  1  6
 11 12  1  0
 12 13  1  0
 13 14  2  0
 13 15  1  0
 15 16  2  0
 15 48  1  0
 16 17  1  0
 17 18  2  0
 18 19  1  0
 18 47  1  0
 19 20  1  0
 20 21  2  0
 20 22  1  0
 22 23  2  0
 22 46  1  0
 23 24  1  0
 24 25  2  0
 25 26  1  0
 26 27  1  0
 26 46  2  0
 27 28  1  0
 28 29  2  0
 28 30  1  0
 31 30  1  1
 31 32  1  0
 31 45  1  0
 32 33  2  0
 32 37  1  0
 33 34  1  0
 34 35  2  0
 35 36  1  0
 36 37  2  0
 37 38  1  0
 38 39  1  0
 39 40  2  0
 39 45  1  0
 40 41  1  0
 41 42  2  0
 42 43  1  0
 42 44  1  0
 44 45  2  0
 47 48  2  0
M  CHG  1   4   1
M  END
