
     RDKit          3D

 33 36  0  0  0  0  0  0  0  0999 V2000
   -1.3020    1.7360    0.5460 C   0  0  0  0  0  0  0  0  0  0  0  0
   -1.1630    0.3120    0.0800 C   0  0  1  0  0  0  0  0  0  0  0  0
   -2.4950   -0.2150   -0.4000 C   0  0  0  0  0  0  0  0  0  0  0  0
   -3.0380   -1.2240    0.1150 O   0  0  0  0  0  0  0  0  0  0  0  0
   -3.1790    0.4260   -1.4680 N   0  0  0  0  0  0  0  0  0  0  0  0
   -4.4520   -0.0740   -1.9300 C   0  0  0  0  0  0  0  0  0  0  0  0
   -5.4080    0.0210   -0.7940 C   0  0  0  0  0  0  0  0  0  0  0  0
   -5.5070    0.9790    0.1870 C   0  0  0  0  0  0  0  0  0  0  0  0
   -6.5520    0.6310    1.0150 C   0  0  0  0  0  0  0  0  0  0  0  0
   -7.0490   -0.5300    0.5000 C   0  0  0  0  0  0  0  0  0  0  0  0
   -8.1950   -1.2730    1.0780 C   0  0  1  0  0  0  0  0  0  0  0  0
   -7.8610   -1.6030    2.3840 F   0  0  0  0  0  0  0  0  0  0  0  0
   -9.3250   -0.4830    1.0740 F   0  0  0  0  0  0  0  0  0  0  0  0
   -8.4090   -2.4440    0.3710 F   0  0  0  0  0  0  0  0  0  0  0  0
   -6.3620   -0.8760   -0.5680 O   0  0  0  0  0  0  0  0  0  0  0  0
   -0.1790    0.1990   -1.0740 C   0  0  0  0  0  0  0  0  0  0  0  0
    0.2620   -1.2650   -0.8540 C   0  0  1  0  0  0  0  0  0  0  0  0
    1.7150   -1.5330   -1.8390 S   0  0  0  0  0  0  0  0  0  0  0  0
    3.1480   -0.6180   -1.3160 C   0  0  0  0  0  0  0  0  0  0  0  0
    3.3990    0.6760   -1.6900 N   0  0  0  0  0  0  0  0  0  0  0  0
    4.5480    1.0600   -1.1150 C   0  0  0  0  0  0  0  0  0  0  0  0
    5.0630    0.0030   -0.3530 C   0  0  0  0  0  0  0  0  0  0  0  0
    6.3010    0.0320    0.4090 C   0  0  0  0  0  0  0  0  0  0  0  0
    7.3750    0.7130    0.0470 C   0  0  0  0  0  0  0  0  0  0  0  0
    7.6030    1.7310   -1.3880 Cl  0  0  0  0  0  0  0  0  0  0  0  0
    8.4360    0.5110    1.0470 C   0  0  0  0  0  0  0  0  0  0  0  0
    7.8360   -0.3860    2.0410 C   0  0  0  0  0  0  0  0  0  0  0  0
    6.5950   -0.6470    1.6450 C   0  0  0  0  0  0  0  0  0  0  0  0
    5.4880   -1.6880    2.5370 Cl  0  0  0  0  0  0  0  0  0  0  0  0
    4.1560   -0.9700   -0.5290 N   0  0  0  0  0  0  0  0  0  0  0  0
    0.4680   -1.2270    0.6080 C   0  0  0  0  0  0  0  0  0  0  0  0
    1.4030   -1.6710    1.3270 O   0  0  0  0  0  0  0  0  0  0  0  0
   -0.6710   -0.5460    1.0910 O   0  0  0  0  0  0  0  0  0  0  0  0
  2  1  1  1
  2  3  1  0
  2 16  1  0
  2 33  1  0
  3  4  2  0
  3  5  1  0
  5  6  1  0
  6  7  1  0
  7  8  2  0
  7 15  1  0
  8  9  1  0
  9 10  2  0
 10 11  1  0
 10 15  1  0
 11 12  1  1
 11 13  1  0
 11 14  1  0
 16 17  1  0
 17 18  1  6
 17 31  1  0
 18 19  1  0
 19 20  2  0
 19 30  1  0
 20 21  1  0
 21 22  2  0
 22 23  1  0
 22 30  1  0
 23 24  2  0
 23 28  1  0
 24 25  1  0
 24 26  1  0
 26 27  1  0
 27 28  2  0
 28 29  1  0
 31 32  2  0
 31 33  1  0
M  END
