
     RDKit          3D

 42 44  0  0  0  0  0  0  0  0999 V2000
    8.6970   -2.6250   -1.1760 C   0  0  0  0  0  0  0  0  0  0  0  0
    8.4620   -1.5960   -0.2360 O   0  0  0  0  0  0  0  0  0  0  0  0
    7.4170   -0.7030   -0.4260 C   0  0  0  0  0  0  0  0  0  0  0  0
    6.5770   -0.7620   -1.5020 C   0  0  0  0  0  0  0  0  0  0  0  0
    5.5210    0.1430   -1.6850 C   0  0  0  0  0  0  0  0  0  0  0  0
    4.7010    0.0360   -2.9190 C   0  0  0  0  0  0  0  0  0  0  0  0
    5.3400    1.1200   -0.7320 C   0  0  0  0  0  0  0  0  0  0  0  0
    4.0040    2.2020   -0.8330 S   0  0  2  0  0  0  0  0  0  0  0  0
    3.3910    2.1140   -2.1980 O   0  0  0  0  0  0  0  0  0  0  0  0
    4.5400    3.6140   -0.7180 O   0  0  0  0  0  0  0  0  0  0  0  0
    2.7690    1.9230    0.3090 N   0  0  0  0  0  0  0  0  0  0  0  0
    2.1970    0.5870    0.1590 C   0  0  1  0  0  0  0  0  0  0  0  0
    2.4400   -0.1670    1.4260 C   0  0  0  0  0  0  0  0  0  0  0  0
    2.0200   -1.5780    1.3700 C   0  0  0  0  0  0  0  0  0  0  0  0
    1.7460   -2.1460    0.2630 O   0  0  0  0  0  0  0  0  0  0  0  0
    1.9000   -2.3470    2.5130 O   0  0  0  0  0  0  0  0  0  0  0  0
    0.7520    0.7110   -0.2050 C   0  0  0  0  0  0  0  0  0  0  0  0
    0.5170    1.5530   -1.1500 O   0  0  0  0  0  0  0  0  0  0  0  0
   -0.2730    0.0160    0.3840 N   0  0  0  0  0  0  0  0  0  0  0  0
   -1.7400    0.1580   -0.0430 C   0  0  2  0  0  0  0  0  0  0  0  0
   -2.3230    0.7320    1.1930 C   0  0  0  0  0  0  0  0  0  0  0  0
   -3.7420    1.0750    1.2600 C   0  0  0  0  0  0  0  0  0  0  0  0
   -4.7270    0.2680    1.7910 C   0  0  0  0  0  0  0  0  0  0  0  0
   -6.0610    0.6670    1.8590 C   0  0  0  0  0  0  0  0  0  0  0  0
   -6.4810    1.8860    1.4010 C   0  0  0  0  0  0  0  0  0  0  0  0
   -7.8540    2.3610    1.4380 C   0  0  0  0  0  0  0  0  0  0  0  0
   -8.1850    3.6610    0.8910 N   0  0  0  0  0  0  0  0  0  0  0  0
   -8.8080    1.6900    1.9230 N   0  0  0  0  0  0  0  0  0  0  0  0
   -5.4870    2.7220    0.8520 C   0  0  0  0  0  0  0  0  0  0  0  0
   -4.1760    2.3290    0.7890 C   0  0  0  0  0  0  0  0  0  0  0  0
   -2.1570   -1.2060   -0.4140 C   0  0  0  0  0  0  0  0  0  0  0  0
   -1.3580   -2.1910   -0.0550 O   0  0  0  0  0  0  0  0  0  0  0  0
   -3.2900   -1.6520   -1.1150 N   0  0  0  0  0  0  0  0  0  0  0  0
   -3.3640   -3.1190   -1.3120 C   0  0  0  0  0  0  0  0  0  0  0  0
   -4.6460   -3.4570   -2.0220 C   0  0  0  0  0  0  0  0  0  0  0  0
   -5.8360   -2.8850   -1.2720 C   0  0  0  0  0  0  0  0  0  0  0  0
   -5.7300   -1.3950   -1.3140 C   0  0  0  0  0  0  0  0  0  0  0  0
   -4.3650   -0.9070   -1.6950 C   0  0  0  0  0  0  0  0  0  0  0  0
    6.1700    1.2200    0.3770 C   0  0  0  0  0  0  0  0  0  0  0  0
    5.9120    2.2820    1.3590 C   0  0  0  0  0  0  0  0  0  0  0  0
    7.1890    0.3130    0.5090 C   0  0  0  0  0  0  0  0  0  0  0  0
    8.1190    0.3770    1.6700 C   0  0  0  0  0  0  0  0  0  0  0  0
  1  2  1  0
  2  3  1  0
  3  4  2  0
  3 41  1  0
  4  5  1  0
  5  6  1  0
  5  7  2  0
  7  8  1  0
  7 39  1  0
  8  9  2  0
  8 10  2  0
  8 11  1  1
 11 12  1  0
 12 13  1  1
 12 17  1  0
 13 14  1  0
 14 15  2  0
 14 16  1  0
 17 18  2  0
 17 19  1  0
 19 20  1  0
 20 21  1  1
 20 31  1  0
 21 22  1  0
 22 23  2  0
 22 30  1  0
 23 24  1  0
 24 25  2  0
 25 26  1  0
 25 29  1  0
 26 27  1  0
 26 28  2  0
 29 30  2  0
 31 32  2  0
 31 33  1  0
 33 34  1  0
 33 38  1  0
 34 35  1  0
 35 36  1  0
 36 37  1  0
 37 38  1  0
 39 40  1  0
 39 41  2  0
 41 42  1  0
M  CHG  1  28   1
M  END
