
     RDKit          3D

 42 46  0  0  0  0  0  0  0  0999 V2000
   -8.1430   -1.7040    1.3890 C   0  0  0  0  0  0  0  0  0  0  0  0
   -7.1290   -1.1690    0.6200 O   0  0  0  0  0  0  0  0  0  0  0  0
   -6.5580   -2.0700   -0.2350 C   0  0  0  0  0  0  0  0  0  0  0  0
   -5.4400   -1.5320   -1.0690 C   0  0  0  0  0  0  0  0  0  0  0  0
   -4.3220   -1.0270   -0.1350 C   0  0  1  0  0  0  0  0  0  0  0  0
   -4.8620   -0.0250    0.6370 O   0  0  0  0  0  0  0  0  0  0  0  0
   -3.9800   -2.2170    0.7170 C   0  0  0  0  0  0  0  0  0  0  0  0
   -3.4230   -3.3540    0.1330 C   0  0  0  0  0  0  0  0  0  0  0  0
   -3.2220   -4.2640    1.1440 C   0  0  0  0  0  0  0  0  0  0  0  0
   -3.6610   -3.6500    2.2880 C   0  0  0  0  0  0  0  0  0  0  0  0
   -4.1000   -2.4360    1.9770 O   0  0  0  0  0  0  0  0  0  0  0  0
   -3.1260   -0.6240   -0.9680 C   0  0  1  0  0  0  0  0  0  0  0  0
   -3.5160    0.4350   -1.9000 C   0  0  0  0  0  0  0  0  0  0  0  0
   -3.5110    0.1720   -3.1570 O   0  0  0  0  0  0  0  0  0  0  0  0
   -3.9000    1.7370   -1.4760 N   0  0  0  0  0  0  0  0  0  0  0  0
   -4.2650    2.6920   -2.4990 C   0  0  0  0  0  0  0  0  0  0  0  0
   -4.6550    3.9930   -1.8690 C   0  0  0  0  0  0  0  0  0  0  0  0
   -5.8470    3.9580   -0.9790 C   0  0  0  0  0  0  0  0  0  0  0  0
   -5.7700    3.1340    0.1170 O   0  0  0  0  0  0  0  0  0  0  0  0
   -1.9110   -0.4010   -0.1830 C   0  0  0  0  0  0  0  0  0  0  0  0
   -1.8890    0.4700    0.8720 C   0  0  0  0  0  0  0  0  0  0  0  0
   -0.7210    0.6370    1.5570 C   0  0  0  0  0  0  0  0  0  0  0  0
    0.4860   -0.0150    1.2790 C   0  0  0  0  0  0  0  0  0  0  0  0
    1.6910    0.2820    2.0960 C   0  0  0  0  0  0  0  0  0  0  0  0
    2.6460    1.0500    1.3200 C   0  0  0  0  0  0  0  0  0  0  0  0
    2.4740    2.4460    1.2830 C   0  0  0  0  0  0  0  0  0  0  0  0
    3.2730    3.2600    0.5100 C   0  0  0  0  0  0  0  0  0  0  0  0
    4.3010    2.7270   -0.2760 C   0  0  0  0  0  0  0  0  0  0  0  0
    4.4630    1.3700   -0.2330 C   0  0  0  0  0  0  0  0  0  0  0  0
    3.6530    0.5670    0.5470 C   0  0  0  0  0  0  0  0  0  0  0  0
    3.9910   -0.8530    0.5380 C   0  0  0  0  0  0  0  0  0  0  0  0
    5.4460   -1.0100    0.9300 C   0  0  0  0  0  0  0  0  0  0  0  0
    6.2620   -0.1270    0.0320 C   0  0  0  0  0  0  0  0  0  0  0  0
    7.5590   -0.0970    0.2250 C   0  0  0  0  0  0  0  0  0  0  0  0
    8.5090    0.6930   -0.5430 C   0  0  0  0  0  0  0  0  0  0  0  0
    9.7980    0.3850   -0.5270 C   0  0  0  0  0  0  0  0  0  0  0  0
   10.2340   -0.7190    0.2460 N   0  0  0  0  0  0  0  0  0  0  0  0
    9.2760   -1.7310    0.7160 C   0  0  0  0  0  0  0  0  0  0  0  0
    8.1380   -0.9120    1.3250 C   0  0  0  0  0  0  0  0  0  0  0  0
    5.5530    0.6880   -1.0280 C   0  0  0  0  0  0  0  0  0  0  0  0
    0.4390   -0.8790    0.2250 C   0  0  0  0  0  0  0  0  0  0  0  0
   -0.7440   -1.0740   -0.5030 C   0  0  0  0  0  0  0  0  0  0  0  0
  1  2  1  0
  2  3  1  0
  3  4  1  0
  4  5  1  0
  5  6  1  1
  5  7  1  0
  5 12  1  0
  7  8  2  0
  7 11  1  0
  8  9  1  0
  9 10  2  0
 10 11  1  0
 12 13  1  1
 12 20  1  0
 13 14  2  0
 13 15  1  0
 15 16  1  0
 16 17  1  0
 17 18  1  0
 18 19  1  0
 20 21  2  0
 20 42  1  0
 21 22  1  0
 22 23  2  0
 23 24  1  0
 23 41  1  0
 24 25  1  0
 25 26  2  0
 25 30  1  0
 26 27  1  0
 27 28  2  0
 28 29  1  0
 29 30  2  0
 29 40  1  0
 30 31  1  0
 31 32  1  0
 32 33  1  0
 33 34  2  3
 33 40  1  0
 34 35  1  0
 34 39  1  0
 35 36  2  0
 36 37  1  0
 37 38  1  0
 38 39  1  0
 41 42  2  0
M  END
