
     RDKit          3D

 33 36  0  0  0  0  0  0  0  0999 V2000
   -2.8620   -0.2100    2.0450 C   0  0  0  0  0  0  0  0  0  0  0  0
   -2.4790   -1.2110    0.9440 C   0  0  2  0  0  0  0  0  0  0  0  0
   -1.5140   -2.2580    1.4640 C   0  0  0  0  0  0  0  0  0  0  0  0
   -0.7770   -2.1680    0.1670 C   0  0  0  0  0  0  0  0  0  0  0  0
   -1.3800   -0.7100    0.0480 C   0  0  1  0  0  0  0  0  0  0  0  0
   -1.6690   -0.4090   -1.2970 N   0  0  0  0  0  0  0  0  0  0  0  0
   -2.7820   -1.2350   -1.8810 C   0  0  0  0  0  0  0  0  0  0  0  0
   -4.0850   -0.5460   -1.7310 C   0  0  0  0  0  0  0  0  0  0  0  0
   -5.3130   -1.0460   -2.1060 C   0  0  0  0  0  0  0  0  0  0  0  0
   -5.5940   -2.6100   -2.7970 Cl  0  0  0  0  0  0  0  0  0  0  0  0
   -6.2580   -0.0940   -1.8360 C   0  0  0  0  0  0  0  0  0  0  0  0
   -5.6430    0.9390   -1.3210 O   0  0  0  0  0  0  0  0  0  0  0  0
   -4.3370    0.7120   -1.2410 C   0  0  0  0  0  0  0  0  0  0  0  0
   -3.1910    1.8900   -0.6000 Cl  0  0  0  0  0  0  0  0  0  0  0  0
   -1.1170    0.4890   -2.1760 C   0  0  0  0  0  0  0  0  0  0  0  0
   -1.8170    0.5660   -3.3210 O   0  0  0  0  0  0  0  0  0  0  0  0
    0.0620    1.3820   -2.1490 C   0  0  0  0  0  0  0  0  0  0  0  0
    0.2240    2.2040   -3.2140 C   0  0  0  0  0  0  0  0  0  0  0  0
    1.6800    3.1830   -2.9890 S   0  0  0  0  0  0  0  0  0  0  0  0
    2.2000    2.4120   -1.4700 C   0  0  0  0  0  0  0  0  0  0  0  0
    3.2690    2.6430   -0.8020 N   0  0  0  0  0  0  0  0  0  0  0  0
    3.6290    2.0200    0.3700 N   0  0  0  0  0  0  0  0  0  0  0  0
    5.0170    1.8070    0.6090 C   0  0  0  0  0  0  0  0  0  0  0  0
    5.8240    2.2310   -0.3000 O   0  0  0  0  0  0  0  0  0  0  0  0
    5.5900    1.1680    1.7750 C   0  0  1  0  0  0  0  0  0  0  0  0
    4.9230    0.8930    3.0510 C   0  0  0  0  0  0  0  0  0  0  0  0
    5.2710   -0.2470    2.1240 C   0  0  1  0  0  0  0  0  0  0  0  0
    4.1310   -1.0520    1.6540 C   0  0  1  0  0  0  0  0  0  0  0  0
    2.8790   -0.6160    1.9760 F   0  0  0  0  0  0  0  0  0  0  0  0
    4.1940   -1.2550    0.2600 F   0  0  0  0  0  0  0  0  0  0  0  0
    4.2410   -2.3370    2.2110 F   0  0  0  0  0  0  0  0  0  0  0  0
    1.1020    1.4630   -1.1930 C   0  0  0  0  0  0  0  0  0  0  0  0
    1.2000    0.7960   -0.1070 O   0  0  0  0  0  0  0  0  0  0  0  0
  2  1  1  1
  2  3  1  0
  2  5  1  0
  3  4  1  0
  4  5  1  0
  5  6  1  6
  6  7  1  0
  6 15  1  0
  7  8  1  0
  8  9  1  0
  8 13  2  0
  9 10  1  0
  9 11  2  0
 11 12  1  0
 12 13  1  0
 13 14  1  0
 15 16  2  0
 15 17  1  0
 17 18  2  0
 17 32  1  0
 18 19  1  0
 19 20  1  0
 20 21  2  3
 20 32  1  0
 21 22  1  0
 22 23  1  0
 23 24  2  0
 25 23  1  6
 25 26  1  0
 25 27  1  0
 27 26  1  1
 27 28  1  0
 28 29  1  6
 28 30  1  0
 28 31  1  0
 32 33  2  0
M  END
