
     RDKit          3D

 33 36  0  0  0  0  0  0  0  0999 V2000
   -3.9770   -1.1960    2.4220 O   0  0  0  0  0  0  0  0  0  0  0  0
   -3.5070   -1.3680    1.2740 C   0  0  0  0  0  0  0  0  0  0  0  0
   -3.1640   -2.7530    0.8430 C   0  0  0  0  0  0  0  0  0  0  0  0
   -2.1140   -2.7710   -0.0640 O   0  0  0  0  0  0  0  0  0  0  0  0
   -2.2980   -1.8910   -1.1320 C   0  0  0  0  0  0  0  0  0  0  0  0
   -2.2410   -0.4580   -0.6290 C   0  0  2  0  0  0  0  0  0  0  0  0
   -2.5450    0.4750   -1.7360 C   0  0  0  0  0  0  0  0  0  0  0  0
   -1.6210    0.4080   -2.7400 O   0  0  0  0  0  0  0  0  0  0  0  0
   -0.8840   -0.2840   -0.0050 C   0  0  0  0  0  0  0  0  0  0  0  0
   -0.8950   -0.0140    1.1870 O   0  0  0  0  0  0  0  0  0  0  0  0
    0.2940   -0.4150   -0.6970 N   0  0  0  0  0  0  0  0  0  0  0  0
    1.6640   -0.3210   -0.4560 C   0  0  0  0  0  0  0  0  0  0  0  0
    2.8010   -0.6660   -1.8410 S   0  0  0  0  0  0  0  0  0  0  0  0
    4.2870   -0.4100   -0.9730 C   0  0  0  0  0  0  0  0  0  0  0  0
    3.8810   -0.1010    0.2380 C   0  0  0  0  0  0  0  0  0  0  0  0
    2.5450   -0.0420    0.5430 C   0  0  0  0  0  0  0  0  0  0  0  0
    2.0450    0.3810    1.9280 C   0  0  1  0  0  0  0  0  0  0  0  0
    1.2810   -0.5420    2.5180 F   0  0  0  0  0  0  0  0  0  0  0  0
    3.1350    0.5910    2.7900 F   0  0  0  0  0  0  0  0  0  0  0  0
    1.2590    1.9720    1.8600 Cl  0  0  0  0  0  0  0  0  0  0  0  0
    4.9960    0.1310    1.2670 C   0  0  0  0  0  0  0  0  0  0  0  0
    6.2960   -0.3810    0.7320 C   0  0  0  0  0  0  0  0  0  0  0  0
    6.5370    0.2870   -0.6170 C   0  0  2  0  0  0  0  0  0  0  0  0
    5.8050    1.9200   -0.5010 Cl  0  0  0  0  0  0  0  0  0  0  0  0
    5.6570   -0.5120   -1.5570 C   0  0  0  0  0  0  0  0  0  0  0  0
   -3.2880   -0.3040    0.3670 N   0  0  0  0  0  0  0  0  0  0  0  0
   -4.0770    0.8520    0.4320 C   0  0  0  0  0  0  0  0  0  0  0  0
   -3.6010    2.0020    1.0070 C   0  0  0  0  0  0  0  0  0  0  0  0
   -4.3720    3.1650    1.0760 C   0  0  0  0  0  0  0  0  0  0  0  0
   -5.6000    3.1810    0.5790 N   0  0  0  0  0  0  0  0  0  0  0  0
   -6.1290    2.0950    0.0040 C   0  0  0  0  0  0  0  0  0  0  0  0
   -7.3720    2.1570   -0.4820 F   0  0  0  0  0  0  0  0  0  0  0  0
   -5.3800    0.9170   -0.0790 C   0  0  0  0  0  0  0  0  0  0  0  0
  1  2  2  0
  2  3  1  0
  2 26  1  0
  3  4  1  0
  4  5  1  0
  5  6  1  0
  6  7  1  6
  6  9  1  0
  6 26  1  0
  7  8  1  0
  9 10  2  0
  9 11  1  0
 11 12  1  0
 12 13  1  0
 12 16  2  0
 13 14  1  0
 14 15  2  0
 14 25  1  0
 15 16  1  0
 15 21  1  0
 16 17  1  0
 17 18  1  1
 17 19  1  0
 17 20  1  0
 21 22  1  0
 22 23  1  0
 23 24  1  1
 23 25  1  0
 26 27  1  0
 27 28  2  0
 27 33  1  0
 28 29  1  0
 29 30  2  0
 30 31  1  0
 31 32  1  0
 31 33  2  0
M  END
