
     RDKit          3D

 42 46  0  0  0  0  0  0  0  0999 V2000
   -8.2400    3.9430   -1.5580 C   0  0  0  0  0  0  0  0  0  0  0  0
   -7.4350    3.1200   -0.5420 C   0  0  1  0  0  0  0  0  0  0  0  0
   -8.2670    2.9970    0.6770 C   0  0  0  0  0  0  0  0  0  0  0  0
   -8.1200    1.7700    1.4910 C   0  0  1  0  0  0  0  0  0  0  0  0
   -9.3780    0.9100    1.5720 C   0  0  0  0  0  0  0  0  0  0  0  0
   -6.9070    0.9760    1.1490 C   0  0  0  0  0  0  0  0  0  0  0  0
   -6.6400    0.7520   -0.2940 C   0  0  1  0  0  0  0  0  0  0  0  0
   -7.0650    1.8500   -1.2060 C   0  0  0  0  0  0  0  0  0  0  0  0
   -5.1410    0.4740   -0.4150 C   0  0  0  0  0  0  0  0  0  0  0  0
   -4.7900   -0.9370    0.0470 C   0  0  2  0  0  0  0  0  0  0  0  0
   -3.3930   -1.1330   -0.2380 N   0  0  0  0  0  0  0  0  0  0  0  0
   -2.5770   -2.2140    0.1480 C   0  0  0  0  0  0  0  0  0  0  0  0
   -3.1030   -3.3950    0.5880 C   0  0  0  0  0  0  0  0  0  0  0  0
   -2.2040   -4.3880    0.9900 C   0  0  0  0  0  0  0  0  0  0  0  0
   -0.8470   -4.1990    0.9490 C   0  0  0  0  0  0  0  0  0  0  0  0
   -0.2950   -3.0070    0.5060 C   0  0  0  0  0  0  0  0  0  0  0  0
    1.1850   -2.8490    0.5000 C   0  0  0  0  0  0  0  0  0  0  0  0
    1.7650   -1.7630    0.1020 C   0  0  0  0  0  0  0  0  0  0  0  0
    3.1210   -1.3550   -0.0070 C   0  0  0  0  0  0  0  0  0  0  0  0
    3.2850   -0.1110   -0.4610 O   0  0  0  0  0  0  0  0  0  0  0  0
    4.3860   -1.9800    0.2630 C   0  0  0  0  0  0  0  0  0  0  0  0
    4.5000   -3.2900    0.6500 C   0  0  0  0  0  0  0  0  0  0  0  0
    5.7770   -3.8130    0.9190 C   0  0  0  0  0  0  0  0  0  0  0  0
    6.8930   -3.0260    0.7950 C   0  0  0  0  0  0  0  0  0  0  0  0
    6.8130   -1.7170    0.4090 C   0  0  0  0  0  0  0  0  0  0  0  0
    8.0190   -0.8890    0.2820 C   0  0  0  0  0  0  0  0  0  0  0  0
    9.1150   -1.4210    0.5790 O   0  0  0  0  0  0  0  0  0  0  0  0
    8.0100    0.4190   -0.1440 O   0  0  0  0  0  0  0  0  0  0  0  0
    9.1840    1.1760   -0.2580 C   0  0  0  0  0  0  0  0  0  0  0  0
    9.8780    1.0150   -1.4410 C   0  0  0  0  0  0  0  0  0  0  0  0
   11.0600    1.7110   -1.6750 C   0  0  0  0  0  0  0  0  0  0  0  0
   11.5080    2.5640   -0.6790 C   0  0  0  0  0  0  0  0  0  0  0  0
   12.7760    3.3070   -0.9080 C   0  0  0  0  0  0  0  0  0  0  0  0
   13.1180    4.1390    0.2280 N   0  0  0  0  0  0  0  0  0  0  0  0
   10.7950    2.7080    0.4950 C   0  0  0  0  0  0  0  0  0  0  0  0
    9.6270    2.0170    0.7200 C   0  0  0  0  0  0  0  0  0  0  0  0
    5.5640   -1.2110    0.1490 C   0  0  0  0  0  0  0  0  0  0  0  0
   -1.1760   -2.0410    0.1150 C   0  0  0  0  0  0  0  0  0  0  0  0
   -5.6260   -1.9230   -0.6900 C   0  0  1  0  0  0  0  0  0  0  0  0
   -6.5290   -2.5910    0.1620 O   0  0  0  0  0  0  0  0  0  0  0  0
   -6.5630   -1.1230   -1.6200 C   0  0  0  0  0  0  0  0  0  0  0  0
   -7.3640   -0.3930   -0.7090 O   0  0  0  0  0  0  0  0  0  0  0  0
  2  1  1  6
  2  3  1  0
  2  8  1  0
  3  4  1  0
  4  5  1  6
  4  6  1  0
  7  6  1  1
  7  8  1  0
  7  9  1  0
  7 42  1  0
  9 10  1  0
 10 11  1  6
 10 39  1  0
 11 12  1  0
 12 13  2  0
 12 38  1  0
 13 14  1  0
 14 15  2  0
 15 16  1  0
 16 17  1  0
 16 38  2  0
 17 18  2  3
 18 19  1  0
 19 20  2  0
 19 21  1  0
 21 22  2  0
 21 37  1  0
 22 23  1  0
 23 24  2  0
 24 25  1  0
 25 26  1  0
 25 37  2  0
 26 27  2  0
 26 28  1  0
 28 29  1  0
 29 30  2  0
 29 36  1  0
 30 31  1  0
 31 32  2  0
 32 33  1  0
 32 35  1  0
 33 34  1  0
 35 36  2  0
 39 40  1  1
 39 41  1  0
 41 42  1  0
M  END
