
     RDKit          3D

 33 35  0  0  0  0  0  0  0  0999 V2000
   -0.5880    1.9010   -0.6230 C   0  0  0  0  0  0  0  0  0  0  0  0
   -0.6750    0.3980   -0.8260 C   0  0  2  0  0  0  0  0  0  0  0  0
    0.5400   -0.0950   -1.3830 O   0  0  0  0  0  0  0  0  0  0  0  0
    1.3280   -1.0310   -0.7450 C   0  0  0  0  0  0  0  0  0  0  0  0
    0.9700   -1.4710    0.3710 O   0  0  0  0  0  0  0  0  0  0  0  0
    2.5600   -1.5000   -1.3640 C   0  0  1  0  0  0  0  0  0  0  0  0
    3.5250   -0.3550   -1.5750 C   0  0  0  0  0  0  0  0  0  0  0  0
    3.8520    0.2630   -0.2490 C   0  0  0  0  0  0  0  0  0  0  0  0
    3.2000    1.2550    0.3230 N   0  0  0  0  0  0  0  0  0  0  0  0
    3.7950    1.5490    1.5310 C   0  0  0  0  0  0  0  0  0  0  0  0
    3.3780    2.4930    2.3410 C   0  0  0  0  0  0  0  0  0  0  0  0
    1.9450    3.4020    1.7600 Cl  0  0  0  0  0  0  0  0  0  0  0  0
    4.0420    2.9400    3.8610 Cl  0  0  0  0  0  0  0  0  0  0  0  0
    4.8460    0.6740    1.6540 C   0  0  0  0  0  0  0  0  0  0  0  0
    5.7460    0.5020    2.5920 C   0  0  0  0  0  0  0  0  0  0  0  0
    6.7020   -0.4800    2.4330 F   0  0  0  0  0  0  0  0  0  0  0  0
    5.7890    1.2310    3.7000 F   0  0  0  0  0  0  0  0  0  0  0  0
    4.8680   -0.1250    0.5300 N   0  0  0  0  0  0  0  0  0  0  0  0
    3.2080   -2.6460   -0.6340 C   0  0  0  0  0  0  0  0  0  0  0  0
    2.6220   -3.9230   -1.1630 C   0  0  0  0  0  0  0  0  0  0  0  0
    2.7880   -3.9100   -2.6620 C   0  0  0  0  0  0  0  0  0  0  0  0
    2.2540   -2.2090   -3.0320 S   0  0  0  0  0  0  0  0  0  0  0  0
   -1.8060    0.1260   -1.7410 C   0  0  0  0  0  0  0  0  0  0  0  0
   -1.5700   -0.4240   -2.8580 O   0  0  0  0  0  0  0  0  0  0  0  0
   -3.1110    0.4790   -1.3580 N   0  0  0  0  0  0  0  0  0  0  0  0
   -4.2770    0.2590   -2.2030 C   0  0  0  0  0  0  0  0  0  0  0  0
   -5.4690    0.8320   -1.4660 C   0  0  0  0  0  0  0  0  0  0  0  0
   -5.6380    0.3080   -0.2050 O   0  0  0  0  0  0  0  0  0  0  0  0
   -4.4950    0.2640    0.5490 C   0  0  2  0  0  0  0  0  0  0  0  0
   -4.6830    0.6390    1.9800 C   0  0  0  0  0  0  0  0  0  0  0  0
   -5.2140    2.0490    2.0950 C   0  0  0  0  0  0  0  0  0  0  0  0
   -5.3590    2.3120    3.4440 F   0  0  0  0  0  0  0  0  0  0  0  0
   -3.3520    1.0820   -0.0680 C   0  0  0  0  0  0  0  0  0  0  0  0
  2  1  1  6
  2  3  1  0
  2 23  1  0
  3  4  1  0
  4  5  2  0
  4  6  1  0
  6  7  1  6
  6 19  1  0
  6 22  1  0
  7  8  1  0
  8  9  2  0
  8 18  1  0
  9 10  1  0
 10 11  2  3
 10 14  1  0
 11 12  1  0
 11 13  1  0
 14 15  2  3
 14 18  1  0
 15 16  1  0
 15 17  1  0
 19 20  1  0
 20 21  1  0
 21 22  1  0
 23 24  2  0
 23 25  1  0
 25 26  1  0
 25 33  1  0
 26 27  1  0
 27 28  1  0
 28 29  1  0
 29 30  1  1
 29 33  1  0
 30 31  1  0
 31 32  1  0
M  END
