
     RDKit          3D

 33 35  0  0  0  0  0  0  0  0999 V2000
   -0.8950    1.6480    2.2810 C   0  0  0  0  0  0  0  0  0  0  0  0
    0.0560    1.1740    1.2040 C   0  0  0  0  0  0  0  0  0  0  0  0
    1.3540    1.0660    1.3910 N   0  0  0  0  0  0  0  0  0  0  0  0
    2.1850    0.7220    0.6670 C   0  0  0  0  0  0  0  0  0  0  0  0
    3.6790    0.4980    0.5760 C   0  0  0  0  0  0  0  0  0  0  0  0
    4.0960    0.0060   -0.7740 C   0  0  0  0  0  0  0  0  0  0  0  0
    5.5150   -0.2260   -0.9170 C   0  0  0  0  0  0  0  0  0  0  0  0
    5.9830   -0.6410   -2.0190 O   0  0  0  0  0  0  0  0  0  0  0  0
    6.4360   -0.0140    0.1180 O   0  0  0  0  0  0  0  0  0  0  0  0
    7.7940   -0.2810   -0.1600 C   0  0  0  0  0  0  0  0  0  0  0  0
    8.6790   -0.0320    0.9770 C   0  0  0  0  0  0  0  0  0  0  0  0
    8.2370    0.3980    2.1350 C   0  0  0  0  0  0  0  0  0  0  0  0
    6.5430    0.7060    2.4060 Cl  0  0  0  0  0  0  0  0  0  0  0  0
    9.3880    0.6730    3.4650 Cl  0  0  0  0  0  0  0  0  0  0  0  0
   10.1450   -0.2890    0.7740 C   0  0  1  0  0  0  0  0  0  0  0  0
   10.3280   -1.6240    0.4560 F   0  0  0  0  0  0  0  0  0  0  0  0
   10.5360    0.4200   -0.3580 F   0  0  0  0  0  0  0  0  0  0  0  0
   10.8670    0.0840    1.8570 F   0  0  0  0  0  0  0  0  0  0  0  0
    1.1860    0.3520   -0.8730 S   0  0  0  0  0  0  0  0  0  0  0  0
   -0.3800    0.8290   -0.0350 C   0  0  0  0  0  0  0  0  0  0  0  0
   -1.6610    0.7730   -0.7190 C   0  0  0  0  0  0  0  0  0  0  0  0
   -1.6550    0.3810   -1.9220 O   0  0  0  0  0  0  0  0  0  0  0  0
   -2.9060    1.1040   -0.2010 N   0  0  0  0  0  0  0  0  0  0  0  0
   -4.1590    1.0450   -0.8860 C   0  0  2  0  0  0  0  0  0  0  0  0
   -5.1320    2.1190   -0.7740 C   0  0  0  0  0  0  0  0  0  0  0  0
   -6.1640    1.1680   -0.2660 C   0  0  1  0  0  0  0  0  0  0  0  0
   -7.2400    0.8280   -1.1560 N   0  0  0  0  0  0  0  0  0  0  0  0
   -6.8660    0.1210   -2.3210 C   0  0  0  0  0  0  0  0  0  0  0  0
   -5.8420   -0.7730   -2.2220 O   0  0  0  0  0  0  0  0  0  0  0  0
   -5.4540   -1.1300   -0.9560 C   0  0  1  0  0  0  0  0  0  0  0  0
   -4.2620   -2.0550   -1.0800 C   0  0  0  0  0  0  0  0  0  0  0  0
   -5.1100    0.1130   -0.1630 C   0  0  1  0  0  0  0  0  0  0  0  0
   -4.7390   -0.1700    1.2740 C   0  0  0  0  0  0  0  0  0  0  0  0
  1  2  1  0
  2  3  1  0
  2 20  2  0
  3  4  2  0
  4  5  1  0
  4 19  1  0
  5  6  1  0
  6  7  1  0
  7  8  2  0
  7  9  1  0
  9 10  1  0
 10 11  1  0
 11 12  2  3
 11 15  1  0
 12 13  1  0
 12 14  1  0
 15 16  1  6
 15 17  1  0
 15 18  1  0
 19 20  1  0
 20 21  1  0
 21 22  2  0
 21 23  1  0
 24 23  1  1
 24 25  1  0
 24 32  1  0
 26 25  1  6
 26 27  1  0
 26 32  1  0
 27 28  1  0
 28 29  1  0
 29 30  1  0
 30 31  1  6
 30 32  1  0
 32 33  1  1
M  END
