
     RDKit          3D

 29 30  0  0  0  0  0  0  0  0999 V2000
   -1.7240   -1.8100    1.4880 C   0  0  0  0  0  0  0  0  0  0  0  0
   -2.4000   -1.2290    0.2850 C   0  0  2  0  0  0  0  0  0  0  0  0
   -1.9380    0.0930    0.0530 O   0  0  0  0  0  0  0  0  0  0  0  0
   -1.2850    0.3830   -1.1320 C   0  0  0  0  0  0  0  0  0  0  0  0
   -1.1180   -0.5250   -1.9700 O   0  0  0  0  0  0  0  0  0  0  0  0
   -0.7800    1.7430   -1.4240 C   0  0  0  0  0  0  0  0  0  0  0  0
    0.4460    1.9920   -0.6000 C   0  0  0  0  0  0  0  0  0  0  0  0
    1.5160    0.9850   -0.9120 C   0  0  0  0  0  0  0  0  0  0  0  0
    1.3490    0.1420   -1.8080 O   0  0  0  0  0  0  0  0  0  0  0  0
    2.6890    1.0640   -0.1340 N   0  0  0  0  0  0  0  0  0  0  0  0
    3.7830    0.1980   -0.2740 C   0  0  0  0  0  0  0  0  0  0  0  0
    3.8620   -0.9030   -1.0930 C   0  0  0  0  0  0  0  0  0  0  0  0
    4.9900   -1.7340   -1.1550 C   0  0  0  0  0  0  0  0  0  0  0  0
    4.9680   -3.1350   -2.2550 S   0  0  0  0  0  0  0  0  0  0  0  0
    6.0700   -1.4440   -0.3650 C   0  0  0  0  0  0  0  0  0  0  0  0
    7.2150   -2.2330   -0.3820 O   0  0  0  0  0  0  0  0  0  0  0  0
    6.0410   -0.3510    0.4740 C   0  0  0  0  0  0  0  0  0  0  0  0
    4.9180    0.4400    0.5060 C   0  0  0  0  0  0  0  0  0  0  0  0
    5.1710    1.4650    1.4380 O   0  0  0  0  0  0  0  0  0  0  0  0
    6.5960    1.5460    1.5350 C   0  0  0  0  0  0  0  0  0  0  0  0
    6.9690    0.1840    1.3780 O   0  0  0  0  0  0  0  0  0  0  0  0
   -3.8580   -1.2200    0.4030 C   0  0  0  0  0  0  0  0  0  0  0  0
   -4.4890   -2.2680    0.6000 O   0  0  0  0  0  0  0  0  0  0  0  0
   -4.5540   -0.0300    0.2960 O   0  0  0  0  0  0  0  0  0  0  0  0
   -5.9460   -0.0170    0.4080 C   0  0  2  0  0  0  0  0  0  0  0  0
   -6.5640    0.4570   -0.9040 C   0  0  0  0  0  0  0  0  0  0  0  0
   -6.4040    0.8350    1.5440 C   0  0  0  0  0  0  0  0  0  0  0  0
   -5.5410    1.5450    2.4050 N   0  0  0  0  0  0  0  0  0  0  0  0
   -7.6500    0.9290    1.7500 O   0  0  0  0  0  0  0  0  0  0  0  0
  2  1  1  1
  2  3  1  0
  2 22  1  0
  3  4  1  0
  4  5  2  0
  4  6  1  0
  6  7  1  0
  7  8  1  0
  8  9  2  0
  8 10  1  0
 10 11  1  0
 11 12  2  0
 11 18  1  0
 12 13  1  0
 13 14  1  0
 13 15  2  0
 15 16  1  0
 15 17  1  0
 17 18  2  0
 17 21  1  0
 18 19  1  0
 19 20  1  0
 20 21  1  0
 22 23  2  0
 22 24  1  0
 24 25  1  0
 25 26  1  6
 25 27  1  0
 27 28  1  0
 27 29  2  0
M  END
