
     RDKit          3D

 29 30  0  0  0  0  0  0  0  0999 V2000
   -7.0850    2.0130    1.6110 N   0  0  0  0  0  0  0  0  0  0  0  0
   -6.6150    1.2980    0.4420 C   0  0  0  0  0  0  0  0  0  0  0  0
   -6.6050   -0.1530    0.7730 C   0  0  0  0  0  0  0  0  0  0  0  0
   -5.4960   -0.8650    0.7320 C   0  0  0  0  0  0  0  0  0  0  0  0
   -4.2870   -0.2940    0.3770 O   0  0  0  0  0  0  0  0  0  0  0  0
   -3.4630    0.3930    1.3000 C   0  0  0  0  0  0  0  0  0  0  0  0
   -2.2130    0.9190    0.6760 C   0  0  0  0  0  0  0  0  0  0  0  0
   -1.4290   -0.1230    0.1300 O   0  0  0  0  0  0  0  0  0  0  0  0
   -0.2050    0.2600   -0.4990 C   0  0  0  0  0  0  0  0  0  0  0  0
    0.0790    1.4820   -0.5190 O   0  0  0  0  0  0  0  0  0  0  0  0
    0.6270   -0.6140   -1.0530 O   0  0  0  0  0  0  0  0  0  0  0  0
    1.8340   -0.4960   -1.6790 C   0  0  0  0  0  0  0  0  0  0  0  0
    2.9660   -0.1480   -0.7830 C   0  0  2  0  0  0  0  0  0  0  0  0
    2.8930    1.0930    0.0120 C   0  0  0  0  0  0  0  0  0  0  0  0
    4.1810    1.3990    0.5930 O   0  0  0  0  0  0  0  0  0  0  0  0
    5.3710    1.1420   -0.0610 C   0  0  0  0  0  0  0  0  0  0  0  0
    6.5790    1.6600    0.4000 C   0  0  0  0  0  0  0  0  0  0  0  0
    7.7100    1.3490   -0.3160 C   0  0  0  0  0  0  0  0  0  0  0  0
    7.6900    0.5650   -1.4440 C   0  0  0  0  0  0  0  0  0  0  0  0
    9.1890    0.2120   -2.3080 S   0  0  2  0  0  0  0  0  0  0  0  0
    9.8050   -1.0640   -1.8050 O   0  0  0  0  0  0  0  0  0  0  0  0
   10.1120    1.3650   -2.1690 O   0  0  0  0  0  0  0  0  0  0  0  0
    6.5060    0.0520   -1.9020 C   0  0  0  0  0  0  0  0  0  0  0  0
    5.3470    0.3560   -1.1880 C   0  0  0  0  0  0  0  0  0  0  0  0
    4.1370   -0.1430   -1.6230 O   0  0  0  0  0  0  0  0  0  0  0  0
   -5.5940   -2.2940    1.0780 C   0  0  0  0  0  0  0  0  0  0  0  0
   -6.8590   -2.8450    1.4380 N   0  0  0  0  0  0  0  0  0  0  0  0
   -4.4970   -3.0170    1.0400 C   0  0  0  0  0  0  0  0  0  0  0  0
   -4.5380   -4.3550    1.3550 O   0  0  0  0  0  0  0  0  0  0  0  0
  1  2  1  0
  2  3  1  0
  3  4  2  3
  4  5  1  0
  4 26  1  0
  5  6  1  0
  6  7  1  0
  7  8  1  0
  8  9  1  0
  9 10  2  0
  9 11  1  0
 11 12  1  0
 13 12  1  6
 13 14  1  0
 13 25  1  0
 14 15  1  0
 15 16  1  0
 16 17  2  0
 16 24  1  0
 17 18  1  0
 18 19  2  0
 20 19  1  1
 19 23  1  0
 20 21  2  0
 20 22  2  0
 23 24  2  0
 24 25  1  0
 26 27  1  0
 26 28  2  3
 28 29  1  0
M  END
