
     RDKit          3D

 31 32  0  0  0  0  0  0  0  0999 V2000
    3.5870   -4.5350   -1.2150 N   0  0  0  0  0  0  0  0  0  0  0  0
    4.1190   -3.2820   -0.8480 C   0  0  0  0  0  0  0  0  0  0  0  0
    5.1990   -3.2130    0.0560 N   0  0  0  0  0  0  0  0  0  0  0  0
    3.6230   -2.2110   -1.3340 N   0  0  0  0  0  0  0  0  0  0  0  0
    4.0960   -0.8800   -1.0220 C   0  0  0  0  0  0  0  0  0  0  0  0
    4.0120    0.0910   -2.1470 C   0  0  0  0  0  0  0  0  0  0  0  0
    2.6760    0.3560   -2.7190 C   0  0  0  0  0  0  0  0  0  0  0  0
    1.6840    0.9090   -1.8210 N   0  0  0  0  0  0  0  0  0  0  0  0
    1.8550    2.1230   -1.1310 C   0  0  0  0  0  0  0  0  0  0  0  0
    2.9390    2.7400   -1.3110 O   0  0  0  0  0  0  0  0  0  0  0  0
    0.8740    2.6820   -0.2610 C   0  0  2  0  0  0  0  0  0  0  0  0
    1.3920    3.5740    0.8770 C   0  0  0  0  0  0  0  0  0  0  0  0
    0.2440    4.4280    1.2940 C   0  0  0  0  0  0  0  0  0  0  0  0
   -1.1190    3.9090    1.2480 C   0  0  0  0  0  0  0  0  0  0  0  0
   -1.3860    2.6120    0.5240 C   0  0  0  0  0  0  0  0  0  0  0  0
   -0.1100    1.8700    0.3830 N   0  0  0  0  0  0  0  0  0  0  0  0
    0.0610    0.5860    0.8650 C   0  0  0  0  0  0  0  0  0  0  0  0
    1.2000    0.0080    0.8190 O   0  0  0  0  0  0  0  0  0  0  0  0
   -1.0020   -0.2820    1.4870 C   0  0  1  0  0  0  0  0  0  0  0  0
   -1.5790   -1.2380    0.5100 C   0  0  0  0  0  0  0  0  0  0  0  0
   -2.2520   -0.7600   -0.7020 C   0  0  2  0  0  0  0  0  0  0  0  0
   -3.4500    0.0930   -0.5640 C   0  0  0  0  0  0  0  0  0  0  0  0
   -4.6860   -0.4910   -1.1510 C   0  0  0  0  0  0  0  0  0  0  0  0
   -4.5950   -0.9890   -2.5490 C   0  0  0  0  0  0  0  0  0  0  0  0
   -3.3210   -1.7360   -2.7460 C   0  0  0  0  0  0  0  0  0  0  0  0
   -2.7090   -2.0420   -1.4320 C   0  0  0  0  0  0  0  0  0  0  0  0
   -0.3540   -1.1470    2.5090 N   0  0  0  0  0  0  0  0  0  0  0  0
   -0.8400   -0.8510    3.8400 C   0  0  0  0  0  0  0  0  0  0  0  0
   -1.1340   -2.0860    4.6050 C   0  0  0  0  0  0  0  0  0  0  0  0
   -0.9930   -3.2050    4.0740 O   0  0  0  0  0  0  0  0  0  0  0  0
   -1.5680   -1.9930    5.9160 O   0  0  0  0  0  0  0  0  0  0  0  0
  1  2  1  0
  2  3  1  0
  2  4  2  3
  4  5  1  0
  5  6  1  0
  6  7  1  0
  7  8  1  0
  8  9  1  0
  9 10  2  0
 11  9  1  1
 11 12  1  0
 11 16  1  0
 12 13  1  0
 13 14  1  0
 14 15  1  0
 15 16  1  0
 16 17  1  0
 17 18  2  0
 17 19  1  0
 19 20  1  6
 19 27  1  0
 21 20  1  1
 21 22  1  0
 21 26  1  0
 22 23  1  0
 23 24  1  0
 24 25  1  0
 25 26  1  0
 27 28  1  0
 28 29  1  0
 29 30  2  0
 29 31  1  0
M  CHG  2   4   1  27   1
M  END
