
     RDKit          3D

 29 30  0  0  0  0  0  0  0  0999 V2000
    7.0570   -3.1210    0.9290 C   0  0  0  0  0  0  0  0  0  0  0  0
    6.7530   -1.8450    0.3910 O   0  0  0  0  0  0  0  0  0  0  0  0
    5.4460   -1.4320    0.3390 C   0  0  0  0  0  0  0  0  0  0  0  0
    4.3850   -2.1780    0.7790 C   0  0  0  0  0  0  0  0  0  0  0  0
    3.0850   -1.7270    0.7090 C   0  0  0  0  0  0  0  0  0  0  0  0
    2.7930   -0.4960    0.1900 C   0  0  0  0  0  0  0  0  0  0  0  0
    1.4820   -0.0100    0.1050 O   0  0  0  0  0  0  0  0  0  0  0  0
    1.2040    1.2620   -0.4340 C   0  0  0  0  0  0  0  0  0  0  0  0
   -0.2470    1.4890   -0.3880 C   0  0  0  0  0  0  0  0  0  0  0  0
   -0.7230    2.5590   -0.8160 O   0  0  0  0  0  0  0  0  0  0  0  0
   -1.0840    0.5300    0.1260 O   0  0  0  0  0  0  0  0  0  0  0  0
   -2.4800    0.7720    0.1610 C   0  0  0  0  0  0  0  0  0  0  0  0
   -3.0440    1.0000   -1.1770 C   0  0  0  0  0  0  0  0  0  0  0  0
   -2.3210    0.9430   -2.1500 O   0  0  0  0  0  0  0  0  0  0  0  0
   -4.7720    1.3590   -1.3690 S   0  0  0  0  0  0  0  0  0  0  0  0
   -5.5750    1.3670    0.2330 C   0  0  2  0  0  0  0  0  0  0  0  0
   -5.5850   -0.0290    0.8180 C   0  0  0  0  0  0  0  0  0  0  0  0
   -7.0440   -0.3240    1.1110 C   0  0  2  0  0  0  0  0  0  0  0  0
   -7.6740   -1.1940    0.0560 C   0  0  0  0  0  0  0  0  0  0  0  0
   -9.0330   -1.2970    0.3700 O   0  0  0  0  0  0  0  0  0  0  0  0
   -7.6660    0.9390    1.0850 O   0  0  0  0  0  0  0  0  0  0  0  0
   -6.9990    1.7120    0.1560 C   0  0  0  0  0  0  0  0  0  0  0  0
   -7.5570    2.5500   -0.5990 O   0  0  0  0  0  0  0  0  0  0  0  0
    3.8650    0.2830   -0.2660 C   0  0  0  0  0  0  0  0  0  0  0  0
    5.1640   -0.1610   -0.1990 C   0  0  0  0  0  0  0  0  0  0  0  0
    6.2460    0.6190   -0.6560 N   0  0  0  0  0  0  0  0  0  0  0  0
    6.2000    1.9000   -1.2230 C   0  0  0  0  0  0  0  0  0  0  0  0
    7.4300    2.5630   -1.6430 N   0  0  0  0  0  0  0  0  0  0  0  0
    5.1070    2.4790   -1.3720 O   0  0  0  0  0  0  0  0  0  0  0  0
  1  2  1  0
  2  3  1  0
  3  4  2  0
  3 25  1  0
  4  5  1  0
  5  6  2  0
  6  7  1  0
  6 24  1  0
  7  8  1  0
  8  9  1  0
  9 10  2  0
  9 11  1  0
 11 12  1  0
 12 13  1  0
 13 14  2  0
 13 15  1  0
 16 15  1  6
 16 17  1  0
 16 22  1  0
 17 18  1  0
 18 19  1  6
 18 21  1  0
 19 20  1  0
 21 22  1  0
 22 23  2  0
 24 25  2  0
 25 26  1  0
 26 27  1  0
 27 28  1  0
 27 29  2  0
M  END
