
     RDKit          3D

 28 29  0  0  0  0  0  0  0  0999 V2000
    0.9730   -1.7700   -3.0470 C   0  0  0  0  0  0  0  0  0  0  0  0
    0.4190   -1.2630   -1.8400 O   0  0  0  0  0  0  0  0  0  0  0  0
    0.9740   -1.5970   -0.5950 C   0  0  0  0  0  0  0  0  0  0  0  0
    0.1790   -1.5630    0.4570 C   0  0  0  0  0  0  0  0  0  0  0  0
    0.6150   -1.8630    1.6930 O   0  0  0  0  0  0  0  0  0  0  0  0
    0.8900   -1.0530    2.7630 C   0  0  0  0  0  0  0  0  0  0  0  0
    1.9580   -0.0560    2.7010 C   0  0  0  0  0  0  0  0  0  0  0  0
    1.9990    0.8310    3.6480 O   0  0  0  0  0  0  0  0  0  0  0  0
    2.9560    0.0620    1.7420 N   0  0  0  0  0  0  0  0  0  0  0  0
    3.9740    1.1130    1.7800 C   0  0  2  0  0  0  0  0  0  0  0  0
    4.1260    1.8470    0.4950 C   0  0  0  0  0  0  0  0  0  0  0  0
    5.5260    2.4310    0.6070 C   0  0  0  0  0  0  0  0  0  0  0  0
    6.2730    1.4590    1.5010 C   0  0  0  0  0  0  0  0  0  0  0  0
    5.3160    0.3790    1.8980 C   0  0  0  0  0  0  0  0  0  0  0  0
   -1.2520   -1.1770    0.2550 C   0  0  0  0  0  0  0  0  0  0  0  0
   -2.1280   -1.1420    1.2260 C   0  0  0  0  0  0  0  0  0  0  0  0
   -3.4960   -0.7430    0.9390 C   0  0  0  0  0  0  0  0  0  0  0  0
   -4.4500   -0.7150    1.9750 O   0  0  0  0  0  0  0  0  0  0  0  0
   -5.2290   -1.8710    2.1940 C   0  0  0  0  0  0  0  0  0  0  0  0
   -3.9310   -0.3880   -0.2670 C   0  0  0  0  0  0  0  0  0  0  0  0
   -5.2850   -0.0310   -0.4320 O   0  0  0  0  0  0  0  0  0  0  0  0
   -2.9770   -0.3770   -1.3790 C   0  0  1  0  0  0  0  0  0  0  0  0
   -2.7420    1.0050   -1.9330 C   0  0  0  0  0  0  0  0  0  0  0  0
   -4.1900    1.7580   -2.5650 S   0  0  1  0  0  0  0  0  0  0  0  0
   -4.8930    0.7690   -3.7840 N   0  0  0  0  0  0  0  0  0  0  0  0
   -5.1090    2.1530   -1.4800 O   0  0  0  0  0  0  0  0  0  0  0  0
   -3.8140    3.0840   -3.2630 O   0  0  0  0  0  0  0  0  0  0  0  0
   -1.6890   -0.8460   -1.0050 O   0  0  0  0  0  0  0  0  0  0  0  0
  1  2  1  0
  2  3  1  0
  3  4  2  3
  4  5  1  0
  4 15  1  0
  5  6  1  0
  6  7  1  0
  7  8  2  0
  7  9  1  0
 10  9  1  6
 10 11  1  0
 10 14  1  0
 11 12  1  0
 12 13  1  0
 13 14  1  0
 15 16  2  0
 15 28  1  0
 16 17  1  0
 17 18  1  0
 17 20  2  0
 18 19  1  0
 20 21  1  0
 20 22  1  0
 22 23  1  1
 22 28  1  0
 23 24  1  0
 24 25  1  6
 24 26  2  0
 24 27  2  0
M  END
