
     RDKit          3D

 29 30  0  0  0  0  0  0  0  0999 V2000
    8.6430   -0.6960    0.2910 C   0  0  0  0  0  0  0  0  0  0  0  0
    7.2380   -0.5220   -0.1510 C   0  0  0  0  0  0  0  0  0  0  0  0
    6.1310   -0.8770    0.4400 C   0  0  0  0  0  0  0  0  0  0  0  0
    5.7820   -1.5570    1.7120 C   0  0  0  0  0  0  0  0  0  0  0  0
    6.5240   -1.9960    2.6100 O   0  0  0  0  0  0  0  0  0  0  0  0
    4.4240   -1.6240    1.7340 O   0  0  0  0  0  0  0  0  0  0  0  0
    3.9120   -1.0400    0.5790 C   0  0  0  0  0  0  0  0  0  0  0  0
    2.4490   -0.9670    0.3230 C   0  0  0  0  0  0  0  0  0  0  0  0
    2.2290   -0.3480   -0.8750 O   0  0  0  0  0  0  0  0  0  0  0  0
    0.9280   -0.2030   -1.2780 C   0  0  0  0  0  0  0  0  0  0  0  0
    0.1890    0.6840   -0.3600 C   0  0  0  0  0  0  0  0  0  0  0  0
    0.6790    1.2950    0.6180 O   0  0  0  0  0  0  0  0  0  0  0  0
   -1.2270    0.9170   -0.5410 N   0  0  0  0  0  0  0  0  0  0  0  0
   -1.9930    1.7660    0.3180 C   0  0  2  0  0  0  0  0  0  0  0  0
   -3.0510    1.0140    1.0680 C   0  0  0  0  0  0  0  0  0  0  0  0
   -4.0280    0.3450    0.2080 C   0  0  0  0  0  0  0  0  0  0  0  0
   -3.9860    0.4000   -1.0460 O   0  0  0  0  0  0  0  0  0  0  0  0
   -5.0550   -0.3900    0.7780 O   0  0  0  0  0  0  0  0  0  0  0  0
   -5.9990   -1.0370   -0.0330 C   0  0  1  0  0  0  0  0  0  0  0  0
   -5.9540   -2.5440    0.1690 C   0  0  0  0  0  0  0  0  0  0  0  0
   -7.3530   -0.4940    0.2390 C   0  0  0  0  0  0  0  0  0  0  0  0
   -7.4720    0.3830    1.0710 O   0  0  0  0  0  0  0  0  0  0  0  0
   -2.5440    2.9520   -0.3900 C   0  0  0  0  0  0  0  0  0  0  0  0
   -3.3260    3.9350    0.2200 N   0  0  0  0  0  0  0  0  0  0  0  0
   -2.2760    3.0560   -1.6160 O   0  0  0  0  0  0  0  0  0  0  0  0
    4.8990   -0.5880   -0.2090 C   0  0  0  0  0  0  0  0  0  0  0  0
    5.0260    0.0910   -1.4970 C   0  0  0  0  0  0  0  0  0  0  0  0
    4.1440    0.4800   -2.3080 O   0  0  0  0  0  0  0  0  0  0  0  0
    6.8060    0.2650   -1.6890 S   0  0  0  0  0  0  0  0  0  0  0  0
  1  2  1  0
  2  3  2  0
  2 29  1  0
  3  4  1  0
  3 26  1  0
  4  5  2  0
  4  6  1  0
  6  7  1  0
  7  8  1  0
  7 26  2  0
  8  9  1  0
  9 10  1  0
 10 11  1  0
 11 12  2  0
 11 13  1  0
 13 14  1  0
 14 15  1  6
 14 23  1  0
 15 16  1  0
 16 17  2  0
 16 18  1  0
 18 19  1  0
 19 20  1  1
 19 21  1  0
 21 22  2  0
 23 24  1  0
 23 25  2  0
 26 27  1  0
 27 28  2  0
 27 29  1  0
M  END
