
     RDKit          3D

 31 34  0  0  0  0  0  0  0  0999 V2000
    3.7970   -1.1930    1.3640 O   0  0  0  0  0  0  0  0  0  0  0  0
    4.4510   -1.5900    0.3910 C   0  0  0  0  0  0  0  0  0  0  0  0
    4.0130   -2.7460   -0.3950 C   0  0  0  0  0  0  0  0  0  0  0  0
    2.8170   -3.3240   -0.0040 O   0  0  0  0  0  0  0  0  0  0  0  0
    1.5640   -2.7480    0.0270 C   0  0  0  0  0  0  0  0  0  0  0  0
    0.5130   -3.5450    0.4740 C   0  0  0  0  0  0  0  0  0  0  0  0
   -0.7660   -3.0330    0.5300 C   0  0  0  0  0  0  0  0  0  0  0  0
   -1.0650   -1.7200    0.1500 C   0  0  0  0  0  0  0  0  0  0  0  0
   -2.4550   -1.2460    0.2460 C   0  0  0  0  0  0  0  0  0  0  0  0
   -3.3070   -1.9300    0.8780 O   0  0  0  0  0  0  0  0  0  0  0  0
   -2.8020   -0.0340   -0.3760 N   0  0  0  0  0  0  0  0  0  0  0  0
   -4.0850    0.5540   -0.3640 C   0  0  0  0  0  0  0  0  0  0  0  0
   -4.4210    1.4990   -1.3570 C   0  0  0  0  0  0  0  0  0  0  0  0
   -5.6500    2.0930   -1.3430 C   0  0  0  0  0  0  0  0  0  0  0  0
   -5.9460    2.9950   -2.3060 F   0  0  0  0  0  0  0  0  0  0  0  0
   -6.5730    1.7690   -0.3550 C   0  0  0  0  0  0  0  0  0  0  0  0
   -6.2580    0.8550    0.6110 C   0  0  0  0  0  0  0  0  0  0  0  0
   -5.0010    0.2430    0.6040 C   0  0  0  0  0  0  0  0  0  0  0  0
   -7.4000    0.7020    1.5320 C   0  0  0  0  0  0  0  0  0  0  0  0
   -8.1230    2.0340    1.2720 C   0  0  0  0  0  0  0  0  0  0  0  0
   -7.8930    2.2280   -0.1250 N   0  0  0  0  0  0  0  0  0  0  0  0
   -0.0250   -0.9490   -0.2870 C   0  0  0  0  0  0  0  0  0  0  0  0
    1.2850   -1.4590   -0.3490 C   0  0  0  0  0  0  0  0  0  0  0  0
    5.6800   -0.9000    0.0170 C   0  0  0  0  0  0  0  0  0  0  0  0
    6.5300   -1.2110   -1.0390 C   0  0  0  0  0  0  0  0  0  0  0  0
    7.5510   -0.3400   -1.0490 N   0  0  0  0  0  0  0  0  0  0  0  0
    7.3700    0.5050   -0.0370 N   0  0  0  0  0  0  0  0  0  0  0  0
    8.2770    1.5930    0.2710 C   0  0  0  0  0  0  0  0  0  0  0  0
    7.8440    2.8320   -0.4770 C   0  0  0  0  0  0  0  0  0  0  0  0
    7.9000    2.4310   -2.2240 Cl  0  0  0  0  0  0  0  0  0  0  0  0
    6.2440    0.1960    0.6340 C   0  0  0  0  0  0  0  0  0  0  0  0
  1  2  2  0
  2  3  1  0
  2 24  1  0
  3  4  1  0
  4  5  1  0
  5  6  2  0
  5 23  1  0
  6  7  1  0
  7  8  2  0
  8  9  1  0
  8 22  1  0
  9 10  2  0
  9 11  1  0
 11 12  1  0
 12 13  2  0
 12 18  1  0
 13 14  1  0
 14 15  1  0
 14 16  2  0
 16 17  1  0
 16 21  1  0
 17 18  2  0
 17 19  1  0
 19 20  1  0
 20 21  1  0
 22 23  2  0
 24 25  1  0
 24 31  2  0
 25 26  2  0
 26 27  1  0
 27 28  1  0
 27 31  1  0
 28 29  1  0
 29 30  1  0
M  CHG  1  21   1
M  END
