
     RDKit          3D

 28 29  0  0  0  0  0  0  0  0999 V2000
    1.6490   -1.1010   -4.9450 C   0  0  0  0  0  0  0  0  0  0  0  0
    1.5920   -0.7730   -3.5690 O   0  0  0  0  0  0  0  0  0  0  0  0
    0.3280   -0.5400   -3.0180 C   0  0  0  0  0  0  0  0  0  0  0  0
    0.2500    0.0890   -1.8600 C   0  0  0  0  0  0  0  0  0  0  0  0
   -0.9890    0.3220   -1.3110 O   0  0  0  0  0  0  0  0  0  0  0  0
   -1.5790   -0.6030   -0.4210 C   0  0  0  0  0  0  0  0  0  0  0  0
   -2.8930   -0.0980    0.0030 C   0  0  0  0  0  0  0  0  0  0  0  0
   -3.3120    0.9950   -0.4260 O   0  0  0  0  0  0  0  0  0  0  0  0
   -3.7510   -0.7920    0.9020 N   0  0  0  0  0  0  0  0  0  0  0  0
   -5.0200   -0.2590    1.2850 C   0  0  1  0  0  0  0  0  0  0  0  0
   -6.1770   -1.1510    0.8770 C   0  0  0  0  0  0  0  0  0  0  0  0
   -6.9980   -1.3720    2.1110 C   0  0  0  0  0  0  0  0  0  0  0  0
   -6.6880   -0.1250    2.9360 C   0  0  0  0  0  0  0  0  0  0  0  0
   -5.1770   -0.0430    2.7630 C   0  0  0  0  0  0  0  0  0  0  0  0
    1.4880    0.5320   -1.1750 C   0  0  0  0  0  0  0  0  0  0  0  0
    1.4220    1.1620   -0.0170 C   0  0  0  0  0  0  0  0  0  0  0  0
    2.6650    1.5740    0.6230 C   0  0  0  0  0  0  0  0  0  0  0  0
    2.6470    2.2560    1.8510 O   0  0  0  0  0  0  0  0  0  0  0  0
    2.1670    3.5990    1.7950 C   0  0  0  0  0  0  0  0  0  0  0  0
    3.8530    1.3290    0.0900 C   0  0  0  0  0  0  0  0  0  0  0  0
    4.9770    1.7850    0.7970 O   0  0  0  0  0  0  0  0  0  0  0  0
    3.9790    0.6160   -1.1690 C   0  0  1  0  0  0  0  0  0  0  0  0
    4.7080   -0.6790   -1.0280 C   0  0  0  0  0  0  0  0  0  0  0  0
    6.3450   -0.6660   -0.4550 S   0  0  2  0  0  0  0  0  0  0  0  0
    6.5800   -0.0730    1.1190 N   0  0  0  0  0  0  0  0  0  0  0  0
    7.2440    0.0960   -1.4230 O   0  0  0  0  0  0  0  0  0  0  0  0
    6.8300   -2.1120   -0.4610 O   0  0  0  0  0  0  0  0  0  0  0  0
    2.7150    0.3070   -1.7210 O   0  0  0  0  0  0  0  0  0  0  0  0
  1  2  1  0
  2  3  1  0
  3  4  2  3
  4  5  1  0
  4 15  1  0
  5  6  1  0
  6  7  1  0
  7  8  2  0
  7  9  1  0
 10  9  1  1
 10 11  1  0
 10 14  1  0
 11 12  1  0
 12 13  1  0
 13 14  1  0
 15 16  2  0
 15 28  1  0
 16 17  1  0
 17 18  1  0
 17 20  2  0
 18 19  1  0
 20 21  1  0
 20 22  1  0
 22 23  1  1
 22 28  1  0
 23 24  1  0
 24 25  1  1
 24 26  2  0
 24 27  2  0
M  END
