
     RDKit          3D

 29 30  0  0  0  0  0  0  0  0999 V2000
    3.6550   -0.2970    1.7850 C   0  0  0  0  0  0  0  0  0  0  0  0
    3.4700    0.2920    0.3820 C   0  0  2  0  0  0  0  0  0  0  0  0
    2.2180   -0.0610   -0.1260 O   0  0  0  0  0  0  0  0  0  0  0  0
    1.2340    0.8160   -0.5290 C   0  0  0  0  0  0  0  0  0  0  0  0
    1.4600    2.0440   -0.4410 O   0  0  0  0  0  0  0  0  0  0  0  0
   -0.0870    0.3460   -1.0640 C   0  0  0  0  0  0  0  0  0  0  0  0
   -1.1000    0.6080    0.0100 C   0  0  0  0  0  0  0  0  0  0  0  0
   -2.4720    0.1790   -0.3950 C   0  0  0  0  0  0  0  0  0  0  0  0
   -2.5960   -0.3170   -1.5350 O   0  0  0  0  0  0  0  0  0  0  0  0
   -3.5220    0.3510    0.4990 N   0  0  0  0  0  0  0  0  0  0  0  0
   -4.8580   -0.0000    0.2660 C   0  0  0  0  0  0  0  0  0  0  0  0
   -5.3400   -0.5710   -0.8760 C   0  0  0  0  0  0  0  0  0  0  0  0
   -6.6900   -0.8970   -1.0370 C   0  0  0  0  0  0  0  0  0  0  0  0
   -7.2520   -1.6430   -2.5580 S   0  0  0  0  0  0  0  0  0  0  0  0
   -7.5920   -0.6490   -0.0310 C   0  0  0  0  0  0  0  0  0  0  0  0
   -8.9460   -0.9660   -0.1670 O   0  0  0  0  0  0  0  0  0  0  0  0
   -7.1230   -0.0720    1.1330 C   0  0  0  0  0  0  0  0  0  0  0  0
   -5.8110    0.2380    1.2710 C   0  0  0  0  0  0  0  0  0  0  0  0
   -5.6370    0.8040    2.5430 O   0  0  0  0  0  0  0  0  0  0  0  0
   -6.9250    1.2620    2.9260 C   0  0  0  0  0  0  0  0  0  0  0  0
   -7.7480    0.2980    2.3040 O   0  0  0  0  0  0  0  0  0  0  0  0
    4.5270   -0.2660   -0.5190 C   0  0  0  0  0  0  0  0  0  0  0  0
    4.2640   -0.9310   -1.5500 O   0  0  0  0  0  0  0  0  0  0  0  0
    5.8780   -0.0590   -0.2330 O   0  0  0  0  0  0  0  0  0  0  0  0
    6.8670   -0.5950   -1.0980 C   0  0  2  0  0  0  0  0  0  0  0  0
    7.7130   -1.5560   -0.2940 C   0  0  0  0  0  0  0  0  0  0  0  0
    7.6780    0.4980   -1.6990 C   0  0  0  0  0  0  0  0  0  0  0  0
    7.4200    1.8530   -1.3920 N   0  0  0  0  0  0  0  0  0  0  0  0
    8.5970    0.1720   -2.4880 O   0  0  0  0  0  0  0  0  0  0  0  0
  2  1  1  1
  2  3  1  0
  2 22  1  0
  3  4  1  0
  4  5  2  0
  4  6  1  0
  6  7  1  0
  7  8  1  0
  8  9  2  0
  8 10  1  0
 10 11  1  0
 11 12  2  0
 11 18  1  0
 12 13  1  0
 13 14  1  0
 13 15  2  0
 15 16  1  0
 15 17  1  0
 17 18  2  0
 17 21  1  0
 18 19  1  0
 19 20  1  0
 20 21  1  0
 22 23  2  0
 22 24  1  0
 24 25  1  0
 25 26  1  1
 25 27  1  0
 27 28  1  0
 27 29  2  0
M  END
