
     RDKit          3D

 29 29  0  0  0  0  0  0  0  0999 V2000
    5.3690    0.1240   -2.7120 C   0  0  0  0  0  0  0  0  0  0  0  0
    4.6950    0.1030   -1.4810 O   0  0  0  0  0  0  0  0  0  0  0  0
    5.1570   -0.4710   -0.3270 C   0  0  0  0  0  0  0  0  0  0  0  0
    6.3220   -1.0110   -0.5010 O   0  0  0  0  0  0  0  0  0  0  0  0
    4.5270   -0.5440    0.9740 C   0  0  0  0  0  0  0  0  0  0  0  0
    5.1350   -1.2170    1.9890 C   0  0  0  0  0  0  0  0  0  0  0  0
    6.4470   -1.9100    1.8840 C   0  0  0  0  0  0  0  0  0  0  0  0
    4.3290   -1.1460    3.1030 O   0  0  0  0  0  0  0  0  0  0  0  0
    3.1900   -0.4370    2.8580 C   0  0  0  0  0  0  0  0  0  0  0  0
    2.2350   -0.1650    3.6100 O   0  0  0  0  0  0  0  0  0  0  0  0
    3.2720    0.0050    1.4090 C   0  0  0  0  0  0  0  0  0  0  0  0
    2.3870    0.7920    0.8860 C   0  0  0  0  0  0  0  0  0  0  0  0
    2.3370    1.4570   -0.3940 C   0  0  0  0  0  0  0  0  0  0  0  0
    1.2900    1.0280   -1.2770 N   0  0  0  0  0  0  0  0  0  0  0  0
   -0.0570    1.1540   -0.8830 C   0  0  0  0  0  0  0  0  0  0  0  0
   -0.4000    1.6410    0.2460 O   0  0  0  0  0  0  0  0  0  0  0  0
   -1.1150    0.7410   -1.7300 N   0  0  0  0  0  0  0  0  0  0  0  0
   -2.5020    0.8800   -1.3030 C   0  0  1  0  0  0  0  0  0  0  0  0
   -3.2370    1.8250   -2.2460 C   0  0  0  0  0  0  0  0  0  0  0  0
   -2.6180    3.0630   -2.2190 O   0  0  0  0  0  0  0  0  0  0  0  0
   -3.1160   -0.4620   -1.3000 C   0  0  0  0  0  0  0  0  0  0  0  0
   -3.2110   -1.1560   -2.5280 O   0  0  0  0  0  0  0  0  0  0  0  0
   -3.5780   -1.0480   -0.2260 C   0  0  0  0  0  0  0  0  0  0  0  0
   -3.5610   -0.4700    1.1470 C   0  0  2  0  0  0  0  0  0  0  0  0
   -3.5580   -1.5980    2.1730 C   0  0  0  0  0  0  0  0  0  0  0  0
   -5.0360    0.4690    1.4600 S   0  0  1  0  0  0  0  0  0  0  0  0
   -6.4350   -0.5910    1.1860 C   0  0  0  0  0  0  0  0  0  0  0  0
   -5.0230    0.8040    2.9380 O   0  0  0  0  0  0  0  0  0  0  0  0
   -5.1140    1.7220    0.6690 O   0  0  0  0  0  0  0  0  0  0  0  0
  1  2  1  0
  2  3  1  0
  3  4  2  0
  3  5  1  0
  5  6  2  0
  5 11  1  0
  6  7  1  0
  6  8  1  0
  8  9  1  0
  9 10  2  0
  9 11  1  0
 11 12  2  3
 12 13  1  0
 13 14  1  0
 14 15  1  0
 15 16  2  0
 15 17  1  0
 17 18  1  0
 18 19  1  6
 18 21  1  0
 19 20  1  0
 21 22  1  0
 21 23  2  3
 23 24  1  0
 24 25  1  1
 24 26  1  0
 26 27  1  1
 26 28  2  0
 26 29  2  0
M  END
