
     RDKit          3D

 29 30  0  0  0  0  0  0  0  0999 V2000
   -5.1470    1.3510   -1.8000 N   0  0  0  0  0  0  0  0  0  0  0  0
   -4.8630    0.1790   -2.5620 C   0  0  0  0  0  0  0  0  0  0  0  0
   -4.2080   -0.8860   -1.8200 C   0  0  0  0  0  0  0  0  0  0  0  0
   -3.8700   -0.8530   -0.5110 C   0  0  0  0  0  0  0  0  0  0  0  0
   -4.0820    0.1450    0.2870 O   0  0  0  0  0  0  0  0  0  0  0  0
   -4.2920    1.1420    1.0860 C   0  0  0  0  0  0  0  0  0  0  0  0
   -3.2400    2.2090    1.2370 C   0  0  0  0  0  0  0  0  0  0  0  0
   -2.0100    1.8850    1.6940 O   0  0  0  0  0  0  0  0  0  0  0  0
   -1.0480    1.1300    1.1340 C   0  0  0  0  0  0  0  0  0  0  0  0
   -1.2100    0.6090    0.0210 O   0  0  0  0  0  0  0  0  0  0  0  0
    0.1930    0.8650    1.7350 O   0  0  0  0  0  0  0  0  0  0  0  0
    1.1570    0.0600    1.0830 C   0  0  0  0  0  0  0  0  0  0  0  0
    2.3580   -0.0030    2.0220 C   0  0  2  0  0  0  0  0  0  0  0  0
    2.8960    1.3900    2.2620 C   0  0  0  0  0  0  0  0  0  0  0  0
    3.2520    1.9090    0.9940 O   0  0  0  0  0  0  0  0  0  0  0  0
    4.1680    1.1340    0.2600 C   0  0  0  0  0  0  0  0  0  0  0  0
    4.9840    1.6800   -0.6910 C   0  0  0  0  0  0  0  0  0  0  0  0
    5.8820    0.8820   -1.4020 C   0  0  0  0  0  0  0  0  0  0  0  0
    5.9460   -0.4720   -1.1430 C   0  0  0  0  0  0  0  0  0  0  0  0
    7.0710   -1.4720   -2.0330 S   0  0  1  0  0  0  0  0  0  0  0  0
    8.4170   -1.3370   -1.3580 O   0  0  0  0  0  0  0  0  0  0  0  0
    6.6240   -2.9050   -2.0630 O   0  0  0  0  0  0  0  0  0  0  0  0
    5.1290   -1.0300   -0.1880 C   0  0  0  0  0  0  0  0  0  0  0  0
    4.2330   -0.2190    0.5170 C   0  0  0  0  0  0  0  0  0  0  0  0
    3.4070   -0.7820    1.4820 O   0  0  0  0  0  0  0  0  0  0  0  0
   -3.2130   -2.1010   -0.0570 C   0  0  0  0  0  0  0  0  0  0  0  0
   -3.0250   -3.1670   -1.0270 N   0  0  0  0  0  0  0  0  0  0  0  0
   -2.8150   -2.2450    1.1680 C   0  0  0  0  0  0  0  0  0  0  0  0
   -2.9580   -1.2910    2.1230 O   0  0  0  0  0  0  0  0  0  0  0  0
  1  2  1  0
  2  3  1  0
  3  4  2  3
  4  5  1  0
  4 26  1  0
  5  6  1  0
  6  7  1  0
  7  8  1  0
  8  9  1  0
  9 10  2  0
  9 11  1  0
 11 12  1  0
 13 12  1  6
 13 14  1  0
 13 25  1  0
 14 15  1  0
 15 16  1  0
 16 17  2  0
 16 24  1  0
 17 18  1  0
 18 19  2  0
 20 19  1  1
 19 23  1  0
 20 21  2  0
 20 22  2  0
 23 24  2  0
 24 25  1  0
 26 27  1  0
 26 28  2  3
 28 29  1  0
M  END
