
     RDKit          3D

 29 30  0  0  0  0  0  0  0  0999 V2000
   -7.1330    0.9970   -0.0830 C   0  0  0  0  0  0  0  0  0  0  0  0
   -6.3810    0.3530   -1.0190 O   0  0  0  0  0  0  0  0  0  0  0  0
   -5.9250   -0.8890   -0.7390 C   0  0  0  0  0  0  0  0  0  0  0  0
   -5.0020   -1.0610    0.4160 C   0  0  2  0  0  0  0  0  0  0  0  0
   -5.4550   -0.6810    1.6310 O   0  0  0  0  0  0  0  0  0  0  0  0
   -3.6140   -0.5800    0.1070 C   0  0  0  0  0  0  0  0  0  0  0  0
   -3.0220    0.2300    0.9450 C   0  0  0  0  0  0  0  0  0  0  0  0
   -3.6540    0.7140    2.2150 C   0  0  0  0  0  0  0  0  0  0  0  0
   -1.6510    0.7210    0.6460 C   0  0  0  0  0  0  0  0  0  0  0  0
   -1.1610    0.1510   -0.5120 O   0  0  0  0  0  0  0  0  0  0  0  0
   -1.8050   -0.7010   -1.3780 C   0  0  0  0  0  0  0  0  0  0  0  0
   -1.1370   -1.1980   -2.6330 C   0  0  0  0  0  0  0  0  0  0  0  0
   -0.0080   -1.9720   -2.4150 O   0  0  0  0  0  0  0  0  0  0  0  0
    1.1240   -1.5020   -1.8080 C   0  0  0  0  0  0  0  0  0  0  0  0
    1.1770   -0.3120   -1.4220 O   0  0  0  0  0  0  0  0  0  0  0  0
    2.3300   -2.3870   -1.5850 C   0  0  0  0  0  0  0  0  0  0  0  0
    3.3570   -1.6550   -0.9420 O   0  0  0  0  0  0  0  0  0  0  0  0
    3.9400   -0.5300   -1.4630 C   0  0  0  0  0  0  0  0  0  0  0  0
    3.5640   -0.1060   -2.5630 O   0  0  0  0  0  0  0  0  0  0  0  0
    4.9820    0.1470   -0.7280 C   0  0  0  0  0  0  0  0  0  0  0  0
    5.5640   -0.0930    0.4560 C   0  0  0  0  0  0  0  0  0  0  0  0
    6.5310    0.7190    0.9070 C   0  0  0  0  0  0  0  0  0  0  0  0
    7.2330    0.5250    2.2180 C   0  0  0  0  0  0  0  0  0  0  0  0
    6.9420   -0.4350    2.9730 O   0  0  0  0  0  0  0  0  0  0  0  0
    8.2110    1.3800    2.6360 O   0  0  0  0  0  0  0  0  0  0  0  0
    6.8940    1.7840    0.1280 C   0  0  0  0  0  0  0  0  0  0  0  0
    7.8540    2.8110    0.3010 N   0  0  0  0  0  0  0  0  0  0  0  0
    5.7930    1.5900   -1.2990 S   0  0  0  0  0  0  0  0  0  0  0  0
   -3.0000   -1.0710   -1.0980 N   0  0  0  0  0  0  0  0  0  0  0  0
  1  2  1  0
  2  3  1  0
  3  4  1  0
  4  5  1  1
  4  6  1  0
  6  7  2  0
  6 29  1  0
  7  8  1  0
  7  9  1  0
  9 10  1  0
 10 11  1  0
 11 12  1  0
 11 29  2  0
 12 13  1  0
 13 14  1  0
 14 15  2  0
 14 16  1  0
 16 17  1  0
 17 18  1  0
 18 19  2  0
 18 20  1  0
 20 21  2  0
 20 28  1  0
 21 22  1  0
 22 23  1  0
 22 26  2  0
 23 24  2  0
 23 25  1  0
 26 27  1  0
 26 28  1  0
M  END
