
     RDKit          3D

 31 32  0  0  0  0  0  0  0  0999 V2000
    7.4050   -2.1040   -1.5190 N   0  0  0  0  0  0  0  0  0  0  0  0
    8.0230   -1.2230   -0.5950 C   0  0  0  0  0  0  0  0  0  0  0  0
    9.2020   -0.5320   -0.9740 N   0  0  0  0  0  0  0  0  0  0  0  0
    7.4980   -1.0720    0.5620 N   0  0  0  0  0  0  0  0  0  0  0  0
    6.2880   -1.7840    0.9390 C   0  0  0  0  0  0  0  0  0  0  0  0
    5.1060   -0.8210    0.9360 C   0  0  0  0  0  0  0  0  0  0  0  0
    4.8980   -0.2160   -0.4260 C   0  0  0  0  0  0  0  0  0  0  0  0
    3.7670    0.6870   -0.3670 N   0  0  0  0  0  0  0  0  0  0  0  0
    2.4610    0.3150   -0.0220 C   0  0  0  0  0  0  0  0  0  0  0  0
    2.2130   -0.8820    0.2620 O   0  0  0  0  0  0  0  0  0  0  0  0
    1.3880    1.3610   -0.0020 C   0  0  2  0  0  0  0  0  0  0  0  0
    1.8010    2.4150    0.9750 C   0  0  0  0  0  0  0  0  0  0  0  0
    0.6040    3.2340    1.4240 C   0  0  0  0  0  0  0  0  0  0  0  0
   -0.3480    2.3520    2.1870 C   0  0  0  0  0  0  0  0  0  0  0  0
   -0.2490    0.8980    1.7760 C   0  0  0  0  0  0  0  0  0  0  0  0
    0.1160    0.8050    0.3820 N   0  0  0  0  0  0  0  0  0  0  0  0
   -0.7110    0.1990   -0.5850 C   0  0  0  0  0  0  0  0  0  0  0  0
   -0.2380    0.1650   -1.7820 O   0  0  0  0  0  0  0  0  0  0  0  0
   -2.0510   -0.3880   -0.3260 C   0  0  1  0  0  0  0  0  0  0  0  0
   -3.0810    0.7030   -0.1460 C   0  0  0  0  0  0  0  0  0  0  0  0
   -4.4590    0.1430    0.1200 C   0  0  2  0  0  0  0  0  0  0  0  0
   -5.4630    1.2810    0.2960 C   0  0  0  0  0  0  0  0  0  0  0  0
   -6.8430    0.6890    0.3140 C   0  0  0  0  0  0  0  0  0  0  0  0
   -7.0160   -0.3930    1.3280 C   0  0  0  0  0  0  0  0  0  0  0  0
   -5.8660   -1.3380    1.4310 C   0  0  0  0  0  0  0  0  0  0  0  0
   -4.5140   -0.6610    1.4020 C   0  0  0  0  0  0  0  0  0  0  0  0
   -2.3910   -1.2410   -1.4550 N   0  0  0  0  0  0  0  0  0  0  0  0
   -2.4620   -0.5590   -2.7110 C   0  0  0  0  0  0  0  0  0  0  0  0
   -3.6540   -0.9810   -3.4710 C   0  0  0  0  0  0  0  0  0  0  0  0
   -4.4220   -1.8390   -3.0090 O   0  0  0  0  0  0  0  0  0  0  0  0
   -3.9090   -0.4160   -4.6980 O   0  0  0  0  0  0  0  0  0  0  0  0
  1  2  1  0
  2  3  1  0
  2  4  2  3
  4  5  1  0
  5  6  1  0
  6  7  1  0
  7  8  1  0
  8  9  1  0
  9 10  2  0
 11  9  1  1
 11 12  1  0
 11 16  1  0
 12 13  1  0
 13 14  1  0
 14 15  1  0
 15 16  1  0
 16 17  1  0
 17 18  2  0
 17 19  1  0
 19 20  1  6
 19 27  1  0
 21 20  1  1
 21 22  1  0
 21 26  1  0
 22 23  1  0
 23 24  1  0
 24 25  1  0
 25 26  1  0
 27 28  1  0
 28 29  1  0
 29 30  2  0
 29 31  1  0
M  CHG  2   4   1  27   1
M  END
