
     RDKit          3D

 29 32  0  0  0  0  0  0  0  0999 V2000
   -7.6120    0.6430    0.9670 C   0  0  0  0  0  0  0  0  0  0  0  0
   -6.2050    0.2420    0.6990 C   0  0  0  0  0  0  0  0  0  0  0  0
   -5.1700    0.8800    1.3210 C   0  0  0  0  0  0  0  0  0  0  0  0
   -3.8450    0.5800    1.1300 C   0  0  0  0  0  0  0  0  0  0  0  0
   -2.7920    1.2310    1.9010 C   0  0  0  0  0  0  0  0  0  0  0  0
   -3.5300   -0.4690    0.2150 C   0  0  0  0  0  0  0  0  0  0  0  0
   -2.1260   -0.6850   -0.0130 C   0  0  1  0  0  0  0  0  0  0  0  0
   -1.7130   -1.5340   -1.1430 C   0  0  0  0  0  0  0  0  0  0  0  0
   -1.8320   -0.8220   -2.5000 C   0  0  0  0  0  0  0  0  0  0  0  0
   -0.6420    0.0630   -2.6110 C   0  0  0  0  0  0  0  0  0  0  0  0
   -0.2640    0.5640   -1.2780 C   0  0  2  0  0  0  0  0  0  0  0  0
    0.9500   -0.0070   -0.8310 O   0  0  0  0  0  0  0  0  0  0  0  0
    2.1310    0.6970   -0.6380 C   0  0  0  0  0  0  0  0  0  0  0  0
    2.0880    1.9220   -0.8850 O   0  0  0  0  0  0  0  0  0  0  0  0
    3.3550    0.0540   -0.1740 C   0  0  0  0  0  0  0  0  0  0  0  0
    3.5750   -1.2300    0.1240 N   0  0  0  0  0  0  0  0  0  0  0  0
    4.8460   -1.4100    0.5200 C   0  0  0  0  0  0  0  0  0  0  0  0
    5.5330   -2.6680    0.9500 C   0  0  0  0  0  0  0  0  0  0  0  0
    5.4910   -0.2010    0.4820 C   0  0  0  0  0  0  0  0  0  0  0  0
    4.5390    0.7170    0.0420 C   0  0  0  0  0  0  0  0  0  0  0  0
    5.0340    2.1220   -0.0750 C   0  0  0  0  0  0  0  0  0  0  0  0
    5.7520    2.4240    1.2450 C   0  0  0  0  0  0  0  0  0  0  0  0
    7.0950    1.6990    1.1690 C   0  0  0  0  0  0  0  0  0  0  0  0
    6.8200    0.2910    0.7740 C   0  0  0  0  0  0  0  0  0  0  0  0
    7.7910   -0.5290    0.6860 O   0  0  0  0  0  0  0  0  0  0  0  0
   -1.3390    0.6140   -0.2200 C   0  0  0  0  0  0  0  0  0  0  0  0
   -4.5590   -1.1290   -0.4150 C   0  0  0  0  0  0  0  0  0  0  0  0
   -4.3860   -2.3290   -1.2600 C   0  0  0  0  0  0  0  0  0  0  0  0
   -5.8990   -0.7670   -0.1710 C   0  0  0  0  0  0  0  0  0  0  0  0
  1  2  1  0
  2  3  2  0
  2 29  1  0
  3  4  1  0
  4  5  1  0
  4  6  2  0
  7  6  1  6
  6 27  1  0
  7  8  1  0
  7 26  1  0
  8  9  1  0
  9 10  1  0
 10 11  1  0
 11 12  1  1
 11 26  1  0
 12 13  1  0
 13 14  2  0
 13 15  1  0
 15 16  1  0
 15 20  2  0
 16 17  1  0
 17 18  1  0
 17 19  2  0
 19 20  1  0
 19 24  1  0
 20 21  1  0
 21 22  1  0
 22 23  1  0
 23 24  1  0
 24 25  2  0
 27 28  1  0
 27 29  2  0
M  END
