
     RDKit          3D

 30 33  0  0  0  0  0  0  0  0999 V2000
    8.5420   -1.3230   -3.2600 C   0  0  0  0  0  0  0  0  0  0  0  0
    7.4710   -0.8400   -2.6050 C   0  0  0  0  0  0  0  0  0  0  0  0
    7.4810    0.5460   -2.2170 C   0  0  0  0  0  0  0  0  0  0  0  0
    6.5420    1.1990   -1.5790 C   0  0  0  0  0  0  0  0  0  0  0  0
    5.3200    0.5800   -1.1640 C   0  0  0  0  0  0  0  0  0  0  0  0
    4.9280   -0.6570   -1.3270 O   0  0  0  0  0  0  0  0  0  0  0  0
    3.7430   -0.8780   -0.8170 C   0  0  0  0  0  0  0  0  0  0  0  0
    2.9060   -1.9660   -0.7220 C   0  0  0  0  0  0  0  0  0  0  0  0
    1.6570   -1.8670   -0.0900 C   0  0  0  0  0  0  0  0  0  0  0  0
    1.2000   -0.7040    0.4610 C   0  0  0  0  0  0  0  0  0  0  0  0
   -0.0450   -0.5070    1.1110 N   0  0  0  0  0  0  0  0  0  0  0  0
   -1.0890   -1.4400    1.2590 C   0  0  0  0  0  0  0  0  0  0  0  0
   -0.9490   -2.5850    0.7790 O   0  0  0  0  0  0  0  0  0  0  0  0
   -2.3650   -1.0980    1.9730 C   0  0  1  0  0  0  0  0  0  0  0  0
   -2.1420   -0.5510    3.3370 C   0  0  0  0  0  0  0  0  0  0  0  0
   -2.4060    0.9090    3.4880 C   0  0  0  0  0  0  0  0  0  0  0  0
   -3.6120    1.3830    2.7850 C   0  0  0  0  0  0  0  0  0  0  0  0
   -3.9850    2.5340    2.8740 O   0  0  0  0  0  0  0  0  0  0  0  0
   -4.3630    0.4030    1.9600 C   0  0  0  0  0  0  0  0  0  0  0  0
   -3.3300   -0.3320    1.1150 C   0  0  2  0  0  0  0  0  0  0  0  0
   -4.0900   -1.2850    0.2160 C   0  0  0  0  0  0  0  0  0  0  0  0
   -5.1090   -0.6040   -0.6290 C   0  0  0  0  0  0  0  0  0  0  0  0
   -4.4100    0.4190   -1.4990 C   0  0  1  0  0  0  0  0  0  0  0  0
   -5.4590    1.2150   -2.2410 C   0  0  0  0  0  0  0  0  0  0  0  0
   -3.5540    1.3590   -0.7220 C   0  0  0  0  0  0  0  0  0  0  0  0
   -2.6410    0.6920    0.2810 C   0  0  0  0  0  0  0  0  0  0  0  0
    2.0720    0.3940    0.3520 C   0  0  0  0  0  0  0  0  0  0  0  0
    3.2970    0.3020   -0.2660 C   0  0  0  0  0  0  0  0  0  0  0  0
    4.2940    1.2380   -0.4810 C   0  0  0  0  0  0  0  0  0  0  0  0
    4.2380    2.6440   -0.0540 C   0  0  0  0  0  0  0  0  0  0  0  0
  1  2  2  0
  2  3  1  0
  3  4  2  3
  4  5  1  0
  5  6  1  0
  5 29  2  0
  6  7  1  0
  7  8  2  0
  7 28  1  0
  8  9  1  0
  9 10  2  0
 10 11  1  0
 10 27  1  0
 11 12  1  0
 12 13  2  0
 14 12  1  6
 14 15  1  0
 14 20  1  0
 15 16  1  0
 16 17  1  0
 17 18  2  0
 17 19  1  0
 20 19  1  1
 20 21  1  0
 20 26  1  0
 21 22  1  0
 22 23  1  0
 23 24  1  1
 23 25  1  0
 25 26  1  0
 27 28  2  0
 28 29  1  0
 29 30  1  0
M  END
