
     RDKit          3D

 31 34  0  0  0  0  0  0  0  0999 V2000
   -3.1310    6.3550    2.1890 C   0  0  0  0  0  0  0  0  0  0  0  0
   -2.7270    5.5870    1.2250 O   0  0  0  0  0  0  0  0  0  0  0  0
   -2.3290    4.8350    0.2730 C   0  0  0  0  0  0  0  0  0  0  0  0
   -1.9590    5.3050   -1.0140 C   0  0  0  0  0  0  0  0  0  0  0  0
   -1.5480    4.4310   -1.9610 C   0  0  0  0  0  0  0  0  0  0  0  0
   -1.4660    3.0890   -1.7420 C   0  0  0  0  0  0  0  0  0  0  0  0
   -1.8160    2.5240   -0.4740 C   0  0  0  0  0  0  0  0  0  0  0  0
   -1.7250    1.2490   -0.2730 O   0  0  0  0  0  0  0  0  0  0  0  0
   -1.5460   -0.0370   -0.3340 C   0  0  0  0  0  0  0  0  0  0  0  0
   -2.4870   -0.8720   -0.4150 C   0  0  0  0  0  0  0  0  0  0  0  0
   -3.0470   -2.1310   -0.4930 C   0  0  0  0  0  0  0  0  0  0  0  0
   -4.3730   -2.2150   -0.6150 O   0  0  0  0  0  0  0  0  0  0  0  0
   -2.5160   -3.4500   -0.4520 N   0  0  0  0  0  0  0  0  0  0  0  0
   -3.4120   -4.6310   -0.4790 C   0  0  1  0  0  0  0  0  0  0  0  0
   -2.8490   -5.9740   -0.2300 C   0  0  0  0  0  0  0  0  0  0  0  0
   -3.5380   -5.2480    0.9190 C   0  0  0  0  0  0  0  0  0  0  0  0
   -0.0880   -0.4810   -0.3350 C   0  0  0  0  0  0  0  0  0  0  0  0
    0.1800   -1.6490   -0.6140 O   0  0  0  0  0  0  0  0  0  0  0  0
    0.8880    0.4780    0.0170 N   0  0  0  0  0  0  0  0  0  0  0  0
    2.2710    0.1460    0.0360 C   0  0  0  0  0  0  0  0  0  0  0  0
    2.9660   -0.8520   -0.3920 C   0  0  0  0  0  0  0  0  0  0  0  0
    4.2960   -0.9860   -0.1420 C   0  0  0  0  0  0  0  0  0  0  0  0
    5.1960   -1.9820   -0.5330 C   0  0  0  0  0  0  0  0  0  0  0  0
    6.5250   -2.0040   -0.2230 C   0  0  0  0  0  0  0  0  0  0  0  0
    7.3610   -3.0330   -0.6730 O   0  0  0  0  0  0  0  0  0  0  0  0
    7.0440   -0.9490    0.5540 C   0  0  0  0  0  0  0  0  0  0  0  0
    6.1950    0.0530    0.9580 C   0  0  0  0  0  0  0  0  0  0  0  0
    4.8660    0.0190    0.6080 C   0  0  0  0  0  0  0  0  0  0  0  0
    3.4670    1.1340    0.9220 S   0  0  0  0  0  0  0  0  0  0  0  0
   -2.2210    3.4400    0.4290 C   0  0  0  0  0  0  0  0  0  0  0  0
   -2.5760    2.9300    1.6750 F   0  0  0  0  0  0  0  0  0  0  0  0
  1  2  1  0
  2  3  1  0
  3  4  2  0
  3 30  1  0
  4  5  1  0
  5  6  2  0
  6  7  1  0
  7  8  1  0
  7 30  2  0
  8  9  1  0
  9 10  2  3
  9 17  1  0
 10 11  1  0
 11 12  2  0
 11 13  1  0
 14 13  1  1
 14 15  1  0
 14 16  1  0
 15 16  1  0
 17 18  2  0
 17 19  1  0
 19 20  1  0
 20 21  2  0
 20 29  1  0
 21 22  1  0
 22 23  2  0
 22 28  1  0
 23 24  1  0
 24 25  1  0
 24 26  2  0
 26 27  1  0
 27 28  2  0
 28 29  1  0
 30 31  1  0
M  END
