
     RDKit          3D

 20 21  0  0  0  0  0  0  0  0999 V2000
    6.3090   -0.4060   -0.0400 C   0  0  0  0  0  0  0  0  0  0  0  0
    5.7210    0.8890   -0.5240 C   0  0  0  0  0  0  0  0  0  0  0  0
    4.3980    1.0290   -0.1540 O   0  0  0  0  0  0  0  0  0  0  0  0
    3.6410   -0.0140   -0.6930 C   0  0  0  0  0  0  0  0  0  0  0  0
    2.2210    0.1200   -0.3110 C   0  0  0  0  0  0  0  0  0  0  0  0
    1.3270    0.2410   -1.2260 N   0  0  0  0  0  0  0  0  0  0  0  0
   -0.1020    0.3850   -1.1200 C   0  0  0  0  0  0  0  0  0  0  0  0
   -0.6800    0.8460   -2.2990 N   0  0  0  0  0  0  0  0  0  0  0  0
   -0.8670    0.1600   -0.0980 C   0  0  0  0  0  0  0  0  0  0  0  0
   -0.4340   -0.3100    1.2440 C   0  0  0  0  0  0  0  0  0  0  0  0
    0.7690   -0.3250    1.7330 N   0  0  0  0  0  0  0  0  0  0  0  0
    1.9420    0.0980    1.1090 N   0  0  0  0  0  0  0  0  0  0  0  0
   -1.3340   -0.8530    2.2750 C   0  0  1  0  0  0  0  0  0  0  0  0
   -0.9880   -0.4210    3.5590 O   0  0  0  0  0  0  0  0  0  0  0  0
   -2.7400   -0.3920    1.9780 C   0  0  0  0  0  0  0  0  0  0  0  0
   -2.9650   -0.7550    0.5160 C   0  0  1  0  0  0  0  0  0  0  0  0
   -4.3150   -1.0120    0.2010 N   0  0  0  0  0  0  0  0  0  0  0  0
   -2.3100    0.3950   -0.2700 C   0  0  2  0  0  0  0  0  0  0  0  0
   -2.9380    0.5600   -1.9000 S   0  0  0  0  0  0  0  0  0  0  0  0
   -4.6460    1.1200   -1.9620 C   0  0  0  0  0  0  0  0  0  0  0  0
  1  2  1  0
  2  3  1  0
  3  4  1  0
  4  5  1  0
  5  6  2  0
  5 12  1  0
  6  7  1  0
  7  8  1  0
  7  9  2  0
  9 10  1  0
  9 18  1  0
 10 11  2  0
 10 13  1  0
 11 12  1  0
 13 14  1  1
 13 15  1  0
 15 16  1  0
 16 17  1  1
 16 18  1  0
 18 19  1  6
 19 20  1  0
M  CHG  1  17   1
M  END
