
     RDKit          3D

 20 21  0  0  0  0  0  0  0  0999 V2000
   -0.2790   -1.8500   -1.4500 C   0  0  0  0  0  0  0  0  0  0  0  0
   -1.0290   -1.3450   -0.2110 C   0  0  1  0  0  0  0  0  0  0  0  0
   -1.9200   -2.4900    0.2290 C   0  0  0  0  0  0  0  0  0  0  0  0
   -0.0250   -1.1000    0.8570 C   0  0  0  0  0  0  0  0  0  0  0  0
    0.3920    0.3300    1.0160 C   0  0  1  0  0  0  0  0  0  0  0  0
    1.3130    0.7820   -0.0060 N   0  0  0  0  0  0  0  0  0  0  0  0
    2.5850    0.2240   -0.2410 C   0  0  0  0  0  0  0  0  0  0  0  0
    3.0370   -0.8010    0.4990 N   0  0  0  0  0  0  0  0  0  0  0  0
    4.2680   -1.3340    0.2650 C   0  0  0  0  0  0  0  0  0  0  0  0
    4.7950   -2.5750    1.1730 S   0  0  0  0  0  0  0  0  0  0  0  0
    5.0400   -0.8310   -0.7170 N   0  0  0  0  0  0  0  0  0  0  0  0
    4.6070    0.1800   -1.4550 C   0  0  0  0  0  0  0  0  0  0  0  0
    5.2780    0.7060   -2.3960 O   0  0  0  0  0  0  0  0  0  0  0  0
    3.3720    0.7010   -1.2060 N   0  0  0  0  0  0  0  0  0  0  0  0
   -0.7490    1.2780    1.1870 C   0  0  0  0  0  0  0  0  0  0  0  0
   -2.0360    0.7760    0.6030 C   0  0  1  0  0  0  0  0  0  0  0  0
   -2.8580    1.9750    0.1850 C   0  0  0  0  0  0  0  0  0  0  0  0
   -3.0970    2.7740    1.3760 N   0  0  0  0  0  0  0  0  0  0  0  0
   -1.8350   -0.1340   -0.5860 C   0  0  1  0  0  0  0  0  0  0  0  0
   -1.3080    0.5340   -1.6790 O   0  0  0  0  0  0  0  0  0  0  0  0
  2  1  1  6
  2  3  1  0
  2  4  1  0
  2 19  1  0
  4  5  1  0
  5  6  1  6
  5 15  1  0
  6  7  1  0
  7  8  2  0
  7 14  1  0
  8  9  1  0
  9 10  2  0
  9 11  1  0
 11 12  1  0
 12 13  2  0
 12 14  1  0
 15 16  1  0
 16 17  1  6
 16 19  1  0
 17 18  1  0
 19 20  1  6
M  CHG  1  18   1
M  END
