
     RDKit          3D

 20 21  0  0  0  0  0  0  0  0999 V2000
   -4.3390    0.1290   -2.0720 C   0  0  0  0  0  0  0  0  0  0  0  0
   -3.0090    0.0600   -1.3310 C   0  0  0  0  0  0  0  0  0  0  0  0
   -3.2550    0.2280    0.0650 N   0  0  1  0  0  0  0  0  0  0  0  0
   -3.6890   -1.0150    0.6860 C   0  0  0  0  0  0  0  0  0  0  0  0
   -2.0980    0.6840    0.8110 C   0  0  1  0  0  0  0  0  0  0  0  0
   -0.8930    0.1790    0.1910 C   0  0  0  0  0  0  0  0  0  0  0  0
    0.1370    0.9700    0.1310 C   0  0  0  0  0  0  0  0  0  0  0  0
    1.3970    0.7140   -0.4120 N   0  0  0  0  0  0  0  0  0  0  0  0
    2.3510    0.0830    0.1180 C   0  0  0  0  0  0  0  0  0  0  0  0
    2.2390   -0.4880    1.4480 C   0  0  0  0  0  0  0  0  0  0  0  0
    1.1550   -0.3380    2.0660 O   0  0  0  0  0  0  0  0  0  0  0  0
    3.3580   -1.2020    2.0150 N   0  0  0  0  0  0  0  0  0  0  0  0
    4.5420   -1.3190    1.2370 C   0  0  0  0  0  0  0  0  0  0  0  0
    5.5500   -1.9450    1.7130 O   0  0  0  0  0  0  0  0  0  0  0  0
    4.6570   -0.7450   -0.1000 C   0  0  0  0  0  0  0  0  0  0  0  0
    5.8530   -0.8760   -0.8560 N   0  0  0  0  0  0  0  0  0  0  0  0
    3.6000   -0.0880   -0.5980 C   0  0  0  0  0  0  0  0  0  0  0  0
    3.7770    0.4530   -1.9180 N   0  0  0  0  0  0  0  0  0  0  0  0
   -0.3310    2.5230    0.8720 S   0  0  0  0  0  0  0  0  0  0  0  0
   -2.1450    2.1800    0.8180 C   0  0  0  0  0  0  0  0  0  0  0  0
  1  2  1  0
  2  3  1  0
  3  4  1  1
  3  5  1  0
  5  6  1  0
  5 20  1  6
  6  7  2  0
  7  8  1  0
  7 19  1  0
  8  9  2  3
  9 10  1  0
  9 17  1  0
 10 11  2  0
 10 12  1  0
 12 13  1  0
 13 14  2  0
 13 15  1  0
 15 16  1  0
 15 17  2  0
 17 18  1  0
 19 20  1  0
M  CHG  1   3   1
M  END
