
     RDKit          3D

 20 21  0  0  0  0  0  0  0  0999 V2000
   -4.1350   -1.8450    0.2080 C   0  0  0  0  0  0  0  0  0  0  0  0
   -3.0540   -0.9770    0.8680 C   0  0  0  0  0  0  0  0  0  0  0  0
   -2.3120   -0.2940   -0.2120 C   0  0  1  0  0  0  0  0  0  0  0  0
   -3.2340    0.5270   -0.9830 N   0  0  0  0  0  0  0  0  0  0  0  0
   -4.0790    1.4040   -0.2870 C   0  0  0  0  0  0  0  0  0  0  0  0
   -1.1250    0.4580    0.1900 C   0  0  0  0  0  0  0  0  0  0  0  0
    0.0740    0.0740   -0.1790 C   0  0  0  0  0  0  0  0  0  0  0  0
    1.3420    0.7740    0.1630 C   0  0  1  0  0  0  0  0  0  0  0  0
    1.1330    1.7500    1.1590 N   0  0  0  0  0  0  0  0  0  0  0  0
   -0.1580    2.1400    1.5160 N   0  0  0  0  0  0  0  0  0  0  0  0
   -1.2420    1.5840    1.1070 C   0  0  0  0  0  0  0  0  0  0  0  0
    2.4440   -0.2180    0.3810 C   0  0  2  0  0  0  0  0  0  0  0  0
    3.7070    0.4420    0.8310 C   0  0  2  0  0  0  0  0  0  0  0  0
    4.2160    1.4480   -0.1810 C   0  0  0  0  0  0  0  0  0  0  0  0
    4.7360   -0.6070    0.9170 N   0  0  0  0  0  0  0  0  0  0  0  0
    2.7250   -0.8010   -1.0190 C   0  0  0  0  0  0  0  0  0  0  0  0
    1.8570   -1.9320   -1.1730 N   0  0  0  0  0  0  0  0  0  0  0  0
    0.2100   -1.4150   -1.0930 S   0  0  1  0  0  0  0  0  0  0  0  0
   -0.4720   -2.5390   -0.2970 O   0  0  0  0  0  0  0  0  0  0  0  0
   -0.2880   -1.3190   -2.4780 O   0  0  0  0  0  0  0  0  0  0  0  0
  1  2  1  0
  3  2  1  1
  3  4  1  0
  3  6  1  0
  4  5  1  0
  6  7  2  0
  6 11  1  0
  7  8  1  0
  7 18  1  0
  8  9  1  1
  8 12  1  0
  9 10  1  0
 10 11  2  0
 12 13  1  0
 12 16  1  6
 13 14  1  6
 13 15  1  0
 16 17  1  0
 18 17  1  6
 18 19  2  0
 18 20  2  0
M  CHG  1   4   1
M  END
