
     RDKit          3D

 19 21  0  0  0  0  0  0  0  0999 V2000
   -3.1240   -0.9990    2.7300 C   0  0  0  0  0  0  0  0  0  0  0  0
   -3.3340   -0.7570    1.2730 C   0  0  0  0  0  0  0  0  0  0  0  0
   -4.4450   -0.8450    0.5740 N   0  0  0  0  0  0  0  0  0  0  0  0
   -4.2450   -0.5560   -0.6960 N   0  0  0  0  0  0  0  0  0  0  0  0
   -2.9210   -0.2540   -0.8720 C   0  0  0  0  0  0  0  0  0  0  0  0
   -2.2730    0.1120   -2.1650 C   0  0  0  0  0  0  0  0  0  0  0  0
   -3.3220    0.1470   -3.1260 O   0  0  0  0  0  0  0  0  0  0  0  0
   -2.3220   -0.3730    0.3610 C   0  0  0  0  0  0  0  0  0  0  0  0
   -0.9360   -0.1410    0.7850 C   0  0  0  0  0  0  0  0  0  0  0  0
   -0.0880    0.2210   -0.3280 N   0  0  0  0  0  0  0  0  0  0  0  0
    1.2660    0.5150    0.1710 C   0  0  1  0  0  0  0  0  0  0  0  0
    1.8750   -0.7150    0.8070 C   0  0  0  0  0  0  0  0  0  0  0  0
    3.3610   -0.3110    0.7620 C   0  0  0  0  0  0  0  0  0  0  0  0
    4.4080   -0.6820    1.5650 C   0  0  0  0  0  0  0  0  0  0  0  0
    5.7570    0.2380    0.8110 S   0  0  0  0  0  0  0  0  0  0  0  0
    4.8430    0.9970   -0.4460 N   0  0  0  0  0  0  0  0  0  0  0  0
    3.5500    0.5220   -0.2440 C   0  0  0  0  0  0  0  0  0  0  0  0
    2.2260    0.7480   -0.9550 C   0  0  2  0  0  0  0  0  0  0  0  0
    2.1380    2.0780   -1.5060 N   0  0  0  0  0  0  0  0  0  0  0  0
  1  2  1  0
  2  3  2  0
  2  8  1  0
  3  4  1  0
  4  5  1  0
  5  6  1  0
  5  8  2  0
  6  7  1  0
  8  9  1  0
  9 10  1  0
 11 10  1  6
 11 12  1  0
 11 18  1  0
 12 13  1  0
 13 14  2  0
 13 17  1  0
 14 15  1  0
 15 16  1  0
 16 17  2  0
 17 18  1  0
 18 19  1  1
M  CHG  1  16   1
M  END
