
     RDKit          3D

 20 21  0  0  0  0  0  0  0  0999 V2000
   -2.5470    1.7970    0.4390 C   0  0  0  0  0  0  0  0  0  0  0  0
   -2.7860    0.5460    1.2460 C   0  0  1  0  0  0  0  0  0  0  0  0
   -4.2090    0.3840    1.4930 N   0  0  0  0  0  0  0  0  0  0  0  0
   -2.3000   -0.6940    0.5490 C   0  0  1  0  0  0  0  0  0  0  0  0
   -2.9840   -0.9110   -0.7820 C   0  0  0  0  0  0  0  0  0  0  0  0
   -2.0270   -1.9510   -1.3860 C   0  0  1  0  0  0  0  0  0  0  0  0
   -2.1300   -1.9940   -2.7580 O   0  0  0  0  0  0  0  0  0  0  0  0
   -0.7270   -1.3290   -0.9550 C   0  0  0  0  0  0  0  0  0  0  0  0
    0.5750   -1.2090   -1.2570 N   0  0  0  0  0  0  0  0  0  0  0  0
    1.1810   -0.4320   -0.3480 C   0  0  0  0  0  0  0  0  0  0  0  0
    2.6400   -0.0520   -0.3280 C   0  0  0  0  0  0  0  0  0  0  0  0
    3.0420    0.7040    0.6250 C   0  0  0  0  0  0  0  0  0  0  0  0
    4.3710    1.1900    0.8460 C   0  0  0  0  0  0  0  0  0  0  0  0
    4.5980    1.9790    1.9130 C   0  0  0  0  0  0  0  0  0  0  0  0
    5.8720    2.4460    2.1260 O   0  0  0  0  0  0  0  0  0  0  0  0
    3.4430   -0.5770   -1.3880 C   0  0  0  0  0  0  0  0  0  0  0  0
    2.8070   -1.4180   -2.3810 N   0  0  0  0  0  0  0  0  0  0  0  0
    5.0200   -0.3460   -1.6310 S   0  0  0  0  0  0  0  0  0  0  0  0
    0.2490   -0.0670    0.5260 N   0  0  0  0  0  0  0  0  0  0  0  0
   -0.9140   -0.6100    0.1610 N   0  0  0  0  0  0  0  0  0  0  0  0
  2  1  1  6
  2  3  1  0
  2  4  1  0
  4  5  1  6
  4 20  1  0
  5  6  1  0
  6  7  1  6
  6  8  1  0
  8  9  2  0
  8 20  1  0
  9 10  1  0
 10 11  1  0
 10 19  2  0
 11 12  2  3
 11 16  1  0
 12 13  1  0
 13 14  2  3
 14 15  1  0
 16 17  1  0
 16 18  2  0
 19 20  1  0
M  CHG  1   3   1
M  END
