
     RDKit          3D

 12 13  0  0  0  0  0  0  0  0999 V2000
    3.2610    1.0690    0.5930 C   0  0  0  0  0  0  0  0  0  0  0  0
    2.4270    0.2480   -0.0240 C   0  0  0  0  0  0  0  0  0  0  0  0
    1.1250   -0.2820    0.5150 C   0  0  0  0  0  0  0  0  0  0  0  0
    0.0910    0.1200   -0.3360 O   0  0  0  0  0  0  0  0  0  0  0  0
   -1.1230   -0.3500    0.1280 C   0  0  2  0  0  0  0  0  0  0  0  0
   -1.7310   -1.2830   -0.8940 C   0  0  0  0  0  0  0  0  0  0  0  0
   -2.8530   -0.5330   -1.5610 C   0  0  0  0  0  0  0  0  0  0  0  0
   -3.3460    0.4020   -0.4800 C   0  0  0  0  0  0  0  0  0  0  0  0
   -2.1340    0.7540    0.3550 C   0  0  0  0  0  0  0  0  0  0  0  0
    2.9940   -0.0230   -1.2610 O   0  0  0  0  0  0  0  0  0  0  0  0
    4.3610    0.3430   -1.2730 C   0  0  0  0  0  0  0  0  0  0  0  0
    4.3620    1.3300   -0.2370 O   0  0  0  0  0  0  0  0  0  0  0  0
  1  2  2  0
  1 12  1  0
  2  3  1  0
  2 10  1  0
  3  4  1  0
  5  4  1  6
  5  6  1  0
  5  9  1  0
  6  7  1  0
  7  8  1  0
  8  9  1  0
 10 11  1  0
 11 12  1  0
M  END
