
     RDKit          3D

 20 21  0  0  0  0  0  0  0  0999 V2000
    5.9630   -1.9240    1.2630 N   0  0  0  0  0  0  0  0  0  0  0  0
    5.2660   -0.9910    0.3890 C   0  0  1  0  0  0  0  0  0  0  0  0
    4.3690   -0.0910    1.2270 C   0  0  0  0  0  0  0  0  0  0  0  0
    3.4230    0.6350    0.3240 C   0  0  2  0  0  0  0  0  0  0  0  0
    2.1570   -0.0620    0.2060 N   0  0  0  0  0  0  0  0  0  0  0  0
    0.9260    0.6120    0.5010 C   0  0  0  0  0  0  0  0  0  0  0  0
    0.9290    1.8170    0.8680 O   0  0  0  0  0  0  0  0  0  0  0  0
   -0.3260   -0.0300    0.3960 N   0  0  0  0  0  0  0  0  0  0  0  0
   -1.5400    0.6090    0.6720 N   0  0  0  0  0  0  0  0  0  0  0  0
   -2.7770   -0.0150    0.3840 C   0  0  0  0  0  0  0  0  0  0  0  0
   -2.7260   -1.1670   -0.1290 O   0  0  0  0  0  0  0  0  0  0  0  0
   -4.0430    0.6800    0.6810 C   0  0  0  0  0  0  0  0  0  0  0  0
   -5.1900   -0.1790    0.2640 C   0  0  1  0  0  0  0  0  0  0  0  0
   -6.5490    0.4820    0.5380 C   0  0  0  0  0  0  0  0  0  0  0  0
   -7.5340   -0.3850   -0.1810 C   0  0  0  0  0  0  0  0  0  0  0  0
   -7.1730   -0.4420   -1.6420 C   0  0  0  0  0  0  0  0  0  0  0  0
   -5.3410   -0.3220   -1.5570 S   0  0  0  0  0  0  0  0  0  0  0  0
    4.0910    0.7790   -1.0370 C   0  0  0  0  0  0  0  0  0  0  0  0
    5.5820    1.0180   -0.8270 C   0  0  0  0  0  0  0  0  0  0  0  0
    6.2160   -0.1830   -0.3530 N   0  0  0  0  0  0  0  0  0  0  0  0
  2  1  1  1
  2  3  1  0
  2 20  1  0
  3  4  1  0
  4  5  1  6
  4 18  1  0
  5  6  1  0
  6  7  2  0
  6  8  1  0
  8  9  1  0
  9 10  1  0
 10 11  2  0
 10 12  1  0
 13 12  1  6
 13 14  1  0
 13 17  1  0
 14 15  1  0
 15 16  1  0
 16 17  1  0
 18 19  1  0
 19 20  1  0
M  CHG  1  20   1
M  END
