
     RDKit          3D

 20 22  0  0  0  0  0  0  0  0999 V2000
    5.0040    2.2320   -1.1900 C   0  0  0  0  0  0  0  0  0  0  0  0
    3.6080    1.5440   -0.2390 S   0  0  0  0  0  0  0  0  0  0  0  0
    3.2840   -0.1710   -0.7670 C   0  0  0  0  0  0  0  0  0  0  0  0
    2.1460   -0.6900    0.0340 C   0  0  1  0  0  0  0  0  0  0  0  0
    0.9090    0.0940   -0.1410 N   0  0  0  0  0  0  0  0  0  0  0  0
   -0.0160   -0.7070    0.6250 C   0  0  1  0  0  0  0  0  0  0  0  0
   -1.4270   -0.4140    0.4310 C   0  0  0  0  0  0  0  0  0  0  0  0
   -2.4130   -1.3620    0.2330 C   0  0  0  0  0  0  0  0  0  0  0  0
   -3.6100   -0.7310    0.0990 N   0  0  0  0  0  0  0  0  0  0  0  0
   -3.4400    0.5740    0.2010 C   0  0  0  0  0  0  0  0  0  0  0  0
   -4.3630    1.6220    0.1310 C   0  0  0  0  0  0  0  0  0  0  0  0
   -5.7450    1.3680   -0.0830 N   0  0  0  0  0  0  0  0  0  0  0  0
   -3.8480    2.8570    0.2780 N   0  0  0  0  0  0  0  0  0  0  0  0
   -2.5210    3.0660    0.4810 C   0  0  0  0  0  0  0  0  0  0  0  0
   -1.6510    2.0320    0.5440 N   0  0  0  0  0  0  0  0  0  0  0  0
   -2.0980    0.7940    0.4070 C   0  0  0  0  0  0  0  0  0  0  0  0
    0.3540   -2.1370    0.4260 C   0  0  2  0  0  0  0  0  0  0  0  0
    0.7190   -2.7360    1.6560 O   0  0  0  0  0  0  0  0  0  0  0  0
    1.6640   -2.0560   -0.3670 C   0  0  2  0  0  0  0  0  0  0  0  0
    2.5370   -3.0700   -0.0290 O   0  0  0  0  0  0  0  0  0  0  0  0
  1  2  1  0
  2  3  1  0
  4  3  1  6
  4  5  1  0
  4 19  1  0
  5  6  1  0
  6  7  1  6
  6 17  1  0
  7  8  2  0
  7 16  1  0
  8  9  1  0
  9 10  1  0
 10 11  2  0
 10 16  1  0
 11 12  1  0
 11 13  1  0
 13 14  2  0
 14 15  1  0
 15 16  2  0
 17 18  1  1
 17 19  1  0
 19 20  1  1
M  CHG  1   5   1
M  END
