
     RDKit          3D

 10 10  0  0  0  0  0  0  0  0999 V2000
    2.6050   -0.8040   -0.1720 C   0  0  0  0  0  0  0  0  0  0  0  0
    1.4280   -0.1620   -0.1080 C   0  0  0  0  0  0  0  0  0  0  0  0
    0.1840   -0.8590    0.1230 C   0  0  0  0  0  0  0  0  0  0  0  0
   -1.0050   -0.2820    0.1960 C   0  0  0  0  0  0  0  0  0  0  0  0
   -2.2570   -1.0180    0.4330 C   0  0  0  0  0  0  0  0  0  0  0  0
   -3.5200   -0.7880   -1.0320 Br  0  0  0  0  0  0  0  0  0  0  0  0
   -1.0210    1.1340    0.0290 N   0  0  0  0  0  0  0  0  0  0  0  0
    0.1350    1.9010   -0.2000 C   0  0  0  0  0  0  0  0  0  0  0  0
    0.1000    3.1680   -0.3460 O   0  0  0  0  0  0  0  0  0  0  0  0
    1.3940    1.2500   -0.2720 N   0  0  0  0  0  0  0  0  0  0  0  0
  1  2  2  0
  2  3  1  0
  2 10  1  0
  3  4  2  0
  4  5  1  0
  4  7  1  0
  5  6  1  0
  7  8  1  0
  8  9  2  0
  8 10  1  0
M  END
