
     RDKit          3D

 28 30  0  0  0  0  0  0  0  0999 V2000
   -3.8010    4.0100    1.4850 C   0  0  0  0  0  0  0  0  0  0  0  0
   -4.6590    3.1050    0.6530 C   0  0  0  0  0  0  0  0  0  0  0  0
   -4.3160    1.6500    0.9360 C   0  0  1  0  0  0  0  0  0  0  0  0
   -5.2410    0.8240    0.0420 C   0  0  0  0  0  0  0  0  0  0  0  0
   -5.1080   -0.6300    0.4040 C   0  0  0  0  0  0  0  0  0  0  0  0
   -3.6720   -1.0150    0.5100 C   0  0  0  0  0  0  0  0  0  0  0  0
   -3.3930   -2.3670    0.5060 C   0  0  0  0  0  0  0  0  0  0  0  0
   -4.4900   -3.3810    0.4010 C   0  0  0  0  0  0  0  0  0  0  0  0
   -2.0810   -2.7810    0.6020 C   0  0  0  0  0  0  0  0  0  0  0  0
   -1.0290   -1.8580    0.7030 C   0  0  0  0  0  0  0  0  0  0  0  0
    0.3230   -2.4180    0.7970 C   0  0  1  0  0  0  0  0  0  0  0  0
    0.3950   -3.4650   -0.2380 N   0  0  0  0  0  0  0  0  0  0  0  0
    1.4180   -1.4580    0.5900 C   0  0  0  0  0  0  0  0  0  0  0  0
    1.5600   -0.5330    1.3980 O   0  0  0  0  0  0  0  0  0  0  0  0
    2.2920   -1.5920   -0.5130 N   0  0  0  0  0  0  0  0  0  0  0  0
    3.3730   -0.7460   -0.8240 C   0  0  0  0  0  0  0  0  0  0  0  0
    3.7790    0.3560   -0.1160 C   0  0  0  0  0  0  0  0  0  0  0  0
    4.8690    1.1550   -0.4840 C   0  0  0  0  0  0  0  0  0  0  0  0
    5.2620    2.3400    0.3260 C   0  0  0  0  0  0  0  0  0  0  0  0
    4.3890    2.4890    1.4500 N   0  0  0  0  0  0  0  0  0  0  0  0
    5.5820    0.8290   -1.6140 C   0  0  0  0  0  0  0  0  0  0  0  0
    6.6840    1.6550   -1.9680 N   0  0  0  0  0  0  0  0  0  0  0  0
    5.2000   -0.2670   -2.3430 C   0  0  0  0  0  0  0  0  0  0  0  0
    4.1270   -1.0400   -1.9670 C   0  0  0  0  0  0  0  0  0  0  0  0
    3.7860   -2.2250   -2.8340 C   0  0  0  0  0  0  0  0  0  0  0  0
   -1.3290   -0.5340    0.7040 C   0  0  0  0  0  0  0  0  0  0  0  0
   -2.6480   -0.0900    0.6080 C   0  0  0  0  0  0  0  0  0  0  0  0
   -2.8690    1.3720    0.6180 C   0  0  0  0  0  0  0  0  0  0  0  0
  1  2  1  0
  3  2  1  6
  3  4  1  0
  3 28  1  0
  4  5  1  0
  5  6  1  0
  6  7  2  0
  6 27  1  0
  7  8  1  0
  7  9  1  0
  9 10  2  0
 10 11  1  0
 10 26  1  0
 11 12  1  6
 11 13  1  0
 13 14  2  0
 13 15  1  0
 15 16  1  0
 16 17  2  0
 16 24  1  0
 17 18  1  0
 18 19  1  0
 18 21  2  0
 19 20  1  0
 21 22  1  0
 21 23  1  0
 23 24  2  0
 24 25  1  0
 26 27  2  0
 27 28  1  0
M  CHG  1  20   1
M  END
