
     RDKit          3D

 28 31  0  0  0  0  0  0  0  0999 V2000
    5.1320    1.4390    1.9040 C   0  0  0  0  0  0  0  0  0  0  0  0
    5.1430    1.0820    0.4120 C   0  0  2  0  0  0  0  0  0  0  0  0
    6.3680    0.2310    0.1130 C   0  0  0  0  0  0  0  0  0  0  0  0
    5.2060    2.2980   -0.4410 C   0  0  0  0  0  0  0  0  0  0  0  0
    4.1660    2.3020   -1.5260 C   0  0  0  0  0  0  0  0  0  0  0  0
    2.8620    2.1830   -0.8470 N   0  0  0  0  0  0  0  0  0  0  0  0
    2.8230    0.8160   -0.4150 C   0  0  0  0  0  0  0  0  0  0  0  0
    1.6720    0.0800   -0.6270 C   0  0  0  0  0  0  0  0  0  0  0  0
    1.6120   -1.2520   -0.2210 C   0  0  0  0  0  0  0  0  0  0  0  0
    0.4620   -2.0630   -0.4310 N   0  0  0  0  0  0  0  0  0  0  0  0
    0.2310   -3.1990    0.4350 C   0  0  0  0  0  0  0  0  0  0  0  0
   -1.2230   -3.0990    0.9200 C   0  0  0  0  0  0  0  0  0  0  0  0
   -2.0140   -3.1390   -0.2000 O   0  0  0  0  0  0  0  0  0  0  0  0
   -1.8840   -2.0010   -0.9900 C   0  0  1  0  0  0  0  0  0  0  0  0
   -2.3630   -0.7440   -0.3610 C   0  0  1  0  0  0  0  0  0  0  0  0
   -2.1480    0.3430   -1.3200 N   0  0  0  0  0  0  0  0  0  0  0  0
   -3.8170   -0.7060   -0.0610 C   0  0  0  0  0  0  0  0  0  0  0  0
   -4.6440   -1.8020   -0.0350 C   0  0  0  0  0  0  0  0  0  0  0  0
   -5.9980   -1.6950    0.2570 C   0  0  0  0  0  0  0  0  0  0  0  0
   -6.5440   -0.4500    0.5320 C   0  0  0  0  0  0  0  0  0  0  0  0
   -5.7340    0.6610    0.5130 C   0  0  0  0  0  0  0  0  0  0  0  0
   -6.3280    1.9950    0.8100 C   0  0  0  0  0  0  0  0  0  0  0  0
   -5.3340    3.0330    0.7440 N   0  0  0  0  0  0  0  0  0  0  0  0
   -4.4010    0.5110    0.2190 C   0  0  0  0  0  0  0  0  0  0  0  0
   -0.4900   -1.8280   -1.5010 C   0  0  0  0  0  0  0  0  0  0  0  0
    2.7200   -1.7720    0.3780 C   0  0  0  0  0  0  0  0  0  0  0  0
    3.8920   -1.0690    0.6090 C   0  0  0  0  0  0  0  0  0  0  0  0
    3.9260    0.2690    0.1920 C   0  0  0  0  0  0  0  0  0  0  0  0
  2  1  1  1
  2  3  1  0
  2  4  1  0
  2 28  1  0
  4  5  1  0
  5  6  1  0
  6  7  1  0
  7  8  2  0
  7 28  1  0
  8  9  1  0
  9 10  1  0
  9 26  2  0
 10 11  1  0
 10 25  1  0
 11 12  1  0
 12 13  1  0
 13 14  1  0
 14 15  1  0
 14 25  1  1
 15 16  1  6
 15 17  1  0
 17 18  2  0
 17 24  1  0
 18 19  1  0
 19 20  2  0
 20 21  1  0
 21 22  1  0
 21 24  2  0
 22 23  1  0
 26 27  1  0
 27 28  2  0
M  CHG  2   6   1  23   1
M  END
