
     RDKit          3D

 28 30  0  0  0  0  0  0  0  0999 V2000
   -8.5580   -2.1870   -2.4790 C   0  0  0  0  0  0  0  0  0  0  0  0
   -7.2090   -1.7630   -2.0390 C   0  0  0  0  0  0  0  0  0  0  0  0
   -6.1300   -2.0420   -2.8280 C   0  0  0  0  0  0  0  0  0  0  0  0
   -4.8670   -1.6440   -2.4140 C   0  0  0  0  0  0  0  0  0  0  0  0
   -4.7080   -0.9790   -1.2280 C   0  0  0  0  0  0  0  0  0  0  0  0
   -3.3820   -0.5800   -0.8260 C   0  0  0  0  0  0  0  0  0  0  0  0
   -2.2640   -0.2250   -0.4870 C   0  0  0  0  0  0  0  0  0  0  0  0
   -0.9520    0.2160   -0.0880 C   0  0  0  0  0  0  0  0  0  0  0  0
   -0.1710    1.0300   -0.8840 C   0  0  0  0  0  0  0  0  0  0  0  0
    1.0760    1.3910   -0.4030 C   0  0  0  0  0  0  0  0  0  0  0  0
    1.5670    0.9820    0.8150 C   0  0  0  0  0  0  0  0  0  0  0  0
    2.9290    1.4140    1.2670 C   0  0  0  0  0  0  0  0  0  0  0  0
    3.8490    0.3790    0.8150 N   0  0  0  0  0  0  0  0  0  0  0  0
    5.2050    0.7060    1.2050 C   0  0  2  0  0  0  0  0  0  0  0  0
    5.6320    2.0000    0.5300 C   0  0  0  0  0  0  0  0  0  0  0  0
    5.4330    1.8850   -0.9430 C   0  0  0  0  0  0  0  0  0  0  0  0
    5.8870    0.6150   -1.5680 C   0  0  0  0  0  0  0  0  0  0  0  0
    5.8400   -0.6100   -0.7370 C   0  0  0  0  0  0  0  0  0  0  0  0
    6.1540   -0.3470    0.7060 C   0  0  2  0  0  0  0  0  0  0  0  0
    6.1750   -1.5260    1.5090 N   0  0  0  0  0  0  0  0  0  0  0  0
    0.7640    0.1680    1.5910 C   0  0  0  0  0  0  0  0  0  0  0  0
   -0.4890   -0.2170    1.1490 C   0  0  0  0  0  0  0  0  0  0  0  0
   -5.7860   -0.6760   -0.3960 C   0  0  0  0  0  0  0  0  0  0  0  0
   -5.5070    0.0120    0.8040 N   0  0  0  0  0  0  0  0  0  0  0  0
   -6.4670    0.4000    1.7550 C   0  0  0  0  0  0  0  0  0  0  0  0
   -6.0680    1.1060    2.9580 N   0  0  0  0  0  0  0  0  0  0  0  0
   -7.6810    0.1540    1.6010 O   0  0  0  0  0  0  0  0  0  0  0  0
   -7.0180   -1.0820   -0.8320 C   0  0  0  0  0  0  0  0  0  0  0  0
  1  2  1  0
  2  3  2  0
  2 28  1  0
  3  4  1  0
  4  5  2  0
  5  6  1  0
  5 23  1  0
  6  7  3  0
  7  8  1  0
  8  9  2  0
  8 22  1  0
  9 10  1  0
 10 11  2  0
 11 12  1  0
 11 21  1  0
 12 13  1  0
 14 13  1  6
 14 15  1  0
 14 19  1  0
 15 16  1  0
 16 17  1  0
 17 18  1  0
 18 19  1  0
 19 20  1  1
 21 22  2  0
 23 24  1  0
 23 28  2  0
 24 25  1  0
 25 26  1  0
 25 27  2  0
M  CHG  1  20   1
M  END
