
     RDKit          3D

 28 30  0  0  0  0  0  0  0  0999 V2000
   -4.4360   -2.6340   -1.2880 C   0  0  0  0  0  0  0  0  0  0  0  0
   -4.8030   -1.3070   -0.8450 C   0  0  0  0  0  0  0  0  0  0  0  0
   -6.3210   -1.0370   -1.0620 C   0  0  0  0  0  0  0  0  0  0  0  0
   -4.1040   -0.3460   -0.3250 C   0  0  0  0  0  0  0  0  0  0  0  0
   -4.7350    0.8330    0.0060 N   0  0  0  0  0  0  0  0  0  0  0  0
   -3.9200    1.7200    0.5270 C   0  0  0  0  0  0  0  0  0  0  0  0
   -4.1870    3.0170    0.9810 C   0  0  0  0  0  0  0  0  0  0  0  0
   -3.1740    3.7710    1.4910 C   0  0  0  0  0  0  0  0  0  0  0  0
   -1.9230    3.2240    1.5390 C   0  0  0  0  0  0  0  0  0  0  0  0
   -1.6710    1.9210    1.0800 C   0  0  0  0  0  0  0  0  0  0  0  0
   -2.6780    1.1390    0.5600 C   0  0  0  0  0  0  0  0  0  0  0  0
   -2.7890   -0.1590    0.0250 C   0  0  0  0  0  0  0  0  0  0  0  0
   -1.7860   -0.9660   -0.1000 C   0  0  0  0  0  0  0  0  0  0  0  0
   -1.7720   -2.2730   -0.6390 N   0  0  0  0  0  0  0  0  0  0  0  0
   -0.3980   -0.6350    0.3300 C   0  0  0  0  0  0  0  0  0  0  0  0
    0.4420   -0.0680   -0.6030 C   0  0  0  0  0  0  0  0  0  0  0  0
    1.7670    0.2120   -0.2790 C   0  0  0  0  0  0  0  0  0  0  0  0
    2.6770    0.8300   -1.2760 C   0  0  0  0  0  0  0  0  0  0  0  0
    4.0050    1.0100   -0.7480 N   0  0  0  0  0  0  0  0  0  0  0  0
    4.9200   -0.0690   -0.6380 C   0  0  0  0  0  0  0  0  0  0  0  0
    4.5470   -1.2040   -1.0180 O   0  0  0  0  0  0  0  0  0  0  0  0
    6.2790    0.1190   -0.0940 C   0  0  2  0  0  0  0  0  0  0  0  0
    7.0160    1.2330   -0.8230 C   0  0  0  0  0  0  0  0  0  0  0  0
    7.0230   -1.1210   -0.2170 N   0  0  0  0  0  0  0  0  0  0  0  0
    2.1960   -0.0960    0.9870 C   0  0  0  0  0  0  0  0  0  0  0  0
    1.3430   -0.6630    1.9070 C   0  0  0  0  0  0  0  0  0  0  0  0
    0.0190   -0.9480    1.6000 C   0  0  0  0  0  0  0  0  0  0  0  0
   -0.9180   -1.5620    2.5830 C   0  0  0  0  0  0  0  0  0  0  0  0
  1  2  1  0
  2  3  1  0
  2  4  2  3
  4  5  1  0
  4 12  1  0
  5  6  1  0
  6  7  2  0
  6 11  1  0
  7  8  1  0
  8  9  2  0
  9 10  1  0
 10 11  2  0
 11 12  1  0
 12 13  2  3
 13 14  1  0
 13 15  1  0
 15 16  2  0
 15 27  1  0
 16 17  1  0
 17 18  1  0
 17 25  2  0
 18 19  1  0
 19 20  1  0
 20 21  2  0
 20 22  1  0
 22 23  1  6
 22 24  1  0
 25 26  1  0
 26 27  2  0
 27 28  1  0
M  CHG  1  24   1
M  END
