
     RDKit          3D

 28 31  0  0  0  0  0  0  0  0999 V2000
   -4.7770    0.3620   -2.7800 C   0  0  0  0  0  0  0  0  0  0  0  0
   -5.7010    0.2720   -1.6090 C   0  0  0  0  0  0  0  0  0  0  0  0
   -5.4190    1.2630   -0.5910 N   0  0  0  0  0  0  0  0  0  0  0  0
   -5.4370    0.7940    0.7480 C   0  0  1  0  0  0  0  0  0  0  0  0
   -6.6280   -0.0320    1.0530 C   0  0  0  0  0  0  0  0  0  0  0  0
   -7.6820   -0.2320    0.0970 N   0  0  0  0  0  0  0  0  0  0  0  0
   -6.8120   -0.6140    2.1530 O   0  0  0  0  0  0  0  0  0  0  0  0
   -4.2050    0.1660    1.2680 C   0  0  2  0  0  0  0  0  0  0  0  0
   -4.3860   -0.2590    2.6660 N   0  0  0  0  0  0  0  0  0  0  0  0
   -2.9630    1.0700    1.2410 C   0  0  0  0  0  0  0  0  0  0  0  0
   -2.1560   -0.1990    1.0540 C   0  0  2  0  0  0  0  0  0  0  0  0
   -1.1550    0.0180    0.0670 N   0  0  0  0  0  0  0  0  0  0  0  0
   -0.2480    1.0520    0.5510 C   0  0  0  0  0  0  0  0  0  0  0  0
    0.9860    0.8990   -0.3400 C   0  0  0  0  0  0  0  0  0  0  0  0
    1.0350   -0.5930   -0.4170 C   0  0  0  0  0  0  0  0  0  0  0  0
    2.1260   -1.3040   -0.5260 C   0  0  0  0  0  0  0  0  0  0  0  0
    3.4510   -0.7320   -0.5880 C   0  0  0  0  0  0  0  0  0  0  0  0
    3.7420    0.3980   -1.3110 C   0  0  0  0  0  0  0  0  0  0  0  0
    5.0090    0.9410   -1.3590 C   0  0  0  0  0  0  0  0  0  0  0  0
    6.0620    0.3470   -0.6590 C   0  0  0  0  0  0  0  0  0  0  0  0
    5.8040   -0.7800    0.0710 C   0  0  0  0  0  0  0  0  0  0  0  0
    4.5260   -1.2970    0.0980 C   0  0  0  0  0  0  0  0  0  0  0  0
    7.0770   -1.2310    0.7290 C   0  0  0  0  0  0  0  0  0  0  0  0
    8.0560   -0.1260    0.5170 C   0  0  1  0  0  0  0  0  0  0  0  0
    9.4060   -0.6570    0.0200 C   0  0  0  0  0  0  0  0  0  0  0  0
    7.4860    0.7370   -0.5590 C   0  0  0  0  0  0  0  0  0  0  0  0
   -0.3840   -1.1030   -0.3360 C   0  0  0  0  0  0  0  0  0  0  0  0
   -3.4480   -0.8390    0.5190 C   0  0  0  0  0  0  0  0  0  0  0  0
  1  2  1  0
  2  3  1  0
  4  3  1  6
  4  5  1  0
  4  8  1  0
  5  6  1  0
  5  7  2  0
  8  9  1  1
  8 10  1  0
  8 28  1  0
 10 11  1  0
 11 12  1  6
 11 28  1  0
 12 13  1  0
 12 27  1  0
 13 14  1  0
 14 15  1  0
 15 16  2  3
 15 27  1  0
 16 17  1  0
 17 18  2  0
 17 22  1  0
 18 19  1  0
 19 20  2  0
 20 21  1  0
 20 26  1  0
 21 22  2  0
 21 23  1  0
 23 24  1  0
 24 25  1  6
 24 26  1  0
M  CHG  2   3   1   9   1
M  END
