
     RDKit          3D

 28 30  0  0  0  0  0  0  0  0999 V2000
   -7.2440   -0.6120   -1.1280 C   0  0  0  0  0  0  0  0  0  0  0  0
   -6.1910   -0.7320   -0.0230 C   0  0  1  0  0  0  0  0  0  0  0  0
   -6.7910   -1.6650    1.0450 C   0  0  0  0  0  0  0  0  0  0  0  0
   -4.9130   -1.3530   -0.4920 C   0  0  0  0  0  0  0  0  0  0  0  0
   -3.6740   -0.6210   -0.1760 C   0  0  0  0  0  0  0  0  0  0  0  0
   -2.4760   -1.3480   -0.0120 C   0  0  0  0  0  0  0  0  0  0  0  0
   -1.2780   -0.6960    0.2420 C   0  0  0  0  0  0  0  0  0  0  0  0
   -0.1170   -1.5270    0.4720 C   0  0  0  0  0  0  0  0  0  0  0  0
    0.7360   -1.9010   -0.6240 C   0  0  0  0  0  0  0  0  0  0  0  0
    1.5600   -0.8350   -1.3070 C   0  0  0  0  0  0  0  0  0  0  0  0
    2.4020   -0.2030   -0.3170 C   0  0  0  0  0  0  0  0  0  0  0  0
    3.6170    0.5240   -0.8620 C   0  0  0  0  0  0  0  0  0  0  0  0
    3.9080    0.5050   -2.0660 O   0  0  0  0  0  0  0  0  0  0  0  0
    4.3330    1.1780    0.1460 N   0  0  0  0  0  0  0  0  0  0  0  0
    5.5580    1.8680    0.0950 C   0  0  0  0  0  0  0  0  0  0  0  0
    6.6900    0.8810   -0.0330 C   0  0  0  0  0  0  0  0  0  0  0  0
    7.2500    0.4030   -1.1550 C   0  0  0  0  0  0  0  0  0  0  0  0
    8.4020   -0.3650   -1.0540 C   0  0  0  0  0  0  0  0  0  0  0  0
    9.0060   -0.6510    0.1530 N   0  0  0  0  0  0  0  0  0  0  0  0
    8.4200   -0.1570    1.2640 C   0  0  0  0  0  0  0  0  0  0  0  0
    7.2930    0.5920    1.2100 C   0  0  0  0  0  0  0  0  0  0  0  0
    6.6010    1.0050    2.3500 N   0  0  0  0  0  0  0  0  0  0  0  0
   -1.3130    0.6760    0.3300 C   0  0  0  0  0  0  0  0  0  0  0  0
   -2.4950    1.4130    0.1700 C   0  0  0  0  0  0  0  0  0  0  0  0
   -3.6780    0.7520   -0.0810 C   0  0  0  0  0  0  0  0  0  0  0  0
   -4.9790    1.4450   -0.2310 C   0  0  2  0  0  0  0  0  0  0  0  0
   -4.9250    2.7500    0.4090 N   0  0  0  0  0  0  0  0  0  0  0  0
   -5.9890    0.6270    0.6060 C   0  0  0  0  0  0  0  0  0  0  0  0
  2  1  1  6
  2  3  1  0
  2  4  1  0
  2 28  1  0
  4  5  1  0
  5  6  2  0
  5 25  1  0
  6  7  1  0
  7  8  1  0
  7 23  2  0
  8  9  1  0
  9 10  1  0
 10 11  1  0
 11 12  1  0
 12 13  2  0
 12 14  1  0
 14 15  1  0
 15 16  1  0
 16 17  2  0
 16 21  1  0
 17 18  1  0
 18 19  2  0
 19 20  1  0
 20 21  2  0
 21 22  1  0
 23 24  1  0
 24 25  2  0
 25 26  1  0
 26 27  1  1
 26 28  1  0
M  CHG  2  19   1  27   1
M  END
