
     RDKit          3D

 23 24  0  0  0  0  0  0  0  0999 V2000
   -3.8680    2.1090    0.4440 C   0  0  0  0  0  0  0  0  0  0  0  0
   -2.9080    1.1170   -0.0300 N   0  0  0  0  0  0  0  0  0  0  0  0
   -3.1500   -0.2600    0.0130 C   0  0  0  0  0  0  0  0  0  0  0  0
   -4.3400   -0.7990    0.5170 C   0  0  0  0  0  0  0  0  0  0  0  0
   -5.2760    0.0580    0.9720 F   0  0  0  0  0  0  0  0  0  0  0  0
   -4.4990   -2.1570    0.5240 C   0  0  0  0  0  0  0  0  0  0  0  0
   -3.5320   -3.0510    0.0530 C   0  0  0  0  0  0  0  0  0  0  0  0
   -2.3690   -2.4770   -0.4380 C   0  0  0  0  0  0  0  0  0  0  0  0
   -1.4230   -3.3330   -0.8980 F   0  0  0  0  0  0  0  0  0  0  0  0
   -2.1760   -1.1170   -0.4600 C   0  0  0  0  0  0  0  0  0  0  0  0
   -0.9450   -0.6310   -0.9840 N   0  0  0  0  0  0  0  0  0  0  0  0
    0.1850   -0.4290   -0.1550 C   0  0  0  0  0  0  0  0  0  0  0  0
    0.0400   -0.7020    1.0600 O   0  0  0  0  0  0  0  0  0  0  0  0
    1.4670    0.0640   -0.6290 C   0  0  0  0  0  0  0  0  0  0  0  0
    1.6760    0.3660   -1.8920 C   0  0  0  0  0  0  0  0  0  0  0  0
    2.9800    0.8520   -2.2920 C   0  0  0  0  0  0  0  0  0  0  0  0
    3.9710    1.0060   -1.4380 C   0  0  0  0  0  0  0  0  0  0  0  0
    3.8230    0.6870    0.0180 C   0  0  0  0  0  0  0  0  0  0  0  0
    4.8310    0.8600    0.7910 C   0  0  0  0  0  0  0  0  0  0  0  0
    6.0040    1.3470    0.1700 F   0  0  0  0  0  0  0  0  0  0  0  0
    5.0140    0.6530    2.2110 C   0  0  0  0  0  0  0  0  0  0  0  0
    3.6490    0.0590    3.0820 Cl  0  0  0  0  0  0  0  0  0  0  0  0
    2.5350    0.2190    0.3460 N   0  0  0  0  0  0  0  0  0  0  0  0
  1  2  1  0
  2  3  1  0
  3  4  2  0
  3 10  1  0
  4  5  1  0
  4  6  1  0
  6  7  2  0
  7  8  1  0
  8  9  1  0
  8 10  2  0
 10 11  1  0
 11 12  1  0
 12 13  2  0
 12 14  1  0
 14 15  2  0
 14 23  1  0
 15 16  1  0
 16 17  2  0
 17 18  1  0
 18 19  2  3
 18 23  1  0
 19 20  1  0
 19 21  1  0
 21 22  1  0
M  END
