
     RDKit          3D

 17 19  0  0  0  0  0  0  0  0999 V2000
    5.3910   -0.0210   -1.3890 O   0  0  0  0  0  0  0  0  0  0  0  0
    4.1970   -0.1640   -0.9950 C   0  0  0  0  0  0  0  0  0  0  0  0
    3.4500    0.9150   -0.8020 N   0  0  0  0  0  0  0  0  0  0  0  0
    2.1770    0.7500   -0.3820 C   0  0  0  0  0  0  0  0  0  0  0  0
    1.6610   -0.5080   -0.1570 C   0  0  0  0  0  0  0  0  0  0  0  0
    2.4620   -1.6230   -0.3670 C   0  0  0  0  0  0  0  0  0  0  0  0
    2.0100   -2.7880   -0.1670 O   0  0  0  0  0  0  0  0  0  0  0  0
    3.7170   -1.3990   -0.7840 N   0  0  0  0  0  0  0  0  0  0  0  0
    0.3070   -0.7150    0.2910 N   0  0  0  0  0  0  0  0  0  0  0  0
   -0.4710    0.2930    0.4970 C   0  0  0  0  0  0  0  0  0  0  0  0
   -1.8520    0.0760    0.9550 C   0  0  1  0  0  0  0  0  0  0  0  0
   -2.8250    0.6650   -0.0750 C   0  0  0  0  0  0  0  0  0  0  0  0
   -4.0400   -0.1930    0.1890 C   0  0  0  0  0  0  0  0  0  0  0  0
   -3.6470   -1.2850    0.9080 O   0  0  0  0  0  0  0  0  0  0  0  0
   -2.2790   -1.3530    0.9340 C   0  0  0  0  0  0  0  0  0  0  0  0
    0.0200    1.6040    0.2780 N   0  0  0  0  0  0  0  0  0  0  0  0
    1.3190    1.8760   -0.1550 N   0  0  0  0  0  0  0  0  0  0  0  0
  1  2  2  0
  2  3  1  0
  2  8  1  0
  3  4  1  0
  4  5  2  0
  4 17  1  0
  5  6  1  0
  5  9  1  0
  6  7  2  0
  6  8  1  0
  9 10  2  0
 11 10  1  6
 10 16  1  0
 11 12  1  0
 11 15  1  0
 12 13  1  0
 13 14  1  0
 14 15  1  0
 16 17  1  0
M  END
