
     RDKit          3D

 23 24  0  0  0  0  0  0  0  0999 V2000
    6.1970   -0.8990    1.5670 C   0  0  0  0  0  0  0  0  0  0  0  0
    5.8940    0.4540    1.3670 O   0  0  0  0  0  0  0  0  0  0  0  0
    4.6550    0.8440    0.8750 C   0  0  0  0  0  0  0  0  0  0  0  0
    4.3210    2.1540    0.6660 C   0  0  0  0  0  0  0  0  0  0  0  0
    3.0750    2.4810    0.1750 C   0  0  0  0  0  0  0  0  0  0  0  0
    2.1310    1.5070   -0.1190 C   0  0  0  0  0  0  0  0  0  0  0  0
    0.8740    1.5150   -0.5940 N   0  0  0  0  0  0  0  0  0  0  0  0
    0.4080    0.2440   -0.6900 C   0  0  0  0  0  0  0  0  0  0  0  0
   -0.9480   -0.0940   -1.1800 C   0  0  0  0  0  0  0  0  0  0  0  0
   -1.8550   -0.1170   -0.0640 N   0  0  0  0  0  0  0  0  0  0  0  0
   -3.2340   -0.4050   -0.1680 C   0  0  0  0  0  0  0  0  0  0  0  0
   -3.6400   -1.6490   -0.1530 C   0  0  0  0  0  0  0  0  0  0  0  0
   -2.6870   -2.8020   -0.0280 C   0  0  1  0  0  0  0  0  0  0  0  0
   -2.4190   -3.3730   -1.2400 F   0  0  0  0  0  0  0  0  0  0  0  0
   -1.5620   -2.4060    0.6490 F   0  0  0  0  0  0  0  0  0  0  0  0
   -4.1830    0.6750   -0.2900 C   0  0  0  0  0  0  0  0  0  0  0  0
   -5.6350    0.3330   -0.3990 C   0  0  0  0  0  0  0  0  0  0  0  0
   -3.8460    1.9440   -0.3120 C   0  0  0  0  0  0  0  0  0  0  0  0
   -2.5560    2.3130   -0.2180 F   0  0  0  0  0  0  0  0  0  0  0  0
   -5.0580    3.1770   -0.4620 Cl  0  0  0  0  0  0  0  0  0  0  0  0
    1.3840   -0.5730   -0.2700 N   0  0  0  0  0  0  0  0  0  0  0  0
    2.4520    0.1760    0.0860 C   0  0  0  0  0  0  0  0  0  0  0  0
    3.7030   -0.1360    0.5780 C   0  0  0  0  0  0  0  0  0  0  0  0
  1  2  1  0
  2  3  1  0
  3  4  2  0
  3 23  1  0
  4  5  1  0
  5  6  2  0
  6  7  1  0
  6 22  1  0
  7  8  2  0
  8  9  1  0
  8 21  1  0
  9 10  1  0
 10 11  1  0
 11 12  2  3
 11 16  1  0
 12 13  1  0
 13 14  1  6
 13 15  1  0
 16 17  1  0
 16 18  2  3
 18 19  1  0
 18 20  1  0
 21 22  1  0
 22 23  2  0
M  END
