
     RDKit          3D

 23 24  0  0  0  0  0  0  0  0999 V2000
   -1.1070    0.2930   -1.0180 O   0  0  0  0  0  0  0  0  0  0  0  0
   -1.6400   -0.7350   -0.5910 C   0  0  0  0  0  0  0  0  0  0  0  0
   -0.8370   -1.9210   -0.5600 N   0  0  0  0  0  0  0  0  0  0  0  0
    0.5300   -1.9440   -0.9960 C   0  0  0  0  0  0  0  0  0  0  0  0
    1.4360   -1.0120   -0.2190 C   0  0  0  0  0  0  0  0  0  0  0  0
    2.7890   -1.1070   -0.7290 N   0  0  0  0  0  0  0  0  0  0  0  0
    3.8200   -0.3320   -0.1650 C   0  0  0  0  0  0  0  0  0  0  0  0
    3.5300    0.5190    0.8760 C   0  0  0  0  0  0  0  0  0  0  0  0
    4.5360    1.2900    1.4430 C   0  0  0  0  0  0  0  0  0  0  0  0
    5.8420    1.2390    0.9970 C   0  0  0  0  0  0  0  0  0  0  0  0
    6.1000    0.3720   -0.0530 C   0  0  0  0  0  0  0  0  0  0  0  0
    7.3670    0.2730   -0.5420 F   0  0  0  0  0  0  0  0  0  0  0  0
    5.1260   -0.4070   -0.6380 C   0  0  0  0  0  0  0  0  0  0  0  0
   -2.9860   -0.7280   -0.1560 N   0  0  0  0  0  0  0  0  0  0  0  0
   -3.8350    0.4130   -0.1610 C   0  0  0  0  0  0  0  0  0  0  0  0
   -3.5250    1.6430   -0.5650 C   0  0  0  0  0  0  0  0  0  0  0  0
   -4.6720    2.5440   -0.4150 C   0  0  0  0  0  0  0  0  0  0  0  0
   -4.7420    4.2560   -0.8140 Cl  0  0  0  0  0  0  0  0  0  0  0  0
   -5.6970    1.8860    0.0810 C   0  0  0  0  0  0  0  0  0  0  0  0
   -5.2260    0.4950    0.2710 C   0  0  0  0  0  0  0  0  0  0  0  0
   -5.9530   -0.4900    0.7500 C   0  0  0  0  0  0  0  0  0  0  0  0
   -5.4610   -1.7280    0.8960 F   0  0  0  0  0  0  0  0  0  0  0  0
   -7.2350   -0.2430    1.1060 F   0  0  0  0  0  0  0  0  0  0  0  0
  1  2  2  0
  2  3  1  0
  2 14  1  0
  3  4  1  0
  4  5  1  0
  5  6  1  0
  6  7  1  0
  7  8  2  0
  7 13  1  0
  8  9  1  0
  9 10  2  0
 10 11  1  0
 11 12  1  0
 11 13  2  0
 14 15  1  0
 15 16  2  0
 15 20  1  0
 16 17  1  0
 17 18  1  0
 17 19  2  0
 19 20  1  0
 20 21  2  3
 21 22  1  0
 21 23  1  0
M  END
