
     RDKit          3D

 23 23  0  0  0  0  0  0  0  0999 V2000
   -4.3950    0.0730   -2.0750 C   0  0  0  0  0  0  0  0  0  0  0  0
   -4.3960   -0.2070   -0.8190 C   0  0  0  0  0  0  0  0  0  0  0  0
   -3.6140    0.2820    0.2830 C   0  0  0  0  0  0  0  0  0  0  0  0
   -3.9800   -0.2390    1.5000 C   0  0  0  0  0  0  0  0  0  0  0  0
   -5.0590   -1.2010    1.6870 C   0  0  1  0  0  0  0  0  0  0  0  0
   -6.2920   -0.6780    1.3200 F   0  0  0  0  0  0  0  0  0  0  0  0
   -4.8470   -2.4350    1.0900 F   0  0  0  0  0  0  0  0  0  0  0  0
   -5.1670   -1.4650    3.0670 F   0  0  0  0  0  0  0  0  0  0  0  0
   -2.5700    1.3060    0.3110 C   0  0  0  0  0  0  0  0  0  0  0  0
   -1.2450    1.0560   -0.0610 N   0  0  0  0  0  0  0  0  0  0  0  0
   -0.6380    0.6380   -1.2380 C   0  0  0  0  0  0  0  0  0  0  0  0
   -1.3500    0.4080   -2.2560 O   0  0  0  0  0  0  0  0  0  0  0  0
    0.8110    0.4120   -1.4790 C   0  0  0  0  0  0  0  0  0  0  0  0
    1.6750    0.6520   -0.3760 N   0  0  0  0  0  0  0  0  0  0  0  0
    3.0920    0.4820   -0.4460 C   0  0  0  0  0  0  0  0  0  0  0  0
    3.7590    1.3590   -1.2060 C   0  0  0  0  0  0  0  0  0  0  0  0
    2.9710    2.6520   -2.0770 Cl  0  0  0  0  0  0  0  0  0  0  0  0
    5.2120    1.2570   -1.3340 C   0  0  0  0  0  0  0  0  0  0  0  0
    5.8940    0.3030   -0.7050 C   0  0  0  0  0  0  0  0  0  0  0  0
    5.1900   -0.6240    0.1000 N   0  0  0  0  0  0  0  0  0  0  0  0
    3.7470   -0.5810    0.2700 C   0  0  0  0  0  0  0  0  0  0  0  0
    3.1970   -1.4820    1.0480 C   0  0  0  0  0  0  0  0  0  0  0  0
    1.7500   -1.5770    1.3460 C   0  0  0  0  0  0  0  0  0  0  0  0
  1  2  2  0
  2  3  1  0
  3  4  2  3
  3  9  1  0
  4  5  1  0
  5  6  1  6
  5  7  1  0
  5  8  1  0
  9 10  1  0
 10 11  1  0
 11 12  2  0
 11 13  1  0
 13 14  1  0
 14 15  1  0
 15 16  2  0
 15 21  1  0
 16 17  1  0
 16 18  1  0
 18 19  2  0
 19 20  1  0
 20 21  1  0
 21 22  2  3
 22 23  1  0
M  END
