
     RDKit          3D

 23 24  0  0  0  0  0  0  0  0999 V2000
    3.2760    2.8340    0.1180 O   0  0  0  0  0  0  0  0  0  0  0  0
    3.1450    1.5130   -0.3580 C   0  0  0  0  0  0  0  0  0  0  0  0
    4.1030    0.6940    0.0390 C   0  0  0  0  0  0  0  0  0  0  0  0
    4.0590   -0.5900   -0.3670 F   0  0  0  0  0  0  0  0  0  0  0  0
    2.0640    1.0820   -1.2050 C   0  0  0  0  0  0  0  0  0  0  0  0
    1.1160    1.8890   -1.5990 C   0  0  0  0  0  0  0  0  0  0  0  0
    0.9530    3.3140   -1.2880 C   0  0  1  0  0  0  0  0  0  0  0  0
   -0.2410    3.7940   -1.8550 F   0  0  0  0  0  0  0  0  0  0  0  0
    0.8460    3.5520    0.0730 F   0  0  0  0  0  0  0  0  0  0  0  0
    2.2320    4.3190   -2.0090 Cl  0  0  0  0  0  0  0  0  0  0  0  0
    2.0400   -0.2710   -1.6240 N   0  0  0  0  0  0  0  0  0  0  0  0
    1.0440   -1.2130   -1.2230 C   0  0  0  0  0  0  0  0  0  0  0  0
    1.0720   -2.4850   -1.6560 N   0  0  0  0  0  0  0  0  0  0  0  0
    0.1280   -3.3730   -1.2750 C   0  0  0  0  0  0  0  0  0  0  0  0
   -0.8990   -2.9850   -0.4220 C   0  0  0  0  0  0  0  0  0  0  0  0
   -0.9290   -1.7040    0.0160 C   0  0  0  0  0  0  0  0  0  0  0  0
   -1.9710   -1.2030    0.9210 C   0  0  0  0  0  0  0  0  0  0  0  0
   -1.9250    0.1200    1.3400 C   0  0  0  0  0  0  0  0  0  0  0  0
   -2.8610    0.6570    2.1800 C   0  0  0  0  0  0  0  0  0  0  0  0
   -3.8950   -0.1160    2.6420 C   0  0  0  0  0  0  0  0  0  0  0  0
   -3.9450   -1.4280    2.2300 C   0  0  0  0  0  0  0  0  0  0  0  0
   -2.9890   -1.9860    1.3690 C   0  0  0  0  0  0  0  0  0  0  0  0
    0.0500   -0.8420   -0.3980 N   0  0  0  0  0  0  0  0  0  0  0  0
  1  2  1  0
  2  3  2  3
  2  5  1  0
  3  4  1  0
  5  6  2  3
  5 11  1  0
  6  7  1  0
  7  8  1  6
  7  9  1  0
  7 10  1  0
 11 12  1  0
 12 13  2  0
 12 23  1  0
 13 14  1  0
 14 15  2  0
 15 16  1  0
 16 17  1  0
 16 23  2  0
 17 18  2  0
 17 22  1  0
 18 19  1  0
 19 20  2  0
 20 21  1  0
 21 22  2  0
M  END
