
     RDKit          3D

 23 24  0  0  0  0  0  0  0  0999 V2000
   -4.3940    0.9890   -0.2840 C   0  0  0  0  0  0  0  0  0  0  0  0
   -3.0340    0.4350   -0.2760 C   0  0  0  0  0  0  0  0  0  0  0  0
   -2.7630   -0.7720   -0.6280 C   0  0  0  0  0  0  0  0  0  0  0  0
   -3.5800   -1.8680   -1.0960 C   0  0  0  0  0  0  0  0  0  0  0  0
   -4.9240   -1.6840   -1.2230 O   0  0  0  0  0  0  0  0  0  0  0  0
   -1.8960    1.3000    0.1610 C   0  0  0  0  0  0  0  0  0  0  0  0
   -0.6470    0.8240    0.1910 N   0  0  0  0  0  0  0  0  0  0  0  0
    0.4130    1.5490    0.5700 C   0  0  0  0  0  0  0  0  0  0  0  0
    1.7460    1.0010    0.5900 N   0  0  0  0  0  0  0  0  0  0  0  0
    1.9410   -0.3690    0.1890 C   0  0  0  0  0  0  0  0  0  0  0  0
    3.3100   -0.8600    0.2320 C   0  0  0  0  0  0  0  0  0  0  0  0
    4.4010   -0.1250    0.6190 C   0  0  0  0  0  0  0  0  0  0  0  0
    5.6620   -0.6110    0.6480 N   0  0  0  0  0  0  0  0  0  0  0  0
    5.8890   -1.8770    0.2850 C   0  0  0  0  0  0  0  0  0  0  0  0
    4.8210   -2.6530   -0.1110 C   0  0  0  0  0  0  0  0  0  0  0  0
    5.0260   -3.9450   -0.4860 F   0  0  0  0  0  0  0  0  0  0  0  0
    3.5320   -2.1890   -0.1510 C   0  0  0  0  0  0  0  0  0  0  0  0
    2.1890   -3.2050   -0.6620 Cl  0  0  0  0  0  0  0  0  0  0  0  0
    0.2520    2.8560    0.9560 C   0  0  0  0  0  0  0  0  0  0  0  0
    1.3150    3.6300    1.3510 F   0  0  0  0  0  0  0  0  0  0  0  0
   -1.0320    3.3710    0.9330 C   0  0  0  0  0  0  0  0  0  0  0  0
   -2.1200    2.5940    0.5340 C   0  0  0  0  0  0  0  0  0  0  0  0
   -3.3280    3.1720    0.5390 F   0  0  0  0  0  0  0  0  0  0  0  0
  1  2  1  0
  2  3  2  3
  2  6  1  0
  3  4  1  0
  4  5  1  0
  6  7  2  0
  6 22  1  0
  7  8  1  0
  8  9  1  0
  8 19  2  0
  9 10  1  0
 10 11  1  0
 11 12  2  0
 11 17  1  0
 12 13  1  0
 13 14  2  0
 14 15  1  0
 15 16  1  0
 15 17  2  0
 17 18  1  0
 19 20  1  0
 19 21  1  0
 21 22  2  0
 22 23  1  0
M  END
