
     RDKit          3D

 17 19  0  0  0  0  0  0  0  0999 V2000
   -1.3250   -2.1710   -2.2960 N   0  0  0  0  0  0  0  0  0  0  0  0
   -1.3080   -1.1080   -1.3430 C   0  0  0  0  0  0  0  0  0  0  0  0
   -2.3210   -0.5390   -0.7660 N   0  0  0  0  0  0  0  0  0  0  0  0
   -1.8550    0.4760    0.1090 N   0  0  0  0  0  0  0  0  0  0  0  0
   -2.6710    1.3640    0.9100 C   0  0  0  0  0  0  0  0  0  0  0  0
   -4.0820    0.7560    0.9750 C   0  0  0  0  0  0  0  0  0  0  0  0
   -4.0240   -0.4860    1.5940 O   0  0  0  0  0  0  0  0  0  0  0  0
   -0.4200    0.5210    0.0490 C   0  0  0  0  0  0  0  0  0  0  0  0
    0.4790    1.2380    0.6230 N   0  0  0  0  0  0  0  0  0  0  0  0
    1.8480    1.0420    0.3500 C   0  0  1  0  0  0  0  0  0  0  0  0
    2.7430    1.2350    1.3940 O   0  0  0  0  0  0  0  0  0  0  0  0
    3.9560    0.7050    0.9270 C   0  0  0  0  0  0  0  0  0  0  0  0
    3.5750   -0.4550   -0.0130 C   0  0  0  0  0  0  0  0  0  0  0  0
    2.1020   -0.4300    0.0970 C   0  0  2  0  0  0  0  0  0  0  0  0
    1.3120   -0.7370   -1.1180 C   0  0  0  0  0  0  0  0  0  0  0  0
    1.6890   -1.1280   -2.2140 O   0  0  0  0  0  0  0  0  0  0  0  0
   -0.1050   -0.5230   -0.8990 N   0  0  0  0  0  0  0  0  0  0  0  0
  1  2  1  0
  2  3  2  0
  2 17  1  0
  3  4  1  0
  4  5  1  0
  4  8  1  0
  5  6  1  0
  6  7  1  0
  8  9  2  0
  8 17  1  0
  9 10  1  0
 10 11  1  1
 10 14  1  0
 11 12  1  0
 12 13  1  0
 14 13  1  6
 14 15  1  0
 15 16  2  0
 15 17  1  0
M  END
