
     RDKit          3D

 23 24  0  0  0  0  0  0  0  0999 V2000
    6.5970    0.1140   -0.6450 C   0  0  0  0  0  0  0  0  0  0  0  0
    5.6700   -0.5200    0.1090 C   0  0  0  0  0  0  0  0  0  0  0  0
    4.3710   -0.8120   -0.5060 C   0  0  0  0  0  0  0  0  0  0  0  0
    3.2400   -0.1900    0.1370 N   0  0  0  0  0  0  0  0  0  0  0  0
    1.9360   -0.4560   -0.4290 C   0  0  0  0  0  0  0  0  0  0  0  0
    1.8250   -1.2030   -1.4400 O   0  0  0  0  0  0  0  0  0  0  0  0
    0.7640    0.1030    0.1240 N   0  0  0  0  0  0  0  0  0  0  0  0
   -0.5500   -0.1060   -0.3670 C   0  0  0  0  0  0  0  0  0  0  0  0
   -0.9430   -0.8550   -1.4260 C   0  0  0  0  0  0  0  0  0  0  0  0
   -2.3170   -0.7350   -1.4890 C   0  0  0  0  0  0  0  0  0  0  0  0
   -2.7750    0.0600   -0.5070 N   0  0  0  0  0  0  0  0  0  0  0  0
   -4.1220    0.4260   -0.2390 C   0  0  0  0  0  0  0  0  0  0  0  0
   -5.1510   -0.4900   -0.2550 C   0  0  0  0  0  0  0  0  0  0  0  0
   -6.4670   -0.1020    0.0120 C   0  0  0  0  0  0  0  0  0  0  0  0
   -6.7610    1.2110    0.2980 C   0  0  0  0  0  0  0  0  0  0  0  0
   -5.7390    2.1380    0.3170 C   0  0  0  0  0  0  0  0  0  0  0  0
   -4.4400    1.7350    0.0490 C   0  0  0  0  0  0  0  0  0  0  0  0
   -3.4310    2.6430    0.0670 F   0  0  0  0  0  0  0  0  0  0  0  0
   -1.6870    0.4460    0.1820 C   0  0  0  0  0  0  0  0  0  0  0  0
    6.0310   -0.8960    1.5030 C   0  0  2  0  0  0  0  0  0  0  0  0
    7.3680   -0.5540    1.7400 F   0  0  0  0  0  0  0  0  0  0  0  0
    5.8710   -2.2710    1.6300 F   0  0  0  0  0  0  0  0  0  0  0  0
    5.0080   -0.0370    2.6470 Cl  0  0  0  0  0  0  0  0  0  0  0  0
  1  2  2  0
  2  3  1  0
  2 20  1  0
  3  4  1  0
  4  5  1  0
  5  6  2  0
  5  7  1  0
  7  8  1  0
  8  9  1  0
  8 19  2  0
  9 10  2  0
 10 11  1  0
 11 12  1  0
 11 19  1  0
 12 13  2  0
 12 17  1  0
 13 14  1  0
 14 15  2  0
 15 16  1  0
 16 17  2  0
 17 18  1  0
 20 21  1  1
 20 22  1  0
 20 23  1  0
M  END
