
     RDKit          3D

 39 40  0  0  0  0  0  0  0  0999 V2000
    6.9930    3.1630    0.1310 C   0  0  0  0  0  0  0  0  0  0  0  0
    7.2450    1.7730    0.0470 O   0  0  0  0  0  0  0  0  0  0  0  0
    6.3300    0.8380    0.5380 C   0  0  0  0  0  0  0  0  0  0  0  0
    5.1510    1.2750    1.1180 C   0  0  0  0  0  0  0  0  0  0  0  0
    4.2180    0.3920    1.6150 C   0  0  0  0  0  0  0  0  0  0  0  0
    3.0550    0.7560    2.1830 O   0  0  0  0  0  0  0  0  0  0  0  0
    2.4140    1.9580    2.4080 C   0  0  0  0  0  0  0  0  0  0  0  0
    2.0260    2.5830    1.0730 C   0  0  0  0  0  0  0  0  0  0  0  0
    1.1770    1.8180    0.3040 O   0  0  0  0  0  0  0  0  0  0  0  0
   -0.1000    1.4140    0.5030 C   0  0  0  0  0  0  0  0  0  0  0  0
   -0.8570    1.7740    1.5960 C   0  0  0  0  0  0  0  0  0  0  0  0
   -2.1550    1.3250    1.7490 C   0  0  0  0  0  0  0  0  0  0  0  0
   -2.9080    1.7640    2.9670 C   0  0  0  0  0  0  0  0  0  0  0  0
   -2.7430    0.4990    0.8090 C   0  0  0  0  0  0  0  0  0  0  0  0
   -4.0710    0.0790    1.0340 N   0  0  0  0  0  0  0  0  0  0  0  0
   -4.8490   -0.7600    0.2160 C   0  0  0  0  0  0  0  0  0  0  0  0
   -4.4080   -1.2290   -0.8410 O   0  0  0  0  0  0  0  0  0  0  0  0
   -6.1950   -1.1240    0.5510 N   0  0  0  0  0  0  0  0  0  0  0  0
   -6.9890   -1.9800   -0.2870 C   0  0  0  0  0  0  0  0  0  0  0  0
   -7.2120   -1.4800   -1.6570 C   0  0  1  0  0  0  0  0  0  0  0  0
   -8.0110   -2.4780   -2.3010 O   0  0  0  0  0  0  0  0  0  0  0  0
   -7.9160   -0.2020   -1.8600 C   0  0  0  0  0  0  0  0  0  0  0  0
   -9.3160   -0.0640   -1.3930 C   0  0  1  0  0  0  0  0  0  0  0  0
   -9.5850   -0.2190    0.0550 C   0  0  0  0  0  0  0  0  0  0  0  0
   -9.9040    1.1290   -1.8680 O   0  0  0  0  0  0  0  0  0  0  0  0
   -1.9760    0.1500   -0.2780 C   0  0  0  0  0  0  0  0  0  0  0  0
   -0.6880    0.5750   -0.4600 C   0  0  0  0  0  0  0  0  0  0  0  0
    0.0720    0.2130   -1.5620 O   0  0  0  0  0  0  0  0  0  0  0  0
   -0.5230   -0.6360   -2.5370 C   0  0  0  0  0  0  0  0  0  0  0  0
    4.4590   -0.9980    1.5380 C   0  0  0  0  0  0  0  0  0  0  0  0
    3.5310   -1.9000    2.0330 O   0  0  0  0  0  0  0  0  0  0  0  0
    3.7640   -3.2860    1.9570 C   0  0  0  0  0  0  0  0  0  0  0  0
    5.6290   -1.4050    0.9610 C   0  0  0  0  0  0  0  0  0  0  0  0
    6.5580   -0.5140    0.4650 C   0  0  0  0  0  0  0  0  0  0  0  0
    7.7960   -1.0180   -0.1400 C   0  0  0  0  0  0  0  0  0  0  0  0
    7.7650   -0.9110   -1.6490 C   0  0  0  0  0  0  0  0  0  0  0  0
    9.0470   -1.4410   -2.1930 C   0  0  0  0  0  0  0  0  0  0  0  0
    9.2890   -1.4020   -3.5850 N   0  0  0  0  0  0  0  0  0  0  0  0
    9.9180   -1.9230   -1.4370 O   0  0  0  0  0  0  0  0  0  0  0  0
  1  2  1  0
  2  3  1  0
  3  4  2  0
  3 34  1  0
  4  5  1  0
  5  6  1  0
  5 30  2  0
  6  7  1  0
  7  8  1  0
  8  9  1  0
  9 10  1  0
 10 11  2  0
 10 27  1  0
 11 12  1  0
 12 13  1  0
 12 14  2  0
 14 15  1  0
 14 26  1  0
 15 16  1  0
 16 17  2  0
 16 18  1  0
 18 19  1  0
 19 20  1  0
 20 21  1  6
 20 22  1  0
 22 23  1  0
 23 24  1  1
 23 25  1  0
 26 27  2  0
 27 28  1  0
 28 29  1  0
 30 31  1  0
 30 33  1  0
 31 32  1  0
 33 34  2  0
 34 35  1  0
 35 36  1  0
 36 37  1  0
 37 38  1  0
 37 39  2  0
M  END
