
     RDKit          3D

 39 40  0  0  0  0  0  0  0  0999 V2000
   10.9360   -1.3850    0.0040 C   0  0  0  0  0  0  0  0  0  0  0  0
    9.5970   -2.0330   -0.2140 C   0  0  0  0  0  0  0  0  0  0  0  0
    8.6080   -1.0420   -0.1220 O   0  0  0  0  0  0  0  0  0  0  0  0
    7.2810   -1.4060   -0.2900 C   0  0  0  0  0  0  0  0  0  0  0  0
    7.0100   -2.6000   -0.5170 O   0  0  0  0  0  0  0  0  0  0  0  0
    6.1900   -0.4460   -0.2120 C   0  0  0  0  0  0  0  0  0  0  0  0
    4.8800   -0.8370   -0.3820 C   0  0  0  0  0  0  0  0  0  0  0  0
    3.8140    0.0570   -0.3130 C   0  0  0  0  0  0  0  0  0  0  0  0
    2.4490   -0.5010   -0.5180 C   0  0  2  0  0  0  0  0  0  0  0  0
    2.4400   -1.3690   -1.6300 O   0  0  0  0  0  0  0  0  0  0  0  0
    1.4260    0.5700   -0.7810 C   0  0  0  0  0  0  0  0  0  0  0  0
    0.1380   -0.0560   -0.9490 N   0  0  0  0  0  0  0  0  0  0  0  0
   -0.4990   -0.8230    0.0790 C   0  0  0  0  0  0  0  0  0  0  0  0
    0.1020   -0.9250    1.1480 O   0  0  0  0  0  0  0  0  0  0  0  0
   -1.7560   -1.4300   -0.1290 N   0  0  0  0  0  0  0  0  0  0  0  0
   -2.5300   -2.1790    0.7950 C   0  0  0  0  0  0  0  0  0  0  0  0
   -3.0750   -1.4640    1.9550 C   0  0  2  0  0  0  0  0  0  0  0  0
   -2.0750   -0.9530    2.9350 C   0  0  0  0  0  0  0  0  0  0  0  0
   -3.8640   -2.4450    2.6660 O   0  0  0  0  0  0  0  0  0  0  0  0
   -3.9940   -0.3130    1.5760 C   0  0  0  0  0  0  0  0  0  0  0  0
   -5.0490   -0.7670    0.7520 O   0  0  0  0  0  0  0  0  0  0  0  0
   -5.9820    0.1600    0.3130 C   0  0  0  0  0  0  0  0  0  0  0  0
   -5.8940    1.4800    0.6610 C   0  0  0  0  0  0  0  0  0  0  0  0
   -6.8420    2.3580    0.2020 C   0  0  0  0  0  0  0  0  0  0  0  0
   -7.8850    1.9600   -0.6010 C   0  0  0  0  0  0  0  0  0  0  0  0
   -8.8920    2.8920   -1.0890 C   0  0  0  0  0  0  0  0  0  0  0  0
   -8.8400    4.2720   -0.7720 N   0  0  0  0  0  0  0  0  0  0  0  0
   -9.8420    2.4970   -1.8120 O   0  0  0  0  0  0  0  0  0  0  0  0
   -7.9780    0.6230   -0.9560 C   0  0  0  0  0  0  0  0  0  0  0  0
   -7.0330   -0.2710   -0.5020 C   0  0  0  0  0  0  0  0  0  0  0  0
   -7.0610   -1.6040   -0.8110 O   0  0  0  0  0  0  0  0  0  0  0  0
   -8.0290   -2.2120   -1.5970 C   0  0  0  0  0  0  0  0  0  0  0  0
   -9.4100   -2.0860   -1.0190 C   0  0  0  0  0  0  0  0  0  0  0  0
    4.1010    1.3660   -0.0650 C   0  0  0  0  0  0  0  0  0  0  0  0
    5.4280    1.7570    0.1070 C   0  0  0  0  0  0  0  0  0  0  0  0
    6.4810    0.8750    0.0390 C   0  0  0  0  0  0  0  0  0  0  0  0
    7.8070    1.2430    0.2070 O   0  0  0  0  0  0  0  0  0  0  0  0
    8.0670    2.6090    0.4630 C   0  0  0  0  0  0  0  0  0  0  0  0
    9.5300    2.8940    0.6280 C   0  0  0  0  0  0  0  0  0  0  0  0
  1  2  1  0
  2  3  1  0
  3  4  1  0
  4  5  2  0
  4  6  1  0
  6  7  2  0
  6 36  1  0
  7  8  1  0
  8  9  1  0
  8 34  2  0
  9 10  1  6
  9 11  1  0
 11 12  1  0
 12 13  1  0
 13 14  2  0
 13 15  1  0
 15 16  1  0
 16 17  1  0
 17 18  1  1
 17 19  1  0
 17 20  1  0
 20 21  1  0
 21 22  1  0
 22 23  2  0
 22 30  1  0
 23 24  1  0
 24 25  2  0
 25 26  1  0
 25 29  1  0
 26 27  1  0
 26 28  2  0
 29 30  2  0
 30 31  1  0
 31 32  1  0
 32 33  1  0
 34 35  1  0
 35 36  2  0
 36 37  1  0
 37 38  1  0
 38 39  1  0
M  END
