
     RDKit          3D

 39 40  0  0  0  0  0  0  0  0999 V2000
    4.5950    2.8820   -2.9240 C   0  0  0  0  0  0  0  0  0  0  0  0
    4.2750    1.8650   -1.8900 C   0  0  0  0  0  0  0  0  0  0  0  0
    5.2610    1.3390   -1.0580 C   0  0  0  0  0  0  0  0  0  0  0  0
    5.0130    0.3950   -0.0890 C   0  0  0  0  0  0  0  0  0  0  0  0
    5.9860   -0.1660    0.7660 N   0  0  0  0  0  0  0  0  0  0  0  0
    7.3840   -0.0880    0.6370 C   0  0  0  0  0  0  0  0  0  0  0  0
    7.8760    0.5290   -0.3290 O   0  0  0  0  0  0  0  0  0  0  0  0
    8.3260   -0.7100    1.6090 C   0  0  1  0  0  0  0  0  0  0  0  0
    9.2390    0.4010    2.1440 C   0  0  0  0  0  0  0  0  0  0  0  0
    7.6880   -1.3550    2.6350 O   0  0  0  0  0  0  0  0  0  0  0  0
    8.0020   -2.6790    2.7860 C   0  0  0  0  0  0  0  0  0  0  0  0
    7.7020   -3.5530    1.6040 C   0  0  0  0  0  0  0  0  0  0  0  0
    8.0960   -4.8620    1.9620 O   0  0  0  0  0  0  0  0  0  0  0  0
    3.6710   -0.0050    0.0020 C   0  0  0  0  0  0  0  0  0  0  0  0
    2.6770    0.4940   -0.8000 C   0  0  0  0  0  0  0  0  0  0  0  0
    1.2850    0.0080   -0.6480 C   0  0  0  0  0  0  0  0  0  0  0  0
    1.0460   -1.2220   -0.5990 O   0  0  0  0  0  0  0  0  0  0  0  0
    0.2030    0.9150   -0.5530 N   0  0  0  0  0  0  0  0  0  0  0  0
   -1.1650    0.5800   -0.4130 C   0  0  0  0  0  0  0  0  0  0  0  0
   -1.9860    1.5870    0.1050 C   0  0  0  0  0  0  0  0  0  0  0  0
   -3.3530    1.4080    0.2810 C   0  0  0  0  0  0  0  0  0  0  0  0
   -3.9500    0.2190   -0.0530 C   0  0  0  0  0  0  0  0  0  0  0  0
   -5.2830   -0.0770    0.0760 O   0  0  0  0  0  0  0  0  0  0  0  0
   -6.2440    0.7830    0.6120 C   0  0  2  0  0  0  0  0  0  0  0  0
   -7.1790    0.0200    1.5300 C   0  0  0  0  0  0  0  0  0  0  0  0
   -6.3430   -0.5900    2.6390 C   0  0  0  0  0  0  0  0  0  0  0  0
   -5.7200    0.4480    3.3250 O   0  0  0  0  0  0  0  0  0  0  0  0
   -7.0080    1.3860   -0.5630 C   0  0  0  0  0  0  0  0  0  0  0  0
   -8.0750    2.3360   -0.0890 C   0  0  0  0  0  0  0  0  0  0  0  0
   -8.8100    2.9390   -1.2270 C   0  0  0  0  0  0  0  0  0  0  0  0
   -9.8230    3.9000   -1.0160 N   0  0  0  0  0  0  0  0  0  0  0  0
   -8.5510    2.6110   -2.4180 O   0  0  0  0  0  0  0  0  0  0  0  0
   -3.1130   -0.7950   -0.5780 C   0  0  0  0  0  0  0  0  0  0  0  0
   -3.7350   -1.9700   -0.9130 O   0  0  0  0  0  0  0  0  0  0  0  0
   -3.0760   -3.0380   -1.5140 C   0  0  0  0  0  0  0  0  0  0  0  0
   -2.6450   -2.6430   -2.9070 C   0  0  0  0  0  0  0  0  0  0  0  0
   -1.9540   -3.6850   -3.5610 O   0  0  0  0  0  0  0  0  0  0  0  0
   -1.7550   -0.6000   -0.7450 C   0  0  0  0  0  0  0  0  0  0  0  0
    3.0000    1.4340   -1.7460 C   0  0  0  0  0  0  0  0  0  0  0  0
  1  2  1  0
  2  3  2  0
  2 39  1  0
  3  4  1  0
  4  5  1  0
  4 14  2  0
  5  6  1  0
  6  7  2  0
  6  8  1  0
  8  9  1  1
  8 10  1  0
 10 11  1  0
 11 12  1  0
 12 13  1  0
 14 15  1  0
 15 16  1  0
 15 39  2  0
 16 17  2  0
 16 18  1  0
 18 19  1  0
 19 20  2  0
 19 38  1  0
 20 21  1  0
 21 22  2  0
 22 23  1  0
 22 33  1  0
 23 24  1  0
 24 25  1  1
 24 28  1  0
 25 26  1  0
 26 27  1  0
 28 29  1  0
 29 30  1  0
 30 31  1  0
 30 32  2  0
 33 34  1  0
 33 38  2  0
 34 35  1  0
 35 36  1  0
 36 37  1  0
M  END
