
     RDKit          3D

 39 39  0  0  0  0  0  0  0  0999 V2000
    7.5410    7.5930   -0.5300 C   0  0  0  0  0  0  0  0  0  0  0  0
    7.4870    6.1900   -0.7310 O   0  0  0  0  0  0  0  0  0  0  0  0
    6.2970    5.4820   -0.6350 C   0  0  0  0  0  0  0  0  0  0  0  0
    5.2380    6.0900   -0.3650 O   0  0  0  0  0  0  0  0  0  0  0  0
    6.2920    4.0460   -0.8490 N   0  0  0  0  0  0  0  0  0  0  0  0
    5.0480    3.3090   -0.7460 C   0  0  0  0  0  0  0  0  0  0  0  0
    4.0830    4.0300   -0.4790 O   0  0  0  0  0  0  0  0  0  0  0  0
    5.0110    1.8630   -0.9440 C   0  0  0  0  0  0  0  0  0  0  0  0
    6.2260    1.2780   -1.1860 C   0  0  0  0  0  0  0  0  0  0  0  0
    6.3240   -0.0650   -1.3890 O   0  0  0  0  0  0  0  0  0  0  0  0
    3.9130    0.9790   -0.8460 C   0  0  0  0  0  0  0  0  0  0  0  0
    2.6840    0.9460   -0.6970 C   0  0  0  0  0  0  0  0  0  0  0  0
    1.4310    1.6450   -0.5250 C   0  0  0  0  0  0  0  0  0  0  0  0
    1.3070    3.0990   -0.6310 C   0  0  0  0  0  0  0  0  0  0  0  0
    0.3210    0.8950   -0.3590 C   0  0  0  0  0  0  0  0  0  0  0  0
   -1.0020    1.3220   -0.1670 C   0  0  0  0  0  0  0  0  0  0  0  0
   -1.3620    2.5160   -0.1000 O   0  0  0  0  0  0  0  0  0  0  0  0
   -2.0820    0.3360   -0.0300 N   0  0  0  0  0  0  0  0  0  0  0  0
   -3.4070    0.8140    0.1610 C   0  0  0  0  0  0  0  0  0  0  0  0
   -4.4130   -0.3830    0.3020 C   0  0  2  0  0  0  0  0  0  0  0  0
   -3.9390   -1.1030    1.5000 C   0  0  0  0  0  0  0  0  0  0  0  0
   -4.6300   -2.2920    2.0100 C   0  0  2  0  0  0  0  0  0  0  0  0
   -3.8260   -2.7100    3.2830 C   0  0  0  0  0  0  0  0  0  0  0  0
   -4.5720   -3.5320    1.1490 C   0  0  0  0  0  0  0  0  0  0  0  0
   -4.4290   -1.1030   -0.9960 C   0  0  0  0  0  0  0  0  0  0  0  0
   -5.4290   -0.5330   -1.9850 C   0  0  0  0  0  0  0  0  0  0  0  0
   -6.8210   -0.5220   -1.4320 C   0  0  2  0  0  0  0  0  0  0  0  0
   -7.5940    0.6320   -1.9980 C   0  0  0  0  0  0  0  0  0  0  0  0
   -7.0120    1.8570   -1.6980 O   0  0  0  0  0  0  0  0  0  0  0  0
   -6.8590   -0.4670    0.0620 C   0  0  0  0  0  0  0  0  0  0  0  0
   -5.7200    0.3280    0.5780 C   0  0  0  0  0  0  0  0  0  0  0  0
    4.4350   -0.4500   -0.9600 O   0  0  0  0  0  0  0  0  0  0  0  0
    4.4150   -1.1250    0.2940 C   0  0  0  0  0  0  0  0  0  0  0  0
    4.9000   -2.5050    0.1170 C   0  0  0  0  0  0  0  0  0  0  0  0
    5.2100   -2.9120   -1.0120 O   0  0  0  0  0  0  0  0  0  0  0  0
    5.0070   -3.3520    1.2380 N   0  0  0  0  0  0  0  0  0  0  0  0
    5.4410   -4.7060    1.2560 C   0  0  0  0  0  0  0  0  0  0  0  0
    4.5160   -5.5820    0.4600 C   0  0  0  0  0  0  0  0  0  0  0  0
    4.3870   -5.2710   -0.8720 O   0  0  0  0  0  0  0  0  0  0  0  0
  1  2  1  0
  2  3  1  0
  3  4  2  0
  3  5  1  0
  5  6  1  0
  6  7  2  0
  6  8  1  0
  8  9  2  3
  8 11  1  0
  9 10  1  0
 11 12  2  3
 11 32  1  0
 12 13  1  0
 13 14  1  0
 13 15  2  3
 15 16  1  0
 16 17  2  0
 16 18  1  0
 18 19  1  0
 20 19  1  6
 20 21  1  0
 20 25  1  0
 20 31  1  0
 21 22  1  0
 22 23  1  1
 22 24  1  0
 25 26  1  0
 26 27  1  0
 27 28  1  6
 27 30  1  0
 28 29  1  0
 30 31  1  0
 32 33  1  0
 33 34  1  0
 34 35  2  0
 34 36  1  0
 36 37  1  0
 37 38  1  0
 38 39  1  0
M  END
