
     RDKit          3D

 39 40  0  0  0  0  0  0  0  0999 V2000
   -5.0000    3.9890    4.2050 C   0  0  0  0  0  0  0  0  0  0  0  0
   -4.5350    3.5940    2.9490 O   0  0  0  0  0  0  0  0  0  0  0  0
   -5.0930    2.3480    2.6650 C   0  0  0  0  0  0  0  0  0  0  0  0
   -4.6300    1.8750    1.3270 C   0  0  0  0  0  0  0  0  0  0  0  0
   -3.8100    2.5920    0.5820 C   0  0  0  0  0  0  0  0  0  0  0  0
   -3.2920    2.2410   -0.7310 C   0  0  2  0  0  0  0  0  0  0  0  0
   -4.2200    1.3830   -1.5740 C   0  0  0  0  0  0  0  0  0  0  0  0
   -5.5110    2.1430   -1.7800 C   0  0  0  0  0  0  0  0  0  0  0  0
   -6.4070    1.4050   -2.5500 O   0  0  0  0  0  0  0  0  0  0  0  0
   -2.0870    1.4560   -0.5620 N   0  0  0  0  0  0  0  0  0  0  0  0
   -0.8230    1.8070   -1.1410 C   0  0  0  0  0  0  0  0  0  0  0  0
   -0.7720    2.8380   -1.8220 O   0  0  0  0  0  0  0  0  0  0  0  0
    0.2710    0.9570   -0.8990 N   0  0  0  0  0  0  0  0  0  0  0  0
    1.5480    1.1690   -1.4180 C   0  0  0  0  0  0  0  0  0  0  0  0
    1.7990    2.0080   -2.4620 C   0  0  0  0  0  0  0  0  0  0  0  0
    3.0980    2.2220   -2.9600 C   0  0  0  0  0  0  0  0  0  0  0  0
    3.3370    3.0760   -4.0200 O   0  0  0  0  0  0  0  0  0  0  0  0
    4.1410    1.5560   -2.3630 C   0  0  0  0  0  0  0  0  0  0  0  0
    5.4690    1.7100   -2.7960 O   0  0  0  0  0  0  0  0  0  0  0  0
    5.9960    0.8590   -3.8020 C   0  0  0  0  0  0  0  0  0  0  0  0
    3.8740    0.7110   -1.3100 C   0  0  0  0  0  0  0  0  0  0  0  0
    4.9200    0.0340   -0.7020 O   0  0  0  0  0  0  0  0  0  0  0  0
    4.7730   -0.8410    0.3730 C   0  0  0  0  0  0  0  0  0  0  0  0
    6.1360   -1.3570    0.7170 C   0  0  0  0  0  0  0  0  0  0  0  0
    7.0180   -0.6480    1.4970 C   0  0  0  0  0  0  0  0  0  0  0  0
    8.2760   -1.1360    1.8110 C   0  0  0  0  0  0  0  0  0  0  0  0
    8.6730   -2.3670    1.3370 C   0  0  0  0  0  0  0  0  0  0  0  0
   10.0420   -2.8880    1.6830 C   0  0  0  0  0  0  0  0  0  0  0  0
    7.7980   -3.0900    0.5530 C   0  0  0  0  0  0  0  0  0  0  0  0
    8.1910   -4.3520    0.0630 N   0  0  0  0  0  0  0  0  0  0  0  0
    6.5500   -2.5920    0.2490 C   0  0  0  0  0  0  0  0  0  0  0  0
    2.6130    0.4960   -0.8170 C   0  0  0  0  0  0  0  0  0  0  0  0
   -5.1160    0.6420    0.9240 O   0  0  0  0  0  0  0  0  0  0  0  0
   -5.9200   -0.2110    1.6720 C   0  0  0  0  0  0  0  0  0  0  0  0
   -6.1890   -1.4380    0.7950 C   0  0  0  0  0  0  0  0  0  0  0  0
   -6.9810   -2.3400    1.4590 O   0  0  0  0  0  0  0  0  0  0  0  0
   -7.2310   -3.4490    0.6800 C   0  0  0  0  0  0  0  0  0  0  0  0
   -5.9740   -4.1840    0.2800 C   0  0  0  0  0  0  0  0  0  0  0  0
   -5.2710   -4.6300    1.3870 O   0  0  0  0  0  0  0  0  0  0  0  0
  1  2  1  0
  2  3  1  0
  3  4  1  0
  4  5  2  3
  4 33  1  0
  5  6  1  0
  6  7  1  1
  6 10  1  0
  7  8  1  0
  8  9  1  0
 10 11  1  0
 11 12  2  0
 11 13  1  0
 13 14  1  0
 14 15  2  0
 14 32  1  0
 15 16  1  0
 16 17  1  0
 16 18  2  0
 18 19  1  0
 18 21  1  0
 19 20  1  0
 21 22  1  0
 21 32  2  0
 22 23  1  0
 23 24  1  0
 24 25  2  0
 24 31  1  0
 25 26  1  0
 26 27  2  0
 27 28  1  0
 27 29  1  0
 29 30  1  0
 29 31  2  0
 33 34  1  0
 34 35  1  0
 35 36  1  0
 36 37  1  0
 37 38  1  0
 38 39  1  0
M  END
