
     RDKit          3D

 39 40  0  0  0  0  0  0  0  0999 V2000
   -3.3140   -2.4180    2.5520 C   0  0  0  0  0  0  0  0  0  0  0  0
   -3.5770   -2.5330    1.0870 C   0  0  0  0  0  0  0  0  0  0  0  0
   -4.8750   -1.8590    0.6590 C   0  0  2  0  0  0  0  0  0  0  0  0
   -4.8950   -0.4920    0.9470 O   0  0  0  0  0  0  0  0  0  0  0  0
   -5.0380    0.5310    0.0180 C   0  0  0  0  0  0  0  0  0  0  0  0
   -3.8910    0.9780   -0.6660 C   0  0  0  0  0  0  0  0  0  0  0  0
   -2.7310    0.3990   -0.3760 O   0  0  0  0  0  0  0  0  0  0  0  0
   -1.4180    0.5530   -0.7790 C   0  0  0  0  0  0  0  0  0  0  0  0
   -0.9040    1.8980   -0.4040 C   0  0  0  0  0  0  0  0  0  0  0  0
    0.4550    2.1440   -0.7940 N   0  0  0  0  0  0  0  0  0  0  0  0
    0.8470    2.6800   -1.9630 C   0  0  0  0  0  0  0  0  0  0  0  0
    0.0160    3.1400   -3.1050 C   0  0  0  0  0  0  0  0  0  0  0  0
    2.2230    2.7260   -1.9070 C   0  0  0  0  0  0  0  0  0  0  0  0
    2.6590    2.2140   -0.6950 C   0  0  0  0  0  0  0  0  0  0  0  0
    4.0260    2.0830   -0.2370 C   0  0  0  0  0  0  0  0  0  0  0  0
    4.9750    2.4500   -0.9940 O   0  0  0  0  0  0  0  0  0  0  0  0
    4.3260    1.5660    1.0120 O   0  0  0  0  0  0  0  0  0  0  0  0
    5.6470    1.4250    1.4850 C   0  0  0  0  0  0  0  0  0  0  0  0
    6.4200    0.5120    0.5820 C   0  0  0  0  0  0  0  0  0  0  0  0
    5.8260    0.0360   -0.3840 O   0  0  0  0  0  0  0  0  0  0  0  0
    7.7650    0.2790    0.9190 N   0  0  0  0  0  0  0  0  0  0  0  0
    8.6660   -0.5590    0.2210 C   0  0  0  0  0  0  0  0  0  0  0  0
    8.4160   -2.0030    0.2120 C   0  0  2  0  0  0  0  0  0  0  0  0
    7.2080   -2.4840   -0.5130 C   0  0  0  0  0  0  0  0  0  0  0  0
    8.4490   -2.6280    1.5990 C   0  0  0  0  0  0  0  0  0  0  0  0
    9.5250   -2.6000   -0.5040 O   0  0  0  0  0  0  0  0  0  0  0  0
    1.5150    1.8590   -0.0230 C   0  0  0  0  0  0  0  0  0  0  0  0
    1.5000    1.2500    1.3570 C   0  0  0  0  0  0  0  0  0  0  0  0
   -4.0300    1.9790   -1.5850 C   0  0  0  0  0  0  0  0  0  0  0  0
   -5.2520    2.5710   -1.8670 C   0  0  0  0  0  0  0  0  0  0  0  0
   -5.3650    3.5840   -2.8050 O   0  0  0  0  0  0  0  0  0  0  0  0
   -6.3490    2.1210   -1.1880 C   0  0  0  0  0  0  0  0  0  0  0  0
   -6.2580    1.0910   -0.2310 C   0  0  0  0  0  0  0  0  0  0  0  0
   -7.4750    0.7660    0.4950 C   0  0  0  0  0  0  0  0  0  0  0  0
   -8.7450    1.2220    0.0260 N   0  0  0  0  0  0  0  0  0  0  0  0
   -7.4900    0.0890    1.5360 O   0  0  0  0  0  0  0  0  0  0  0  0
   -6.0580   -2.6570    1.0960 C   0  0  1  0  0  0  0  0  0  0  0  0
   -5.8030   -4.1000    0.6680 C   0  0  0  0  0  0  0  0  0  0  0  0
   -6.2810   -2.6060    2.4630 O   0  0  0  0  0  0  0  0  0  0  0  0
  1  2  1  0
  3  2  1  1
  3  4  1  0
  3 37  1  0
  4  5  1  0
  5  6  2  0
  5 33  1  0
  6  7  1  0
  6 29  1  0
  7  8  1  0
  8  9  1  0
  9 10  1  0
 10 11  1  0
 10 27  1  0
 11 12  1  0
 11 13  2  0
 13 14  1  0
 14 15  1  0
 14 27  2  0
 15 16  2  0
 15 17  1  0
 17 18  1  0
 18 19  1  0
 19 20  2  0
 19 21  1  0
 21 22  1  0
 22 23  1  0
 23 24  1  6
 23 25  1  0
 23 26  1  0
 27 28  1  0
 29 30  2  0
 30 31  1  0
 30 32  1  0
 32 33  2  0
 33 34  1  0
 34 35  1  0
 34 36  2  0
 37 38  1  1
 37 39  1  0
M  END
