
     RDKit          3D

 39 40  0  0  0  0  0  0  0  0999 V2000
   -2.1940    0.0690    4.7940 C   0  0  0  0  0  0  0  0  0  0  0  0
   -2.8110    0.0320    3.4230 C   0  0  0  0  0  0  0  0  0  0  0  0
   -1.8990    0.6620    2.5080 O   0  0  0  0  0  0  0  0  0  0  0  0
   -2.2500    0.7460    1.1560 C   0  0  0  0  0  0  0  0  0  0  0  0
   -3.4220    0.2630    0.6610 C   0  0  0  0  0  0  0  0  0  0  0  0
   -3.7940    0.3370   -0.7010 C   0  0  0  0  0  0  0  0  0  0  0  0
   -5.0930   -0.2030   -1.0280 C   0  0  0  0  0  0  0  0  0  0  0  0
   -5.5090   -1.1720   -0.2450 O   0  0  0  0  0  0  0  0  0  0  0  0
   -5.9860    0.1540   -2.0550 N   0  0  0  0  0  0  0  0  0  0  0  0
   -7.2680   -0.5570   -2.1880 C   0  0  1  0  0  0  0  0  0  0  0  0
   -8.4320    0.3860   -1.9520 C   0  0  0  0  0  0  0  0  0  0  0  0
   -7.4100   -1.1530   -3.5590 C   0  0  0  0  0  0  0  0  0  0  0  0
   -8.6130   -1.8250   -3.7040 O   0  0  0  0  0  0  0  0  0  0  0  0
   -2.9140    0.9320   -1.5650 C   0  0  0  0  0  0  0  0  0  0  0  0
   -3.2100    1.0600   -3.0180 C   0  0  0  0  0  0  0  0  0  0  0  0
   -3.1650   -0.2620   -3.7250 C   0  0  0  0  0  0  0  0  0  0  0  0
   -1.8600   -0.7590   -3.5540 O   0  0  0  0  0  0  0  0  0  0  0  0
   -1.7120    1.4240   -1.0390 C   0  0  0  0  0  0  0  0  0  0  0  0
   -1.3410    1.3580    0.2820 C   0  0  0  0  0  0  0  0  0  0  0  0
   -0.1670    1.8550    0.7060 O   0  0  0  0  0  0  0  0  0  0  0  0
    0.9370    2.4500    0.2210 C   0  0  0  0  0  0  0  0  0  0  0  0
    1.7880    1.7870   -0.7840 C   0  0  0  0  0  0  0  0  0  0  0  0
    2.4040    0.4720   -0.4490 C   0  0  2  0  0  0  0  0  0  0  0  0
    3.2980    0.4660    0.7120 C   0  0  0  0  0  0  0  0  0  0  0  0
    3.1420   -0.3580    1.7300 C   0  0  0  0  0  0  0  0  0  0  0  0
    4.0440   -0.3520    2.8860 C   0  0  0  0  0  0  0  0  0  0  0  0
    3.8550   -1.2040    3.8760 C   0  0  0  0  0  0  0  0  0  0  0  0
    4.7830   -1.1690    5.0200 C   0  0  0  0  0  0  0  0  0  0  0  0
    5.0730    0.2020    5.2200 O   0  0  0  0  0  0  0  0  0  0  0  0
    5.7590    0.6820    4.2200 O   0  0  0  0  0  0  0  0  0  0  0  0
    5.1690    0.6080    2.9890 C   0  0  0  0  0  0  0  0  0  0  0  0
    3.2630    0.1210   -1.6910 C   0  0  1  0  0  0  0  0  0  0  0  0
    4.2470    1.0280   -1.9530 O   0  0  0  0  0  0  0  0  0  0  0  0
    3.7480   -1.2710   -1.6860 C   0  0  0  0  0  0  0  0  0  0  0  0
    4.7930   -1.5670   -0.7520 N   0  0  0  0  0  0  0  0  0  0  0  0
    6.1000   -1.0300   -0.7560 C   0  0  0  0  0  0  0  0  0  0  0  0
    6.4420   -0.2000   -1.6640 O   0  0  0  0  0  0  0  0  0  0  0  0
    7.1010   -1.3610    0.2140 N   0  0  0  0  0  0  0  0  0  0  0  0
    8.4070   -0.7880    0.1360 C   0  0  0  0  0  0  0  0  0  0  0  0
  1  2  1  0
  2  3  1  0
  3  4  1  0
  4  5  2  0
  4 19  1  0
  5  6  1  0
  6  7  1  0
  6 14  2  0
  7  8  2  0
  7  9  1  0
  9 10  1  0
 10 11  1  6
 10 12  1  0
 12 13  1  0
 14 15  1  0
 14 18  1  0
 15 16  1  0
 16 17  1  0
 18 19  2  0
 19 20  1  0
 20 21  1  0
 21 22  1  0
 23 22  1  6
 23 24  1  0
 23 32  1  0
 24 25  2  3
 25 26  1  0
 26 27  2  0
 26 31  1  0
 27 28  1  0
 28 29  1  0
 29 30  1  0
 30 31  1  0
 32 33  1  1
 32 34  1  0
 34 35  1  0
 35 36  1  0
 36 37  2  0
 36 38  1  0
 38 39  1  0
M  END
