
     RDKit          3D

 33 35  0  0  0  0  0  0  0  0999 V2000
    7.2900   -1.1160    0.1610 C   0  0  0  0  0  0  0  0  0  0  0  0
    7.5000    0.3930    0.1300 C   0  0  0  0  0  0  0  0  0  0  0  0
    8.8820    0.7440    0.3600 C   0  0  0  0  0  0  0  0  0  0  0  0
    9.4980    1.8160    0.4380 N   0  0  0  0  0  0  0  0  0  0  0  0
    6.5080    1.1830   -0.0660 C   0  0  0  0  0  0  0  0  0  0  0  0
    6.5790    2.6630   -0.1280 C   0  0  0  0  0  0  0  0  0  0  0  0
    7.6870    3.4480    0.0070 N   0  0  0  0  0  0  0  0  0  0  0  0
    5.4670    3.3150   -0.3370 O   0  0  0  0  0  0  0  0  0  0  0  0
    5.1090    0.7550   -0.1710 C   0  0  0  0  0  0  0  0  0  0  0  0
    4.2630    1.7290   -0.4460 O   0  0  0  0  0  0  0  0  0  0  0  0
    4.5670   -0.4940   -0.0200 N   0  0  0  0  0  0  0  0  0  0  0  0
    3.1340   -0.6720   -0.1680 C   0  0  0  0  0  0  0  0  0  0  0  0
    2.2270    0.2710    0.1870 C   0  0  0  0  0  0  0  0  0  0  0  0
    0.8440    0.1030    0.0080 C   0  0  0  0  0  0  0  0  0  0  0  0
    0.3880   -1.0620   -0.5480 C   0  0  0  0  0  0  0  0  0  0  0  0
   -0.9860   -1.3390   -0.7760 N   0  0  0  0  0  0  0  0  0  0  0  0
   -2.0420   -0.4710   -0.4760 C   0  0  0  0  0  0  0  0  0  0  0  0
   -1.8800    0.6380    0.0240 O   0  0  0  0  0  0  0  0  0  0  0  0
   -3.4100   -0.9220   -0.7810 C   0  0  0  0  0  0  0  0  0  0  0  0
   -3.7860   -2.0920   -1.3240 N   0  0  0  0  0  0  0  0  0  0  0  0
   -5.0930   -2.1100   -1.4340 O   0  0  0  0  0  0  0  0  0  0  0  0
   -5.6090   -0.9910   -0.9830 C   0  0  0  0  0  0  0  0  0  0  0  0
   -7.0590   -0.6270   -0.9370 C   0  0  1  0  0  0  0  0  0  0  0  0
   -7.5440   -0.8120    0.4820 C   0  0  0  0  0  0  0  0  0  0  0  0
   -7.9970    0.4560    0.9920 N   0  0  0  0  0  0  0  0  0  0  0  0
   -8.4850    0.3560    2.3510 C   0  0  0  0  0  0  0  0  0  0  0  0
   -6.9650    1.4670    0.8570 C   0  0  0  0  0  0  0  0  0  0  0  0
   -6.7270    1.6560   -0.6260 C   0  0  0  0  0  0  0  0  0  0  0  0
   -7.3010    0.6650   -1.3860 O   0  0  0  0  0  0  0  0  0  0  0  0
   -4.5580   -0.2500   -0.5760 N   0  0  0  0  0  0  0  0  0  0  0  0
    1.3070   -2.0330   -0.9130 C   0  0  0  0  0  0  0  0  0  0  0  0
    0.8250   -3.2480   -1.4920 N   0  0  0  0  0  0  0  0  0  0  0  0
    2.6440   -1.8330   -0.7230 C   0  0  0  0  0  0  0  0  0  0  0  0
  1  2  1  0
  2  3  1  0
  2  5  2  3
  3  4  2  0
  5  6  1  0
  5  9  1  0
  6  7  1  0
  6  8  2  0
  9 10  2  0
  9 11  1  0
 11 12  1  0
 12 13  2  0
 12 33  1  0
 13 14  1  0
 14 15  2  0
 15 16  1  0
 15 31  1  0
 16 17  1  0
 17 18  2  0
 17 19  1  0
 19 20  2  0
 19 30  1  0
 20 21  1  0
 21 22  1  0
 23 22  1  1
 22 30  2  0
 23 24  1  0
 23 29  1  0
 24 25  1  0
 25 26  1  0
 25 27  1  0
 27 28  1  0
 28 29  1  0
 31 32  1  0
 31 33  2  0
M  END
