
     RDKit          3D

 33 35  0  0  0  0  0  0  0  0999 V2000
   -8.8340   -1.5980   -0.0730 C   0  0  0  0  0  0  0  0  0  0  0  0
   -7.5720   -1.8520    0.1510 C   0  0  0  0  0  0  0  0  0  0  0  0
   -7.0110   -3.1110   -0.2910 N   0  0  0  0  0  0  0  0  0  0  0  0
   -5.6480   -3.5000   -0.1930 C   0  0  0  0  0  0  0  0  0  0  0  0
   -4.7340   -2.3860    0.1970 C   0  0  1  0  0  0  0  0  0  0  0  0
   -3.9840   -1.8250   -0.9810 C   0  0  0  0  0  0  0  0  0  0  0  0
   -3.3770   -2.5960   -1.7800 O   0  0  0  0  0  0  0  0  0  0  0  0
   -3.9980   -0.4180   -1.1370 N   0  0  0  0  0  0  0  0  0  0  0  0
   -3.3300    0.1850   -2.2000 N   0  0  0  0  0  0  0  0  0  0  0  0
   -1.9320    0.3640   -2.1210 C   0  0  0  0  0  0  0  0  0  0  0  0
   -1.2780   -0.0340   -1.0300 N   0  0  0  0  0  0  0  0  0  0  0  0
    0.0790    0.1340   -0.9360 C   0  0  0  0  0  0  0  0  0  0  0  0
    0.8320    0.7010   -1.9180 C   0  0  0  0  0  0  0  0  0  0  0  0
    2.2140    0.8930   -1.8440 N   0  0  0  0  0  0  0  0  0  0  0  0
    3.0470    0.5410   -0.7740 C   0  0  0  0  0  0  0  0  0  0  0  0
    2.6130   -0.0030    0.2480 O   0  0  0  0  0  0  0  0  0  0  0  0
    4.4630    0.7940   -0.8000 N   0  0  0  0  0  0  0  0  0  0  0  0
    5.3560    0.4510    0.2770 C   0  0  0  0  0  0  0  0  0  0  0  0
    6.7540    0.8930   -0.1350 C   0  0  0  0  0  0  0  0  0  0  0  0
    7.7540    0.5920    0.8870 C   0  0  0  0  0  0  0  0  0  0  0  0
    7.4300   -0.0450    1.9150 O   0  0  0  0  0  0  0  0  0  0  0  0
    9.1020    1.0050    0.7540 N   0  0  0  0  0  0  0  0  0  0  0  0
   10.0980    0.6910    1.7900 C   0  0  2  0  0  0  0  0  0  0  0  0
   10.8500    1.8750    2.3770 C   0  0  0  0  0  0  0  0  0  0  0  0
   11.5070    0.9190    1.4830 C   0  0  0  0  0  0  0  0  0  0  0  0
    0.1160    1.1100   -3.0570 C   0  0  0  0  0  0  0  0  0  0  0  0
    0.7690    1.6360   -3.9840 O   0  0  0  0  0  0  0  0  0  0  0  0
   -1.2100    0.9260   -3.1060 N   0  0  0  0  0  0  0  0  0  0  0  0
   -5.3460   -1.4110    0.9780 O   0  0  0  0  0  0  0  0  0  0  0  0
   -6.6690   -0.9450    0.8320 C   0  0  0  0  0  0  0  0  0  0  0  0
   -6.9690    0.2230    1.3040 C   0  0  0  0  0  0  0  0  0  0  0  0
   -5.8250    0.9740    1.9800 C   0  0  0  0  0  0  0  0  0  0  0  0
   -8.2270    0.9480    1.3030 C   0  0  0  0  0  0  0  0  0  0  0  0
  1  2  2  0
  2  3  1  0
  2 30  1  0
  3  4  1  0
  4  5  1  0
  5  6  1  6
  5 29  1  0
  6  7  2  0
  6  8  1  0
  8  9  1  0
  9 10  1  0
 10 11  2  0
 10 28  1  0
 11 12  1  0
 12 13  2  0
 13 14  1  0
 13 26  1  0
 14 15  1  0
 15 16  2  0
 15 17  1  0
 17 18  1  0
 18 19  1  0
 19 20  1  0
 20 21  2  0
 20 22  1  0
 23 22  1  6
 23 24  1  0
 23 25  1  0
 24 25  1  0
 26 27  2  0
 26 28  1  0
 29 30  1  0
 30 31  2  3
 31 32  1  0
 31 33  1  0
M  END
