
     RDKit          3D

 33 35  0  0  0  0  0  0  0  0999 V2000
    8.8220    0.4840    0.8640 C   0  0  0  0  0  0  0  0  0  0  0  0
    8.0520    1.6710    0.2870 C   0  0  1  0  0  0  0  0  0  0  0  0
    8.6890    1.9890   -0.9790 N   0  0  0  0  0  0  0  0  0  0  0  0
    6.6520    1.2180    0.0330 C   0  0  0  0  0  0  0  0  0  0  0  0
    6.0220    0.1140    0.6140 C   0  0  0  0  0  0  0  0  0  0  0  0
    4.7480    0.0400    0.1210 C   0  0  0  0  0  0  0  0  0  0  0  0
    3.7010   -0.8570    0.3630 C   0  0  0  0  0  0  0  0  0  0  0  0
    2.5070   -0.6880   -0.2810 C   0  0  0  0  0  0  0  0  0  0  0  0
    1.4200   -1.5410   -0.0490 N   0  0  0  0  0  0  0  0  0  0  0  0
    1.2020   -2.2470    1.1270 C   0  0  0  0  0  0  0  0  0  0  0  0
    2.0560   -2.1170    2.0760 O   0  0  0  0  0  0  0  0  0  0  0  0
    0.0370   -3.1430    1.3270 C   0  0  0  0  0  0  0  0  0  0  0  0
   -0.8290   -3.0740    0.1860 N   0  0  0  0  0  0  0  0  0  0  0  0
   -1.4720   -1.8040   -0.0850 C   0  0  0  0  0  0  0  0  0  0  0  0
   -1.2570   -0.8330    0.6920 O   0  0  0  0  0  0  0  0  0  0  0  0
   -2.3180   -1.6640   -1.1950 N   0  0  0  0  0  0  0  0  0  0  0  0
   -2.9870   -0.4230   -1.5000 C   0  0  0  0  0  0  0  0  0  0  0  0
   -3.9060   -0.0470   -0.3680 C   0  0  0  0  0  0  0  0  0  0  0  0
   -4.9400   -1.1360   -0.1590 C   0  0  0  0  0  0  0  0  0  0  0  0
   -5.8780   -0.7890    0.9700 C   0  0  0  0  0  0  0  0  0  0  0  0
   -6.5830    0.4510    0.6890 N   0  0  0  0  0  0  0  0  0  0  0  0
   -6.0760    1.6100    1.0700 N   0  0  0  0  0  0  0  0  0  0  0  0
   -6.7440    2.7630    0.8020 C   0  0  0  0  0  0  0  0  0  0  0  0
   -6.2370    3.8490    1.1760 O   0  0  0  0  0  0  0  0  0  0  0  0
   -7.9420    2.6760    0.1330 C   0  0  0  0  0  0  0  0  0  0  0  0
   -8.5570    3.7410   -0.1130 O   0  0  0  0  0  0  0  0  0  0  0  0
   -8.4250    1.4960   -0.2360 N   0  0  0  0  0  0  0  0  0  0  0  0
   -7.7530    0.3540    0.0350 C   0  0  0  0  0  0  0  0  0  0  0  0
   -8.2060   -0.7630   -0.3120 O   0  0  0  0  0  0  0  0  0  0  0  0
    2.3320    0.3710   -1.1750 C   0  0  0  0  0  0  0  0  0  0  0  0
    3.3600    1.2470   -1.4090 C   0  0  0  0  0  0  0  0  0  0  0  0
    4.5770    1.0730   -0.7500 C   0  0  0  0  0  0  0  0  0  0  0  0
    5.7240    1.7560   -0.7830 N   0  0  0  0  0  0  0  0  0  0  0  0
  2  1  1  6
  2  3  1  0
  2  4  1  0
  4  5  2  0
  4 33  1  0
  5  6  1  0
  6  7  2  0
  6 32  1  0
  7  8  1  0
  8  9  1  0
  8 30  2  0
  9 10  1  0
 10 11  2  0
 10 12  1  0
 12 13  1  0
 13 14  1  0
 14 15  2  0
 14 16  1  0
 16 17  1  0
 17 18  1  0
 18 19  1  0
 19 20  1  0
 20 21  1  0
 21 22  1  0
 21 28  1  0
 22 23  1  0
 23 24  2  0
 23 25  1  0
 25 26  2  0
 25 27  1  0
 27 28  1  0
 28 29  2  0
 30 31  1  0
 31 32  2  0
 32 33  1  0
M  END
