
     RDKit          3D

 33 35  0  0  0  0  0  0  0  0999 V2000
    7.7050   -2.5220    0.7810 C   0  0  0  0  0  0  0  0  0  0  0  0
    8.6520   -1.3920    0.8400 C   0  0  0  0  0  0  0  0  0  0  0  0
    8.1990   -0.1690    0.7040 C   0  0  0  0  0  0  0  0  0  0  0  0
    9.1730    0.9670    0.7660 C   0  0  0  0  0  0  0  0  0  0  0  0
    9.1470    1.7110   -0.4670 N   0  0  0  0  0  0  0  0  0  0  0  0
    6.7980    0.1000    0.4980 C   0  0  0  0  0  0  0  0  0  0  0  0
    6.2400    1.3490    0.3460 C   0  0  0  0  0  0  0  0  0  0  0  0
    4.8900    1.1250    0.1770 C   0  0  0  0  0  0  0  0  0  0  0  0
    4.6700   -0.2360    0.2310 C   0  0  0  0  0  0  0  0  0  0  0  0
    3.3570   -0.8970    0.0940 C   0  0  0  0  0  0  0  0  0  0  0  0
    3.3240   -2.1300    0.1650 O   0  0  0  0  0  0  0  0  0  0  0  0
    2.1720   -0.1560   -0.1120 N   0  0  0  0  0  0  0  0  0  0  0  0
    0.8730   -0.6440   -0.2570 C   0  0  0  0  0  0  0  0  0  0  0  0
   -0.1440    0.2810   -0.4520 C   0  0  0  0  0  0  0  0  0  0  0  0
   -1.4080   -0.0560   -0.6020 N   0  0  0  0  0  0  0  0  0  0  0  0
   -1.7760   -1.3420   -0.5730 C   0  0  0  0  0  0  0  0  0  0  0  0
   -3.1400   -1.6700   -0.7370 N   0  0  0  0  0  0  0  0  0  0  0  0
   -4.1380   -0.6500   -0.9350 C   0  0  0  0  0  0  0  0  0  0  0  0
   -3.6820    0.5190   -0.9450 O   0  0  0  0  0  0  0  0  0  0  0  0
   -5.5010   -0.9880   -1.0980 N   0  0  0  0  0  0  0  0  0  0  0  0
   -6.5110   -0.0010   -1.2710 C   0  0  0  0  0  0  0  0  0  0  0  0
   -6.7360    0.8320   -0.0670 C   0  0  2  0  0  0  0  0  0  0  0  0
   -7.8340    1.8840   -0.3190 C   0  0  0  0  0  0  0  0  0  0  0  0
   -9.1480    1.2960   -0.6670 C   0  0  0  0  0  0  0  0  0  0  0  0
   -5.6470    1.5450    0.4960 N   0  0  0  0  0  0  0  0  0  0  0  0
   -5.2710    0.9140    1.7100 C   0  0  0  0  0  0  0  0  0  0  0  0
   -4.2200    1.1710    2.3900 O   0  0  0  0  0  0  0  0  0  0  0  0
   -6.2480   -0.0500    2.0500 N   0  0  0  0  0  0  0  0  0  0  0  0
   -7.2370   -0.0200    1.0450 C   0  0  0  0  0  0  0  0  0  0  0  0
   -8.3570   -0.6190    1.0910 O   0  0  0  0  0  0  0  0  0  0  0  0
   -0.8130   -2.2510   -0.3860 N   0  0  0  0  0  0  0  0  0  0  0  0
    0.5000   -1.9510   -0.2270 C   0  0  0  0  0  0  0  0  0  0  0  0
    5.8280   -0.7800    0.4210 O   0  0  0  0  0  0  0  0  0  0  0  0
  1  2  1  0
  2  3  2  3
  3  4  1  0
  3  6  1  0
  4  5  1  0
  6  7  2  0
  6 33  1  0
  7  8  1  0
  8  9  2  0
  9 10  1  0
  9 33  1  0
 10 11  2  0
 10 12  1  0
 12 13  1  0
 13 14  2  0
 13 32  1  0
 14 15  1  0
 15 16  2  0
 16 17  1  0
 16 31  1  0
 17 18  1  0
 18 19  2  0
 18 20  1  0
 20 21  1  0
 22 21  1  6
 22 23  1  0
 22 25  1  0
 22 29  1  0
 23 24  1  0
 25 26  1  0
 26 27  2  0
 26 28  1  0
 28 29  1  0
 29 30  2  0
 31 32  2  0
M  END
