
     RDKit          3D

 48 53  0  0  0  0  0  0  0  0999 V2000
    4.4160   -4.4660    0.5850 C   0  0  0  0  0  0  0  0  0  0  0  0
    3.4680   -4.4510   -0.6120 C   0  0  1  0  0  0  0  0  0  0  0  0
    4.1450   -5.2370   -1.7100 C   0  0  0  0  0  0  0  0  0  0  0  0
    2.2340   -5.2160   -0.1900 C   0  0  0  0  0  0  0  0  0  0  0  0
    3.2000   -3.1290   -1.0690 N   0  0  0  0  0  0  0  0  0  0  0  0
    2.5930   -2.1580   -0.2130 C   0  0  0  0  0  0  0  0  0  0  0  0
    2.3170   -2.5500    0.9550 O   0  0  0  0  0  0  0  0  0  0  0  0
    2.3080   -0.7730   -0.6780 C   0  0  2  0  0  0  0  0  0  0  0  0
    3.5260   -0.0880   -1.2320 C   0  0  0  0  0  0  0  0  0  0  0  0
    3.9050    1.1070   -0.5550 N   0  0  2  0  0  0  0  0  0  0  0  0
    4.7360    0.8570    0.6340 C   0  0  0  0  0  0  0  0  0  0  0  0
    6.1130    1.3760    0.4650 C   0  0  0  0  0  0  0  0  0  0  0  0
    7.1730    0.5350    0.6870 C   0  0  0  0  0  0  0  0  0  0  0  0
    8.4700    0.9950    0.5340 C   0  0  0  0  0  0  0  0  0  0  0  0
    8.6610    2.3120    0.1560 C   0  0  0  0  0  0  0  0  0  0  0  0
    7.5890    3.1460   -0.0640 C   0  0  0  0  0  0  0  0  0  0  0  0
    6.3020    2.6840    0.0890 C   0  0  0  0  0  0  0  0  0  0  0  0
    8.0990    4.4100   -0.4330 O   0  0  0  0  0  0  0  0  0  0  0  0
    9.4750    4.2560   -0.7500 C   0  0  0  0  0  0  0  0  0  0  0  0
    9.8170    3.0580   -0.0760 O   0  0  0  0  0  0  0  0  0  0  0  0
    2.8300    2.0030   -0.2290 C   0  0  0  0  0  0  0  0  0  0  0  0
    1.4860    1.3200   -0.1130 C   0  0  0  0  0  0  0  0  0  0  0  0
    1.6810   -0.0120    0.3890 N   0  0  1  0  0  0  0  0  0  0  0  0
    0.5040   -0.6890    0.8240 C   0  0  0  0  0  0  0  0  0  0  0  0
   -0.7380    0.1590    0.8800 C   0  0  1  0  0  0  0  0  0  0  0  0
   -1.0850    0.7000   -0.3290 O   0  0  0  0  0  0  0  0  0  0  0  0
   -1.8490   -0.6850    1.4510 C   0  0  0  0  0  0  0  0  0  0  0  0
   -3.1680    0.0600    1.5540 C   0  0  1  0  0  0  0  0  0  0  0  0
   -3.0860    1.2660    2.4160 C   0  0  0  0  0  0  0  0  0  0  0  0
   -4.3320    2.0330    2.5520 C   0  0  0  0  0  0  0  0  0  0  0  0
   -5.2660    1.6040    3.4840 C   0  0  0  0  0  0  0  0  0  0  0  0
   -6.4440    2.3160    3.6560 C   0  0  0  0  0  0  0  0  0  0  0  0
   -6.7140    3.4430    2.9230 C   0  0  0  0  0  0  0  0  0  0  0  0
   -5.7790    3.8570    2.0020 C   0  0  0  0  0  0  0  0  0  0  0  0
   -4.5970    3.1460    1.8280 C   0  0  0  0  0  0  0  0  0  0  0  0
   -3.8730    0.1970    0.2710 C   0  0  0  0  0  0  0  0  0  0  0  0
   -4.0800    1.2820   -0.3150 O   0  0  0  0  0  0  0  0  0  0  0  0
   -4.3410   -1.0140   -0.3250 N   0  0  0  0  0  0  0  0  0  0  0  0
   -5.0330   -1.0830   -1.5610 C   0  0  1  0  0  0  0  0  0  0  0  0
   -6.4750   -0.7630   -1.4510 C   0  0  0  0  0  0  0  0  0  0  0  0
   -7.4710   -1.3620   -0.7160 C   0  0  0  0  0  0  0  0  0  0  0  0
   -8.7900   -0.8870   -0.7540 C   0  0  0  0  0  0  0  0  0  0  0  0
   -9.0890    0.2000   -1.5460 C   0  0  0  0  0  0  0  0  0  0  0  0
   -8.0780    0.8070   -2.2920 C   0  0  0  0  0  0  0  0  0  0  0  0
   -6.7860    0.3270   -2.2420 C   0  0  0  0  0  0  0  0  0  0  0  0
   -5.5630    0.8140   -2.9490 C   0  0  0  0  0  0  0  0  0  0  0  0
   -4.5020   -0.2090   -2.6790 C   0  0  1  0  0  0  0  0  0  0  0  0
   -3.2350    0.2790   -2.4850 O   0  0  0  0  0  0  0  0  0  0  0  0
  2  1  1  1
  2  3  1  0
  2  4  1  0
  2  5  1  0
  5  6  1  0
  6  7  2  0
  8  6  1  1
  8  9  1  0
  8 23  1  0
  9 10  1  0
 10 11  1  1
 10 21  1  0
 11 12  1  0
 12 13  2  0
 12 17  1  0
 13 14  1  0
 14 15  2  0
 15 16  1  0
 15 20  1  0
 16 17  2  0
 16 18  1  0
 18 19  1  0
 19 20  1  0
 21 22  1  0
 22 23  1  0
 23 24  1  6
 24 25  1  0
 25 26  1  6
 25 27  1  0
 28 27  1  6
 28 29  1  0
 28 36  1  0
 29 30  1  0
 30 31  2  0
 30 35  1  0
 31 32  1  0
 32 33  2  0
 33 34  1  0
 34 35  2  0
 36 37  2  0
 36 38  1  0
 39 38  1  1
 39 40  1  0
 39 47  1  0
 40 41  2  0
 40 45  1  0
 41 42  1  0
 42 43  2  0
 43 44  1  0
 44 45  2  0
 45 46  1  0
 46 47  1  0
 47 48  1  1
M  CHG  2  10   1  23   1
M  END
