
     RDKit          3D

 33 35  0  0  0  0  0  0  0  0999 V2000
   -3.4860    4.7180   -1.4980 C   0  0  0  0  0  0  0  0  0  0  0  0
   -4.6930    4.7430   -0.7460 O   0  0  0  0  0  0  0  0  0  0  0  0
   -4.8950    3.7150    0.1650 C   0  0  0  0  0  0  0  0  0  0  0  0
   -6.0580    3.6960    0.9130 C   0  0  0  0  0  0  0  0  0  0  0  0
   -6.2890    2.6970    1.8200 C   0  0  0  0  0  0  0  0  0  0  0  0
   -5.3220    1.7090    1.9640 C   0  0  0  0  0  0  0  0  0  0  0  0
   -4.1780    1.7430    1.2170 C   0  0  0  0  0  0  0  0  0  0  0  0
   -3.1480    0.7540    1.3470 N   0  0  0  0  0  0  0  0  0  0  0  0
   -3.2500   -0.2810    2.3470 C   0  0  0  0  0  0  0  0  0  0  0  0
   -1.8940   -0.8260    2.5960 C   0  0  0  0  0  0  0  0  0  0  0  0
   -1.1240   -1.1510    1.5410 O   0  0  0  0  0  0  0  0  0  0  0  0
   -1.3760   -0.6490    0.3150 C   0  0  2  0  0  0  0  0  0  0  0  0
   -2.3170   -1.3800   -0.5740 C   0  0  0  0  0  0  0  0  0  0  0  0
   -2.0270   -2.7440   -0.8760 N   0  0  0  0  0  0  0  0  0  0  0  0
   -2.9460   -3.4250   -1.7610 C   0  0  0  0  0  0  0  0  0  0  0  0
   -2.7260   -4.7860   -2.1100 N   0  0  0  0  0  0  0  0  0  0  0  0
   -3.9300   -2.8120   -2.2160 O   0  0  0  0  0  0  0  0  0  0  0  0
   -0.1010   -0.3070   -0.3910 C   0  0  0  0  0  0  0  0  0  0  0  0
    0.8560   -1.3670   -0.5380 N   0  0  0  0  0  0  0  0  0  0  0  0
    2.0950   -1.1670   -1.2330 C   0  0  0  0  0  0  0  0  0  0  0  0
    2.3240   -0.0430   -1.7100 O   0  0  0  0  0  0  0  0  0  0  0  0
    3.0490   -2.1940   -1.3900 N   0  0  0  0  0  0  0  0  0  0  0  0
    4.2910   -2.0270   -2.0790 C   0  0  0  0  0  0  0  0  0  0  0  0
    5.3020   -1.2840   -1.2940 C   0  0  0  0  0  0  0  0  0  0  0  0
    5.2390   -0.7300   -0.0350 C   0  0  0  0  0  0  0  0  0  0  0  0
    6.4000   -0.1850    0.2020 O   0  0  0  0  0  0  0  0  0  0  0  0
    7.2280   -0.3360   -0.8060 C   0  0  0  0  0  0  0  0  0  0  0  0
    8.6110    0.1470   -0.8840 C   0  0  0  0  0  0  0  0  0  0  0  0
    9.1120    0.8050    0.1360 C   0  0  0  0  0  0  0  0  0  0  0  0
    8.3280    1.0370    1.2800 N   0  0  0  0  0  0  0  0  0  0  0  0
    6.5420   -1.0210   -1.7380 N   0  0  0  0  0  0  0  0  0  0  0  0
   -2.0140    0.7930    0.4970 C   0  0  0  0  0  0  0  0  0  0  0  0
   -4.0040    2.7370    0.3480 N   0  0  0  0  0  0  0  0  0  0  0  0
  1  2  1  0
  2  3  1  0
  3  4  2  0
  3 33  1  0
  4  5  1  0
  5  6  2  0
  6  7  1  0
  7  8  1  0
  7 33  2  0
  8  9  1  0
  8 32  1  0
  9 10  1  0
 10 11  1  0
 11 12  1  0
 12 13  1  6
 12 18  1  0
 12 32  1  0
 13 14  1  0
 14 15  1  0
 15 16  1  0
 15 17  2  0
 18 19  1  0
 19 20  1  0
 20 21  2  0
 20 22  1  0
 22 23  1  0
 23 24  1  0
 24 25  2  0
 24 31  1  0
 25 26  1  0
 26 27  1  0
 27 28  1  0
 27 31  2  0
 28 29  2  3
 29 30  1  0
M  END
