
     RDKit          3D

 33 35  0  0  0  0  0  0  0  0999 V2000
    5.0110   -1.3080   -3.1250 C   0  0  0  0  0  0  0  0  0  0  0  0
    4.9920   -0.2420   -2.1960 O   0  0  0  0  0  0  0  0  0  0  0  0
    5.2270   -0.3620   -0.8470 C   0  0  0  0  0  0  0  0  0  0  0  0
    4.2150   -0.5820    0.0600 C   0  0  0  0  0  0  0  0  0  0  0  0
    2.8180   -0.6920   -0.4160 C   0  0  0  0  0  0  0  0  0  0  0  0
    2.6260   -0.6130   -1.6470 O   0  0  0  0  0  0  0  0  0  0  0  0
    1.7310   -0.8770    0.4540 N   0  0  0  0  0  0  0  0  0  0  0  0
    0.3440   -0.9950    0.2610 C   0  0  0  0  0  0  0  0  0  0  0  0
   -0.4370    0.1860   -0.3010 C   0  0  2  0  0  0  0  0  0  0  0  0
    0.0020    0.4470   -1.7060 C   0  0  0  0  0  0  0  0  0  0  0  0
   -0.0620    1.3430    0.6090 C   0  0  0  0  0  0  0  0  0  0  0  0
   -0.4080    1.1760    2.0160 C   0  0  0  0  0  0  0  0  0  0  0  0
   -0.9220    0.0520    2.6460 N   0  0  0  0  0  0  0  0  0  0  0  0
   -0.2110    2.2020    2.7670 O   0  0  0  0  0  0  0  0  0  0  0  0
   -1.8410   -0.0750   -0.2560 N   0  0  0  0  0  0  0  0  0  0  0  0
   -2.9660    0.6430   -0.6790 C   0  0  0  0  0  0  0  0  0  0  0  0
   -4.2680    0.0780   -0.6680 C   0  0  0  0  0  0  0  0  0  0  0  0
   -4.6170   -1.3090   -0.2070 C   0  0  2  0  0  0  0  0  0  0  0  0
   -6.0470   -1.5680   -0.6390 C   0  0  0  0  0  0  0  0  0  0  0  0
   -6.9170   -0.7210    0.2280 C   0  0  0  0  0  0  0  0  0  0  0  0
   -6.1510   -0.5450    1.4980 C   0  0  0  0  0  0  0  0  0  0  0  0
   -4.8220   -1.2650    1.3180 C   0  0  0  0  0  0  0  0  0  0  0  0
   -5.1070    1.0020   -1.1260 N   0  0  0  0  0  0  0  0  0  0  0  0
   -4.4690    2.0840   -1.4230 N   0  0  0  0  0  0  0  0  0  0  0  0
   -3.1420    1.9170   -1.1650 C   0  0  0  0  0  0  0  0  0  0  0  0
   -2.2040    2.9360   -1.3780 N   0  0  0  0  0  0  0  0  0  0  0  0
    4.5710   -0.6820    1.3450 N   0  0  0  0  0  0  0  0  0  0  0  0
    5.8690   -0.5740    1.7610 C   0  0  0  0  0  0  0  0  0  0  0  0
    6.1500   -0.6770    2.9900 O   0  0  0  0  0  0  0  0  0  0  0  0
    6.8560   -0.3590    0.8760 N   0  0  0  0  0  0  0  0  0  0  0  0
    8.2500   -0.2430    1.3240 C   0  0  0  0  0  0  0  0  0  0  0  0
    6.5600   -0.2500   -0.4290 C   0  0  0  0  0  0  0  0  0  0  0  0
    7.4840   -0.0490   -1.2560 O   0  0  0  0  0  0  0  0  0  0  0  0
  1  2  1  0
  2  3  1  0
  3  4  2  0
  3 32  1  0
  4  5  1  0
  4 27  1  0
  5  6  2  0
  5  7  1  0
  7  8  1  0
  8  9  1  0
  9 10  1  6
  9 11  1  0
  9 15  1  0
 11 12  1  0
 12 13  1  0
 12 14  2  0
 15 16  1  0
 16 17  1  0
 16 25  2  0
 18 17  1  6
 17 23  2  0
 18 19  1  0
 18 22  1  0
 19 20  1  0
 20 21  1  0
 21 22  1  0
 23 24  1  0
 24 25  1  0
 25 26  1  0
 27 28  1  0
 28 29  2  0
 28 30  1  0
 30 31  1  0
 30 32  1  0
 32 33  2  0
M  END
