
     RDKit          3D

 33 35  0  0  0  0  0  0  0  0999 V2000
   -8.9070    1.3000   -1.4150 C   0  0  0  0  0  0  0  0  0  0  0  0
   -7.5440    0.8020   -1.7400 C   0  0  0  0  0  0  0  0  0  0  0  0
   -6.8200    0.3350   -0.4890 C   0  0  2  0  0  0  0  0  0  0  0  0
   -6.7560    1.4910    0.4160 C   0  0  0  0  0  0  0  0  0  0  0  0
   -5.5510    2.1150    0.7450 N   0  0  0  0  0  0  0  0  0  0  0  0
   -7.8200    1.9370    0.9130 O   0  0  0  0  0  0  0  0  0  0  0  0
   -5.4630    0.0290   -0.8860 O   0  0  0  0  0  0  0  0  0  0  0  0
   -4.6850   -0.6750    0.0320 C   0  0  0  0  0  0  0  0  0  0  0  0
   -3.3100   -0.5840   -0.0110 C   0  0  0  0  0  0  0  0  0  0  0  0
   -2.4920   -1.2630    0.8760 C   0  0  0  0  0  0  0  0  0  0  0  0
   -1.0810   -1.1580    0.7340 N   0  0  0  0  0  0  0  0  0  0  0  0
   -0.1120   -1.4040    1.7250 C   0  0  0  0  0  0  0  0  0  0  0  0
   -0.5160   -1.7400    2.8760 O   0  0  0  0  0  0  0  0  0  0  0  0
    1.3300   -1.2820    1.4550 C   0  0  0  0  0  0  0  0  0  0  0  0
    1.8720   -1.0520    0.2160 C   0  0  0  0  0  0  0  0  0  0  0  0
    3.2280   -0.9420    0.0070 C   0  0  0  0  0  0  0  0  0  0  0  0
    4.0640   -1.0680    1.0930 C   0  0  0  0  0  0  0  0  0  0  0  0
    5.4680   -0.9770    0.9120 N   0  0  0  0  0  0  0  0  0  0  0  0
    6.1470    0.2650    0.8230 N   0  0  0  0  0  0  0  0  0  0  0  0
    6.9100    0.4710   -0.3580 C   0  0  0  0  0  0  0  0  0  0  0  0
    6.9600   -0.4040   -1.2390 O   0  0  0  0  0  0  0  0  0  0  0  0
    7.6390    1.7360   -0.5220 C   0  0  0  0  0  0  0  0  0  0  0  0
    8.4550    1.8370   -1.7700 C   0  0  0  0  0  0  0  0  0  0  0  0
    9.5260    0.7840   -1.8340 C   0  0  0  0  0  0  0  0  0  0  0  0
   10.4190    0.9610   -0.6860 N   0  0  0  0  0  0  0  0  0  0  0  0
    3.5130   -1.2900    2.2910 N   0  0  0  0  0  0  0  0  0  0  0  0
    2.1860   -1.3960    2.4760 N   0  0  0  0  0  0  0  0  0  0  0  0
   -3.1130   -2.0450    1.8180 C   0  0  0  0  0  0  0  0  0  0  0  0
   -4.4900   -2.1590    1.8880 C   0  0  0  0  0  0  0  0  0  0  0  0
   -5.2830   -1.4750    0.9940 C   0  0  0  0  0  0  0  0  0  0  0  0
   -6.7000   -1.5900    1.0500 N   0  0  0  0  0  0  0  0  0  0  0  0
   -7.4670   -0.8510    0.0750 C   0  0  0  0  0  0  0  0  0  0  0  0
   -8.6140   -1.2690   -0.2190 O   0  0  0  0  0  0  0  0  0  0  0  0
  1  2  1  0
  3  2  1  6
  3  4  1  0
  3  7  1  0
  3 32  1  0
  4  5  1  0
  4  6  2  0
  7  8  1  0
  8  9  2  0
  8 30  1  0
  9 10  1  0
 10 11  1  0
 10 28  2  0
 11 12  1  0
 12 13  2  0
 12 14  1  0
 14 15  2  0
 14 27  1  0
 15 16  1  0
 16 17  2  0
 17 18  1  0
 17 26  1  0
 18 19  1  0
 19 20  1  0
 20 21  2  0
 20 22  1  0
 22 23  1  0
 23 24  1  0
 24 25  1  0
 26 27  2  0
 28 29  1  0
 29 30  2  0
 30 31  1  0
 31 32  1  0
 32 33  2  0
M  END
