
     RDKit          3D

 46 50  0  0  0  0  0  0  0  0999 V2000
    1.8560   -3.3780    1.9160 C   0  0  0  0  0  0  0  0  0  0  0  0
    2.5360   -2.6360    0.7540 C   0  0  2  0  0  0  0  0  0  0  0  0
    3.7240   -3.3870    0.3740 C   0  0  0  0  0  0  0  0  0  0  0  0
    3.5290   -4.4920   -0.4500 C   0  0  0  0  0  0  0  0  0  0  0  0
    4.5960   -5.2310   -0.8930 C   0  0  0  0  0  0  0  0  0  0  0  0
    5.8780   -4.8880   -0.5260 C   0  0  0  0  0  0  0  0  0  0  0  0
    6.0640   -3.7890    0.2990 C   0  0  0  0  0  0  0  0  0  0  0  0
    4.9990   -3.0530    0.7410 C   0  0  0  0  0  0  0  0  0  0  0  0
    2.8540   -1.2380    1.3290 C   0  0  2  0  0  0  0  0  0  0  0  0
    1.5460   -0.6660    1.7420 C   0  0  0  0  0  0  0  0  0  0  0  0
    0.5170   -0.4760    0.6570 C   0  0  2  0  0  0  0  0  0  0  0  0
    0.9730    0.4540   -0.2430 O   0  0  0  0  0  0  0  0  0  0  0  0
   -0.7990   -0.2760    1.2990 C   0  0  0  0  0  0  0  0  0  0  0  0
   -1.9470   -0.2160    0.4000 N   0  0  2  0  0  0  0  0  0  0  0  0
   -1.7350   -0.6940   -0.9060 C   0  0  0  0  0  0  0  0  0  0  0  0
   -3.0760   -0.4910   -1.6690 C   0  0  0  0  0  0  0  0  0  0  0  0
   -3.1290    0.9160   -1.8910 N   0  0  1  0  0  0  0  0  0  0  0  0
   -4.1470    1.4520   -2.7190 C   0  0  0  0  0  0  0  0  0  0  0  0
   -5.5120    0.9710   -2.6690 C   0  0  0  0  0  0  0  0  0  0  0  0
   -6.5340    1.8790   -2.3750 C   0  0  0  0  0  0  0  0  0  0  0  0
   -7.8540    1.5220   -2.2590 C   0  0  0  0  0  0  0  0  0  0  0  0
   -8.2290    0.2030   -2.4340 C   0  0  0  0  0  0  0  0  0  0  0  0
   -7.2570   -0.6850   -2.7200 N   0  0  0  0  0  0  0  0  0  0  0  0
   -5.9430   -0.3270   -2.8350 C   0  0  0  0  0  0  0  0  0  0  0  0
   -2.6400    1.7500   -0.8130 C   0  0  0  0  0  0  0  0  0  0  0  0
   -2.6160    1.0760    0.5640 C   0  0  1  0  0  0  0  0  0  0  0  0
   -4.0170    0.8970    0.9370 C   0  0  0  0  0  0  0  0  0  0  0  0
   -4.9050    0.8980    0.0820 O   0  0  0  0  0  0  0  0  0  0  0  0
   -4.4970    0.6720    2.2850 N   0  0  0  0  0  0  0  0  0  0  0  0
   -5.9120    0.4020    2.4370 C   0  0  1  0  0  0  0  0  0  0  0  0
   -6.3310    0.1310    3.8380 C   0  0  0  0  0  0  0  0  0  0  0  0
   -6.8340    1.3360    1.7560 C   0  0  0  0  0  0  0  0  0  0  0  0
   -6.1250   -0.9680    1.7060 C   0  0  0  0  0  0  0  0  0  0  0  0
    3.7400   -0.5150    0.4610 C   0  0  0  0  0  0  0  0  0  0  0  0
    3.8150   -0.9170   -0.7730 O   0  0  0  0  0  0  0  0  0  0  0  0
    4.5820    0.6110    0.7600 N   0  0  0  0  0  0  0  0  0  0  0  0
    5.4450    1.1620   -0.3090 C   0  0  1  0  0  0  0  0  0  0  0  0
    5.8340    2.5420   -0.2030 C   0  0  0  0  0  0  0  0  0  0  0  0
    5.2130    3.7510    0.0800 C   0  0  0  0  0  0  0  0  0  0  0  0
    5.8820    4.9740    0.1130 C   0  0  0  0  0  0  0  0  0  0  0  0
    7.2240    5.0290   -0.1400 C   0  0  0  0  0  0  0  0  0  0  0  0
    7.8870    3.8570   -0.4290 C   0  0  0  0  0  0  0  0  0  0  0  0
    7.2100    2.6620   -0.4580 C   0  0  0  0  0  0  0  0  0  0  0  0
    7.7870    1.3190   -0.7950 C   0  0  0  0  0  0  0  0  0  0  0  0
    6.7960    0.4070   -0.1600 C   0  0  1  0  0  0  0  0  0  0  0  0
    7.0970    0.4020    1.2270 O   0  0  0  0  0  0  0  0  0  0  0  0
  2  1  1  1
  2  3  1  0
  2  9  1  0
  3  4  2  0
  3  8  1  0
  4  5  1  0
  5  6  2  0
  6  7  1  0
  7  8  2  0
  9 10  1  6
  9 34  1  0
 10 11  1  0
 11 12  1  1
 11 13  1  0
 14 13  1  6
 14 15  1  0
 14 26  1  0
 15 16  1  0
 16 17  1  0
 17 18  1  1
 17 25  1  0
 18 19  1  0
 19 20  2  0
 19 24  1  0
 20 21  1  0
 21 22  2  0
 22 23  1  0
 23 24  2  0
 25 26  1  0
 26 27  1  6
 27 28  2  0
 27 29  1  0
 29 30  1  0
 30 31  1  1
 30 32  1  0
 30 33  1  0
 34 35  2  0
 34 36  1  0
 37 36  1  1
 37 38  1  0
 37 45  1  0
 38 39  2  0
 38 43  1  0
 39 40  1  0
 40 41  2  0
 41 42  1  0
 42 43  2  0
 43 44  1  0
 44 45  1  0
 45 46  1  1
M  CHG  2  14   1  17   1
M  END
