
     RDKit          3D

 35 40  0  0  0  0  0  0  0  0999 V2000
   -5.0970    0.9720    1.7780 C   0  0  0  0  0  0  0  0  0  0  0  0
   -4.4610    0.4420    0.6220 N   0  0  0  0  0  0  0  0  0  0  0  0
   -5.0980   -0.5910   -0.2110 C   0  0  0  0  0  0  0  0  0  0  0  0
   -3.9240   -1.6100   -0.1480 C   0  0  0  0  0  0  0  0  0  0  0  0
   -2.8920   -1.0580   -1.1410 C   0  0  2  0  0  0  0  0  0  0  0  0
   -1.9470   -2.1370   -1.2450 N   0  0  0  0  0  0  0  0  0  0  0  0
   -2.1640   -3.3430   -0.5080 C   0  0  0  0  0  0  0  0  0  0  0  0
   -0.8250   -3.9690   -0.0230 C   0  0  0  0  0  0  0  0  0  0  0  0
    0.2920   -2.9220   -0.0360 C   0  0  0  0  0  0  0  0  0  0  0  0
    1.3010   -2.9070   -0.9790 C   0  0  0  0  0  0  0  0  0  0  0  0
    2.2140   -1.8600   -1.1440 C   0  0  0  0  0  0  0  0  0  0  0  0
    2.2120   -0.6900   -0.3670 C   0  0  0  0  0  0  0  0  0  0  0  0
    1.1720   -0.7850    0.5780 C   0  0  0  0  0  0  0  0  0  0  0  0
    0.2420   -1.8080    0.7800 C   0  0  0  0  0  0  0  0  0  0  0  0
    2.9100    0.5340   -0.6820 N   0  0  0  0  0  0  0  0  0  0  0  0
    2.3220    1.5070   -1.6620 C   0  0  0  0  0  0  0  0  0  0  0  0
    2.3360    1.3750   -2.9060 O   0  0  0  0  0  0  0  0  0  0  0  0
    1.6980    2.6920   -0.9660 C   0  0  0  0  0  0  0  0  0  0  0  0
    0.4750    2.8930   -0.5560 C   0  0  0  0  0  0  0  0  0  0  0  0
   -0.7950    2.0940   -0.5560 C   0  0  0  0  0  0  0  0  0  0  0  0
   -1.6410    2.6070    0.4480 C   0  0  0  0  0  0  0  0  0  0  0  0
   -2.8000    2.0680    0.8730 C   0  0  0  0  0  0  0  0  0  0  0  0
   -3.1340    0.8830    0.2170 C   0  0  0  0  0  0  0  0  0  0  0  0
   -2.3580    0.2950   -0.7850 C   0  0  0  0  0  0  0  0  0  0  0  0
   -1.1440    0.9060   -1.2220 C   0  0  0  0  0  0  0  0  0  0  0  0
   -0.3540    0.3980   -2.2540 O   0  0  0  0  0  0  0  0  0  0  0  0
    2.6170    3.6820   -0.3460 N   0  0  0  0  0  0  0  0  0  0  0  0
    3.9630    3.5080    0.1090 C   0  0  0  0  0  0  0  0  0  0  0  0
    4.6520    4.5150    0.2990 O   0  0  0  0  0  0  0  0  0  0  0  0
    4.6180    2.1900    0.3800 C   0  0  0  0  0  0  0  0  0  0  0  0
    5.7600    2.3060    1.0860 C   0  0  0  0  0  0  0  0  0  0  0  0
    6.4480    1.1480    1.4580 C   0  0  0  0  0  0  0  0  0  0  0  0
    5.9650   -0.1130    1.1060 C   0  0  0  0  0  0  0  0  0  0  0  0
    4.8240   -0.1510    0.4020 C   0  0  0  0  0  0  0  0  0  0  0  0
    4.1160    0.9580    0.0150 C   0  0  0  0  0  0  0  0  0  0  0  0
  1  2  1  0
  2  3  1  0
  2 23  1  0
  3  4  1  0
  5  4  1  1
  5  6  1  0
  5 24  1  0
  6  7  1  0
  7  8  1  0
  8  9  1  0
  9 10  2  0
  9 14  1  0
 10 11  1  0
 11 12  2  0
 12 13  1  0
 12 15  1  0
 13 14  2  0
 15 16  1  0
 15 35  1  0
 16 17  2  0
 16 18  1  0
 18 19  2  0
 18 27  1  0
 19 20  1  0
 20 21  2  0
 20 25  1  0
 21 22  1  0
 22 23  2  0
 23 24  1  0
 24 25  2  0
 25 26  1  0
 27 28  1  0
 28 29  2  0
 28 30  1  0
 30 31  2  0
 30 35  1  0
 31 32  1  0
 32 33  2  0
 33 34  1  0
 34 35  2  0
M  CHG  1   6   1
M  END
