
     RDKit          3D

 33 36  0  0  0  0  0  0  0  0999 V2000
    4.5820    2.2070    1.4890 C   0  0  0  0  0  0  0  0  0  0  0  0
    3.3310    1.4970    1.1070 C   0  0  0  0  0  0  0  0  0  0  0  0
    2.5950    0.9660    2.0780 N   0  0  0  0  0  0  0  0  0  0  0  0
    1.4190    0.3030    1.8180 C   0  0  0  0  0  0  0  0  0  0  0  0
    0.9230    0.1430    0.5640 C   0  0  0  0  0  0  0  0  0  0  0  0
   -0.3000   -0.4940    0.2360 C   0  0  0  0  0  0  0  0  0  0  0  0
   -0.4710   -0.6550   -1.0610 O   0  0  0  0  0  0  0  0  0  0  0  0
   -1.3690   -0.9900    0.9680 N   0  0  0  0  0  0  0  0  0  0  0  0
   -1.3000   -0.9600    2.4580 C   0  0  0  0  0  0  0  0  0  0  0  0
   -2.6690   -1.3200    0.4790 C   0  0  0  0  0  0  0  0  0  0  0  0
   -3.2680   -0.7340   -0.5250 C   0  0  0  0  0  0  0  0  0  0  0  0
   -2.7380    0.3440   -1.3010 N   0  0  0  0  0  0  0  0  0  0  0  0
   -2.5930    1.6770   -0.7660 C   0  0  0  0  0  0  0  0  0  0  0  0
   -2.0000    2.5630   -1.8470 C   0  0  2  0  0  0  0  0  0  0  0  0
   -2.8390    2.5780   -2.9320 F   0  0  0  0  0  0  0  0  0  0  0  0
   -0.7480    2.1370   -2.2180 F   0  0  0  0  0  0  0  0  0  0  0  0
   -1.8310    4.2410   -1.2760 Cl  0  0  0  0  0  0  0  0  0  0  0  0
   -4.5970   -1.1530   -0.9570 N   0  0  0  0  0  0  0  0  0  0  0  0
   -5.3290   -2.2000   -0.3680 C   0  0  0  0  0  0  0  0  0  0  0  0
   -4.6110   -2.8950    0.6980 C   0  0  0  0  0  0  0  0  0  0  0  0
   -5.0140   -3.9830    1.3860 N   0  0  0  0  0  0  0  0  0  0  0  0
   -4.0610   -4.2880    2.2670 C   0  0  0  0  0  0  0  0  0  0  0  0
   -3.0240   -3.3460    2.1150 C   0  0  0  0  0  0  0  0  0  0  0  0
   -3.3680   -2.4650    1.1260 C   0  0  0  0  0  0  0  0  0  0  0  0
    1.7070    0.7060   -0.4630 C   0  0  0  0  0  0  0  0  0  0  0  0
    2.8820    1.3660   -0.1880 C   0  0  0  0  0  0  0  0  0  0  0  0
    3.6620    1.9260   -1.1890 O   0  0  0  0  0  0  0  0  0  0  0  0
    4.9530    1.5280   -1.4530 C   0  0  0  0  0  0  0  0  0  0  0  0
    5.6920    2.2350   -2.3920 C   0  0  0  0  0  0  0  0  0  0  0  0
    6.9760    1.8220   -2.6430 C   0  0  0  0  0  0  0  0  0  0  0  0
    7.4960    0.7700   -1.9990 N   0  0  0  0  0  0  0  0  0  0  0  0
    6.7980    0.0970   -1.1080 N   0  0  0  0  0  0  0  0  0  0  0  0
    5.5430    0.4530   -0.8240 C   0  0  0  0  0  0  0  0  0  0  0  0
  1  2  1  0
  2  3  2  0
  2 26  1  0
  3  4  1  0
  4  5  2  0
  5  6  1  0
  5 25  1  0
  6  7  2  0
  6  8  1  0
  8  9  1  0
  8 10  1  0
 10 11  2  0
 10 24  1  0
 11 12  1  0
 11 18  1  0
 12 13  1  0
 13 14  1  0
 14 15  1  6
 14 16  1  0
 14 17  1  0
 18 19  1  0
 19 20  1  0
 20 21  1  0
 20 24  2  0
 21 22  1  0
 22 23  2  0
 23 24  1  0
 25 26  2  0
 26 27  1  0
 27 28  1  0
 28 29  2  0
 28 33  1  0
 29 30  1  0
 30 31  2  0
 31 32  1  0
 32 33  2  0
M  END
