
     RDKit          3D

 35 41  0  0  0  0  0  0  0  0999 V2000
    4.1460   -3.1560   -1.3080 O   0  0  0  0  0  0  0  0  0  0  0  0
    3.9280   -2.2040   -0.5370 C   0  0  0  0  0  0  0  0  0  0  0  0
    2.8540   -1.9690    0.4630 C   0  0  0  0  0  0  0  0  0  0  0  0
    2.5950   -0.5060    0.2790 C   0  0  2  0  0  0  0  0  0  0  0  0
    1.6850   -0.1760   -0.8580 C   0  0  2  0  0  0  0  0  0  0  0  0
    1.5290    1.3370   -0.8980 C   0  0  0  0  0  0  0  0  0  0  0  0
    0.8700    1.8710    0.3280 C   0  0  0  0  0  0  0  0  0  0  0  0
   -0.3780    1.1260    0.5660 N   0  0  0  0  0  0  0  0  0  0  0  0
   -1.3620    1.7520    1.3890 C   0  0  0  0  0  0  0  0  0  0  0  0
   -1.1220    2.8990    1.8700 O   0  0  0  0  0  0  0  0  0  0  0  0
   -2.5800    1.0740    1.6470 N   0  0  0  0  0  0  0  0  0  0  0  0
   -2.9920   -0.1050    0.9300 C   0  0  1  0  0  0  0  0  0  0  0  0
   -3.6500   -1.1190    1.8720 C   0  0  0  0  0  0  0  0  0  0  0  0
   -4.6220   -1.9270    1.0520 C   0  0  0  0  0  0  0  0  0  0  0  0
   -6.0610   -1.5950    1.4480 C   0  0  0  0  0  0  0  0  0  0  0  0
   -6.2220   -0.0920    1.2090 C   0  0  0  0  0  0  0  0  0  0  0  0
   -5.3860    0.3210    0.0480 C   0  0  0  0  0  0  0  0  0  0  0  0
   -6.1640    0.7560   -1.0160 C   0  0  0  0  0  0  0  0  0  0  0  0
   -5.5960    1.1890   -2.2030 C   0  0  0  0  0  0  0  0  0  0  0  0
   -4.2210    1.1820   -2.3190 C   0  0  0  0  0  0  0  0  0  0  0  0
   -3.4390    0.7440   -1.2470 C   0  0  0  0  0  0  0  0  0  0  0  0
   -4.0120    0.3150   -0.0690 C   0  0  0  0  0  0  0  0  0  0  0  0
   -1.8510   -0.7970    0.3000 C   0  0  0  0  0  0  0  0  0  0  0  0
   -2.0130   -2.0250    0.0060 O   0  0  0  0  0  0  0  0  0  0  0  0
   -0.6240   -0.1310    0.0310 N   0  0  0  0  0  0  0  0  0  0  0  0
    0.3570   -0.8250   -0.8280 C   0  0  0  0  0  0  0  0  0  0  0  0
    3.9620    0.0350    0.0620 C   0  0  0  0  0  0  0  0  0  0  0  0
    4.7350    1.1550    0.1610 N   0  0  0  0  0  0  0  0  0  0  0  0
    5.9860    0.8970   -0.2470 C   0  0  0  0  0  0  0  0  0  0  0  0
    7.1170    1.6770   -0.3390 C   0  0  0  0  0  0  0  0  0  0  0  0
    8.2990    1.1330   -0.8070 C   0  0  0  0  0  0  0  0  0  0  0  0
    8.3070   -0.2130   -1.1790 C   0  0  0  0  0  0  0  0  0  0  0  0
    7.1790   -0.9920   -1.0880 C   0  0  0  0  0  0  0  0  0  0  0  0
    6.0170   -0.4300   -0.6190 C   0  0  0  0  0  0  0  0  0  0  0  0
    4.7560   -0.9880   -0.4320 C   0  0  0  0  0  0  0  0  0  0  0  0
  1  2  2  0
  2  3  1  0
  2 35  1  0
  4  3  1  6
  4  5  1  0
  4 27  1  0
  5  6  1  1
  5 26  1  0
  6  7  1  0
  7  8  1  0
  8  9  1  0
  8 25  1  0
  9 10  2  0
  9 11  1  0
 11 12  1  0
 12 13  1  1
 12 22  1  0
 12 23  1  0
 13 14  1  0
 14 15  1  0
 15 16  1  0
 16 17  1  0
 17 18  2  0
 17 22  1  0
 18 19  1  0
 19 20  2  0
 20 21  1  0
 21 22  2  0
 23 24  2  0
 23 25  1  0
 25 26  1  0
 27 28  1  0
 27 35  2  0
 28 29  1  0
 29 30  2  0
 29 34  1  0
 30 31  1  0
 31 32  2  0
 32 33  1  0
 33 34  2  0
 34 35  1  0
M  END
