
     RDKit          3D

 35 39  0  0  0  0  0  0  0  0999 V2000
    8.2040    3.1720   -0.7700 C   0  0  0  0  0  0  0  0  0  0  0  0
    6.9990    2.9460   -1.6590 C   0  0  1  0  0  0  0  0  0  0  0  0
    7.3390    1.8230   -2.5940 C   0  0  0  0  0  0  0  0  0  0  0  0
    6.1790    0.8570   -2.3190 C   0  0  0  0  0  0  0  0  0  0  0  0
    5.7950    1.2750   -0.9270 C   0  0  2  0  0  0  0  0  0  0  0  0
    4.4480    0.7620   -0.5590 C   0  0  0  0  0  0  0  0  0  0  0  0
    3.5000    1.5620   -0.3300 O   0  0  0  0  0  0  0  0  0  0  0  0
    4.2510   -0.6190   -0.4710 N   0  0  0  0  0  0  0  0  0  0  0  0
    2.9900   -1.2120   -0.1220 C   0  0  0  0  0  0  0  0  0  0  0  0
    2.8750   -2.5790   -0.0560 C   0  0  0  0  0  0  0  0  0  0  0  0
    1.6680   -3.0970    0.2740 C   0  0  0  0  0  0  0  0  0  0  0  0
    0.4740   -2.3370    0.5670 C   0  0  0  0  0  0  0  0  0  0  0  0
    0.6330   -0.9610    0.4920 C   0  0  0  0  0  0  0  0  0  0  0  0
    1.9210   -0.5570    0.1420 N   0  0  0  0  0  0  0  0  0  0  0  0
   -0.3640    0.0360    0.8360 N   0  0  0  0  0  0  0  0  0  0  0  0
   -0.6970    1.3040    0.2800 C   0  0  0  0  0  0  0  0  0  0  0  0
   -1.8010    2.0540    1.0460 C   0  0  0  0  0  0  0  0  0  0  0  0
   -3.0420    1.1270    0.9750 C   0  0  2  0  0  0  0  0  0  0  0  0
   -3.0910    0.8030   -0.4790 C   0  0  0  0  0  0  0  0  0  0  0  0
   -4.2440    1.9190    1.3160 C   0  0  0  0  0  0  0  0  0  0  0  0
   -5.5530    1.1590    1.3260 C   0  0  0  0  0  0  0  0  0  0  0  0
   -6.1700    0.9390    0.0880 N   0  0  0  0  0  0  0  0  0  0  0  0
   -7.0400    0.2070   -0.4210 C   0  0  0  0  0  0  0  0  0  0  0  0
   -6.7520   -1.1380   -0.6550 O   0  0  0  0  0  0  0  0  0  0  0  0
   -5.5520   -1.8070   -0.3740 C   0  0  0  0  0  0  0  0  0  0  0  0
   -5.2790   -2.3400    0.8420 C   0  0  0  0  0  0  0  0  0  0  0  0
   -4.0600   -2.9880    1.1370 C   0  0  0  0  0  0  0  0  0  0  0  0
   -3.0700   -3.1070    0.1650 C   0  0  0  0  0  0  0  0  0  0  0  0
   -3.3700   -2.5650   -1.0720 C   0  0  0  0  0  0  0  0  0  0  0  0
   -4.6090   -1.9190   -1.3410 C   0  0  0  0  0  0  0  0  0  0  0  0
   -1.7310   -3.7470    0.4710 C   0  0  0  0  0  0  0  0  0  0  0  0
   -0.6350   -3.1960    0.9300 C   0  0  0  0  0  0  0  0  0  0  0  0
   -2.6430    0.0970    1.9550 C   0  0  0  0  0  0  0  0  0  0  0  0
   -1.2080   -0.2200    2.0290 C   0  0  0  0  0  0  0  0  0  0  0  0
    5.8500    2.6420   -0.9760 O   0  0  0  0  0  0  0  0  0  0  0  0
  2  1  1  1
  2  3  1  0
  2 35  1  0
  3  4  1  0
  4  5  1  0
  5  6  1  6
  5 35  1  0
  6  7  2  0
  6  8  1  0
  8  9  1  0
  9 10  2  0
  9 14  1  0
 10 11  1  0
 11 12  2  0
 12 13  1  0
 12 32  1  0
 13 14  2  0
 13 15  1  0
 15 16  1  0
 15 34  1  0
 16 17  1  0
 17 18  1  0
 18 19  1  6
 18 20  1  0
 18 33  1  0
 20 21  1  0
 21 22  1  0
 22 23  2  0
 23 24  1  0
 24 25  1  0
 25 26  2  0
 25 30  1  0
 26 27  1  0
 27 28  2  0
 28 29  1  0
 28 31  1  0
 29 30  2  0
 31 32  2  0
 33 34  1  0
M  END
