
     RDKit          3D

 35 40  0  0  0  0  0  0  0  0999 V2000
    6.4550   -2.9600   -2.2790 C   0  0  0  0  0  0  0  0  0  0  0  0
    5.1920   -2.5710   -1.6160 C   0  0  0  0  0  0  0  0  0  0  0  0
    5.0300   -1.3130   -1.2280 C   0  0  0  0  0  0  0  0  0  0  0  0
    6.0750   -0.4200   -1.4680 C   0  0  0  0  0  0  0  0  0  0  0  0
    6.4200    0.7460   -1.3150 C   0  0  0  0  0  0  0  0  0  0  0  0
    6.7570    2.0720   -1.1820 C   0  0  0  0  0  0  0  0  0  0  0  0
    8.1140    1.6810   -2.1120 C   0  0  0  0  0  0  0  0  0  0  0  0
    8.2990    0.2480   -1.7030 C   0  0  1  0  0  0  0  0  0  0  0  0
    7.6600    0.3410   -0.3940 O   0  0  0  0  0  0  0  0  0  0  0  0
    7.3550   -0.7580   -2.1630 O   0  0  0  0  0  0  0  0  0  0  0  0
    3.8060   -0.6920   -0.6180 C   0  0  0  0  0  0  0  0  0  0  0  0
    2.6960   -1.2400   -0.2030 C   0  0  0  0  0  0  0  0  0  0  0  0
    1.7150   -0.3650    0.3260 N   0  0  0  0  0  0  0  0  0  0  0  0
    0.4570   -0.5520   -0.1010 C   0  0  0  0  0  0  0  0  0  0  0  0
   -0.5600    0.3080    0.4050 C   0  0  0  0  0  0  0  0  0  0  0  0
   -0.1510    1.1500    1.3160 O   0  0  0  0  0  0  0  0  0  0  0  0
   -1.9030    0.4070    0.0980 N   0  0  0  0  0  0  0  0  0  0  0  0
   -2.6420   -0.2520   -0.9330 C   0  0  0  0  0  0  0  0  0  0  0  0
   -3.7300    0.6590   -1.5370 C   0  0  0  0  0  0  0  0  0  0  0  0
   -4.6460    1.2030   -0.5250 C   0  0  1  0  0  0  0  0  0  0  0  0
   -6.1040    1.0040   -0.7600 C   0  0  0  0  0  0  0  0  0  0  0  0
   -4.1660    0.7700    0.8540 C   0  0  2  0  0  0  0  0  0  0  0  0
   -5.0820    1.2050    1.9110 C   0  0  0  0  0  0  0  0  0  0  0  0
   -5.9890    0.2850    2.4270 C   0  0  0  0  0  0  0  0  0  0  0  0
   -6.8830    0.6490    3.4240 C   0  0  0  0  0  0  0  0  0  0  0  0
   -6.8770    1.9230    3.9110 C   0  0  0  0  0  0  0  0  0  0  0  0
   -7.8400    2.3370    4.9780 C   0  0  0  0  0  0  0  0  0  0  0  0
   -5.9910    2.8580    3.4230 C   0  0  0  0  0  0  0  0  0  0  0  0
   -5.1100    2.4790    2.4310 C   0  0  0  0  0  0  0  0  0  0  0  0
   -2.7700    1.2920    0.9630 C   0  0  0  0  0  0  0  0  0  0  0  0
    0.2000   -1.6590   -1.0050 C   0  0  0  0  0  0  0  0  0  0  0  0
    1.0810   -2.7820   -1.0480 N   0  0  0  0  0  0  0  0  0  0  0  0
    2.2330   -2.6630   -0.1820 C   0  0  1  0  0  0  0  0  0  0  0  0
    3.2510   -3.6970   -0.3290 C   0  0  0  0  0  0  0  0  0  0  0  0
    4.2030   -3.5660   -1.4030 N   0  0  0  0  0  0  0  0  0  0  0  0
  1  2  1  0
  2  3  2  0
  2 35  1  0
  3  4  1  0
  3 11  1  0
  4  5  2  0
  4 10  1  0
  5  6  1  0
  5  9  1  0
  6  7  1  0
  8  7  1  6
  8  9  1  0
  8 10  1  0
 11 12  2  0
 12 13  1  0
 12 33  1  0
 13 14  2  0
 14 15  1  0
 14 31  1  0
 15 16  2  0
 15 17  1  0
 17 18  1  0
 17 30  1  0
 18 19  1  0
 19 20  1  0
 20 21  1  6
 20 22  1  0
 22 23  1  1
 22 30  1  0
 23 24  2  0
 23 29  1  0
 24 25  1  0
 25 26  2  0
 26 27  1  0
 26 28  1  0
 28 29  2  0
 31 32  1  0
 32 33  1  0
 33 34  1  6
 34 35  1  0
M  CHG  1  32   1
M  END
