
     RDKit          3D

 35 39  0  0  0  0  0  0  0  0999 V2000
    1.3790    6.3050   -0.3220 O   0  0  0  0  0  0  0  0  0  0  0  0
    0.9900    5.0790   -0.2870 C   0  0  0  0  0  0  0  0  0  0  0  0
   -0.4540    4.9660   -0.5530 N   0  0  0  0  0  0  0  0  0  0  0  0
   -1.0290    3.9960   -1.4210 C   0  0  0  0  0  0  0  0  0  0  0  0
   -1.2470    2.6200   -0.9260 C   0  0  0  0  0  0  0  0  0  0  0  0
   -1.4970    2.5290    0.5300 C   0  0  0  0  0  0  0  0  0  0  0  0
   -1.9280    1.4440    1.1740 C   0  0  0  0  0  0  0  0  0  0  0  0
   -2.1910    0.2850    0.5640 O   0  0  0  0  0  0  0  0  0  0  0  0
   -3.2860   -0.5400    0.3940 C   0  0  1  0  0  0  0  0  0  0  0  0
   -4.5780    0.2230    0.1840 C   0  0  0  0  0  0  0  0  0  0  0  0
   -4.5630    1.0260   -0.9400 O   0  0  0  0  0  0  0  0  0  0  0  0
   -3.1070   -1.6410   -0.6340 C   0  0  2  0  0  0  0  0  0  0  0  0
   -4.3510   -2.4630   -0.8410 C   0  0  0  0  0  0  0  0  0  0  0  0
   -3.9380   -3.8980   -1.0070 C   0  0  0  0  0  0  0  0  0  0  0  0
   -2.4410   -3.8760   -0.8750 C   0  0  0  0  0  0  0  0  0  0  0  0
   -2.2320   -2.6870   -0.0670 N   0  0  1  0  0  0  0  0  0  0  0  0
   -0.8930   -2.2440    0.1280 C   0  0  0  0  0  0  0  0  0  0  0  0
   -0.3730   -1.8970    1.3560 C   0  0  0  0  0  0  0  0  0  0  0  0
    0.9480   -1.3740    1.5080 C   0  0  0  0  0  0  0  0  0  0  0  0
    1.8200   -1.1660    0.4620 C   0  0  0  0  0  0  0  0  0  0  0  0
    1.2860   -1.5260   -0.7550 C   0  0  0  0  0  0  0  0  0  0  0  0
   -0.0350   -2.0510   -0.9270 C   0  0  0  0  0  0  0  0  0  0  0  0
    3.1090   -0.3970    0.6040 N   0  0  0  0  0  0  0  0  0  0  0  0
    4.4450   -0.9710    0.8790 C   0  0  0  0  0  0  0  0  0  0  0  0
    5.2620   -1.4170   -0.1520 C   0  0  0  0  0  0  0  0  0  0  0  0
    6.4940   -1.9540    0.0240 C   0  0  0  0  0  0  0  0  0  0  0  0
    6.9720   -2.0670    1.3000 C   0  0  0  0  0  0  0  0  0  0  0  0
    6.1500   -1.6190    2.3130 C   0  0  0  0  0  0  0  0  0  0  0  0
    4.9390   -1.0950    2.1020 N   0  0  0  0  0  0  0  0  0  0  0  0
    2.7870    1.0620    0.4140 C   0  0  0  0  0  0  0  0  0  0  0  0
    2.2990    1.8680    1.4210 C   0  0  0  0  0  0  0  0  0  0  0  0
    1.7620    3.1690    1.2110 C   0  0  0  0  0  0  0  0  0  0  0  0
    1.6750    3.7670   -0.0380 C   0  0  0  0  0  0  0  0  0  0  0  0
    2.1750    2.9620   -1.0500 C   0  0  0  0  0  0  0  0  0  0  0  0
    2.7090    1.6610   -0.8260 C   0  0  0  0  0  0  0  0  0  0  0  0
  1  2  2  0
  2  3  1  0
  2 33  1  0
  3  4  1  0
  4  5  1  0
  5  6  1  0
  6  7  2  0
  7  8  1  0
  8  9  1  0
  9 10  1  6
  9 12  1  0
 10 11  1  0
 12 13  1  1
 12 16  1  0
 13 14  1  0
 14 15  1  0
 16 15  1  6
 16 17  1  0
 17 18  2  0
 17 22  1  0
 18 19  1  0
 19 20  2  0
 20 21  1  0
 20 23  1  0
 21 22  2  0
 23 24  1  0
 23 30  1  0
 24 25  2  0
 24 29  1  0
 25 26  1  0
 26 27  2  0
 27 28  1  0
 28 29  2  0
 30 31  2  0
 30 35  1  0
 31 32  1  0
 32 33  2  0
 33 34  1  0
 34 35  2  0
M  CHG  1  16   1
M  END
