
     RDKit          3D

 43 48  0  0  0  0  0  0  0  0999 V2000
   -6.5810   -3.5460    0.4910 C   0  0  0  0  0  0  0  0  0  0  0  0
   -6.8320   -2.0890    0.7590 C   0  0  2  0  0  0  0  0  0  0  0  0
   -8.2340   -1.6670    0.3920 C   0  0  0  0  0  0  0  0  0  0  0  0
   -8.0520   -0.1840    0.2150 C   0  0  0  0  0  0  0  0  0  0  0  0
   -6.6990    0.0120   -0.0870 C   0  0  0  0  0  0  0  0  0  0  0  0
   -6.2140    1.2810   -0.3070 C   0  0  0  0  0  0  0  0  0  0  0  0
   -4.8140    1.5740   -0.6250 C   0  0  0  0  0  0  0  0  0  0  0  0
   -4.5280    2.7890   -0.8030 O   0  0  0  0  0  0  0  0  0  0  0  0
   -3.7860    0.6390   -0.7480 N   0  0  0  0  0  0  0  0  0  0  0  0
   -2.4210    0.8570   -1.0610 C   0  0  0  0  0  0  0  0  0  0  0  0
   -1.9820    2.0170   -1.6170 C   0  0  0  0  0  0  0  0  0  0  0  0
   -0.6570    2.2540   -1.9090 C   0  0  0  0  0  0  0  0  0  0  0  0
    0.2830    1.2870   -1.6340 C   0  0  0  0  0  0  0  0  0  0  0  0
   -0.1110    0.1010   -1.0740 C   0  0  0  0  0  0  0  0  0  0  0  0
    0.7970   -0.9310   -0.7850 N   0  0  0  0  0  0  0  0  0  0  0  0
    2.1050   -1.0560   -1.2400 C   0  0  0  0  0  0  0  0  0  0  0  0
    2.6170   -0.2200   -1.9980 O   0  0  0  0  0  0  0  0  0  0  0  0
    2.9430   -2.2120   -0.8280 C   0  0  0  0  0  0  0  0  0  0  0  0
    3.6130   -1.8530    0.4090 N   0  0  0  0  0  0  0  0  0  0  0  0
    3.0860   -2.0780    1.6190 N   0  0  0  0  0  0  0  0  0  0  0  0
    3.9280   -1.6380    2.5620 C   0  0  0  0  0  0  0  0  0  0  0  0
    5.0080   -1.1270    1.9060 C   0  0  0  0  0  0  0  0  0  0  0  0
    4.7990   -1.2670    0.5330 C   0  0  0  0  0  0  0  0  0  0  0  0
    5.7160   -0.8510   -0.5270 C   0  0  0  0  0  0  0  0  0  0  0  0
    6.8810   -0.1300    0.1120 N   0  0  0  0  0  0  0  0  0  0  0  0
    6.6330    1.2590    0.3450 C   0  0  0  0  0  0  0  0  0  0  0  0
    7.9580   -0.9010    0.4730 C   0  0  0  0  0  0  0  0  0  0  0  0
    7.7850   -2.2130    0.3020 O   0  0  0  0  0  0  0  0  0  0  0  0
    9.2570   -0.5810    1.0150 C   0  0  0  0  0  0  0  0  0  0  0  0
   10.0940   -1.5580    1.6030 C   0  0  0  0  0  0  0  0  0  0  0  0
   11.2820   -0.9800    1.9370 C   0  0  0  0  0  0  0  0  0  0  0  0
   11.2160    0.3190    1.5790 C   0  0  0  0  0  0  0  0  0  0  0  0
    9.9830    0.5360    1.0220 N   0  0  0  0  0  0  0  0  0  0  0  0
    9.6680    1.8400    0.4610 C   0  0  0  0  0  0  0  0  0  0  0  0
   -1.4680   -0.1110   -0.7890 C   0  0  0  0  0  0  0  0  0  0  0  0
   -7.1390    2.3200   -0.2100 C   0  0  0  0  0  0  0  0  0  0  0  0
   -8.4690    2.1360    0.0860 C   0  0  0  0  0  0  0  0  0  0  0  0
   -9.3330    3.1620    0.1710 N   0  0  0  0  0  0  0  0  0  0  0  0
  -10.6300    2.9900    0.4580 C   0  0  0  0  0  0  0  0  0  0  0  0
  -11.1350    1.7080    0.6840 C   0  0  0  0  0  0  0  0  0  0  0  0
  -10.2800    0.6290    0.6050 C   0  0  0  0  0  0  0  0  0  0  0  0
   -8.9530    0.8540    0.3070 C   0  0  0  0  0  0  0  0  0  0  0  0
   -6.0780   -1.2420   -0.1000 O   0  0  0  0  0  0  0  0  0  0  0  0
  2  1  1  6
  2  3  1  0
  2 43  1  0
  3  4  1  0
  4  5  2  0
  4 42  1  0
  5  6  1  0
  5 43  1  0
  6  7  1  0
  6 36  2  0
  7  8  2  0
  7  9  1  0
  9 10  1  0
 10 11  2  0
 10 35  1  0
 11 12  1  0
 12 13  2  0
 13 14  1  0
 14 15  1  0
 14 35  2  0
 15 16  1  0
 16 17  2  0
 16 18  1  0
 18 19  1  0
 19 20  1  0
 19 23  1  0
 20 21  2  0
 21 22  1  0
 22 23  2  0
 23 24  1  0
 24 25  1  0
 25 26  1  0
 25 27  1  0
 27 28  2  0
 27 29  1  0
 29 30  2  0
 29 33  1  0
 30 31  1  0
 31 32  2  0
 32 33  1  0
 33 34  1  0
 36 37  1  0
 37 38  2  0
 37 42  1  0
 38 39  1  0
 39 40  2  0
 40 41  1  0
 41 42  2  0
M  CHG  1  38   1
M  END
