
     RDKit          3D

 43 48  0  0  0  0  0  0  0  0999 V2000
   -4.5840   -0.6500    2.5860 C   0  0  0  0  0  0  0  0  0  0  0  0
   -4.7710    0.8510    2.3630 C   0  0  0  0  0  0  0  0  0  0  0  0
   -4.3590    1.1840    1.0620 O   0  0  0  0  0  0  0  0  0  0  0  0
   -4.4110    2.4550    0.5790 C   0  0  0  0  0  0  0  0  0  0  0  0
   -4.9060    3.4260    1.4660 C   0  0  0  0  0  0  0  0  0  0  0  0
   -5.0020    4.7240    1.0870 C   0  0  0  0  0  0  0  0  0  0  0  0
   -4.6040    5.0700   -0.1810 C   0  0  0  0  0  0  0  0  0  0  0  0
   -4.1240    4.1210   -1.0370 C   0  0  0  0  0  0  0  0  0  0  0  0
   -4.0130    2.7630   -0.6740 C   0  0  0  0  0  0  0  0  0  0  0  0
   -3.5000    1.8620   -1.6410 N   0  0  0  0  0  0  0  0  0  0  0  0
   -4.3040    1.1270   -2.5580 C   0  0  0  0  0  0  0  0  0  0  0  0
   -4.5860   -0.2830   -2.2520 C   0  0  0  0  0  0  0  0  0  0  0  0
   -4.0250   -1.0100   -1.2310 C   0  0  0  0  0  0  0  0  0  0  0  0
   -4.3210   -2.3460   -1.0730 C   0  0  0  0  0  0  0  0  0  0  0  0
   -3.9210   -3.3200   -0.1590 C   0  0  0  0  0  0  0  0  0  0  0  0
   -4.4880   -4.4700   -0.4290 O   0  0  0  0  0  0  0  0  0  0  0  0
   -5.2680   -4.3280   -1.4990 C   0  0  0  0  0  0  0  0  0  0  0  0
   -5.1810   -3.0120   -1.9200 C   0  0  0  0  0  0  0  0  0  0  0  0
   -5.7220   -2.2860   -2.9170 N   0  0  0  0  0  0  0  0  0  0  0  0
   -5.4580   -0.9930   -3.0980 C   0  0  0  0  0  0  0  0  0  0  0  0
   -5.9870   -0.3800   -4.0330 O   0  0  0  0  0  0  0  0  0  0  0  0
   -2.0630    1.8300   -1.7330 C   0  0  0  0  0  0  0  0  0  0  0  0
   -1.5680    1.0420   -2.5700 O   0  0  0  0  0  0  0  0  0  0  0  0
   -1.1730    2.6500   -0.9160 C   0  0  0  0  0  0  0  0  0  0  0  0
    0.2750    2.4340   -1.1690 C   0  0  0  0  0  0  0  0  0  0  0  0
    0.7230    1.0640   -0.9130 N   0  0  0  0  0  0  0  0  0  0  0  0
    0.7610    0.0520   -1.7590 N   0  0  0  0  0  0  0  0  0  0  0  0
    1.2320   -1.0620   -1.1810 C   0  0  0  0  0  0  0  0  0  0  0  0
    1.5070   -0.7110    0.1250 C   0  0  0  0  0  0  0  0  0  0  0  0
    2.0550   -1.6660    1.1170 C   0  0  0  0  0  0  0  0  0  0  0  0
    3.5250   -1.4520    1.3640 C   0  0  0  0  0  0  0  0  0  0  0  0
    4.2730   -1.6330    0.0830 C   0  0  0  0  0  0  0  0  0  0  0  0
    5.6880   -1.4560    0.1900 N   0  0  1  0  0  0  0  0  0  0  0  0
    6.0430   -0.1460    0.6640 C   0  0  0  0  0  0  0  0  0  0  0  0
    7.5230    0.0780    0.3270 C   0  0  0  0  0  0  0  0  0  0  0  0
    8.2800   -0.9040    1.1380 C   0  0  0  0  0  0  0  0  0  0  0  0
    9.4810   -0.8890    1.7180 N   0  0  0  0  0  0  0  0  0  0  0  0
    9.6420   -2.0490    2.3190 N   0  0  0  0  0  0  0  0  0  0  0  0
    8.5760   -2.8400    2.1530 C   0  0  0  0  0  0  0  0  0  0  0  0
    7.6940   -2.1170    1.3970 C   0  0  0  0  0  0  0  0  0  0  0  0
    6.3440   -2.5140    0.9140 C   0  0  0  0  0  0  0  0  0  0  0  0
    1.1840    0.6070    0.2660 C   0  0  0  0  0  0  0  0  0  0  0  0
    1.3310    1.3810    1.5290 C   0  0  0  0  0  0  0  0  0  0  0  0
  1  2  1  0
  2  3  1  0
  3  4  1  0
  4  5  2  0
  4  9  1  0
  5  6  1  0
  6  7  2  0
  7  8  1  0
  8  9  2  0
  9 10  1  0
 10 11  1  0
 10 22  1  0
 11 12  1  0
 12 13  2  0
 12 20  1  0
 13 14  1  0
 14 15  2  0
 14 18  1  0
 15 16  1  0
 16 17  1  0
 17 18  2  0
 18 19  1  0
 19 20  1  0
 20 21  2  0
 22 23  2  0
 22 24  1  0
 24 25  1  0
 25 26  1  0
 26 27  1  0
 26 42  1  0
 27 28  2  0
 28 29  1  0
 29 30  1  0
 29 42  2  0
 30 31  1  0
 31 32  1  0
 33 32  1  1
 33 34  1  0
 33 41  1  0
 34 35  1  0
 35 36  1  0
 36 37  1  0
 36 40  2  0
 37 38  1  0
 38 39  2  0
 39 40  1  0
 40 41  1  0
 42 43  1  0
M  CHG  1  33   1
M  END
