
     RDKit          3D

 43 48  0  0  0  0  0  0  0  0999 V2000
    1.8980    4.5120   -1.3530 C   0  0  0  0  0  0  0  0  0  0  0  0
    3.1120    4.1830   -2.2300 C   0  0  0  0  0  0  0  0  0  0  0  0
    4.0660    3.4830   -1.7050 O   0  0  0  0  0  0  0  0  0  0  0  0
    4.6660    2.4800   -1.1400 C   0  0  0  0  0  0  0  0  0  0  0  0
    6.0580    2.6150   -0.8620 C   0  0  0  0  0  0  0  0  0  0  0  0
    6.6820    1.5610   -0.2700 C   0  0  0  0  0  0  0  0  0  0  0  0
    6.0150    0.4120    0.0530 C   0  0  0  0  0  0  0  0  0  0  0  0
    4.6400    0.2650   -0.2150 C   0  0  0  0  0  0  0  0  0  0  0  0
    3.9860   -0.9400    0.1510 N   0  0  0  0  0  0  0  0  0  0  0  0
    3.2620   -1.7590   -0.6120 C   0  0  0  0  0  0  0  0  0  0  0  0
    2.9840   -1.6510   -1.8990 N   0  0  0  0  0  0  0  0  0  0  0  0
    2.1800   -2.7000   -2.4060 C   0  0  0  0  0  0  0  0  0  0  0  0
    2.6970   -3.7080   -3.1860 C   0  0  0  0  0  0  0  0  0  0  0  0
    1.9020   -4.7700   -3.5880 C   0  0  0  0  0  0  0  0  0  0  0  0
    0.5890   -4.8140   -3.2030 C   0  0  0  0  0  0  0  0  0  0  0  0
    0.0660   -3.7760   -2.4040 C   0  0  0  0  0  0  0  0  0  0  0  0
    0.8550   -2.7210   -2.0070 C   0  0  0  0  0  0  0  0  0  0  0  0
    0.3770   -1.6230   -1.2840 N   0  0  0  0  0  0  0  0  0  0  0  0
   -0.8040   -1.5240   -0.5000 C   0  0  0  0  0  0  0  0  0  0  0  0
   -1.5100   -2.5540   -0.4120 O   0  0  0  0  0  0  0  0  0  0  0  0
   -1.1800   -0.2580    0.1850 C   0  0  0  0  0  0  0  0  0  0  0  0
   -2.3450   -0.3870    0.9770 N   0  0  2  0  0  0  0  0  0  0  0  0
   -3.6370   -0.3710    0.4690 C   0  0  0  0  0  0  0  0  0  0  0  0
   -4.0290   -0.6600   -0.8970 C   0  0  2  0  0  0  0  0  0  0  0  0
   -3.5720    0.1620   -2.0350 C   0  0  0  0  0  0  0  0  0  0  0  0
   -3.9240    1.5970   -1.9170 C   0  0  0  0  0  0  0  0  0  0  0  0
   -5.3540    1.8270   -1.4980 C   0  0  0  0  0  0  0  0  0  0  0  0
   -5.9380    0.7010   -0.7070 C   0  0  0  0  0  0  0  0  0  0  0  0
   -5.4570   -0.5400   -0.9460 O   0  0  0  0  0  0  0  0  0  0  0  0
   -2.1690    0.5690    2.0990 C   0  0  2  0  0  0  0  0  0  0  0  0
   -2.9850    0.2770    3.2910 C   0  0  0  0  0  0  0  0  0  0  0  0
   -3.5690    1.4600    3.9980 C   0  0  0  0  0  0  0  0  0  0  0  0
   -3.8040    2.6710    3.1560 C   0  0  0  0  0  0  0  0  0  0  0  0
   -3.5130    2.5100    1.8240 O   0  0  0  0  0  0  0  0  0  0  0  0
   -2.2510    1.9980    1.6970 C   0  0  0  0  0  0  0  0  0  0  0  0
    2.8210   -2.8050    0.1560 N   0  0  0  0  0  0  0  0  0  0  0  0
    3.2650   -2.6490    1.3980 C   0  0  0  0  0  0  0  0  0  0  0  0
    3.0860   -3.4390    2.5230 C   0  0  0  0  0  0  0  0  0  0  0  0
    3.6700   -3.0410    3.7250 C   0  0  0  0  0  0  0  0  0  0  0  0
    4.3960   -1.8670    3.6950 C   0  0  0  0  0  0  0  0  0  0  0  0
    4.5420   -1.1350    2.5790 N   0  0  0  0  0  0  0  0  0  0  0  0
    3.9930   -1.4800    1.3880 C   0  0  0  0  0  0  0  0  0  0  0  0
    4.0680    1.3160   -0.7940 N   0  0  0  0  0  0  0  0  0  0  0  0
  1  2  1  0
  2  3  1  0
  3  4  1  0
  4  5  2  0
  4 43  1  0
  5  6  1  0
  6  7  2  0
  7  8  1  0
  8  9  1  0
  8 43  2  0
  9 10  1  0
  9 42  1  0
 10 11  2  3
 10 36  1  0
 11 12  1  0
 12 13  2  0
 12 17  1  0
 13 14  1  0
 14 15  2  0
 15 16  1  0
 16 17  2  0
 17 18  1  0
 18 19  1  0
 19 20  2  0
 19 21  1  0
 22 21  1  6
 22 23  1  0
 22 30  1  0
 24 23  1  1
 24 25  1  0
 24 29  1  0
 25 26  1  0
 26 27  1  0
 27 28  1  0
 28 29  1  0
 30 31  1  1
 30 35  1  0
 31 32  1  0
 32 33  1  0
 33 34  1  0
 34 35  1  0
 36 37  1  0
 37 38  2  0
 37 42  1  0
 38 39  1  0
 39 40  2  0
 40 41  1  0
 41 42  2  0
M  CHG  1  22   1
M  END
