
     RDKit          3D

 43 48  0  0  0  0  0  0  0  0999 V2000
   -7.0440   -3.5670   -0.2720 C   0  0  0  0  0  0  0  0  0  0  0  0
   -6.0230   -2.6180   -0.5830 N   0  0  0  0  0  0  0  0  0  0  0  0
   -6.1490   -1.3810    0.2160 C   0  0  1  0  0  0  0  0  0  0  0  0
   -6.5760   -1.8360    1.5690 C   0  0  0  0  0  0  0  0  0  0  0  0
   -4.8380   -0.7160    0.1240 C   0  0  0  0  0  0  0  0  0  0  0  0
   -3.8020   -1.0570   -0.7610 C   0  0  0  0  0  0  0  0  0  0  0  0
   -2.7830   -0.1580   -0.5600 C   0  0  0  0  0  0  0  0  0  0  0  0
   -1.5010   -0.2350   -1.2460 C   0  0  0  0  0  0  0  0  0  0  0  0
   -1.4740   -1.0400   -2.2730 O   0  0  0  0  0  0  0  0  0  0  0  0
   -0.3720    0.4640   -0.8910 N   0  0  0  0  0  0  0  0  0  0  0  0
   -0.1210    1.1880    0.2850 C   0  0  0  0  0  0  0  0  0  0  0  0
    0.9790    0.2690    1.0060 C   0  0  0  0  0  0  0  0  0  0  0  0
    1.7820   -0.3370    0.1280 N   0  0  0  0  0  0  0  0  0  0  0  0
    3.2000   -0.6380    0.2600 C   0  0  0  0  0  0  0  0  0  0  0  0
    3.9290    0.6630    0.2070 C   0  0  0  0  0  0  0  0  0  0  0  0
    3.6430    1.6880    1.0380 C   0  0  0  0  0  0  0  0  0  0  0  0
    4.3570    2.8770    0.9200 C   0  0  0  0  0  0  0  0  0  0  0  0
    5.3490    2.9590   -0.0650 C   0  0  0  0  0  0  0  0  0  0  0  0
    5.6510    1.9220   -0.9110 C   0  0  0  0  0  0  0  0  0  0  0  0
    4.9200    0.7400   -0.7600 C   0  0  0  0  0  0  0  0  0  0  0  0
    5.2260   -0.3230   -1.6220 O   0  0  0  0  0  0  0  0  0  0  0  0
    5.9630   -1.3620   -1.0700 C   0  0  0  0  0  0  0  0  0  0  0  0
    6.9350   -0.9140   -0.1550 C   0  0  0  0  0  0  0  0  0  0  0  0
    7.7790   -1.7620    0.4950 C   0  0  0  0  0  0  0  0  0  0  0  0
    7.6380   -3.1150    0.2110 C   0  0  0  0  0  0  0  0  0  0  0  0
    6.6890   -3.5840   -0.6820 C   0  0  0  0  0  0  0  0  0  0  0  0
    6.5630   -4.9550   -0.9880 N   0  0  0  0  0  0  0  0  0  0  0  0
    7.4310   -5.8680   -0.5530 O   0  0  0  0  0  0  0  0  0  0  0  0
    5.8430   -2.6700   -1.3240 C   0  0  0  0  0  0  0  0  0  0  0  0
    5.8900    4.3550    0.0330 C   0  0  0  0  0  0  0  0  0  0  0  0
    5.5070    4.7660    1.4480 C   0  0  0  0  0  0  0  0  0  0  0  0
    4.2760    4.0580    1.6340 O   0  0  0  0  0  0  0  0  0  0  0  0
    1.9330    0.3730   -1.2110 C   0  0  0  0  0  0  0  0  0  0  0  0
    0.6700    0.5890   -1.9220 C   0  0  0  0  0  0  0  0  0  0  0  0
   -3.2000    0.6650    0.3860 N   0  0  0  0  0  0  0  0  0  0  0  0
   -4.4100    0.3500    0.7960 N   0  0  0  0  0  0  0  0  0  0  0  0
   -5.1910    1.1160    1.8010 C   0  0  0  0  0  0  0  0  0  0  0  0
   -6.2870    1.7560    0.9940 C   0  0  0  0  0  0  0  0  0  0  0  0
   -5.9790    2.5140   -0.0900 C   0  0  0  0  0  0  0  0  0  0  0  0
   -7.0260    2.9820   -0.8940 C   0  0  0  0  0  0  0  0  0  0  0  0
   -8.2970    2.6350   -0.5190 C   0  0  0  0  0  0  0  0  0  0  0  0
   -8.5880    1.8660    0.5870 C   0  0  0  0  0  0  0  0  0  0  0  0
   -7.5330    1.4520    1.3150 N   0  0  0  0  0  0  0  0  0  0  0  0
  1  2  1  0
  2  3  1  0
  3  4  1  1
  3  5  1  0
  5  6  2  0
  5 36  1  0
  6  7  1  0
  7  8  1  0
  7 35  2  0
  8  9  2  0
  8 10  1  0
 10 11  1  0
 10 34  1  0
 11 12  1  0
 12 13  1  0
 13 14  1  0
 13 33  1  0
 14 15  1  0
 15 16  2  0
 15 20  1  0
 16 17  1  0
 17 18  2  0
 17 32  1  0
 18 19  1  0
 18 30  1  0
 19 20  2  0
 20 21  1  0
 21 22  1  0
 22 23  2  0
 22 29  1  0
 23 24  1  0
 24 25  2  0
 25 26  1  0
 26 27  1  0
 26 29  2  0
 27 28  1  0
 30 31  1  0
 31 32  1  0
 33 34  1  0
 35 36  1  0
 36 37  1  0
 37 38  1  0
 38 39  2  0
 38 43  1  0
 39 40  1  0
 40 41  2  0
 41 42  1  0
 42 43  2  0
M  CHG  1   2   1
M  END
