
     RDKit          3D

 43 48  0  0  0  0  0  0  0  0999 V2000
   -3.0350    5.0870    1.9480 C   0  0  0  0  0  0  0  0  0  0  0  0
   -3.9000    4.1280    1.7740 C   0  0  0  0  0  0  0  0  0  0  0  0
   -4.3130    3.6740    0.4230 C   0  0  0  0  0  0  0  0  0  0  0  0
   -4.0370    2.2710    0.2130 N   0  0  0  0  0  0  0  0  0  0  0  0
   -2.7120    1.7900    0.1420 C   0  0  0  0  0  0  0  0  0  0  0  0
   -1.6810    2.6820   -0.1530 C   0  0  0  0  0  0  0  0  0  0  0  0
   -0.4230    2.1780   -0.3330 C   0  0  0  0  0  0  0  0  0  0  0  0
   -0.1400    0.8380   -0.2370 C   0  0  0  0  0  0  0  0  0  0  0  0
    1.1900    0.4060   -0.4420 N   0  0  0  0  0  0  0  0  0  0  0  0
    1.9220   -0.0280    0.5290 C   0  0  0  0  0  0  0  0  0  0  0  0
    3.3100   -0.4740    0.2890 C   0  0  0  0  0  0  0  0  0  0  0  0
    3.9330   -0.4890   -0.8350 N   0  0  0  0  0  0  0  0  0  0  0  0
    5.2440   -0.9810   -0.6690 N   0  0  0  0  0  0  0  0  0  0  0  0
    6.3920   -0.7770   -1.4790 C   0  0  0  0  0  0  0  0  0  0  0  0
    6.4150   -1.1630   -2.8020 C   0  0  0  0  0  0  0  0  0  0  0  0
    7.5260   -0.9690   -3.6010 C   0  0  0  0  0  0  0  0  0  0  0  0
    8.6700   -0.3750   -3.1000 C   0  0  0  0  0  0  0  0  0  0  0  0
    8.6510    0.0120   -1.7790 C   0  0  0  0  0  0  0  0  0  0  0  0
    7.5460   -0.1790   -0.9810 C   0  0  0  0  0  0  0  0  0  0  0  0
    7.5120    0.2080    0.3590 O   0  0  0  0  0  0  0  0  0  0  0  0
    8.5810    0.8230    1.0250 C   0  0  0  0  0  0  0  0  0  0  0  0
    8.1290    1.0750    2.4570 C   0  0  0  0  0  0  0  0  0  0  0  0
    5.2060   -1.7900    0.5600 C   0  0  0  0  0  0  0  0  0  0  0  0
    4.2060   -0.9780    1.3530 C   0  0  0  0  0  0  0  0  0  0  0  0
   -1.1350   -0.0030    0.0460 N   0  0  0  0  0  0  0  0  0  0  0  0
   -2.4290    0.4660    0.2410 C   0  0  0  0  0  0  0  0  0  0  0  0
   -3.3640   -0.6140    0.6010 C   0  0  1  0  0  0  0  0  0  0  0  0
   -4.6530   -0.3910    1.1390 C   0  0  0  0  0  0  0  0  0  0  0  0
   -4.6480    0.2360    2.2600 O   0  0  0  0  0  0  0  0  0  0  0  0
   -6.0080   -0.6940    0.7550 N   0  0  0  0  0  0  0  0  0  0  0  0
   -7.0750    0.0070    1.4040 C   0  0  0  0  0  0  0  0  0  0  0  0
   -7.5710   -0.6910    2.6470 C   0  0  0  0  0  0  0  0  0  0  0  0
   -6.3940   -1.6350   -0.2180 C   0  0  0  0  0  0  0  0  0  0  0  0
   -7.5440   -2.1180   -0.1340 O   0  0  0  0  0  0  0  0  0  0  0  0
   -5.5810   -2.1140   -1.3300 C   0  0  0  0  0  0  0  0  0  0  0  0
   -6.0820   -2.6570   -2.4250 C   0  0  0  0  0  0  0  0  0  0  0  0
   -4.9770   -3.0250   -3.3430 C   0  0  0  0  0  0  0  0  0  0  0  0
   -3.7380   -2.5910   -2.6000 C   0  0  0  0  0  0  0  0  0  0  0  0
   -4.1190   -2.0800   -1.4540 C   0  0  0  0  0  0  0  0  0  0  0  0
   -3.2450   -1.5830   -0.4830 N   0  0  0  0  0  0  0  0  0  0  0  0
   -1.9530   -2.1610   -0.6040 C   0  0  0  0  0  0  0  0  0  0  0  0
   -1.7230   -3.1850   -1.2500 O   0  0  0  0  0  0  0  0  0  0  0  0
   -0.8560   -1.4480    0.1130 C   0  0  0  0  0  0  0  0  0  0  0  0
  1  2  2  0
  2  3  1  0
  3  4  1  0
  4  5  1  0
  5  6  2  0
  5 26  1  0
  6  7  1  0
  7  8  2  0
  8  9  1  0
  8 25  1  0
  9 10  2  3
 10 11  1  0
 11 12  2  0
 11 24  1  0
 12 13  1  0
 13 14  1  0
 13 23  1  0
 14 15  2  0
 14 19  1  0
 15 16  1  0
 16 17  2  0
 17 18  1  0
 18 19  2  0
 19 20  1  0
 20 21  1  0
 21 22  1  0
 23 24  1  0
 25 26  2  0
 25 43  1  0
 26 27  1  0
 27 28  1  6
 27 40  1  0
 28 29  2  0
 28 30  1  0
 30 31  1  0
 30 33  1  0
 31 32  1  0
 33 34  2  0
 33 35  1  0
 35 36  2  0
 35 39  1  0
 36 37  1  0
 37 38  1  0
 38 39  2  0
 39 40  1  0
 40 41  1  0
 41 42  2  0
 41 43  1  0
M  CHG  1  25   1
M  END
