
     RDKit          3D

 43 48  0  0  0  0  0  0  0  0999 V2000
    6.1170   -0.3780   -4.8550 C   0  0  0  0  0  0  0  0  0  0  0  0
    4.7500   -0.6890   -5.3890 C   0  0  0  0  0  0  0  0  0  0  0  0
    3.7100   -0.7130   -4.3100 C   0  0  0  0  0  0  0  0  0  0  0  0
    3.9490   -0.4860   -2.9970 C   0  0  0  0  0  0  0  0  0  0  0  0
    2.7120   -0.5970   -2.2870 C   0  0  0  0  0  0  0  0  0  0  0  0
    2.6340   -0.3940   -0.8710 C   0  0  0  0  0  0  0  0  0  0  0  0
    3.8360   -0.0300   -0.3500 O   0  0  0  0  0  0  0  0  0  0  0  0
    1.7180   -0.4560    0.1200 N   0  0  0  0  0  0  0  0  0  0  0  0
    2.2730   -0.0940    1.4990 C   0  0  0  0  0  0  0  0  0  0  0  0
    2.7810   -1.3340    2.1470 C   0  0  0  0  0  0  0  0  0  0  0  0
    3.3120   -1.0470    3.4430 N   0  0  2  0  0  0  0  0  0  0  0  0
    2.7850    0.2040    3.9700 C   0  0  0  0  0  0  0  0  0  0  0  0
    3.5060    0.4650    5.2830 C   0  0  0  0  0  0  0  0  0  0  0  0
    4.1120   -0.6910    5.7750 O   0  0  0  0  0  0  0  0  0  0  0  0
    5.1740   -1.0530    4.9370 C   0  0  0  0  0  0  0  0  0  0  0  0
    4.7540   -0.9380    3.4710 C   0  0  0  0  0  0  0  0  0  0  0  0
    0.3630   -0.7880    0.1380 C   0  0  0  0  0  0  0  0  0  0  0  0
   -0.6060    0.3220   -0.0480 C   0  0  0  0  0  0  0  0  0  0  0  0
   -0.1640    1.6290   -0.2370 C   0  0  0  0  0  0  0  0  0  0  0  0
   -1.1190    2.6090   -0.4060 C   0  0  0  0  0  0  0  0  0  0  0  0
   -0.7400    3.9250   -0.5970 C   0  0  0  0  0  0  0  0  0  0  0  0
   -1.6850    4.9270   -0.7690 C   0  0  0  0  0  0  0  0  0  0  0  0
   -1.3360    6.2440   -0.9610 C   0  0  0  0  0  0  0  0  0  0  0  0
   -2.2600    7.2510   -1.1330 C   0  0  0  0  0  0  0  0  0  0  0  0
   -3.5970    6.9110   -1.1100 C   0  0  0  0  0  0  0  0  0  0  0  0
   -3.9710    5.5980   -0.9190 C   0  0  0  0  0  0  0  0  0  0  0  0
   -3.0290    4.5980   -0.7470 C   0  0  0  0  0  0  0  0  0  0  0  0
   -3.3750    3.2810   -0.5550 C   0  0  0  0  0  0  0  0  0  0  0  0
   -2.4530    2.2630   -0.3810 C   0  0  0  0  0  0  0  0  0  0  0  0
   -2.8530    0.9940   -0.1970 N   0  0  0  0  0  0  0  0  0  0  0  0
   -1.9400   -0.0060   -0.0260 C   0  0  0  0  0  0  0  0  0  0  0  0
   -2.4550   -1.3150    0.1660 N   0  0  0  0  0  0  0  0  0  0  0  0
   -3.8360   -1.5860    0.1750 C   0  0  0  0  0  0  0  0  0  0  0  0
   -4.6230   -0.6280    0.0080 O   0  0  0  0  0  0  0  0  0  0  0  0
   -4.3960   -2.8710    0.3620 N   0  0  0  0  0  0  0  0  0  0  0  0
   -5.8220   -3.1100    0.3650 C   0  0  1  0  0  0  0  0  0  0  0  0
   -6.2700   -4.0330   -0.7180 C   0  0  0  0  0  0  0  0  0  0  0  0
   -7.1730   -4.9960    0.0160 C   0  0  0  0  0  0  0  0  0  0  0  0
   -7.4530   -4.4110    1.2460 O   0  0  0  0  0  0  0  0  0  0  0  0
   -6.3370   -3.7030    1.6260 C   0  0  0  0  0  0  0  0  0  0  0  0
    1.8310   -0.8800   -3.2250 N   0  0  0  0  0  0  0  0  0  0  0  0
    0.4040   -1.0830   -3.0790 C   0  0  0  0  0  0  0  0  0  0  0  0
    2.4360   -0.9500   -4.4420 N   0  0  0  0  0  0  0  0  0  0  0  0
  1  2  1  0
  2  3  1  0
  3  4  1  0
  3 43  2  0
  4  5  2  0
  5  6  1  0
  5 41  1  0
  6  7  2  0
  6  8  1  0
  8  9  1  0
  8 17  1  0
  9 10  1  0
 11 10  1  6
 11 12  1  0
 11 16  1  0
 12 13  1  0
 13 14  1  0
 14 15  1  0
 15 16  1  0
 17 18  1  0
 18 19  2  0
 18 31  1  0
 19 20  1  0
 20 21  2  0
 20 29  1  0
 21 22  1  0
 22 23  2  0
 22 27  1  0
 23 24  1  0
 24 25  2  0
 25 26  1  0
 26 27  2  0
 27 28  1  0
 28 29  2  0
 29 30  1  0
 30 31  2  0
 31 32  1  0
 32 33  1  0
 33 34  2  0
 33 35  1  0
 36 35  1  1
 36 37  1  0
 36 40  1  0
 37 38  1  0
 38 39  1  0
 39 40  1  0
 41 42  1  0
 41 43  1  0
M  CHG  1  11   1
M  END
