
     RDKit          3D

 43 48  0  0  0  0  0  0  0  0999 V2000
   -9.2270    3.5090    0.7430 C   0  0  0  0  0  0  0  0  0  0  0  0
   -9.2410    2.4860   -0.3400 C   0  0  0  0  0  0  0  0  0  0  0  0
  -10.1450    2.6930   -1.4590 C   0  0  0  0  0  0  0  0  0  0  0  0
  -10.8790    3.7140   -1.4830 O   0  0  0  0  0  0  0  0  0  0  0  0
   -8.4510    1.4240   -0.2760 C   0  0  0  0  0  0  0  0  0  0  0  0
   -8.3770    0.4420   -1.1850 N   0  0  0  0  0  0  0  0  0  0  0  0
   -8.8770    0.0190   -2.3560 N   0  0  0  0  0  0  0  0  0  0  0  0
   -8.3110   -1.1400   -2.7240 C   0  0  0  0  0  0  0  0  0  0  0  0
   -8.5960   -1.9270   -3.9540 C   0  0  0  0  0  0  0  0  0  0  0  0
   -7.4130   -1.4340   -1.7100 C   0  0  0  0  0  0  0  0  0  0  0  0
   -7.4640   -0.4330   -0.7500 C   0  0  0  0  0  0  0  0  0  0  0  0
   -6.9670    0.0180    0.4500 C   0  0  0  0  0  0  0  0  0  0  0  0
   -6.0970   -0.2080    1.4950 C   0  0  0  0  0  0  0  0  0  0  0  0
   -6.2130    0.8410    2.4150 C   0  0  0  0  0  0  0  0  0  0  0  0
   -5.4770    1.0280    3.6940 C   0  0  0  0  0  0  0  0  0  0  0  0
   -4.4860   -0.0160    3.8330 N   0  0  0  0  0  0  0  0  0  0  0  0
   -3.2540    0.0450    3.0730 C   0  0  0  0  0  0  0  0  0  0  0  0
   -3.1540    1.0390    2.3330 O   0  0  0  0  0  0  0  0  0  0  0  0
   -2.2950   -0.9770    3.2160 N   0  0  0  0  0  0  0  0  0  0  0  0
   -1.0640   -0.9810    2.5010 C   0  0  0  0  0  0  0  0  0  0  0  0
   -0.1590   -2.0260    2.7580 C   0  0  0  0  0  0  0  0  0  0  0  0
    1.0370   -2.0910    2.1080 C   0  0  0  0  0  0  0  0  0  0  0  0
    1.4320   -1.1430    1.1640 C   0  0  0  0  0  0  0  0  0  0  0  0
    2.6670   -1.3380    0.5880 O   0  0  0  0  0  0  0  0  0  0  0  0
    3.2880   -0.5300   -0.3780 C   0  0  2  0  0  0  0  0  0  0  0  0
    3.5080   -1.2750   -1.6810 C   0  0  0  0  0  0  0  0  0  0  0  0
    4.9790   -1.2320   -2.0520 C   0  0  0  0  0  0  0  0  0  0  0  0
    5.6990   -1.8340   -0.9190 N   0  0  1  0  0  0  0  0  0  0  0  0
    6.9850   -2.3120   -1.3130 C   0  0  0  0  0  0  0  0  0  0  0  0
    8.1400   -1.5050   -0.8430 C   0  0  0  0  0  0  0  0  0  0  0  0
    8.0930   -0.1690   -1.3180 O   0  0  0  0  0  0  0  0  0  0  0  0
    9.0520    0.7590   -1.0120 C   0  0  0  0  0  0  0  0  0  0  0  0
   10.1560    0.5430   -0.2320 C   0  0  0  0  0  0  0  0  0  0  0  0
   11.0740    1.5380    0.0260 C   0  0  0  0  0  0  0  0  0  0  0  0
   10.8990    2.8020   -0.5060 C   0  0  0  0  0  0  0  0  0  0  0  0
    9.8030    3.0410   -1.2890 C   0  0  0  0  0  0  0  0  0  0  0  0
    8.8900    2.0390   -1.5410 C   0  0  0  0  0  0  0  0  0  0  0  0
    5.6810   -0.9760    0.2150 C   0  0  0  0  0  0  0  0  0  0  0  0
    4.5790    0.0750    0.1340 C   0  0  0  0  0  0  0  0  0  0  0  0
    0.5700   -0.1360    0.9090 C   0  0  0  0  0  0  0  0  0  0  0  0
   -0.6600   -0.0670    1.5760 C   0  0  0  0  0  0  0  0  0  0  0  0
   -7.1430    1.6560    1.8920 N   0  0  0  0  0  0  0  0  0  0  0  0
   -7.5950    1.1730    0.7230 N   0  0  0  0  0  0  0  0  0  0  0  0
  1  2  1  0
  2  3  1  0
  2  5  2  3
  3  4  2  0
  5  6  1  0
  5 43  1  0
  6  7  1  0
  6 11  1  0
  7  8  2  0
  8  9  1  0
  8 10  1  0
 10 11  2  0
 11 12  1  0
 12 13  2  0
 12 43  1  0
 13 14  1  0
 14 15  1  0
 14 42  2  0
 15 16  1  0
 16 17  1  0
 17 18  2  0
 17 19  1  0
 19 20  1  0
 20 21  2  0
 20 41  1  0
 21 22  1  0
 22 23  2  0
 23 24  1  0
 23 40  1  0
 25 24  1  1
 25 26  1  0
 25 39  1  0
 26 27  1  0
 27 28  1  0
 28 29  1  6
 28 38  1  0
 29 30  1  0
 30 31  1  0
 31 32  1  0
 32 33  2  0
 32 37  1  0
 33 34  1  0
 34 35  2  0
 35 36  1  0
 36 37  2  0
 38 39  1  0
 40 41  2  0
 42 43  1  0
M  CHG  1  28   1
M  END
