
     RDKit          3D

 49 54  0  0  0  0  0  0  0  0999 V2000
    1.7730   -1.4080    3.8270 C   0  0  0  0  0  0  0  0  0  0  0  0
    2.8670   -1.2420    2.8540 C   0  0  2  0  0  0  0  0  0  0  0  0
    4.1180   -0.9350    3.6290 C   0  0  0  0  0  0  0  0  0  0  0  0
    5.0560   -1.8890    3.9560 C   0  0  0  0  0  0  0  0  0  0  0  0
    6.1970   -1.5950    4.6650 C   0  0  0  0  0  0  0  0  0  0  0  0
    6.4480   -0.3000    5.0830 C   0  0  0  0  0  0  0  0  0  0  0  0
    5.5230    0.6670    4.7660 C   0  0  0  0  0  0  0  0  0  0  0  0
    4.3780    0.3490    4.0510 C   0  0  0  0  0  0  0  0  0  0  0  0
    2.7700   -0.3120    1.7390 C   0  0  2  0  0  0  0  0  0  0  0  0
    1.7750   -0.4120    0.6750 C   0  0  0  0  0  0  0  0  0  0  0  0
    0.3290   -0.3340    1.0260 C   0  0  2  0  0  0  0  0  0  0  0  0
   -0.2000   -1.2690    1.8450 O   0  0  0  0  0  0  0  0  0  0  0  0
   -0.4510   -0.3590   -0.2780 C   0  0  0  0  0  0  0  0  0  0  0  0
   -1.8370   -0.0510   -0.1470 N   0  0  2  0  0  0  0  0  0  0  0  0
   -2.1470    0.8630    0.9400 C   0  0  0  0  0  0  0  0  0  0  0  0
   -3.5310    1.4020    0.6670 C   0  0  0  0  0  0  0  0  0  0  0  0
   -4.5050    0.3790    0.4420 N   0  0  1  0  0  0  0  0  0  0  0  0
   -5.2970    0.5800   -0.7710 C   0  0  0  0  0  0  0  0  0  0  0  0
   -5.8720    1.9540   -0.8470 C   0  0  0  0  0  0  0  0  0  0  0  0
   -5.3520    2.9330   -1.6620 C   0  0  0  0  0  0  0  0  0  0  0  0
   -5.8740    4.2190   -1.7360 C   0  0  0  0  0  0  0  0  0  0  0  0
   -6.9630    4.5360   -0.9610 C   0  0  0  0  0  0  0  0  0  0  0  0
   -7.4930    3.5610   -0.1400 C   0  0  0  0  0  0  0  0  0  0  0  0
   -6.9690    2.2900   -0.0730 C   0  0  0  0  0  0  0  0  0  0  0  0
   -8.5810    4.1400    0.5310 O   0  0  0  0  0  0  0  0  0  0  0  0
   -8.3950    5.5650    0.5030 C   0  0  0  0  0  0  0  0  0  0  0  0
   -7.7380    5.6890   -0.7740 O   0  0  0  0  0  0  0  0  0  0  0  0
   -4.0260   -0.9570    0.5360 C   0  0  0  0  0  0  0  0  0  0  0  0
   -2.6400   -1.2140    0.0290 C   0  0  1  0  0  0  0  0  0  0  0  0
   -2.6630   -2.0570   -1.2190 C   0  0  0  0  0  0  0  0  0  0  0  0
   -2.0440   -1.7810   -2.2630 O   0  0  0  0  0  0  0  0  0  0  0  0
   -3.4740   -3.2430   -1.1240 N   0  0  0  0  0  0  0  0  0  0  0  0
   -3.5650   -4.1180   -2.2560 C   0  0  2  0  0  0  0  0  0  0  0  0
   -4.1340   -3.2970   -3.4200 C   0  0  0  0  0  0  0  0  0  0  0  0
   -4.5170   -5.2500   -1.9300 C   0  0  0  0  0  0  0  0  0  0  0  0
   -2.1960   -4.6480   -2.6440 C   0  0  0  0  0  0  0  0  0  0  0  0
    4.1530   -0.1260    1.1380 C   0  0  0  0  0  0  0  0  0  0  0  0
    5.1300   -0.8320    1.4830 O   0  0  0  0  0  0  0  0  0  0  0  0
    4.4140    0.8630    0.1480 N   0  0  0  0  0  0  0  0  0  0  0  0
    5.7440    1.0230   -0.4080 C   0  0  1  0  0  0  0  0  0  0  0  0
    5.8450    0.7560   -1.8390 C   0  0  0  0  0  0  0  0  0  0  0  0
    5.2820   -0.1640   -2.7020 C   0  0  0  0  0  0  0  0  0  0  0  0
    5.5750   -0.1830   -4.0490 C   0  0  0  0  0  0  0  0  0  0  0  0
    6.4530    0.7270   -4.5890 C   0  0  0  0  0  0  0  0  0  0  0  0
    7.0300    1.6560   -3.7500 C   0  0  0  0  0  0  0  0  0  0  0  0
    6.7250    1.6660   -2.3840 C   0  0  0  0  0  0  0  0  0  0  0  0
    7.2460    2.5930   -1.3410 C   0  0  0  0  0  0  0  0  0  0  0  0
    6.3070    2.3890   -0.1730 C   0  0  1  0  0  0  0  0  0  0  0  0
    5.3510    3.3950   -0.1910 O   0  0  0  0  0  0  0  0  0  0  0  0
  2  1  1  1
  2  3  1  0
  2  9  1  0
  3  4  2  0
  3  8  1  0
  4  5  1  0
  5  6  2  0
  6  7  1  0
  7  8  2  0
  9 10  1  6
  9 37  1  0
 10 11  1  0
 11 12  1  1
 11 13  1  0
 14 13  1  1
 14 15  1  0
 14 29  1  0
 15 16  1  0
 16 17  1  0
 17 18  1  6
 17 28  1  0
 18 19  1  0
 19 20  2  0
 19 24  1  0
 20 21  1  0
 21 22  2  0
 22 23  1  0
 22 27  1  0
 23 24  2  0
 23 25  1  0
 25 26  1  0
 26 27  1  0
 28 29  1  0
 29 30  1  6
 30 31  2  0
 30 32  1  0
 32 33  1  0
 33 34  1  6
 33 35  1  0
 33 36  1  0
 37 38  2  0
 37 39  1  0
 40 39  1  6
 40 41  1  0
 40 48  1  0
 41 42  2  0
 41 46  1  0
 42 43  1  0
 43 44  2  0
 44 45  1  0
 45 46  2  0
 46 47  1  0
 47 48  1  0
 48 49  1  6
M  CHG  2  14   1  17   1
M  END
