
     RDKit          3D

 20 22  0  0  0  0  0  0  0  0999 V2000
    5.8430   -0.3400   -0.1830 C   0  0  0  0  0  0  0  0  0  0  0  0
    4.8770   -1.2830   -0.8120 C   0  0  0  0  0  0  0  0  0  0  0  0
    3.6370   -0.6750   -1.1560 O   0  0  0  0  0  0  0  0  0  0  0  0
    2.8130   -0.0810   -0.2230 C   0  0  0  0  0  0  0  0  0  0  0  0
    3.2120   -0.0990    0.9700 O   0  0  0  0  0  0  0  0  0  0  0  0
    1.5370    0.5450   -0.5760 C   0  0  0  0  0  0  0  0  0  0  0  0
    1.0150    0.6320   -1.7530 N   0  0  0  0  0  0  0  0  0  0  0  0
   -0.2110    1.2980   -1.6980 N   0  0  0  0  0  0  0  0  0  0  0  0
   -0.6120    1.2490   -0.3080 C   0  0  1  0  0  0  0  0  0  0  0  0
    0.6640    1.1670    0.3600 N   0  0  0  0  0  0  0  0  0  0  0  0
   -1.3840    2.3990    0.0880 N   0  0  0  0  0  0  0  0  0  0  0  0
   -2.6790    1.9430    0.2110 O   0  0  0  0  0  0  0  0  0  0  0  0
   -2.7200    0.5810    0.2980 C   0  0  0  0  0  0  0  0  0  0  0  0
   -1.4790    0.0970   -0.0090 C   0  0  0  0  0  0  0  0  0  0  0  0
   -1.1980   -1.2460   -0.0090 C   0  0  0  0  0  0  0  0  0  0  0  0
   -2.1600   -2.1570    0.3010 N   0  0  0  0  0  0  0  0  0  0  0  0
   -3.3730   -1.7110    0.6040 C   0  0  0  0  0  0  0  0  0  0  0  0
   -4.3830   -2.6130    0.9270 O   0  0  0  0  0  0  0  0  0  0  0  0
   -3.6950   -0.3700    0.6150 C   0  0  0  0  0  0  0  0  0  0  0  0
   -5.0560    0.1060    0.9550 C   0  0  0  0  0  0  0  0  0  0  0  0
  1  2  1  0
  2  3  1  0
  3  4  1  0
  4  5  2  0
  4  6  1  0
  6  7  2  0
  6 10  1  0
  7  8  1  0
  9  8  1  6
  9 10  1  0
  9 11  1  0
  9 14  1  0
 11 12  1  0
 12 13  1  0
 13 14  2  0
 13 19  1  0
 14 15  1  0
 15 16  2  0
 16 17  1  0
 17 18  1  0
 17 19  2  0
 19 20  1  0
M  CHG  1  11   1
M  END
