
     RDKit          3D

 14 14  0  0  0  0  0  0  0  0999 V2000
   -2.4770    1.9530   -0.0220 N   0  0  0  0  0  0  0  0  0  0  0  0
   -2.3170    0.6750    0.6490 C   0  0  2  0  0  0  0  0  0  0  0  0
   -1.5260    0.8830    1.7830 O   0  0  0  0  0  0  0  0  0  0  0  0
   -1.5500   -0.2260   -0.3070 C   0  0  2  0  0  0  0  0  0  0  0  0
   -2.3180   -0.3380   -1.4680 O   0  0  0  0  0  0  0  0  0  0  0  0
   -1.4840   -1.5870    0.3230 C   0  0  0  0  0  0  0  0  0  0  0  0
   -0.7110   -2.4860   -0.3810 O   0  0  0  0  0  0  0  0  0  0  0  0
    0.1760   -1.8830   -1.2590 C   0  0  0  0  0  0  0  0  0  0  0  0
    0.8230   -0.7230   -0.5260 C   0  0  1  0  0  0  0  0  0  0  0  0
    1.9850   -0.3020   -1.1060 O   0  0  0  0  0  0  0  0  0  0  0  0
    3.0520   -0.2920   -0.2440 C   0  0  0  0  0  0  0  0  0  0  0  0
    2.9370    0.6040    0.9380 C   0  0  0  0  0  0  0  0  0  0  0  0
    2.7760    1.9440    0.6050 O   0  0  0  0  0  0  0  0  0  0  0  0
   -0.2160    0.4010   -0.5410 C   0  0  0  0  0  0  0  0  0  0  0  0
  2  1  1  6
  2  3  1  0
  2  4  1  0
  4  5  1  6
  4  6  1  0
  4 14  1  0
  6  7  1  0
  7  8  1  0
  8  9  1  0
  9 10  1  6
  9 14  1  0
 10 11  1  0
 11 12  1  0
 12 13  1  0
M  END
