
     RDKit          3D

 20 22  0  0  0  0  0  0  0  0999 V2000
    4.7860    0.2940    1.7180 C   0  0  0  0  0  0  0  0  0  0  0  0
    3.4910    0.3610    1.0790 N   0  0  0  0  0  0  0  0  0  0  0  0
    2.3450    0.6200    1.7730 C   0  0  0  0  0  0  0  0  0  0  0  0
    1.1370    0.5810    1.1870 N   0  0  0  0  0  0  0  0  0  0  0  0
    1.0770    0.2710   -0.1380 C   0  0  0  0  0  0  0  0  0  0  0  0
    0.0150    0.0330   -0.9610 C   0  0  0  0  0  0  0  0  0  0  0  0
   -1.4120    0.2850   -0.7200 C   0  0  2  0  0  0  0  0  0  0  0  0
   -1.8110    0.9800    0.3280 O   0  0  0  0  0  0  0  0  0  0  0  0
   -3.1650    0.7010    0.5520 C   0  0  2  0  0  0  0  0  0  0  0  0
   -3.4360    0.6970    2.0280 C   0  0  0  0  0  0  0  0  0  0  0  0
   -4.7400    0.2740    2.3640 O   0  0  0  0  0  0  0  0  0  0  0  0
   -3.4910   -0.6210   -0.0980 C   0  0  1  0  0  0  0  0  0  0  0  0
   -4.3580   -0.4520   -1.1940 O   0  0  0  0  0  0  0  0  0  0  0  0
   -2.1580   -1.0600   -0.6560 C   0  0  1  0  0  0  0  0  0  0  0  0
   -2.1690   -1.7690   -1.7990 O   0  0  0  0  0  0  0  0  0  0  0  0
    0.4830   -0.3670   -2.1520 N   0  0  0  0  0  0  0  0  0  0  0  0
    1.7880   -0.3880   -2.1160 N   0  0  0  0  0  0  0  0  0  0  0  0
    2.2010    0.0050   -0.8770 C   0  0  0  0  0  0  0  0  0  0  0  0
    3.4230    0.0600   -0.2310 C   0  0  0  0  0  0  0  0  0  0  0  0
    4.5760   -0.1670   -1.0200 N   0  0  0  0  0  0  0  0  0  0  0  0
  1  2  1  0
  2  3  2  0
  2 19  1  0
  3  4  1  0
  4  5  2  0
  5  6  1  0
  5 18  1  0
  7  6  1  1
  6 16  2  0
  7  8  1  0
  7 14  1  0
  8  9  1  0
  9 10  1  1
  9 12  1  0
 10 11  1  0
 12 13  1  6
 12 14  1  0
 14 15  1  6
 16 17  1  0
 17 18  1  0
 18 19  2  0
 19 20  1  0
M  CHG  1   2   1
M  END
