
     RDKit          3D

 20 22  0  0  0  0  0  0  0  0999 V2000
   -4.5280    1.0600    0.7550 N   0  0  0  0  0  0  0  0  0  0  0  0
   -3.6710    0.0600    0.1760 C   0  0  2  0  0  0  0  0  0  0  0  0
   -2.2800    0.0820    0.8270 C   0  0  0  0  0  0  0  0  0  0  0  0
   -1.4720   -0.6190   -0.2340 C   0  0  2  0  0  0  0  0  0  0  0  0
   -0.0680   -0.5010   -0.0800 N   0  0  0  0  0  0  0  0  0  0  0  0
    0.7580   -1.6580    0.0550 C   0  0  0  0  0  0  0  0  0  0  0  0
    0.1840   -2.7670    0.0300 O   0  0  0  0  0  0  0  0  0  0  0  0
    2.2190   -1.6050    0.2180 C   0  0  0  0  0  0  0  0  0  0  0  0
    2.6810   -0.2620    0.2220 O   0  0  0  0  0  0  0  0  0  0  0  0
    4.0480   -0.0370    0.3690 C   0  0  0  0  0  0  0  0  0  0  0  0
    5.0270   -0.9390    0.5120 N   0  0  0  0  0  0  0  0  0  0  0  0
    6.1940   -0.3160    0.6210 N   0  0  0  0  0  0  0  0  0  0  0  0
    5.9630    1.0030    0.5470 C   0  0  0  0  0  0  0  0  0  0  0  0
    6.8810    1.8700    0.6200 O   0  0  0  0  0  0  0  0  0  0  0  0
    4.6460    1.1630    0.3930 N   0  0  0  0  0  0  0  0  0  0  0  0
   -2.0040   -0.0150   -1.4780 C   0  0  0  0  0  0  0  0  0  0  0  0
   -1.7300    0.3080   -2.7710 C   0  0  0  0  0  0  0  0  0  0  0  0
   -2.7610    0.8700   -3.3240 O   0  0  0  0  0  0  0  0  0  0  0  0
   -3.7270    0.9380   -2.4400 C   0  0  0  0  0  0  0  0  0  0  0  0
   -3.3060    0.3910   -1.2470 C   0  0  0  0  0  0  0  0  0  0  0  0
  2  1  1  1
  2  3  1  0
  2 20  1  0
  3  4  1  0
  4  5  1  1
  4 16  1  0
  5  6  1  0
  6  7  2  0
  6  8  1  0
  8  9  1  0
  9 10  1  0
 10 11  2  0
 10 15  1  0
 11 12  1  0
 12 13  1  0
 13 14  2  0
 13 15  1  0
 16 17  2  0
 16 20  1  0
 17 18  1  0
 18 19  1  0
 19 20  2  0
M  CHG  1   1   1
M  END
