
     RDKit          3D

 19 21  0  0  0  0  0  0  0  0999 V2000
    4.4060    1.2410    0.8100 N   0  0  0  0  0  0  0  0  0  0  0  0
    4.4460   -0.1120    0.2750 C   0  0  2  0  0  0  0  0  0  0  0  0
    5.4480   -0.1790   -0.8440 C   0  0  0  0  0  0  0  0  0  0  0  0
    6.7240    0.1490   -0.4550 O   0  0  0  0  0  0  0  0  0  0  0  0
    3.0960   -0.4100   -0.2460 C   0  0  0  0  0  0  0  0  0  0  0  0
    1.9100   -0.1680    0.3310 N   0  0  0  0  0  0  0  0  0  0  0  0
    0.9140   -0.6010   -0.4930 C   0  0  0  0  0  0  0  0  0  0  0  0
   -0.5040   -0.5320   -0.2550 C   0  0  0  0  0  0  0  0  0  0  0  0
   -1.4760   -0.9810   -1.1140 C   0  0  0  0  0  0  0  0  0  0  0  0
   -2.7130   -0.7320   -0.5180 C   0  0  0  0  0  0  0  0  0  0  0  0
   -2.4490   -0.1330    0.6930 C   0  0  0  0  0  0  0  0  0  0  0  0
   -1.1080   -0.0260    0.8240 N   0  0  0  0  0  0  0  0  0  0  0  0
   -3.7480    0.1480    1.3580 C   0  0  0  0  0  0  0  0  0  0  0  0
   -4.7760   -0.3280    0.3660 C   0  0  1  0  0  0  0  0  0  0  0  0
   -5.6590    0.8020   -0.0990 C   0  0  0  0  0  0  0  0  0  0  0  0
   -6.5570    0.2880   -1.0310 O   0  0  0  0  0  0  0  0  0  0  0  0
   -4.0770   -0.8750   -0.7210 O   0  0  0  0  0  0  0  0  0  0  0  0
    1.5540   -1.1020   -1.5640 N   0  0  0  0  0  0  0  0  0  0  0  0
    2.8440   -0.9780   -1.3950 O   0  0  0  0  0  0  0  0  0  0  0  0
  2  1  1  6
  2  3  1  0
  2  5  1  0
  3  4  1  0
  5  6  2  0
  5 19  1  0
  6  7  1  0
  7  8  1  0
  7 18  2  0
  8  9  2  0
  8 12  1  0
  9 10  1  0
 10 11  2  0
 10 17  1  0
 11 12  1  0
 11 13  1  0
 13 14  1  0
 14 15  1  6
 14 17  1  0
 15 16  1  0
 18 19  1  0
M  CHG  1   1   1
M  END
