
     RDKit          3D

 19 21  0  0  0  0  0  0  0  0999 V2000
    5.9940    0.5910    0.5340 N   0  0  0  0  0  0  0  0  0  0  0  0
    4.9350   -0.0370   -0.1640 C   0  0  0  0  0  0  0  0  0  0  0  0
    5.0890   -0.7660   -1.2710 O   0  0  0  0  0  0  0  0  0  0  0  0
    3.9150   -1.1980   -1.6570 C   0  0  0  0  0  0  0  0  0  0  0  0
    2.9440   -0.7470   -0.7820 C   0  0  0  0  0  0  0  0  0  0  0  0
    3.6030   -0.0020    0.1730 C   0  0  0  0  0  0  0  0  0  0  0  0
    3.0440    0.6770    1.2930 N   0  0  0  0  0  0  0  0  0  0  0  0
    1.6910    0.9580    1.6280 C   0  0  0  0  0  0  0  0  0  0  0  0
    0.5760    0.5090    1.0390 C   0  0  0  0  0  0  0  0  0  0  0  0
   -0.6490    1.0370    1.6900 C   0  0  0  0  0  0  0  0  0  0  0  0
   -1.8050    0.5450    1.0410 N   0  0  0  0  0  0  0  0  0  0  0  0
   -1.8310   -0.2400    0.0420 C   0  0  0  0  0  0  0  0  0  0  0  0
   -3.1510   -0.6520   -0.5100 C   0  0  2  0  0  0  0  0  0  0  0  0
   -3.2570   -0.2470   -1.8420 O   0  0  0  0  0  0  0  0  0  0  0  0
   -4.2530   -0.0870    0.3530 C   0  0  0  0  0  0  0  0  0  0  0  0
   -5.5460   -0.5200   -0.1300 N   0  0  0  0  0  0  0  0  0  0  0  0
   -0.6200   -0.7370   -0.5680 N   0  0  0  0  0  0  0  0  0  0  0  0
    0.5350   -0.3900   -0.1040 C   0  0  0  0  0  0  0  0  0  0  0  0
    1.5840   -0.9830   -0.8380 O   0  0  0  0  0  0  0  0  0  0  0  0
  1  2  1  0
  2  3  1  0
  2  6  2  0
  3  4  1  0
  4  5  2  0
  5  6  1  0
  5 19  1  0
  6  7  1  0
  7  8  1  0
  8  9  2  0
  9 10  1  0
  9 18  1  0
 10 11  1  0
 11 12  2  0
 12 13  1  0
 12 17  1  0
 13 14  1  6
 13 15  1  0
 15 16  1  0
 17 18  2  0
 18 19  1  0
M  CHG  1  16   1
M  END
