
     RDKit          3D

 20 21  0  0  0  0  0  0  0  0999 V2000
   -1.6980    3.8110    0.0270 N   0  0  0  0  0  0  0  0  0  0  0  0
   -1.2700    2.5590   -0.0400 C   0  0  0  0  0  0  0  0  0  0  0  0
   -2.0390    1.7650   -0.9360 N   0  0  0  0  0  0  0  0  0  0  0  0
   -2.6800    0.5430   -0.6740 C   0  0  0  0  0  0  0  0  0  0  0  0
   -2.9040   -0.2480   -1.6590 O   0  0  0  0  0  0  0  0  0  0  0  0
   -3.1450    0.0380    0.6330 C   0  0  0  0  0  0  0  0  0  0  0  0
   -3.4920   -1.2820    0.6320 O   0  0  0  0  0  0  0  0  0  0  0  0
   -3.1170   -2.4020   -0.0280 C   0  0  0  0  0  0  0  0  0  0  0  0
   -4.0580   -3.0150   -0.6600 O   0  0  0  0  0  0  0  0  0  0  0  0
   -1.8380   -2.9970   -0.1240 N   0  0  0  0  0  0  0  0  0  0  0  0
   -0.6010   -2.3520   -0.4620 C   0  0  0  0  0  0  0  0  0  0  0  0
   -0.0150   -1.5140    0.6260 C   0  0  0  0  0  0  0  0  0  0  0  0
    0.5440   -0.2400    0.0230 C   0  0  2  0  0  0  0  0  0  0  0  0
    1.9570   -0.4730   -0.2170 N   0  0  0  0  0  0  0  0  0  0  0  0
    2.7460    0.7320   -0.0820 C   0  0  2  0  0  0  0  0  0  0  0  0
    4.1910    0.5460   -0.5200 C   0  0  0  0  0  0  0  0  0  0  0  0
    3.9050    0.7300    0.9150 C   0  0  0  0  0  0  0  0  0  0  0  0
    0.3260    0.8590    0.9970 C   0  0  0  0  0  0  0  0  0  0  0  0
    0.6410    0.4910    2.1880 O   0  0  0  0  0  0  0  0  0  0  0  0
   -0.1570    2.1540    0.7260 N   0  0  0  0  0  0  0  0  0  0  0  0
  1  2  2  0
  2  3  1  0
  2 20  1  0
  3  4  1  0
  4  5  2  0
  4  6  1  0
  6  7  1  0
  7  8  1  0
  8  9  2  0
  8 10  1  0
 10 11  1  0
 11 12  1  0
 12 13  1  0
 13 14  1  1
 13 18  1  0
 15 14  1  1
 15 16  1  0
 15 17  1  0
 16 17  1  0
 18 19  2  0
 18 20  1  0
M  CHG  1  14   1
M  END
