
     RDKit          3D

 20 21  0  0  0  0  0  0  0  0999 V2000
    7.3660   -1.0380    0.5970 N   0  0  0  0  0  0  0  0  0  0  0  0
    6.1350   -0.3930    0.2300 C   0  0  0  0  0  0  0  0  0  0  0  0
    5.7780    0.5930    0.8890 O   0  0  0  0  0  0  0  0  0  0  0  0
    5.3630   -0.8790   -0.8550 N   0  0  0  0  0  0  0  0  0  0  0  0
    4.1310   -0.2790   -1.2650 C   0  0  0  0  0  0  0  0  0  0  0  0
    3.1330   -0.3080   -0.1590 C   0  0  0  0  0  0  0  0  0  0  0  0
    1.8670    0.3020   -0.5610 N   0  0  0  0  0  0  0  0  0  0  0  0
    0.7590    0.3990    0.3040 C   0  0  0  0  0  0  0  0  0  0  0  0
    0.8830   -0.0640    1.4680 O   0  0  0  0  0  0  0  0  0  0  0  0
   -0.4790    0.9780   -0.0400 N   0  0  0  0  0  0  0  0  0  0  0  0
   -1.6100    1.0620    0.8850 C   0  0  1  0  0  0  0  0  0  0  0  0
   -1.9740    2.4070    1.0680 O   0  0  0  0  0  0  0  0  0  0  0  0
   -3.2740    2.5790    0.6110 C   0  0  0  0  0  0  0  0  0  0  0  0
   -3.9190    3.6610    0.6240 O   0  0  0  0  0  0  0  0  0  0  0  0
   -3.7240    1.2800    0.1270 C   0  0  0  0  0  0  0  0  0  0  0  0
   -2.7800    0.3770    0.2720 C   0  0  0  0  0  0  0  0  0  0  0  0
   -2.9170   -0.9590   -0.1050 N   0  0  0  0  0  0  0  0  0  0  0  0
   -4.2300   -1.4470   -0.3400 C   0  0  0  0  0  0  0  0  0  0  0  0
   -5.2870   -0.5180    0.2050 C   0  0  0  0  0  0  0  0  0  0  0  0
   -5.0090    0.8370   -0.4670 C   0  0  0  0  0  0  0  0  0  0  0  0
  1  2  1  0
  2  3  2  0
  2  4  1  0
  4  5  1  0
  5  6  1  0
  6  7  1  0
  7  8  1  0
  8  9  2  0
  8 10  1  0
 11 10  1  6
 11 12  1  0
 11 16  1  0
 12 13  1  0
 13 14  2  0
 13 15  1  0
 15 16  2  0
 15 20  1  0
 16 17  1  0
 17 18  1  0
 18 19  1  0
 19 20  1  0
M  CHG  1  17   1
M  END
