
     RDKit          3D

 30 31  0  0  0  0  0  0  0  0999 V2000
    3.2390    1.0320   -3.2920 C   0  0  0  0  0  0  0  0  0  0  0  0
    2.7020    0.4170   -2.0410 C   0  0  0  0  0  0  0  0  0  0  0  0
    2.9530   -0.8480   -1.6810 C   0  0  0  0  0  0  0  0  0  0  0  0
    2.4510   -1.5060   -0.4530 C   0  0  0  0  0  0  0  0  0  0  0  0
    2.6750   -1.4330    0.8030 C   0  0  0  0  0  0  0  0  0  0  0  0
    2.1660   -2.0760    2.0320 C   0  0  0  0  0  0  0  0  0  0  0  0
    3.4370   -2.8340    3.1900 P   0  0  0  0  0  0  0  0  0  0  0  0
    0.9220   -2.1330    2.4980 C   0  0  0  0  0  0  0  0  0  0  0  0
    0.7100   -2.8250    3.7140 F   0  0  0  0  0  0  0  0  0  0  0  0
   -0.2790   -1.5550    1.9190 C   0  0  0  0  0  0  0  0  0  0  0  0
   -1.2820   -2.5190    1.6370 O   0  0  0  0  0  0  0  0  0  0  0  0
   -1.4630   -3.2290    0.5180 C   0  0  0  0  0  0  0  0  0  0  0  0
   -0.7130   -3.1020   -0.4630 O   0  0  0  0  0  0  0  0  0  0  0  0
   -0.6170   -0.3060    1.6160 C   0  0  0  0  0  0  0  0  0  0  0  0
   -2.0070   -0.0910    0.9990 C   0  0  2  0  0  0  0  0  0  0  0  0
   -2.5840    1.0050    1.5900 F   0  0  0  0  0  0  0  0  0  0  0  0
   -2.8300   -1.1600    1.4020 F   0  0  0  0  0  0  0  0  0  0  0  0
   -1.9840    0.1170   -0.8050 P   0  0  0  0  0  0  0  0  0  0  0  0
   -1.9140    1.7620   -1.3160 O   0  0  0  0  0  0  0  0  0  0  0  0
   -3.0730    2.4620   -1.0710 C   0  0  0  0  0  0  0  0  0  0  0  0
   -4.3200    1.6820   -1.3770 C   0  0  0  0  0  0  0  0  0  0  0  0
   -4.0630    0.4570   -2.1950 C   0  0  0  0  0  0  0  0  0  0  0  0
   -3.4530   -0.5680   -1.4790 O   0  0  0  0  0  0  0  0  0  0  0  0
    0.1110    0.9360    1.8160 C   0  0  0  0  0  0  0  0  0  0  0  0
   -0.3950    1.8960    2.6300 C   0  0  0  0  0  0  0  0  0  0  0  0
    0.1920    3.0750    2.8830 F   0  0  0  0  0  0  0  0  0  0  0  0
    1.4050    1.3310    1.2570 C   0  0  0  0  0  0  0  0  0  0  0  0
    2.1240    2.0460    2.0850 O   0  0  0  0  0  0  0  0  0  0  0  0
    1.9710    1.0910    0.0750 O   0  0  0  0  0  0  0  0  0  0  0  0
    1.8200    1.3520   -1.2380 C   0  0  0  0  0  0  0  0  0  0  0  0
  1  2  1  0
  2  3  2  0
  2 30  1  0
  3  4  1  0
  4  5  2  0
  5  6  1  0
  6  7  1  0
  6  8  2  0
  8  9  1  0
  8 10  1  0
 10 11  1  0
 10 14  2  0
 11 12  1  0
 12 13  2  0
 14 15  1  0
 14 24  1  0
 15 16  1  1
 15 17  1  0
 15 18  1  0
 18 19  1  0
 18 23  1  0
 19 20  1  0
 20 21  1  0
 21 22  1  0
 22 23  1  0
 24 25  2  3
 24 27  1  0
 25 26  1  0
 27 28  2  0
 27 29  1  0
 29 30  1  0
M  END
