
     RDKit          3D

 30 31  0  0  0  0  0  0  0  0999 V2000
    8.5280   -0.2580   -0.8730 O   0  0  0  0  0  0  0  0  0  0  0  0
    7.2750   -0.1290   -0.8160 C   0  0  0  0  0  0  0  0  0  0  0  0
    6.4820   -0.5090   -1.9970 C   0  0  0  0  0  0  0  0  0  0  0  0
    5.3730   -1.5140   -1.6670 C   0  0  0  0  0  0  0  0  0  0  0  0
    4.4030   -0.6200   -0.3680 P   0  0  0  0  0  0  0  0  0  0  0  0
    2.9400   -1.3100   -0.0340 O   0  0  0  0  0  0  0  0  0  0  0  0
    2.0620   -0.5950    0.6980 C   0  0  0  0  0  0  0  0  0  0  0  0
    1.5130    0.3620   -0.3900 C   0  0  0  0  0  0  0  0  0  0  0  0
    0.0490    0.5440   -0.1810 C   0  0  0  0  0  0  0  0  0  0  0  0
   -0.6000   -0.6900   -0.8260 C   0  0  1  0  0  0  0  0  0  0  0  0
    0.0660   -1.8030   -0.2200 F   0  0  0  0  0  0  0  0  0  0  0  0
   -2.0250   -0.8980   -0.3910 C   0  0  1  0  0  0  0  0  0  0  0  0
   -2.4590   -1.9920   -1.1150 O   0  0  0  0  0  0  0  0  0  0  0  0
   -1.8370   -1.3460    0.9700 F   0  0  0  0  0  0  0  0  0  0  0  0
   -2.8100    0.3250   -0.4220 C   0  0  0  0  0  0  0  0  0  0  0  0
   -4.2580    0.0590   -0.0020 C   0  0  1  0  0  0  0  0  0  0  0  0
   -4.4090   -0.5640    1.3200 C   0  0  0  0  0  0  0  0  0  0  0  0
   -5.8200   -0.9590    1.6910 C   0  0  1  0  0  0  0  0  0  0  0  0
   -5.7500   -1.5160    2.9820 F   0  0  0  0  0  0  0  0  0  0  0  0
   -6.7740   -0.0410    1.7010 F   0  0  0  0  0  0  0  0  0  0  0  0
   -4.7560    1.5530    0.2660 C   0  0  0  0  0  0  0  0  0  0  0  0
   -5.1950    2.0390   -1.0720 C   0  0  0  0  0  0  0  0  0  0  0  0
   -5.9010    0.8180   -1.6200 C   0  0  0  0  0  0  0  0  0  0  0  0
   -5.0920   -0.3630   -1.1210 C   0  0  0  0  0  0  0  0  0  0  0  0
    5.4180    0.2210    0.7660 C   0  0  0  0  0  0  0  0  0  0  0  0
    4.8040    0.9660    2.3120 P   0  0  0  0  0  0  0  0  0  0  0  0
    5.4300    2.5490    2.5100 O   0  0  0  0  0  0  0  0  0  0  0  0
    5.2080   -0.0260    3.6620 O   0  0  0  0  0  0  0  0  0  0  0  0
    6.7570    0.3870    0.4510 C   0  0  0  0  0  0  0  0  0  0  0  0
    7.6010    1.0200    1.3210 O   0  0  0  0  0  0  0  0  0  0  0  0
  1  2  2  0
  2  3  1  0
  2 29  1  0
  3  4  1  0
  4  5  1  0
  5  6  1  0
  5 25  1  0
  6  7  1  0
  7  8  1  0
  8  9  1  0
  9 10  1  0
 10 11  1  1
 10 12  1  0
 12 13  1  6
 12 14  1  0
 12 15  1  0
 16 15  1  6
 16 17  1  0
 16 21  1  0
 16 24  1  0
 17 18  1  0
 18 19  1  1
 18 20  1  0
 21 22  1  0
 22 23  1  0
 23 24  1  0
 25 26  1  0
 25 29  2  0
 26 27  1  0
 26 28  1  0
 29 30  1  0
M  END
