
     RDKit          3D

 30 31  0  0  0  0  0  0  0  0999 V2000
   -4.3940    1.7580   -1.9080 C   0  0  0  0  0  0  0  0  0  0  0  0
   -3.8120    2.0610   -0.5490 C   0  0  1  0  0  0  0  0  0  0  0  0
   -2.9090    3.2900   -0.6790 C   0  0  0  0  0  0  0  0  0  0  0  0
   -4.9170    2.3680    0.4160 C   0  0  0  0  0  0  0  0  0  0  0  0
   -3.0410    0.9740   -0.0650 O   0  0  0  0  0  0  0  0  0  0  0  0
   -1.9320    0.4980   -0.7440 C   0  0  0  0  0  0  0  0  0  0  0  0
   -1.6450    1.0860   -1.8160 O   0  0  0  0  0  0  0  0  0  0  0  0
   -1.1200   -0.6200   -0.2680 C   0  0  2  0  0  0  0  0  0  0  0  0
   -1.7420   -1.9630   -0.2050 C   0  0  0  0  0  0  0  0  0  0  0  0
   -2.9340   -2.1550    0.6490 C   0  0  2  0  0  0  0  0  0  0  0  0
   -4.0440   -1.3700    0.3360 O   0  0  0  0  0  0  0  0  0  0  0  0
   -2.7600   -2.4880    2.0890 C   0  0  0  0  0  0  0  0  0  0  0  0
   -2.5160   -3.9450    1.6670 C   0  0  0  0  0  0  0  0  0  0  0  0
   -3.4020   -3.6260    0.4810 C   0  0  0  0  0  0  0  0  0  0  0  0
   -0.1850   -0.2070    0.8420 C   0  0  0  0  0  0  0  0  0  0  0  0
    0.9740   -0.8540    0.1500 C   0  0  2  0  0  0  0  0  0  0  0  0
    1.1680   -2.1690    0.5570 F   0  0  0  0  0  0  0  0  0  0  0  0
    2.2340   -0.0650    0.0190 C   0  0  0  0  0  0  0  0  0  0  0  0
    2.8380    0.3520    1.3300 C   0  0  2  0  0  0  0  0  0  0  0  0
    3.1720   -0.7050    2.1390 O   0  0  0  0  0  0  0  0  0  0  0  0
    1.9010    1.1180    2.0160 F   0  0  0  0  0  0  0  0  0  0  0  0
    4.0210    1.2550    1.0820 C   0  0  2  0  0  0  0  0  0  0  0  0
    4.6140    1.6670    2.2590 F   0  0  0  0  0  0  0  0  0  0  0  0
    3.6140    2.4180    0.4280 F   0  0  0  0  0  0  0  0  0  0  0  0
    5.0340    0.5940    0.1840 C   0  0  0  0  0  0  0  0  0  0  0  0
    6.2210    1.5050   -0.0610 C   0  0  0  0  0  0  0  0  0  0  0  0
    7.4040    0.5990   -1.1740 P   0  0  0  0  0  0  0  0  0  0  0  0
    6.5110   -0.3660   -2.2880 O   0  0  0  0  0  0  0  0  0  0  0  0
    8.4310    1.7230   -2.0100 O   0  0  0  0  0  0  0  0  0  0  0  0
    0.1540   -0.7310   -1.1420 C   0  0  0  0  0  0  0  0  0  0  0  0
  2  1  1  6
  2  3  1  0
  2  4  1  0
  2  5  1  0
  5  6  1  0
  6  7  2  0
  6  8  1  0
  8  9  1  1
  8 15  1  0
  8 30  1  0
  9 10  1  0
 10 11  1  1
 10 12  1  0
 10 14  1  0
 12 13  1  0
 13 14  1  0
 15 16  1  0
 16 17  1  1
 16 18  1  0
 16 30  1  0
 18 19  1  0
 19 20  1  1
 19 21  1  0
 19 22  1  0
 22 23  1  1
 22 24  1  0
 22 25  1  0
 25 26  1  0
 26 27  1  0
 27 28  1  0
 27 29  1  0
M  END
