
     RDKit          3D

 30 30  0  0  0  0  0  0  0  0999 V2000
   -4.2540   -4.8770    0.9800 C   0  0  0  0  0  0  0  0  0  0  0  0
   -4.6730   -4.0080   -0.1680 C   0  0  0  0  0  0  0  0  0  0  0  0
   -3.9510   -2.7780   -0.1440 O   0  0  0  0  0  0  0  0  0  0  0  0
   -2.5720   -2.7140   -0.2270 C   0  0  0  0  0  0  0  0  0  0  0  0
   -1.9460   -3.7940   -0.3260 O   0  0  0  0  0  0  0  0  0  0  0  0
   -1.8690   -1.4210   -0.1980 C   0  0  0  0  0  0  0  0  0  0  0  0
   -0.5410   -1.3970   -0.2800 C   0  0  0  0  0  0  0  0  0  0  0  0
    0.2470   -0.1510   -0.2620 C   0  0  0  0  0  0  0  0  0  0  0  0
    1.6840   -0.1430   -0.2170 C   0  0  0  0  0  0  0  0  0  0  0  0
    2.6320   -1.0070   -0.3300 C   0  0  0  0  0  0  0  0  0  0  0  0
    4.0920   -0.5560   -0.2010 C   0  0  0  0  0  0  0  0  0  0  0  0
    4.2370    0.8940    0.0660 C   0  0  0  0  0  0  0  0  0  0  0  0
    6.0820    1.2830    0.1660 P   0  0  0  0  0  0  0  0  0  0  0  0
    6.6320    1.4620   -1.4720 O   0  0  0  0  0  0  0  0  0  0  0  0
    7.1240   -0.4690    1.0150 P   0  0  0  0  0  0  0  0  0  0  0  0
    8.7930   -0.4660    0.6040 O   0  0  0  0  0  0  0  0  0  0  0  0
    2.4890   -2.4400   -0.6160 C   0  0  2  0  0  0  0  0  0  0  0  0
    2.1380   -3.2200    0.4570 F   0  0  0  0  0  0  0  0  0  0  0  0
    3.8340   -2.9480   -0.8760 F   0  0  0  0  0  0  0  0  0  0  0  0
    1.8030   -2.6260   -1.7760 F   0  0  0  0  0  0  0  0  0  0  0  0
   -0.4100    1.0360   -0.1540 C   0  0  0  0  0  0  0  0  0  0  0  0
    0.3440    2.3160   -0.1470 C   0  0  0  0  0  0  0  0  0  0  0  0
   -1.8500    1.0440   -0.0580 C   0  0  0  0  0  0  0  0  0  0  0  0
   -2.6040    2.0860    0.0660 C   0  0  0  0  0  0  0  0  0  0  0  0
   -2.5300    3.4910    0.1680 C   0  0  0  0  0  0  0  0  0  0  0  0
   -1.5010    4.3480    0.2240 F   0  0  0  0  0  0  0  0  0  0  0  0
   -3.7310    4.1750    0.2730 C   0  0  0  0  0  0  0  0  0  0  0  0
   -4.9110    3.4890    0.2750 O   0  0  0  0  0  0  0  0  0  0  0  0
   -6.0780    4.0940   -0.2460 C   0  0  0  0  0  0  0  0  0  0  0  0
   -2.5060   -0.2350   -0.0900 O   0  0  0  0  0  0  0  0  0  0  0  0
  1  2  1  0
  2  3  1  0
  3  4  1  0
  4  5  2  0
  4  6  1  0
  6  7  2  0
  6 30  1  0
  7  8  1  0
  8  9  1  0
  8 21  2  0
  9 10  2  3
 10 11  1  0
 10 17  1  0
 11 12  1  0
 12 13  1  0
 13 14  1  0
 13 15  1  0
 15 16  1  0
 17 18  1  1
 17 19  1  0
 17 20  1  0
 21 22  1  0
 21 23  1  0
 23 24  2  3
 23 30  1  0
 24 25  1  0
 25 26  1  0
 25 27  2  3
 27 28  1  0
 28 29  1  0
M  END
