
     RDKit          3D

 30 32  0  0  0  0  0  0  0  0999 V2000
   -4.6410   -0.7030   -2.3420 C   0  0  0  0  0  0  0  0  0  0  0  0
   -5.0060    0.4160   -0.9120 P   0  0  0  0  0  0  0  0  0  0  0  0
   -6.7700    0.2600   -0.3450 C   0  0  0  0  0  0  0  0  0  0  0  0
   -6.7990   -0.0540    1.0130 O   0  0  0  0  0  0  0  0  0  0  0  0
   -5.9700   -1.1120    1.3310 C   0  0  2  0  0  0  0  0  0  0  0  0
   -6.4260   -1.6450    2.5510 O   0  0  0  0  0  0  0  0  0  0  0  0
   -4.5440   -0.7230    1.4800 C   0  0  0  0  0  0  0  0  0  0  0  0
   -3.9740   -0.0210    0.5270 C   0  0  0  0  0  0  0  0  0  0  0  0
   -2.5840    0.4300    0.5360 C   0  0  0  0  0  0  0  0  0  0  0  0
   -2.0570    1.1290   -0.4360 C   0  0  0  0  0  0  0  0  0  0  0  0
   -0.6620    1.5390   -0.3500 C   0  0  0  0  0  0  0  0  0  0  0  0
   -0.0900    2.2550   -1.3230 C   0  0  0  0  0  0  0  0  0  0  0  0
    1.3010    2.7130   -1.3260 C   0  0  0  0  0  0  0  0  0  0  0  0
    2.2150    1.6950   -1.0740 O   0  0  0  0  0  0  0  0  0  0  0  0
    1.8280    0.8920    0.4380 P   0  0  0  0  0  0  0  0  0  0  0  0
    2.0150   -0.8220    0.1610 O   0  0  0  0  0  0  0  0  0  0  0  0
    3.1720   -1.5390    0.2590 C   0  0  0  0  0  0  0  0  0  0  0  0
    3.2590   -2.8900    0.0260 C   0  0  0  0  0  0  0  0  0  0  0  0
    4.4320   -3.5950    0.1290 C   0  0  0  0  0  0  0  0  0  0  0  0
    4.5300   -4.9160   -0.0960 F   0  0  0  0  0  0  0  0  0  0  0  0
    5.5560   -2.9140    0.4790 C   0  0  0  0  0  0  0  0  0  0  0  0
    5.5070   -1.5520    0.7220 C   0  0  0  0  0  0  0  0  0  0  0  0
    4.3420   -0.8330    0.6220 C   0  0  0  0  0  0  0  0  0  0  0  0
    4.2720    0.4760    0.8460 O   0  0  0  0  0  0  0  0  0  0  0  0
    4.9860    1.5670    1.1500 C   0  0  0  0  0  0  0  0  0  0  0  0
    5.9790    1.9800    0.0960 C   0  0  1  0  0  0  0  0  0  0  0  0
    6.9200    1.0520   -0.1830 F   0  0  0  0  0  0  0  0  0  0  0  0
    5.2290    2.1840   -1.0770 F   0  0  0  0  0  0  0  0  0  0  0  0
    6.5590    3.2180    0.4380 F   0  0  0  0  0  0  0  0  0  0  0  0
    0.1250    1.2070    0.7370 O   0  0  0  0  0  0  0  0  0  0  0  0
  1  2  1  0
  2  3  1  0
  2  8  1  0
  3  4  1  0
  4  5  1  0
  5  6  1  1
  5  7  1  0
  7  8  2  0
  8  9  1  0
  9 10  2  3
 10 11  1  0
 11 12  2  0
 11 30  1  0
 12 13  1  0
 13 14  1  0
 14 15  1  0
 15 16  1  0
 15 30  1  0
 16 17  1  0
 17 18  2  0
 17 23  1  0
 18 19  1  0
 19 20  1  0
 19 21  2  0
 21 22  1  0
 22 23  2  0
 23 24  1  0
 24 25  1  0
 25 26  1  0
 26 27  1  6
 26 28  1  0
 26 29  1  0
M  END
