
     RDKit          3D

 30 31  0  0  0  0  0  0  0  0999 V2000
   -7.7670    2.1900    0.9890 O   0  0  0  0  0  0  0  0  0  0  0  0
   -8.1340    0.7210    0.3380 P   0  0  0  0  0  0  0  0  0  0  0  0
   -8.9370    1.3430   -0.8010 O   0  0  0  0  0  0  0  0  0  0  0  0
   -9.6280   -0.0070    0.8370 O   0  0  0  0  0  0  0  0  0  0  0  0
   -7.0230   -0.2080   -0.5410 C   0  0  2  0  0  0  0  0  0  0  0  0
   -6.8210    0.0950   -1.9070 F   0  0  0  0  0  0  0  0  0  0  0  0
   -7.4370   -1.5260   -0.5680 F   0  0  0  0  0  0  0  0  0  0  0  0
   -5.6140   -0.2550   -0.0380 C   0  0  0  0  0  0  0  0  0  0  0  0
   -4.7210   -1.0630   -0.7730 C   0  0  0  0  0  0  0  0  0  0  0  0
   -3.3820   -1.1590   -0.4620 C   0  0  0  0  0  0  0  0  0  0  0  0
   -2.9260   -0.4400    0.6010 C   0  0  0  0  0  0  0  0  0  0  0  0
   -1.5190   -0.3210    0.8980 C   0  0  0  0  0  0  0  0  0  0  0  0
   -0.6490   -0.7390    0.0030 C   0  0  0  0  0  0  0  0  0  0  0  0
    0.8000   -0.6370    0.2550 C   0  0  0  0  0  0  0  0  0  0  0  0
    1.6970   -1.0300   -0.6330 C   0  0  0  0  0  0  0  0  0  0  0  0
    3.1150   -0.8960   -0.3500 C   0  0  0  0  0  0  0  0  0  0  0  0
    3.9870   -1.0530   -1.4380 C   0  0  0  0  0  0  0  0  0  0  0  0
    5.3420   -0.8720   -1.2530 C   0  0  0  0  0  0  0  0  0  0  0  0
    5.8820   -0.5400   -0.0150 C   0  0  0  0  0  0  0  0  0  0  0  0
    7.3440   -0.2770    0.0660 C   0  0  2  0  0  0  0  0  0  0  0  0
    8.0130   -1.3370   -0.4880 F   0  0  0  0  0  0  0  0  0  0  0  0
    7.6250   -0.3470    1.4350 F   0  0  0  0  0  0  0  0  0  0  0  0
    7.9480    1.1770   -0.6160 P   0  0  0  0  0  0  0  0  0  0  0  0
    9.2600    1.2710    0.1850 O   0  0  0  0  0  0  0  0  0  0  0  0
    7.4910    2.6870   -0.0660 O   0  0  0  0  0  0  0  0  0  0  0  0
    8.9240    1.1420   -2.0040 O   0  0  0  0  0  0  0  0  0  0  0  0
    5.0180   -0.3920    1.0390 C   0  0  0  0  0  0  0  0  0  0  0  0
    3.6430   -0.5710    0.8840 C   0  0  0  0  0  0  0  0  0  0  0  0
   -3.8170    0.3720    1.3510 C   0  0  0  0  0  0  0  0  0  0  0  0
   -5.1550    0.4630    1.0360 C   0  0  0  0  0  0  0  0  0  0  0  0
  1  2  1  0
  2  3  1  0
  2  4  1  0
  2  5  1  0
  5  6  1  6
  5  7  1  0
  5  8  1  0
  8  9  2  0
  8 30  1  0
  9 10  1  0
 10 11  2  0
 11 12  1  0
 11 29  1  0
 12 13  2  3
 13 14  1  0
 14 15  2  3
 15 16  1  0
 16 17  2  0
 16 28  1  0
 17 18  1  0
 18 19  2  0
 19 20  1  0
 19 27  1  0
 20 21  1  6
 20 22  1  0
 20 23  1  0
 23 24  1  0
 23 25  1  0
 23 26  1  0
 27 28  2  0
 29 30  2  0
M  END
