
     RDKit          3D

 12 12  0  0  0  0  0  0  0  0999 V2000
    4.0210   -1.4680    0.0440 C   0  0  0  0  0  0  0  0  0  0  0  0
    2.9480   -1.5350   -0.8870 O   0  0  0  0  0  0  0  0  0  0  0  0
    1.7700   -0.8140   -0.5730 C   0  0  0  0  0  0  0  0  0  0  0  0
    0.7420   -0.9010   -0.1020 O   0  0  0  0  0  0  0  0  0  0  0  0
   -0.2030   -0.1040    0.0890 C   0  0  0  0  0  0  0  0  0  0  0  0
   -1.4090   -0.4340    0.7020 O   0  0  0  0  0  0  0  0  0  0  0  0
   -2.5080   -0.7860   -0.1190 C   0  0  0  0  0  0  0  0  0  0  0  0
   -3.9860   -1.1820    0.9500 P   0  0  0  0  0  0  0  0  0  0  0  0
    0.0080    1.2170   -0.3650 C   0  0  0  0  0  0  0  0  0  0  0  0
   -0.7750    2.3230   -0.3290 O   0  0  0  0  0  0  0  0  0  0  0  0
   -0.6780    3.5570    0.9440 P   0  0  0  0  0  0  0  0  0  0  0  0
    1.7160    1.0530   -1.0600 P   0  0  0  0  0  0  0  0  0  0  0  0
  1  2  1  0
  2  3  1  0
  3  4  1  0
  3 12  2  0
  4  5  1  0
  5  6  1  0
  5  9  2  0
  6  7  1  0
  7  8  1  0
  9 10  1  0
  9 12  1  0
 10 11  1  0
M  END
