
     RDKit          3D

 11 10  0  0  0  0  0  0  0  0999 V2000
    3.0440   -0.1620   -0.1500 C   0  0  0  0  0  0  0  0  0  0  0  0
    1.7230   -0.1640    0.5000 C   0  0  0  0  0  0  0  0  0  0  0  0
    1.5890    0.1520    1.7470 C   0  0  0  0  0  0  0  0  0  0  0  0
    1.5810    0.6260    2.9090 O   0  0  0  0  0  0  0  0  0  0  0  0
    0.5440   -0.5390   -0.3160 C   0  0  2  0  0  0  0  0  0  0  0  0
    0.3920    0.3410   -1.4050 O   0  0  0  0  0  0  0  0  0  0  0  0
   -0.9520   -0.5050    0.7550 P   0  0  0  0  0  0  0  0  0  0  0  0
   -2.4630   -0.1830    0.1610 C   0  0  0  0  0  0  0  0  0  0  0  0
   -2.7780    0.1660   -1.6070 P   0  0  0  0  0  0  0  0  0  0  0  0
   -3.8680   -0.1790    1.3300 P   0  0  0  0  0  0  0  0  0  0  0  0
   -3.6090    0.3500    2.7710 O   0  0  0  0  0  0  0  0  0  0  0  0
  1  2  1  0
  2  3  2  0
  2  5  1  0
  3  4  2  0
  5  6  1  6
  5  7  1  0
  7  8  2  3
  8  9  1  0
  8 10  1  0
 10 11  2  0
M  END
