
     RDKit          3D

 12 11  0  0  0  0  0  0  0  0999 V2000
    4.0540    1.4140    0.4040 C   0  0  0  0  0  0  0  0  0  0  0  0
    3.6460    0.1270    0.0850 O   0  0  0  0  0  0  0  0  0  0  0  0
    3.1180   -0.5140    1.0820 O   0  0  0  0  0  0  0  0  0  0  0  0
    1.4950   -0.1250    1.4100 P   0  0  0  0  0  0  0  0  0  0  0  0
    0.3880   -0.1640   -0.0480 C   0  0  1  0  0  0  0  0  0  0  0  0
    1.0380   -0.7470   -1.2820 C   0  0  0  0  0  0  0  0  0  0  0  0
   -0.7940   -0.8590    0.2430 O   0  0  0  0  0  0  0  0  0  0  0  0
   -2.0390   -0.2800    0.2230 N   0  0  0  0  0  0  0  0  0  0  0  0
   -3.1220   -0.9390    0.0820 C   0  0  0  0  0  0  0  0  0  0  0  0
   -3.0570   -2.3120   -0.0590 O   0  0  0  0  0  0  0  0  0  0  0  0
   -4.3890   -0.2380    0.0730 C   0  0  0  0  0  0  0  0  0  0  0  0
   -4.4570    1.4080    0.2420 P   0  0  0  0  0  0  0  0  0  0  0  0
  1  2  1  0
  2  3  1  0
  3  4  1  0
  4  5  1  0
  5  6  1  6
  5  7  1  0
  7  8  1  0
  8  9  2  3
  9 10  1  0
  9 11  1  0
 11 12  2  0
M  END
