
     RDKit          3D

 10  9  0  0  0  0  0  0  0  0999 V2000
    1.2770    1.5350   -0.0060 O   0  0  0  0  0  0  0  0  0  0  0  0
    1.8770    0.5890    0.5560 C   0  0  0  0  0  0  0  0  0  0  0  0
    3.2530    0.8730    0.7530 O   0  0  0  0  0  0  0  0  0  0  0  0
    1.2940   -0.6540    0.9740 C   0  0  0  0  0  0  0  0  0  0  0  0
    2.0940   -1.4860    1.5390 O   0  0  0  0  0  0  0  0  0  0  0  0
   -0.0900   -1.1130    0.8460 C   0  0  0  0  0  0  0  0  0  0  0  0
   -1.2670   -0.1370    0.0620 P   0  0  0  0  0  0  0  0  0  0  0  0
   -1.2740    1.4870    0.3400 O   0  0  0  0  0  0  0  0  0  0  0  0
   -2.4220   -0.2780    1.0770 O   0  0  0  0  0  0  0  0  0  0  0  0
   -0.5130    0.1790   -1.2650 O   0  0  0  0  0  0  0  0  0  0  0  0
  1  2  2  0
  2  3  1  0
  2  4  1  0
  4  5  2  0
  4  6  1  0
  6  7  1  0
  7  8  1  0
  7  9  1  0
  7 10  1  0
M  END
