
     RDKit          3D

 12 12  0  0  0  0  0  0  0  0999 V2000
    2.9400    0.0810    0.1590 C   0  0  0  0  0  0  0  0  0  0  0  0
    1.8300   -0.6190    0.1030 C   0  0  0  0  0  0  0  0  0  0  0  0
    1.8700   -2.0040   -0.3770 C   0  0  0  0  0  0  0  0  0  0  0  0
    1.0460   -2.0860   -1.5010 O   0  0  0  0  0  0  0  0  0  0  0  0
    0.5490    0.0110    0.5300 C   0  0  0  0  0  0  0  0  0  0  0  0
   -0.5820   -0.6390    0.4950 C   0  0  0  0  0  0  0  0  0  0  0  0
   -1.9940    0.3880    1.0810 P   0  0  0  0  0  0  0  0  0  0  0  0
   -2.8180    1.0930   -0.3800 C   0  0  0  0  0  0  0  0  0  0  0  0
   -3.2620    0.2950   -1.3190 C   0  0  0  0  0  0  0  0  0  0  0  0
   -2.9810    2.4560   -0.5090 O   0  0  0  0  0  0  0  0  0  0  0  0
   -1.1740    1.6260    2.0040 O   0  0  0  0  0  0  0  0  0  0  0  0
    0.3210    1.6910    1.1310 P   0  0  0  0  0  0  0  0  0  0  0  0
  1  2  2  0
  2  3  1  0
  2  5  1  0
  3  4  1  0
  5  6  2  0
  5 12  1  0
  6  7  1  0
  7  8  1  0
  7 11  1  0
  8  9  2  0
  8 10  1  0
 11 12  1  0
M  END
