
     RDKit          3D

 12 12  0  0  0  0  0  0  0  0999 V2000
    2.7010    2.3550    0.1300 C   0  0  0  0  0  0  0  0  0  0  0  0
    1.4470    1.7550    1.0440 P   0  0  0  0  0  0  0  0  0  0  0  0
    0.2320    0.5950    0.3160 C   0  0  0  0  0  0  0  0  0  0  0  0
    0.5190   -0.7000    0.2630 C   0  0  0  0  0  0  0  0  0  0  0  0
    2.1120   -1.2510    0.9200 P   0  0  0  0  0  0  0  0  0  0  0  0
   -0.6860   -1.8820   -0.4640 P   0  0  0  0  0  0  0  0  0  0  0  0
    0.0810   -3.2700   -1.1280 O   0  0  0  0  0  0  0  0  0  0  0  0
   -1.6380   -1.1090   -1.7110 O   0  0  0  0  0  0  0  0  0  0  0  0
   -1.7550    0.2670   -1.8250 C   0  0  0  0  0  0  0  0  0  0  0  0
   -2.0990    0.8760   -2.8620 O   0  0  0  0  0  0  0  0  0  0  0  0
   -1.3720    1.2550   -0.3310 P   0  0  0  0  0  0  0  0  0  0  0  0
   -2.6670    0.8070    0.9530 C   0  0  0  0  0  0  0  0  0  0  0  0
  1  2  2  0
  2  3  1  0
  3  4  2  0
  3 11  1  0
  4  5  1  0
  4  6  1  0
  6  7  1  0
  6  8  1  0
  8  9  1  0
  9 10  2  0
  9 11  1  0
 11 12  1  0
M  END
