
     RDKit          3D

 12 11  0  0  0  0  0  0  0  0999 V2000
   -4.8940    0.0670    0.2700 C   0  0  0  0  0  0  0  0  0  0  0  0
   -4.0260   -0.7940    0.9530 O   0  0  0  0  0  0  0  0  0  0  0  0
   -2.8200   -0.1270    1.1050 C   0  0  0  0  0  0  0  0  0  0  0  0
   -1.8850   -0.9170    1.7820 O   0  0  0  0  0  0  0  0  0  0  0  0
   -0.7850   -0.1870    1.8670 O   0  0  0  0  0  0  0  0  0  0  0  0
   -0.5790    0.3050    0.6350 O   0  0  0  0  0  0  0  0  0  0  0  0
    0.0680   -0.4960   -0.2880 C   0  0  0  0  0  0  0  0  0  0  0  0
    1.2670   -0.1540   -0.6970 C   0  0  0  0  0  0  0  0  0  0  0  0
    1.8860    1.0780   -0.1580 C   0  0  0  0  0  0  0  0  0  0  0  0
    2.1110   -1.2230   -1.9180 P   0  0  0  0  0  0  0  0  0  0  0  0
    4.1520   -1.7200   -1.3120 P   0  0  0  0  0  0  0  0  0  0  0  0
    4.8180   -0.5460    0.3990 P   0  0  0  0  0  0  0  0  0  0  0  0
  1  2  1  0
  2  3  1  0
  3  4  1  0
  4  5  1  0
  5  6  1  0
  6  7  1  0
  7  8  2  3
  8  9  1  0
  8 10  1  0
 10 11  1  0
 11 12  1  0
M  END
