
     RDKit          3D

 12 11  0  0  0  0  0  0  0  0999 V2000
   -3.4830   -0.6610   -0.1250 C   0  0  0  0  0  0  0  0  0  0  0  0
   -2.3850   -0.2670   -1.1130 C   0  0  0  0  0  0  0  0  0  0  0  0
   -1.1200   -0.1060   -0.2710 C   0  0  2  0  0  0  0  0  0  0  0  0
   -0.8510   -1.3170    0.3470 O   0  0  0  0  0  0  0  0  0  0  0  0
   -1.5220    1.1790    1.0230 P   0  0  0  0  0  0  0  0  0  0  0  0
   -0.0500    0.3490   -1.0790 O   0  0  0  0  0  0  0  0  0  0  0  0
    1.1740    0.5450   -0.4570 C   0  0  0  0  0  0  0  0  0  0  0  0
    1.4980    1.8850    0.0470 C   0  0  0  0  0  0  0  0  0  0  0  0
    0.6900    2.8370   -0.0780 O   0  0  0  0  0  0  0  0  0  0  0  0
    2.1920   -0.7280   -0.3190 P   0  0  0  0  0  0  0  0  0  0  0  0
    3.8620   -0.6280    0.4840 C   0  0  0  0  0  0  0  0  0  0  0  0
    4.3280   -1.8600    0.8840 O   0  0  0  0  0  0  0  0  0  0  0  0
  1  2  1  0
  2  3  1  0
  3  4  1  1
  3  5  1  0
  3  6  1  0
  6  7  1  0
  7  8  1  0
  7 10  2  3
  8  9  2  0
 10 11  1  0
 11 12  1  0
M  END
