
     RDKit          3D

 13 14  0  0  0  0  0  0  0  0999 V2000
   -3.8750   -0.4780   -0.4120 C   0  0  0  0  0  0  0  0  0  0  0  0
   -2.9100    0.5230   -0.7430 N   0  0  0  0  0  0  0  0  0  0  0  0
   -1.5180    0.3870   -0.4440 C   0  0  0  0  0  0  0  0  0  0  0  0
   -0.6240    1.3800   -0.7830 C   0  0  0  0  0  0  0  0  0  0  0  0
    0.6680    1.2490   -0.5030 N   0  0  0  0  0  0  0  0  0  0  0  0
    1.1090    0.1540    0.1110 N   0  0  0  0  0  0  0  0  0  0  0  0
    2.3620   -0.1950    0.4920 C   0  0  0  0  0  0  0  0  0  0  0  0
    3.5840    0.6180    0.2960 C   0  0  0  0  0  0  0  0  0  0  0  0
    2.3230   -1.4330    1.0960 C   0  0  0  0  0  0  0  0  0  0  0  0
    3.6650   -2.3360    1.7650 Cl  0  0  0  0  0  0  0  0  0  0  0  0
    1.0330   -1.7920    1.0570 N   0  0  0  0  0  0  0  0  0  0  0  0
    0.2870   -0.8420    0.4640 C   0  0  0  0  0  0  0  0  0  0  0  0
   -1.0290   -0.7070    0.1770 N   0  0  0  0  0  0  0  0  0  0  0  0
  1  2  1  0
  2  3  1  0
  3  4  1  0
  3 13  2  0
  4  5  2  0
  5  6  1  0
  6  7  1  0
  6 12  1  0
  7  8  1  0
  7  9  2  0
  9 10  1  0
  9 11  1  0
 11 12  2  0
 12 13  1  0
M  END
