
     RDKit          3D

 12 13  0  0  0  0  0  0  0  0999 V2000
   -2.0330   -0.6270   -1.0220 C   0  0  0  0  0  0  0  0  0  0  0  0
   -1.2170    0.3150   -0.1810 C   0  0  1  0  0  0  0  0  0  0  0  0
   -2.0160    1.0000    0.8900 C   0  0  0  0  0  0  0  0  0  0  0  0
   -0.0750   -0.4540    0.4060 C   0  0  0  0  0  0  0  0  0  0  0  0
   -0.1070   -1.4700    1.2640 N   0  0  0  0  0  0  0  0  0  0  0  0
    1.1360   -1.8770    1.5400 N   0  0  0  0  0  0  0  0  0  0  0  0
    1.9940   -1.1120    0.8500 C   0  0  0  0  0  0  0  0  0  0  0  0
    3.2590   -0.7950    0.5160 N   0  0  0  0  0  0  0  0  0  0  0  0
    3.2890    0.2230   -0.3430 C   0  0  0  0  0  0  0  0  0  0  0  0
    4.6920    0.9590   -1.0370 Cl  0  0  0  0  0  0  0  0  0  0  0  0
    2.0160    0.5680   -0.5660 N   0  0  0  0  0  0  0  0  0  0  0  0
    1.2290   -0.2330    0.1510 N   0  0  0  0  0  0  0  0  0  0  0  0
  2  1  1  1
  2  3  1  0
  2  4  1  0
  4  5  2  0
  4 12  1  0
  5  6  1  0
  6  7  2  0
  7  8  1  0
  7 12  1  0
  8  9  2  0
  9 10  1  0
  9 11  1  0
 11 12  1  0
M  END
