
     RDKit          3D

 13 14  0  0  0  0  0  0  0  0999 V2000
    4.3080    0.1720    0.3340 C   0  0  0  0  0  0  0  0  0  0  0  0
    2.8830    0.5830    0.3690 C   0  0  0  0  0  0  0  0  0  0  0  0
    2.3130    1.7590    0.5990 N   0  0  0  0  0  0  0  0  0  0  0  0
    0.9970    1.6340    0.5230 N   0  0  0  0  0  0  0  0  0  0  0  0
    0.6980    0.3560    0.2380 C   0  0  0  0  0  0  0  0  0  0  0  0
   -0.6530   -0.2150    0.0660 C   0  0  0  0  0  0  0  0  0  0  0  0
   -0.9710   -1.5230   -0.2260 C   0  0  0  0  0  0  0  0  0  0  0  0
   -2.3240   -1.5420   -0.2810 N   0  0  0  0  0  0  0  0  0  0  0  0
   -2.8310   -0.3640   -0.0480 N   0  0  0  0  0  0  0  0  0  0  0  0
   -4.2370   -0.0170   -0.0270 C   0  0  0  0  0  0  0  0  0  0  0  0
   -1.8210    0.4950    0.1740 C   0  0  0  0  0  0  0  0  0  0  0  0
   -2.0290    2.2110    0.5330 Cl  0  0  0  0  0  0  0  0  0  0  0  0
    1.8710   -0.2970    0.1430 N   0  0  0  0  0  0  0  0  0  0  0  0
  1  2  1  0
  2  3  2  0
  2 13  1  0
  3  4  1  0
  4  5  2  0
  5  6  1  0
  5 13  1  0
  6  7  1  0
  6 11  2  0
  7  8  2  0
  8  9  1  0
  9 10  1  0
  9 11  1  0
 11 12  1  0
M  END
