
     RDKit          3D

 10 11  0  0  0  0  0  0  0  0999 V2000
   -2.0010   -1.4800    0.3710 N   0  0  0  0  0  0  0  0  0  0  0  0
   -1.2120   -0.3530    0.1270 C   0  0  0  0  0  0  0  0  0  0  0  0
   -1.7950    0.9070   -0.0740 C   0  0  0  0  0  0  0  0  0  0  0  0
   -0.9020    1.9290   -0.3040 C   0  0  0  0  0  0  0  0  0  0  0  0
    0.4120    1.7690   -0.3410 N   0  0  0  0  0  0  0  0  0  0  0  0
    1.0350    0.5510   -0.1510 C   0  0  0  0  0  0  0  0  0  0  0  0
    2.3450    0.2700   -0.1650 C   0  0  0  0  0  0  0  0  0  0  0  0
    2.7940   -0.9780    0.0390 C   0  0  0  0  0  0  0  0  0  0  0  0
    1.2120   -1.9450    0.2940 S   0  0  0  0  0  0  0  0  0  0  0  0
    0.1400   -0.4650    0.0790 C   0  0  0  0  0  0  0  0  0  0  0  0
  1  2  1  0
  2  3  2  0
  2 10  1  0
  3  4  1  0
  4  5  2  0
  5  6  1  0
  6  7  1  0
  6 10  2  0
  7  8  2  0
  8  9  1  0
  9 10  1  0
M  END
