
     RDKit          3D

 13 14  0  0  0  0  0  0  0  0999 V2000
   -1.9250    1.0640   -0.7820 C   0  0  0  0  0  0  0  0  0  0  0  0
   -1.9800   -0.0550    0.2270 C   0  0  2  0  0  0  0  0  0  0  0  0
   -1.9120   -1.3550   -0.5080 C   0  0  0  0  0  0  0  0  0  0  0  0
   -3.5600    0.0800    1.0650 Cl  0  0  0  0  0  0  0  0  0  0  0  0
   -0.9150    0.0950    1.2910 C   0  0  0  0  0  0  0  0  0  0  0  0
    0.4560    0.0940    0.7560 C   0  0  0  0  0  0  0  0  0  0  0  0
    1.1570    1.1630    0.3550 N   0  0  0  0  0  0  0  0  0  0  0  0
    2.3520    0.7780   -0.0630 N   0  0  0  0  0  0  0  0  0  0  0  0
    3.5420    1.1580   -0.5720 C   0  0  0  0  0  0  0  0  0  0  0  0
    4.3370    0.0890   -0.7520 N   0  0  0  0  0  0  0  0  0  0  0  0
    3.6510   -0.9730   -0.3570 N   0  0  0  0  0  0  0  0  0  0  0  0
    2.4390   -0.5580    0.0640 C   0  0  0  0  0  0  0  0  0  0  0  0
    1.2550   -0.9660    0.5740 N   0  0  0  0  0  0  0  0  0  0  0  0
  2  1  1  6
  2  3  1  0
  2  4  1  0
  2  5  1  0
  5  6  1  0
  6  7  2  0
  6 13  1  0
  7  8  1  0
  8  9  1  0
  8 12  1  0
  9 10  2  0
 10 11  1  0
 11 12  2  0
 12 13  1  0
M  END
