
     RDKit          3D

 21 24  0  0  0  0  0  0  0  0999 V2000
    2.8360   -0.9980   -1.2010 C   0  0  0  0  0  0  0  0  0  0  0  0
    2.4150   -0.7170    0.2330 C   0  0  2  0  0  0  0  0  0  0  0  0
    1.5420   -1.7590    0.7580 C   0  0  0  0  0  0  0  0  0  0  0  0
    0.2450   -1.3230    1.3780 C   0  0  0  0  0  0  0  0  0  0  0  0
   -0.4140   -0.1490    0.8020 C   0  0  1  0  0  0  0  0  0  0  0  0
    0.4260    0.5360   -0.2950 C   0  0  1  0  0  0  0  0  0  0  0  0
   -0.1870    1.7960   -0.7710 C   0  0  0  0  0  0  0  0  0  0  0  0
   -1.4620    2.1790   -0.1300 C   0  0  0  0  0  0  0  0  0  0  0  0
   -2.4020    1.0960    0.2040 C   0  0  1  0  0  0  0  0  0  0  0  0
   -3.6650    1.0880   -0.6580 C   0  0  0  0  0  0  0  0  0  0  0  0
   -4.5920    0.1300    0.0280 C   0  0  0  0  0  0  0  0  0  0  0  0
   -5.7860    0.3930    0.0900 O   0  0  0  0  0  0  0  0  0  0  0  0
   -4.1190   -1.1120    0.6260 C   0  0  0  0  0  0  0  0  0  0  0  0
   -2.7090   -1.1320    1.1090 C   0  0  0  0  0  0  0  0  0  0  0  0
   -1.7800   -0.3010    0.2470 C   0  0  2  0  0  0  0  0  0  0  0  0
   -1.8010   -0.9390   -1.1280 C   0  0  0  0  0  0  0  0  0  0  0  0
    1.7420    0.6600    0.3420 C   0  0  2  0  0  0  0  0  0  0  0  0
    2.7720    1.5050   -0.2560 C   0  0  0  0  0  0  0  0  0  0  0  0
    4.0410    0.9640    0.4140 C   0  0  0  0  0  0  0  0  0  0  0  0
    3.6570   -0.3970    0.9960 C   0  0  2  0  0  0  0  0  0  0  0  0
    4.6890   -1.2790    0.6750 O   0  0  0  0  0  0  0  0  0  0  0  0
  2  1  1  6
  2  3  1  0
  2 17  1  0
  2 20  1  0
  3  4  1  0
  5  4  1  6
  5  6  1  0
  5 15  1  0
  6  7  1  1
  6 17  1  0
  7  8  1  0
  9  8  1  6
  9 10  1  0
  9 15  1  0
 10 11  1  0
 11 12  2  0
 11 13  1  0
 13 14  1  0
 14 15  1  0
 15 16  1  6
 17 18  1  6
 18 19  1  0
 19 20  1  0
 20 21  1  6
M  END
