
     RDKit          3D

 13 14  0  0  0  0  0  0  0  0999 V2000
    2.4950    0.7550   -1.1270 C   0  0  0  0  0  0  0  0  0  0  0  0
    2.1830   -0.2910   -0.1250 C   0  0  0  0  0  0  0  0  0  0  0  0
    3.1510   -1.0870    0.4360 N   0  0  0  0  0  0  0  0  0  0  0  0
    2.6000   -1.8840    1.2960 N   0  0  0  0  0  0  0  0  0  0  0  0
    1.2900   -1.6040    1.2890 C   0  0  0  0  0  0  0  0  0  0  0  0
    1.0020   -0.6030    0.4000 N   0  0  0  0  0  0  0  0  0  0  0  0
   -0.3150   -0.1320    0.1540 C   0  0  0  0  0  0  0  0  0  0  0  0
   -0.6160    0.6680   -0.8280 C   0  0  0  0  0  0  0  0  0  0  0  0
   -1.9820    1.1270   -1.0360 N   0  0  0  0  0  0  0  0  0  0  0  0
   -3.0200    0.7350   -0.2000 N   0  0  0  0  0  0  0  0  0  0  0  0
   -2.6650   -0.1360    0.8630 C   0  0  0  0  0  0  0  0  0  0  0  0
   -3.9230   -0.6580    1.9450 Cl  0  0  0  0  0  0  0  0  0  0  0  0
   -1.4210   -0.5440    1.0390 C   0  0  0  0  0  0  0  0  0  0  0  0
  1  2  1  0
  2  3  2  0
  2  6  1  0
  3  4  1  0
  4  5  2  0
  5  6  1  0
  6  7  1  0
  7  8  2  0
  7 13  1  0
  8  9  1  0
  9 10  1  0
 10 11  1  0
 11 12  1  0
 11 13  2  0
M  END
