
     RDKit          3D

 13 14  0  0  0  0  0  0  0  0999 V2000
    0.4710    1.5860    0.7230 C   0  0  0  0  0  0  0  0  0  0  0  0
   -0.1350    0.6580    0.0450 C   0  0  0  0  0  0  0  0  0  0  0  0
   -1.3350    1.1130   -0.7080 C   0  0  0  0  0  0  0  0  0  0  0  0
   -2.4860    0.3150   -0.3480 N   0  0  0  0  0  0  0  0  0  0  0  0
   -2.5990   -1.0610   -0.0490 C   0  0  0  0  0  0  0  0  0  0  0  0
   -4.2750   -1.6450    0.0360 Cl  0  0  0  0  0  0  0  0  0  0  0  0
   -1.7070   -1.9740    0.1750 N   0  0  0  0  0  0  0  0  0  0  0  0
   -0.2740   -1.7990    0.1730 C   0  0  0  0  0  0  0  0  0  0  0  0
    0.6440   -2.7600    0.2210 N   0  0  0  0  0  0  0  0  0  0  0  0
    1.8610   -2.2080    0.1850 N   0  0  0  0  0  0  0  0  0  0  0  0
    1.7510   -0.8730    0.1130 C   0  0  0  0  0  0  0  0  0  0  0  0
    2.8260    0.1210    0.0250 C   0  0  0  0  0  0  0  0  0  0  0  0
    0.4250   -0.6250    0.1070 N   0  0  0  0  0  0  0  0  0  0  0  0
  1  2  2  0
  2  3  1  0
  2 13  1  0
  3  4  1  0
  4  5  1  0
  5  6  1  0
  5  7  2  0
  7  8  1  0
  8  9  2  0
  8 13  1  0
  9 10  1  0
 10 11  2  0
 11 12  1  0
 11 13  1  0
M  END
