
     RDKit          3D

 24 25  0  0  0  0  0  0  0  0999 V2000
   -5.3330   -1.4700    0.4260 C   0  0  0  0  0  0  0  0  0  0  0  0
   -5.1250   -1.1640    1.6790 C   0  0  0  0  0  0  0  0  0  0  0  0
   -6.1360   -1.3610    2.6010 O   0  0  0  0  0  0  0  0  0  0  0  0
   -3.8370   -0.6110    2.1480 C   0  0  0  0  0  0  0  0  0  0  0  0
   -3.6660   -0.3260    3.3610 O   0  0  0  0  0  0  0  0  0  0  0  0
   -2.7890   -0.3900    1.2840 O   0  0  0  0  0  0  0  0  0  0  0  0
   -1.5440    0.1270    1.6440 C   0  0  0  0  0  0  0  0  0  0  0  0
   -0.6980    0.2000    0.3710 C   0  0  1  0  0  0  0  0  0  0  0  0
   -1.5300    0.9990   -0.6080 C   0  0  0  0  0  0  0  0  0  0  0  0
   -0.9050    1.2010   -1.9290 C   0  0  0  0  0  0  0  0  0  0  0  0
   -1.7470    1.9300   -2.7510 O   0  0  0  0  0  0  0  0  0  0  0  0
   -2.0840    3.1780   -2.3200 C   0  0  0  0  0  0  0  0  0  0  0  0
    0.6490    0.7660    0.6230 C   0  0  0  0  0  0  0  0  0  0  0  0
    1.7860   -0.1420    0.1930 C   0  0  2  0  0  0  0  0  0  0  0  0
    1.5640   -1.5690    0.6330 C   0  0  0  0  0  0  0  0  0  0  0  0
    0.1230   -1.9590    0.6690 C   0  0  0  0  0  0  0  0  0  0  0  0
   -0.6110   -1.1030   -0.1030 O   0  0  0  0  0  0  0  0  0  0  0  0
    3.0310    0.3580    0.8960 C   0  0  0  0  0  0  0  0  0  0  0  0
    4.0980    0.6670   -0.1440 C   0  0  1  0  0  0  0  0  0  0  0  0
    5.3000    0.9200    0.5150 O   0  0  0  0  0  0  0  0  0  0  0  0
    4.2320   -0.6080   -0.9860 C   0  0  2  0  0  0  0  0  0  0  0  0
    5.3290   -0.5140   -1.8400 O   0  0  0  0  0  0  0  0  0  0  0  0
    2.9280   -0.7590   -1.7300 C   0  0  0  0  0  0  0  0  0  0  0  0
    1.8740   -0.1140   -1.1660 O   0  0  0  0  0  0  0  0  0  0  0  0
  1  2  2  0
  2  3  1  0
  2  4  1  0
  4  5  2  0
  4  6  1  0
  6  7  1  0
  8  7  1  1
  8  9  1  0
  8 13  1  0
  8 17  1  0
  9 10  1  0
 10 11  1  0
 11 12  1  0
 14 13  1  6
 14 15  1  0
 14 18  1  0
 14 24  1  0
 15 16  1  0
 16 17  1  0
 18 19  1  0
 19 20  1  1
 19 21  1  0
 21 22  1  6
 21 23  1  0
 23 24  1  0
M  END
