
     RDKit          3D

 23 25  0  0  0  0  0  0  0  0999 V2000
   -6.1910    0.5680    0.6620 C   0  0  0  0  0  0  0  0  0  0  0  0
   -6.0420    0.0840   -0.6940 N   0  0  0  0  0  0  0  0  0  0  0  0
   -4.9490   -1.2420   -0.7490 S   0  0  1  0  0  0  0  0  0  0  0  0
   -5.4350   -2.3840    0.1050 O   0  0  0  0  0  0  0  0  0  0  0  0
   -4.8220   -1.7200   -2.1670 O   0  0  0  0  0  0  0  0  0  0  0  0
   -3.3600   -0.7700   -0.2050 C   0  0  0  0  0  0  0  0  0  0  0  0
   -3.0660   -0.8890    1.1370 C   0  0  0  0  0  0  0  0  0  0  0  0
   -1.8030   -0.5180    1.5940 C   0  0  0  0  0  0  0  0  0  0  0  0
   -0.8380   -0.0330    0.7370 C   0  0  0  0  0  0  0  0  0  0  0  0
    0.4540    0.3440    1.2140 N   0  0  0  0  0  0  0  0  0  0  0  0
    1.4660    0.8440    0.3660 C   0  0  0  0  0  0  0  0  0  0  0  0
    2.6440    0.2440    0.3690 C   0  0  0  0  0  0  0  0  0  0  0  0
    3.0090   -0.9110    1.1830 C   0  0  0  0  0  0  0  0  0  0  0  0
    2.2410   -1.4850    1.9900 O   0  0  0  0  0  0  0  0  0  0  0  0
    4.3610   -1.2170    0.8660 N   0  0  0  0  0  0  0  0  0  0  0  0
    4.8520   -0.2890   -0.1200 C   0  0  0  0  0  0  0  0  0  0  0  0
    6.0700   -0.1480   -0.7550 C   0  0  0  0  0  0  0  0  0  0  0  0
    6.3110    0.8350   -1.6810 C   0  0  0  0  0  0  0  0  0  0  0  0
    5.2770    1.7050   -1.9720 C   0  0  0  0  0  0  0  0  0  0  0  0
    4.0580    1.5780   -1.3490 C   0  0  0  0  0  0  0  0  0  0  0  0
    3.8240    0.5830   -0.4160 C   0  0  0  0  0  0  0  0  0  0  0  0
   -1.1550    0.0770   -0.6010 C   0  0  0  0  0  0  0  0  0  0  0  0
   -2.4120   -0.2910   -1.0650 C   0  0  0  0  0  0  0  0  0  0  0  0
  1  2  1  0
  3  2  1  6
  3  4  2  0
  3  5  2  0
  3  6  1  0
  6  7  2  0
  6 23  1  0
  7  8  1  0
  8  9  2  0
  9 10  1  0
  9 22  1  0
 10 11  1  0
 11 12  2  3
 12 13  1  0
 12 21  1  0
 13 14  2  0
 13 15  1  0
 15 16  1  0
 16 17  2  0
 16 21  1  0
 17 18  1  0
 18 19  2  0
 19 20  1  0
 20 21  2  0
 22 23  2  0
M  END
