
     RDKit          3D

 24 26  0  0  0  0  0  0  0  0999 V2000
    4.6770   -2.1700   -1.0900 C   0  0  0  0  0  0  0  0  0  0  0  0
    3.9210   -0.9240   -0.6760 C   0  0  1  0  0  0  0  0  0  0  0  0
    2.6760   -1.3350    0.0840 C   0  0  0  0  0  0  0  0  0  0  0  0
    2.5380   -0.3290    1.2190 C   0  0  2  0  0  0  0  0  0  0  0  0
    3.5400   -0.6380    2.1350 O   0  0  0  0  0  0  0  0  0  0  0  0
    1.2360   -0.3640    1.8620 C   0  0  0  0  0  0  0  0  0  0  0  0
    1.1510   -0.6470    3.0830 O   0  0  0  0  0  0  0  0  0  0  0  0
    0.0540   -0.0970    1.1870 O   0  0  0  0  0  0  0  0  0  0  0  0
   -1.2200   -0.1360    1.8390 C   0  0  0  0  0  0  0  0  0  0  0  0
   -2.2460    0.2080    0.7820 C   0  0  1  0  0  0  0  0  0  0  0  0
   -2.2200   -0.7980   -0.3490 C   0  0  0  0  0  0  0  0  0  0  0  0
   -2.9280   -0.1530   -1.5220 C   0  0  0  0  0  0  0  0  0  0  0  0
   -4.3040    0.2070   -1.0290 C   0  0  0  0  0  0  0  0  0  0  0  0
   -5.2300    0.3560   -1.9640 C   0  0  0  0  0  0  0  0  0  0  0  0
   -6.4980    0.6840   -1.5590 O   0  0  0  0  0  0  0  0  0  0  0  0
   -6.9160    0.8800   -0.2350 C   0  0  0  0  0  0  0  0  0  0  0  0
   -5.8170    0.6930    0.7400 C   0  0  0  0  0  0  0  0  0  0  0  0
   -4.5940    0.3790    0.3870 C   0  0  0  0  0  0  0  0  0  0  0  0
   -3.5610    0.2040    1.3030 O   0  0  0  0  0  0  0  0  0  0  0  0
    2.8210    0.9270    0.6360 O   0  0  0  0  0  0  0  0  0  0  0  0
    4.2190    0.9940    0.5790 C   0  0  2  0  0  0  0  0  0  0  0  0
    4.6740    2.2320   -0.1670 C   0  0  0  0  0  0  0  0  0  0  0  0
    4.2140    2.2630   -1.4620 O   0  0  0  0  0  0  0  0  0  0  0  0
    4.7860   -0.1550    0.0950 O   0  0  0  0  0  0  0  0  0  0  0  0
  2  1  1  1
  2  3  1  0
  2 24  1  0
  3  4  1  0
  4  5  1  1
  4  6  1  0
  4 20  1  0
  6  7  2  0
  6  8  1  0
  8  9  1  0
 10  9  1  1
 10 11  1  0
 10 19  1  0
 11 12  1  0
 12 13  1  0
 13 14  2  0
 13 18  1  0
 14 15  1  0
 15 16  1  0
 16 17  1  0
 17 18  2  0
 18 19  1  0
 20 21  1  0
 21 22  1  6
 21 24  1  0
 22 23  1  0
M  END
