
     RDKit          3D

 24 25  0  0  0  0  0  0  0  0999 V2000
   -2.0300   -2.2640   -3.0390 C   0  0  0  0  0  0  0  0  0  0  0  0
   -1.0950   -2.2330   -1.8590 C   0  0  2  0  0  0  0  0  0  0  0  0
   -1.7190   -2.6280   -0.5730 C   0  0  0  0  0  0  0  0  0  0  0  0
   -1.8640   -1.5480    0.4350 C   0  0  2  0  0  0  0  0  0  0  0  0
   -3.0000   -0.7960    0.1480 O   0  0  0  0  0  0  0  0  0  0  0  0
   -0.6620   -0.6890    0.6330 C   0  0  2  0  0  0  0  0  0  0  0  0
   -1.0960    0.7480    0.7060 C   0  0  0  0  0  0  0  0  0  0  0  0
   -2.0310    0.9060    1.8500 C   0  0  0  0  0  0  0  0  0  0  0  0
   -2.3630   -0.0480    2.5950 O   0  0  0  0  0  0  0  0  0  0  0  0
   -2.5830    2.1540    2.1360 O   0  0  0  0  0  0  0  0  0  0  0  0
   -3.4730    2.4020    3.1930 C   0  0  0  0  0  0  0  0  0  0  0  0
   -4.7450    1.5760    3.0650 C   0  0  0  0  0  0  0  0  0  0  0  0
   -5.4060    1.8660    1.8880 O   0  0  0  0  0  0  0  0  0  0  0  0
    0.3770   -0.8980   -0.4750 C   0  0  2  0  0  0  0  0  0  0  0  0
    1.3880   -0.0090   -0.2830 O   0  0  0  0  0  0  0  0  0  0  0  0
    2.6660   -0.3860    0.0690 C   0  0  0  0  0  0  0  0  0  0  0  0
    2.8120   -1.6220    0.1950 O   0  0  0  0  0  0  0  0  0  0  0  0
    3.7710    0.5980    0.2780 C   0  0  2  0  0  0  0  0  0  0  0  0
    3.8740    1.4310   -0.9520 C   0  0  0  0  0  0  0  0  0  0  0  0
    5.1100    1.8920   -1.2780 O   0  0  0  0  0  0  0  0  0  0  0  0
    6.1810    1.2000   -0.8200 C   0  0  0  0  0  0  0  0  0  0  0  0
    5.9870    0.7980    0.6190 C   0  0  0  0  0  0  0  0  0  0  0  0
    4.9060   -0.0930    0.6160 O   0  0  0  0  0  0  0  0  0  0  0  0
   -0.3500   -0.8950   -1.7670 C   0  0  0  0  0  0  0  0  0  0  0  0
  2  1  1  6
  2  3  1  0
  2 24  1  0
  3  4  1  0
  4  5  1  6
  4  6  1  0
  6  7  1  6
  6 14  1  0
  7  8  1  0
  8  9  2  0
  8 10  1  0
 10 11  1  0
 11 12  1  0
 12 13  1  0
 14 15  1  6
 14 24  1  0
 15 16  1  0
 16 17  2  0
 18 16  1  6
 18 19  1  0
 18 23  1  0
 19 20  1  0
 20 21  1  0
 21 22  1  0
 22 23  1  0
M  END
