
     RDKit          3D

 24 25  0  0  0  0  0  0  0  0999 V2000
    7.4390    0.6750    0.0960 C   0  0  0  0  0  0  0  0  0  0  0  0
    6.4780    0.1090   -0.7840 O   0  0  0  0  0  0  0  0  0  0  0  0
    5.2600   -0.3110   -0.3040 C   0  0  0  0  0  0  0  0  0  0  0  0
    4.9780   -0.2000    0.9120 O   0  0  0  0  0  0  0  0  0  0  0  0
    4.2870   -0.9040   -1.2830 C   0  0  2  0  0  0  0  0  0  0  0  0
    4.8300   -0.9080   -2.5400 O   0  0  0  0  0  0  0  0  0  0  0  0
    3.0530   -0.1750   -1.2260 O   0  0  0  0  0  0  0  0  0  0  0  0
    1.9090   -0.7130   -0.7140 C   0  0  0  0  0  0  0  0  0  0  0  0
    1.9050   -1.8810   -0.2580 O   0  0  0  0  0  0  0  0  0  0  0  0
    0.6280    0.0430   -0.6690 C   0  0  0  0  0  0  0  0  0  0  0  0
    0.0690    0.0370    0.7370 C   0  0  0  0  0  0  0  0  0  0  0  0
   -1.2240    0.7440    0.8940 C   0  0  2  0  0  0  0  0  0  0  0  0
   -1.6460    0.7100    2.3640 C   0  0  2  0  0  0  0  0  0  0  0  0
   -0.7700   -0.0860    3.1030 O   0  0  0  0  0  0  0  0  0  0  0  0
   -3.0380    0.1400    2.3010 C   0  0  2  0  0  0  0  0  0  0  0  0
   -2.9000   -1.3480    2.2930 C   0  0  0  0  0  0  0  0  0  0  0  0
   -2.6880   -1.9990    0.9900 C   0  0  0  0  0  0  0  0  0  0  0  0
   -2.5960   -1.1090   -0.2110 C   0  0  0  0  0  0  0  0  0  0  0  0
   -2.3710    0.3230    0.0890 C   0  0  2  0  0  0  0  0  0  0  0  0
   -2.5740    1.1720   -1.1390 C   0  0  0  0  0  0  0  0  0  0  0  0
   -1.8240    2.1550   -1.3480 O   0  0  0  0  0  0  0  0  0  0  0  0
   -3.5630    0.9050   -2.0510 O   0  0  0  0  0  0  0  0  0  0  0  0
   -3.7630    1.7050   -3.2180 C   0  0  0  0  0  0  0  0  0  0  0  0
   -3.5610    0.6980    1.0040 C   0  0  0  0  0  0  0  0  0  0  0  0
  1  2  1  0
  2  3  1  0
  3  4  2  0
  3  5  1  0
  5  6  1  6
  5  7  1  0
  7  8  1  0
  8  9  2  0
  8 10  1  0
 10 11  1  0
 12 11  1  1
 12 13  1  0
 12 19  1  0
 13 14  1  1
 13 15  1  0
 15 16  1  6
 15 24  1  0
 16 17  1  0
 17 18  1  0
 18 19  1  0
 19 20  1  6
 19 24  1  0
 20 21  2  0
 20 22  1  0
 22 23  1  0
M  END
