
     RDKit          3D

 24 26  0  0  0  0  0  0  0  0999 V2000
   -4.5510    1.9930    0.0770 C   0  0  0  0  0  0  0  0  0  0  0  0
   -3.4060    1.3920   -0.6660 C   0  0  2  0  0  0  0  0  0  0  0  0
   -3.7190    1.4720   -2.0430 O   0  0  0  0  0  0  0  0  0  0  0  0
   -3.1950   -0.0680   -0.3660 C   0  0  1  0  0  0  0  0  0  0  0  0
   -4.3810   -0.9110   -0.7120 C   0  0  0  0  0  0  0  0  0  0  0  0
   -5.4860   -0.4820    0.0230 O   0  0  0  0  0  0  0  0  0  0  0  0
   -2.0140   -0.5300   -1.2310 C   0  0  0  0  0  0  0  0  0  0  0  0
   -0.9140   -0.1720   -0.4970 O   0  0  0  0  0  0  0  0  0  0  0  0
   -1.1850   -0.2350    0.8310 C   0  0  2  0  0  0  0  0  0  0  0  0
   -0.5040   -1.2930    1.6230 C   0  0  0  0  0  0  0  0  0  0  0  0
    0.8890   -1.2480    1.6460 O   0  0  0  0  0  0  0  0  0  0  0  0
    1.7380   -1.3810    0.5670 C   0  0  0  0  0  0  0  0  0  0  0  0
    1.2310   -1.5660   -0.5550 O   0  0  0  0  0  0  0  0  0  0  0  0
    3.2410   -1.2990    0.7770 C   0  0  2  0  0  0  0  0  0  0  0  0
    3.5930    0.0140    1.3270 C   0  0  0  0  0  0  0  0  0  0  0  0
    4.4750    0.8640    0.8590 C   0  0  0  0  0  0  0  0  0  0  0  0
    4.9550    2.1190    1.2050 O   0  0  0  0  0  0  0  0  0  0  0  0
    5.6020    2.7070    0.0760 C   0  0  0  0  0  0  0  0  0  0  0  0
    6.0470    1.5490   -0.6070 O   0  0  0  0  0  0  0  0  0  0  0  0
    5.1840    0.4650   -0.3430 C   0  0  0  0  0  0  0  0  0  0  0  0
    4.9430   -0.6760   -0.9100 C   0  0  0  0  0  0  0  0  0  0  0  0
    3.9740   -1.6680   -0.4440 C   0  0  2  0  0  0  0  0  0  0  0  0
    3.0360   -1.7830   -1.5190 O   0  0  0  0  0  0  0  0  0  0  0  0
   -2.6820   -0.3400    1.0040 C   0  0  0  0  0  0  0  0  0  0  0  0
  2  1  1  1
  2  3  1  0
  2  4  1  0
  4  5  1  6
  4  7  1  0
  4 24  1  0
  5  6  1  0
  7  8  1  0
  8  9  1  0
  9 10  1  6
  9 24  1  0
 10 11  1  0
 11 12  1  0
 12 13  2  0
 14 12  1  6
 14 15  1  0
 14 22  1  0
 15 16  2  0
 16 17  1  0
 16 20  1  0
 17 18  1  0
 18 19  1  0
 19 20  1  0
 20 21  2  0
 21 22  1  0
 22 23  1  6
M  END
