
     RDKit          3D

 20 20  0  0  0  0  0  0  0  0999 V2000
    4.5890   -1.2770    0.4630 C   0  0  0  0  0  0  0  0  0  0  0  0
    4.5460   -0.1580   -0.1620 C   0  0  0  0  0  0  0  0  0  0  0  0
    3.5520    0.7690   -0.5620 C   0  0  0  0  0  0  0  0  0  0  0  0
    2.1340    0.8250   -0.4200 C   0  0  0  0  0  0  0  0  0  0  0  0
    1.1280    0.2140    0.0460 C   0  0  0  0  0  0  0  0  0  0  0  0
    0.9480   -1.0030    0.7520 C   0  0  0  0  0  0  0  0  0  0  0  0
   -0.2080   -1.4750    1.1590 C   0  0  0  0  0  0  0  0  0  0  0  0
   -1.5550   -0.9120    1.0070 C   0  0  2  0  0  0  0  0  0  0  0  0
   -2.4040   -1.6690    1.8870 O   0  0  0  0  0  0  0  0  0  0  0  0
   -2.0510   -1.1630   -0.3640 C   0  0  0  0  0  0  0  0  0  0  0  0
   -1.6090   -0.7250   -1.3900 O   0  0  0  0  0  0  0  0  0  0  0  0
   -3.2460   -2.0680   -0.5130 C   0  0  0  0  0  0  0  0  0  0  0  0
   -3.6310   -2.2250   -1.9630 C   0  0  0  0  0  0  0  0  0  0  0  0
   -1.6500    0.8340    1.5580 P   0  0  0  0  0  0  0  0  0  0  0  0
   -2.5330    1.8250    0.4020 O   0  0  0  0  0  0  0  0  0  0  0  0
   -3.7700    1.8670    1.0090 C   0  0  0  0  0  0  0  0  0  0  0  0
   -3.5990    1.9890    2.4880 C   0  0  0  0  0  0  0  0  0  0  0  0
   -2.7210    1.0000    2.9130 O   0  0  0  0  0  0  0  0  0  0  0  0
    4.0770    1.8710   -1.2450 C   0  0  0  0  0  0  0  0  0  0  0  0
    5.4970    2.0090   -1.4960 C   0  0  0  0  0  0  0  0  0  0  0  0
  1  2  2  0
  2  3  1  0
  3  4  1  0
  3 19  2  3
  4  5  2  3
  5  6  1  0
  6  7  2  3
  7  8  1  0
  8  9  1  1
  8 10  1  0
  8 14  1  0
 10 11  2  0
 10 12  1  0
 12 13  1  0
 14 15  1  0
 14 18  1  0
 15 16  1  0
 16 17  1  0
 17 18  1  0
 19 20  1  0
M  END
