
     RDKit          3D

 20 19  0  0  0  0  0  0  0  0999 V2000
   -4.6610   -1.5960   -1.2650 C   0  0  0  0  0  0  0  0  0  0  0  0
   -4.1890   -0.4110   -1.4470 C   0  0  0  0  0  0  0  0  0  0  0  0
   -3.3740    0.5260   -0.6850 C   0  0  0  0  0  0  0  0  0  0  0  0
   -3.2700    1.7340   -1.2650 C   0  0  0  0  0  0  0  0  0  0  0  0
   -2.5930    2.9890   -0.8970 C   0  0  0  0  0  0  0  0  0  0  0  0
   -2.4430    0.2470    0.3740 C   0  0  2  0  0  0  0  0  0  0  0  0
   -1.1580   -0.0790   -0.3680 C   0  0  0  0  0  0  0  0  0  0  0  0
   -1.1990   -0.1570   -1.6410 O   0  0  0  0  0  0  0  0  0  0  0  0
    0.0400   -0.2680    0.2080 O   0  0  0  0  0  0  0  0  0  0  0  0
    1.0870   -0.4360   -0.7460 C   0  0  0  0  0  0  0  0  0  0  0  0
    2.7920   -0.5180   -0.1800 P   0  0  0  0  0  0  0  0  0  0  0  0
    3.6580   -1.1790   -1.4480 O   0  0  0  0  0  0  0  0  0  0  0  0
    4.8980   -1.6740   -1.2950 C   0  0  0  0  0  0  0  0  0  0  0  0
    4.7810   -3.2320   -1.6900 C   0  0  0  0  0  0  0  0  0  0  0  0
    3.3630    0.4600    0.9860 O   0  0  0  0  0  0  0  0  0  0  0  0
    4.1560    1.5200    0.5580 C   0  0  0  0  0  0  0  0  0  0  0  0
    4.5380    2.4580    1.6960 C   0  0  0  0  0  0  0  0  0  0  0  0
   -2.5390   -0.3460    1.6700 C   0  0  2  0  0  0  0  0  0  0  0  0
   -2.9990   -1.7510    1.8570 C   0  0  0  0  0  0  0  0  0  0  0  0
   -3.0600    0.5290    2.8280 C   0  0  0  0  0  0  0  0  0  0  0  0
  1  2  2  0
  2  3  1  0
  3  4  2  3
  6  3  1  6
  4  5  1  0
  6  7  1  0
  6 18  1  0
  7  8  2  0
  7  9  1  0
  9 10  1  0
 10 11  1  0
 11 12  1  0
 11 15  1  0
 12 13  1  0
 13 14  1  0
 15 16  1  0
 16 17  1  0
 18 19  1  6
 18 20  1  0
M  END
