
     RDKit          3D

 27 28  0  0  0  0  0  0  0  0999 V2000
   -7.4120   -1.0450   -0.3840 C   0  0  0  0  0  0  0  0  0  0  0  0
   -6.5530   -0.6650    0.7200 N   0  0  0  0  0  0  0  0  0  0  0  0
   -5.1640   -0.9080    0.5350 C   0  0  0  0  0  0  0  0  0  0  0  0
   -4.1640   -0.2480    1.1240 C   0  0  0  0  0  0  0  0  0  0  0  0
   -2.8910   -0.7400    0.7230 N   0  0  0  0  0  0  0  0  0  0  0  0
   -1.9660    0.1320    0.0780 C   0  0  0  0  0  0  0  0  0  0  0  0
   -2.3260    1.3120   -0.1080 O   0  0  0  0  0  0  0  0  0  0  0  0
   -0.7140   -0.2810   -0.3370 O   0  0  0  0  0  0  0  0  0  0  0  0
    0.2040    0.5910   -0.9790 C   0  0  0  0  0  0  0  0  0  0  0  0
    1.4440   -0.1560   -1.2930 C   0  0  0  0  0  0  0  0  0  0  0  0
    1.6890   -1.4490   -1.0270 N   0  0  0  0  0  0  0  0  0  0  0  0
    2.8810   -1.7540   -1.4470 O   0  0  0  0  0  0  0  0  0  0  0  0
    3.4310   -0.6960   -1.9850 C   0  0  0  0  0  0  0  0  0  0  0  0
    4.7910   -0.6620   -2.5740 C   0  0  0  0  0  0  0  0  0  0  0  0
    5.9850   -0.2000   -1.2350 P   0  0  0  0  0  0  0  0  0  0  0  0
    5.4610    1.2100   -0.3800 O   0  0  0  0  0  0  0  0  0  0  0  0
    7.5750    0.0280   -1.8320 O   0  0  0  0  0  0  0  0  0  0  0  0
    8.3490    0.6380   -0.8630 C   0  0  0  0  0  0  0  0  0  0  0  0
    8.4650   -0.0720    0.3140 O   0  0  0  0  0  0  0  0  0  0  0  0
    7.2880   -0.2490    0.8350 O   0  0  0  0  0  0  0  0  0  0  0  0
    7.3400   -0.6420    2.0750 O   0  0  0  0  0  0  0  0  0  0  0  0
    2.5510    0.3140   -1.9000 N   0  0  0  0  0  0  0  0  0  0  0  0
   -4.1770    0.8650    2.0860 C   0  0  0  0  0  0  0  0  0  0  0  0
   -5.1300    0.6920    3.1160 O   0  0  0  0  0  0  0  0  0  0  0  0
   -6.5090    0.4890    3.0150 C   0  0  0  0  0  0  0  0  0  0  0  0
   -7.2390    0.8300    3.9630 O   0  0  0  0  0  0  0  0  0  0  0  0
   -7.1360   -0.1010    1.8600 N   0  0  0  0  0  0  0  0  0  0  0  0
  1  2  1  0
  2  3  1  0
  2 27  1  0
  3  4  2  0
  4  5  1  0
  4 23  1  0
  5  6  1  0
  6  7  2  0
  6  8  1  0
  8  9  1  0
  9 10  1  0
 10 11  2  0
 10 22  1  0
 11 12  1  0
 12 13  1  0
 13 14  1  0
 13 22  2  0
 14 15  1  0
 15 16  1  0
 15 17  1  0
 17 18  1  0
 18 19  1  0
 19 20  1  0
 20 21  1  0
 23 24  1  0
 24 25  1  0
 25 26  2  0
 25 27  1  0
M  END
