
     RDKit          3D

 23 23  0  0  0  0  0  0  0  0999 V2000
    5.1540   -2.3810    0.4150 O   0  0  0  0  0  0  0  0  0  0  0  0
    4.5110   -2.4560   -0.6700 C   0  0  0  0  0  0  0  0  0  0  0  0
    4.7040   -3.6080   -1.4430 O   0  0  0  0  0  0  0  0  0  0  0  0
    3.6190   -1.3530   -1.0430 C   0  0  0  0  0  0  0  0  0  0  0  0
    2.5700   -1.0940    0.0460 C   0  0  0  0  0  0  0  0  0  0  0  0
    1.6780    0.0570   -0.3750 C   0  0  0  0  0  0  0  0  0  0  0  0
    0.6460    0.2720    0.7060 C   0  0  0  0  0  0  0  0  0  0  0  0
   -0.2750    1.3280    0.4510 N   0  0  2  0  0  0  0  0  0  0  0  0
   -1.3110    1.0100   -0.5100 C   0  0  0  0  0  0  0  0  0  0  0  0
   -1.9370   -0.3140   -0.2140 C   0  0  0  0  0  0  0  0  0  0  0  0
   -2.9760   -0.4380    0.6880 C   0  0  0  0  0  0  0  0  0  0  0  0
   -3.5730   -1.6460    0.9830 C   0  0  0  0  0  0  0  0  0  0  0  0
   -3.1430   -2.8050    0.3720 C   0  0  0  0  0  0  0  0  0  0  0  0
   -3.7380   -4.0780    0.6580 N   0  0  0  0  0  0  0  0  0  0  0  0
   -4.6620   -4.1860    1.4580 O   0  0  0  0  0  0  0  0  0  0  0  0
   -3.2800   -5.2120    0.0350 O   0  0  0  0  0  0  0  0  0  0  0  0
   -2.1070   -2.6860   -0.5280 C   0  0  0  0  0  0  0  0  0  0  0  0
   -1.5100   -1.4760   -0.8230 C   0  0  0  0  0  0  0  0  0  0  0  0
    0.4730    2.4820   -0.0130 C   0  0  0  0  0  0  0  0  0  0  0  0
   -0.5690    3.8580    0.1480 P   0  0  0  0  0  0  0  0  0  0  0  0
   -2.0330    3.6850    0.9290 O   0  0  0  0  0  0  0  0  0  0  0  0
   -0.2290    5.2790   -0.6510 O   0  0  0  0  0  0  0  0  0  0  0  0
    0.0110    4.4920    1.4190 O   0  0  0  0  0  0  0  0  0  0  0  0
  1  2  2  0
  2  3  1  0
  2  4  1  0
  4  5  1  0
  5  6  1  0
  6  7  1  0
  8  7  1  6
  8  9  1  0
  8 19  1  0
  9 10  1  0
 10 11  2  0
 10 18  1  0
 11 12  1  0
 12 13  2  0
 13 14  1  0
 13 17  1  0
 14 15  2  0
 14 16  1  0
 17 18  2  0
 19 20  1  0
 20 21  1  0
 20 22  1  0
 20 23  1  0
M  CHG  3   8   1  14   1  16  -1
M  END
