
     RDKit          3D

 27 30  0  0  0  0  0  0  0  0999 V2000
    3.7740    1.2570   -1.5240 O   0  0  0  0  0  0  0  0  0  0  0  0
    3.0310    0.3200   -1.2260 C   0  0  0  0  0  0  0  0  0  0  0  0
    1.8650   -0.1590   -1.7860 O   0  0  0  0  0  0  0  0  0  0  0  0
    1.0960   -0.6520   -0.6480 C   0  0  2  0  0  0  0  0  0  0  0  0
    0.2230    0.5100   -0.3230 C   0  0  0  0  0  0  0  0  0  0  0  0
    0.4630    1.8260   -0.5550 N   0  0  0  0  0  0  0  0  0  0  0  0
   -0.7090    2.5250   -0.3780 C   0  0  0  0  0  0  0  0  0  0  0  0
   -1.1030    3.8370   -0.4680 C   0  0  0  0  0  0  0  0  0  0  0  0
   -2.4450    4.1420   -0.2260 C   0  0  0  0  0  0  0  0  0  0  0  0
   -2.9060    5.4110   -0.3870 O   0  0  0  0  0  0  0  0  0  0  0  0
   -3.3080    3.1600    0.1320 N   0  0  0  0  0  0  0  0  0  0  0  0
   -2.9280    1.8950    0.2110 C   0  0  0  0  0  0  0  0  0  0  0  0
   -3.7410    0.8220    0.6100 N   0  0  0  0  0  0  0  0  0  0  0  0
   -3.2740   -0.4030    0.7350 C   0  0  0  0  0  0  0  0  0  0  0  0
   -1.8910   -0.6350    0.4320 N   0  0  0  0  0  0  0  0  0  0  0  0
   -1.3650   -1.9210    0.5710 C   0  0  0  0  0  0  0  0  0  0  0  0
   -1.9550   -2.8740   -0.4930 C   0  0  0  0  0  0  0  0  0  0  0  0
   -1.2220   -4.0250   -0.2600 O   0  0  0  0  0  0  0  0  0  0  0  0
   -1.9690   -5.0130    0.1250 O   0  0  0  0  0  0  0  0  0  0  0  0
   -1.1020    0.4260   -0.0060 C   0  0  0  0  0  0  0  0  0  0  0  0
   -1.6240    1.6440   -0.0650 N   0  0  0  0  0  0  0  0  0  0  0  0
    2.0100   -1.0290    0.2680 O   0  0  0  0  0  0  0  0  0  0  0  0
    3.2490   -0.5820   -0.0650 C   0  0  2  0  0  0  0  0  0  0  0  0
    3.7450    0.1090    1.0390 O   0  0  0  0  0  0  0  0  0  0  0  0
    4.9870   -0.2290    1.2380 O   0  0  0  0  0  0  0  0  0  0  0  0
    5.5240   -0.3320    0.0110 O   0  0  0  0  0  0  0  0  0  0  0  0
    6.5350   -1.1540   -0.0060 O   0  0  0  0  0  0  0  0  0  0  0  0
  1  2  2  0
  2  3  1  0
  2 23  1  0
  3  4  1  0
  4  5  1  1
  4 22  1  0
  5  6  1  0
  5 20  2  0
  6  7  2  0
  7  8  1  0
  7 21  1  0
  8  9  2  0
  9 10  1  0
  9 11  1  0
 11 12  2  0
 12 13  1  0
 12 21  1  0
 13 14  2  0
 14 15  1  0
 15 16  1  0
 15 20  1  0
 16 17  1  0
 17 18  1  0
 18 19  1  0
 20 21  1  0
 22 23  1  0
 23 24  1  1
 24 25  1  0
 25 26  1  0
 26 27  1  0
M  END
