
     RDKit          3D

 20 20  0  0  0  0  0  0  0  0999 V2000
   -3.8020   -2.3690   -2.8030 C   0  0  0  0  0  0  0  0  0  0  0  0
   -3.5340   -1.3060   -1.7800 C   0  0  0  0  0  0  0  0  0  0  0  0
   -2.3140   -1.0230   -1.3880 C   0  0  0  0  0  0  0  0  0  0  0  0
   -2.0310    0.0020   -0.4000 C   0  0  0  0  0  0  0  0  0  0  0  0
   -3.0370    0.7590    0.1480 C   0  0  0  0  0  0  0  0  0  0  0  0
   -2.8260    1.7730    1.0880 C   0  0  0  0  0  0  0  0  0  0  0  0
   -3.9530    2.5640    1.6500 C   0  0  0  0  0  0  0  0  0  0  0  0
   -4.1900    3.7010    0.8540 O   0  0  0  0  0  0  0  0  0  0  0  0
   -1.5180    1.9830    1.4510 C   0  0  0  0  0  0  0  0  0  0  0  0
   -0.4990    1.2310    0.9110 C   0  0  0  0  0  0  0  0  0  0  0  0
   -0.7260    0.2350   -0.0140 C   0  0  0  0  0  0  0  0  0  0  0  0
    0.4410   -0.5530   -0.5170 C   0  0  2  0  0  0  0  0  0  0  0  0
    0.1630   -1.8900   -0.4420 O   0  0  0  0  0  0  0  0  0  0  0  0
    1.9310   -0.0410    0.4160 P   0  0  0  0  0  0  0  0  0  0  0  0
    3.3270   -0.2870   -0.5760 O   0  0  0  0  0  0  0  0  0  0  0  0
    3.2960    0.6820   -1.5810 C   0  0  0  0  0  0  0  0  0  0  0  0
    4.5320    0.4600   -2.4550 C   0  0  0  0  0  0  0  0  0  0  0  0
    2.0790   -0.7840    1.9550 O   0  0  0  0  0  0  0  0  0  0  0  0
    3.4280   -0.9050    2.2810 C   0  0  0  0  0  0  0  0  0  0  0  0
    3.5500   -1.5580    3.6340 C   0  0  0  0  0  0  0  0  0  0  0  0
  1  2  1  0
  2  3  2  3
  3  4  1  0
  4  5  2  0
  4 11  1  0
  5  6  1  0
  6  7  1  0
  6  9  2  0
  7  8  1  0
  9 10  1  0
 10 11  2  0
 11 12  1  0
 12 13  1  1
 12 14  1  0
 14 15  1  0
 14 18  1  0
 15 16  1  0
 16 17  1  0
 18 19  1  0
 19 20  1  0
M  END
