
     RDKit          3D

 27 28  0  0  0  0  0  0  0  0999 V2000
    3.4070    3.4090    1.6700 O   0  0  0  0  0  0  0  0  0  0  0  0
    2.4740    3.5230    0.8280 C   0  0  0  0  0  0  0  0  0  0  0  0
    1.6020    4.5920    0.9330 O   0  0  0  0  0  0  0  0  0  0  0  0
    2.3890    2.5530   -0.1580 O   0  0  0  0  0  0  0  0  0  0  0  0
    3.3380    1.5090   -0.1600 C   0  0  0  0  0  0  0  0  0  0  0  0
    3.1080    0.4130    0.5000 C   0  0  0  0  0  0  0  0  0  0  0  0
    3.8720   -0.7370    0.6490 N   0  0  0  0  0  0  0  0  0  0  0  0
    4.6790   -1.4100   -0.2880 C   0  0  0  0  0  0  0  0  0  0  0  0
    5.9530   -0.7100   -0.6050 C   0  0  0  0  0  0  0  0  0  0  0  0
    6.6420   -1.5180   -1.5420 O   0  0  0  0  0  0  0  0  0  0  0  0
    7.7650   -0.9380   -1.8430 O   0  0  0  0  0  0  0  0  0  0  0  0
    1.8250    0.3600    1.2230 N   0  0  0  0  0  0  0  0  0  0  0  0
    0.7140   -0.1200    0.5050 C   0  0  0  0  0  0  0  0  0  0  0  0
   -0.5690   -0.2700    0.9460 N   0  0  0  0  0  0  0  0  0  0  0  0
   -1.3430   -0.7610   -0.0450 C   0  0  0  0  0  0  0  0  0  0  0  0
   -2.7790   -1.0760    0.0210 C   0  0  2  0  0  0  0  0  0  0  0  0
   -3.1190   -2.2600   -0.5820 O   0  0  0  0  0  0  0  0  0  0  0  0
   -4.3790   -2.6670   -0.2440 C   0  0  0  0  0  0  0  0  0  0  0  0
   -5.3250   -1.6180    0.2290 C   0  0  0  0  0  0  0  0  0  0  0  0
   -5.0570   -0.2960   -0.3710 N   0  0  0  0  0  0  0  0  0  0  0  0
   -6.0840    0.6150   -0.7560 C   0  0  0  0  0  0  0  0  0  0  0  0
   -6.4550    1.4910    0.2750 O   0  0  0  0  0  0  0  0  0  0  0  0
   -5.3650    2.1830    0.6120 O   0  0  0  0  0  0  0  0  0  0  0  0
   -3.6670   -0.0230   -0.5220 C   0  0  0  0  0  0  0  0  0  0  0  0
   -3.2870    1.0290   -1.0730 O   0  0  0  0  0  0  0  0  0  0  0  0
   -0.5060   -0.9040   -1.0890 N   0  0  0  0  0  0  0  0  0  0  0  0
    0.6780   -0.5240   -0.7380 O   0  0  0  0  0  0  0  0  0  0  0  0
  1  2  2  0
  2  3  1  0
  2  4  1  0
  4  5  1  0
  5  6  2  3
  6  7  1  0
  6 12  1  0
  7  8  1  0
  8  9  1  0
  9 10  1  0
 10 11  1  0
 12 13  1  0
 13 14  2  0
 13 27  1  0
 14 15  1  0
 16 15  1  6
 15 26  2  0
 16 17  1  0
 16 24  1  0
 17 18  1  0
 18 19  1  0
 19 20  1  0
 20 21  1  0
 20 24  1  0
 21 22  1  0
 22 23  1  0
 24 25  2  0
 26 27  1  0
M  END
