
     RDKit          3D

 40 42  0  0  0  0  0  0  0  0999 V2000
   10.0130    1.2090   -1.0000 C   0  0  0  0  0  0  0  0  0  0  0  0
    8.8970    1.4390   -1.8640 O   0  0  0  0  0  0  0  0  0  0  0  0
    7.6910    0.8680   -1.5060 C   0  0  0  0  0  0  0  0  0  0  0  0
    6.8060    1.5510   -0.7090 C   0  0  0  0  0  0  0  0  0  0  0  0
    7.1080    2.7890   -0.2670 F   0  0  0  0  0  0  0  0  0  0  0  0
    5.5900    0.9690   -0.3520 C   0  0  0  0  0  0  0  0  0  0  0  0
    4.8020    1.7340    0.4350 F   0  0  0  0  0  0  0  0  0  0  0  0
    5.2490   -0.2860   -0.7820 C   0  0  0  0  0  0  0  0  0  0  0  0
    3.9930   -0.9120   -0.4240 C   0  0  0  0  0  0  0  0  0  0  0  0
    3.7580   -2.1020   -0.8800 O   0  0  0  0  0  0  0  0  0  0  0  0
    2.9940   -0.3500    0.3790 N   0  0  0  0  0  0  0  0  0  0  0  0
    1.7620   -1.0570    0.6860 C   0  0  2  0  0  0  0  0  0  0  0  0
    0.6030   -0.2840    0.0950 C   0  0  1  0  0  0  0  0  0  0  0  0
    0.7880   -0.3210   -1.2850 O   0  0  0  0  0  0  0  0  0  0  0  0
   -0.7260   -0.9180    0.3980 C   0  0  2  0  0  0  0  0  0  0  0  0
   -1.6130    0.1030    0.6620 O   0  0  0  0  0  0  0  0  0  0  0  0
   -2.6790    0.2690   -0.1300 C   0  0  2  0  0  0  0  0  0  0  0  0
   -2.8170    1.6060   -0.8140 C   0  0  1  0  0  0  0  0  0  0  0  0
   -1.5440    2.1800   -1.3360 C   0  0  0  0  0  0  0  0  0  0  0  0
   -1.8640    3.4000   -1.9380 O   0  0  0  0  0  0  0  0  0  0  0  0
   -3.6980    1.4210   -1.8890 O   0  0  0  0  0  0  0  0  0  0  0  0
   -4.9860    1.1560   -1.5010 C   0  0  1  0  0  0  0  0  0  0  0  0
   -5.7170    0.8500   -2.6490 O   0  0  0  0  0  0  0  0  0  0  0  0
   -5.0150   -0.0710   -0.6230 C   0  0  2  0  0  0  0  0  0  0  0  0
   -6.3140   -0.3490   -0.0770 N   0  0  0  0  0  0  0  0  0  0  0  0
   -7.0070   -1.5570   -0.3580 C   0  0  0  0  0  0  0  0  0  0  0  0
   -8.3510   -1.8770    0.1890 C   0  0  0  0  0  0  0  0  0  0  0  0
   -6.4580   -2.4020   -1.1080 O   0  0  0  0  0  0  0  0  0  0  0  0
   -4.0250    0.0320    0.5220 C   0  0  1  0  0  0  0  0  0  0  0  0
   -4.0770   -1.1810    1.1970 O   0  0  0  0  0  0  0  0  0  0  0  0
   -0.6580   -1.8480    1.4250 O   0  0  0  0  0  0  0  0  0  0  0  0
    0.0980   -1.4880    2.5030 C   0  0  2  0  0  0  0  0  0  0  0  0
   -0.5460   -0.3400    3.2800 C   0  0  0  0  0  0  0  0  0  0  0  0
   -1.7980   -0.7790    3.7120 O   0  0  0  0  0  0  0  0  0  0  0  0
    1.5380   -1.1930    2.1620 C   0  0  2  0  0  0  0  0  0  0  0  0
    1.8560    0.0360    2.7530 O   0  0  0  0  0  0  0  0  0  0  0  0
    6.1570   -0.9740   -1.5940 C   0  0  0  0  0  0  0  0  0  0  0  0
    5.8350   -2.2220   -2.0290 F   0  0  0  0  0  0  0  0  0  0  0  0
    7.3480   -0.3920   -1.9380 C   0  0  0  0  0  0  0  0  0  0  0  0
    8.2240   -1.0780   -2.7320 F   0  0  0  0  0  0  0  0  0  0  0  0
  1  2  1  0
  2  3  1  0
  3  4  2  0
  3 39  1  0
  4  5  1  0
  4  6  1  0
  6  7  1  0
  6  8  2  0
  8  9  1  0
  8 37  1  0
  9 10  2  0
  9 11  1  0
 12 11  1  1
 12 13  1  0
 12 35  1  0
 13 14  1  6
 13 15  1  0
 15 16  1  1
 15 31  1  0
 17 16  1  1
 17 18  1  0
 17 29  1  0
 18 19  1  6
 18 21  1  0
 19 20  1  0
 21 22  1  0
 22 23  1  6
 22 24  1  0
 24 25  1  1
 24 29  1  0
 25 26  1  0
 26 27  1  0
 26 28  2  0
 29 30  1  6
 31 32  1  0
 32 33  1  6
 32 35  1  0
 33 34  1  0
 35 36  1  1
 37 38  1  0
 37 39  2  0
 39 40  1  0
M  END
