
     RDKit          3D

 40 42  0  0  0  0  0  0  0  0999 V2000
    1.6960   -2.5670    4.5850 C   0  0  0  0  0  0  0  0  0  0  0  0
    2.2850   -1.4660    4.1400 C   0  0  0  0  0  0  0  0  0  0  0  0
    1.5860   -0.1620    4.2180 C   0  0  0  0  0  0  0  0  0  0  0  0
    1.3960    0.4300    2.8930 N   0  0  0  0  0  0  0  0  0  0  0  0
    0.6480   -0.2520    1.9110 C   0  0  0  0  0  0  0  0  0  0  0  0
    0.1290   -1.3910    2.1920 O   0  0  0  0  0  0  0  0  0  0  0  0
    0.4220    0.2650    0.6050 C   0  0  0  0  0  0  0  0  0  0  0  0
    1.4130    0.7440   -0.2050 C   0  0  0  0  0  0  0  0  0  0  0  0
    2.8530    0.6510    0.0410 C   0  0  1  0  0  0  0  0  0  0  0  0
    3.2900   -0.6330    0.5740 C   0  0  0  0  0  0  0  0  0  0  0  0
    4.4260   -0.9760    0.0080 C   0  0  0  0  0  0  0  0  0  0  0  0
    4.8780    0.0350   -0.9680 C   0  0  2  0  0  0  0  0  0  0  0  0
    5.0000   -0.7170   -2.2970 C   0  0  0  0  0  0  0  0  0  0  0  0
    6.2330    0.6070   -0.5990 C   0  0  0  0  0  0  0  0  0  0  0  0
    6.7100    1.6290   -1.5880 C   0  0  0  0  0  0  0  0  0  0  0  0
    8.0900    2.1210   -1.1270 C   0  0  0  0  0  0  0  0  0  0  0  0
    3.7820    1.0610   -0.9910 C   0  0  0  0  0  0  0  0  0  0  0  0
    0.9890    1.3000   -1.3890 C   0  0  0  0  0  0  0  0  0  0  0  0
   -0.3010    1.3910   -1.7830 C   0  0  0  0  0  0  0  0  0  0  0  0
   -1.3080    0.9030   -0.9620 C   0  0  0  0  0  0  0  0  0  0  0  0
   -2.7040    1.1080   -1.3490 C   0  0  0  0  0  0  0  0  0  0  0  0
   -3.6620    0.8510   -0.6080 O   0  0  0  0  0  0  0  0  0  0  0  0
   -3.0320    1.6160   -2.6050 O   0  0  0  0  0  0  0  0  0  0  0  0
   -4.3480    1.8360   -3.0400 C   0  0  1  0  0  0  0  0  0  0  0  0
   -4.5400    3.3320   -3.1920 C   0  0  0  0  0  0  0  0  0  0  0  0
   -4.6940    1.1230   -4.2720 C   0  0  0  0  0  0  0  0  0  0  0  0
   -5.9850    1.2520   -4.8260 N   0  0  0  0  0  0  0  0  0  0  0  0
   -3.8500    0.3980   -4.8410 O   0  0  0  0  0  0  0  0  0  0  0  0
   -0.9470    0.3410    0.2230 C   0  0  0  0  0  0  0  0  0  0  0  0
   -1.9210   -0.2100    1.1600 C   0  0  0  0  0  0  0  0  0  0  0  0
   -1.9420    0.1450    2.3860 O   0  0  0  0  0  0  0  0  0  0  0  0
   -2.9080   -1.1720    0.8330 N   0  0  0  0  0  0  0  0  0  0  0  0
   -3.8690   -1.6860    1.8250 C   0  0  2  0  0  0  0  0  0  0  0  0
   -3.7120   -3.1710    1.7700 C   0  0  0  0  0  0  0  0  0  0  0  0
   -5.3780   -3.7640    1.8930 S   0  0  2  0  0  0  0  0  0  0  0  0
   -5.6050   -4.5430    3.1360 O   0  0  0  0  0  0  0  0  0  0  0  0
   -5.7000   -4.5480    0.6660 O   0  0  0  0  0  0  0  0  0  0  0  0
   -6.2580   -2.2090    1.9000 C   0  0  0  0  0  0  0  0  0  0  0  0
   -5.2160   -1.2910    1.3230 C   0  0  1  0  0  0  0  0  0  0  0  0
   -5.4850   -0.0090    1.8580 O   0  0  0  0  0  0  0  0  0  0  0  0
  1  2  2  0
  2  3  1  0
  3  4  1  0
  4  5  1  0
  5  6  2  0
  5  7  1  0
  7  8  2  0
  7 29  1  0
  9  8  1  6
  8 18  1  0
  9 10  1  0
  9 17  1  0
 10 11  2  0
 11 12  1  0
 12 13  1  6
 12 14  1  0
 12 17  1  0
 14 15  1  0
 15 16  1  0
 18 19  2  0
 19 20  1  0
 20 21  1  0
 20 29  2  0
 21 22  2  0
 21 23  1  0
 23 24  1  0
 24 25  1  6
 24 26  1  0
 26 27  1  0
 26 28  2  0
 29 30  1  0
 30 31  2  0
 30 32  1  0
 33 32  1  6
 33 34  1  0
 33 39  1  0
 35 34  1  6
 35 36  2  0
 35 37  2  0
 35 38  1  0
 38 39  1  0
 39 40  1  1
M  END
