
     RDKit          3D

 40 42  0  0  0  0  0  0  0  0999 V2000
   -2.7190    9.2350    0.0600 C   0  0  0  0  0  0  0  0  0  0  0  0
   -1.5000    8.5250    0.2430 O   0  0  0  0  0  0  0  0  0  0  0  0
   -1.3690    7.1890   -0.1060 C   0  0  0  0  0  0  0  0  0  0  0  0
   -2.3730    6.6150   -0.5950 O   0  0  0  0  0  0  0  0  0  0  0  0
   -0.0690    6.5140    0.1130 C   0  0  0  0  0  0  0  0  0  0  0  0
   -0.1760    4.7780   -0.4300 S   0  0  0  0  0  0  0  0  0  0  0  0
   -1.3340    3.9420    0.6720 C   0  0  2  0  0  0  0  0  0  0  0  0
   -0.7390    3.8940    2.0650 C   0  0  0  0  0  0  0  0  0  0  0  0
   -1.5590    2.5700    0.2010 C   0  0  0  0  0  0  0  0  0  0  0  0
   -2.7120    2.2000   -0.1160 O   0  0  0  0  0  0  0  0  0  0  0  0
   -0.5110    1.6890    0.1060 O   0  0  0  0  0  0  0  0  0  0  0  0
   -0.6640    0.3730   -0.3350 C   0  0  2  0  0  0  0  0  0  0  0  0
   -1.2160    0.3490   -1.7450 C   0  0  0  0  0  0  0  0  0  0  0  0
   -1.5530   -0.3480    0.6030 C   0  0  0  0  0  0  0  0  0  0  0  0
   -2.0070    0.2400    1.6040 O   0  0  0  0  0  0  0  0  0  0  0  0
   -1.8770   -1.7040    0.3440 N   0  0  0  0  0  0  0  0  0  0  0  0
   -2.7430   -2.4690    1.2230 C   0  0  0  0  0  0  0  0  0  0  0  0
   -4.1030   -1.8070    1.2860 C   0  0  2  0  0  0  0  0  0  0  0  0
   -5.0290   -2.7100    2.0920 C   0  0  0  0  0  0  0  0  0  0  0  0
   -5.0340   -3.9850    1.4940 O   0  0  0  0  0  0  0  0  0  0  0  0
   -5.0540   -4.1280    0.1050 C   0  0  0  0  0  0  0  0  0  0  0  0
   -5.2670   -5.3360   -0.5230 C   0  0  0  0  0  0  0  0  0  0  0  0
   -5.2840   -5.4600   -1.8990 C   0  0  0  0  0  0  0  0  0  0  0  0
   -5.0820   -4.3370   -2.6520 C   0  0  0  0  0  0  0  0  0  0  0  0
   -4.8710   -3.1340   -2.0400 C   0  0  0  0  0  0  0  0  0  0  0  0
   -4.8500   -2.9930   -0.6590 C   0  0  0  0  0  0  0  0  0  0  0  0
   -4.6370   -1.7780   -0.0310 O   0  0  0  0  0  0  0  0  0  0  0  0
    0.6740   -0.3340   -0.3280 C   0  0  0  0  0  0  0  0  0  0  0  0
    0.7440   -1.5280   -0.6980 O   0  0  0  0  0  0  0  0  0  0  0  0
    1.7860    0.4020    0.1030 N   0  0  0  0  0  0  0  0  0  0  0  0
    3.0930   -0.0990    0.1650 C   0  0  0  0  0  0  0  0  0  0  0  0
    4.0650    0.6520    0.8270 C   0  0  0  0  0  0  0  0  0  0  0  0
    5.3630    0.2210    0.9080 C   0  0  0  0  0  0  0  0  0  0  0  0
    5.7450   -0.9660    0.3390 C   0  0  0  0  0  0  0  0  0  0  0  0
    4.8270   -1.7380   -0.3220 C   0  0  0  0  0  0  0  0  0  0  0  0
    5.1860   -2.9700   -0.9250 N   0  0  0  0  0  0  0  0  0  0  0  0
    6.5220   -3.5190   -0.9000 C   0  0  2  0  0  0  0  0  0  0  0  0
    7.0130   -3.7800    0.4940 C   0  0  0  0  0  0  0  0  0  0  0  0
    7.4620   -2.5860   -1.6260 C   0  0  0  0  0  0  0  0  0  0  0  0
    3.5010   -1.2780   -0.3940 C   0  0  0  0  0  0  0  0  0  0  0  0
  1  2  1  0
  2  3  1  0
  3  4  2  0
  3  5  1  0
  5  6  1  0
  6  7  1  0
  7  8  1  1
  7  9  1  0
  9 10  2  0
  9 11  1  0
 11 12  1  0
 12 13  1  6
 12 14  1  0
 12 28  1  0
 14 15  2  0
 14 16  1  0
 16 17  1  0
 18 17  1  6
 18 19  1  0
 18 27  1  0
 19 20  1  0
 20 21  1  0
 21 22  2  0
 21 26  1  0
 22 23  1  0
 23 24  2  0
 24 25  1  0
 25 26  2  0
 26 27  1  0
 28 29  2  0
 28 30  1  0
 30 31  1  0
 31 32  2  0
 31 40  1  0
 32 33  1  0
 33 34  2  0
 34 35  1  0
 35 36  1  0
 35 40  2  0
 36 37  1  0
 37 38  1  1
 37 39  1  0
M  END
