
     RDKit          3D

 40 43  0  0  0  0  0  0  0  0999 V2000
   -3.1780   -3.2780    0.4290 C   0  0  0  0  0  0  0  0  0  0  0  0
   -3.5140   -1.9090    0.4750 O   0  0  0  0  0  0  0  0  0  0  0  0
   -2.5660   -0.9410    0.7620 C   0  0  0  0  0  0  0  0  0  0  0  0
   -1.2650   -1.3150    1.0090 C   0  0  0  0  0  0  0  0  0  0  0  0
   -0.2920   -0.3910    1.2970 C   0  0  0  0  0  0  0  0  0  0  0  0
   -0.5690    0.9600    1.3540 C   0  0  0  0  0  0  0  0  0  0  0  0
    0.5370    2.2510    1.7020 S   0  0  0  0  0  0  0  0  0  0  0  0
    1.2540    3.2070    0.4270 C   0  0  0  0  0  0  0  0  0  0  0  0
    2.2270    2.5200   -0.4390 C   0  0  2  0  0  0  0  0  0  0  0  0
    1.7490    1.3630   -1.2490 C   0  0  0  0  0  0  0  0  0  0  0  0
    3.0230    0.5810   -1.4350 C   0  0  0  0  0  0  0  0  0  0  0  0
    3.4300   -0.3090   -2.3950 C   0  0  0  0  0  0  0  0  0  0  0  0
    4.6770   -0.8670   -2.2960 C   0  0  0  0  0  0  0  0  0  0  0  0
    5.5450   -0.5490   -1.2370 C   0  0  0  0  0  0  0  0  0  0  0  0
    6.8460   -1.1580   -1.2410 C   0  0  0  0  0  0  0  0  0  0  0  0
    6.9940   -2.1640   -2.0480 O   0  0  0  0  0  0  0  0  0  0  0  0
    8.0190   -0.7840   -0.4550 C   0  0  0  0  0  0  0  0  0  0  0  0
    9.2090   -1.7100   -0.7800 C   0  0  2  0  0  0  0  0  0  0  0  0
   10.3590   -1.2380    0.0810 C   0  0  0  0  0  0  0  0  0  0  0  0
    9.5270   -1.6820   -2.1180 O   0  0  0  0  0  0  0  0  0  0  0  0
    5.0960    0.3450   -0.3000 C   0  0  0  0  0  0  0  0  0  0  0  0
    5.9220    0.7300    0.8790 C   0  0  0  0  0  0  0  0  0  0  0  0
    3.8280    0.9260   -0.3830 C   0  0  0  0  0  0  0  0  0  0  0  0
    3.1660    1.8450    0.4360 O   0  0  0  0  0  0  0  0  0  0  0  0
   -1.9180    1.3070    1.0950 C   0  0  0  0  0  0  0  0  0  0  0  0
   -2.8980    0.4210    0.8090 C   0  0  0  0  0  0  0  0  0  0  0  0
   -4.2440    0.7270    0.5460 N   0  0  0  0  0  0  0  0  0  0  0  0
   -4.8680    1.9990    0.5500 C   0  0  0  0  0  0  0  0  0  0  0  0
   -4.1740    3.0000    0.8170 O   0  0  0  0  0  0  0  0  0  0  0  0
   -6.3310    2.1590    0.2430 C   0  0  0  0  0  0  0  0  0  0  0  0
   -6.8740    0.8500   -0.0360 N   0  0  0  0  0  0  0  0  0  0  0  0
   -6.9610    0.2030   -1.2880 C   0  0  0  0  0  0  0  0  0  0  0  0
   -6.3610    0.6210   -2.3320 O   0  0  0  0  0  0  0  0  0  0  0  0
   -7.8340   -0.9910   -1.1680 C   0  0  0  0  0  0  0  0  0  0  0  0
   -8.3700   -0.9490    0.2330 C   0  0  2  0  0  0  0  0  0  0  0  0
   -9.6970   -0.2840    0.2890 C   0  0  0  0  0  0  0  0  0  0  0  0
  -10.3900   -0.1380    1.5080 N   0  0  0  0  0  0  0  0  0  0  0  0
  -10.1990    0.1490   -0.7680 O   0  0  0  0  0  0  0  0  0  0  0  0
   -7.4250   -0.0180    0.9520 C   0  0  0  0  0  0  0  0  0  0  0  0
   -7.1990   -0.0380    2.1720 O   0  0  0  0  0  0  0  0  0  0  0  0
  1  2  1  0
  2  3  1  0
  3  4  2  0
  3 26  1  0
  4  5  1  0
  5  6  2  0
  6  7  1  0
  6 25  1  0
  7  8  1  0
  9  8  1  1
  9 10  1  0
  9 24  1  0
 10 11  1  0
 11 12  2  0
 11 23  1  0
 12 13  1  0
 13 14  2  0
 14 15  1  0
 14 21  1  0
 15 16  2  0
 15 17  1  0
 17 18  1  0
 18 19  1  1
 18 20  1  0
 21 22  1  0
 21 23  2  0
 23 24  1  0
 25 26  2  0
 26 27  1  0
 27 28  1  0
 28 29  2  0
 28 30  1  0
 30 31  1  0
 31 32  1  0
 31 39  1  0
 32 33  2  0
 32 34  1  0
 34 35  1  0
 35 36  1  6
 35 39  1  0
 36 37  1  0
 36 38  2  0
 39 40  2  0
M  END
