
     RDKit          3D

 40 43  0  0  0  0  0  0  0  0999 V2000
   10.2950   -1.6970   -1.8790 C   0  0  0  0  0  0  0  0  0  0  0  0
    8.9800   -1.0720   -1.5990 C   0  0  0  0  0  0  0  0  0  0  0  0
    7.4270   -1.7180   -2.2890 S   0  0  0  0  0  0  0  0  0  0  0  0
    6.3820   -0.5620   -1.6260 C   0  0  0  0  0  0  0  0  0  0  0  0
    4.9090   -0.4300   -1.7570 C   0  0  0  0  0  0  0  0  0  0  0  0
    4.3490   -1.2760   -2.4550 O   0  0  0  0  0  0  0  0  0  0  0  0
    4.1820    0.5920   -1.1290 N   0  0  0  0  0  0  0  0  0  0  0  0
    2.7930    0.8000   -1.1940 C   0  0  0  0  0  0  0  0  0  0  0  0
    1.8990   -0.0230   -1.8090 C   0  0  0  0  0  0  0  0  0  0  0  0
    0.5270    0.3100   -1.8230 C   0  0  0  0  0  0  0  0  0  0  0  0
    0.0320    1.4220   -1.2490 C   0  0  0  0  0  0  0  0  0  0  0  0
   -1.3330    1.7700   -1.2580 N   0  0  0  0  0  0  0  0  0  0  0  0
   -2.4180    0.9350   -1.6040 C   0  0  0  0  0  0  0  0  0  0  0  0
   -2.2250   -0.2440   -1.9290 O   0  0  0  0  0  0  0  0  0  0  0  0
   -3.7970    1.4750   -1.5810 C   0  0  0  0  0  0  0  0  0  0  0  0
   -4.8520    0.4980   -1.9790 C   0  0  0  0  0  0  0  0  0  0  0  0
   -4.8840   -0.6680   -1.0560 C   0  0  0  0  0  0  0  0  0  0  0  0
   -4.4120   -1.7750   -1.4360 O   0  0  0  0  0  0  0  0  0  0  0  0
   -5.4370   -0.4730    0.1790 O   0  0  0  0  0  0  0  0  0  0  0  0
   -5.5400   -1.5070    1.1240 C   0  0  1  0  0  0  0  0  0  0  0  0
   -4.6590   -1.2150    2.3260 C   0  0  0  0  0  0  0  0  0  0  0  0
   -6.9540   -1.6060    1.6220 C   0  0  0  0  0  0  0  0  0  0  0  0
   -7.2640   -2.4850    2.4570 O   0  0  0  0  0  0  0  0  0  0  0  0
   -7.9190   -0.7390    1.1750 O   0  0  0  0  0  0  0  0  0  0  0  0
   -9.2470   -0.7710    1.5990 C   0  0  1  0  0  0  0  0  0  0  0  0
   -9.7160    0.5430    2.1540 C   0  0  0  0  0  0  0  0  0  0  0  0
  -11.2140    0.4880    1.9890 C   0  0  0  0  0  0  0  0  0  0  0  0
  -11.5110   -0.5690    0.9690 C   0  0  2  0  0  0  0  0  0  0  0  0
  -12.1370   -1.6760    1.5590 O   0  0  0  0  0  0  0  0  0  0  0  0
  -10.1730   -0.9820    0.4040 C   0  0  0  0  0  0  0  0  0  0  0  0
    0.9490    2.2730   -0.6110 C   0  0  0  0  0  0  0  0  0  0  0  0
    2.2740    1.9520   -0.5980 C   0  0  0  0  0  0  0  0  0  0  0  0
    7.2280    0.2950   -0.8900 C   0  0  0  0  0  0  0  0  0  0  0  0
    8.5410   -0.0150   -0.9120 C   0  0  0  0  0  0  0  0  0  0  0  0
    9.4940    0.8220   -0.1080 C   0  0  0  0  0  0  0  0  0  0  0  0
    9.2240    2.0200    0.1160 O   0  0  0  0  0  0  0  0  0  0  0  0
   10.6920    0.3110    0.4190 N   0  0  0  0  0  0  0  0  0  0  0  0
   11.6150    1.1480    1.1960 C   0  0  2  0  0  0  0  0  0  0  0  0
   13.0330    0.7680    1.1720 C   0  0  0  0  0  0  0  0  0  0  0  0
   12.2220    0.4590    2.3920 C   0  0  0  0  0  0  0  0  0  0  0  0
  1  2  1  0
  2  3  1  0
  2 34  2  0
  3  4  1  0
  4  5  1  0
  4 33  2  0
  5  6  2  0
  5  7  1  0
  7  8  1  0
  8  9  2  0
  8 32  1  0
  9 10  1  0
 10 11  2  0
 11 12  1  0
 11 31  1  0
 12 13  1  0
 13 14  2  0
 13 15  1  0
 15 16  1  0
 16 17  1  0
 17 18  2  0
 17 19  1  0
 19 20  1  0
 20 21  1  1
 20 22  1  0
 22 23  2  0
 22 24  1  0
 25 24  1  6
 25 26  1  0
 25 30  1  0
 26 27  1  0
 27 28  1  0
 28 29  1  1
 28 30  1  0
 31 32  2  0
 33 34  1  0
 34 35  1  0
 35 36  2  0
 35 37  1  0
 38 37  1  6
 38 39  1  0
 38 40  1  0
 39 40  1  0
M  END
