
     RDKit          3D

 39 45  0  0  0  0  0  0  0  0999 V2000
   -0.0140    2.3760    1.1210 C   0  0  0  0  0  0  0  0  0  0  0  0
    0.0260    0.8950    1.0670 C   0  0  0  0  0  0  0  0  0  0  0  0
    1.1090    0.2440    1.3530 C   0  0  0  0  0  0  0  0  0  0  0  0
    2.3810    0.8290    1.7470 C   0  0  0  0  0  0  0  0  0  0  0  0
    3.4250    0.4550    0.7780 N   0  0  0  0  0  0  0  0  0  0  0  0
    4.2050   -0.6360    0.8550 C   0  0  0  0  0  0  0  0  0  0  0  0
    5.0440   -0.6200   -0.2380 C   0  0  0  0  0  0  0  0  0  0  0  0
    6.0090   -1.5520   -0.5690 N   0  0  0  0  0  0  0  0  0  0  0  0
    7.2190   -1.6770   -0.3100 C   0  0  0  0  0  0  0  0  0  0  0  0
    7.9710   -2.8240   -0.8400 C   0  0  0  0  0  0  0  0  0  0  0  0
    7.3970   -3.6880   -1.5600 O   0  0  0  0  0  0  0  0  0  0  0  0
    9.3510   -2.9140   -0.5110 N   0  0  0  0  0  0  0  0  0  0  0  0
    9.9440   -2.0620    0.2060 N   0  0  0  0  0  0  0  0  0  0  0  0
    9.3170   -0.9140    0.7720 C   0  0  0  0  0  0  0  0  0  0  0  0
    9.7180    0.0990    1.5390 N   0  0  0  0  0  0  0  0  0  0  0  0
    8.7230    0.9170    1.7890 N   0  0  0  0  0  0  0  0  0  0  0  0
    7.6240    0.4300    1.1650 C   0  0  0  0  0  0  0  0  0  0  0  0
    7.9490   -0.7260    0.5090 C   0  0  0  0  0  0  0  0  0  0  0  0
    4.7220    0.5150   -0.9460 C   0  0  0  0  0  0  0  0  0  0  0  0
    3.7350    1.1390   -0.2960 N   0  0  0  0  0  0  0  0  0  0  0  0
   -1.2050    0.1550    0.6530 C   0  0  0  0  0  0  0  0  0  0  0  0
   -2.3820    0.6540    0.3470 C   0  0  0  0  0  0  0  0  0  0  0  0
   -3.0810    1.9010    0.2250 N   0  0  0  0  0  0  0  0  0  0  0  0
   -4.4390    1.5840   -0.0640 C   0  0  0  0  0  0  0  0  0  0  0  0
   -5.5460    2.3820   -0.2820 C   0  0  0  0  0  0  0  0  0  0  0  0
   -6.7730    1.7660   -0.5500 C   0  0  0  0  0  0  0  0  0  0  0  0
   -6.9440    0.4210   -0.6100 C   0  0  0  0  0  0  0  0  0  0  0  0
   -5.8140   -0.3700   -0.3870 C   0  0  0  0  0  0  0  0  0  0  0  0
   -4.6020    0.2250   -0.1220 C   0  0  0  0  0  0  0  0  0  0  0  0
   -3.3220   -0.3910    0.1360 N   0  0  0  0  0  0  0  0  0  0  0  0
   -2.6560   -1.6620    0.3220 C   0  0  0  0  0  0  0  0  0  0  0  0
   -1.2160   -1.3070    0.3620 C   0  0  1  0  0  0  0  0  0  0  0  0
   -0.4730   -1.5880   -0.8990 C   0  0  0  0  0  0  0  0  0  0  0  0
   -0.9250   -2.1370   -1.9850 C   0  0  0  0  0  0  0  0  0  0  0  0
   -0.0120   -2.3380   -3.1600 C   0  0  0  0  0  0  0  0  0  0  0  0
    1.5960   -1.7200   -2.7310 Cl  0  0  0  0  0  0  0  0  0  0  0  0
   -8.3550    0.0990   -0.9120 C   0  0  0  0  0  0  0  0  0  0  0  0
   -9.0940    1.3990   -0.7070 C   0  0  0  0  0  0  0  0  0  0  0  0
   -8.0660    2.4800   -0.8090 C   0  0  0  0  0  0  0  0  0  0  0  0
  1  2  1  0
  2  3  2  3
  2 21  1  0
  3  4  1  0
  4  5  1  0
  5  6  1  0
  5 20  1  0
  6  7  2  0
  7  8  1  0
  7 19  1  0
  8  9  2  3
  9 10  1  0
  9 18  1  0
 10 11  2  0
 10 12  1  0
 12 13  2  0
 13 14  1  0
 14 15  1  0
 14 18  2  0
 15 16  1  0
 16 17  2  0
 17 18  1  0
 19 20  2  0
 21 22  2  0
 21 32  1  0
 22 23  1  0
 22 30  1  0
 23 24  1  0
 24 25  2  0
 24 29  1  0
 25 26  1  0
 26 27  2  0
 26 39  1  0
 27 28  1  0
 27 37  1  0
 28 29  2  0
 29 30  1  0
 30 31  1  0
 31 32  1  0
 32 33  1  6
 33 34  2  3
 34 35  1  0
 35 36  1  0
 37 38  1  0
 38 39  1  0
M  END
