
     RDKit          3D

 40 46  0  0  0  0  0  0  0  0999 V2000
  -10.8850   -0.5070   -0.6310 C   0  0  0  0  0  0  0  0  0  0  0  0
   -9.4310   -0.3750   -0.3610 C   0  0  0  0  0  0  0  0  0  0  0  0
   -8.6740    0.7700   -0.4630 C   0  0  0  0  0  0  0  0  0  0  0  0
   -7.3870    0.5040   -0.1370 N   0  0  0  0  0  0  0  0  0  0  0  0
   -6.3210    1.4430   -0.1290 C   0  0  0  0  0  0  0  0  0  0  0  0
   -6.5020    2.7710    0.1900 C   0  0  0  0  0  0  0  0  0  0  0  0
   -5.4860    3.6510    0.1930 N   0  0  0  0  0  0  0  0  0  0  0  0
   -4.2400    3.2850   -0.1130 C   0  0  0  0  0  0  0  0  0  0  0  0
   -4.0010    1.9710   -0.4400 C   0  0  0  0  0  0  0  0  0  0  0  0
   -2.7170    1.4800   -0.7830 N   0  0  0  0  0  0  0  0  0  0  0  0
   -1.9950    0.6250   -0.0480 C   0  0  0  0  0  0  0  0  0  0  0  0
   -0.8120    0.3790   -0.7060 C   0  0  0  0  0  0  0  0  0  0  0  0
    0.3060   -0.4920   -0.2990 C   0  0  0  0  0  0  0  0  0  0  0  0
    1.3840    0.2900    0.2800 N   0  0  0  0  0  0  0  0  0  0  0  0
    2.5240   -0.3990    0.8360 C   0  0  0  0  0  0  0  0  0  0  0  0
    2.4850   -1.6370    0.7740 O   0  0  0  0  0  0  0  0  0  0  0  0
    3.6120    0.2750    1.4120 N   0  0  0  0  0  0  0  0  0  0  0  0
    4.8110   -0.2300    1.9790 C   0  0  0  0  0  0  0  0  0  0  0  0
    5.8240   -0.9570    1.2630 C   0  0  1  0  0  0  0  0  0  0  0  0
    5.3380   -2.2420    0.6430 C   0  0  0  0  0  0  0  0  0  0  0  0
    6.4970   -3.2450    0.4820 C   0  0  0  0  0  0  0  0  0  0  0  0
    7.8030   -2.5500    0.3320 C   0  0  0  0  0  0  0  0  0  0  0  0
    7.7320   -1.1480   -0.0860 C   0  0  0  0  0  0  0  0  0  0  0  0
    8.5340   -0.4650   -0.8970 N   0  0  0  0  0  0  0  0  0  0  0  0
    8.0970    0.7830   -0.9710 C   0  0  0  0  0  0  0  0  0  0  0  0
    8.5670    1.8810   -1.6620 C   0  0  0  0  0  0  0  0  0  0  0  0
    7.9120    3.0870   -1.5530 C   0  0  0  0  0  0  0  0  0  0  0  0
    6.7890    3.1610   -0.7440 C   0  0  0  0  0  0  0  0  0  0  0  0
    5.9500    4.6820   -0.5980 Cl  0  0  0  0  0  0  0  0  0  0  0  0
    6.3240    2.0580   -0.0560 C   0  0  0  0  0  0  0  0  0  0  0  0
    6.9750    0.8700   -0.1690 C   0  0  0  0  0  0  0  0  0  0  0  0
    6.7420   -0.3240    0.3830 N   0  0  0  0  0  0  0  0  0  0  0  0
   -0.8550    1.1210   -1.8640 C   0  0  0  0  0  0  0  0  0  0  0  0
   -2.0440    1.7800   -1.8680 N   0  0  0  0  0  0  0  0  0  0  0  0
   -5.0420    1.0460   -0.4480 C   0  0  0  0  0  0  0  0  0  0  0  0
   -7.3420   -0.8140    0.1700 C   0  0  0  0  0  0  0  0  0  0  0  0
   -8.5710   -1.3890    0.0450 C   0  0  0  0  0  0  0  0  0  0  0  0
   -8.5100   -2.6850    0.3480 C   0  0  0  0  0  0  0  0  0  0  0  0
   -7.1120   -2.9860    0.7060 C   0  0  0  0  0  0  0  0  0  0  0  0
   -6.4630   -1.6990    0.5500 N   0  0  0  0  0  0  0  0  0  0  0  0
  1  2  1  0
  2  3  2  0
  2 37  1  0
  3  4  1  0
  4  5  1  0
  4 36  1  0
  5  6  2  0
  5 35  1  0
  6  7  1  0
  7  8  2  0
  8  9  1  0
  9 10  1  0
  9 35  2  0
 10 11  1  0
 10 34  1  0
 11 12  2  0
 12 13  1  0
 12 33  1  0
 13 14  1  0
 14 15  1  0
 15 16  2  0
 15 17  1  0
 17 18  1  0
 19 18  1  6
 19 20  1  0
 19 32  1  0
 20 21  1  0
 21 22  1  0
 22 23  1  0
 23 24  2  0
 23 32  1  0
 24 25  1  0
 25 26  2  0
 25 31  1  0
 26 27  1  0
 27 28  2  0
 28 29  1  0
 28 30  1  0
 30 31  2  0
 31 32  1  0
 33 34  2  0
 36 37  1  0
 36 40  2  0
 37 38  2  0
 38 39  1  0
 39 40  1  0
M  END
