
     RDKit          3D

 13 13  0  0  0  0  0  0  0  0999 V2000
    0.2240   -1.5280    1.0020 C   0  0  0  0  0  0  0  0  0  0  0  0
   -0.5350   -0.7160    0.0380 N   0  0  0  0  0  0  0  0  0  0  0  0
   -0.0830    0.6540    0.1580 C   0  0  0  0  0  0  0  0  0  0  0  0
    1.3510    0.7670   -0.1310 C   0  0  0  0  0  0  0  0  0  0  0  0
    2.0370    1.9330   -0.0930 N   0  0  0  0  0  0  0  0  0  0  0  0
    3.2820    1.6940   -0.3970 O   0  0  0  0  0  0  0  0  0  0  0  0
    3.4670    0.4220   -0.6390 C   0  0  0  0  0  0  0  0  0  0  0  0
    4.6680   -0.1850   -0.9930 O   0  0  0  0  0  0  0  0  0  0  0  0
    2.2610   -0.1620   -0.4740 N   0  0  0  0  0  0  0  0  0  0  0  0
   -1.9170   -0.8300    0.4250 C   0  0  0  0  0  0  0  0  0  0  0  0
   -3.0750    0.1030   -0.6360 P   0  0  0  0  0  0  0  0  0  0  0  0
   -3.9930    1.2050    0.3400 O   0  0  0  0  0  0  0  0  0  0  0  0
   -2.3630    0.8430   -1.9950 O   0  0  0  0  0  0  0  0  0  0  0  0
  1  2  1  0
  2  3  1  0
  2 10  1  0
  3  4  1  0
  4  5  2  0
  4  9  1  0
  5  6  1  0
  6  7  1  0
  7  8  1  0
  7  9  2  0
 10 11  1  0
 11 12  1  0
 11 13  1  0
M  END
