
     RDKit          3D

 22 22  0  0  0  0  0  0  0  0999 V2000
   -3.2290   -2.5910    0.0690 C   0  0  0  0  0  0  0  0  0  0  0  0
   -2.3570   -1.4330    0.0550 N   0  0  0  0  0  0  0  0  0  0  0  0
   -1.5800   -1.2690    1.2390 C   0  0  0  0  0  0  0  0  0  0  0  0
   -0.2770   -0.6180    1.0800 C   0  0  0  0  0  0  0  0  0  0  0  0
    0.7630   -1.1290    1.9570 C   0  0  0  0  0  0  0  0  0  0  0  0
    1.9480   -0.7030    1.9790 O   0  0  0  0  0  0  0  0  0  0  0  0
    0.4620   -2.1500    2.8370 O   0  0  0  0  0  0  0  0  0  0  0  0
    0.1800    0.3680    0.2910 C   0  0  0  0  0  0  0  0  0  0  0  0
    1.5130    0.7230    0.4270 O   0  0  0  0  0  0  0  0  0  0  0  0
    2.3550    0.1540   -0.4670 O   0  0  0  0  0  0  0  0  0  0  0  0
    3.6040    0.5600   -0.3170 O   0  0  0  0  0  0  0  0  0  0  0  0
    4.6820   -0.3070   -0.1720 C   0  0  0  0  0  0  0  0  0  0  0  0
    4.3980   -1.5480   -0.1900 O   0  0  0  0  0  0  0  0  0  0  0  0
    5.9910    0.1330   -0.0150 O   0  0  0  0  0  0  0  0  0  0  0  0
   -0.6300    1.0710   -0.6830 C   0  0  0  0  0  0  0  0  0  0  0  0
   -0.3810    2.3000   -0.8810 N   0  0  0  0  0  0  0  0  0  0  0  0
    0.6260    3.0320   -0.2230 C   0  0  0  0  0  0  0  0  0  0  0  0
    0.5480    3.0010    1.1840 O   0  0  0  0  0  0  0  0  0  0  0  0
   -1.7210    0.5010   -1.4580 N   0  0  0  0  0  0  0  0  0  0  0  0
   -2.0310    1.2630   -2.6280 C   0  0  0  0  0  0  0  0  0  0  0  0
   -2.4450   -0.6670   -1.1550 C   0  0  0  0  0  0  0  0  0  0  0  0
   -3.2270   -1.0530   -2.0340 O   0  0  0  0  0  0  0  0  0  0  0  0
  1  2  1  0
  2  3  1  0
  2 21  1  0
  3  4  1  0
  4  5  1  0
  4  8  2  0
  5  6  2  0
  5  7  1  0
  8  9  1  0
  8 15  1  0
  9 10  1  0
 10 11  1  0
 11 12  1  0
 12 13  2  0
 12 14  1  0
 15 16  2  3
 15 19  1  0
 16 17  1  0
 17 18  1  0
 19 20  1  0
 19 21  1  0
 21 22  2  0
M  END
