
     RDKit          3D

 13 13  0  0  0  0  0  0  0  0999 V2000
    4.4080    0.8640   -1.0100 O   0  0  0  0  0  0  0  0  0  0  0  0
    4.2130   -0.5710   -0.0560 P   0  0  0  0  0  0  0  0  0  0  0  0
    4.0940   -1.9670   -1.1610 O   0  0  0  0  0  0  0  0  0  0  0  0
    2.7780   -0.5710    0.8840 O   0  0  0  0  0  0  0  0  0  0  0  0
    1.8210    0.3610    0.5500 C   0  0  0  0  0  0  0  0  0  0  0  0
    1.1890   -0.0020   -0.7620 C   0  0  0  0  0  0  0  0  0  0  0  0
    0.1220    0.8650   -1.1350 N   0  0  0  0  0  0  0  0  0  0  0  0
   -1.1520    0.5930   -0.5230 C   0  0  0  0  0  0  0  0  0  0  0  0
   -1.2160   -0.3480    0.3780 N   0  0  0  0  0  0  0  0  0  0  0  0
   -2.3910   -0.6900    1.0180 N   0  0  0  0  0  0  0  0  0  0  0  0
   -3.6580   -0.3150    0.4590 C   0  0  0  0  0  0  0  0  0  0  0  0
   -3.5610    0.4420   -0.8250 C   0  0  0  0  0  0  0  0  0  0  0  0
   -2.3280    1.2490   -0.8060 O   0  0  0  0  0  0  0  0  0  0  0  0
  1  2  1  0
  2  3  1  0
  2  4  1  0
  4  5  1  0
  5  6  1  0
  6  7  1  0
  7  8  1  0
  8  9  2  0
  8 13  1  0
  9 10  1  0
 10 11  1  0
 11 12  1  0
 12 13  1  0
M  END
