
     RDKit          3D

 12 12  0  0  0  0  0  0  0  0999 V2000
   -3.6540    0.7190   -0.4830 O   0  0  0  0  0  0  0  0  0  0  0  0
   -3.2550   -0.6020   -0.6830 C   0  0  0  0  0  0  0  0  0  0  0  0
   -2.3420   -1.0820    0.4450 C   0  0  0  0  0  0  0  0  0  0  0  0
   -1.1830   -0.2160    0.4520 N   0  0  0  0  0  0  0  0  0  0  0  0
   -1.0050    0.9330    1.1320 C   0  0  0  0  0  0  0  0  0  0  0  0
    0.2230    1.3800    0.8240 N   0  0  0  0  0  0  0  0  0  0  0  0
    0.7940    0.5210   -0.0320 C   0  0  0  0  0  0  0  0  0  0  0  0
    2.1280    0.5380   -0.6810 C   0  0  0  0  0  0  0  0  0  0  0  0
    3.3990   -0.3370    0.3370 P   0  0  0  0  0  0  0  0  0  0  0  0
    4.4980   -1.1270   -0.7600 O   0  0  0  0  0  0  0  0  0  0  0  0
    4.3290    0.8480    1.2040 O   0  0  0  0  0  0  0  0  0  0  0  0
   -0.0990   -0.4570   -0.2450 N   0  0  0  0  0  0  0  0  0  0  0  0
  1  2  1  0
  2  3  1  0
  3  4  1  0
  4  5  1  0
  4 12  1  0
  5  6  2  0
  6  7  1  0
  7  8  1  0
  7 12  2  0
  8  9  1  0
  9 10  1  0
  9 11  1  0
M  END
