
     RDKit          3D

 13 13  0  0  0  0  0  0  0  0999 V2000
    2.9700    1.3740    0.1190 N   0  0  0  0  0  0  0  0  0  0  0  0
    2.6190    0.0710    0.5390 C   0  0  0  0  0  0  0  0  0  0  0  0
    3.4580   -0.5670    1.2020 O   0  0  0  0  0  0  0  0  0  0  0  0
    1.2890   -0.4940    0.1910 C   0  0  0  0  0  0  0  0  0  0  0  0
    0.5360    0.4440   -0.5840 N   0  0  0  0  0  0  0  0  0  0  0  0
   -0.8220    0.0900   -0.7930 C   0  0  2  0  0  0  0  0  0  0  0  0
   -1.6110    0.0610    0.4700 C   0  0  0  0  0  0  0  0  0  0  0  0
   -2.2080    1.3630    0.9360 C   0  0  0  0  0  0  0  0  0  0  0  0
   -2.0290    2.3870    0.2430 O   0  0  0  0  0  0  0  0  0  0  0  0
   -1.7080   -1.0320    1.0470 N   0  0  0  0  0  0  0  0  0  0  0  0
   -1.1310   -2.1450    0.5580 O   0  0  0  0  0  0  0  0  0  0  0  0
   -0.9210   -1.7440   -1.1760 P   0  0  0  0  0  0  0  0  0  0  0  0
   -2.4800   -2.0410   -1.9020 O   0  0  0  0  0  0  0  0  0  0  0  0
  1  2  1  0
  2  3  2  0
  2  4  1  0
  4  5  1  0
  6  5  1  1
  6  7  1  0
  6 12  1  0
  7  8  1  0
  7 10  2  0
  8  9  2  0
 10 11  1  0
 11 12  1  0
 12 13  1  0
M  END
