
     RDKit          3D

 22 22  0  0  0  0  0  0  0  0999 V2000
   -2.7370    3.9460   -0.4790 O   0  0  0  0  0  0  0  0  0  0  0  0
   -2.5030    2.7790   -0.0160 C   0  0  0  0  0  0  0  0  0  0  0  0
   -1.2160    2.1600   -0.4260 C   0  0  0  0  0  0  0  0  0  0  0  0
   -0.8340    1.2850    0.5840 O   0  0  0  0  0  0  0  0  0  0  0  0
    0.5270    1.0630    0.6360 C   0  0  0  0  0  0  0  0  0  0  0  0
    0.7530   -0.4200    0.3520 C   0  0  2  0  0  0  0  0  0  0  0  0
    2.1370   -0.5560   -0.1530 C   0  0  0  0  0  0  0  0  0  0  0  0
    2.3190   -1.0610   -1.2890 O   0  0  0  0  0  0  0  0  0  0  0  0
    3.2270   -0.1290    0.6220 N   0  0  0  0  0  0  0  0  0  0  0  0
    4.6000   -0.2320    0.1910 C   0  0  0  0  0  0  0  0  0  0  0  0
    4.8110    0.4940   -0.9940 O   0  0  0  0  0  0  0  0  0  0  0  0
    6.0420    0.4080   -1.3910 O   0  0  0  0  0  0  0  0  0  0  0  0
   -0.1700   -0.9010   -0.5670 O   0  0  0  0  0  0  0  0  0  0  0  0
   -0.3040   -2.2730   -0.4970 C   0  0  0  0  0  0  0  0  0  0  0  0
   -1.4290   -2.6950    0.4510 C   0  0  0  0  0  0  0  0  0  0  0  0
   -2.5350   -1.8590    0.3050 O   0  0  0  0  0  0  0  0  0  0  0  0
   -2.3260   -1.0720   -0.7390 O   0  0  0  0  0  0  0  0  0  0  0  0
   -3.2900   -0.2470   -1.3080 C   0  0  0  0  0  0  0  0  0  0  0  0
   -3.2720   -0.0390   -2.5740 O   0  0  0  0  0  0  0  0  0  0  0  0
   -4.3240    0.4040   -0.5880 N   0  0  0  0  0  0  0  0  0  0  0  0
   -4.1790    1.1430    0.6110 C   0  0  0  0  0  0  0  0  0  0  0  0
   -3.4110    2.1320    0.8270 N   0  0  0  0  0  0  0  0  0  0  0  0
  1  2  2  0
  2  3  1  0
  2 22  1  0
  3  4  1  0
  4  5  1  0
  5  6  1  0
  6  7  1  6
  6 13  1  0
  7  8  2  0
  7  9  1  0
  9 10  1  0
 10 11  1  0
 11 12  1  0
 13 14  1  0
 14 15  1  0
 15 16  1  0
 16 17  1  0
 17 18  1  0
 18 19  2  0
 18 20  1  0
 20 21  1  0
 21 22  2  0
M  END
