
     RDKit          3D

 13 13  0  0  0  0  0  0  0  0999 V2000
    4.6230    0.5860    0.4110 C   0  0  0  0  0  0  0  0  0  0  0  0
    3.1580    0.5480    0.1880 C   0  0  0  0  0  0  0  0  0  0  0  0
    2.5850   -0.4560   -0.4450 C   0  0  0  0  0  0  0  0  0  0  0  0
    1.1890   -0.5310   -0.6790 N   0  0  0  0  0  0  0  0  0  0  0  0
    0.3140    0.3900   -0.0480 C   0  0  1  0  0  0  0  0  0  0  0  0
   -1.0710    0.2140   -0.3610 N   0  0  0  0  0  0  0  0  0  0  0  0
   -1.6330   -0.4070    0.6430 C   0  0  0  0  0  0  0  0  0  0  0  0
   -3.0020   -0.7630    0.7110 N   0  0  0  0  0  0  0  0  0  0  0  0
   -4.1410   -0.2620   -0.5750 P   0  0  0  0  0  0  0  0  0  0  0  0
   -4.9960    1.1490   -0.0110 O   0  0  0  0  0  0  0  0  0  0  0  0
   -5.3100   -1.5330   -0.7790 O   0  0  0  0  0  0  0  0  0  0  0  0
   -0.6230   -0.6130    1.5600 O   0  0  0  0  0  0  0  0  0  0  0  0
    0.4230    0.1890    1.3470 O   0  0  0  0  0  0  0  0  0  0  0  0
  1  2  1  0
  2  3  2  3
  3  4  1  0
  5  4  1  6
  5  6  1  0
  5 13  1  0
  6  7  2  0
  7  8  1  0
  7 12  1  0
  8  9  1  0
  9 10  1  0
  9 11  1  0
 12 13  1  0
M  END
