
     RDKit          3D

 14 15  0  0  0  0  0  0  0  0999 V2000
   -2.9260    0.5870   -0.6580 C   0  0  0  0  0  0  0  0  0  0  0  0
   -1.5270    0.4800   -0.2400 C   0  0  0  0  0  0  0  0  0  0  0  0
   -0.7930    1.6580   -0.2410 C   0  0  0  0  0  0  0  0  0  0  0  0
    0.5720    1.8050   -0.1320 C   0  0  0  0  0  0  0  0  0  0  0  0
    1.0790    3.0940   -0.1880 O   0  0  0  0  0  0  0  0  0  0  0  0
    1.5470    0.8470    0.0280 C   0  0  0  0  0  0  0  0  0  0  0  0
    2.9020    1.0960    0.0580 C   0  0  0  0  0  0  0  0  0  0  0  0
    3.5210   -0.1230    0.2340 C   0  0  0  0  0  0  0  0  0  0  0  0
    2.6170   -1.1430    0.3180 C   0  0  0  0  0  0  0  0  0  0  0  0
    2.8340   -2.5060    0.4940 O   0  0  0  0  0  0  0  0  0  0  0  0
    1.3850   -0.5880    0.1960 C   0  0  0  0  0  0  0  0  0  0  0  0
    0.1760   -1.2780    0.2260 C   0  0  0  0  0  0  0  0  0  0  0  0
   -1.1250   -0.7950    0.1020 C   0  0  0  0  0  0  0  0  0  0  0  0
   -2.2450   -1.7170    0.3570 C   0  0  0  0  0  0  0  0  0  0  0  0
  1  2  1  0
  2  3  2  0
  2 13  1  0
  3  4  1  0
  4  5  1  0
  4  6  2  0
  6  7  1  0
  6 11  1  0
  7  8  2  0
  8  9  1  0
  9 10  1  0
  9 11  2  0
 11 12  1  0
 12 13  2  0
 13 14  1  0
M  END
