
     RDKit          3D

 11 11  0  0  0  0  0  0  0  0999 V2000
   -1.1700    1.6810   -0.3530 N   0  0  0  0  0  0  0  0  0  0  0  0
   -1.1200    0.5710    0.5340 C   0  0  1  0  0  0  0  0  0  0  0  0
   -1.9400   -0.5720   -0.0500 C   0  0  2  0  0  0  0  0  0  0  0  0
   -2.7710   -1.1470    0.9020 O   0  0  0  0  0  0  0  0  0  0  0  0
   -1.0260   -1.5400   -0.4650 O   0  0  0  0  0  0  0  0  0  0  0  0
   -0.1170   -1.5250    0.6150 C   0  0  0  0  0  0  0  0  0  0  0  0
    0.2340   -0.0670    0.6730 C   0  0  2  0  0  0  0  0  0  0  0  0
    0.7930    0.1840    1.9340 O   0  0  0  0  0  0  0  0  0  0  0  0
    1.1990    0.3370   -0.3900 C   0  0  0  0  0  0  0  0  0  0  0  0
    2.5230   -0.3360   -0.1850 C   0  0  0  0  0  0  0  0  0  0  0  0
    3.1040   -0.0240    1.0370 O   0  0  0  0  0  0  0  0  0  0  0  0
  2  1  1  6
  2  3  1  0
  2  7  1  0
  3  4  1  1
  3  5  1  0
  5  6  1  0
  6  7  1  0
  7  8  1  1
  7  9  1  0
  9 10  1  0
 10 11  1  0
M  CHG  1   1   1
M  END
