
     RDKit          3D

 14 14  0  0  0  0  0  0  0  0999 V2000
    4.8930   -0.0120   -0.1870 C   0  0  0  0  0  0  0  0  0  0  0  0
    3.4600    0.2660   -0.5230 C   0  0  0  0  0  0  0  0  0  0  0  0
    2.5240   -0.3450    0.1600 C   0  0  0  0  0  0  0  0  0  0  0  0
    1.1300   -0.1150   -0.1200 C   0  0  0  0  0  0  0  0  0  0  0  0
    0.7370    0.8440   -1.1630 C   0  0  0  0  0  0  0  0  0  0  0  0
    0.2110   -0.7440    0.5720 C   0  0  0  0  0  0  0  0  0  0  0  0
   -1.2260   -0.6120    0.4000 C   0  0  0  0  0  0  0  0  0  0  0  0
   -1.8610   -0.5650   -0.8070 C   0  0  0  0  0  0  0  0  0  0  0  0
   -3.2510   -0.4300   -0.8740 C   0  0  0  0  0  0  0  0  0  0  0  0
   -3.9270   -0.3790   -2.0830 O   0  0  0  0  0  0  0  0  0  0  0  0
   -4.0100   -0.3420    0.2760 C   0  0  0  0  0  0  0  0  0  0  0  0
   -3.3730   -0.3900    1.5020 C   0  0  0  0  0  0  0  0  0  0  0  0
   -1.9960   -0.5240    1.5400 C   0  0  0  0  0  0  0  0  0  0  0  0
   -1.3860   -0.5690    2.7790 O   0  0  0  0  0  0  0  0  0  0  0  0
  1  2  1  0
  2  3  2  3
  3  4  1  0
  4  5  1  0
  4  6  2  3
  6  7  1  0
  7  8  2  0
  7 13  1  0
  8  9  1  0
  9 10  1  0
  9 11  2  0
 11 12  1  0
 12 13  2  0
 13 14  1  0
M  END
