
     RDKit          3D

 14 15  0  0  0  0  0  0  0  0999 V2000
    3.8870   -0.8390    0.6720 O   0  0  0  0  0  0  0  0  0  0  0  0
    2.8610    0.0420    0.3910 C   0  0  0  0  0  0  0  0  0  0  0  0
    3.1180    1.3870    0.2380 C   0  0  0  0  0  0  0  0  0  0  0  0
    2.0660    2.2380   -0.0430 C   0  0  0  0  0  0  0  0  0  0  0  0
    0.7840    1.7420   -0.1650 C   0  0  0  0  0  0  0  0  0  0  0  0
    0.5120    0.3810   -0.0120 C   0  0  0  0  0  0  0  0  0  0  0  0
   -0.8620   -0.0770   -0.1180 C   0  0  0  0  0  0  0  0  0  0  0  0
   -1.5890    0.2190   -1.2580 C   0  0  0  0  0  0  0  0  0  0  0  0
   -2.9000   -0.1950   -1.3520 C   0  0  0  0  0  0  0  0  0  0  0  0
   -3.4940   -0.9010   -0.3240 C   0  0  0  0  0  0  0  0  0  0  0  0
   -2.8060   -1.2160    0.8280 C   0  0  0  0  0  0  0  0  0  0  0  0
   -1.4810   -0.7820    0.8920 C   0  0  0  0  0  0  0  0  0  0  0  0
    1.5540   -0.4600    0.2650 C   0  0  0  0  0  0  0  0  0  0  0  0
    1.3140   -1.8130    0.4180 O   0  0  0  0  0  0  0  0  0  0  0  0
  1  2  1  0
  2  3  2  0
  2 13  1  0
  3  4  1  0
  4  5  2  0
  5  6  1  0
  6  7  1  0
  6 13  2  0
  7  8  2  0
  7 12  1  0
  8  9  1  0
  9 10  2  0
 10 11  1  0
 11 12  2  0
 13 14  1  0
M  END
