
     RDKit          3D

 14 15  0  0  0  0  0  0  0  0999 V2000
    4.9990   -0.4990    0.0250 O   0  0  0  0  0  0  0  0  0  0  0  0
    3.6150   -0.3840    0.0510 C   0  0  0  0  0  0  0  0  0  0  0  0
    2.8500   -1.3620    0.6500 C   0  0  0  0  0  0  0  0  0  0  0  0
    1.4680   -1.2480    0.6760 C   0  0  0  0  0  0  0  0  0  0  0  0
    0.8450   -0.1620    0.1060 C   0  0  0  0  0  0  0  0  0  0  0  0
   -0.6150   -0.0910    0.1620 C   0  0  0  0  0  0  0  0  0  0  0  0
   -1.2850   -1.0520    0.7500 C   0  0  0  0  0  0  0  0  0  0  0  0
   -2.7920   -1.0000    0.8200 C   0  0  0  0  0  0  0  0  0  0  0  0
   -3.2230   -0.3690   -0.5110 C   0  0  0  0  0  0  0  0  0  0  0  0
   -2.7710    1.0780   -0.3840 C   0  0  0  0  0  0  0  0  0  0  0  0
   -1.2620    1.0900   -0.4640 C   0  0  0  0  0  0  0  0  0  0  0  0
    1.6040    0.8330   -0.5020 C   0  0  0  0  0  0  0  0  0  0  0  0
    0.9900    1.9380   -1.0820 O   0  0  0  0  0  0  0  0  0  0  0  0
    2.9740    0.6980   -0.5150 C   0  0  0  0  0  0  0  0  0  0  0  0
  1  2  1  0
  2  3  2  0
  2 14  1  0
  3  4  1  0
  4  5  2  0
  5  6  1  0
  5 12  1  0
  6  7  2  0
  6 11  1  0
  7  8  1  0
  8  9  1  0
  9 10  1  0
 10 11  1  0
 12 13  1  0
 12 14  2  0
M  END
