
     RDKit          3D

 14 15  0  0  0  0  0  0  0  0999 V2000
   -3.0360   -0.8840    0.4420 C   0  0  0  0  0  0  0  0  0  0  0  0
   -1.5690   -0.8890    0.1000 C   0  0  0  0  0  0  0  0  0  0  0  0
   -0.9320   -2.0850    0.0930 C   0  0  0  0  0  0  0  0  0  0  0  0
    0.4200   -2.1560   -0.1140 C   0  0  0  0  0  0  0  0  0  0  0  0
    1.1690   -0.9900   -0.3310 C   0  0  0  0  0  0  0  0  0  0  0  0
    2.6490   -1.1400   -0.5600 C   0  0  0  0  0  0  0  0  0  0  0  0
    3.1820   -1.8710    0.5210 O   0  0  0  0  0  0  0  0  0  0  0  0
    0.5190    0.2000   -0.3220 C   0  0  0  0  0  0  0  0  0  0  0  0
    1.1910    1.4150   -0.3750 C   0  0  0  0  0  0  0  0  0  0  0  0
    0.6480    2.6450   -0.2490 C   0  0  0  0  0  0  0  0  0  0  0  0
    1.3510    3.8850   -0.2500 O   0  0  0  0  0  0  0  0  0  0  0  0
   -0.7790    2.6820   -0.0490 C   0  0  0  0  0  0  0  0  0  0  0  0
   -1.4560    1.4970    0.0190 C   0  0  0  0  0  0  0  0  0  0  0  0
   -0.8810    0.2850   -0.1030 C   0  0  0  0  0  0  0  0  0  0  0  0
  1  2  1  0
  2  3  2  0
  2 14  1  0
  3  4  1  0
  4  5  2  0
  5  6  1  0
  5  8  1  0
  6  7  1  0
  8  9  2  0
  8 14  1  0
  9 10  1  0
 10 11  1  0
 10 12  2  0
 12 13  1  0
 13 14  2  0
M  END
