
     RDKit          3D

 14 15  0  0  0  0  0  0  0  0999 V2000
   -2.1670    1.6890   -0.0310 C   0  0  0  0  0  0  0  0  0  0  0  0
   -2.6240    0.6990    0.6790 C   0  0  0  0  0  0  0  0  0  0  0  0
   -3.9880    0.7280    1.2330 C   0  0  0  0  0  0  0  0  0  0  0  0
   -1.7620   -0.4730    0.9530 C   0  0  0  0  0  0  0  0  0  0  0  0
   -0.4240   -0.3570    0.3880 C   0  0  0  0  0  0  0  0  0  0  0  0
    0.6740   -0.0280    1.1460 C   0  0  0  0  0  0  0  0  0  0  0  0
    1.9420    0.0920    0.5630 C   0  0  0  0  0  0  0  0  0  0  0  0
    2.1120   -0.1200   -0.7860 C   0  0  0  0  0  0  0  0  0  0  0  0
    1.0240   -0.4470   -1.5390 C   0  0  0  0  0  0  0  0  0  0  0  0
   -0.2140   -0.5600   -0.9520 C   0  0  0  0  0  0  0  0  0  0  0  0
   -1.3020   -0.8920   -1.7360 O   0  0  0  0  0  0  0  0  0  0  0  0
    3.5740    0.0820   -1.0990 C   0  0  0  0  0  0  0  0  0  0  0  0
    3.9740    1.0010    0.0500 C   0  0  0  0  0  0  0  0  0  0  0  0
    3.2030    0.4120    1.1060 O   0  0  0  0  0  0  0  0  0  0  0  0
  1  2  2  0
  2  3  1  0
  2  4  1  0
  4  5  1  0
  5  6  2  0
  5 10  1  0
  6  7  1  0
  7  8  2  0
  7 14  1  0
  8  9  1  0
  8 12  1  0
  9 10  2  0
 10 11  1  0
 12 13  1  0
 13 14  1  0
M  END
