
     RDKit          3D

 10  9  0  0  0  0  0  0  0  0999 V2000
   -1.6200   -1.8090    0.1970 O   0  0  0  0  0  0  0  0  0  0  0  0
   -1.8150   -0.6550   -0.0560 C   0  0  0  0  0  0  0  0  0  0  0  0
   -3.1810   -0.1540   -0.3680 C   0  0  0  0  0  0  0  0  0  0  0  0
   -4.0700   -1.2100   -0.3050 O   0  0  0  0  0  0  0  0  0  0  0  0
   -0.7020    0.3410   -0.0720 C   0  0  0  0  0  0  0  0  0  0  0  0
    0.5600   -0.2890    0.2480 N   0  0  0  0  0  0  0  0  0  0  0  0
    1.5760    0.7760    0.2030 C   0  0  0  0  0  0  0  0  0  0  0  0
    3.1950   -0.0690    0.6200 P   0  0  0  0  0  0  0  0  0  0  0  0
    3.4060   -1.3700   -0.4860 O   0  0  0  0  0  0  0  0  0  0  0  0
    4.4390    1.1380    0.4370 O   0  0  0  0  0  0  0  0  0  0  0  0
  1  2  2  0
  2  3  1  0
  2  5  1  0
  3  4  1  0
  5  6  1  0
  6  7  1  0
  7  8  1  0
  8  9  1  0
  8 10  1  0
M  END
