
     RDKit          3D

 10  9  0  0  0  0  0  0  0  0999 V2000
   -3.3970    0.1310    0.0680 O   0  0  0  0  0  0  0  0  0  0  0  0
   -2.5740    0.9110   -0.4600 C   0  0  0  0  0  0  0  0  0  0  0  0
   -2.9420    2.0180   -1.2140 O   0  0  0  0  0  0  0  0  0  0  0  0
   -1.1840    0.6620   -0.2850 N   0  0  0  0  0  0  0  0  0  0  0  0
   -0.7730   -0.4920    0.5010 C   0  0  0  0  0  0  0  0  0  0  0  0
    0.7380   -0.5490    0.5460 C   0  0  0  0  0  0  0  0  0  0  0  0
    1.4490   -0.7030   -1.1640 P   0  0  0  0  0  0  0  0  0  0  0  0
    1.3390   -2.3260   -1.7430 O   0  0  0  0  0  0  0  0  0  0  0  0
    3.0750   -0.1250   -1.1090 O   0  0  0  0  0  0  0  0  0  0  0  0
    3.1490    0.9010   -0.2740 O   0  0  0  0  0  0  0  0  0  0  0  0
  1  2  2  0
  2  3  1  0
  2  4  1  0
  4  5  1  0
  5  6  1  0
  6  7  1  0
  7  8  1  0
  7  9  1  0
  9 10  1  0
M  END
