
     RDKit          3D

 11 10  0  0  0  0  0  0  0  0999 V2000
    2.0850    0.0000    1.2920 O   0  0  0  0  0  0  0  0  0  0  0  0
    2.5330   -0.1110    0.1270 C   0  0  0  0  0  0  0  0  0  0  0  0
    1.7490   -0.7340   -0.8720 N   0  0  0  0  0  0  0  0  0  0  0  0
    0.4360   -1.2340   -0.5590 C   0  0  0  0  0  0  0  0  0  0  0  0
   -0.4860   -0.1550   -0.1140 C   0  0  0  0  0  0  0  0  0  0  0  0
   -1.8630   -0.7160    0.2030 C   0  0  0  0  0  0  0  0  0  0  0  0
   -3.0160    0.6160    0.7570 P   0  0  0  0  0  0  0  0  0  0  0  0
   -2.2490    2.1650    0.8030 O   0  0  0  0  0  0  0  0  0  0  0  0
   -4.4080    0.7410   -0.2680 O   0  0  0  0  0  0  0  0  0  0  0  0
    3.8230    0.3910   -0.1670 O   0  0  0  0  0  0  0  0  0  0  0  0
    4.5470    0.9750    0.7920 O   0  0  0  0  0  0  0  0  0  0  0  0
  1  2  2  0
  2  3  1  0
  2 10  1  0
  3  4  1  0
  4  5  1  0
  5  6  1  0
  6  7  1  0
  7  8  1  0
  7  9  1  0
 10 11  1  0
M  END
