
     RDKit          3D

 29 30  0  0  0  0  0  0  0  0999 V2000
   -0.1660   -1.8960    2.2720 C   0  0  0  0  0  0  0  0  0  0  0  0
    0.2920   -0.5550    1.6720 C   0  0  0  0  0  0  0  0  0  0  0  0
   -0.6620   -0.2330    0.6200 C   0  0  0  0  0  0  0  0  0  0  0  0
   -0.5280   -0.0410   -0.6470 C   0  0  0  0  0  0  0  0  0  0  0  0
    0.7510   -0.1210   -1.3140 C   0  0  0  0  0  0  0  0  0  0  0  0
    0.8660    0.2080   -2.6760 C   0  0  0  0  0  0  0  0  0  0  0  0
    2.0540    0.1290   -3.3710 C   0  0  0  0  0  0  0  0  0  0  0  0
    3.1810   -0.2900   -2.7020 C   0  0  0  0  0  0  0  0  0  0  0  0
    4.4020   -0.3830   -3.3710 O   0  0  0  0  0  0  0  0  0  0  0  0
    3.0820   -0.6140   -1.3670 C   0  0  0  0  0  0  0  0  0  0  0  0
    4.2420   -1.0320   -0.7280 O   0  0  0  0  0  0  0  0  0  0  0  0
    4.2620   -1.3910    0.6420 C   0  0  0  0  0  0  0  0  0  0  0  0
    5.6160   -1.8070    1.1090 C   0  0  0  0  0  0  0  0  0  0  0  0
    6.6600   -0.7430    0.9610 C   0  0  0  0  0  0  0  0  0  0  0  0
    6.3300    0.5090    1.7410 C   0  0  0  0  0  0  0  0  0  0  0  0
    7.3470    1.4380    1.5470 O   0  0  0  0  0  0  0  0  0  0  0  0
    1.9010   -0.5160   -0.7530 N   0  0  0  0  0  0  0  0  0  0  0  0
   -1.7370    0.2400   -1.4770 C   0  0  1  0  0  0  0  0  0  0  0  0
   -1.9400   -0.7690   -2.5110 N   0  0  0  0  0  0  0  0  0  0  0  0
   -2.9800    0.3210   -0.6720 C   0  0  0  0  0  0  0  0  0  0  0  0
   -3.6720   -0.7570   -0.1780 C   0  0  0  0  0  0  0  0  0  0  0  0
   -4.8470   -0.5630    0.5610 C   0  0  0  0  0  0  0  0  0  0  0  0
   -5.3600    0.6870    0.8270 C   0  0  0  0  0  0  0  0  0  0  0  0
   -6.5260    0.8470    1.5620 O   0  0  0  0  0  0  0  0  0  0  0  0
   -7.2370   -0.2670    2.0710 C   0  0  0  0  0  0  0  0  0  0  0  0
   -4.6650    1.7710    0.3310 C   0  0  0  0  0  0  0  0  0  0  0  0
   -5.1920    3.0250    0.6060 O   0  0  0  0  0  0  0  0  0  0  0  0
   -4.5970    4.2240    0.1680 C   0  0  0  0  0  0  0  0  0  0  0  0
   -3.5090    1.5840   -0.3970 C   0  0  0  0  0  0  0  0  0  0  0  0
  1  2  1  0
  2  3  1  0
  3  4  2  3
  4  5  1  0
  4 18  1  0
  5  6  2  0
  5 17  1  0
  6  7  1  0
  7  8  2  0
  8  9  1  0
  8 10  1  0
 10 11  1  0
 10 17  2  0
 11 12  1  0
 12 13  1  0
 13 14  1  0
 14 15  1  0
 15 16  1  0
 18 19  1  6
 18 20  1  0
 20 21  2  0
 20 29  1  0
 21 22  1  0
 22 23  2  0
 23 24  1  0
 23 26  1  0
 24 25  1  0
 26 27  1  0
 26 29  2  0
 27 28  1  0
M  CHG  1  19   1
M  END
