
     RDKit          3D

 29 30  0  0  0  0  0  0  0  0999 V2000
    7.2760    1.2530   -2.4930 C   0  0  0  0  0  0  0  0  0  0  0  0
    7.3410    0.2060   -1.7230 O   0  0  0  0  0  0  0  0  0  0  0  0
    7.4230   -0.8350   -0.9720 C   0  0  0  0  0  0  0  0  0  0  0  0
    8.1590   -1.9640   -0.7450 C   0  0  0  0  0  0  0  0  0  0  0  0
    7.6900   -2.6860    0.2350 O   0  0  0  0  0  0  0  0  0  0  0  0
    6.6230   -2.0850    0.7280 C   0  0  0  0  0  0  0  0  0  0  0  0
    6.3620   -0.9570    0.0880 C   0  0  0  0  0  0  0  0  0  0  0  0
    5.3510    0.0470    0.2510 C   0  0  0  0  0  0  0  0  0  0  0  0
    5.3340    0.7580    1.3900 C   0  0  0  0  0  0  0  0  0  0  0  0
    6.2780    0.5660    2.4770 C   0  0  0  0  0  0  0  0  0  0  0  0
    6.2470    1.2340    3.5780 O   0  0  0  0  0  0  0  0  0  0  0  0
    4.2600    0.4070   -0.7280 C   0  0  0  0  0  0  0  0  0  0  0  0
    3.0370   -0.2790   -0.2550 C   0  0  0  0  0  0  0  0  0  0  0  0
    1.7980    0.4790   -0.4970 C   0  0  0  0  0  0  0  0  0  0  0  0
    1.6140    1.3920   -1.2900 O   0  0  0  0  0  0  0  0  0  0  0  0
    0.7160    0.0800    0.3520 N   0  0  0  0  0  0  0  0  0  0  0  0
   -0.5940    0.5270    0.5490 C   0  0  0  0  0  0  0  0  0  0  0  0
   -1.5380    0.5740   -0.6070 C   0  0  0  0  0  0  0  0  0  0  0  0
   -2.9920    0.5980   -0.1010 C   0  0  0  0  0  0  0  0  0  0  0  0
   -3.1680   -0.1450    1.0730 C   0  0  0  0  0  0  0  0  0  0  0  0
   -4.4430   -0.6090    1.3940 C   0  0  0  0  0  0  0  0  0  0  0  0
   -5.4760   -0.3540    0.5710 C   0  0  0  0  0  0  0  0  0  0  0  0
   -6.8290   -0.9330    0.9410 C   0  0  0  0  0  0  0  0  0  0  0  0
   -6.4830   -2.1390    1.7570 N   0  0  0  0  0  0  0  0  0  0  0  0
   -5.3480    0.3890   -0.5770 C   0  0  0  0  0  0  0  0  0  0  0  0
   -6.4980    0.5490   -1.4170 C   0  0  0  0  0  0  0  0  0  0  0  0
   -7.4390    1.5940   -0.8550 C   0  0  0  0  0  0  0  0  0  0  0  0
   -8.6090    1.6960   -1.6050 O   0  0  0  0  0  0  0  0  0  0  0  0
   -4.0140    0.8910   -0.9210 C   0  0  0  0  0  0  0  0  0  0  0  0
  1  2  1  0
  2  3  1  0
  3  4  2  0
  3  7  1  0
  4  5  1  0
  5  6  1  0
  6  7  2  0
  7  8  1  0
  8  9  2  3
  8 12  1  0
  9 10  1  0
 10 11  2  0
 12 13  1  0
 13 14  1  0
 14 15  2  0
 14 16  1  0
 16 17  1  0
 17 18  1  0
 18 19  1  0
 19 20  2  0
 19 29  1  0
 20 21  1  0
 21 22  2  0
 22 23  1  0
 22 25  1  0
 23 24  1  0
 25 26  1  0
 25 29  2  0
 26 27  1  0
 27 28  1  0
M  CHG  1  24   1
M  END
