
     RDKit          3D

 30 32  0  0  0  0  0  0  0  0999 V2000
    5.4400    0.8600    3.3040 C   0  0  0  0  0  0  0  0  0  0  0  0
    5.4390    1.1220    1.8410 C   0  0  0  0  0  0  0  0  0  0  0  0
    4.1530    0.9480    1.1740 C   0  0  0  0  0  0  0  0  0  0  0  0
    3.4020    1.9270    0.6220 C   0  0  0  0  0  0  0  0  0  0  0  0
    2.3040    1.9330   -0.1160 C   0  0  0  0  0  0  0  0  0  0  0  0
    1.5040    2.7750   -0.7130 O   0  0  0  0  0  0  0  0  0  0  0  0
    1.4580    4.2160   -0.6920 C   0  0  0  0  0  0  0  0  0  0  0  0
    1.8410    0.4930   -0.3510 C   0  0  0  0  0  0  0  0  0  0  0  0
    0.6740    0.4790   -1.2170 C   0  0  0  0  0  0  0  0  0  0  0  0
    0.0010   -0.7290   -1.4820 N   0  0  0  0  0  0  0  0  0  0  0  0
    0.4500   -2.0840   -1.6090 C   0  0  0  0  0  0  0  0  0  0  0  0
   -0.7040   -2.7440   -2.3950 C   0  0  0  0  0  0  0  0  0  0  0  0
   -1.7810   -1.8780   -2.2400 N   0  0  0  0  0  0  0  0  0  0  0  0
   -1.4220   -0.7560   -1.7250 C   0  0  0  0  0  0  0  0  0  0  0  0
   -2.3700    0.2940   -1.4300 N   0  0  0  0  0  0  0  0  0  0  0  0
   -3.7150   -0.1470   -1.0290 C   0  0  0  0  0  0  0  0  0  0  0  0
   -4.8880    0.1430   -1.5160 C   0  0  0  0  0  0  0  0  0  0  0  0
   -5.8450   -0.5900   -0.6900 N   0  0  0  0  0  0  0  0  0  0  0  0
   -5.1670   -1.7810   -0.2790 C   0  0  1  0  0  0  0  0  0  0  0  0
   -5.8940   -2.0720    1.4710 Cl  0  0  0  0  0  0  0  0  0  0  0  0
   -5.3850   -2.9230   -0.9510 C   0  0  0  0  0  0  0  0  0  0  0  0
   -5.5990   -3.9590   -1.5800 N   0  0  0  0  0  0  0  0  0  0  0  0
   -3.8410   -1.1740    0.0610 C   0  0  0  0  0  0  0  0  0  0  0  0
   -3.2110   -1.2530    1.1890 C   0  0  0  0  0  0  0  0  0  0  0  0
   -2.2210   -0.1280    1.5760 C   0  0  0  0  0  0  0  0  0  0  0  0
   -1.5970   -0.3370    2.6140 C   0  0  0  0  0  0  0  0  0  0  0  0
   -0.7430   -0.1530    3.6480 F   0  0  0  0  0  0  0  0  0  0  0  0
    2.5310   -0.5020    0.1740 C   0  0  0  0  0  0  0  0  0  0  0  0
    3.6690   -0.3750    0.9270 C   0  0  0  0  0  0  0  0  0  0  0  0
    4.5170   -1.6930    1.5870 Cl  0  0  0  0  0  0  0  0  0  0  0  0
  1  2  1  0
  2  3  1  0
  3  4  2  0
  3 29  1  0
  4  5  1  0
  5  6  1  0
  5  8  2  0
  6  7  1  0
  8  9  1  0
  8 28  1  0
  9 10  1  0
 10 11  1  0
 10 14  1  0
 11 12  1  0
 12 13  1  0
 13 14  2  0
 14 15  1  0
 15 16  1  0
 16 17  2  0
 16 23  1  0
 17 18  1  0
 18 19  1  0
 19 20  1  1
 19 21  1  0
 19 23  1  0
 21 22  3  0
 23 24  2  3
 24 25  1  0
 25 26  2  3
 26 27  1  0
 28 29  2  0
 29 30  1  0
M  CHG  1  13   1
M  END
