
     RDKit          3D

 29 30  0  0  0  0  0  0  0  0999 V2000
    6.9180    2.2200   -3.3510 C   0  0  0  0  0  0  0  0  0  0  0  0
    5.4390    1.9890   -3.4850 C   0  0  0  0  0  0  0  0  0  0  0  0
    5.0710    0.8520   -4.1540 O   0  0  0  0  0  0  0  0  0  0  0  0
    5.5780   -0.3130   -3.5710 C   0  0  0  0  0  0  0  0  0  0  0  0
    5.1330   -0.4160   -2.1500 C   0  0  0  0  0  0  0  0  0  0  0  0
    3.7110   -0.4620   -2.0390 O   0  0  0  0  0  0  0  0  0  0  0  0
    3.1320   -0.5020   -0.7590 C   0  0  0  0  0  0  0  0  0  0  0  0
    3.9340   -0.4810    0.3670 C   0  0  0  0  0  0  0  0  0  0  0  0
    3.3930   -0.5160    1.6340 C   0  0  0  0  0  0  0  0  0  0  0  0
    2.0080   -0.5730    1.8550 C   0  0  0  0  0  0  0  0  0  0  0  0
    1.4820   -0.5900    3.2390 C   0  0  0  0  0  0  0  0  0  0  0  0
    0.0710   -0.2690    3.3470 N   0  0  0  0  0  0  0  0  0  0  0  0
   -0.4110    1.0510    3.0970 C   0  0  0  0  0  0  0  0  0  0  0  0
    0.5090    1.8890    2.7570 O   0  0  0  0  0  0  0  0  0  0  0  0
   -1.7760    1.5260    3.1900 C   0  0  1  0  0  0  0  0  0  0  0  0
   -1.6830    2.9640    3.0460 O   0  0  0  0  0  0  0  0  0  0  0  0
   -2.7690    1.0290    2.2540 C   0  0  0  0  0  0  0  0  0  0  0  0
   -3.8710    1.8410    1.9530 C   0  0  0  0  0  0  0  0  0  0  0  0
   -4.8710    1.4540    1.0930 C   0  0  0  0  0  0  0  0  0  0  0  0
   -4.8440    0.2280    0.4760 C   0  0  0  0  0  0  0  0  0  0  0  0
   -5.9530   -0.1850   -0.4270 C   0  0  0  0  0  0  0  0  0  0  0  0
   -6.9150    0.8730   -0.5380 N   0  0  0  0  0  0  0  0  0  0  0  0
   -3.7700   -0.6160    0.7430 C   0  0  0  0  0  0  0  0  0  0  0  0
   -3.7150   -1.7960    0.1650 O   0  0  0  0  0  0  0  0  0  0  0  0
   -3.2830   -2.9780   -0.1610 C   0  0  0  0  0  0  0  0  0  0  0  0
   -4.1650   -3.7430   -1.1660 C   0  0  0  0  0  0  0  0  0  0  0  0
   -2.7610   -0.1780    1.6330 C   0  0  0  0  0  0  0  0  0  0  0  0
    1.2320   -0.5930    0.7230 C   0  0  0  0  0  0  0  0  0  0  0  0
    1.7740   -0.5580   -0.5690 C   0  0  0  0  0  0  0  0  0  0  0  0
  1  2  1  0
  2  3  1  0
  3  4  1  0
  4  5  1  0
  5  6  1  0
  6  7  1  0
  7  8  2  0
  7 29  1  0
  8  9  1  0
  9 10  2  0
 10 11  1  0
 10 28  1  0
 11 12  1  0
 12 13  1  0
 13 14  2  0
 13 15  1  0
 15 16  1  6
 15 17  1  0
 17 18  2  0
 17 27  1  0
 18 19  1  0
 19 20  2  0
 20 21  1  0
 20 23  1  0
 21 22  1  0
 23 24  1  0
 23 27  2  0
 24 25  1  0
 25 26  1  0
 28 29  2  0
M  CHG  1  22   1
M  END
