
     RDKit          3D

 29 30  0  0  0  0  0  0  0  0999 V2000
    0.2480    3.2920   -0.0860 C   0  0  0  0  0  0  0  0  0  0  0  0
   -1.0390    3.2840   -0.3510 C   0  0  0  0  0  0  0  0  0  0  0  0
   -1.8640    4.1610    0.3110 O   0  0  0  0  0  0  0  0  0  0  0  0
   -3.2280    4.2090    0.0830 C   0  0  0  0  0  0  0  0  0  0  0  0
   -3.7410    3.3710   -0.8090 C   0  0  0  0  0  0  0  0  0  0  0  0
   -2.9170    2.4180   -1.5430 C   0  0  0  0  0  0  0  0  0  0  0  0
   -1.6260    2.3680   -1.3310 C   0  0  0  0  0  0  0  0  0  0  0  0
   -0.7420    1.4330   -2.0350 C   0  0  0  0  0  0  0  0  0  0  0  0
   -0.0540    0.5610   -1.2320 O   0  0  0  0  0  0  0  0  0  0  0  0
   -0.4530   -0.4070   -0.3620 C   0  0  0  0  0  0  0  0  0  0  0  0
   -1.7630   -0.7350   -0.1000 C   0  0  0  0  0  0  0  0  0  0  0  0
   -2.1520   -1.7270    0.7930 C   0  0  0  0  0  0  0  0  0  0  0  0
   -3.5730   -2.0680    1.0610 C   0  0  1  0  0  0  0  0  0  0  0  0
   -4.3770   -0.8700    1.2210 N   0  0  0  0  0  0  0  0  0  0  0  0
   -4.0730   -2.9630   -0.0340 C   0  0  2  0  0  0  0  0  0  0  0  0
   -4.0030   -2.3380   -1.3900 C   0  0  0  0  0  0  0  0  0  0  0  0
   -5.5080   -3.3840    0.2080 C   0  0  0  0  0  0  0  0  0  0  0  0
   -1.1480   -2.4100    1.4450 C   0  0  0  0  0  0  0  0  0  0  0  0
    0.1710   -2.0970    1.1970 C   0  0  0  0  0  0  0  0  0  0  0  0
    0.5510   -1.1150    0.3130 C   0  0  0  0  0  0  0  0  0  0  0  0
    1.8740   -0.8130    0.0750 O   0  0  0  0  0  0  0  0  0  0  0  0
    2.9590   -1.4420    0.6790 C   0  0  0  0  0  0  0  0  0  0  0  0
    4.2300   -0.7880    0.1200 C   0  0  0  0  0  0  0  0  0  0  0  0
    4.1680    0.5420    0.4420 O   0  0  0  0  0  0  0  0  0  0  0  0
    5.2290    1.3010    0.0210 C   0  0  0  0  0  0  0  0  0  0  0  0
    6.5630    0.8530    0.5830 C   0  0  0  0  0  0  0  0  0  0  0  0
    7.6030    1.7630    0.0390 C   0  0  0  0  0  0  0  0  0  0  0  0
    8.9520    1.5520    0.4190 N   0  0  0  0  0  0  0  0  0  0  0  0
    7.3180    2.7060   -0.7410 O   0  0  0  0  0  0  0  0  0  0  0  0
  1  2  2  0
  2  3  1  0
  2  7  1  0
  3  4  1  0
  4  5  2  0
  5  6  1  0
  6  7  2  0
  7  8  1  0
  8  9  1  0
  9 10  1  0
 10 11  2  0
 10 20  1  0
 11 12  1  0
 12 13  1  0
 12 18  2  0
 13 14  1  6
 13 15  1  0
 15 16  1  6
 15 17  1  0
 18 19  1  0
 19 20  2  0
 20 21  1  0
 21 22  1  0
 22 23  1  0
 23 24  1  0
 24 25  1  0
 25 26  1  0
 26 27  1  0
 27 28  1  0
 27 29  2  0
M  CHG  1  14   1
M  END
