
     RDKit          3D

 30 33  0  0  0  0  0  0  0  0999 V2000
   -4.3230    4.3490   -0.4010 N   0  0  0  0  0  0  0  0  0  0  0  0
   -3.3620    3.3660   -0.7590 C   0  0  0  0  0  0  0  0  0  0  0  0
   -3.6250    2.4430   -1.6530 C   0  0  0  0  0  0  0  0  0  0  0  0
   -5.2410    2.5030   -2.3830 Cl  0  0  0  0  0  0  0  0  0  0  0  0
   -2.7420    1.3920   -2.0810 C   0  0  0  0  0  0  0  0  0  0  0  0
   -1.3830    1.1490   -1.6040 C   0  0  0  0  0  0  0  0  0  0  0  0
   -1.2140    0.7000   -0.2030 C   0  0  2  0  0  0  0  0  0  0  0  0
    0.2830    0.5400    0.0020 C   0  0  0  0  0  0  0  0  0  0  0  0
    1.0730   -0.4420   -0.4900 N   0  0  0  0  0  0  0  0  0  0  0  0
    2.3360   -0.2600   -0.1060 C   0  0  0  0  0  0  0  0  0  0  0  0
    3.4700   -0.9690   -0.3430 N   0  0  0  0  0  0  0  0  0  0  0  0
    4.6620   -0.5950    0.1540 C   0  0  0  0  0  0  0  0  0  0  0  0
    5.8780   -1.3680   -0.1090 C   0  0  0  0  0  0  0  0  0  0  0  0
    7.1290   -1.0450    0.3660 C   0  0  0  0  0  0  0  0  0  0  0  0
    8.0100   -2.0120   -0.0960 C   0  0  0  0  0  0  0  0  0  0  0  0
    7.2270   -2.8760   -0.8360 C   0  0  0  0  0  0  0  0  0  0  0  0
    5.9870   -2.4610   -0.8160 O   0  0  0  0  0  0  0  0  0  0  0  0
    4.7000    0.5470    0.9240 C   0  0  0  0  0  0  0  0  0  0  0  0
    3.5650    1.2940    1.1860 C   0  0  0  0  0  0  0  0  0  0  0  0
    2.3600    0.8710    0.6540 C   0  0  0  0  0  0  0  0  0  0  0  0
    1.1070    1.3360    0.7040 N   0  0  0  0  0  0  0  0  0  0  0  0
   -1.7330   -0.6300    0.0430 N   0  0  2  0  0  0  0  0  0  0  0  0
   -3.1500   -0.7430    0.0650 C   0  0  0  0  0  0  0  0  0  0  0  0
   -3.6450   -1.6110    1.2310 C   0  0  0  0  0  0  0  0  0  0  0  0
   -2.8600   -2.8810    1.3640 C   0  0  0  0  0  0  0  0  0  0  0  0
   -1.3530   -2.6160    1.3000 C   0  0  0  0  0  0  0  0  0  0  0  0
   -1.2030   -1.1080    1.3080 C   0  0  0  0  0  0  0  0  0  0  0  0
   -3.2010    0.5600   -3.0190 C   0  0  0  0  0  0  0  0  0  0  0  0
   -4.4430    0.6790   -3.5630 F   0  0  0  0  0  0  0  0  0  0  0  0
   -2.2050   -0.7440   -3.6010 Cl  0  0  0  0  0  0  0  0  0  0  0  0
  1  2  1  0
  2  3  2  3
  3  4  1  0
  3  5  1  0
  5  6  1  0
  5 28  2  3
  7  6  1  6
  7  8  1  0
  7 22  1  0
  8  9  2  0
  8 21  1  0
  9 10  1  0
 10 11  2  0
 10 20  1  0
 11 12  1  0
 12 13  1  0
 12 18  2  0
 13 14  2  0
 13 17  1  0
 14 15  1  0
 15 16  2  0
 16 17  1  0
 18 19  1  0
 19 20  2  0
 20 21  1  0
 22 23  1  1
 22 27  1  0
 23 24  1  0
 24 25  1  0
 25 26  1  0
 26 27  1  0
 28 29  1  0
 28 30  1  0
M  CHG  2   1   1  22   1
M  END
