
     RDKit          3D

 29 29  0  0  0  0  0  0  0  0999 V2000
   -5.7700   -3.4340   -1.0130 C   0  0  0  0  0  0  0  0  0  0  0  0
   -4.3600   -3.8020   -0.9050 C   0  0  0  0  0  0  0  0  0  0  0  0
   -3.2620   -3.1520   -1.0260 C   0  0  0  0  0  0  0  0  0  0  0  0
   -2.0790   -3.9200   -0.8390 O   0  0  0  0  0  0  0  0  0  0  0  0
   -3.0710   -1.7490   -1.3130 C   0  0  0  0  0  0  0  0  0  0  0  0
   -4.0800   -0.8160   -1.2300 C   0  0  0  0  0  0  0  0  0  0  0  0
   -3.9250    0.5380   -1.5060 C   0  0  0  0  0  0  0  0  0  0  0  0
   -5.0980    1.4740   -1.3850 C   0  0  0  0  0  0  0  0  0  0  0  0
   -2.6900    0.9710   -1.8850 C   0  0  0  0  0  0  0  0  0  0  0  0
   -2.4790    2.4300   -2.1920 C   0  0  0  0  0  0  0  0  0  0  0  0
   -1.6350    0.1040   -1.9920 C   0  0  0  0  0  0  0  0  0  0  0  0
   -1.8100   -1.2440   -1.7130 C   0  0  0  0  0  0  0  0  0  0  0  0
   -0.7110   -2.0750   -1.9720 N   0  0  0  0  0  0  0  0  0  0  0  0
    0.6570   -1.6140   -1.9620 C   0  0  0  0  0  0  0  0  0  0  0  0
    1.0230   -1.2610   -0.5420 C   0  0  0  0  0  0  0  0  0  0  0  0
    1.4910   -0.0960   -0.2620 C   0  0  0  0  0  0  0  0  0  0  0  0
    1.6570    0.8370   -1.2950 O   0  0  0  0  0  0  0  0  0  0  0  0
    2.8280    0.9750   -2.0420 C   0  0  0  0  0  0  0  0  0  0  0  0
    1.8860    0.3650    1.0870 C   0  0  0  0  0  0  0  0  0  0  0  0
    2.2870    1.6280    1.1360 C   0  0  0  0  0  0  0  0  0  0  0  0
    2.7320    2.3260    2.3260 C   0  0  0  0  0  0  0  0  0  0  0  0
    2.8230    1.8560    3.4790 O   0  0  0  0  0  0  0  0  0  0  0  0
    3.1180    3.6830    2.2370 O   0  0  0  0  0  0  0  0  0  0  0  0
    3.5610    4.4100    3.3290 C   0  0  0  0  0  0  0  0  0  0  0  0
    4.8490    3.8400    3.8590 C   0  0  0  0  0  0  0  0  0  0  0  0
    5.7710    3.9250    2.7870 O   0  0  0  0  0  0  0  0  0  0  0  0
    1.7640   -0.4070    2.3200 C   0  0  0  0  0  0  0  0  0  0  0  0
    2.7320   -1.4830    2.5990 C   0  0  0  0  0  0  0  0  0  0  0  0
    2.8930   -2.5930    1.7410 N   0  0  0  0  0  0  0  0  0  0  0  0
  1  2  1  0
  2  3  2  3
  3  4  1  0
  3  5  1  0
  5  6  2  0
  5 12  1  0
  6  7  1  0
  7  8  1  0
  7  9  2  0
  9 10  1  0
  9 11  1  0
 11 12  2  0
 12 13  1  0
 13 14  1  0
 14 15  1  0
 15 16  2  3
 16 17  1  0
 16 19  1  0
 17 18  1  0
 19 20  2  3
 19 27  1  0
 20 21  1  0
 21 22  2  0
 21 23  1  0
 23 24  1  0
 24 25  1  0
 25 26  1  0
 27 28  1  0
 28 29  1  0
M  CHG  1  29   1
M  END
