
     RDKit          3D

 13 13  0  0  0  0  0  0  0  0999 V2000
    2.8650    0.7850   -1.3860 C   0  0  0  0  0  0  0  0  0  0  0  0
    1.8540    0.5970   -0.4340 O   0  0  0  0  0  0  0  0  0  0  0  0
    1.1060   -0.5640   -0.3260 C   0  0  0  0  0  0  0  0  0  0  0  0
    1.3800   -1.4790   -1.1460 O   0  0  0  0  0  0  0  0  0  0  0  0
    0.0760   -0.6560    0.7030 C   0  0  1  0  0  0  0  0  0  0  0  0
    0.4470   -1.7910    1.6340 C   0  0  0  0  0  0  0  0  0  0  0  0
    0.0210    0.5220    1.4330 O   0  0  0  0  0  0  0  0  0  0  0  0
   -0.6690    1.4090    0.6220 C   0  0  2  0  0  0  0  0  0  0  0  0
   -1.3210    2.3550    1.4380 O   0  0  0  0  0  0  0  0  0  0  0  0
   -1.6690    0.6180   -0.1880 C   0  0  1  0  0  0  0  0  0  0  0  0
   -1.5670    0.8480   -1.5490 O   0  0  0  0  0  0  0  0  0  0  0  0
   -1.3250   -0.7870    0.1770 C   0  0  1  0  0  0  0  0  0  0  0  0
   -1.4370   -1.6870   -0.8670 O   0  0  0  0  0  0  0  0  0  0  0  0
  1  2  1  0
  2  3  1  0
  3  4  2  0
  3  5  1  0
  5  6  1  1
  5  7  1  0
  5 12  1  0
  7  8  1  0
  8  9  1  1
  8 10  1  0
 10 11  1  6
 10 12  1  0
 12 13  1  6
M  END
