
     RDKit          3D

  9  9  0  0  0  0  0  0  0  0999 V2000
    2.2870   -1.6600   -0.6340 O   0  0  0  0  0  0  0  0  0  0  0  0
    1.9570   -0.5710   -0.1440 C   0  0  0  0  0  0  0  0  0  0  0  0
    2.9560    0.2670    0.3240 O   0  0  0  0  0  0  0  0  0  0  0  0
    0.5430   -0.2230   -0.0830 C   0  0  0  0  0  0  0  0  0  0  0  0
    0.1590    0.9820    0.4580 C   0  0  0  0  0  0  0  0  0  0  0  0
   -1.1900    1.3520    0.5340 C   0  0  0  0  0  0  0  0  0  0  0  0
   -2.1380    0.4750    0.0510 C   0  0  0  0  0  0  0  0  0  0  0  0
   -1.7680   -0.7360   -0.4940 C   0  0  0  0  0  0  0  0  0  0  0  0
   -0.4220   -1.0810   -0.5580 C   0  0  0  0  0  0  0  0  0  0  0  0
  1  2  2  0
  2  3  1  0
  2  4  1  0
  4  5  2  0
  4  9  1  0
  5  6  1  0
  6  7  2  0
  7  8  1  0
  8  9  2  0
M  END
