
     RDKit          3D

 13 13  0  0  0  0  0  0  0  0999 V2000
   -3.0540   -1.4940   -1.3200 O   0  0  0  0  0  0  0  0  0  0  0  0
   -1.6940   -1.2650   -1.0080 C   0  0  0  0  0  0  0  0  0  0  0  0
   -1.6420    0.0710   -0.2810 C   0  0  2  0  0  0  0  0  0  0  0  0
   -2.1460    1.0620   -1.1230 O   0  0  0  0  0  0  0  0  0  0  0  0
   -0.2870    0.4070    0.2510 C   0  0  1  0  0  0  0  0  0  0  0  0
   -0.4550    1.6600    1.1070 C   0  0  0  0  0  0  0  0  0  0  0  0
   -0.8350    2.7410    0.3000 O   0  0  0  0  0  0  0  0  0  0  0  0
    0.2380   -0.6670    1.1420 C   0  0  0  0  0  0  0  0  0  0  0  0
    1.3910   -1.1520    0.4960 O   0  0  0  0  0  0  0  0  0  0  0  0
    1.8080    0.0330   -0.1500 C   0  0  1  0  0  0  0  0  0  0  0  0
    2.8320   -0.3930   -1.1780 C   0  0  0  0  0  0  0  0  0  0  0  0
    3.8900   -1.0210   -0.4920 O   0  0  0  0  0  0  0  0  0  0  0  0
    0.6740    0.5740   -0.7180 O   0  0  0  0  0  0  0  0  0  0  0  0
  1  2  1  0
  2  3  1  0
  3  4  1  6
  3  5  1  0
  5  6  1  1
  5  8  1  0
  5 13  1  0
  6  7  1  0
  8  9  1  0
  9 10  1  0
 10 11  1  6
 10 13  1  0
 11 12  1  0
M  END
