
     RDKit          3D

 13 13  0  0  0  0  0  0  0  0999 V2000
   -0.9860   -2.3920    0.4560 O   0  0  0  0  0  0  0  0  0  0  0  0
   -1.6190   -1.3590   -0.2080 C   0  0  0  0  0  0  0  0  0  0  0  0
   -1.2650   -0.0060    0.3430 C   0  0  2  0  0  0  0  0  0  0  0  0
   -1.6710   -0.0140    1.7010 O   0  0  0  0  0  0  0  0  0  0  0  0
   -2.1140    1.0400   -0.3330 C   0  0  0  0  0  0  0  0  0  0  0  0
   -1.9410    2.3020    0.2160 O   0  0  0  0  0  0  0  0  0  0  0  0
    0.1840    0.2920    0.3290 C   0  0  1  0  0  0  0  0  0  0  0  0
    0.8210   -0.7340    1.0650 O   0  0  0  0  0  0  0  0  0  0  0  0
    2.1000   -0.2520    1.3460 C   0  0  0  0  0  0  0  0  0  0  0  0
    2.8390   -0.2320    0.0090 C   0  0  0  0  0  0  0  0  0  0  0  0
    2.1890    0.6440   -0.8220 O   0  0  0  0  0  0  0  0  0  0  0  0
    0.8340    0.3400   -1.0030 C   0  0  2  0  0  0  0  0  0  0  0  0
    0.3250    1.3000   -1.8550 O   0  0  0  0  0  0  0  0  0  0  0  0
  1  2  1  0
  2  3  1  0
  3  4  1  1
  3  5  1  0
  3  7  1  0
  5  6  1  0
  7  8  1  1
  7 12  1  0
  8  9  1  0
  9 10  1  0
 10 11  1  0
 11 12  1  0
 12 13  1  6
M  END
