
     RDKit          3D

 13 13  0  0  0  0  0  0  0  0999 V2000
    3.2650    0.1020    0.9030 C   0  0  0  0  0  0  0  0  0  0  0  0
    1.9050   -0.2440    1.0250 O   0  0  0  0  0  0  0  0  0  0  0  0
    1.4390   -0.8570   -0.1430 C   0  0  1  0  0  0  0  0  0  0  0  0
    1.0970   -2.1590    0.1410 O   0  0  0  0  0  0  0  0  0  0  0  0
    0.3300   -0.0290   -0.7290 C   0  0  2  0  0  0  0  0  0  0  0  0
    0.8060    1.2620   -1.0630 O   0  0  0  0  0  0  0  0  0  0  0  0
   -0.9080    0.0640    0.0740 C   0  0  1  0  0  0  0  0  0  0  0  0
   -1.6190   -1.2100    0.3720 C   0  0  0  0  0  0  0  0  0  0  0  0
   -2.7820   -0.9890    1.1310 O   0  0  0  0  0  0  0  0  0  0  0  0
   -0.9040    0.9970    1.2500 C   0  0  0  0  0  0  0  0  0  0  0  0
   -2.2110    1.3830    0.8790 O   0  0  0  0  0  0  0  0  0  0  0  0
   -1.8170    1.1780   -0.4320 C   0  0  2  0  0  0  0  0  0  0  0  0
   -2.8350    0.7310   -1.2450 O   0  0  0  0  0  0  0  0  0  0  0  0
  1  2  1  0
  2  3  1  0
  3  4  1  1
  3  5  1  0
  5  6  1  1
  5  7  1  0
  7  8  1  1
  7 10  1  0
  7 12  1  0
  8  9  1  0
 10 11  1  0
 11 12  1  0
 12 13  1  6
M  END
