
     RDKit          3D

 26 30  0  0  0  0  0  0  0  0999 V2000
   -3.6430   -2.2820    1.7700 C   0  0  0  0  0  0  0  0  0  0  0  0
   -3.4470   -1.8490    0.4240 O   0  0  0  0  0  0  0  0  0  0  0  0
   -3.1780   -0.5400    0.1010 C   0  0  0  0  0  0  0  0  0  0  0  0
   -4.2300    0.3610   -0.1020 C   0  0  0  0  0  0  0  0  0  0  0  0
   -5.6560   -0.0860    0.0280 C   0  0  0  0  0  0  0  0  0  0  0  0
   -3.9660    1.6740   -0.4240 C   0  0  0  0  0  0  0  0  0  0  0  0
   -2.6810    2.1580   -0.5600 C   0  0  0  0  0  0  0  0  0  0  0  0
   -2.4110    3.5930   -0.9100 C   0  0  0  0  0  0  0  0  0  0  0  0
   -1.6600    1.2700   -0.3600 C   0  0  0  0  0  0  0  0  0  0  0  0
   -1.9020   -0.0670   -0.0340 C   0  0  0  0  0  0  0  0  0  0  0  0
   -0.9000   -1.1260    0.1690 C   0  0  0  0  0  0  0  0  0  0  0  0
   -1.2890   -2.2650    0.4560 O   0  0  0  0  0  0  0  0  0  0  0  0
    0.5240   -0.9720    0.0660 N   0  0  0  0  0  0  0  0  0  0  0  0
    1.4720   -1.7190    0.9100 C   0  0  0  0  0  0  0  0  0  0  0  0
    2.7840   -1.2520    0.4440 C   0  0  0  0  0  0  0  0  0  0  0  0
    4.0530   -1.6230    0.8870 C   0  0  0  0  0  0  0  0  0  0  0  0
    5.1900   -1.0780    0.3320 C   0  0  0  0  0  0  0  0  0  0  0  0
    5.0540   -0.1600   -0.6700 C   0  0  0  0  0  0  0  0  0  0  0  0
    3.7940    0.2010   -1.1030 C   0  0  0  0  0  0  0  0  0  0  0  0
    2.6490   -0.3260   -0.5670 C   0  0  0  0  0  0  0  0  0  0  0  0
    1.2240   -0.1060   -0.8510 C   0  0  2  0  0  0  0  0  0  0  0  0
    0.8360    1.3110   -0.7030 C   0  0  0  0  0  0  0  0  0  0  0  0
   -0.3310    1.8560   -0.5050 C   0  0  0  0  0  0  0  0  0  0  0  0
    6.3230    0.2340   -1.0580 O   0  0  0  0  0  0  0  0  0  0  0  0
    7.2960   -0.4620   -0.2830 C   0  0  0  0  0  0  0  0  0  0  0  0
    6.5620   -1.2830    0.5980 O   0  0  0  0  0  0  0  0  0  0  0  0
  1  2  1  0
  2  3  1  0
  3  4  2  0
  3 10  1  0
  4  5  1  0
  4  6  1  0
  6  7  2  0
  7  8  1  0
  7  9  1  0
  9 10  2  0
  9 23  1  0
 10 11  1  0
 11 12  2  0
 11 13  1  0
 13 14  1  0
 13 21  1  0
 14 15  1  0
 15 16  2  0
 15 20  1  0
 16 17  1  0
 17 18  2  0
 17 26  1  0
 18 19  1  0
 18 24  1  0
 19 20  2  0
 20 21  1  0
 21 22  1  1
 22 23  2  0
 24 25  1  0
 25 26  1  0
M  END
