
     RDKit          3D

 23 24  0  0  0  0  0  0  0  0999 V2000
    5.5990    1.7070    1.3110 C   0  0  0  0  0  0  0  0  0  0  0  0
    4.8570    1.0060    0.4370 C   0  0  0  0  0  0  0  0  0  0  0  0
    3.4070    1.0260    0.5570 C   0  0  0  0  0  0  0  0  0  0  0  0
    2.6000    0.3650   -0.2590 C   0  0  0  0  0  0  0  0  0  0  0  0
    1.2260    0.4350   -0.0790 O   0  0  0  0  0  0  0  0  0  0  0  0
    0.5400   -0.4490    0.7200 C   0  0  0  0  0  0  0  0  0  0  0  0
    1.2260   -1.3400    1.2830 O   0  0  0  0  0  0  0  0  0  0  0  0
   -0.9060   -0.4310    0.9660 C   0  0  0  0  0  0  0  0  0  0  0  0
   -1.7440   -0.9340   -0.1730 C   0  0  1  0  0  0  0  0  0  0  0  0
   -1.4750   -2.2380   -0.5560 O   0  0  0  0  0  0  0  0  0  0  0  0
   -3.2260   -0.8670    0.1780 C   0  0  2  0  0  0  0  0  0  0  0  0
   -3.5410   -1.9480    1.2250 C   0  0  0  0  0  0  0  0  0  0  0  0
   -4.0650   -1.1700   -0.9100 O   0  0  0  0  0  0  0  0  0  0  0  0
   -5.0910   -0.2040   -0.8180 C   0  0  0  0  0  0  0  0  0  0  0  0
   -6.3090   -0.3110   -1.0970 O   0  0  0  0  0  0  0  0  0  0  0  0
   -4.3540    0.9980   -0.2950 C   0  0  1  0  0  0  0  0  0  0  0  0
   -5.2500    2.0090    0.3350 C   0  0  0  0  0  0  0  0  0  0  0  0
   -3.4940    0.3950    0.6180 O   0  0  0  0  0  0  0  0  0  0  0  0
    3.2360   -0.4030   -1.3080 C   0  0  0  0  0  0  0  0  0  0  0  0
    2.3910   -1.1070   -2.1790 O   0  0  0  0  0  0  0  0  0  0  0  0
    4.5400   -0.4650   -1.4730 C   0  0  0  0  0  0  0  0  0  0  0  0
    5.5140    0.2350   -0.6160 C   0  0  1  0  0  0  0  0  0  0  0  0
    6.3340    1.0450   -1.4270 O   0  0  0  0  0  0  0  0  0  0  0  0
  1  2  2  0
  2  3  1  0
  2 22  1  0
  3  4  2  0
  4  5  1  0
  4 19  1  0
  5  6  1  0
  6  7  2  0
  6  8  1  0
  8  9  1  0
  9 10  1  1
  9 11  1  0
 11 12  1  1
 11 13  1  0
 11 18  1  0
 13 14  1  0
 14 15  2  0
 14 16  1  0
 16 17  1  1
 16 18  1  0
 19 20  1  0
 19 21  2  0
 21 22  1  0
 22 23  1  6
M  END
