
     RDKit          3D

 23 24  0  0  0  0  0  0  0  0999 V2000
    5.7270    0.5520    1.8990 C   0  0  0  0  0  0  0  0  0  0  0  0
    4.3520    0.8990    2.0480 O   0  0  0  0  0  0  0  0  0  0  0  0
    3.3690    0.2710    1.2670 C   0  0  0  0  0  0  0  0  0  0  0  0
    3.7960   -0.5870    0.4630 O   0  0  0  0  0  0  0  0  0  0  0  0
    1.9530    0.6360    1.4280 C   0  0  1  0  0  0  0  0  0  0  0  0
    1.8510    1.5690    2.4840 O   0  0  0  0  0  0  0  0  0  0  0  0
    1.3170    1.2540    0.2150 C   0  0  0  0  0  0  0  0  0  0  0  0
    1.3580    0.3120   -0.9580 C   0  0  0  0  0  0  0  0  0  0  0  0
    0.7030    0.9100   -2.1810 C   0  0  1  0  0  0  0  0  0  0  0  0
    0.7620    0.0480   -3.2190 O   0  0  0  0  0  0  0  0  0  0  0  0
    0.8520   -1.3000   -2.9540 C   0  0  0  0  0  0  0  0  0  0  0  0
   -0.3660   -1.6970   -2.3090 O   0  0  0  0  0  0  0  0  0  0  0  0
   -1.3400   -0.7740   -1.7320 C   0  0  0  0  0  0  0  0  0  0  0  0
   -1.9090   -1.2230   -0.6870 C   0  0  0  0  0  0  0  0  0  0  0  0
   -2.8690   -0.8400    0.2770 C   0  0  0  0  0  0  0  0  0  0  0  0
   -3.2350   -1.6930    1.2710 C   0  0  0  0  0  0  0  0  0  0  0  0
   -4.2080   -1.4160    2.3160 C   0  0  0  0  0  0  0  0  0  0  0  0
   -4.7120   -0.1270    2.3210 O   0  0  0  0  0  0  0  0  0  0  0  0
   -4.3830    0.7770    1.3530 C   0  0  0  0  0  0  0  0  0  0  0  0
   -3.5030    0.4500    0.3710 C   0  0  0  0  0  0  0  0  0  0  0  0
   -3.2830    1.4840   -0.5170 O   0  0  0  0  0  0  0  0  0  0  0  0
   -1.5330    0.5120   -2.4190 C   0  0  0  0  0  0  0  0  0  0  0  0
   -0.5870    1.3840   -1.8780 O   0  0  0  0  0  0  0  0  0  0  0  0
  1  2  1  0
  2  3  1  0
  3  4  2  0
  3  5  1  0
  5  6  1  1
  5  7  1  0
  7  8  1  0
  9  8  1  1
  9 10  1  0
  9 23  1  0
 10 11  1  0
 11 12  1  0
 12 13  1  0
 13 14  2  3
 13 22  1  0
 14 15  1  0
 15 16  2  0
 15 20  1  0
 16 17  1  0
 17 18  1  0
 18 19  1  0
 19 20  2  0
 20 21  1  0
 22 23  1  0
M  END
