
     RDKit          3D

 23 25  0  0  0  0  0  0  0  0999 V2000
   -2.3190    3.1760    0.4820 C   0  0  0  0  0  0  0  0  0  0  0  0
   -2.0620    1.9580    1.1080 O   0  0  0  0  0  0  0  0  0  0  0  0
   -2.1740    0.9020    0.2170 C   0  0  2  0  0  0  0  0  0  0  0  0
   -3.1910    0.1000    0.6450 O   0  0  0  0  0  0  0  0  0  0  0  0
   -3.1250   -1.2300    0.3690 C   0  0  1  0  0  0  0  0  0  0  0  0
   -4.5220   -1.7680    0.0810 C   0  0  0  0  0  0  0  0  0  0  0  0
   -2.2820   -1.5760   -0.8410 C   0  0  0  0  0  0  0  0  0  0  0  0
   -0.9330   -1.0360   -0.5430 C   0  0  0  0  0  0  0  0  0  0  0  0
    0.1530   -1.6800   -0.7640 O   0  0  0  0  0  0  0  0  0  0  0  0
    1.3560   -1.2380   -0.5150 C   0  0  0  0  0  0  0  0  0  0  0  0
    2.4710   -2.0030   -0.7840 C   0  0  0  0  0  0  0  0  0  0  0  0
    3.7350   -1.5640   -0.5330 C   0  0  0  0  0  0  0  0  0  0  0  0
    4.8520   -2.3580   -0.8160 O   0  0  0  0  0  0  0  0  0  0  0  0
    3.8920   -0.2870    0.0190 C   0  0  0  0  0  0  0  0  0  0  0  0
    5.1570    0.0890    0.2430 O   0  0  0  0  0  0  0  0  0  0  0  0
    2.7710    0.5210    0.3070 C   0  0  0  0  0  0  0  0  0  0  0  0
    3.0020    1.8200    0.8730 C   0  0  0  0  0  0  0  0  0  0  0  0
    2.1850    2.6570    1.1890 O   0  0  0  0  0  0  0  0  0  0  0  0
    4.3410    2.2110    1.1070 O   0  0  0  0  0  0  0  0  0  0  0  0
    1.4910    0.0330    0.0350 C   0  0  0  0  0  0  0  0  0  0  0  0
    0.3490    0.7670    0.2900 C   0  0  0  0  0  0  0  0  0  0  0  0
    0.3700    1.9080    0.7780 O   0  0  0  0  0  0  0  0  0  0  0  0
   -0.8790    0.2170   -0.0060 C   0  0  0  0  0  0  0  0  0  0  0  0
  1  2  1  0
  3  2  1  1
  3  4  1  0
  3 23  1  0
  4  5  1  0
  5  6  1  6
  5  7  1  0
  7  8  1  0
  8  9  1  0
  8 23  2  0
  9 10  1  0
 10 11  2  0
 10 20  1  0
 11 12  1  0
 12 13  1  0
 12 14  2  0
 14 15  1  0
 14 16  1  0
 16 17  1  0
 16 20  2  0
 17 18  2  0
 17 19  1  0
 20 21  1  0
 21 22  2  0
 21 23  1  0
M  END
