
     RDKit          3D

 23 24  0  0  0  0  0  0  0  0999 V2000
   -2.7900    3.7030   -0.3970 C   0  0  0  0  0  0  0  0  0  0  0  0
   -1.8670    2.8680   -1.0210 O   0  0  0  0  0  0  0  0  0  0  0  0
   -0.6990    2.7300   -0.3150 C   0  0  1  0  0  0  0  0  0  0  0  0
   -0.4470    1.4330    0.0850 O   0  0  0  0  0  0  0  0  0  0  0  0
   -1.5030    0.9310    0.8670 C   0  0  0  0  0  0  0  0  0  0  0  0
   -1.1700   -0.3770    1.5000 C   0  0  0  0  0  0  0  0  0  0  0  0
   -1.3700   -1.5690    0.6410 C   0  0  2  0  0  0  0  0  0  0  0  0
   -1.5740   -1.2850   -0.8080 C   0  0  0  0  0  0  0  0  0  0  0  0
   -2.9820   -1.8280   -1.0860 C   0  0  0  0  0  0  0  0  0  0  0  0
   -3.6250   -1.6490    0.1590 O   0  0  0  0  0  0  0  0  0  0  0  0
   -2.6990   -2.2420    1.0120 C   0  0  0  0  0  0  0  0  0  0  0  0
   -0.3070   -2.6190    0.7850 C   0  0  0  0  0  0  0  0  0  0  0  0
    1.0910   -2.0930    0.6890 C   0  0  0  0  0  0  0  0  0  0  0  0
    1.2710   -1.1210   -0.2600 O   0  0  0  0  0  0  0  0  0  0  0  0
    2.5030   -0.5160   -0.0140 C   0  0  1  0  0  0  0  0  0  0  0  0
    2.5540   -0.1760    1.3360 O   0  0  0  0  0  0  0  0  0  0  0  0
    3.6630   -1.4630   -0.2800 C   0  0  0  0  0  0  0  0  0  0  0  0
    3.7020   -1.9090   -1.5790 O   0  0  0  0  0  0  0  0  0  0  0  0
    2.6780    0.7600   -0.7980 C   0  0  0  0  0  0  0  0  0  0  0  0
    2.3130    1.9790    0.0600 C   0  0  0  0  0  0  0  0  0  0  0  0
    1.7830    3.0170   -0.6990 O   0  0  0  0  0  0  0  0  0  0  0  0
    0.4880    3.2380   -1.0440 C   0  0  0  0  0  0  0  0  0  0  0  0
    0.2710    3.9430   -2.0850 O   0  0  0  0  0  0  0  0  0  0  0  0
  1  2  1  0
  3  2  1  6
  3  4  1  0
  3 22  1  0
  4  5  1  0
  5  6  1  0
  7  6  1  1
  7  8  1  0
  7 11  1  0
  7 12  1  0
  8  9  1  0
  9 10  1  0
 10 11  1  0
 12 13  1  0
 13 14  1  0
 14 15  1  0
 15 16  1  1
 15 17  1  0
 15 19  1  0
 17 18  1  0
 19 20  1  0
 20 21  1  0
 21 22  1  0
 22 23  2  0
M  END
