
     RDKit          3D

 23 24  0  0  0  0  0  0  0  0999 V2000
    4.3620   -1.8480   -0.7580 C   0  0  0  0  0  0  0  0  0  0  0  0
    3.7610   -0.5260   -0.4110 C   0  0  0  0  0  0  0  0  0  0  0  0
    4.5060    0.5720   -0.3320 C   0  0  0  0  0  0  0  0  0  0  0  0
    3.8800    1.7590   -0.0040 O   0  0  0  0  0  0  0  0  0  0  0  0
    2.5250    1.8500    0.2430 C   0  0  0  0  0  0  0  0  0  0  0  0
    2.0180    2.7880    0.9190 O   0  0  0  0  0  0  0  0  0  0  0  0
    1.6300    0.8010   -0.3120 C   0  0  1  0  0  0  0  0  0  0  0  0
    1.4480    1.0860   -1.6830 O   0  0  0  0  0  0  0  0  0  0  0  0
    0.3200    1.7450   -2.1630 C   0  0  0  0  0  0  0  0  0  0  0  0
    0.2190    2.0440   -3.3880 O   0  0  0  0  0  0  0  0  0  0  0  0
   -0.8270    2.1400   -1.2920 C   0  0  0  0  0  0  0  0  0  0  0  0
   -1.5880    1.0190   -1.0380 O   0  0  0  0  0  0  0  0  0  0  0  0
   -2.1660    1.0330    0.2170 C   0  0  1  0  0  0  0  0  0  0  0  0
   -3.3410    1.7780    0.1760 O   0  0  0  0  0  0  0  0  0  0  0  0
   -2.4410   -0.3160    0.8070 C   0  0  2  0  0  0  0  0  0  0  0  0
   -3.9900   -0.4210    0.9110 C   0  0  0  0  0  0  0  0  0  0  0  0
   -1.9790   -0.4010    2.2470 C   0  0  0  0  0  0  0  0  0  0  0  0
   -0.6180   -0.1820    2.4110 O   0  0  0  0  0  0  0  0  0  0  0  0
   -2.0580   -1.4710   -0.0220 C   0  0  0  0  0  0  0  0  0  0  0  0
   -0.6860   -1.6010   -0.5430 C   0  0  0  0  0  0  0  0  0  0  0  0
    0.3400   -1.7270    0.4100 O   0  0  0  0  0  0  0  0  0  0  0  0
    1.6930   -1.6350    0.1700 C   0  0  0  0  0  0  0  0  0  0  0  0
    2.3220   -0.4980   -0.1760 C   0  0  0  0  0  0  0  0  0  0  0  0
  1  2  1  0
  2  3  2  0
  2 23  1  0
  3  4  1  0
  4  5  1  0
  5  6  2  0
  5  7  1  0
  7  8  1  6
  7 23  1  0
  8  9  1  0
  9 10  2  0
  9 11  1  0
 11 12  1  0
 12 13  1  0
 13 14  1  6
 13 15  1  0
 15 16  1  1
 15 17  1  0
 15 19  1  0
 17 18  1  0
 19 20  1  0
 20 21  1  0
 21 22  1  0
 22 23  2  0
M  END
