
     RDKit          3D

 33 36  0  0  0  0  0  0  0  0999 V2000
    8.4350    3.9880    0.4600 C   0  0  0  0  0  0  0  0  0  0  0  0
    7.8610    2.7510   -0.0090 N   0  0  0  0  0  0  0  0  0  0  0  0
    6.7100    2.2110    0.6050 C   0  0  0  0  0  0  0  0  0  0  0  0
    6.1110    2.7430    1.5770 O   0  0  0  0  0  0  0  0  0  0  0  0
    6.1760    0.9390    0.0680 C   0  0  0  0  0  0  0  0  0  0  0  0
    6.7640    0.3940   -0.8960 O   0  0  0  0  0  0  0  0  0  0  0  0
    5.0280    0.3340    0.6200 N   0  0  0  0  0  0  0  0  0  0  0  0
    4.4310   -0.8810    0.2030 C   0  0  0  0  0  0  0  0  0  0  0  0
    5.1080   -1.7900   -0.5520 C   0  0  0  0  0  0  0  0  0  0  0  0
    4.4790   -2.9680   -0.9780 C   0  0  0  0  0  0  0  0  0  0  0  0
    3.1700   -3.1980   -0.6260 C   0  0  0  0  0  0  0  0  0  0  0  0
    2.5640   -4.3190   -1.0370 N   0  0  0  0  0  0  0  0  0  0  0  0
    1.2780   -4.5860   -0.7210 C   0  0  0  0  0  0  0  0  0  0  0  0
    0.7050   -5.6330   -1.1030 O   0  0  0  0  0  0  0  0  0  0  0  0
    0.6010   -3.6740    0.0380 C   0  0  0  0  0  0  0  0  0  0  0  0
    1.1710   -2.4900    0.4970 C   0  0  0  0  0  0  0  0  0  0  0  0
    0.1980   -1.3390    1.4740 S   0  0  0  0  0  0  0  0  0  0  0  0
   -0.5560   -0.0530    0.4130 C   0  0  0  0  0  0  0  0  0  0  0  0
   -1.4840   -0.6980   -0.5210 C   0  0  0  0  0  0  0  0  0  0  0  0
   -1.0010   -1.6850   -1.1860 O   0  0  0  0  0  0  0  0  0  0  0  0
   -2.8010   -0.3350   -0.7340 N   0  0  0  0  0  0  0  0  0  0  0  0
   -3.6120   -1.0500   -1.7070 C   0  0  0  0  0  0  0  0  0  0  0  0
   -4.0520   -0.0360   -2.7750 C   0  0  0  0  0  0  0  0  0  0  0  0
   -4.0330    1.2690   -2.2270 O   0  0  0  0  0  0  0  0  0  0  0  0
   -4.5780    1.1880   -0.9710 C   0  0  2  0  0  0  0  0  0  0  0  0
   -5.0780    2.4820   -0.4350 C   0  0  0  0  0  0  0  0  0  0  0  0
   -5.3590    2.4850    1.0200 C   0  0  0  0  0  0  0  0  0  0  0  0
   -5.1660    1.2000    1.7350 C   0  0  1  0  0  0  0  0  0  0  0  0
   -6.4920    0.4480    1.8680 C   0  0  0  0  0  0  0  0  0  0  0  0
   -4.1360    0.2680    1.2140 C   0  0  0  0  0  0  0  0  0  0  0  0
   -3.4330    0.7460   -0.0330 C   0  0  1  0  0  0  0  0  0  0  0  0
    2.4850   -2.2590    0.1490 C   0  0  0  0  0  0  0  0  0  0  0  0
    3.0920   -1.1000    0.5730 C   0  0  0  0  0  0  0  0  0  0  0  0
  1  2  1  0
  2  3  1  0
  3  4  2  0
  3  5  1  0
  5  6  2  0
  5  7  1  0
  7  8  1  0
  8  9  2  0
  8 33  1  0
  9 10  1  0
 10 11  2  0
 11 12  1  0
 11 32  1  0
 12 13  1  0
 13 14  2  0
 13 15  1  0
 15 16  2  0
 16 17  1  0
 16 32  1  0
 17 18  1  0
 18 19  1  0
 19 20  2  0
 19 21  1  0
 21 22  1  0
 21 31  1  0
 22 23  1  0
 23 24  1  0
 24 25  1  0
 25 26  1  1
 25 31  1  0
 26 27  1  0
 27 28  1  0
 28 29  1  6
 28 30  1  0
 31 30  1  1
 32 33  2  0
M  END
