
     RDKit          3D

 33 36  0  0  0  0  0  0  0  0999 V2000
   -6.2740    1.2260   -0.5490 C   0  0  0  0  0  0  0  0  0  0  0  0
   -5.5560    0.1400   -0.4930 C   0  0  0  0  0  0  0  0  0  0  0  0
   -5.9500   -1.0090    0.3520 C   0  0  0  0  0  0  0  0  0  0  0  0
   -4.7080   -1.7450    0.8740 C   0  0  2  0  0  0  0  0  0  0  0  0
   -5.0260   -2.3900    2.1820 C   0  0  0  0  0  0  0  0  0  0  0  0
   -3.6010   -0.6870    1.0040 C   0  0  0  0  0  0  0  0  0  0  0  0
   -3.2630   -0.1960   -0.2940 N   0  0  0  0  0  0  0  0  0  0  0  0
   -1.8680    0.1040   -0.6640 C   0  0  0  0  0  0  0  0  0  0  0  0
   -0.9650   -0.0970    0.4410 C   0  0  2  0  0  0  0  0  0  0  0  0
   -0.9780    0.5700    1.7340 C   0  0  0  0  0  0  0  0  0  0  0  0
    0.2640    0.6740    0.7690 C   0  0  2  0  0  0  0  0  0  0  0  0
    0.5420    2.1370    0.4510 C   0  0  0  0  0  0  0  0  0  0  0  0
   -1.6090    0.7100   -1.7770 C   0  0  0  0  0  0  0  0  0  0  0  0
    0.0570    1.0630   -2.2930 S   0  0  0  0  0  0  0  0  0  0  0  0
    1.2580   -0.1100   -1.7710 C   0  0  0  0  0  0  0  0  0  0  0  0
    2.5340    0.1970   -1.8690 C   0  0  0  0  0  0  0  0  0  0  0  0
    3.0410    1.4630   -2.3910 C   0  0  0  0  0  0  0  0  0  0  0  0
    2.1810    2.3040   -2.7700 O   0  0  0  0  0  0  0  0  0  0  0  0
    4.4370    1.7320   -2.4660 N   0  0  0  0  0  0  0  0  0  0  0  0
    5.3900    0.7760   -2.0350 C   0  0  0  0  0  0  0  0  0  0  0  0
    6.6350    0.9780   -2.0870 O   0  0  0  0  0  0  0  0  0  0  0  0
    4.9460   -0.4780   -1.5170 N   0  0  0  0  0  0  0  0  0  0  0  0
    5.8950   -1.4800   -1.0690 C   0  0  0  0  0  0  0  0  0  0  0  0
    6.1680   -1.2420    0.3760 C   0  0  0  0  0  0  0  0  0  0  0  0
    6.9240   -2.0170    0.9350 O   0  0  0  0  0  0  0  0  0  0  0  0
    5.5450   -0.1070    1.1070 C   0  0  0  0  0  0  0  0  0  0  0  0
    6.0050   -0.1580    2.5340 C   0  0  0  0  0  0  0  0  0  0  0  0
    3.5340   -0.7680   -1.4330 C   0  0  0  0  0  0  0  0  0  0  0  0
    3.1470   -1.8730   -0.9770 O   0  0  0  0  0  0  0  0  0  0  0  0
   -2.7040    1.2490   -2.6210 C   0  0  0  0  0  0  0  0  0  0  0  0
   -2.3980    1.8290   -3.6930 O   0  0  0  0  0  0  0  0  0  0  0  0
   -4.0300    1.0800   -2.1730 N   0  0  0  0  0  0  0  0  0  0  0  0
   -4.2970    0.0120   -1.2750 C   0  0  2  0  0  0  0  0  0  0  0  0
  1  2  2  0
  2  3  1  0
  2 33  1  0
  3  4  1  0
  4  5  1  1
  4  6  1  0
  6  7  1  0
  7  8  1  0
  7 33  1  0
  9  8  1  6
  8 13  2  0
  9 10  1  0
  9 11  1  0
 10 11  1  0
 11 12  1  6
 13 14  1  0
 13 30  1  0
 14 15  1  0
 15 16  2  3
 16 17  1  0
 16 28  1  0
 17 18  2  0
 17 19  1  0
 19 20  1  0
 20 21  2  0
 20 22  1  0
 22 23  1  0
 22 28  1  0
 23 24  1  0
 24 25  2  0
 24 26  1  0
 26 27  1  0
 28 29  2  0
 30 31  2  0
 30 32  1  0
 33 32  1  1
M  END
