
     RDKit          3D

 32 35  0  0  0  0  0  0  0  0999 V2000
   -1.4350    1.0890    2.9690 C   0  0  0  0  0  0  0  0  0  0  0  0
   -1.6280    1.9910    1.8090 C   0  0  0  0  0  0  0  0  0  0  0  0
   -1.6560    1.4310    0.4600 C   0  0  2  0  0  0  0  0  0  0  0  0
   -1.8760    2.5850   -0.5350 C   0  0  0  0  0  0  0  0  0  0  0  0
   -3.2820    3.0930   -0.3420 C   0  0  0  0  0  0  0  0  0  0  0  0
   -4.3620    2.0770   -0.4140 C   0  0  0  0  0  0  0  0  0  0  0  0
   -4.5070    1.1430    0.7280 C   0  0  0  0  0  0  0  0  0  0  0  0
   -3.6320    0.0010    0.7390 N   0  0  0  0  0  0  0  0  0  0  0  0
   -4.3220   -1.1030    0.0990 C   0  0  0  0  0  0  0  0  0  0  0  0
   -2.4580    0.3050    0.0020 C   0  0  2  0  0  0  0  0  0  0  0  0
   -1.2920   -0.6200   -0.0180 C   0  0  1  0  0  0  0  0  0  0  0  0
   -1.1590   -1.6510    1.0450 C   0  0  0  0  0  0  0  0  0  0  0  0
   -0.5960   -2.9830    0.5450 C   0  0  0  0  0  0  0  0  0  0  0  0
   -1.5400   -3.4710   -0.5150 C   0  0  0  0  0  0  0  0  0  0  0  0
   -1.4450   -2.5300   -1.6810 C   0  0  0  0  0  0  0  0  0  0  0  0
   -0.8940   -1.1890   -1.3800 C   0  0  0  0  0  0  0  0  0  0  0  0
   -0.4060    0.6250    0.1890 C   0  0  1  0  0  0  0  0  0  0  0  0
    0.3760    1.0350   -0.9220 N   0  0  0  0  0  0  0  0  0  0  0  0
    1.8100    1.1660   -0.7760 C   0  0  0  0  0  0  0  0  0  0  0  0
    2.3560    0.9160    0.3340 O   0  0  0  0  0  0  0  0  0  0  0  0
    2.6510    1.5930   -1.9220 C   0  0  0  0  0  0  0  0  0  0  0  0
    3.9930    1.6170   -1.4880 O   0  0  0  0  0  0  0  0  0  0  0  0
    4.6840    0.5260   -1.0170 C   0  0  0  0  0  0  0  0  0  0  0  0
    4.0690   -0.5750   -0.9730 O   0  0  0  0  0  0  0  0  0  0  0  0
    6.0890    0.6240   -0.5780 C   0  0  0  0  0  0  0  0  0  0  0  0
    6.6970   -0.4320   -0.1420 C   0  0  0  0  0  0  0  0  0  0  0  0
    5.9890   -2.0700   -0.0090 S   0  0  0  0  0  0  0  0  0  0  0  0
    7.5490   -2.9270    0.2320 C   0  0  0  0  0  0  0  0  0  0  0  0
    7.7520   -4.1760    0.1510 O   0  0  0  0  0  0  0  0  0  0  0  0
    8.4800   -1.9020    0.5290 N   0  0  0  0  0  0  0  0  0  0  0  0
    8.0550   -0.6010    0.3410 C   0  0  0  0  0  0  0  0  0  0  0  0
    8.7880    0.4330    0.5670 O   0  0  0  0  0  0  0  0  0  0  0  0
  1  2  1  0
  3  2  1  1
  3  4  1  0
  3 10  1  0
  3 17  1  0
  4  5  1  0
  5  6  1  0
  6  7  1  0
  7  8  1  0
  8  9  1  0
 10  8  1  1
 10 11  1  0
 11 12  1  1
 11 16  1  0
 11 17  1  0
 12 13  1  0
 13 14  1  0
 14 15  1  0
 15 16  1  0
 17 18  1  6
 18 19  1  0
 19 20  2  0
 19 21  1  0
 21 22  1  0
 22 23  1  0
 23 24  2  0
 23 25  1  0
 25 26  2  3
 26 27  1  0
 26 31  1  0
 27 28  1  0
 28 29  2  0
 28 30  1  0
 30 31  1  0
 31 32  2  0
M  END
