
     RDKit          3D

 33 37  0  0  0  0  0  0  0  0999 V2000
   -4.9920   -2.4900   -0.6840 C   0  0  0  0  0  0  0  0  0  0  0  0
   -4.8520   -1.0100   -0.8360 C   0  0  0  0  0  0  0  0  0  0  0  0
   -4.1480   -0.4250    0.3570 C   0  0  2  0  0  0  0  0  0  0  0  0
   -4.8860   -0.6770    1.6460 C   0  0  0  0  0  0  0  0  0  0  0  0
   -6.2560   -0.0590    1.5960 C   0  0  0  0  0  0  0  0  0  0  0  0
   -6.2850    1.3010    0.9800 C   0  0  0  0  0  0  0  0  0  0  0  0
   -4.9820    1.9260    0.7070 C   0  0  0  0  0  0  0  0  0  0  0  0
   -3.8790    1.0340    0.2550 C   0  0  2  0  0  0  0  0  0  0  0  0
   -3.4420    1.3240   -1.1740 C   0  0  0  0  0  0  0  0  0  0  0  0
   -2.6770    1.2200    1.1050 C   0  0  0  0  0  0  0  0  0  0  0  0
   -2.3870    2.2750    1.7130 O   0  0  0  0  0  0  0  0  0  0  0  0
   -1.9740   -0.0230    1.0620 N   0  0  0  0  0  0  0  0  0  0  0  0
   -0.6110   -0.2080    1.5440 C   0  0  0  0  0  0  0  0  0  0  0  0
    0.3320    0.0530    0.4340 C   0  0  0  0  0  0  0  0  0  0  0  0
   -0.0730    0.3760   -0.7070 O   0  0  0  0  0  0  0  0  0  0  0  0
    1.7310   -0.0570    0.6320 N   0  0  0  0  0  0  0  0  0  0  0  0
    2.6750    0.2020   -0.4710 C   0  0  0  0  0  0  0  0  0  0  0  0
    4.0450    0.0050    0.0550 C   0  0  0  0  0  0  0  0  0  0  0  0
    5.1480    0.2700   -1.0380 C   0  0  2  0  0  0  0  0  0  0  0  0
    4.9260   -0.6840   -2.1390 C   0  0  0  0  0  0  0  0  0  0  0  0
    5.0650   -2.4090   -1.4660 S   0  0  0  0  0  0  0  0  0  0  0  0
    6.5600   -2.4140   -0.4940 C   0  0  0  0  0  0  0  0  0  0  0  0
    7.0120   -1.2550   -0.0380 C   0  0  0  0  0  0  0  0  0  0  0  0
    8.1840   -0.8390    0.7730 C   0  0  0  0  0  0  0  0  0  0  0  0
    9.0480   -1.6170    1.2480 O   0  0  0  0  0  0  0  0  0  0  0  0
    8.0950    0.5980    0.8790 N   0  0  0  0  0  0  0  0  0  0  0  0
    6.9240    1.0430    0.1670 C   0  0  0  0  0  0  0  0  0  0  0  0
    6.3820   -0.0160   -0.2990 C   0  0  0  0  0  0  0  0  0  0  0  0
    6.1760    2.2180   -0.3520 C   0  0  0  0  0  0  0  0  0  0  0  0
    6.4240    3.4120   -0.0880 O   0  0  0  0  0  0  0  0  0  0  0  0
    5.1550    1.6560   -1.1870 N   0  0  0  0  0  0  0  0  0  0  0  0
   -2.8030   -1.0170    0.4900 C   0  0  0  0  0  0  0  0  0  0  0  0
   -2.4560   -2.1620    0.1670 O   0  0  0  0  0  0  0  0  0  0  0  0
  1  2  1  0
  3  2  1  6
  3  4  1  0
  3  8  1  0
  3 32  1  0
  4  5  1  0
  5  6  1  0
  6  7  1  0
  7  8  1  0
  8  9  1  6
  8 10  1  0
 10 11  2  0
 10 12  1  0
 12 13  1  0
 12 32  1  0
 13 14  1  0
 14 15  2  0
 14 16  1  0
 16 17  1  0
 17 18  1  0
 19 18  1  1
 19 20  1  0
 19 28  1  0
 19 31  1  0
 20 21  1  0
 21 22  1  0
 22 23  2  0
 23 24  1  0
 23 28  1  0
 24 25  2  0
 24 26  1  0
 26 27  1  0
 27 28  2  0
 27 29  1  0
 29 30  2  0
 29 31  1  0
 32 33  2  0
M  END
