
     RDKit          3D

 33 37  0  0  0  0  0  0  0  0999 V2000
   -0.6260   -4.4600   -0.3320 C   0  0  0  0  0  0  0  0  0  0  0  0
   -0.6190   -2.9830   -0.6420 C   0  0  1  0  0  0  0  0  0  0  0  0
   -1.0710   -2.1410    0.5310 C   0  0  0  0  0  0  0  0  0  0  0  0
   -1.0090   -0.6780    0.0540 C   0  0  1  0  0  0  0  0  0  0  0  0
   -1.9010    0.1170    0.7940 O   0  0  0  0  0  0  0  0  0  0  0  0
   -3.0400    0.6660    0.2400 C   0  0  0  0  0  0  0  0  0  0  0  0
   -3.2520    0.4170   -0.9850 O   0  0  0  0  0  0  0  0  0  0  0  0
   -3.9770    1.5090    1.0420 C   0  0  0  0  0  0  0  0  0  0  0  0
   -5.2830    0.8320    1.1380 C   0  0  0  0  0  0  0  0  0  0  0  0
   -5.7720    0.1600    2.2640 C   0  0  0  0  0  0  0  0  0  0  0  0
   -6.9880   -0.3350    1.9910 N   0  0  0  0  0  0  0  0  0  0  0  0
   -7.3040   -0.0040    0.7130 C   0  0  0  0  0  0  0  0  0  0  0  0
   -6.2750    0.7050    0.1890 C   0  0  0  0  0  0  0  0  0  0  0  0
   -6.5560    1.0440   -1.0600 C   0  0  0  0  0  0  0  0  0  0  0  0
   -7.9000    0.5030   -1.3830 C   0  0  0  0  0  0  0  0  0  0  0  0
   -8.2940   -0.1700   -0.1250 C   0  0  0  0  0  0  0  0  0  0  0  0
    0.3750   -0.1730    0.1240 C   0  0  0  0  0  0  0  0  0  0  0  0
    1.3680   -0.8610   -0.3610 C   0  0  0  0  0  0  0  0  0  0  0  0
    2.7820   -0.4310   -0.3330 C   0  0  0  0  0  0  0  0  0  0  0  0
    3.6110   -1.2320   -0.8450 O   0  0  0  0  0  0  0  0  0  0  0  0
    3.1950    0.7820    0.2230 N   0  0  0  0  0  0  0  0  0  0  0  0
    4.5470    1.1950    0.2690 C   0  0  0  0  0  0  0  0  0  0  0  0
    4.8360    2.5610    0.4240 C   0  0  0  0  0  0  0  0  0  0  0  0
    6.1180    3.0490    0.5090 C   0  0  0  0  0  0  0  0  0  0  0  0
    7.2020    2.1950    0.4430 C   0  0  0  0  0  0  0  0  0  0  0  0
    6.9400    0.8530    0.2910 C   0  0  0  0  0  0  0  0  0  0  0  0
    5.6260    0.3590    0.2050 C   0  0  0  0  0  0  0  0  0  0  0  0
    8.0620   -0.0260    0.2260 N   0  0  0  0  0  0  0  0  0  0  0  0
    9.3800    0.5040    0.3190 C   0  0  0  0  0  0  0  0  0  0  0  0
   10.3670   -0.2870    0.2600 O   0  0  0  0  0  0  0  0  0  0  0  0
    9.6250    1.8600    0.4710 O   0  0  0  0  0  0  0  0  0  0  0  0
    8.5260    2.7010    0.5320 N   0  0  0  0  0  0  0  0  0  0  0  0
    1.0180   -2.4460   -1.1340 S   0  0  0  0  0  0  0  0  0  0  0  0
  2  1  1  1
  2  3  1  0
  2 33  1  0
  3  4  1  0
  4  5  1  1
  4 17  1  0
  5  6  1  0
  6  7  2  0
  6  8  1  0
  8  9  1  0
  9 10  2  0
  9 13  1  0
 10 11  1  0
 11 12  1  0
 12 13  1  0
 12 16  2  0
 13 14  2  0
 14 15  1  0
 15 16  1  0
 17 18  2  0
 18 19  1  0
 18 33  1  0
 19 20  2  0
 19 21  1  0
 21 22  1  0
 22 23  2  0
 22 27  1  0
 23 24  1  0
 24 25  2  0
 25 26  1  0
 25 32  1  0
 26 27  2  0
 26 28  1  0
 28 29  1  0
 29 30  2  0
 29 31  1  0
 31 32  1  0
M  END
