
     RDKit          3D

 32 35  0  0  0  0  0  0  0  0999 V2000
   -4.8910   -1.3010    2.2120 C   0  0  0  0  0  0  0  0  0  0  0  0
   -4.1450   -0.9100    0.9920 C   0  0  0  0  0  0  0  0  0  0  0  0
   -2.9770   -1.3420    0.5810 N   0  0  0  0  0  0  0  0  0  0  0  0
   -2.6700   -0.7070   -0.6070 C   0  0  0  0  0  0  0  0  0  0  0  0
   -1.3800   -0.9770   -1.2830 C   0  0  1  0  0  0  0  0  0  0  0  0
   -1.2210   -0.5600   -2.6710 C   0  0  0  0  0  0  0  0  0  0  0  0
   -0.3210   -0.6030   -0.3530 N   0  0  0  0  0  0  0  0  0  0  0  0
    0.4420   -1.4750    0.4270 C   0  0  0  0  0  0  0  0  0  0  0  0
    0.2410   -2.7040    0.3190 O   0  0  0  0  0  0  0  0  0  0  0  0
    1.4600   -1.0140    1.3850 C   0  0  0  0  0  0  0  0  0  0  0  0
    1.3820   -1.6000    2.6580 C   0  0  0  0  0  0  0  0  0  0  0  0
    2.1300   -1.1240    3.6980 C   0  0  0  0  0  0  0  0  0  0  0  0
    2.0510   -1.6620    4.9510 C   0  0  0  0  0  0  0  0  0  0  0  0
    2.7850   -1.1780    6.0170 C   0  0  0  0  0  0  0  0  0  0  0  0
    3.6200   -0.1100    5.7750 C   0  0  0  0  0  0  0  0  0  0  0  0
    3.7070    0.4420    4.5140 C   0  0  0  0  0  0  0  0  0  0  0  0
    2.9750   -0.0370    3.4440 C   0  0  0  0  0  0  0  0  0  0  0  0
    3.0460    0.5220    2.1950 C   0  0  0  0  0  0  0  0  0  0  0  0
    2.2810    0.0400    1.1160 C   0  0  0  0  0  0  0  0  0  0  0  0
    2.5210    0.6010   -0.2080 C   0  0  0  0  0  0  0  0  0  0  0  0
    2.0990    1.7360   -0.4810 O   0  0  0  0  0  0  0  0  0  0  0  0
    3.2460   -0.1480   -1.1750 N   0  0  0  0  0  0  0  0  0  0  0  0
    3.5180    0.3220   -2.5020 C   0  0  0  0  0  0  0  0  0  0  0  0
    3.0110    1.3570   -3.1250 C   0  0  0  0  0  0  0  0  0  0  0  0
    3.6050    1.4500   -4.5000 C   0  0  0  0  0  0  0  0  0  0  0  0
    4.5310    0.3180   -4.4990 C   0  0  0  0  0  0  0  0  0  0  0  0
    4.4590   -0.3050   -3.3610 N   0  0  0  0  0  0  0  0  0  0  0  0
   -3.6540    0.1010   -0.9020 N   0  0  0  0  0  0  0  0  0  0  0  0
   -3.8330    0.9890   -2.0110 C   0  0  1  0  0  0  0  0  0  0  0  0
   -5.3510    1.2990   -2.1370 C   0  0  0  0  0  0  0  0  0  0  0  0
   -3.2110    2.3630   -1.8020 C   0  0  0  0  0  0  0  0  0  0  0  0
   -4.5700   -0.0220    0.0900 N   0  0  0  0  0  0  0  0  0  0  0  0
  1  2  1  0
  2  3  1  0
  2 32  2  0
  3  4  2  0
  4  5  1  0
  4 28  1  0
  5  6  1  6
  5  7  1  0
  7  8  1  0
  8  9  2  0
  8 10  1  0
 10 11  2  0
 10 19  1  0
 11 12  1  0
 12 13  2  0
 12 17  1  0
 13 14  1  0
 14 15  2  0
 15 16  1  0
 16 17  2  0
 17 18  1  0
 18 19  2  0
 19 20  1  0
 20 21  2  0
 20 22  1  0
 22 23  1  0
 23 24  2  0
 23 27  1  0
 24 25  1  0
 25 26  1  0
 26 27  2  0
 28 29  1  0
 28 32  1  0
 29 30  1  1
 29 31  1  0
M  END
