
     RDKit          3D

 33 35  0  0  0  0  0  0  0  0999 V2000
   -0.2780   -1.9750    2.3040 C   0  0  0  0  0  0  0  0  0  0  0  0
   -0.5970   -1.3030    1.1090 O   0  0  0  0  0  0  0  0  0  0  0  0
   -1.8310   -1.5450    0.4490 C   0  0  0  0  0  0  0  0  0  0  0  0
   -2.5600   -2.3780    1.0200 O   0  0  0  0  0  0  0  0  0  0  0  0
   -2.0890   -0.8120   -0.7810 C   0  0  2  0  0  0  0  0  0  0  0  0
   -3.3890   -1.0370   -1.4550 C   0  0  0  0  0  0  0  0  0  0  0  0
   -4.5670   -0.6840   -0.6230 C   0  0  0  0  0  0  0  0  0  0  0  0
   -5.2880   -1.5900    0.1200 C   0  0  0  0  0  0  0  0  0  0  0  0
   -6.3620   -1.1320    0.8810 C   0  0  0  0  0  0  0  0  0  0  0  0
   -6.7230    0.1880    0.9130 C   0  0  0  0  0  0  0  0  0  0  0  0
   -6.0120    1.1220    0.1720 C   0  0  0  0  0  0  0  0  0  0  0  0
   -6.3780    2.5230    0.1910 C   0  0  0  0  0  0  0  0  0  0  0  0
   -7.4840    2.9350    0.9830 N   0  0  0  0  0  0  0  0  0  0  0  0
   -5.7420    3.4010   -0.4790 N   0  0  0  0  0  0  0  0  0  0  0  0
   -4.9600    0.6510   -0.5690 C   0  0  0  0  0  0  0  0  0  0  0  0
   -0.9810   -1.0120   -1.8060 C   0  0  1  0  0  0  0  0  0  0  0  0
   -1.3150   -0.2200   -3.0620 C   0  0  0  0  0  0  0  0  0  0  0  0
    0.2940   -0.5440   -1.3380 N   0  0  0  0  0  0  0  0  0  0  0  0
    1.4590   -1.3430   -1.2370 C   0  0  0  0  0  0  0  0  0  0  0  0
    1.3210   -2.5460   -1.5940 O   0  0  0  0  0  0  0  0  0  0  0  0
    2.7410   -0.8800   -0.7690 C   0  0  0  0  0  0  0  0  0  0  0  0
    2.9270    0.4170   -0.3640 C   0  0  0  0  0  0  0  0  0  0  0  0
    4.1840    0.8460    0.0870 C   0  0  0  0  0  0  0  0  0  0  0  0
    5.2580   -0.0170    0.1350 C   0  0  0  0  0  0  0  0  0  0  0  0
    6.5690    0.4390    0.6070 C   0  0  0  0  0  0  0  0  0  0  0  0
    7.7490   -0.0930    0.1270 C   0  0  0  0  0  0  0  0  0  0  0  0
    8.9700    0.3800    0.6130 C   0  0  0  0  0  0  0  0  0  0  0  0
    9.0480    1.3450    1.5420 N   0  0  0  0  0  0  0  0  0  0  0  0
   10.2950    1.7640    1.9770 O   0  0  0  0  0  0  0  0  0  0  0  0
    7.9120    1.8820    2.0280 C   0  0  0  0  0  0  0  0  0  0  0  0
    6.6730    1.4320    1.5630 C   0  0  0  0  0  0  0  0  0  0  0  0
    5.0550   -1.3170   -0.2760 C   0  0  0  0  0  0  0  0  0  0  0  0
    3.7990   -1.7460   -0.7270 C   0  0  0  0  0  0  0  0  0  0  0  0
  1  2  1  0
  2  3  1  0
  3  4  2  0
  3  5  1  0
  5  6  1  6
  5 16  1  0
  6  7  1  0
  7  8  2  0
  7 15  1  0
  8  9  1  0
  9 10  2  0
 10 11  1  0
 11 12  1  0
 11 15  2  0
 12 13  1  0
 12 14  2  0
 16 17  1  6
 16 18  1  0
 18 19  1  0
 19 20  2  0
 19 21  1  0
 21 22  2  0
 21 33  1  0
 22 23  1  0
 23 24  2  0
 24 25  1  0
 24 32  1  0
 25 26  2  0
 25 31  1  0
 26 27  1  0
 27 28  2  0
 28 29  1  0
 28 30  1  0
 30 31  2  0
 32 33  2  0
M  CHG  3  14   1  28   1  29  -1
M  END
