
     RDKit          3D

 32 35  0  0  0  0  0  0  0  0999 V2000
   -4.0090   -4.6580    1.5920 C   0  0  0  0  0  0  0  0  0  0  0  0
   -3.3420   -3.3370    1.9970 C   0  0  0  0  0  0  0  0  0  0  0  0
   -3.5410   -2.2970    0.9180 C   0  0  0  0  0  0  0  0  0  0  0  0
   -2.9140   -1.0290    1.3130 C   0  0  1  0  0  0  0  0  0  0  0  0
   -1.4460   -1.1390    1.5390 C   0  0  0  0  0  0  0  0  0  0  0  0
   -0.8470   -1.6930    2.6170 N   0  0  0  0  0  0  0  0  0  0  0  0
    0.4710   -1.5930    2.5350 C   0  0  0  0  0  0  0  0  0  0  0  0
    1.3760   -2.0820    3.5070 C   0  0  0  0  0  0  0  0  0  0  0  0
    2.1260   -2.5050    4.3090 N   0  0  0  0  0  0  0  0  0  0  0  0
    0.7480   -0.9360    1.3350 C   0  0  0  0  0  0  0  0  0  0  0  0
    2.0800   -0.6420    0.9150 N   0  0  0  0  0  0  0  0  0  0  0  0
    2.4230    0.0270   -0.2770 C   0  0  0  0  0  0  0  0  0  0  0  0
    1.4390    0.3690   -1.0100 O   0  0  0  0  0  0  0  0  0  0  0  0
    3.7790    0.3450   -0.6990 C   0  0  0  0  0  0  0  0  0  0  0  0
    3.9600    1.5640   -1.3890 C   0  0  0  0  0  0  0  0  0  0  0  0
    5.2060    1.9940   -1.7670 C   0  0  0  0  0  0  0  0  0  0  0  0
    6.3490    1.2710   -1.4990 C   0  0  0  0  0  0  0  0  0  0  0  0
    7.6700    1.8040   -1.9340 C   0  0  0  0  0  0  0  0  0  0  0  0
    6.1840    0.0860   -0.8320 C   0  0  0  0  0  0  0  0  0  0  0  0
    4.9080   -0.3630   -0.4420 C   0  0  0  0  0  0  0  0  0  0  0  0
    4.8410   -1.6930    0.2130 C   0  0  0  0  0  0  0  0  0  0  0  0
   -0.4440   -0.6860    0.7750 N   0  0  0  0  0  0  0  0  0  0  0  0
   -3.2530    0.1290    0.4850 N   0  0  0  0  0  0  0  0  0  0  0  0
   -3.7730    1.2850    1.1560 C   0  0  0  0  0  0  0  0  0  0  0  0
   -3.8870    2.4870    0.3210 C   0  0  0  0  0  0  0  0  0  0  0  0
   -4.2260    3.7380    0.6500 C   0  0  0  0  0  0  0  0  0  0  0  0
   -4.2080    4.6090   -0.5370 C   0  0  0  0  0  0  0  0  0  0  0  0
   -3.8190    3.7070   -1.6300 C   0  0  0  0  0  0  0  0  0  0  0  0
   -3.6410    2.5010   -1.1040 C   0  0  0  0  0  0  0  0  0  0  0  0
   -3.2110    1.2730   -1.6950 N   0  0  0  0  0  0  0  0  0  0  0  0
   -3.0320    0.1210   -0.9020 C   0  0  0  0  0  0  0  0  0  0  0  0
   -2.6610   -0.9670   -1.4520 O   0  0  0  0  0  0  0  0  0  0  0  0
  1  2  1  0
  2  3  1  0
  4  3  1  6
  4  5  1  0
  4 23  1  0
  5  6  2  0
  5 22  1  0
  6  7  1  0
  7  8  1  0
  7 10  2  0
  8  9  3  0
 10 11  1  0
 10 22  1  0
 11 12  1  0
 12 13  2  0
 12 14  1  0
 14 15  2  0
 14 20  1  0
 15 16  1  0
 16 17  2  0
 17 18  1  0
 17 19  1  0
 19 20  2  0
 20 21  1  0
 23 24  1  0
 23 31  1  0
 24 25  1  0
 25 26  2  0
 25 29  1  0
 26 27  1  0
 27 28  1  0
 28 29  2  0
 29 30  1  0
 30 31  1  0
 31 32  2  0
M  END
