
     RDKit          3D

 33 36  0  0  0  0  0  0  0  0999 V2000
   -0.9150    0.5800   -1.6270 C   0  0  0  0  0  0  0  0  0  0  0  0
   -0.5870    1.1460   -0.3080 C   0  0  1  0  0  0  0  0  0  0  0  0
   -0.9370    2.4870    0.0830 C   0  0  0  0  0  0  0  0  0  0  0  0
   -0.7870    2.8110    1.4560 C   0  0  0  0  0  0  0  0  0  0  0  0
   -1.0540    4.0110    2.0010 C   0  0  0  0  0  0  0  0  0  0  0  0
   -1.5110    5.0210    1.1710 C   0  0  0  0  0  0  0  0  0  0  0  0
   -1.6550    4.7080   -0.1520 C   0  0  0  0  0  0  0  0  0  0  0  0
   -2.0700    5.6130   -0.9200 O   0  0  0  0  0  0  0  0  0  0  0  0
   -1.3740    3.4730   -0.6820 N   0  0  0  0  0  0  0  0  0  0  0  0
   -1.5470    3.3090   -2.0710 C   0  0  0  0  0  0  0  0  0  0  0  0
   -0.8560    0.1790    0.7930 N   0  0  0  0  0  0  0  0  0  0  0  0
   -2.1860    0.1360    1.3580 C   0  0  0  0  0  0  0  0  0  0  0  0
   -3.1940   -0.8060    0.9540 C   0  0  1  0  0  0  0  0  0  0  0  0
   -4.3130   -0.5510    1.8480 O   0  0  0  0  0  0  0  0  0  0  0  0
   -3.8620   -0.6400   -0.4020 C   0  0  0  0  0  0  0  0  0  0  0  0
   -3.5620   -1.9130   -1.1610 C   0  0  0  0  0  0  0  0  0  0  0  0
   -2.7820   -2.7420   -0.2420 N   0  0  0  0  0  0  0  0  0  0  0  0
   -1.9890   -3.8700   -0.6620 C   0  0  0  0  0  0  0  0  0  0  0  0
   -2.9580   -2.2380    1.0830 C   0  0  0  0  0  0  0  0  0  0  0  0
   -2.9140   -2.9160    2.1200 O   0  0  0  0  0  0  0  0  0  0  0  0
    0.0940   -0.6260    1.4040 C   0  0  0  0  0  0  0  0  0  0  0  0
   -0.3740   -1.2970    2.4250 O   0  0  0  0  0  0  0  0  0  0  0  0
    1.4700   -0.8740    1.1550 C   0  0  0  0  0  0  0  0  0  0  0  0
    2.2940   -1.3930    2.1940 C   0  0  0  0  0  0  0  0  0  0  0  0
    3.5960   -1.7330    2.0270 C   0  0  0  0  0  0  0  0  0  0  0  0
    4.2090   -1.5930    0.8250 C   0  0  0  0  0  0  0  0  0  0  0  0
    3.4850   -1.1030   -0.2200 C   0  0  0  0  0  0  0  0  0  0  0  0
    2.1320   -0.7540   -0.0380 C   0  0  0  0  0  0  0  0  0  0  0  0
    4.0930   -0.9280   -1.4930 N   0  0  0  0  0  0  0  0  0  0  0  0
    5.4370   -0.4550   -1.6390 C   0  0  0  0  0  0  0  0  0  0  0  0
    6.4630   -1.2730   -0.9450 C   0  0  0  0  0  0  0  0  0  0  0  0
    5.9050   -2.0380    0.5520 S   0  0  0  0  0  0  0  0  0  0  0  0
    5.9730   -3.5490    0.4250 O   0  0  0  0  0  0  0  0  0  0  0  0
  2  1  1  6
  2  3  1  0
  2 11  1  0
  3  4  2  0
  3  9  1  0
  4  5  1  0
  5  6  2  0
  6  7  1  0
  7  8  2  0
  7  9  1  0
  9 10  1  0
 11 12  1  0
 11 21  1  0
 12 13  1  0
 13 14  1  1
 13 15  1  0
 13 19  1  0
 15 16  1  0
 16 17  1  0
 17 18  1  0
 17 19  1  0
 19 20  2  0
 21 22  2  0
 21 23  1  0
 23 24  2  0
 23 28  1  0
 24 25  1  0
 25 26  2  0
 26 27  1  0
 26 32  1  0
 27 28  2  0
 27 29  1  0
 29 30  1  0
 30 31  1  0
 32 31  1  6
 32 33  2  0
M  END
