
     RDKit          3D

 33 36  0  0  0  0  0  0  0  0999 V2000
   -6.1530   -4.3430    0.4110 C   0  0  0  0  0  0  0  0  0  0  0  0
   -4.8640   -3.6210    0.5530 C   0  0  0  0  0  0  0  0  0  0  0  0
   -4.6390   -2.4080   -0.0490 C   0  0  0  0  0  0  0  0  0  0  0  0
   -3.4350   -1.7170    0.0660 C   0  0  0  0  0  0  0  0  0  0  0  0
   -2.4270   -2.2410    0.7970 C   0  0  0  0  0  0  0  0  0  0  0  0
   -1.1530   -1.6080    0.9930 C   0  0  0  0  0  0  0  0  0  0  0  0
   -0.2550   -2.2990    1.6680 O   0  0  0  0  0  0  0  0  0  0  0  0
   -0.6650   -0.3620    0.5940 N   0  0  0  0  0  0  0  0  0  0  0  0
    0.7710   -0.0950    0.8830 C   0  0  0  0  0  0  0  0  0  0  0  0
    1.6430   -0.5680   -0.2100 C   0  0  0  0  0  0  0  0  0  0  0  0
    1.0400   -1.1400   -1.1840 O   0  0  0  0  0  0  0  0  0  0  0  0
    3.0520   -0.4210   -0.2190 N   0  0  0  0  0  0  0  0  0  0  0  0
    3.8790   -0.9260   -1.3330 C   0  0  0  0  0  0  0  0  0  0  0  0
    5.0680    0.0060   -1.4310 C   0  0  1  0  0  0  0  0  0  0  0  0
    5.0090    0.5960   -2.7760 N   0  0  0  0  0  0  0  0  0  0  0  0
    4.8200    0.9870   -0.3570 C   0  0  2  0  0  0  0  0  0  0  0  0
    6.0290    1.3770    0.4520 C   0  0  0  0  0  0  0  0  0  0  0  0
    5.1960    1.9200    1.9600 S   0  0  2  0  0  0  0  0  0  0  0  0
    5.1450    3.4030    2.0170 O   0  0  0  0  0  0  0  0  0  0  0  0
    5.7920    1.2770    3.1610 O   0  0  0  0  0  0  0  0  0  0  0  0
    3.5680    1.2110    1.6000 C   0  0  0  0  0  0  0  0  0  0  0  0
    4.0090    0.1450    0.6480 C   0  0  1  0  0  0  0  0  0  0  0  0
   -1.4450    0.6280   -0.0210 C   0  0  0  0  0  0  0  0  0  0  0  0
   -2.2700    1.3590    0.8450 C   0  0  0  0  0  0  0  0  0  0  0  0
   -3.0720    2.3910    0.3570 C   0  0  0  0  0  0  0  0  0  0  0  0
   -3.0900    2.7290   -0.9610 C   0  0  0  0  0  0  0  0  0  0  0  0
   -3.8700    3.7560   -1.5560 N   0  0  0  0  0  0  0  0  0  0  0  0
   -4.7680    4.6100   -0.8890 C   0  0  0  0  0  0  0  0  0  0  0  0
   -4.9640    4.5370    0.3330 O   0  0  0  0  0  0  0  0  0  0  0  0
   -2.2670    2.0010   -1.8270 C   0  0  0  0  0  0  0  0  0  0  0  0
   -1.4790    0.9840   -1.3360 C   0  0  0  0  0  0  0  0  0  0  0  0
   -2.6340   -3.4710    1.4170 C   0  0  0  0  0  0  0  0  0  0  0  0
   -3.8200   -4.1400    1.2960 C   0  0  0  0  0  0  0  0  0  0  0  0
  1  2  1  0
  2  3  2  0
  2 33  1  0
  3  4  1  0
  4  5  2  0
  5  6  1  0
  5 32  1  0
  6  7  2  0
  6  8  1  0
  8  9  1  0
  8 23  1  0
  9 10  1  0
 10 11  2  0
 10 12  1  0
 12 13  1  0
 12 22  1  0
 13 14  1  0
 14 15  1  6
 14 16  1  0
 16 17  1  1
 16 22  1  0
 18 17  1  6
 18 19  2  0
 18 20  2  0
 18 21  1  0
 22 21  1  1
 23 24  2  0
 23 31  1  0
 24 25  1  0
 25 26  2  0
 26 27  1  0
 26 30  1  0
 27 28  1  0
 28 29  2  0
 30 31  2  0
 32 33  2  0
M  END
