
     RDKit          3D

 20 22  0  0  0  0  0  0  0  0999 V2000
   -4.1900   -0.2860    2.3360 N   0  0  0  0  0  0  0  0  0  0  0  0
   -4.0740    0.5110    1.1310 C   0  0  2  0  0  0  0  0  0  0  0  0
   -5.0960    0.1170    0.1180 C   0  0  0  0  0  0  0  0  0  0  0  0
   -4.4320   -0.7950   -0.8580 C   0  0  0  0  0  0  0  0  0  0  0  0
   -3.0230   -0.4780   -0.7180 N   0  0  0  0  0  0  0  0  0  0  0  0
   -1.9840   -0.8230   -1.5770 N   0  0  0  0  0  0  0  0  0  0  0  0
   -0.6330   -0.4250   -1.2920 C   0  0  0  0  0  0  0  0  0  0  0  0
    0.2480   -0.7160   -2.1290 O   0  0  0  0  0  0  0  0  0  0  0  0
   -0.3190    0.2880   -0.0770 C   0  0  2  0  0  0  0  0  0  0  0  0
    0.6200   -0.4110    0.7840 N   0  0  0  0  0  0  0  0  0  0  0  0
    1.9480    0.6630    1.1340 S   0  0  2  0  0  0  0  0  0  0  0  0
    2.7800    0.1170    2.2210 O   0  0  0  0  0  0  0  0  0  0  0  0
    1.3520    1.9650    1.6660 O   0  0  0  0  0  0  0  0  0  0  0  0
    2.7660    1.0460   -0.3780 C   0  0  0  0  0  0  0  0  0  0  0  0
    3.4080   -0.1010   -1.0290 C   0  0  0  0  0  0  0  0  0  0  0  0
    4.6470   -0.6920   -0.5030 C   0  0  1  0  0  0  0  0  0  0  0  0
    5.9890   -0.1100   -0.4180 C   0  0  0  0  0  0  0  0  0  0  0  0
    5.1420   -0.0710    0.8060 C   0  0  0  0  0  0  0  0  0  0  0  0
   -1.5430    0.6350    0.7370 C   0  0  0  0  0  0  0  0  0  0  0  0
   -2.7480    0.2700    0.4500 C   0  0  0  0  0  0  0  0  0  0  0  0
  2  1  1  1
  2  3  1  0
  2 20  1  0
  3  4  1  0
  4  5  1  0
  5  6  1  0
  5 20  1  0
  6  7  1  0
  7  8  2  0
  7  9  1  0
  9 10  1  1
  9 19  1  0
 10 11  1  0
 11 12  2  0
 11 13  2  0
 11 14  1  6
 14 15  1  0
 16 15  1  6
 16 17  1  0
 16 18  1  0
 17 18  1  0
 19 20  2  0
M  CHG  1   1   1
M  END
