
     RDKit          3D

 20 21  0  0  0  0  0  0  0  0999 V2000
   -4.4020    1.4510   -0.5420 N   0  0  0  0  0  0  0  0  0  0  0  0
   -3.2880    0.9290    0.2340 C   0  0  1  0  0  0  0  0  0  0  0  0
   -3.7840    0.3840    1.5560 C   0  0  0  0  0  0  0  0  0  0  0  0
   -2.9940   -0.6240    2.0560 O   0  0  0  0  0  0  0  0  0  0  0  0
   -1.6640   -0.5610    1.6370 C   0  0  0  0  0  0  0  0  0  0  0  0
   -1.6520   -0.9580    0.1540 C   0  0  2  0  0  0  0  0  0  0  0  0
   -2.1970   -2.3480    0.1890 N   0  0  0  0  0  0  0  0  0  0  0  0
   -0.2520   -1.0230   -0.3750 C   0  0  0  0  0  0  0  0  0  0  0  0
    0.5000    0.1340   -0.3030 N   0  0  0  0  0  0  0  0  0  0  0  0
    0.1880    1.2070   -1.1440 C   0  0  0  0  0  0  0  0  0  0  0  0
    1.4490    2.0210   -1.3540 C   0  0  0  0  0  0  0  0  0  0  0  0
    2.4890    1.3690   -0.5050 C   0  0  0  0  0  0  0  0  0  0  0  0
    1.8570    0.1310    0.0260 C   0  0  2  0  0  0  0  0  0  0  0  0
    2.6410   -1.0760   -0.4050 C   0  0  0  0  0  0  0  0  0  0  0  0
    4.0380   -0.9110    0.0370 C   0  0  0  0  0  0  0  0  0  0  0  0
    5.0110   -1.8440   -0.2730 O   0  0  0  0  0  0  0  0  0  0  0  0
    4.3730    0.1150    0.7250 N   0  0  0  0  0  0  0  0  0  0  0  0
    5.9740    0.4350    1.3090 S   0  0  0  0  0  0  0  0  0  0  0  0
    6.3900   -0.6830    2.2560 O   0  0  0  0  0  0  0  0  0  0  0  0
   -2.6300   -0.1530   -0.6150 C   0  0  0  0  0  0  0  0  0  0  0  0
  2  1  1  6
  2  3  1  0
  2 20  1  0
  3  4  1  0
  4  5  1  0
  5  6  1  0
  6  7  1  1
  6  8  1  0
  6 20  1  0
  8  9  1  0
  9 10  1  0
  9 13  1  0
 10 11  1  0
 11 12  1  0
 12 13  1  0
 13 14  1  6
 14 15  1  0
 15 16  1  0
 15 17  2  3
 17 18  1  0
 18 19  2  0
M  CHG  2   1   1   7   1
M  END
