
     RDKit          3D

 20 21  0  0  0  0  0  0  0  0999 V2000
   -0.0410   -0.6080    0.8910 O   0  0  0  0  0  0  0  0  0  0  0  0
   -0.0960   -0.3350   -0.3330 C   0  0  0  0  0  0  0  0  0  0  0  0
    0.9900   -0.6590   -1.1640 N   0  0  0  0  0  0  0  0  0  0  0  0
    2.2200   -1.2800   -0.7890 C   0  0  0  0  0  0  0  0  0  0  0  0
    3.0010   -0.4330    0.1530 C   0  0  2  0  0  0  0  0  0  0  0  0
    2.3490   -0.1870    1.3190 O   0  0  0  0  0  0  0  0  0  0  0  0
    3.2890    0.8780   -0.5690 C   0  0  0  0  0  0  0  0  0  0  0  0
    4.7890    0.9660   -0.7440 C   0  0  0  0  0  0  0  0  0  0  0  0
    5.4080    0.8690    0.6420 C   0  0  0  0  0  0  0  0  0  0  0  0
    5.2050   -0.3900    1.1540 O   0  0  0  0  0  0  0  0  0  0  0  0
    4.2990   -1.1600    0.4690 C   0  0  0  0  0  0  0  0  0  0  0  0
   -1.2760    0.3070   -0.8570 N   0  0  0  0  0  0  0  0  0  0  0  0
   -2.3070    0.5940    0.0390 N   0  0  0  0  0  0  0  0  0  0  0  0
   -3.6240    0.0500   -0.1390 C   0  0  0  0  0  0  0  0  0  0  0  0
   -4.0070   -0.6960   -1.1340 N   0  0  0  0  0  0  0  0  0  0  0  0
   -5.3990   -1.0670   -0.9940 C   0  0  0  0  0  0  0  0  0  0  0  0
   -5.6090   -0.9560    0.5020 C   0  0  0  0  0  0  0  0  0  0  0  0
   -4.7410    0.2450    0.7760 C   0  0  0  0  0  0  0  0  0  0  0  0
   -4.9570    1.2100    1.6240 C   0  0  0  0  0  0  0  0  0  0  0  0
   -3.9210    2.6130    1.9210 S   0  0  0  0  0  0  0  0  0  0  0  0
  1  2  2  0
  2  3  1  0
  2 12  1  0
  3  4  1  0
  4  5  1  0
  5  6  1  1
  5  7  1  0
  5 11  1  0
  7  8  1  0
  8  9  1  0
  9 10  1  0
 10 11  1  0
 12 13  1  0
 13 14  1  0
 14 15  2  0
 14 18  1  0
 15 16  1  0
 16 17  1  0
 17 18  1  0
 18 19  2  3
 19 20  1  0
M  CHG  1  15   1
M  END
