
     RDKit          3D

 20 21  0  0  0  0  0  0  0  0999 V2000
   -3.1920   -0.2690    1.5380 C   0  0  0  0  0  0  0  0  0  0  0  0
   -3.3010    0.0290    0.1490 N   0  0  0  0  0  0  0  0  0  0  0  0
   -2.0460    0.2800   -0.5570 C   0  0  1  0  0  0  0  0  0  0  0  0
   -1.9010    1.7810   -0.5130 C   0  0  0  0  0  0  0  0  0  0  0  0
   -1.9020    2.3170    0.7680 O   0  0  0  0  0  0  0  0  0  0  0  0
   -0.9730   -0.5800   -0.0610 C   0  0  1  0  0  0  0  0  0  0  0  0
   -1.2620   -1.9410   -0.0160 O   0  0  0  0  0  0  0  0  0  0  0  0
    0.4160   -0.3030   -0.4270 C   0  0  0  0  0  0  0  0  0  0  0  0
    1.1330    0.7960    0.0090 C   0  0  0  0  0  0  0  0  0  0  0  0
    2.4830    0.7990    0.4170 C   0  0  0  0  0  0  0  0  0  0  0  0
    3.1010    1.7460    1.1650 C   0  0  0  0  0  0  0  0  0  0  0  0
    2.3150    3.1110    1.6630 S   0  0  0  0  0  0  0  0  0  0  0  0
    4.3930    1.3970    1.3980 N   0  0  0  0  0  0  0  0  0  0  0  0
    4.6660    0.2060    0.8030 C   0  0  0  0  0  0  0  0  0  0  0  0
    5.7820   -0.3770    0.8380 O   0  0  0  0  0  0  0  0  0  0  0  0
    3.5070   -0.2050    0.1810 C   0  0  0  0  0  0  0  0  0  0  0  0
    3.3400   -1.3430   -0.5060 N   0  0  0  0  0  0  0  0  0  0  0  0
    2.2870   -1.8380   -1.0900 N   0  0  0  0  0  0  0  0  0  0  0  0
    1.0460   -1.3460   -1.1250 C   0  0  0  0  0  0  0  0  0  0  0  0
    0.1970   -1.9870   -2.1360 C   0  0  0  0  0  0  0  0  0  0  0  0
  1  2  1  0
  2  3  1  0
  3  4  1  1
  3  6  1  0
  4  5  1  0
  6  7  1  6
  6  8  1  0
  8  9  1  0
  8 19  2  0
  9 10  2  0
 10 11  1  0
 10 16  1  0
 11 12  2  0
 11 13  1  0
 13 14  1  0
 14 15  2  0
 14 16  1  0
 16 17  2  0
 17 18  1  0
 18 19  1  0
 19 20  1  0
M  CHG  1   2   1
M  END
