
     RDKit          3D

 20 22  0  0  0  0  0  0  0  0999 V2000
   -3.6060   -1.1420   -1.6660 O   0  0  0  0  0  0  0  0  0  0  0  0
   -3.8870   -0.5550   -0.5960 C   0  0  0  0  0  0  0  0  0  0  0  0
   -5.1320    0.2130   -0.2380 C   0  0  1  0  0  0  0  0  0  0  0  0
   -5.8490   -0.5770    0.6330 O   0  0  0  0  0  0  0  0  0  0  0  0
   -4.5200    1.3660    0.5360 C   0  0  0  0  0  0  0  0  0  0  0  0
   -3.4780    0.6800    1.3800 C   0  0  0  0  0  0  0  0  0  0  0  0
   -3.0710   -0.4750    0.5660 N   0  0  0  0  0  0  0  0  0  0  0  0
   -1.9980   -1.3990    0.8900 C   0  0  0  0  0  0  0  0  0  0  0  0
   -0.7120   -0.9360    0.3220 C   0  0  0  0  0  0  0  0  0  0  0  0
   -0.1940   -1.2590   -0.8920 N   0  0  0  0  0  0  0  0  0  0  0  0
    0.9770   -0.6270   -1.0000 C   0  0  0  0  0  0  0  0  0  0  0  0
    1.1920    0.0950    0.1530 C   0  0  0  0  0  0  0  0  0  0  0  0
    0.1300   -0.1100    0.9640 N   0  0  0  0  0  0  0  0  0  0  0  0
    2.4200    0.9110    0.3320 C   0  0  0  0  0  0  0  0  0  0  0  0
    3.4560    0.6780   -0.7160 C   0  0  1  0  0  0  0  0  0  0  0  0
    4.8570    0.9530   -0.2380 C   0  0  0  0  0  0  0  0  0  0  0  0
    5.3420   -0.0720    1.1510 S   0  0  0  0  0  0  0  0  0  0  0  0
    5.4460   -1.7130    0.7040 O   0  0  0  0  0  0  0  0  0  0  0  0
    3.3030   -0.6240   -1.3250 N   0  0  0  0  0  0  0  0  0  0  0  0
    2.0240   -0.5560   -2.0520 C   0  0  0  0  0  0  0  0  0  0  0  0
  1  2  2  0
  2  3  1  0
  2  7  1  0
  3  4  1  1
  3  5  1  0
  5  6  1  0
  6  7  1  0
  7  8  1  0
  8  9  1  0
  9 10  2  0
  9 13  1  0
 10 11  1  0
 11 12  2  0
 11 20  1  0
 12 13  1  0
 12 14  1  0
 14 15  1  0
 15 16  1  1
 15 19  1  0
 16 17  1  0
 17 18  1  0
 19 20  1  0
M  CHG  1  19   1
M  END
