
     RDKit          3D

 20 21  0  0  0  0  0  0  0  0999 V2000
    0.5520    1.6360    0.8340 N   0  0  0  0  0  0  0  0  0  0  0  0
    1.5920    0.7750    0.4390 C   0  0  0  0  0  0  0  0  0  0  0  0
    2.1230    0.1290    1.4320 N   0  0  0  0  0  0  0  0  0  0  0  0
    3.1860   -0.8130    1.3940 C   0  0  0  0  0  0  0  0  0  0  0  0
    4.2690   -0.4480    0.4000 C   0  0  0  0  0  0  0  0  0  0  0  0
    3.7390   -0.7230   -0.9870 C   0  0  0  0  0  0  0  0  0  0  0  0
    3.2120    0.5960   -1.5340 C   0  0  0  0  0  0  0  0  0  0  0  0
    1.8820    0.7570   -0.9240 N   0  0  0  0  0  0  0  0  0  0  0  0
    0.8590    0.9010   -1.8860 C   0  0  0  0  0  0  0  0  0  0  0  0
   -0.5530    0.9550   -1.4670 C   0  0  0  0  0  0  0  0  0  0  0  0
   -0.8510   -0.2760   -0.7880 O   0  0  0  0  0  0  0  0  0  0  0  0
   -2.1130   -0.5280   -0.2710 C   0  0  0  0  0  0  0  0  0  0  0  0
   -3.1510    0.2430   -0.4970 C   0  0  0  0  0  0  0  0  0  0  0  0
   -4.5000   -0.0160    0.0490 C   0  0  2  0  0  0  0  0  0  0  0  0
   -5.0050    1.4250    0.9960 S   0  0  0  0  0  0  0  0  0  0  0  0
   -4.8020    1.1350    2.4790 O   0  0  0  0  0  0  0  0  0  0  0  0
   -4.5360   -1.2090    0.8520 N   0  0  0  0  0  0  0  0  0  0  0  0
   -3.4210   -2.0530    1.1030 C   0  0  0  0  0  0  0  0  0  0  0  0
   -2.2700   -1.7150    0.5610 C   0  0  0  0  0  0  0  0  0  0  0  0
   -1.1840   -2.5560    0.8190 O   0  0  0  0  0  0  0  0  0  0  0  0
  1  2  1  0
  2  3  2  0
  2  8  1  0
  3  4  1  0
  4  5  1  0
  5  6  1  0
  6  7  1  0
  7  8  1  0
  8  9  1  0
  9 10  1  0
 10 11  1  0
 11 12  1  0
 12 13  2  0
 12 19  1  0
 13 14  1  0
 14 15  1  1
 14 17  1  0
 15 16  2  0
 17 18  1  0
 18 19  2  0
 19 20  1  0
M  CHG  1   3   1
M  END
