
     RDKit          3D

 19 20  0  0  0  0  0  0  0  0999 V2000
   -4.1370    1.3020    1.4240 C   0  0  0  0  0  0  0  0  0  0  0  0
   -2.9940    0.6440    0.6820 C   0  0  2  0  0  0  0  0  0  0  0  0
   -3.4270    0.3570   -0.7550 C   0  0  0  0  0  0  0  0  0  0  0  0
   -2.1480    0.1480   -1.5150 C   0  0  0  0  0  0  0  0  0  0  0  0
   -1.2650   -0.8330   -0.7530 C   0  0  1  0  0  0  0  0  0  0  0  0
    0.0770   -0.2250   -0.7870 C   0  0  0  0  0  0  0  0  0  0  0  0
    0.5720    0.0860   -2.0170 N   0  0  0  0  0  0  0  0  0  0  0  0
    1.7950    0.5600   -2.2190 N   0  0  0  0  0  0  0  0  0  0  0  0
    2.6020    0.7510   -1.1300 C   0  0  0  0  0  0  0  0  0  0  0  0
    4.2340    1.4260   -1.3970 S   0  0  0  0  0  0  0  0  0  0  0  0
    5.0110    1.5070    0.2750 C   0  0  0  0  0  0  0  0  0  0  0  0
    5.3220    0.1060    0.6990 C   0  0  0  0  0  0  0  0  0  0  0  0
    6.3340   -0.3790   -0.1390 O   0  0  0  0  0  0  0  0  0  0  0  0
    2.1550    0.4650    0.0760 N   0  0  0  0  0  0  0  0  0  0  0  0
    0.8950   -0.0270    0.2400 C   0  0  0  0  0  0  0  0  0  0  0  0
    0.5530   -0.2870    1.4180 O   0  0  0  0  0  0  0  0  0  0  0  0
   -1.7730   -1.5030    0.4080 C   0  0  2  0  0  0  0  0  0  0  0  0
   -2.5690   -2.6970    0.0280 N   0  0  0  0  0  0  0  0  0  0  0  0
   -2.6760   -0.7070    1.3100 C   0  0  0  0  0  0  0  0  0  0  0  0
  2  1  1  1
  2  3  1  0
  2 19  1  0
  3  4  1  0
  4  5  1  0
  5  6  1  1
  5 17  1  0
  6  7  2  0
  6 15  1  0
  7  8  1  0
  8  9  2  0
  9 10  1  0
  9 14  1  0
 10 11  1  0
 11 12  1  0
 12 13  1  0
 14 15  1  0
 15 16  2  0
 17 18  1  6
 17 19  1  0
M  CHG  1   8   1
M  END
