
     RDKit          3D

 19 20  0  0  0  0  0  0  0  0999 V2000
    4.2210    1.8380    0.5990 C   0  0  0  0  0  0  0  0  0  0  0  0
    3.8570    0.6890   -0.3190 C   0  0  2  0  0  0  0  0  0  0  0  0
    4.2290    1.0440   -1.6550 N   0  0  0  0  0  0  0  0  0  0  0  0
    2.3730    0.4010   -0.2110 C   0  0  0  0  0  0  0  0  0  0  0  0
    1.9680   -0.6250   -1.0110 O   0  0  0  0  0  0  0  0  0  0  0  0
    0.6530   -0.9480   -0.9840 C   0  0  0  0  0  0  0  0  0  0  0  0
    0.0990   -1.3770    0.3460 C   0  0  0  0  0  0  0  0  0  0  0  0
   -1.3070   -1.7020    0.2660 N   0  0  0  0  0  0  0  0  0  0  0  0
   -1.8420   -2.9350    0.0140 C   0  0  0  0  0  0  0  0  0  0  0  0
   -1.1080   -3.9410   -0.1760 O   0  0  0  0  0  0  0  0  0  0  0  0
   -3.1690   -2.8490    0.0130 N   0  0  0  0  0  0  0  0  0  0  0  0
   -3.5350   -1.5540    0.2650 C   0  0  0  0  0  0  0  0  0  0  0  0
   -2.3620   -0.8700    0.4160 C   0  0  0  0  0  0  0  0  0  0  0  0
   -2.1720    0.4190    0.6620 C   0  0  0  0  0  0  0  0  0  0  0  0
   -3.0250    1.5530    0.8720 C   0  0  0  0  0  0  0  0  0  0  0  0
   -2.3460    2.7690    1.1130 O   0  0  0  0  0  0  0  0  0  0  0  0
   -4.3410    1.6120    0.8700 C   0  0  0  0  0  0  0  0  0  0  0  0
   -5.5790    0.3660    0.6180 S   0  0  0  0  0  0  0  0  0  0  0  0
   -4.8090   -1.1970    0.3180 C   0  0  0  0  0  0  0  0  0  0  0  0
  2  1  1  1
  2  3  1  0
  2  4  1  0
  4  5  1  0
  5  6  1  0
  6  7  1  0
  7  8  1  0
  8  9  1  0
  8 13  1  0
  9 10  2  0
  9 11  1  0
 11 12  1  0
 12 13  1  0
 12 19  2  0
 13 14  2  0
 14 15  1  0
 15 16  1  0
 15 17  2  0
 17 18  1  0
 18 19  1  0
M  CHG  1   3   1
M  END
