
     RDKit          3D

 20 21  0  0  0  0  0  0  0  0999 V2000
   -3.6900    0.8760    1.9080 C   0  0  0  0  0  0  0  0  0  0  0  0
   -2.8570    0.6730    0.6730 C   0  0  0  0  0  0  0  0  0  0  0  0
   -3.3460    0.9260   -0.5370 C   0  0  0  0  0  0  0  0  0  0  0  0
   -2.2600    0.6460   -1.9430 S   0  0  0  0  0  0  0  0  0  0  0  0
   -1.3570    1.9050   -2.1940 N   0  0  0  0  0  0  0  0  0  0  0  0
   -1.2310   -0.7990   -1.5270 C   0  0  0  0  0  0  0  0  0  0  0  0
   -1.3120   -1.0650   -0.0400 C   0  0  1  0  0  0  0  0  0  0  0  0
   -2.4350   -1.8570    0.1850 O   0  0  0  0  0  0  0  0  0  0  0  0
   -0.1100   -1.8230    0.4670 C   0  0  2  0  0  0  0  0  0  0  0  0
   -0.2620   -2.0600    1.8450 O   0  0  0  0  0  0  0  0  0  0  0  0
    1.1190   -1.1050    0.2900 N   0  0  0  0  0  0  0  0  0  0  0  0
    2.1570   -1.7290   -0.4490 C   0  0  0  0  0  0  0  0  0  0  0  0
    2.0320   -2.8880   -0.9520 O   0  0  0  0  0  0  0  0  0  0  0  0
    3.4580   -1.0490   -0.6740 C   0  0  0  0  0  0  0  0  0  0  0  0
    3.4160    0.2510   -0.0330 N   0  0  0  0  0  0  0  0  0  0  0  0
    3.0120    1.4070   -0.5710 C   0  0  0  0  0  0  0  0  0  0  0  0
    3.1380    2.3840    0.3880 C   0  0  0  0  0  0  0  0  0  0  0  0
    3.6120    1.8150    1.4880 N   0  0  0  0  0  0  0  0  0  0  0  0
    3.7830    0.5080    1.2320 C   0  0  0  0  0  0  0  0  0  0  0  0
   -1.4540    0.1910    0.7590 C   0  0  0  0  0  0  0  0  0  0  0  0
  1  2  1  0
  2  3  2  0
  2 20  1  0
  3  4  1  0
  4  5  2  0
  4  6  1  1
  6  7  1  0
  7  8  1  6
  7  9  1  0
  7 20  1  0
  9 10  1  1
  9 11  1  0
 11 12  1  0
 12 13  2  0
 12 14  1  0
 14 15  1  0
 15 16  1  0
 15 19  1  0
 16 17  2  0
 17 18  1  0
 18 19  2  0
M  CHG  1   5   1
M  END
