
     RDKit          3D

 23 24  0  0  0  0  0  0  0  0999 V2000
    4.1470   -0.8160   -0.0980 O   0  0  0  0  0  0  0  0  0  0  0  0
    4.4490    0.4470   -0.1260 C   0  0  0  0  0  0  0  0  0  0  0  0
    3.1030    1.2550   -0.1210 N   0  0  0  0  0  0  0  0  0  0  0  0
    2.1750    0.2250   -0.2790 C   0  0  0  0  0  0  0  0  0  0  0  0
    1.3960   -0.5370   -0.3960 N   0  0  0  0  0  0  0  0  0  0  0  0
    0.5530   -1.5620   -0.5550 O   0  0  0  0  0  0  0  0  0  0  0  0
   -0.7980   -1.0790   -0.8630 C   0  0  0  0  0  0  0  0  0  0  0  0
   -1.5270   -2.0250   -1.1950 O   0  0  0  0  0  0  0  0  0  0  0  0
   -1.1830    0.3080   -0.7890 C   0  0  1  0  0  0  0  0  0  0  0  0
   -2.5510    0.7390   -1.0950 C   0  0  0  0  0  0  0  0  0  0  0  0
   -3.5980    0.0400   -0.3650 N   0  0  0  0  0  0  0  0  0  0  0  0
   -4.4120   -1.0160   -0.9790 C   0  0  0  0  0  0  0  0  0  0  0  0
   -4.7610   -1.8920    0.2230 C   0  0  0  0  0  0  0  0  0  0  0  0
   -5.3610   -0.6950    1.0880 C   0  0  0  0  0  0  0  0  0  0  0  0
   -4.1520    0.2400    0.8780 C   0  0  0  0  0  0  0  0  0  0  0  0
   -3.8440    1.0220    1.8330 O   0  0  0  0  0  0  0  0  0  0  0  0
   -0.4170    1.1130    0.1920 C   0  0  0  0  0  0  0  0  0  0  0  0
   -1.1770    1.8960    0.9580 O   0  0  0  0  0  0  0  0  0  0  0  0
    0.9070    1.2550    0.5130 N   0  0  0  0  0  0  0  0  0  0  0  0
    5.5880    1.0790   -0.1660 N   0  0  0  0  0  0  0  0  0  0  0  0
    7.1800    0.1040   -0.2770 P   0  0  0  0  0  0  0  0  0  0  0  0
    6.8310   -1.5580   -0.0190 O   0  0  0  0  0  0  0  0  0  0  0  0
    8.0590    0.6200    1.1740 O   0  0  0  0  0  0  0  0  0  0  0  0
  1  2  2  0
  2  3  1  0
  2 20  1  0
  3  4  1  0
  4  5  2  0
  4 19  1  0
  5  6  1  0
  6  7  1  0
  7  8  2  0
  7  9  1  0
  9 10  1  1
  9 17  1  0
 10 11  1  0
 11 12  1  0
 11 15  1  0
 12 13  1  0
 13 14  1  0
 14 15  1  0
 15 16  2  0
 17 18  2  0
 17 19  1  0
 20 21  1  0
 21 22  1  0
 21 23  1  0
M  END
