
     RDKit          3D

 23 25  0  0  0  0  0  0  0  0999 V2000
    6.8020    0.4890   -1.2000 O   0  0  0  0  0  0  0  0  0  0  0  0
    5.6250    0.2400   -0.8550 C   0  0  0  0  0  0  0  0  0  0  0  0
    4.5640    0.5250   -1.7560 N   0  0  0  0  0  0  0  0  0  0  0  0
    3.2520   -0.0750   -1.8520 C   0  0  0  0  0  0  0  0  0  0  0  0
    2.4590    0.0530   -0.6100 C   0  0  0  0  0  0  0  0  0  0  0  0
    1.1830    0.3820   -0.5310 O   0  0  0  0  0  0  0  0  0  0  0  0
    0.7890    0.4040    0.7210 C   0  0  0  0  0  0  0  0  0  0  0  0
   -0.2620    0.6250    1.5590 C   0  0  0  0  0  0  0  0  0  0  0  0
   -1.5660    0.9900    1.2000 O   0  0  0  0  0  0  0  0  0  0  0  0
   -2.5470    0.0650    0.9370 C   0  0  0  0  0  0  0  0  0  0  0  0
   -2.2540   -1.1510    1.0260 O   0  0  0  0  0  0  0  0  0  0  0  0
   -3.8780    0.4080    0.5710 N   0  0  0  0  0  0  0  0  0  0  0  0
   -4.8490   -0.6650    0.3120 C   0  0  0  0  0  0  0  0  0  0  0  0
   -6.4900    0.0030   -0.1410 P   0  0  0  0  0  0  0  0  0  0  0  0
   -6.3900    1.4580   -1.0760 O   0  0  0  0  0  0  0  0  0  0  0  0
   -7.4270   -1.1980   -0.9690 O   0  0  0  0  0  0  0  0  0  0  0  0
    0.1490    0.4340    2.8340 N   0  0  0  0  0  0  0  0  0  0  0  0
    1.4460    0.0950    2.8260 N   0  0  0  0  0  0  0  0  0  0  0  0
    1.8570    0.0700    1.5480 C   0  0  0  0  0  0  0  0  0  0  0  0
    2.9090   -0.1490    0.6780 C   0  0  0  0  0  0  0  0  0  0  0  0
    4.2390   -0.5270    1.1780 C   0  0  0  0  0  0  0  0  0  0  0  0
    4.2930   -1.0580    2.3040 O   0  0  0  0  0  0  0  0  0  0  0  0
    5.4660   -0.3200    0.4450 N   0  0  0  0  0  0  0  0  0  0  0  0
  1  2  2  0
  2  3  1  0
  2 23  1  0
  3  4  1  0
  4  5  1  0
  5  6  1  0
  5 20  2  0
  6  7  1  0
  7  8  2  0
  7 19  1  0
  8  9  1  0
  8 17  1  0
  9 10  1  0
 10 11  2  0
 10 12  1  0
 12 13  1  0
 13 14  1  0
 14 15  1  0
 14 16  1  0
 17 18  1  0
 18 19  2  0
 19 20  1  0
 20 21  1  0
 21 22  2  0
 21 23  1  0
M  END
