
     RDKit          3D

  9  8  0  0  0  0  0  0  0  0999 V2000
    2.6210   -0.0390   -1.5490 O   0  0  0  0  0  0  0  0  0  0  0  0
    2.0970   -0.4340   -0.5240 C   0  0  0  0  0  0  0  0  0  0  0  0
    2.7660   -0.3060    0.7450 O   0  0  0  0  0  0  0  0  0  0  0  0
    0.7370   -1.0960   -0.4830 C   0  0  0  0  0  0  0  0  0  0  0  0
   -0.0710   -0.0540   -0.9510 O   0  0  0  0  0  0  0  0  0  0  0  0
   -1.1710    0.5100    0.0910 P   0  0  0  0  0  0  0  0  0  0  0  0
   -2.2380    0.7930   -0.9260 O   0  0  0  0  0  0  0  0  0  0  0  0
   -2.1010   -0.3230    1.0960 O   0  0  0  0  0  0  0  0  0  0  0  0
   -1.0880    2.2260    0.3370 O   0  0  0  0  0  0  0  0  0  0  0  0
  1  2  2  0
  2  3  1  0
  2  4  1  0
  4  5  1  0
  5  6  1  0
  6  7  1  0
  6  8  1  0
  6  9  1  0
M  END
