
     RDKit          3D

 23 25  0  0  0  0  0  0  0  0999 V2000
    3.1150    0.8120   -0.1570 O   0  0  0  0  0  0  0  0  0  0  0  0
    3.4620   -0.3980   -0.0900 C   0  0  0  0  0  0  0  0  0  0  0  0
    4.8960   -0.7520    0.0590 C   0  0  0  0  0  0  0  0  0  0  0  0
    5.6340    0.4120    0.0980 O   0  0  0  0  0  0  0  0  0  0  0  0
    7.3210    0.1460    0.2690 P   0  0  0  0  0  0  0  0  0  0  0  0
    8.1450    1.6530    0.0530 O   0  0  0  0  0  0  0  0  0  0  0  0
    7.7270   -0.4410    1.8540 O   0  0  0  0  0  0  0  0  0  0  0  0
    2.4410   -1.3800   -0.1610 N   0  0  0  0  0  0  0  0  0  0  0  0
    1.0730   -0.9730   -0.3050 C   0  0  0  0  0  0  0  0  0  0  0  0
    0.0260   -1.8030   -0.3830 N   0  0  0  0  0  0  0  0  0  0  0  0
   -1.0570   -1.0600   -0.5090 N   0  0  0  0  0  0  0  0  0  0  0  0
   -0.6910    0.2340   -0.5100 C   0  0  0  0  0  0  0  0  0  0  0  0
   -1.5960    1.4340   -0.6310 C   0  0  0  0  0  0  0  0  0  0  0  0
   -2.9330    0.9500   -0.7070 N   0  0  0  0  0  0  0  0  0  0  0  0
   -3.9680    1.9630   -0.8380 C   0  0  0  0  0  0  0  0  0  0  0  0
   -4.8740    0.9830   -0.1120 C   0  0  1  0  0  0  0  0  0  0  0  0
   -5.3070    0.0290   -0.9660 O   0  0  0  0  0  0  0  0  0  0  0  0
   -4.7280   -1.1830   -1.0060 C   0  0  0  0  0  0  0  0  0  0  0  0
   -4.1610   -1.6900    0.2220 N   0  0  0  0  0  0  0  0  0  0  0  0
   -3.4960   -0.7310    1.0220 C   0  0  0  0  0  0  0  0  0  0  0  0
   -2.8870   -1.0690    2.0490 O   0  0  0  0  0  0  0  0  0  0  0  0
   -3.5530    0.6590    0.5970 C   0  0  1  0  0  0  0  0  0  0  0  0
    0.6120    0.2470   -0.3840 O   0  0  0  0  0  0  0  0  0  0  0  0
  1  2  2  0
  2  3  1  0
  2  8  1  0
  3  4  1  0
  4  5  1  0
  5  6  1  0
  5  7  1  0
  8  9  1  0
  9 10  2  0
  9 23  1  0
 10 11  1  0
 11 12  2  0
 12 13  1  0
 12 23  1  0
 13 14  1  0
 14 15  1  0
 22 14  1  6
 16 15  1  6
 16 17  1  0
 16 22  1  0
 17 18  1  0
 18 19  1  0
 19 20  1  0
 20 21  2  0
 20 22  1  0
M  END
