
     RDKit          3D

 23 24  0  0  0  0  0  0  0  0999 V2000
    3.6420   -1.5130    1.4640 N   0  0  0  0  0  0  0  0  0  0  0  0
    3.2970   -0.2980    1.1550 C   0  0  0  0  0  0  0  0  0  0  0  0
    4.3640    0.6300    1.2360 N   0  0  0  0  0  0  0  0  0  0  0  0
    4.1640    2.1970    0.3990 P   0  0  0  0  0  0  0  0  0  0  0  0
    4.7300    2.0510   -1.2310 O   0  0  0  0  0  0  0  0  0  0  0  0
    2.4150    2.4390    0.4060 O   0  0  0  0  0  0  0  0  0  0  0  0
    1.5150    1.3400    0.4000 C   0  0  0  0  0  0  0  0  0  0  0  0
    0.3340    1.6740    0.0430 N   0  0  0  0  0  0  0  0  0  0  0  0
   -0.8110    1.0450   -0.1160 O   0  0  0  0  0  0  0  0  0  0  0  0
   -2.0630    1.3990    0.4380 C   0  0  1  0  0  0  0  0  0  0  0  0
   -2.0540    2.7550    1.0210 C   0  0  0  0  0  0  0  0  0  0  0  0
   -3.1210    3.1700    1.5420 O   0  0  0  0  0  0  0  0  0  0  0  0
   -0.9580    3.5980    1.0340 O   0  0  0  0  0  0  0  0  0  0  0  0
   -3.1710    1.2340   -0.5600 C   0  0  0  0  0  0  0  0  0  0  0  0
   -2.9470    0.0590   -1.4560 C   0  0  0  0  0  0  0  0  0  0  0  0
   -1.8430   -0.6990   -1.1500 O   0  0  0  0  0  0  0  0  0  0  0  0
   -2.0150   -2.0560   -1.2890 C   0  0  0  0  0  0  0  0  0  0  0  0
   -1.1720   -2.8180   -0.2850 C   0  0  0  0  0  0  0  0  0  0  0  0
    0.2020   -2.8960   -0.7400 N   0  0  0  0  0  0  0  0  0  0  0  0
    1.1950   -1.9580   -0.3930 C   0  0  0  0  0  0  0  0  0  0  0  0
    2.2100   -1.8630   -1.1250 O   0  0  0  0  0  0  0  0  0  0  0  0
    1.0530   -1.1140    0.7880 C   0  0  0  0  0  0  0  0  0  0  0  0
    1.9600    0.0520    0.7610 N   0  0  0  0  0  0  0  0  0  0  0  0
  1  2  2  0
  2  3  1  0
  2 23  1  0
  3  4  1  0
  4  5  1  0
  4  6  1  0
  6  7  1  0
  7  8  2  0
  7 23  1  0
  8  9  1  0
  9 10  1  0
 10 11  1  6
 10 14  1  0
 11 12  2  0
 11 13  1  0
 14 15  1  0
 15 16  1  0
 16 17  1  0
 17 18  1  0
 18 19  1  0
 19 20  1  0
 20 21  2  0
 20 22  1  0
 22 23  1  0
M  END
