
     RDKit          3D

 22 23  0  0  0  0  0  0  0  0999 V2000
   -0.3350   -3.0560   -0.4880 N   0  0  0  0  0  0  0  0  0  0  0  0
    0.0260   -1.8080   -0.4630 C   0  0  0  0  0  0  0  0  0  0  0  0
    1.1060   -1.6760   -1.3050 N   0  0  0  0  0  0  0  0  0  0  0  0
    2.0880   -0.7200   -1.2890 C   0  0  0  0  0  0  0  0  0  0  0  0
    1.9350    0.0700   -0.3500 O   0  0  0  0  0  0  0  0  0  0  0  0
    3.1230   -0.7270   -2.2770 C   0  0  0  0  0  0  0  0  0  0  0  0
    4.0730    0.1340   -2.2920 C   0  0  0  0  0  0  0  0  0  0  0  0
    4.1900    1.1770   -1.3330 N   0  0  0  0  0  0  0  0  0  0  0  0
    5.1880    1.0890    0.1310 P   0  0  0  0  0  0  0  0  0  0  0  0
    4.4840    2.0390    1.3890 O   0  0  0  0  0  0  0  0  0  0  0  0
    6.8350    1.4790   -0.1480 O   0  0  0  0  0  0  0  0  0  0  0  0
   -0.9340   -0.9810    0.1110 N   0  0  0  0  0  0  0  0  0  0  0  0
   -2.2370   -0.8570   -0.5580 C   0  0  0  0  0  0  0  0  0  0  0  0
   -2.6600   -1.6210   -1.4420 O   0  0  0  0  0  0  0  0  0  0  0  0
   -2.8510    0.3130    0.0470 C   0  0  1  0  0  0  0  0  0  0  0  0
   -4.2530    0.0110    0.5980 C   0  0  2  0  0  0  0  0  0  0  0  0
   -5.2190    0.5630   -0.2080 O   0  0  0  0  0  0  0  0  0  0  0  0
   -4.2600    0.6130    1.9900 C   0  0  0  0  0  0  0  0  0  0  0  0
   -2.9510    1.3800    2.0660 C   0  0  0  0  0  0  0  0  0  0  0  0
   -2.1260    0.5380    1.2690 N   0  0  0  0  0  0  0  0  0  0  0  0
   -0.9060   -0.1290    1.2180 C   0  0  0  0  0  0  0  0  0  0  0  0
    0.0950   -0.0230    2.0160 O   0  0  0  0  0  0  0  0  0  0  0  0
  1  2  2  0
  2  3  1  0
  2 12  1  0
  3  4  1  0
  4  5  2  0
  4  6  1  0
  6  7  2  3
  7  8  1  0
  8  9  1  0
  9 10  1  0
  9 11  1  0
 12 13  1  0
 12 21  1  0
 13 14  2  0
 15 13  1  1
 15 16  1  0
 15 20  1  0
 16 17  1  6
 16 18  1  0
 18 19  1  0
 19 20  1  0
 20 21  1  0
 21 22  2  0
M  END
