
     RDKit          3D

 23 25  0  0  0  0  0  0  0  0999 V2000
    4.4290   -2.1310   -0.1400 N   0  0  0  0  0  0  0  0  0  0  0  0
    3.7700   -1.1280    0.3020 C   0  0  0  0  0  0  0  0  0  0  0  0
    2.6260   -1.6340    0.9280 N   0  0  0  0  0  0  0  0  0  0  0  0
    1.4070   -1.0450    1.0390 C   0  0  0  0  0  0  0  0  0  0  0  0
    1.4280    0.0770    0.3940 O   0  0  0  0  0  0  0  0  0  0  0  0
    0.2870   -1.4370    1.6630 O   0  0  0  0  0  0  0  0  0  0  0  0
   -0.8290   -0.5680    1.5490 C   0  0  0  0  0  0  0  0  0  0  0  0
   -0.9580    0.4900    2.4260 C   0  0  0  0  0  0  0  0  0  0  0  0
   -2.0220    1.3670    2.3540 C   0  0  0  0  0  0  0  0  0  0  0  0
   -2.9480    1.1540    1.3850 C   0  0  0  0  0  0  0  0  0  0  0  0
   -2.8290    0.0990    0.5050 C   0  0  0  0  0  0  0  0  0  0  0  0
   -1.7700   -0.7810    0.5690 C   0  0  0  0  0  0  0  0  0  0  0  0
   -3.9410    0.1740   -0.3500 N   0  0  0  0  0  0  0  0  0  0  0  0
   -4.5440   -0.2230   -1.5700 C   0  0  0  0  0  0  0  0  0  0  0  0
   -4.1180   -1.1130   -2.3240 O   0  0  0  0  0  0  0  0  0  0  0  0
   -5.7540    0.6610   -1.7030 C   0  0  0  0  0  0  0  0  0  0  0  0
   -5.3910    1.7020   -0.8190 O   0  0  0  0  0  0  0  0  0  0  0  0
   -4.9080    1.0200    0.2550 N   0  0  0  0  0  0  0  0  0  0  0  0
   -4.1200    1.8240    1.0320 O   0  0  0  0  0  0  0  0  0  0  0  0
    4.5140    0.0630    0.3310 N   0  0  0  0  0  0  0  0  0  0  0  0
    5.5290    0.6880   -0.9640 P   0  0  0  0  0  0  0  0  0  0  0  0
    6.7790   -0.3680   -1.4660 O   0  0  0  0  0  0  0  0  0  0  0  0
    4.5900    1.2140   -2.3430 O   0  0  0  0  0  0  0  0  0  0  0  0
  1  2  2  0
  2  3  1  0
  2 20  1  0
  3  4  1  0
  4  5  2  0
  4  6  1  0
  6  7  1  0
  7  8  2  0
  7 12  1  0
  8  9  1  0
  9 10  2  0
 10 11  1  0
 10 19  1  0
 11 12  2  0
 11 13  1  0
 13 14  1  0
 13 18  1  0
 14 15  2  0
 14 16  1  0
 16 17  1  0
 17 18  1  0
 18 19  1  0
 20 21  1  0
 21 22  1  0
 21 23  1  0
M  END
