
     RDKit          3D

 26 28  0  0  0  0  0  0  0  0999 V2000
    5.3110   -3.6670    1.0050 C   0  0  0  0  0  0  0  0  0  0  0  0
    5.5160   -3.2680   -0.4380 C   0  0  0  0  0  0  0  0  0  0  0  0
    5.0630   -1.9040   -0.5880 N   0  0  0  0  0  0  0  0  0  0  0  0
    3.7620   -1.4300   -0.3410 C   0  0  0  0  0  0  0  0  0  0  0  0
    2.8930   -2.2750    0.0530 O   0  0  0  0  0  0  0  0  0  0  0  0
    3.3780   -0.0720   -0.5070 N   0  0  0  0  0  0  0  0  0  0  0  0
    2.0410    0.3040   -0.2140 C   0  0  0  0  0  0  0  0  0  0  0  0
    1.0390   -0.4500    0.2490 N   0  0  0  0  0  0  0  0  0  0  0  0
   -0.0700    0.3050    0.4040 C   0  0  0  0  0  0  0  0  0  0  0  0
   -1.6310   -0.3220    1.0530 S   0  0  0  0  0  0  0  0  0  0  0  0
   -2.5010   -1.0750   -0.3570 C   0  0  0  0  0  0  0  0  0  0  0  0
   -3.8230   -1.6030    0.0130 C   0  0  0  0  0  0  0  0  0  0  0  0
   -3.9190   -2.8900    0.4940 C   0  0  0  0  0  0  0  0  0  0  0  0
   -5.1480   -3.4370    0.8450 C   0  0  0  0  0  0  0  0  0  0  0  0
   -6.2700   -2.6390    0.6950 C   0  0  0  0  0  0  0  0  0  0  0  0
   -6.1520   -1.3620    0.2150 C   0  0  0  0  0  0  0  0  0  0  0  0
   -4.9320   -0.8560   -0.1210 N   0  0  0  0  0  0  0  0  0  0  0  0
    0.2170    1.5550    0.0400 N   0  0  0  0  0  0  0  0  0  0  0  0
   -0.6050    2.7110    0.0610 C   0  0  0  0  0  0  0  0  0  0  0  0
   -0.0740    3.9280    0.4610 C   0  0  0  0  0  0  0  0  0  0  0  0
   -0.8380    5.0870    0.5040 C   0  0  0  0  0  0  0  0  0  0  0  0
   -2.1810    5.0300    0.1350 C   0  0  0  0  0  0  0  0  0  0  0  0
   -2.7240    3.8300   -0.2640 C   0  0  0  0  0  0  0  0  0  0  0  0
   -1.9260    2.6820   -0.2960 C   0  0  0  0  0  0  0  0  0  0  0  0
    1.5180    1.5790   -0.3480 C   0  0  0  0  0  0  0  0  0  0  0  0
    2.2980    2.7470   -0.8440 C   0  0  0  0  0  0  0  0  0  0  0  0
  1  2  1  0
  2  3  1  0
  3  4  1  0
  4  5  2  0
  4  6  1  0
  6  7  1  0
  7  8  1  0
  7 25  2  0
  8  9  2  0
  9 10  1  0
  9 18  1  0
 10 11  1  0
 11 12  1  0
 12 13  2  0
 12 17  1  0
 13 14  1  0
 14 15  2  0
 15 16  1  0
 16 17  2  0
 18 19  1  0
 18 25  1  0
 19 20  2  0
 19 24  1  0
 20 21  1  0
 21 22  2  0
 22 23  1  0
 23 24  2  0
 25 26  1  0
M  END
