
     RDKit          3D

 26 28  0  0  0  0  0  0  0  0999 V2000
    8.5300   -0.4000   -1.1290 C   0  0  0  0  0  0  0  0  0  0  0  0
    7.4410   -0.4230   -0.1390 C   0  0  0  0  0  0  0  0  0  0  0  0
    6.9730   -1.4140    0.6830 C   0  0  0  0  0  0  0  0  0  0  0  0
    5.9470   -1.1310    1.4910 C   0  0  0  0  0  0  0  0  0  0  0  0
    5.3720    0.0720    1.5230 C   0  0  0  0  0  0  0  0  0  0  0  0
    4.3240    0.6410    2.2360 N   0  0  0  0  0  0  0  0  0  0  0  0
    3.1370    0.6570    1.7630 C   0  0  0  0  0  0  0  0  0  0  0  0
    2.9070    0.0990    0.5240 C   0  0  0  0  0  0  0  0  0  0  0  0
    1.6590    0.0800   -0.0370 C   0  0  0  0  0  0  0  0  0  0  0  0
    0.5510    0.6370    0.6370 C   0  0  0  0  0  0  0  0  0  0  0  0
   -0.7020    0.5750    0.0300 N   0  0  0  0  0  0  0  0  0  0  0  0
   -1.8260    1.2900    0.4450 C   0  0  0  0  0  0  0  0  0  0  0  0
   -1.8140    2.0830    1.4320 O   0  0  0  0  0  0  0  0  0  0  0  0
   -3.1590    1.1740   -0.2550 C   0  0  0  0  0  0  0  0  0  0  0  0
   -3.1220    0.2990   -1.3820 N   0  0  0  0  0  0  0  0  0  0  0  0
   -2.3540    0.8950   -2.4530 C   0  0  0  0  0  0  0  0  0  0  0  0
   -4.4200   -0.0340   -1.8650 C   0  0  0  0  0  0  0  0  0  0  0  0
   -5.2620   -0.7110   -0.8620 C   0  0  0  0  0  0  0  0  0  0  0  0
   -5.1380   -2.0840   -0.6360 C   0  0  0  0  0  0  0  0  0  0  0  0
   -5.9340   -2.6770    0.2950 C   0  0  0  0  0  0  0  0  0  0  0  0
   -6.8550   -1.9340    1.0090 C   0  0  0  0  0  0  0  0  0  0  0  0
   -6.9300   -0.5830    0.7390 C   0  0  0  0  0  0  0  0  0  0  0  0
   -6.1530   -0.0040   -0.1700 N   0  0  0  0  0  0  0  0  0  0  0  0
    0.8200    1.1810    1.8650 C   0  0  0  0  0  0  0  0  0  0  0  0
    2.0860    1.1830    2.3990 N   0  0  0  0  0  0  0  0  0  0  0  0
    6.3580    0.9910    0.2640 S   0  0  0  0  0  0  0  0  0  0  0  0
  1  2  1  0
  2  3  2  0
  2 26  1  0
  3  4  1  0
  4  5  2  0
  5  6  1  0
  5 26  1  0
  6  7  2  3
  7  8  1  0
  7 25  1  0
  8  9  2  0
  9 10  1  0
 10 11  1  0
 10 24  2  0
 11 12  1  0
 12 13  2  0
 12 14  1  0
 14 15  1  0
 15 16  1  0
 15 17  1  0
 17 18  1  0
 18 19  2  0
 18 23  1  0
 19 20  1  0
 20 21  2  0
 21 22  1  0
 22 23  2  0
 24 25  1  0
M  END
