
     RDKit          3D

 27 29  0  0  0  0  0  0  0  0999 V2000
   -4.6480    2.0910   -1.5960 C   0  0  0  0  0  0  0  0  0  0  0  0
   -3.5330    1.3270   -0.9510 C   0  0  0  0  0  0  0  0  0  0  0  0
   -3.7840    0.1110   -0.3590 C   0  0  0  0  0  0  0  0  0  0  0  0
   -2.7600   -0.6170    0.2480 C   0  0  0  0  0  0  0  0  0  0  0  0
   -3.0140   -1.8120    0.8270 N   0  0  0  0  0  0  0  0  0  0  0  0
   -2.0550   -2.5140    1.4050 C   0  0  0  0  0  0  0  0  0  0  0  0
   -2.2600   -3.7460    2.0140 C   0  0  0  0  0  0  0  0  0  0  0  0
   -3.4170   -4.2030    2.0080 O   0  0  0  0  0  0  0  0  0  0  0  0
   -1.2350   -4.4050    2.5830 N   0  0  0  0  0  0  0  0  0  0  0  0
   -0.0040   -3.8640    2.5600 C   0  0  0  0  0  0  0  0  0  0  0  0
    0.9110   -4.5530    3.1220 O   0  0  0  0  0  0  0  0  0  0  0  0
    0.2660   -2.6770    1.9890 N   0  0  0  0  0  0  0  0  0  0  0  0
   -0.7060   -1.9620    1.4010 C   0  0  0  0  0  0  0  0  0  0  0  0
   -0.4340   -0.7560    0.8210 N   0  0  0  0  0  0  0  0  0  0  0  0
    0.9070   -0.2590    0.8450 C   0  0  0  0  0  0  0  0  0  0  0  0
    1.7040   -0.7080   -0.3790 C   0  0  2  0  0  0  0  0  0  0  0  0
    1.7490   -2.1030   -0.4050 O   0  0  0  0  0  0  0  0  0  0  0  0
    3.1290   -0.2260   -0.2300 C   0  0  2  0  0  0  0  0  0  0  0  0
    3.7350   -0.6760    0.9300 O   0  0  0  0  0  0  0  0  0  0  0  0
    3.2140    1.2780   -0.2990 C   0  0  2  0  0  0  0  0  0  0  0  0
    2.6020    1.7330   -1.4620 O   0  0  0  0  0  0  0  0  0  0  0  0
    4.6690    1.7410   -0.3100 C   0  0  0  0  0  0  0  0  0  0  0  0
    4.6480    3.1310   -0.3600 O   0  0  0  0  0  0  0  0  0  0  0  0
   -1.4670   -0.1160    0.2590 C   0  0  0  0  0  0  0  0  0  0  0  0
   -1.2470    1.1040   -0.3410 C   0  0  0  0  0  0  0  0  0  0  0  0
   -2.2690    1.8270   -0.9450 C   0  0  0  0  0  0  0  0  0  0  0  0
   -1.9400    3.1360   -1.5690 C   0  0  0  0  0  0  0  0  0  0  0  0
  1  2  1  0
  2  3  2  0
  2 26  1  0
  3  4  1  0
  4  5  1  0
  4 24  2  0
  5  6  2  0
  6  7  1  0
  6 13  1  0
  7  8  2  0
  7  9  1  0
  9 10  1  0
 10 11  2  0
 10 12  1  0
 12 13  2  0
 13 14  1  0
 14 15  1  0
 14 24  1  0
 15 16  1  0
 16 17  1  1
 16 18  1  0
 18 19  1  1
 18 20  1  0
 20 21  1  6
 20 22  1  0
 22 23  1  0
 24 25  1  0
 25 26  2  0
 26 27  1  0
M  END
