
     RDKit          3D

 26 28  0  0  0  0  0  0  0  0999 V2000
   -5.7620    0.5230   -1.7790 C   0  0  0  0  0  0  0  0  0  0  0  0
   -5.8810    0.0450   -0.3570 C   0  0  0  0  0  0  0  0  0  0  0  0
   -4.6320   -0.1610    0.2930 N   0  0  0  0  0  0  0  0  0  0  0  0
   -3.4250    0.0950   -0.4390 C   0  0  0  0  0  0  0  0  0  0  0  0
   -3.1330    0.4810   -1.5810 N   0  0  0  0  0  0  0  0  0  0  0  0
   -1.9140    0.6220   -1.9690 N   0  0  0  0  0  0  0  0  0  0  0  0
   -0.9390    0.4110   -1.3130 C   0  0  0  0  0  0  0  0  0  0  0  0
    0.5440    0.4690   -1.4450 C   0  0  0  0  0  0  0  0  0  0  0  0
    1.1610    0.9270   -2.6040 C   0  0  0  0  0  0  0  0  0  0  0  0
    0.4380    1.3880   -3.8130 C   0  0  0  0  0  0  0  0  0  0  0  0
    2.4590    0.8720   -2.4210 N   0  0  0  0  0  0  0  0  0  0  0  0
    2.7640    0.3910   -1.1730 C   0  0  0  0  0  0  0  0  0  0  0  0
    4.1200    0.1980   -0.6850 C   0  0  0  0  0  0  0  0  0  0  0  0
    5.0770    0.1510   -1.5600 O   0  0  0  0  0  0  0  0  0  0  0  0
    4.4470    0.0670    0.6750 N   0  0  0  0  0  0  0  0  0  0  0  0
    5.8470   -0.1270    0.9880 C   0  0  0  0  0  0  0  0  0  0  0  0
    6.6010    0.6520    1.7320 C   0  0  0  0  0  0  0  0  0  0  0  0
    7.9540    0.0520    1.7650 C   0  0  0  0  0  0  0  0  0  0  0  0
    7.8140   -1.1570    0.9340 C   0  0  0  0  0  0  0  0  0  0  0  0
    6.5880   -1.2620    0.4820 C   0  0  0  0  0  0  0  0  0  0  0  0
    1.5410    0.1440   -0.5860 C   0  0  0  0  0  0  0  0  0  0  0  0
    1.3600   -0.4430    0.7680 C   0  0  0  0  0  0  0  0  0  0  0  0
   -1.7540   -0.1310    0.2790 S   0  0  0  0  0  0  0  0  0  0  0  0
   -4.5900   -0.6240    1.6720 C   0  0  2  0  0  0  0  0  0  0  0  0
   -5.2530   -1.9540    1.8600 C   0  0  0  0  0  0  0  0  0  0  0  0
   -5.1730    0.3840    2.6300 C   0  0  0  0  0  0  0  0  0  0  0  0
  1  2  1  0
  2  3  1  0
  3  4  1  0
  3 24  1  0
  4  5  2  0
  4 23  1  0
  5  6  1  0
  6  7  2  0
  7  8  1  0
  7 23  1  0
  8  9  2  0
  8 21  1  0
  9 10  1  0
  9 11  1  0
 11 12  1  0
 12 13  1  0
 12 21  2  0
 13 14  2  0
 13 15  1  0
 15 16  1  0
 16 17  2  0
 16 20  1  0
 17 18  1  0
 18 19  1  0
 19 20  2  0
 21 22  1  0
 24 25  1  6
 24 26  1  0
M  END
