
     RDKit          3D

 26 28  0  0  0  0  0  0  0  0999 V2000
    8.2490   -1.3180   -0.2320 C   0  0  0  0  0  0  0  0  0  0  0  0
    7.1200   -0.8320    0.2590 C   0  0  0  0  0  0  0  0  0  0  0  0
    7.0370   -0.4810    1.5940 O   0  0  0  0  0  0  0  0  0  0  0  0
    5.9680   -0.6650   -0.5940 C   0  0  0  0  0  0  0  0  0  0  0  0
    4.8380   -0.1750   -0.0840 C   0  0  0  0  0  0  0  0  0  0  0  0
    3.6610    0.0060   -0.9130 C   0  0  0  0  0  0  0  0  0  0  0  0
    2.5170    0.4750   -0.5100 C   0  0  0  0  0  0  0  0  0  0  0  0
    2.2280    0.8940    0.8320 C   0  0  0  0  0  0  0  0  0  0  0  0
    3.0020    0.9090    1.9280 N   0  0  0  0  0  0  0  0  0  0  0  0
    2.3460    1.3760    2.9760 N   0  0  0  0  0  0  0  0  0  0  0  0
    1.1330    1.6590    2.5190 C   0  0  0  0  0  0  0  0  0  0  0  0
   -0.0760    2.2760    3.4450 S   0  0  0  0  0  0  0  0  0  0  0  0
    1.0150    1.3800    1.2150 N   0  0  0  0  0  0  0  0  0  0  0  0
   -0.1480    1.5590    0.3940 C   0  0  0  0  0  0  0  0  0  0  0  0
   -0.3470    2.7270   -0.3130 C   0  0  0  0  0  0  0  0  0  0  0  0
   -1.4670    2.8890   -1.0980 C   0  0  0  0  0  0  0  0  0  0  0  0
   -2.4230    1.8890   -1.2020 C   0  0  0  0  0  0  0  0  0  0  0  0
   -2.2180    0.7310   -0.4950 C   0  0  0  0  0  0  0  0  0  0  0  0
   -3.1140   -0.3590   -0.4840 N   0  0  0  0  0  0  0  0  0  0  0  0
   -2.4780   -1.6920   -0.2970 C   0  0  0  0  0  0  0  0  0  0  0  0
   -3.0500   -2.3980    0.9070 C   0  0  0  0  0  0  0  0  0  0  0  0
   -4.5650   -2.4180    0.8180 C   0  0  0  0  0  0  0  0  0  0  0  0
   -5.0370   -0.9820    0.7520 C   0  0  0  0  0  0  0  0  0  0  0  0
   -4.5030   -0.4380   -0.5940 C   0  0  1  0  0  0  0  0  0  0  0  0
   -5.3070    0.7170   -1.0540 C   0  0  0  0  0  0  0  0  0  0  0  0
   -1.0890    0.6190    0.2700 N   0  0  0  0  0  0  0  0  0  0  0  0
  1  2  2  0
  2  3  1  0
  2  4  1  0
  4  5  2  3
  5  6  1  0
  6  7  2  3
  7  8  1  0
  8  9  2  0
  8 13  1  0
  9 10  1  0
 10 11  1  0
 11 12  2  0
 11 13  1  0
 13 14  1  0
 14 15  2  0
 14 26  1  0
 15 16  1  0
 16 17  2  0
 17 18  1  0
 18 19  1  0
 18 26  2  0
 19 20  1  0
 19 24  1  0
 20 21  1  0
 21 22  1  0
 22 23  1  0
 23 24  1  0
 24 25  1  1
M  END
