
     RDKit          3D

 26 29  0  0  0  0  0  0  0  0999 V2000
    7.6460   -0.2340   -0.3020 C   0  0  0  0  0  0  0  0  0  0  0  0
    6.7090   -1.3600   -0.8480 C   0  0  0  0  0  0  0  0  0  0  0  0
    5.5350   -0.7830   -1.4650 C   0  0  0  0  0  0  0  0  0  0  0  0
    4.3380   -0.4500   -0.5940 C   0  0  0  0  0  0  0  0  0  0  0  0
    3.4850   -0.2140    0.0440 N   0  0  0  0  0  0  0  0  0  0  0  0
    2.6850    0.0090    0.8300 C   0  0  0  0  0  0  0  0  0  0  0  0
    1.1460    0.2110    0.6480 C   0  0  1  0  0  0  0  0  0  0  0  0
    0.9930    1.7310    0.2770 C   0  0  0  0  0  0  0  0  0  0  0  0
    0.7190   -0.5690   -0.5850 C   0  0  0  0  0  0  0  0  0  0  0  0
    0.3780   -0.1100    1.7320 O   0  0  0  0  0  0  0  0  0  0  0  0
   -0.9940   -0.2000    1.3680 C   0  0  0  0  0  0  0  0  0  0  0  0
   -1.4260   -1.4190    0.9680 C   0  0  0  0  0  0  0  0  0  0  0  0
   -2.6960   -1.7490    0.5320 C   0  0  0  0  0  0  0  0  0  0  0  0
   -3.0470   -3.0120    0.0290 C   0  0  0  0  0  0  0  0  0  0  0  0
   -3.3270   -4.0960   -0.3990 N   0  0  0  0  0  0  0  0  0  0  0  0
   -3.5670   -0.7080    0.5470 C   0  0  0  0  0  0  0  0  0  0  0  0
   -3.1730    0.5670    0.9720 C   0  0  0  0  0  0  0  0  0  0  0  0
   -1.8710    0.7910    1.3760 N   0  0  0  0  0  0  0  0  0  0  0  0
   -3.8940    1.7300    1.0820 N   0  0  0  0  0  0  0  0  0  0  0  0
   -4.8270    2.5330    0.2990 C   0  0  0  0  0  0  0  0  0  0  0  0
   -6.1960    1.9950    0.2350 C   0  0  0  0  0  0  0  0  0  0  0  0
   -6.5310    0.6750   -0.1310 N   0  0  0  0  0  0  0  0  0  0  0  0
   -6.0120   -0.6520   -0.2210 C   0  0  0  0  0  0  0  0  0  0  0  0
   -4.8580   -1.2670    0.0280 C   0  0  0  0  0  0  0  0  0  0  0  0
    3.1120   -0.0930    2.0780 C   0  0  0  0  0  0  0  0  0  0  0  0
    5.0730   -0.6540    1.3460 S   0  0  0  0  0  0  0  0  0  0  0  0
  1  2  1  0
  2  3  1  0
  3  4  1  0
  4  5  2  0
  4 26  1  0
  5  6  1  0
  6  7  1  0
  6 25  2  0
  7  8  1  6
  7  9  1  0
  7 10  1  0
 10 11  1  0
 11 12  2  0
 11 18  1  0
 12 13  1  0
 13 14  1  0
 13 16  2  0
 14 15  3  0
 16 17  1  0
 16 24  1  0
 17 18  2  0
 17 19  1  0
 19 20  1  0
 20 21  1  0
 21 22  1  0
 22 23  1  0
 23 24  2  0
 25 26  1  0
 26  5  1  0
M  CHG  1   5   1
M  END
