
     RDKit          3D

 46 49  0  0  0  0  0  0  0  0999 V2000
   -8.2380    5.3720    0.1200 C   0  0  0  0  0  0  0  0  0  0  0  0
   -8.0560    4.0050    0.7930 C   0  0  0  0  0  0  0  0  0  0  0  0
   -7.6160    3.1350   -0.1750 O   0  0  0  0  0  0  0  0  0  0  0  0
   -7.4470    1.8560    0.3600 C   0  0  1  0  0  0  0  0  0  0  0  0
   -8.3790    0.8910   -0.3710 C   0  0  0  0  0  0  0  0  0  0  0  0
   -8.2860   -0.4800    0.2190 C   0  0  0  0  0  0  0  0  0  0  0  0
   -7.1740   -0.5770    1.2270 C   0  0  0  0  0  0  0  0  0  0  0  0
   -5.9300    0.0530    0.7690 N   0  0  0  0  0  0  0  0  0  0  0  0
   -4.6990   -0.6810    0.9180 C   0  0  0  0  0  0  0  0  0  0  0  0
   -3.5240   -0.1000    1.3390 C   0  0  0  0  0  0  0  0  0  0  0  0
   -2.3590   -0.8710    1.4360 C   0  0  0  0  0  0  0  0  0  0  0  0
   -2.3440   -2.2100    1.1210 C   0  0  0  0  0  0  0  0  0  0  0  0
   -3.5250   -2.8010    0.6940 C   0  0  0  0  0  0  0  0  0  0  0  0
   -4.6790   -2.0300    0.6010 C   0  0  0  0  0  0  0  0  0  0  0  0
   -3.4770   -4.2150    0.3020 C   0  0  0  0  0  0  0  0  0  0  0  0
   -2.5870   -5.0060    1.1620 C   0  0  0  0  0  0  0  0  0  0  0  0
   -1.2910   -4.4280    1.5920 C   0  0  0  0  0  0  0  0  0  0  0  0
   -1.1450   -3.0100    1.2500 N   0  0  0  0  0  0  0  0  0  0  0  0
    0.0850   -2.3530    1.0450 C   0  0  0  0  0  0  0  0  0  0  0  0
    0.0760   -1.1510   -0.3130 S   0  0  0  0  0  0  0  0  0  0  0  0
    1.0230   -1.8290   -1.7190 C   0  0  0  0  0  0  0  0  0  0  0  0
    0.2690   -3.0400   -2.2580 C   0  0  0  0  0  0  0  0  0  0  0  0
    1.1970   -2.5730    1.6710 C   0  0  0  0  0  0  0  0  0  0  0  0
    1.1630   -3.6480    2.7020 C   0  0  0  0  0  0  0  0  0  0  0  0
    1.1230   -4.4960    3.5230 N   0  0  0  0  0  0  0  0  0  0  0  0
    2.4810   -1.8930    1.5760 C   0  0  0  0  0  0  0  0  0  0  0  0
    3.4080   -2.3970    2.3280 O   0  0  0  0  0  0  0  0  0  0  0  0
    2.8890   -0.8070    0.8290 N   0  0  0  0  0  0  0  0  0  0  0  0
    4.2060   -0.2330    0.8170 C   0  0  0  0  0  0  0  0  0  0  0  0
    5.0300   -0.2110    1.8940 C   0  0  0  0  0  0  0  0  0  0  0  0
    6.3050    0.2970    1.8200 C   0  0  0  0  0  0  0  0  0  0  0  0
    6.8320    0.8300    0.6060 C   0  0  0  0  0  0  0  0  0  0  0  0
    8.2020    1.2490    0.6460 C   0  0  0  0  0  0  0  0  0  0  0  0
    8.7230    1.2700    1.8650 O   0  0  0  0  0  0  0  0  0  0  0  0
    9.1230    1.6320   -0.2420 O   0  0  0  0  0  0  0  0  0  0  0  0
   10.4450    2.0090    0.0330 C   0  0  0  0  0  0  0  0  0  0  0  0
    6.0150    0.8180   -0.4840 C   0  0  0  0  0  0  0  0  0  0  0  0
    6.3490    1.3510   -1.7600 C   0  0  0  0  0  0  0  0  0  0  0  0
    5.3830    1.1910   -2.6670 O   0  0  0  0  0  0  0  0  0  0  0  0
    7.4750    2.0310   -2.3260 C   0  0  0  0  0  0  0  0  0  0  0  0
    7.5780    3.5160   -2.0120 C   0  0  0  0  0  0  0  0  0  0  0  0
    8.7560    4.1390   -2.6230 C   0  0  0  0  0  0  0  0  0  0  0  0
    8.8780    5.3990   -2.4250 O   0  0  0  0  0  0  0  0  0  0  0  0
    9.7270    3.5480   -3.3710 O   0  0  0  0  0  0  0  0  0  0  0  0
    4.6900    0.2750   -0.3560 C   0  0  0  0  0  0  0  0  0  0  0  0
   -6.0260    1.3560    0.1770 C   0  0  0  0  0  0  0  0  0  0  0  0
  1  2  1  0
  2  3  1  0
  4  3  1  6
  4  5  1  0
  4 46  1  0
  5  6  1  0
  6  7  1  0
  7  8  1  0
  8  9  1  0
  8 46  1  0
  9 10  2  0
  9 14  1  0
 10 11  1  0
 11 12  2  0
 12 13  1  0
 12 18  1  0
 13 14  2  0
 13 15  1  0
 15 16  1  0
 16 17  1  0
 17 18  1  0
 18 19  1  0
 19 20  1  0
 19 23  2  3
 20 21  1  0
 21 22  1  0
 23 24  1  0
 23 26  1  0
 24 25  3  0
 26 27  2  0
 26 28  1  0
 28 29  1  0
 29 30  2  0
 29 45  1  0
 30 31  1  0
 31 32  2  0
 32 33  1  0
 32 37  1  0
 33 34  2  0
 33 35  1  0
 35 36  1  0
 37 38  1  0
 37 45  2  0
 38 39  2  0
 38 40  1  0
 40 41  1  0
 41 42  1  0
 42 43  2  0
 42 44  1  0
M  END
