
     RDKit          3D

 47 52  0  0  0  0  0  0  0  0999 V2000
   -1.5850   -0.9880   -2.7590 O   0  0  0  0  0  0  0  0  0  0  0  0
   -1.4900   -1.4210   -1.5900 C   0  0  0  0  0  0  0  0  0  0  0  0
   -2.6360   -1.9600   -1.0050 N   0  0  0  0  0  0  0  0  0  0  0  0
   -3.9550   -2.0720   -1.6250 C   0  0  2  0  0  0  0  0  0  0  0  0
   -5.0110   -2.1940   -0.5750 C   0  0  0  0  0  0  0  0  0  0  0  0
   -5.3170   -3.6770   -0.4150 C   0  0  0  0  0  0  0  0  0  0  0  0
   -5.1840   -4.1780   -1.8480 C   0  0  0  0  0  0  0  0  0  0  0  0
   -4.0410   -3.3810   -2.4000 C   0  0  0  0  0  0  0  0  0  0  0  0
   -0.1970   -1.3920   -0.8330 C   0  0  0  0  0  0  0  0  0  0  0  0
    0.8840   -0.9230   -1.5010 C   0  0  0  0  0  0  0  0  0  0  0  0
    2.2510   -0.7420   -1.1950 C   0  0  0  0  0  0  0  0  0  0  0  0
    3.0670   -1.6550   -1.8490 O   0  0  0  0  0  0  0  0  0  0  0  0
    3.0890    0.0870   -0.4240 N   0  0  0  0  0  0  0  0  0  0  0  0
    4.2280   -0.5660    0.2040 C   0  0  0  0  0  0  0  0  0  0  0  0
    3.9670   -1.1450    1.5120 C   0  0  0  0  0  0  0  0  0  0  0  0
    3.0260   -0.8830    2.4610 C   0  0  0  0  0  0  0  0  0  0  0  0
    3.2480   -1.7550    3.5340 C   0  0  0  0  0  0  0  0  0  0  0  0
    4.3250   -2.5060    3.1700 C   0  0  0  0  0  0  0  0  0  0  0  0
    4.7190   -2.1390    2.0100 O   0  0  0  0  0  0  0  0  0  0  0  0
    4.6250   -3.3810    4.1300 C   0  0  0  0  0  0  0  0  0  0  0  0
    3.6520   -3.1980    5.2530 C   0  0  0  0  0  0  0  0  0  0  0  0
    2.8040   -2.0940    4.7310 C   0  0  0  0  0  0  0  0  0  0  0  0
    3.0100    1.5150   -0.3310 C   0  0  1  0  0  0  0  0  0  0  0  0
    2.5630    2.1500   -1.6500 C   0  0  0  0  0  0  0  0  0  0  0  0
    3.5240    1.8580   -2.7840 C   0  0  0  0  0  0  0  0  0  0  0  0
    2.9950    2.5310   -3.9930 C   0  0  0  0  0  0  0  0  0  0  0  0
    2.6750    1.9070   -5.1110 C   0  0  0  0  0  0  0  0  0  0  0  0
    2.2090    2.8080   -6.0620 O   0  0  0  0  0  0  0  0  0  0  0  0
    2.1520    4.0890   -5.4770 C   0  0  0  0  0  0  0  0  0  0  0  0
    2.7360    3.8740   -4.2040 O   0  0  0  0  0  0  0  0  0  0  0  0
    2.4570    2.2090    0.8320 C   0  0  0  0  0  0  0  0  0  0  0  0
    2.0550    3.6150    0.3740 C   0  0  0  0  0  0  0  0  0  0  0  0
    0.8480    4.0790    0.3890 C   0  0  0  0  0  0  0  0  0  0  0  0
   -0.3970    3.4520    0.8180 C   0  0  0  0  0  0  0  0  0  0  0  0
   -0.6180    2.0110    0.4540 C   0  0  0  0  0  0  0  0  0  0  0  0
   -1.0920    1.2630    1.6330 N   0  0  0  0  0  0  0  0  0  0  0  0
   -2.2660    1.8830    2.3060 C   0  0  0  0  0  0  0  0  0  0  0  0
   -3.5400    1.4060    1.7160 C   0  0  0  0  0  0  0  0  0  0  0  0
   -3.7670    1.2970    0.3590 N   0  0  0  0  0  0  0  0  0  0  0  0
   -5.0100    0.8950    0.1930 N   0  0  0  0  0  0  0  0  0  0  0  0
   -5.6230    0.7280    1.3810 C   0  0  0  0  0  0  0  0  0  0  0  0
   -6.8120    0.3510    1.5010 O   0  0  0  0  0  0  0  0  0  0  0  0
   -4.6940    1.0490    2.2890 N   0  0  0  0  0  0  0  0  0  0  0  0
   -0.5700    0.0920    2.1900 C   0  0  0  0  0  0  0  0  0  0  0  0
   -0.2070    0.3210    3.4730 O   0  0  0  0  0  0  0  0  0  0  0  0
   -0.3560   -1.2350    1.7040 C   0  0  0  0  0  0  0  0  0  0  0  0
   -0.2140   -1.8270    0.5440 C   0  0  0  0  0  0  0  0  0  0  0  0
  1  2  2  0
  2  3  1  0
  2  9  1  0
  4  3  1  1
  4  5  1  0
  4  8  1  0
  5  6  1  0
  6  7  1  0
  7  8  1  0
  9 10  2  0
  9 47  1  0
 10 11  1  0
 11 12  2  0
 11 13  1  0
 13 14  1  0
 13 23  1  0
 14 15  1  0
 15 16  2  0
 15 19  1  0
 16 17  1  0
 17 18  1  0
 17 22  2  0
 18 19  1  0
 18 20  2  0
 20 21  1  0
 21 22  1  0
 23 24  1  6
 23 31  1  0
 24 25  1  0
 25 26  1  0
 26 27  2  0
 26 30  1  0
 27 28  1  0
 28 29  1  0
 29 30  1  0
 31 32  1  0
 32 33  2  0
 33 34  1  0
 34 35  1  0
 35 36  1  0
 36 37  1  0
 36 44  1  0
 37 38  1  0
 38 39  2  0
 38 43  1  0
 39 40  1  0
 40 41  1  0
 41 42  2  0
 41 43  1  0
 44 45  2  0
 44 46  1  0
 46 47  2  0
M  END
