
     RDKit          3D

 46 50  0  0  0  0  0  0  0  0999 V2000
    2.4980   -3.4730    1.7490 C   0  0  0  0  0  0  0  0  0  0  0  0
    1.5430   -2.4850    2.9080 S   0  0  0  0  0  0  0  0  0  0  0  0
    0.4640   -1.2930    2.1730 C   0  0  0  0  0  0  0  0  0  0  0  0
    1.0010   -0.1420    1.5310 N   0  0  0  0  0  0  0  0  0  0  0  0
    1.3080    0.9740    2.4440 C   0  0  0  0  0  0  0  0  0  0  0  0
    0.1540    1.8100    2.6720 C   0  0  0  0  0  0  0  0  0  0  0  0
    0.3050    2.8830    3.5540 C   0  0  0  0  0  0  0  0  0  0  0  0
   -0.7330    3.7410    3.8920 C   0  0  0  0  0  0  0  0  0  0  0  0
   -1.9480    3.4970    3.3180 C   0  0  0  0  0  0  0  0  0  0  0  0
   -2.1300    2.4430    2.4410 C   0  0  0  0  0  0  0  0  0  0  0  0
   -3.3910    2.2640    1.9080 O   0  0  0  0  0  0  0  0  0  0  0  0
   -3.5740    1.1910    0.9740 C   0  0  0  0  0  0  0  0  0  0  0  0
   -5.0440    1.2700    0.5700 C   0  0  2  0  0  0  0  0  0  0  0  0
   -5.8970    1.0760    1.6260 O   0  0  0  0  0  0  0  0  0  0  0  0
   -5.3040    0.4000   -0.6370 C   0  0  0  0  0  0  0  0  0  0  0  0
   -6.6450    0.7090   -1.1030 N   0  0  0  0  0  0  0  0  0  0  0  0
   -7.8330    0.0030   -0.6720 C   0  0  0  0  0  0  0  0  0  0  0  0
   -8.8020    0.9830   -0.1080 C   0  0  0  0  0  0  0  0  0  0  0  0
   -8.6900    2.3760   -0.6180 C   0  0  0  0  0  0  0  0  0  0  0  0
   -8.0860    2.5430   -1.9690 C   0  0  0  0  0  0  0  0  0  0  0  0
   -6.8060    1.7620   -2.0470 C   0  0  0  0  0  0  0  0  0  0  0  0
   -5.9050    1.9990   -2.8890 O   0  0  0  0  0  0  0  0  0  0  0  0
   -1.0820    1.6150    2.1290 C   0  0  0  0  0  0  0  0  0  0  0  0
    1.3210   -0.0100    0.1680 C   0  0  0  0  0  0  0  0  0  0  0  0
    1.5000    1.2140   -0.2690 O   0  0  0  0  0  0  0  0  0  0  0  0
    1.4790   -0.9960   -0.8130 N   0  0  0  0  0  0  0  0  0  0  0  0
    1.6880   -0.7730   -2.1920 C   0  0  0  0  0  0  0  0  0  0  0  0
    0.8170    0.1970   -2.7550 C   0  0  0  0  0  0  0  0  0  0  0  0
    0.7030    0.3480   -4.1190 C   0  0  0  0  0  0  0  0  0  0  0  0
    1.4370   -0.4450   -4.9620 C   0  0  0  0  0  0  0  0  0  0  0  0
    2.2720   -1.3670   -4.4460 C   0  0  0  0  0  0  0  0  0  0  0  0
    2.4070   -1.5340   -3.0130 C   0  0  0  0  0  0  0  0  0  0  0  0
    3.5320   -2.3240   -2.6180 C   0  0  0  0  0  0  0  0  0  0  0  0
    4.1500   -3.0720   -3.4690 O   0  0  0  0  0  0  0  0  0  0  0  0
    4.0830   -2.3540   -1.3550 O   0  0  0  0  0  0  0  0  0  0  0  0
    5.2860   -3.1210   -1.1360 C   0  0  2  0  0  0  0  0  0  0  0  0
    5.4720   -3.6880    0.1590 C   0  0  0  0  0  0  0  0  0  0  0  0
    5.1400   -4.8570    0.5730 O   0  0  0  0  0  0  0  0  0  0  0  0
    6.1300   -2.7960    1.0930 N   0  0  0  0  0  0  0  0  0  0  0  0
    6.6280   -1.7220    0.2360 C   0  0  0  0  0  0  0  0  0  0  0  0
    7.4140   -0.6770    0.6430 C   0  0  0  0  0  0  0  0  0  0  0  0
    7.8140   -0.3650    2.0160 C   0  0  0  0  0  0  0  0  0  0  0  0
    7.8860    0.1940   -0.3510 C   0  0  0  0  0  0  0  0  0  0  0  0
    7.5680   -0.0060   -1.6660 C   0  0  0  0  0  0  0  0  0  0  0  0
    6.7620   -1.0870   -2.0210 C   0  0  0  0  0  0  0  0  0  0  0  0
    6.2950   -1.9440   -1.0400 C   0  0  0  0  0  0  0  0  0  0  0  0
  1  2  1  0
  2  3  1  0
  3  4  1  0
  4  5  1  0
  4 24  1  0
  5  6  1  0
  6  7  2  0
  6 23  1  0
  7  8  1  0
  8  9  2  0
  9 10  1  0
 10 11  1  0
 10 23  2  0
 11 12  1  0
 12 13  1  0
 13 14  1  1
 13 15  1  0
 15 16  1  0
 16 17  1  0
 16 21  1  0
 17 18  1  0
 18 19  1  0
 19 20  1  0
 20 21  1  0
 21 22  2  0
 24 25  2  0
 24 26  1  0
 26 27  1  0
 27 28  2  0
 27 32  1  0
 28 29  1  0
 29 30  2  0
 30 31  1  0
 31 32  2  0
 32 33  1  0
 33 34  2  0
 33 35  1  0
 36 35  1  1
 36 37  1  0
 36 46  1  0
 37 38  2  0
 37 39  1  0
 39 40  1  0
 40 41  2  0
 40 46  1  0
 41 42  1  0
 41 43  1  0
 43 44  2  0
 44 45  1  0
 45 46  2  0
M  END
