
     RDKit          3D

 46 50  0  0  0  0  0  0  0  0999 V2000
   -9.7490   -2.7760    1.4440 C   0  0  0  0  0  0  0  0  0  0  0  0
   -8.4780   -2.1330    1.2850 O   0  0  0  0  0  0  0  0  0  0  0  0
   -8.4810   -0.7980    0.9110 C   0  0  0  0  0  0  0  0  0  0  0  0
   -9.6660   -0.0930    0.6960 C   0  0  0  0  0  0  0  0  0  0  0  0
   -9.6540    1.2250    0.3270 C   0  0  0  0  0  0  0  0  0  0  0  0
  -10.8560    1.9060    0.1170 C   0  0  0  0  0  0  0  0  0  0  0  0
  -10.8390    3.2370   -0.2550 C   0  0  0  0  0  0  0  0  0  0  0  0
   -9.6240    3.8880   -0.4190 C   0  0  0  0  0  0  0  0  0  0  0  0
   -8.4580    3.1840   -0.2030 C   0  0  0  0  0  0  0  0  0  0  0  0
   -8.4450    1.8630    0.1670 C   0  0  0  0  0  0  0  0  0  0  0  0
   -7.2760    1.1640    0.3810 C   0  0  0  0  0  0  0  0  0  0  0  0
   -7.2690   -0.1670    0.7540 C   0  0  0  0  0  0  0  0  0  0  0  0
   -5.9710   -0.8810    0.9750 C   0  0  0  0  0  0  0  0  0  0  0  0
   -4.8810   -0.0180    0.7460 O   0  0  0  0  0  0  0  0  0  0  0  0
   -3.5650   -0.3640    0.8610 C   0  0  0  0  0  0  0  0  0  0  0  0
   -2.6340    0.6140    0.5970 C   0  0  0  0  0  0  0  0  0  0  0  0
   -1.2580    0.3250    0.6950 C   0  0  0  0  0  0  0  0  0  0  0  0
   -0.7930   -0.8890    1.0430 C   0  0  0  0  0  0  0  0  0  0  0  0
    0.5760   -1.2540    1.1360 N   0  0  0  0  0  0  0  0  0  0  0  0
    1.6920   -0.5450    0.6530 C   0  0  0  0  0  0  0  0  0  0  0  0
    1.4280    0.5490    0.0760 O   0  0  0  0  0  0  0  0  0  0  0  0
    3.0280   -1.0750    0.8360 C   0  0  2  0  0  0  0  0  0  0  0  0
    3.9060    0.0920    0.5090 N   0  0  0  0  0  0  0  0  0  0  0  0
    4.7650    0.6660    1.4610 C   0  0  0  0  0  0  0  0  0  0  0  0
    4.7480    0.1280    2.6190 O   0  0  0  0  0  0  0  0  0  0  0  0
    5.6650    1.8170    1.2240 C   0  0  0  0  0  0  0  0  0  0  0  0
    5.6310    2.3720   -0.0830 N   0  0  0  0  0  0  0  0  0  0  0  0
    6.4850    3.4670   -0.3800 C   0  0  0  0  0  0  0  0  0  0  0  0
    7.3740    3.9930    0.5350 C   0  0  0  0  0  0  0  0  0  0  0  0
    8.1920    5.0670    0.2060 C   0  0  0  0  0  0  0  0  0  0  0  0
    8.1140    5.6130   -1.0480 C   0  0  0  0  0  0  0  0  0  0  0  0
    8.9790    6.7730   -1.4430 C   0  0  0  0  0  0  0  0  0  0  0  0
    7.2430    5.0940   -1.9380 N   0  0  0  0  0  0  0  0  0  0  0  0
    6.4420    4.0460   -1.6220 C   0  0  0  0  0  0  0  0  0  0  0  0
    3.5340   -2.2200    0.0520 C   0  0  1  0  0  0  0  0  0  0  0  0
    2.8310   -3.5250    0.1680 C   0  0  0  0  0  0  0  0  0  0  0  0
    1.7940   -3.7990   -0.8900 C   0  0  0  0  0  0  0  0  0  0  0  0
    2.5100   -3.8430   -2.2210 C   0  0  0  0  0  0  0  0  0  0  0  0
    3.6260   -3.0030   -2.3090 N   0  0  0  0  0  0  0  0  0  0  0  0
    4.9970   -3.8240   -2.8600 S   0  0  1  0  0  0  0  0  0  0  0  0
    5.5500   -5.1430   -1.8460 C   0  0  0  0  0  0  0  0  0  0  0  0
    4.7470   -4.3930   -4.2530 O   0  0  0  0  0  0  0  0  0  0  0  0
    6.1470   -2.8530   -3.0510 O   0  0  0  0  0  0  0  0  0  0  0  0
    3.8080   -1.9430   -1.3990 C   0  0  0  0  0  0  0  0  0  0  0  0
   -1.7660   -1.8720    1.3080 C   0  0  0  0  0  0  0  0  0  0  0  0
   -3.1080   -1.6030    1.2160 C   0  0  0  0  0  0  0  0  0  0  0  0
  1  2  1  0
  2  3  1  0
  3  4  2  0
  3 12  1  0
  4  5  1  0
  5  6  2  0
  5 10  1  0
  6  7  1  0
  7  8  2  0
  8  9  1  0
  9 10  2  0
 10 11  1  0
 11 12  2  0
 12 13  1  0
 13 14  1  0
 14 15  1  0
 15 16  2  0
 15 46  1  0
 16 17  1  0
 17 18  2  0
 18 19  1  0
 18 45  1  0
 19 20  1  0
 20 21  2  0
 20 22  1  0
 22 23  1  6
 22 35  1  0
 23 24  1  0
 24 25  2  0
 24 26  1  0
 26 27  1  0
 27 28  1  0
 28 29  2  0
 28 34  1  0
 29 30  1  0
 30 31  2  0
 31 32  1  0
 31 33  1  0
 33 34  2  0
 35 36  1  6
 35 44  1  0
 36 37  1  0
 37 38  1  0
 38 39  1  0
 39 40  1  0
 39 44  1  0
 40 41  1  1
 40 42  2  0
 40 43  2  0
 45 46  2  0
M  END
