
     RDKit          3D

 46 49  0  0  0  0  0  0  0  0999 V2000
    0.8020   -0.8860   -1.3700 C   0  0  0  0  0  0  0  0  0  0  0  0
    1.2190   -1.6160   -0.1420 C   0  0  0  0  0  0  0  0  0  0  0  0
    1.6250   -0.7530    0.9350 N   0  0  0  0  0  0  0  0  0  0  0  0
    0.6710   -0.2840    1.9140 C   0  0  0  0  0  0  0  0  0  0  0  0
   -0.0370    0.9780    1.6200 C   0  0  1  0  0  0  0  0  0  0  0  0
    0.8210    2.0970    1.3690 N   0  0  0  0  0  0  0  0  0  0  0  0
    0.7330    2.9470    0.2620 C   0  0  0  0  0  0  0  0  0  0  0  0
   -0.1410    2.7600   -0.6190 O   0  0  0  0  0  0  0  0  0  0  0  0
    1.6970    4.1120    0.1120 C   0  0  0  0  0  0  0  0  0  0  0  0
    0.9970    5.4100    0.1280 C   0  0  0  0  0  0  0  0  0  0  0  0
    0.4770    6.0380   -0.9600 C   0  0  0  0  0  0  0  0  0  0  0  0
   -0.0840    7.2230   -0.5140 C   0  0  0  0  0  0  0  0  0  0  0  0
   -0.7800    8.2790   -1.2850 C   0  0  0  0  0  0  0  0  0  0  0  0
    0.1150    7.2560    0.7830 O   0  0  0  0  0  0  0  0  0  0  0  0
    0.7420    6.2180    1.1930 N   0  0  0  0  0  0  0  0  0  0  0  0
   -1.3500    0.9590    0.9930 C   0  0  0  0  0  0  0  0  0  0  0  0
   -2.0960    2.1460    1.0380 C   0  0  0  0  0  0  0  0  0  0  0  0
   -3.3430    2.2830    0.5140 C   0  0  0  0  0  0  0  0  0  0  0  0
   -3.9400    1.1860   -0.1140 C   0  0  0  0  0  0  0  0  0  0  0  0
   -5.2170    1.2990   -0.6660 O   0  0  0  0  0  0  0  0  0  0  0  0
   -5.8660    2.5480   -0.5650 C   0  0  0  0  0  0  0  0  0  0  0  0
   -3.2510    0.0080   -0.1790 C   0  0  0  0  0  0  0  0  0  0  0  0
   -3.8080   -1.1850   -0.7760 C   0  0  0  0  0  0  0  0  0  0  0  0
   -3.6730   -1.3020   -2.0370 O   0  0  0  0  0  0  0  0  0  0  0  0
   -4.4670   -2.1950   -0.0440 N   0  0  0  0  0  0  0  0  0  0  0  0
   -4.6280   -2.0510    1.3850 C   0  0  0  0  0  0  0  0  0  0  0  0
   -5.9130   -1.3750    1.7070 C   0  0  0  0  0  0  0  0  0  0  0  0
   -6.9430   -2.1900    1.1780 O   0  0  0  0  0  0  0  0  0  0  0  0
   -4.9800   -3.3700   -0.6540 C   0  0  0  0  0  0  0  0  0  0  0  0
   -5.1470   -4.5610   -0.3620 N   0  0  0  0  0  0  0  0  0  0  0  0
   -5.6510   -5.4790   -1.1130 C   0  0  0  0  0  0  0  0  0  0  0  0
   -6.0560   -5.1420   -2.3670 C   0  0  0  0  0  0  0  0  0  0  0  0
   -5.6520   -3.3620   -2.4030 S   0  0  0  0  0  0  0  0  0  0  0  0
   -1.9710   -0.0880    0.3740 C   0  0  0  0  0  0  0  0  0  0  0  0
    3.0170   -0.3750    1.0140 C   0  0  0  0  0  0  0  0  0  0  0  0
    3.3400    0.3970    1.9480 O   0  0  0  0  0  0  0  0  0  0  0  0
    4.0200   -0.8150    0.1060 C   0  0  1  0  0  0  0  0  0  0  0  0
    4.9220    0.3200   -0.4390 C   0  0  0  0  0  0  0  0  0  0  0  0
    4.7800   -2.0240    0.2330 C   0  0  0  0  0  0  0  0  0  0  0  0
    5.9160   -2.1170   -0.6080 C   0  0  0  0  0  0  0  0  0  0  0  0
    6.7120   -3.2260   -0.6580 C   0  0  0  0  0  0  0  0  0  0  0  0
    7.8950   -3.3060   -1.5540 C   0  0  0  0  0  0  0  0  0  0  0  0
    6.4230   -4.3220    0.1340 C   0  0  0  0  0  0  0  0  0  0  0  0
    5.3320   -4.2610    0.9590 C   0  0  0  0  0  0  0  0  0  0  0  0
    4.5150   -3.1030    1.0010 C   0  0  0  0  0  0  0  0  0  0  0  0
    3.3940   -3.0930    1.9500 C   0  0  0  0  0  0  0  0  0  0  0  0
  1  2  1  0
  2  3  1  0
  3  4  1  0
  3 35  1  0
  5  4  1  6
  5  6  1  0
  5 16  1  0
  6  7  1  0
  7  8  2  0
  7  9  1  0
  9 10  1  0
 10 11  1  0
 10 15  2  0
 11 12  2  0
 12 13  1  0
 12 14  1  0
 14 15  1  0
 16 17  2  0
 16 34  1  0
 17 18  1  0
 18 19  2  0
 19 20  1  0
 19 22  1  0
 20 21  1  0
 22 23  1  0
 22 34  2  0
 23 24  2  0
 23 25  1  0
 25 26  1  0
 25 29  1  0
 26 27  1  0
 27 28  1  0
 29 30  2  0
 29 33  1  0
 30 31  1  0
 31 32  2  0
 32 33  1  0
 35 36  2  0
 35 37  1  0
 37 38  1  1
 37 39  1  0
 39 40  2  0
 39 45  1  0
 40 41  1  0
 41 42  1  0
 41 43  2  0
 43 44  1  0
 44 45  2  0
 45 46  1  0
M  END
