
     RDKit          3D

 47 52  0  0  0  0  0  0  0  0999 V2000
  -11.9440    1.2160    1.1970 C   0  0  0  0  0  0  0  0  0  0  0  0
  -11.1730    1.6420    0.2510 O   0  0  0  0  0  0  0  0  0  0  0  0
  -10.4670    2.1370   -0.7120 C   0  0  0  0  0  0  0  0  0  0  0  0
  -10.8250    3.2290   -1.4740 C   0  0  0  0  0  0  0  0  0  0  0  0
  -10.0830    3.7520   -2.4880 C   0  0  0  0  0  0  0  0  0  0  0  0
   -8.8860    3.1310   -2.7610 C   0  0  0  0  0  0  0  0  0  0  0  0
   -8.4810    2.0340   -2.0280 C   0  0  0  0  0  0  0  0  0  0  0  0
   -9.2070    1.4890   -1.0040 C   0  0  0  0  0  0  0  0  0  0  0  0
   -8.8410    0.4550   -0.2980 O   0  0  0  0  0  0  0  0  0  0  0  0
   -7.9890   -0.4740   -0.0020 C   0  0  0  0  0  0  0  0  0  0  0  0
   -6.5670   -0.1200    0.4660 C   0  0  2  0  0  0  0  0  0  0  0  0
   -6.7800    0.9450    1.5440 C   0  0  0  0  0  0  0  0  0  0  0  0
   -5.8980    0.5020   -0.5540 O   0  0  0  0  0  0  0  0  0  0  0  0
   -5.9340   -1.3440    1.0180 C   0  0  0  0  0  0  0  0  0  0  0  0
   -4.5240   -1.1950    1.5160 C   0  0  1  0  0  0  0  0  0  0  0  0
   -4.1460   -2.5870    2.0560 C   0  0  0  0  0  0  0  0  0  0  0  0
   -3.6120   -3.3700    0.8760 C   0  0  0  0  0  0  0  0  0  0  0  0
   -2.2140   -2.8730    0.6420 C   0  0  0  0  0  0  0  0  0  0  0  0
   -2.2670   -1.3770    0.3580 C   0  0  2  0  0  0  0  0  0  0  0  0
   -1.8190   -1.2640   -0.9730 O   0  0  0  0  0  0  0  0  0  0  0  0
   -1.2950   -0.6330    1.2380 C   0  0  0  0  0  0  0  0  0  0  0  0
    0.0410   -1.1220    1.2380 N   0  0  0  0  0  0  0  0  0  0  0  0
    0.8970   -1.1640    0.1310 C   0  0  0  0  0  0  0  0  0  0  0  0
    0.5900   -0.7580   -0.9980 O   0  0  0  0  0  0  0  0  0  0  0  0
    2.2320   -1.7210    0.3050 C   0  0  0  0  0  0  0  0  0  0  0  0
    2.4050   -3.0030    0.8410 C   0  0  0  0  0  0  0  0  0  0  0  0
    3.6590   -3.5420    1.0000 C   0  0  0  0  0  0  0  0  0  0  0  0
    4.8000   -2.8210    0.6270 C   0  0  0  0  0  0  0  0  0  0  0  0
    4.6250   -1.5870    0.1120 C   0  0  0  0  0  0  0  0  0  0  0  0
    5.8140   -0.9530   -0.2370 C   0  0  0  0  0  0  0  0  0  0  0  0
    5.7540    0.3050   -0.7850 C   0  0  0  0  0  0  0  0  0  0  0  0
    6.9280    1.0460   -1.1890 C   0  0  0  0  0  0  0  0  0  0  0  0
    6.7850    2.1310   -1.8780 O   0  0  0  0  0  0  0  0  0  0  0  0
    8.2650    0.7180   -0.9120 N   0  0  0  0  0  0  0  0  0  0  0  0
    9.3390    1.5710   -1.4010 C   0  0  2  0  0  0  0  0  0  0  0  0
   10.2390    0.8090   -2.3560 C   0  0  0  0  0  0  0  0  0  0  0  0
   11.4340    1.7310   -2.4480 C   0  0  0  0  0  0  0  0  0  0  0  0
   11.5150    2.4230   -1.1040 C   0  0  0  0  0  0  0  0  0  0  0  0
   10.3120    1.9380   -0.3040 C   0  0  1  0  0  0  0  0  0  0  0  0
    9.8090    3.0590    0.5730 C   0  0  0  0  0  0  0  0  0  0  0  0
    8.6250    2.7080    1.1800 O   0  0  0  0  0  0  0  0  0  0  0  0
    4.4910    0.8660   -0.9530 C   0  0  0  0  0  0  0  0  0  0  0  0
    3.3290    0.2220   -0.5990 C   0  0  0  0  0  0  0  0  0  0  0  0
    3.3820   -1.0410   -0.0500 C   0  0  0  0  0  0  0  0  0  0  0  0
    6.8970   -1.8730    0.1150 C   0  0  0  0  0  0  0  0  0  0  0  0
    6.2350   -3.1350    0.6530 C   0  0  0  0  0  0  0  0  0  0  0  0
   -3.6460   -0.8100    0.3680 C   0  0  0  0  0  0  0  0  0  0  0  0
  1  2  1  0
  2  3  1  0
  3  4  2  0
  3  8  1  0
  4  5  1  0
  5  6  2  0
  6  7  1  0
  7  8  2  0
  8  9  1  0
  9 10  1  0
 10 11  1  0
 11 12  1  1
 11 13  1  0
 11 14  1  0
 15 14  1  6
 15 16  1  0
 15 47  1  0
 16 17  1  0
 17 18  1  0
 18 19  1  0
 19 20  1  6
 19 21  1  0
 19 47  1  0
 21 22  1  0
 22 23  1  0
 23 24  2  0
 23 25  1  0
 25 26  2  0
 25 44  1  0
 26 27  1  0
 27 28  2  0
 28 29  1  0
 28 46  1  0
 29 30  2  0
 29 44  1  0
 30 31  1  0
 30 45  1  0
 31 32  1  0
 31 42  2  0
 32 33  2  0
 32 34  1  0
 35 34  1  1
 35 36  1  0
 35 39  1  0
 36 37  1  0
 37 38  1  0
 38 39  1  0
 39 40  1  1
 40 41  1  0
 42 43  1  0
 43 44  2  0
 45 46  1  0
M  END
