
     RDKit          3D

 26 29  0  0  0  0  0  0  0  0999 V2000
   -5.5350    2.3280    0.2410 C   0  0  0  0  0  0  0  0  0  0  0  0
   -5.5910    0.9260    0.7810 C   0  0  1  0  0  0  0  0  0  0  0  0
   -6.3700    0.0020   -0.1060 C   0  0  0  0  0  0  0  0  0  0  0  0
   -4.1840    0.3600    0.9690 C   0  0  0  0  0  0  0  0  0  0  0  0
   -3.4520    0.3270   -0.3290 C   0  0  0  0  0  0  0  0  0  0  0  0
   -2.1170   -0.1880   -0.2730 N   0  0  0  0  0  0  0  0  0  0  0  0
   -1.8930   -1.5530    0.0240 C   0  0  0  0  0  0  0  0  0  0  0  0
   -2.6960   -2.6450    0.2780 C   0  0  0  0  0  0  0  0  0  0  0  0
   -1.9020   -3.7240    0.4930 N   0  0  0  0  0  0  0  0  0  0  0  0
   -0.6470   -3.3960    0.3930 N   0  0  0  0  0  0  0  0  0  0  0  0
    0.5110   -4.2520    0.5520 C   0  0  0  0  0  0  0  0  0  0  0  0
   -0.5950   -2.0770    0.1060 C   0  0  0  0  0  0  0  0  0  0  0  0
    0.4810   -1.1680   -0.1240 N   0  0  0  0  0  0  0  0  0  0  0  0
    0.3030    0.2080   -0.4250 C   0  0  0  0  0  0  0  0  0  0  0  0
    1.3960    1.0170   -0.6420 C   0  0  0  0  0  0  0  0  0  0  0  0
    2.7370    0.5730   -0.5510 N   0  0  0  0  0  0  0  0  0  0  0  0
    3.3240    0.2020    0.7210 C   0  0  0  0  0  0  0  0  0  0  0  0
    4.6910    0.8830    0.7630 C   0  0  0  0  0  0  0  0  0  0  0  0
    5.5430    0.4080   -0.2930 N   0  0  2  0  0  0  0  0  0  0  0  0
    6.2180    1.5290   -0.8940 C   0  0  0  0  0  0  0  0  0  0  0  0
    4.8120   -0.3180   -1.3110 C   0  0  0  0  0  0  0  0  0  0  0  0
    3.6110    0.4690   -1.7120 C   0  0  0  0  0  0  0  0  0  0  0  0
    1.1410    2.3680   -0.9460 C   0  0  0  0  0  0  0  0  0  0  0  0
   -0.1320    2.7690   -1.0020 N   0  0  0  0  0  0  0  0  0  0  0  0
   -1.1690    1.9750   -0.7900 N   0  0  0  0  0  0  0  0  0  0  0  0
   -1.0000    0.6560   -0.4910 C   0  0  0  0  0  0  0  0  0  0  0  0
  2  1  1  6
  2  3  1  0
  2  4  1  0
  4  5  1  0
  5  6  1  0
  6  7  1  0
  6 26  1  0
  7  8  1  0
  7 12  2  0
  8  9  2  0
  9 10  1  0
 10 11  1  0
 10 12  1  0
 12 13  1  0
 13 14  1  0
 14 15  2  0
 14 26  1  0
 15 16  1  0
 15 23  1  0
 16 17  1  0
 16 22  1  0
 17 18  1  0
 18 19  1  0
 19 20  1  6
 19 21  1  0
 21 22  1  0
 23 24  2  0
 24 25  1  0
 25 26  2  0
M  CHG  1  19   1
M  END
