
     RDKit          3D

 10 11  0  0  0  0  0  0  0  0999 V2000
    1.5910    1.4820   -0.6330 N   0  0  0  0  0  0  0  0  0  0  0  0
    1.4910    0.1610   -0.0900 C   0  0  0  0  0  0  0  0  0  0  0  0
    2.5340   -0.6800    0.2380 C   0  0  0  0  0  0  0  0  0  0  0  0
    2.0250   -1.8460    0.7230 N   0  0  0  0  0  0  0  0  0  0  0  0
    0.7050   -1.7590    0.7080 N   0  0  0  0  0  0  0  0  0  0  0  0
    0.3440   -0.5420    0.2150 C   0  0  0  0  0  0  0  0  0  0  0  0
   -1.0250   -0.1060    0.0570 C   0  0  0  0  0  0  0  0  0  0  0  0
   -1.5600    1.0360   -0.4020 C   0  0  0  0  0  0  0  0  0  0  0  0
   -2.8940    0.5080   -0.1650 C   0  0  0  0  0  0  0  0  0  0  0  0
   -2.3760   -0.6170    0.2880 C   0  0  0  0  0  0  0  0  0  0  0  0
  1  2  1  0
  2  3  1  0
  2  6  2  0
  3  4  2  0
  4  5  1  0
  5  6  1  0
  6  7  1  0
  7  8  2  0
  7 10  1  0
  8  9  1  0
  9 10  2  0
M  END
