
     RDKit          3D

 26 29  0  0  0  0  0  0  0  0999 V2000
    8.9560   -0.7400   -1.1930 C   0  0  0  0  0  0  0  0  0  0  0  0
    7.6130   -0.7980   -0.6300 N   0  0  0  0  0  0  0  0  0  0  0  0
    6.7680    0.0210   -1.4480 C   0  0  0  0  0  0  0  0  0  0  0  0
    5.4080    0.1590   -0.8380 C   0  0  0  0  0  0  0  0  0  0  0  0
    4.4300    0.9070   -1.4580 C   0  0  0  0  0  0  0  0  0  0  0  0
    3.2290    1.0070   -0.8840 N   0  0  0  0  0  0  0  0  0  0  0  0
    2.9250    0.4080    0.2800 C   0  0  0  0  0  0  0  0  0  0  0  0
    1.7760    0.3740    1.0410 C   0  0  0  0  0  0  0  0  0  0  0  0
    0.5120    1.0360    0.7360 C   0  0  0  0  0  0  0  0  0  0  0  0
    0.2360    1.8010   -0.3440 N   0  0  0  0  0  0  0  0  0  0  0  0
   -1.0120    2.2350   -0.2860 N   0  0  0  0  0  0  0  0  0  0  0  0
   -1.5840    1.7610    0.8400 C   0  0  0  0  0  0  0  0  0  0  0  0
   -2.9870    2.0040    1.3040 C   0  0  0  0  0  0  0  0  0  0  0  0
   -3.8020    0.9350    0.7610 N   0  0  0  0  0  0  0  0  0  0  0  0
   -3.7800    0.8950   -0.6660 C   0  0  0  0  0  0  0  0  0  0  0  0
   -4.6010   -0.2340   -1.1890 C   0  0  0  0  0  0  0  0  0  0  0  0
   -5.5780   -0.6450   -0.0970 C   0  0  1  0  0  0  0  0  0  0  0  0
   -6.3890    0.5170    0.3920 C   0  0  0  0  0  0  0  0  0  0  0  0
   -6.4980   -1.6960   -0.6390 C   0  0  0  0  0  0  0  0  0  0  0  0
   -4.7350   -1.2560    1.0220 C   0  0  0  0  0  0  0  0  0  0  0  0
   -3.5740   -0.3320    1.3860 C   0  0  0  0  0  0  0  0  0  0  0  0
   -0.6310    1.0310    1.4460 N   0  0  0  0  0  0  0  0  0  0  0  0
    2.0980   -0.4100    2.1230 C   0  0  0  0  0  0  0  0  0  0  0  0
    3.3710   -0.8320    2.0310 N   0  0  0  0  0  0  0  0  0  0  0  0
    3.8760   -0.3250    0.8930 N   0  0  0  0  0  0  0  0  0  0  0  0
    5.0820   -0.4490    0.3540 C   0  0  0  0  0  0  0  0  0  0  0  0
  1  2  1  0
  2  3  1  0
  3  4  1  0
  4  5  1  0
  4 26  2  0
  5  6  2  0
  6  7  1  0
  7  8  2  0
  7 25  1  0
  8  9  1  0
  8 23  1  0
  9 10  2  0
  9 22  1  0
 10 11  1  0
 11 12  1  0
 12 13  1  0
 12 22  2  0
 13 14  1  0
 14 15  1  0
 14 21  1  0
 15 16  1  0
 16 17  1  0
 17 18  1  1
 17 19  1  0
 17 20  1  0
 20 21  1  0
 23 24  2  0
 24 25  1  0
 25 26  1  0
M  CHG  1   2   1
M  END
