
     RDKit          3D

 26 29  0  0  0  0  0  0  0  0999 V2000
   -6.2640    3.1820   -0.3480 C   0  0  0  0  0  0  0  0  0  0  0  0
   -5.1020    3.7550   -0.1480 C   0  0  0  0  0  0  0  0  0  0  0  0
   -3.9150    2.9420   -0.0030 C   0  0  0  0  0  0  0  0  0  0  0  0
   -2.7330    3.5350    0.2000 N   0  0  0  0  0  0  0  0  0  0  0  0
   -1.6520    2.8040    0.3340 C   0  0  0  0  0  0  0  0  0  0  0  0
   -1.6790    1.3780    0.2720 C   0  0  0  0  0  0  0  0  0  0  0  0
   -0.4440    0.6610    0.4310 C   0  0  0  0  0  0  0  0  0  0  0  0
    0.7820    1.2570    0.3210 N   0  0  0  0  0  0  0  0  0  0  0  0
    1.7560    0.3530    0.4710 C   0  0  0  0  0  0  0  0  0  0  0  0
    3.2290    0.6180    0.4170 C   0  0  0  0  0  0  0  0  0  0  0  0
    3.9850   -0.5750    0.6340 N   0  0  1  0  0  0  0  0  0  0  0  0
    4.4120   -1.2290   -0.5630 C   0  0  0  0  0  0  0  0  0  0  0  0
    5.8410   -1.7430   -0.4840 C   0  0  0  0  0  0  0  0  0  0  0  0
    6.7590   -0.5350   -0.4840 C   0  0  0  0  0  0  0  0  0  0  0  0
    6.2040    0.4510    0.5020 C   0  0  0  0  0  0  0  0  0  0  0  0
    5.1720   -0.2140    1.3990 C   0  0  0  0  0  0  0  0  0  0  0  0
    1.1320   -0.8060    0.6750 N   0  0  0  0  0  0  0  0  0  0  0  0
   -0.2000   -0.6030    0.6490 N   0  0  0  0  0  0  0  0  0  0  0  0
   -2.8770    0.7920    0.0630 C   0  0  0  0  0  0  0  0  0  0  0  0
   -3.0530   -0.5960   -0.1140 N   0  0  0  0  0  0  0  0  0  0  0  0
   -2.6770   -1.3260   -1.3230 C   0  0  0  0  0  0  0  0  0  0  0  0
   -3.9190   -2.1420   -1.7050 C   0  0  0  0  0  0  0  0  0  0  0  0
   -5.0840   -1.5800   -1.0600 N   0  0  0  0  0  0  0  0  0  0  0  0
   -5.0160   -1.8630    0.3730 C   0  0  0  0  0  0  0  0  0  0  0  0
   -3.6820   -1.3780    0.9340 C   0  0  0  0  0  0  0  0  0  0  0  0
   -3.9790    1.6180   -0.0690 N   0  0  0  0  0  0  0  0  0  0  0  0
  1  2  2  0
  2  3  1  0
  3  4  2  0
  3 26  1  0
  4  5  1  0
  5  6  2  0
  6  7  1  0
  6 19  1  0
  7  8  2  0
  7 18  1  0
  8  9  1  0
  9 10  1  0
  9 17  2  0
 11 10  1  6
 11 12  1  0
 11 16  1  0
 12 13  1  0
 13 14  1  0
 14 15  1  0
 15 16  1  0
 17 18  1  0
 19 20  1  0
 19 26  2  0
 20 21  1  0
 20 25  1  0
 21 22  1  0
 22 23  1  0
 23 24  1  0
 24 25  1  0
M  CHG  1  11   1
M  END
