
     RDKit          3D

 26 29  0  0  0  0  0  0  0  0999 V2000
    7.4300    1.0790   -0.4080 C   0  0  0  0  0  0  0  0  0  0  0  0
    6.0880    1.3200   -0.9500 N   0  0  0  0  0  0  0  0  0  0  0  0
    5.4480    0.0860   -1.3140 C   0  0  0  0  0  0  0  0  0  0  0  0
    4.1620   -0.1270   -0.5690 C   0  0  0  0  0  0  0  0  0  0  0  0
    4.1580   -0.7630    0.6160 N   0  0  0  0  0  0  0  0  0  0  0  0
    3.0670   -0.9970    1.3470 C   0  0  0  0  0  0  0  0  0  0  0  0
    3.0630   -1.6930    2.6430 C   0  0  0  0  0  0  0  0  0  0  0  0
    1.8400   -0.5530    0.8520 C   0  0  0  0  0  0  0  0  0  0  0  0
    0.5840   -0.6150    1.3070 N   0  0  0  0  0  0  0  0  0  0  0  0
   -0.2390   -0.0220    0.4250 C   0  0  0  0  0  0  0  0  0  0  0  0
   -1.7340    0.1230    0.5590 C   0  0  1  0  0  0  0  0  0  0  0  0
   -2.2160    1.3830   -0.0810 C   0  0  0  0  0  0  0  0  0  0  0  0
   -3.3700    1.2370   -0.9200 N   0  0  0  0  0  0  0  0  0  0  0  0
   -4.5680    1.0060   -0.1830 C   0  0  1  0  0  0  0  0  0  0  0  0
   -4.8050    2.2460    0.6900 C   0  0  0  0  0  0  0  0  0  0  0  0
   -5.7660    0.8470   -1.0570 C   0  0  0  0  0  0  0  0  0  0  0  0
   -3.0820    0.2690   -1.9330 C   0  0  0  0  0  0  0  0  0  0  0  0
   -2.9630   -1.0490   -1.2940 C   0  0  0  0  0  0  0  0  0  0  0  0
   -3.4440   -2.1980   -1.7990 N   0  0  0  0  0  0  0  0  0  0  0  0
   -3.3090   -3.3860   -1.1730 C   0  0  0  0  0  0  0  0  0  0  0  0
   -2.6600   -3.4130    0.0140 N   0  0  0  0  0  0  0  0  0  0  0  0
   -2.1530   -2.3050    0.5800 C   0  0  0  0  0  0  0  0  0  0  0  0
   -2.3070   -1.1100   -0.0830 C   0  0  0  0  0  0  0  0  0  0  0  0
    0.5360    0.4070   -0.5830 N   0  0  0  0  0  0  0  0  0  0  0  0
    1.8180    0.1010   -0.3600 C   0  0  0  0  0  0  0  0  0  0  0  0
    2.9800    0.3020   -1.0480 N   0  0  0  0  0  0  0  0  0  0  0  0
  1  2  1  0
  2  3  1  0
  3  4  1  0
  4  5  2  0
  4 26  1  0
  5  6  1  0
  6  7  1  0
  6  8  2  0
  8  9  1  0
  8 25  1  0
  9 10  1  0
 11 10  1  6
 10 24  2  0
 11 12  1  0
 11 23  1  0
 12 13  1  0
 13 14  1  0
 13 17  1  0
 14 15  1  1
 14 16  1  0
 17 18  1  0
 18 19  2  0
 18 23  1  0
 19 20  1  0
 20 21  2  0
 21 22  1  0
 22 23  2  0
 24 25  1  0
 25 26  2  0
M  CHG  1   2   1
M  END
