
     RDKit          3D

 10 11  0  0  0  0  0  0  0  0999 V2000
   -1.2940   -2.1580   -0.0640 N   0  0  0  0  0  0  0  0  0  0  0  0
   -1.0730   -0.7660   -0.0230 C   0  0  0  0  0  0  0  0  0  0  0  0
   -2.1320    0.1390    0.0020 C   0  0  0  0  0  0  0  0  0  0  0  0
   -1.9090    1.4550    0.0400 N   0  0  0  0  0  0  0  0  0  0  0  0
   -0.6760    2.0020    0.0580 C   0  0  0  0  0  0  0  0  0  0  0  0
    0.4070    1.1370    0.0340 C   0  0  0  0  0  0  0  0  0  0  0  0
    1.7690    1.3520    0.0410 C   0  0  0  0  0  0  0  0  0  0  0  0
    2.3620    0.1450    0.0070 N   0  0  0  0  0  0  0  0  0  0  0  0
    1.4500   -0.8270   -0.0220 C   0  0  0  0  0  0  0  0  0  0  0  0
    0.2080   -0.2320   -0.0060 C   0  0  0  0  0  0  0  0  0  0  0  0
  1  2  1  0
  2  3  2  0
  2 10  1  0
  3  4  1  0
  4  5  2  0
  5  6  1  0
  6  7  2  0
  6 10  1  0
  7  8  1  0
  8  9  1  0
  9 10  2  0
M  END
