
     RDKit          3D

 30 31  0  0  0  0  0  0  0  0999 V2000
    1.3580    0.6660    6.0440 O   0  0  0  0  0  0  0  0  0  0  0  0
    1.3690   -0.6880    5.2410 P   0  0  0  0  0  0  0  0  0  0  0  0
    0.9720   -0.6190    3.4800 N   0  0  0  0  0  0  0  0  0  0  0  0
    1.7810    0.1220    2.5460 C   0  0  0  0  0  0  0  0  0  0  0  0
    2.7700    0.7280    2.9480 O   0  0  0  0  0  0  0  0  0  0  0  0
    1.3410    0.0780    1.1290 C   0  0  1  0  0  0  0  0  0  0  0  0
    2.4910    0.8220    0.3310 C   0  0  0  0  0  0  0  0  0  0  0  0
    2.3680    0.4190   -0.9640 O   0  0  0  0  0  0  0  0  0  0  0  0
    3.5040    0.8440   -2.1260 P   0  0  0  0  0  0  0  0  0  0  0  0
    4.9660    1.5480   -1.5770 O   0  0  0  0  0  0  0  0  0  0  0  0
    3.8840   -0.6350   -3.0310 O   0  0  0  0  0  0  0  0  0  0  0  0
    1.6040   -1.2790    0.5460 N   0  0  0  0  0  0  0  0  0  0  0  0
    0.8330   -1.1440   -0.6620 C   0  0  0  0  0  0  0  0  0  0  0  0
    1.0240   -1.5950   -1.7790 O   0  0  0  0  0  0  0  0  0  0  0  0
   -0.3640   -0.2670   -0.2450 C   0  0  1  0  0  0  0  0  0  0  0  0
   -0.6590    0.8040   -1.2410 C   0  0  0  0  0  0  0  0  0  0  0  0
   -1.5280    1.7130   -0.5020 O   0  0  0  0  0  0  0  0  0  0  0  0
   -1.9310    2.9190   -0.9900 C   0  0  0  0  0  0  0  0  0  0  0  0
   -1.5640    3.2740   -2.1190 O   0  0  0  0  0  0  0  0  0  0  0  0
   -2.7560    3.7240   -0.1710 O   0  0  0  0  0  0  0  0  0  0  0  0
   -3.2730    5.2870   -0.7650 P   0  0  0  0  0  0  0  0  0  0  0  0
   -2.3160    6.2240   -1.5650 O   0  0  0  0  0  0  0  0  0  0  0  0
   -1.4400   -1.2580   -0.1430 C   0  0  0  0  0  0  0  0  0  0  0  0
   -1.3280   -2.2710    0.6990 N   0  0  0  0  0  0  0  0  0  0  0  0
   -2.3220   -3.2660    0.8230 C   0  0  0  0  0  0  0  0  0  0  0  0
   -2.2150   -4.2240    1.6590 O   0  0  0  0  0  0  0  0  0  0  0  0
   -3.4790   -3.2500    0.0280 N   0  0  0  0  0  0  0  0  0  0  0  0
   -3.7230   -2.1640   -0.8620 C   0  0  0  0  0  0  0  0  0  0  0  0
   -2.6580   -1.1670   -0.8550 N   0  0  0  0  0  0  0  0  0  0  0  0
    0.1070    0.3500    0.8840 O   0  0  0  0  0  0  0  0  0  0  0  0
  1  2  2  0
  2  3  1  0
  3  4  1  0
  4  5  2  0
  4  6  1  0
  6  7  1  6
  6 12  1  0
  6 30  1  0
  7  8  1  0
  8  9  1  0
  9 10  1  0
  9 11  1  0
 12 13  1  0
 13 14  2  0
 13 15  1  0
 15 16  1  6
 15 23  1  0
 15 30  1  0
 16 17  1  0
 17 18  1  0
 18 19  2  0
 18 20  1  0
 20 21  1  0
 21 22  2  0
 23 24  2  0
 23 29  1  0
 24 25  1  0
 25 26  2  0
 25 27  1  0
 27 28  1  0
 28 29  1  0
M  END
