
     RDKit          3D

 31 33  0  0  0  0  0  0  0  0999 V2000
    1.9900   -1.8500   -2.8320 O   0  0  0  0  0  0  0  0  0  0  0  0
    1.3360   -1.2200   -1.9210 C   0  0  0  0  0  0  0  0  0  0  0  0
   -0.1200   -1.0840   -2.0370 C   0  0  0  0  0  0  0  0  0  0  0  0
   -0.7900   -0.3960   -0.9900 N   0  0  0  0  0  0  0  0  0  0  0  0
   -0.9570   -0.8980    0.3690 C   0  0  0  0  0  0  0  0  0  0  0  0
   -2.3790   -0.6480    0.8560 C   0  0  1  0  0  0  0  0  0  0  0  0
   -2.3850   -1.1420    2.6500 P   0  0  0  0  0  0  0  0  0  0  0  0
   -3.5490   -0.2470    3.5640 O   0  0  0  0  0  0  0  0  0  0  0  0
   -2.6370   -2.8200    2.8670 O   0  0  0  0  0  0  0  0  0  0  0  0
   -2.7170    0.7580    0.8000 N   0  0  0  0  0  0  0  0  0  0  0  0
   -2.6080    1.3210   -0.5070 C   0  0  1  0  0  0  0  0  0  0  0  0
   -4.1210    0.9780   -1.5560 P   0  0  0  0  0  0  0  0  0  0  0  0
   -3.8610    1.8500   -3.0600 O   0  0  0  0  0  0  0  0  0  0  0  0
   -5.8590    1.9480   -0.5820 P   0  0  0  0  0  0  0  0  0  0  0  0
   -7.1320    0.7900   -0.4910 O   0  0  0  0  0  0  0  0  0  0  0  0
   -5.4250    2.4970    0.9940 O   0  0  0  0  0  0  0  0  0  0  0  0
   -2.4430    2.7030   -0.5110 O   0  0  0  0  0  0  0  0  0  0  0  0
   -1.9940    2.9040   -1.7860 O   0  0  0  0  0  0  0  0  0  0  0  0
   -1.0520    1.8870   -1.9750 N   0  0  0  0  0  0  0  0  0  0  0  0
   -1.3730    0.8970   -1.2190 C   0  0  0  0  0  0  0  0  0  0  0  0
    2.1410   -0.7140   -0.8760 N   0  0  0  0  0  0  0  0  0  0  0  0
    3.5610   -0.8920   -0.8490 C   0  0  0  0  0  0  0  0  0  0  0  0
    4.4080   -0.4490    0.0900 N   0  0  0  0  0  0  0  0  0  0  0  0
    5.6700   -0.8030   -0.2140 C   0  0  0  0  0  0  0  0  0  0  0  0
    6.8860   -0.5170    0.5350 C   0  0  0  0  0  0  0  0  0  0  0  0
    7.9900   -0.9130    0.1380 O   0  0  0  0  0  0  0  0  0  0  0  0
    6.8160    0.2110    1.7140 O   0  0  0  0  0  0  0  0  0  0  0  0
    7.9130    0.4820    2.4060 O   0  0  0  0  0  0  0  0  0  0  0  0
    8.4710    1.5500    1.8820 O   0  0  0  0  0  0  0  0  0  0  0  0
    5.5550   -1.5000   -1.4090 C   0  0  0  0  0  0  0  0  0  0  0  0
    4.2880   -1.5220   -1.7390 O   0  0  0  0  0  0  0  0  0  0  0  0
  1  2  2  0
  2  3  1  0
  2 21  1  0
  3  4  1  0
  4  5  1  0
  4 20  1  0
  5  6  1  0
  6  7  1  1
  6 10  1  0
  7  8  1  0
  7  9  1  0
 10 11  1  0
 11 12  1  6
 11 17  1  0
 11 20  1  0
 12 13  1  0
 12 14  1  0
 14 15  1  0
 14 16  1  0
 17 18  1  0
 18 19  1  0
 19 20  2  0
 21 22  1  0
 22 23  2  0
 22 31  1  0
 23 24  1  0
 24 25  1  0
 24 30  2  0
 25 26  2  0
 25 27  1  0
 27 28  1  0
 28 29  1  0
 30 31  1  0
M  END
