
     RDKit          3D

 30 31  0  0  0  0  0  0  0  0999 V2000
    6.3420    0.3840    4.8820 O   0  0  0  0  0  0  0  0  0  0  0  0
    5.5410    1.4980    4.1620 P   0  0  0  0  0  0  0  0  0  0  0  0
    4.6650    1.1220    2.6460 N   0  0  0  0  0  0  0  0  0  0  0  0
    4.5040   -0.2150    2.2280 C   0  0  0  0  0  0  0  0  0  0  0  0
    4.9670   -1.1670    2.9020 O   0  0  0  0  0  0  0  0  0  0  0  0
    3.7540   -0.4980    0.9350 C   0  0  1  0  0  0  0  0  0  0  0  0
    3.3410    0.7260    0.3730 O   0  0  0  0  0  0  0  0  0  0  0  0
    2.0710    1.1470    0.4320 N   0  0  0  0  0  0  0  0  0  0  0  0
    1.1510    0.8210   -0.4020 C   0  0  0  0  0  0  0  0  0  0  0  0
    1.4250   -0.0140   -1.4470 N   0  0  0  0  0  0  0  0  0  0  0  0
    0.4160   -0.3170   -2.2860 C   0  0  0  0  0  0  0  0  0  0  0  0
    0.6690   -1.0860   -3.2490 O   0  0  0  0  0  0  0  0  0  0  0  0
   -0.8260    0.1550   -2.1430 N   0  0  0  0  0  0  0  0  0  0  0  0
   -1.1190    0.9710   -1.1310 C   0  0  0  0  0  0  0  0  0  0  0  0
   -0.1270    1.3170   -0.2420 C   0  0  0  0  0  0  0  0  0  0  0  0
   -0.7560    2.1680    0.6740 O   0  0  0  0  0  0  0  0  0  0  0  0
   -1.8310    2.7260    0.0360 O   0  0  0  0  0  0  0  0  0  0  0  0
   -2.2990    1.6340   -0.7030 N   0  0  0  0  0  0  0  0  0  0  0  0
   -3.6370    1.3160   -0.9100 C   0  0  0  0  0  0  0  0  0  0  0  0
   -4.5190    2.1590   -0.4770 O   0  0  0  0  0  0  0  0  0  0  0  0
   -4.1230    0.1030   -1.5750 C   0  0  1  0  0  0  0  0  0  0  0  0
   -3.7590   -1.1760   -0.8680 C   0  0  0  0  0  0  0  0  0  0  0  0
   -4.5060   -1.1510    0.8600 P   0  0  0  0  0  0  0  0  0  0  0  0
   -3.6230   -2.3610    1.7720 O   0  0  0  0  0  0  0  0  0  0  0  0
   -4.0600    0.3990    1.5460 O   0  0  0  0  0  0  0  0  0  0  0  0
   -6.0310    0.1030   -1.5560 P   0  0  0  0  0  0  0  0  0  0  0  0
   -6.7870   -0.4290   -2.8000 O   0  0  0  0  0  0  0  0  0  0  0  0
    4.5950   -1.2600    0.0160 C   0  0  0  0  0  0  0  0  0  0  0  0
    5.0010   -2.4110    0.4000 O   0  0  0  0  0  0  0  0  0  0  0  0
    4.9950   -0.8420   -1.2390 O   0  0  0  0  0  0  0  0  0  0  0  0
  1  2  2  0
  2  3  1  0
  3  4  1  0
  4  5  2  0
  4  6  1  0
  6  7  1  6
  6 28  1  0
  7  8  1  0
  8  9  2  3
  9 10  1  0
  9 15  1  0
 10 11  1  0
 11 12  2  0
 11 13  1  0
 13 14  1  0
 14 15  2  0
 14 18  1  0
 15 16  1  0
 16 17  1  0
 17 18  1  0
 18 19  1  0
 19 20  2  0
 19 21  1  0
 21 22  1  1
 21 26  1  0
 22 23  1  0
 23 24  1  0
 23 25  1  0
 26 27  2  0
 28 29  2  0
 28 30  1  0
M  END
