
     RDKit          3D

 31 32  0  0  0  0  0  0  0  0999 V2000
   -3.1250   -1.7660   -0.6170 N   0  0  0  0  0  0  0  0  0  0  0  0
   -2.4720   -0.6690   -0.5150 C   0  0  0  0  0  0  0  0  0  0  0  0
   -1.0970   -0.7470   -0.1020 N   0  0  0  0  0  0  0  0  0  0  0  0
   -0.1170   -0.1920   -0.9730 C   0  0  0  0  0  0  0  0  0  0  0  0
    1.2810   -0.2070   -0.3890 C   0  0  0  0  0  0  0  0  0  0  0  0
    2.2620   -0.9190   -0.7930 N   0  0  0  0  0  0  0  0  0  0  0  0
    3.4270   -0.7280   -0.0660 N   0  0  0  0  0  0  0  0  0  0  0  0
    4.6970   -1.3830   -0.2620 C   0  0  1  0  0  0  0  0  0  0  0  0
    4.5720   -2.8790   -0.4160 C   0  0  0  0  0  0  0  0  0  0  0  0
    5.6280   -2.7540   -1.3770 O   0  0  0  0  0  0  0  0  0  0  0  0
    5.1200   -1.5040   -1.6810 C   0  0  0  0  0  0  0  0  0  0  0  0
    5.0660   -0.8150   -2.7220 O   0  0  0  0  0  0  0  0  0  0  0  0
    3.1390    0.2370    0.9340 C   0  0  0  0  0  0  0  0  0  0  0  0
    3.9170    0.6870    1.8200 O   0  0  0  0  0  0  0  0  0  0  0  0
    1.7330    0.6260    0.7450 C   0  0  1  0  0  0  0  0  0  0  0  0
    1.6890    1.9900    0.4120 O   0  0  0  0  0  0  0  0  0  0  0  0
    0.9550    2.6950    1.2120 O   0  0  0  0  0  0  0  0  0  0  0  0
    1.4710    4.3440    1.0730 P   0  0  0  0  0  0  0  0  0  0  0  0
    2.0010    4.9140   -0.2900 O   0  0  0  0  0  0  0  0  0  0  0  0
   -0.8640   -1.3990    1.1630 C   0  0  0  0  0  0  0  0  0  0  0  0
   -1.7510   -0.4490    2.4730 P   0  0  0  0  0  0  0  0  0  0  0  0
   -3.0050   -1.3860    3.2340 O   0  0  0  0  0  0  0  0  0  0  0  0
   -0.6790    0.1180    3.6990 O   0  0  0  0  0  0  0  0  0  0  0  0
   -3.0560    0.5990   -0.7790 N   0  0  0  0  0  0  0  0  0  0  0  0
   -3.6240    0.8470   -2.0420 C   0  0  0  0  0  0  0  0  0  0  0  0
   -4.1280    1.9620   -2.2960 O   0  0  0  0  0  0  0  0  0  0  0  0
   -3.6280   -0.1570   -3.0160 O   0  0  0  0  0  0  0  0  0  0  0  0
   -4.1760    0.1160   -4.1860 O   0  0  0  0  0  0  0  0  0  0  0  0
   -3.0800    1.8710    0.4660 P   0  0  0  0  0  0  0  0  0  0  0  0
   -2.7990    3.4420   -0.2610 O   0  0  0  0  0  0  0  0  0  0  0  0
   -4.6880    1.9390    1.1490 O   0  0  0  0  0  0  0  0  0  0  0  0
  1  2  2  0
  2  3  1  0
  2 24  1  0
  3  4  1  0
  3 20  1  0
  4  5  1  0
  5  6  2  0
  5 15  1  0
  6  7  1  0
  8  7  1  6
  7 13  1  0
  8  9  1  0
  8 11  1  0
  9 10  1  0
 10 11  1  0
 11 12  2  0
 13 14  2  0
 13 15  1  0
 15 16  1  6
 16 17  1  0
 17 18  1  0
 18 19  2  0
 20 21  1  0
 21 22  1  0
 21 23  1  0
 24 25  1  0
 24 29  1  0
 25 26  2  0
 25 27  1  0
 27 28  1  0
 29 30  1  0
 29 31  1  0
M  END
