
     RDKit          3D

 30 31  0  0  0  0  0  0  0  0999 V2000
    8.9550   -0.1700    0.7760 O   0  0  0  0  0  0  0  0  0  0  0  0
    7.9670    0.1470    1.4860 C   0  0  0  0  0  0  0  0  0  0  0  0
    8.1510    0.7100    2.7430 O   0  0  0  0  0  0  0  0  0  0  0  0
    6.6450   -0.0740    0.9960 N   0  0  0  0  0  0  0  0  0  0  0  0
    6.5030   -0.6530   -0.2970 C   0  0  0  0  0  0  0  0  0  0  0  0
    7.5140   -0.9580   -0.9790 O   0  0  0  0  0  0  0  0  0  0  0  0
    5.1550   -0.9060   -0.8570 C   0  0  0  0  0  0  0  0  0  0  0  0
    4.1660   -0.4820    0.0900 O   0  0  0  0  0  0  0  0  0  0  0  0
    2.8210   -0.6180   -0.2070 C   0  0  0  0  0  0  0  0  0  0  0  0
    2.5170   -1.1120   -1.3080 O   0  0  0  0  0  0  0  0  0  0  0  0
    1.7720   -0.2340    0.6510 N   0  0  0  0  0  0  0  0  0  0  0  0
    0.3780   -0.3940    0.2990 C   0  0  2  0  0  0  0  0  0  0  0  0
    0.0720    0.7980   -1.1240 P   0  0  0  0  0  0  0  0  0  0  0  0
    1.5620    1.2840   -1.8230 O   0  0  0  0  0  0  0  0  0  0  0  0
   -0.9890    0.0720   -2.2880 O   0  0  0  0  0  0  0  0  0  0  0  0
   -0.4720    0.1090    1.4360 C   0  0  0  0  0  0  0  0  0  0  0  0
   -1.8700   -0.0810    1.0210 N   0  0  0  0  0  0  0  0  0  0  0  0
   -2.8280    0.9870    1.0300 C   0  0  0  0  0  0  0  0  0  0  0  0
   -4.1380    0.4670    0.4700 C   0  0  1  0  0  0  0  0  0  0  0  0
   -4.0990    0.4380   -0.9190 O   0  0  0  0  0  0  0  0  0  0  0  0
   -5.3450    1.3880   -1.6000 P   0  0  0  0  0  0  0  0  0  0  0  0
   -5.8730    0.7980   -3.1410 O   0  0  0  0  0  0  0  0  0  0  0  0
   -7.0370    1.6840   -0.2310 P   0  0  0  0  0  0  0  0  0  0  0  0
   -7.4530    0.2090    0.5920 O   0  0  0  0  0  0  0  0  0  0  0  0
   -6.6850    2.8730    0.9850 O   0  0  0  0  0  0  0  0  0  0  0  0
   -4.3670   -0.8780    0.8860 O   0  0  0  0  0  0  0  0  0  0  0  0
   -3.4040   -1.7980    0.5480 N   0  0  0  0  0  0  0  0  0  0  0  0
   -2.1790   -1.4090    0.6130 C   0  0  0  0  0  0  0  0  0  0  0  0
   -1.0790   -2.3390    0.2670 C   0  0  0  0  0  0  0  0  0  0  0  0
    0.1420   -1.7330   -0.1060 N   0  0  0  0  0  0  0  0  0  0  0  0
  1  2  2  0
  2  3  1  0
  2  4  1  0
  4  5  1  0
  5  6  2  0
  5  7  1  0
  7  8  1  0
  8  9  1  0
  9 10  2  0
  9 11  1  0
 12 11  1  1
 12 13  1  0
 12 16  1  0
 12 30  1  0
 13 14  1  0
 13 15  1  0
 16 17  1  0
 17 18  1  0
 17 28  1  0
 18 19  1  0
 19 20  1  6
 19 26  1  0
 20 21  1  0
 21 22  1  0
 21 23  1  0
 23 24  1  0
 23 25  1  0
 26 27  1  0
 27 28  2  0
 28 29  1  0
 29 30  1  0
M  END
