
     RDKit          3D

 30 32  0  0  0  0  0  0  0  0999 V2000
    0.5450    1.9580   -1.7140 C   0  0  0  0  0  0  0  0  0  0  0  0
    0.5670    0.5420   -1.1510 C   0  0  1  0  0  0  0  0  0  0  0  0
   -0.3700    0.3950   -0.1080 O   0  0  0  0  0  0  0  0  0  0  0  0
   -0.3050    1.1620    1.0450 C   0  0  0  0  0  0  0  0  0  0  0  0
    0.6180    1.9950    1.1310 O   0  0  0  0  0  0  0  0  0  0  0  0
   -1.2950    1.0110    2.1560 C   0  0  0  0  0  0  0  0  0  0  0  0
   -2.2540   -0.0020    1.8270 N   0  0  0  0  0  0  0  0  0  0  0  0
   -2.1390   -1.3830    2.1250 C   0  0  0  0  0  0  0  0  0  0  0  0
   -1.1450   -1.8980    2.7370 O   0  0  0  0  0  0  0  0  0  0  0  0
   -3.2960   -2.0320    1.6290 N   0  0  0  0  0  0  0  0  0  0  0  0
   -4.0930   -1.0790    1.0450 N   0  0  0  0  0  0  0  0  0  0  0  0
   -3.4990    0.2020    1.1360 C   0  0  0  0  0  0  0  0  0  0  0  0
   -4.0510    1.2670    0.6620 N   0  0  0  0  0  0  0  0  0  0  0  0
   -5.2740    1.3570    0.0030 C   0  0  0  0  0  0  0  0  0  0  0  0
   -5.6190    2.5310   -0.3820 O   0  0  0  0  0  0  0  0  0  0  0  0
   -6.1570    0.3310   -0.2850 O   0  0  0  0  0  0  0  0  0  0  0  0
   -5.6990   -1.2830    0.2350 P   0  0  0  0  0  0  0  0  0  0  0  0
   -5.5750   -2.3840   -1.0760 O   0  0  0  0  0  0  0  0  0  0  0  0
    0.2310   -0.3970   -2.2480 C   0  0  0  0  0  0  0  0  0  0  0  0
   -0.8950   -0.5570   -2.7480 O   0  0  0  0  0  0  0  0  0  0  0  0
    1.4060   -1.0940   -2.6440 N   0  0  0  0  0  0  0  0  0  0  0  0
    2.5200   -0.5140   -1.9390 C   0  0  0  0  0  0  0  0  0  0  0  0
    1.9560    0.1450   -0.7230 C   0  0  1  0  0  0  0  0  0  0  0  0
    2.6990    1.2880   -0.4440 O   0  0  0  0  0  0  0  0  0  0  0  0
    1.9460   -0.6480    0.4040 O   0  0  0  0  0  0  0  0  0  0  0  0
    3.4510   -1.1500    0.9690 P   0  0  0  0  0  0  0  0  0  0  0  0
    4.2010   -2.4030    0.0980 O   0  0  0  0  0  0  0  0  0  0  0  0
    4.8020    0.4770    1.5090 P   0  0  0  0  0  0  0  0  0  0  0  0
    6.0810   -0.0390    2.5320 O   0  0  0  0  0  0  0  0  0  0  0  0
    5.3230    1.4020    0.1630 O   0  0  0  0  0  0  0  0  0  0  0  0
  2  1  1  6
  2  3  1  0
  2 19  1  0
  2 23  1  0
  3  4  1  0
  4  5  2  0
  4  6  1  0
  6  7  1  0
  7  8  1  0
  7 12  1  0
  8  9  2  0
  8 10  1  0
 10 11  1  0
 11 12  1  0
 11 17  1  0
 12 13  2  0
 13 14  1  0
 14 15  2  0
 14 16  1  0
 16 17  1  0
 17 18  1  0
 19 20  2  0
 19 21  1  0
 21 22  1  0
 22 23  1  0
 23 24  1  1
 23 25  1  0
 25 26  1  0
 26 27  1  0
 26 28  1  0
 28 29  1  0
 28 30  1  0
M  END
