
     RDKit          3D

  6  5  0  0  0  0  0  0  0  0999 V2000
   -2.3330   -0.0270    0.1880 C   0  0  0  0  0  0  0  0  0  0  0  0
   -1.1660   -0.9310    0.4790 C   0  0  0  0  0  0  0  0  0  0  0  0
    0.1380   -0.3950   -0.0670 C   0  0  2  0  0  0  0  0  0  0  0  0
    1.2160   -1.3870    0.2910 C   0  0  0  0  0  0  0  0  0  0  0  0
    0.3810    0.9630    0.5310 C   0  0  0  0  0  0  0  0  0  0  0  0
    1.6610    1.5880    0.0500 C   0  0  0  0  0  0  0  0  0  0  0  0
  1  2  1  0
  2  3  1  0
  3  4  1  1
  3  5  1  0
  5  6  1  0
M  END
