
     RDKit          3D

  6  6  0  0  0  0  0  0  0  0999 V2000
    0.9640    1.0280   -0.0570 C   0  0  0  0  0  0  0  0  0  0  0  0
    1.3310   -0.3020    0.0070 C   0  0  0  0  0  0  0  0  0  0  0  0
    0.3820   -1.3060    0.0620 C   0  0  0  0  0  0  0  0  0  0  0  0
   -0.9690   -1.0190    0.0560 C   0  0  0  0  0  0  0  0  0  0  0  0
   -1.3250    0.3110   -0.0070 C   0  0  0  0  0  0  0  0  0  0  0  0
   -0.3820    1.3160   -0.0630 C   0  0  0  0  0  0  0  0  0  0  0  0
  1  2  2  0
  1  6  1  0
  2  3  1  0
  3  4  2  0
  4  5  1  0
  5  6  2  0
M  END
