
     RDKit          3D

  6  6  0  0  0  0  0  0  0  0999 V2000
   -1.4980    0.8300    0.6320 C   0  0  0  0  0  0  0  0  0  0  0  0
   -0.6530    0.3580   -0.5430 C   0  0  2  0  0  0  0  0  0  0  0  0
   -0.9000   -1.1020   -0.8470 C   0  0  0  0  0  0  0  0  0  0  0  0
    0.7790    0.6460   -0.2230 C   0  0  1  0  0  0  0  0  0  0  0  0
    1.3270   -0.0270    1.0210 C   0  0  0  0  0  0  0  0  0  0  0  0
    1.8500   -0.3470   -0.3450 C   0  0  0  0  0  0  0  0  0  0  0  0
  2  1  1  1
  2  3  1  0
  2  4  1  0
  4  5  1  1
  4  6  1  0
  5  6  1  0
M  END
