
     RDKit          3D

 18 17  0  0  0  0  0  0  0  0999 V2000
   -3.0600   -1.7820   -0.9200 N   0  0  0  0  0  0  0  0  0  0  0  0
   -2.9260   -0.3620   -0.6050 C   0  0  1  0  0  0  0  0  0  0  0  0
   -4.1670   -0.0540    0.2460 C   0  0  0  0  0  0  0  0  0  0  0  0
   -4.2270    1.3510    0.6760 C   0  0  0  0  0  0  0  0  0  0  0  0
   -3.6000    1.8210    1.6710 O   0  0  0  0  0  0  0  0  0  0  0  0
   -5.0250    2.2630   -0.0410 O   0  0  0  0  0  0  0  0  0  0  0  0
   -1.7510   -0.1040    0.2580 C   0  0  0  0  0  0  0  0  0  0  0  0
   -1.4240    1.0850    0.5040 O   0  0  0  0  0  0  0  0  0  0  0  0
   -0.9780   -1.0840    0.8210 O   0  0  0  0  0  0  0  0  0  0  0  0
    0.1160   -0.8420    1.6310 C   0  0  0  0  0  0  0  0  0  0  0  0
    1.2450   -0.0950    1.0240 C   0  0  0  0  0  0  0  0  0  0  0  0
    2.1690    0.1960    1.8620 O   0  0  0  0  0  0  0  0  0  0  0  0
    1.3730    0.2910   -0.3050 N   0  0  0  0  0  0  0  0  0  0  0  0
    2.4690    1.0030   -0.8780 C   0  0  0  0  0  0  0  0  0  0  0  0
    3.7990    0.3490   -0.8740 C   0  0  0  0  0  0  0  0  0  0  0  0
    4.5270   -0.0520    0.6880 S   0  0  0  0  0  0  0  0  0  0  0  0
    6.3820   -0.9490    0.6200 S   0  0  0  0  0  0  0  0  0  0  0  0
    7.5410   -0.0190    0.4690 O   0  0  0  0  0  0  0  0  0  0  0  0
  2  1  1  1
  2  3  1  0
  2  7  1  0
  3  4  1  0
  4  5  2  0
  4  6  1  0
  7  8  2  0
  7  9  1  0
  9 10  1  0
 10 11  1  0
 11 12  2  0
 11 13  1  0
 13 14  1  0
 14 15  1  0
 15 16  1  0
 16 17  1  0
 17 18  2  0
M  END
