
     RDKit          3D

 33 33  0  0  0  0  0  0  0  0999 V2000
   -4.7970    0.7100    3.2460 N   0  0  0  0  0  0  0  0  0  0  0  0
   -4.3690    0.6880    1.9270 N   0  0  0  0  0  0  0  0  0  0  0  0
   -3.3790   -0.2450    1.5450 C   0  0  0  0  0  0  0  0  0  0  0  0
   -2.9160   -1.0270    2.4090 O   0  0  0  0  0  0  0  0  0  0  0  0
   -2.9010   -0.3300    0.2550 O   0  0  0  0  0  0  0  0  0  0  0  0
   -1.9310   -1.2470   -0.1060 C   0  0  1  0  0  0  0  0  0  0  0  0
   -2.2610   -2.6850    0.1000 C   0  0  0  0  0  0  0  0  0  0  0  0
   -1.1360   -3.4260   -0.3350 O   0  0  0  0  0  0  0  0  0  0  0  0
   -1.4630   -5.1100   -0.1190 P   0  0  0  0  0  0  0  0  0  0  0  0
   -1.9580   -5.9200   -1.3590 O   0  0  0  0  0  0  0  0  0  0  0  0
   -1.6310   -1.0110   -1.4650 O   0  0  0  0  0  0  0  0  0  0  0  0
   -1.4510    0.3640   -1.5910 C   0  0  2  0  0  0  0  0  0  0  0  0
   -1.5940    0.7510   -3.3970 P   0  0  0  0  0  0  0  0  0  0  0  0
   -0.1620    0.3240   -4.2640 O   0  0  0  0  0  0  0  0  0  0  0  0
   -2.0620    2.3890   -3.6730 O   0  0  0  0  0  0  0  0  0  0  0  0
   -3.7810    2.5500   -3.4760 P   0  0  0  0  0  0  0  0  0  0  0  0
   -4.4570    3.9490   -3.3780 O   0  0  0  0  0  0  0  0  0  0  0  0
   -0.1650    0.8680   -0.9970 C   0  0  0  0  0  0  0  0  0  0  0  0
    0.2750   -0.0150    0.0350 N   0  0  0  0  0  0  0  0  0  0  0  0
    1.6530   -0.0540    0.5740 C   0  0  1  0  0  0  0  0  0  0  0  0
    2.4550   -0.5790   -0.5990 C   0  0  0  0  0  0  0  0  0  0  0  0
    3.8800   -0.7540   -0.3990 C   0  0  0  0  0  0  0  0  0  0  0  0
    4.4600   -0.5360    0.6680 O   0  0  0  0  0  0  0  0  0  0  0  0
    4.7020   -1.2080   -1.4910 N   0  0  0  0  0  0  0  0  0  0  0  0
    6.0360   -1.3810   -1.3360 O   0  0  0  0  0  0  0  0  0  0  0  0
    2.0530    1.2840    1.0230 C   0  0  0  0  0  0  0  0  0  0  0  0
    1.6180    2.3500    0.4650 O   0  0  0  0  0  0  0  0  0  0  0  0
    2.9400    1.5130    2.1050 N   0  0  0  0  0  0  0  0  0  0  0  0
    3.3290    2.8310    2.5000 C   0  0  0  0  0  0  0  0  0  0  0  0
    2.8780    3.8180    1.8810 O   0  0  0  0  0  0  0  0  0  0  0  0
    4.1960    3.0690    3.5570 O   0  0  0  0  0  0  0  0  0  0  0  0
   -0.6530   -0.9310    0.6030 C   0  0  0  0  0  0  0  0  0  0  0  0
   -0.4510   -1.5050    1.7010 O   0  0  0  0  0  0  0  0  0  0  0  0
  1  2  1  0
  2  3  1  0
  3  4  2  0
  3  5  1  0
  5  6  1  0
  6  7  1  6
  6 11  1  0
  6 32  1  0
  7  8  1  0
  8  9  1  0
  9 10  2  0
 11 12  1  0
 12 13  1  6
 12 18  1  0
 13 14  1  0
 13 15  1  0
 15 16  1  0
 16 17  2  0
 18 19  1  0
 19 20  1  0
 19 32  1  0
 20 21  1  6
 20 26  1  0
 21 22  1  0
 22 23  2  0
 22 24  1  0
 24 25  1  0
 26 27  2  0
 26 28  1  0
 28 29  1  0
 29 30  2  0
 29 31  1  0
 32 33  2  0
M  END
