
     RDKit          3D

 33 33  0  0  0  0  0  0  0  0999 V2000
    6.4260   -0.6530    0.2250 N   0  0  0  0  0  0  0  0  0  0  0  0
    5.4880    0.2030    0.0070 C   0  0  0  0  0  0  0  0  0  0  0  0
    4.4700   -0.1200    0.8670 N   0  0  0  0  0  0  0  0  0  0  0  0
    3.1100    0.0570    0.7040 C   0  0  0  0  0  0  0  0  0  0  0  0
    2.8580    0.4830   -0.4660 O   0  0  0  0  0  0  0  0  0  0  0  0
    2.1570   -0.2000    1.6710 N   0  0  0  0  0  0  0  0  0  0  0  0
    0.7560   -0.0080    1.4100 C   0  0  2  0  0  0  0  0  0  0  0  0
    0.2670    1.0960    2.3320 C   0  0  0  0  0  0  0  0  0  0  0  0
   -0.2500    2.2960    1.5880 C   0  0  0  0  0  0  0  0  0  0  0  0
   -1.6430    2.2920    1.6430 O   0  0  0  0  0  0  0  0  0  0  0  0
   -2.1860    3.2230    0.7700 C   0  0  0  0  0  0  0  0  0  0  0  0
   -3.4740    2.7890    0.4440 O   0  0  0  0  0  0  0  0  0  0  0  0
   -3.3260    1.5680   -0.7830 P   0  0  0  0  0  0  0  0  0  0  0  0
   -3.6260    2.3200   -2.3160 O   0  0  0  0  0  0  0  0  0  0  0  0
   -4.7440    3.0030   -2.2130 O   0  0  0  0  0  0  0  0  0  0  0  0
   -4.4320    4.1690   -1.6760 O   0  0  0  0  0  0  0  0  0  0  0  0
   -1.7840    0.8640   -0.6650 O   0  0  0  0  0  0  0  0  0  0  0  0
   -1.7010   -0.4860   -0.8400 C   0  0  0  0  0  0  0  0  0  0  0  0
   -2.0220   -1.3420    0.3210 C   0  0  1  0  0  0  0  0  0  0  0  0
   -3.3070   -0.8560    1.0270 C   0  0  0  0  0  0  0  0  0  0  0  0
   -3.6770   -1.9510    1.8460 O   0  0  0  0  0  0  0  0  0  0  0  0
   -2.4820   -2.6930   -0.2790 C   0  0  0  0  0  0  0  0  0  0  0  0
   -3.4680   -2.4620   -1.2410 O   0  0  0  0  0  0  0  0  0  0  0  0
   -4.0400   -3.9030   -1.9630 P   0  0  0  0  0  0  0  0  0  0  0  0
   -2.8590   -5.1730   -1.9670 O   0  0  0  0  0  0  0  0  0  0  0  0
   -4.7320   -3.6580   -3.5160 O   0  0  0  0  0  0  0  0  0  0  0  0
   -1.0470   -1.6430    1.2650 N   0  0  0  0  0  0  0  0  0  0  0  0
    0.0050   -1.2350    1.7490 C   0  0  0  0  0  0  0  0  0  0  0  0
    0.6390   -1.9850    2.7710 O   0  0  0  0  0  0  0  0  0  0  0  0
    5.8820    1.3490   -0.7430 N   0  0  0  0  0  0  0  0  0  0  0  0
    6.8450    1.3240   -2.2100 P   0  0  0  0  0  0  0  0  0  0  0  0
    6.6030   -0.0620   -3.1870 O   0  0  0  0  0  0  0  0  0  0  0  0
    8.5500    1.5730   -1.8930 O   0  0  0  0  0  0  0  0  0  0  0  0
  1  2  2  0
  2  3  1  0
  2 30  1  0
  3  4  1  0
  4  5  2  0
  4  6  1  0
  7  6  1  1
  7  8  1  0
  7 28  1  0
  8  9  1  0
  9 10  1  0
 10 11  1  0
 11 12  1  0
 12 13  1  0
 13 14  1  0
 13 17  1  0
 14 15  1  0
 15 16  1  0
 17 18  1  0
 18 19  1  0
 19 20  1  1
 19 22  1  0
 19 27  1  0
 20 21  1  0
 22 23  1  0
 23 24  1  0
 24 25  1  0
 24 26  1  0
 27 28  2  0
 28 29  1  0
 30 31  1  0
 31 32  1  0
 31 33  1  0
M  END
