
     RDKit          3D

 33 35  0  0  0  0  0  0  0  0999 V2000
   -4.8750    1.0250    2.8470 C   0  0  0  0  0  0  0  0  0  0  0  0
   -4.3200    0.6230    1.5600 N   0  0  0  0  0  0  0  0  0  0  0  0
   -3.2420    1.0850    0.9180 C   0  0  0  0  0  0  0  0  0  0  0  0
   -3.0530    0.4590   -0.2510 N   0  0  0  0  0  0  0  0  0  0  0  0
   -1.9820    0.6870   -1.2340 C   0  0  2  0  0  0  0  0  0  0  0  0
   -0.9850   -0.2450   -1.1310 O   0  0  0  0  0  0  0  0  0  0  0  0
    0.2380    0.4220   -1.1450 C   0  0  2  0  0  0  0  0  0  0  0  0
    1.3500   -0.3990   -0.5680 C   0  0  0  0  0  0  0  0  0  0  0  0
    2.5200    0.3570   -0.6320 O   0  0  0  0  0  0  0  0  0  0  0  0
    3.8280   -0.5100    0.0050 P   0  0  1  0  0  0  0  0  0  0  0  0
    4.1210   -0.0100    1.3920 O   0  0  0  0  0  0  0  0  0  0  0  0
    3.4580   -2.1750    0.0230 O   0  0  0  0  0  0  0  0  0  0  0  0
    5.1780   -0.2270   -0.9730 O   0  0  0  0  0  0  0  0  0  0  0  0
    6.0370    1.0650   -0.3030 P   0  0  1  0  0  0  0  0  0  0  0  0
    6.7410    1.8440   -1.3950 O   0  0  0  0  0  0  0  0  0  0  0  0
    4.9270    2.0600    0.4970 O   0  0  0  0  0  0  0  0  0  0  0  0
    7.1310    0.4680    0.8340 O   0  0  0  0  0  0  0  0  0  0  0  0
    7.7600   -1.0180    0.3700 P   0  0  1  0  0  0  0  0  0  0  0  0
    7.2370   -1.3180   -1.0280 O   0  0  0  0  0  0  0  0  0  0  0  0
    9.4540   -0.9550    0.2930 O   0  0  0  0  0  0  0  0  0  0  0  0
    7.3090   -2.2700    1.3840 O   0  0  0  0  0  0  0  0  0  0  0  0
   -0.0820    1.6370   -0.2970 C   0  0  1  0  0  0  0  0  0  0  0  0
    0.8960    2.6150   -0.3940 O   0  0  0  0  0  0  0  0  0  0  0  0
   -1.3710    2.0530   -1.0050 C   0  0  1  0  0  0  0  0  0  0  0  0
   -1.0180    2.5650   -2.2510 O   0  0  0  0  0  0  0  0  0  0  0  0
   -4.0510   -0.4400   -0.3560 C   0  0  0  0  0  0  0  0  0  0  0  0
   -4.3260   -1.3340   -1.3490 N   0  0  0  0  0  0  0  0  0  0  0  0
   -5.4080   -2.1330   -1.2030 C   0  0  0  0  0  0  0  0  0  0  0  0
   -5.7760   -3.0940   -2.1810 N   0  0  0  0  0  0  0  0  0  0  0  0
   -6.1850   -2.0390   -0.1020 N   0  0  0  0  0  0  0  0  0  0  0  0
   -5.9410   -1.1680    0.8940 C   0  0  0  0  0  0  0  0  0  0  0  0
   -6.6570   -1.0770    1.9160 O   0  0  0  0  0  0  0  0  0  0  0  0
   -4.8430   -0.3430    0.7670 C   0  0  0  0  0  0  0  0  0  0  0  0
  1  2  1  0
  2  3  2  0
  2 33  1  0
  3  4  1  0
  5  4  1  1
  4 26  1  0
  5  6  1  0
  5 24  1  0
  6  7  1  0
  7  8  1  1
  7 22  1  0
  8  9  1  0
  9 10  1  0
 10 11  2  0
 10 12  1  1
 10 13  1  0
 13 14  1  0
 14 15  2  0
 14 16  1  1
 14 17  1  0
 17 18  1  0
 18 19  2  0
 18 20  1  6
 18 21  1  0
 22 23  1  6
 22 24  1  0
 24 25  1  6
 26 27  1  0
 26 33  2  0
 27 28  2  0
 28 29  1  0
 28 30  1  0
 30 31  1  0
 31 32  2  0
 31 33  1  0
M  CHG  1   2   1
M  END
