
     RDKit          3D

 33 34  0  0  0  0  0  0  0  0999 V2000
    0.2150   -4.0920   -3.5640 C   0  0  0  0  0  0  0  0  0  0  0  0
   -0.4350   -3.6580   -2.3830 O   0  0  0  0  0  0  0  0  0  0  0  0
   -0.5320   -2.3050   -2.0390 C   0  0  0  0  0  0  0  0  0  0  0  0
   -0.0250   -1.4760   -2.8300 O   0  0  0  0  0  0  0  0  0  0  0  0
   -1.2210   -1.9420   -0.7670 C   0  0  2  0  0  0  0  0  0  0  0  0
   -2.6620   -1.7280   -1.1310 C   0  0  0  0  0  0  0  0  0  0  0  0
   -3.0980   -1.9580   -2.3070 O   0  0  0  0  0  0  0  0  0  0  0  0
   -3.4840   -1.2680   -0.1150 O   0  0  0  0  0  0  0  0  0  0  0  0
   -2.9860   -0.2480    0.7290 C   0  0  2  0  0  0  0  0  0  0  0  0
   -3.1640   -0.6040    2.1840 C   0  0  0  0  0  0  0  0  0  0  0  0
   -3.4570    0.6000    2.7950 O   0  0  0  0  0  0  0  0  0  0  0  0
   -4.1390    1.3600    1.9260 N   0  0  0  0  0  0  0  0  0  0  0  0
   -4.8850    2.4140    2.2770 O   0  0  0  0  0  0  0  0  0  0  0  0
   -6.4280    2.4640    1.4950 P   0  0  0  0  0  0  0  0  0  0  0  0
   -7.5040    3.3570    2.5270 O   0  0  0  0  0  0  0  0  0  0  0  0
   -6.3310    3.2630   -0.0580 O   0  0  0  0  0  0  0  0  0  0  0  0
   -3.9450    0.8880    0.5990 C   0  0  0  0  0  0  0  0  0  0  0  0
   -4.5010    1.3790   -0.4120 O   0  0  0  0  0  0  0  0  0  0  0  0
   -1.6320    0.2500    0.3680 C   0  0  0  0  0  0  0  0  0  0  0  0
   -0.7310   -0.7050   -0.1930 N   0  0  0  0  0  0  0  0  0  0  0  0
    0.6800   -0.5340   -0.2190 C   0  0  0  0  0  0  0  0  0  0  0  0
    1.3970   -1.4570   -0.7520 O   0  0  0  0  0  0  0  0  0  0  0  0
    1.4310    0.6070    0.3060 C   0  0  0  0  0  0  0  0  0  0  0  0
    2.8570    0.5200    0.0850 N   0  0  0  0  0  0  0  0  0  0  0  0
    3.8140    1.3990    0.6800 C   0  0  0  0  0  0  0  0  0  0  0  0
    3.8770    2.6200    0.3040 N   0  0  0  0  0  0  0  0  0  0  0  0
    4.7140    0.9470    1.6910 N   0  0  0  0  0  0  0  0  0  0  0  0
    6.4020    1.5880    1.8280 P   0  0  0  0  0  0  0  0  0  0  0  0
    6.9890    2.0380    0.2490 O   0  0  0  0  0  0  0  0  0  0  0  0
    7.3990    0.2360    2.3420 O   0  0  0  0  0  0  0  0  0  0  0  0
    3.5560   -0.7170   -1.0380 P   0  0  0  0  0  0  0  0  0  0  0  0
    3.8960    0.1440   -2.5320 O   0  0  0  0  0  0  0  0  0  0  0  0
    5.0720   -1.3260   -0.4550 O   0  0  0  0  0  0  0  0  0  0  0  0
  1  2  1  0
  2  3  1  0
  3  4  2  0
  5  3  1  6
  5  6  1  0
  5 20  1  0
  6  7  2  0
  6  8  1  0
  8  9  1  0
  9 10  1  1
  9 17  1  0
  9 19  1  0
 10 11  1  0
 11 12  1  0
 12 13  1  0
 12 17  1  0
 13 14  1  0
 14 15  1  0
 14 16  1  0
 17 18  2  0
 19 20  1  0
 20 21  1  0
 21 22  2  0
 21 23  1  0
 23 24  1  0
 24 25  1  0
 24 31  1  0
 25 26  2  0
 25 27  1  0
 27 28  1  0
 28 29  1  0
 28 30  1  0
 31 32  1  0
 31 33  1  0
M  END
