
     RDKit          3D

 33 34  0  0  0  0  0  0  0  0999 V2000
   -6.9440   -4.1400   -1.3750 O   0  0  0  0  0  0  0  0  0  0  0  0
   -6.0050   -4.0150   -0.1430 P   0  0  0  0  0  0  0  0  0  0  0  0
   -5.3240   -2.4030    0.4070 C   0  0  0  0  0  0  0  0  0  0  0  0
   -5.4940   -1.9590    1.6330 N   0  0  0  0  0  0  0  0  0  0  0  0
   -4.8550   -0.7050    1.7320 C   0  0  0  0  0  0  0  0  0  0  0  0
   -5.0210    0.2780    2.5200 N   0  0  0  0  0  0  0  0  0  0  0  0
   -4.2590    1.3900    2.4010 O   0  0  0  0  0  0  0  0  0  0  0  0
   -3.5390    1.6890    1.2690 C   0  0  0  0  0  0  0  0  0  0  0  0
   -3.4670    0.6390    0.1920 C   0  0  1  0  0  0  0  0  0  0  0  0
   -4.2090    1.1150   -1.0220 C   0  0  0  0  0  0  0  0  0  0  0  0
   -5.5250    1.1160   -0.9940 O   0  0  0  0  0  0  0  0  0  0  0  0
   -6.5420    1.6810   -0.3580 C   0  0  0  0  0  0  0  0  0  0  0  0
   -6.3320    2.5150    0.5290 O   0  0  0  0  0  0  0  0  0  0  0  0
   -7.8970    1.3950   -0.6200 O   0  0  0  0  0  0  0  0  0  0  0  0
   -2.0780    0.6330   -0.2330 N   0  0  0  0  0  0  0  0  0  0  0  0
   -1.0810    0.3040    0.6120 C   0  0  0  0  0  0  0  0  0  0  0  0
   -1.3810   -0.0290    1.8320 O   0  0  0  0  0  0  0  0  0  0  0  0
    0.2430    0.2430    0.4540 N   0  0  0  0  0  0  0  0  0  0  0  0
    1.5690    0.1920    0.2620 C   0  0  0  0  0  0  0  0  0  0  0  0
    2.1210   -0.1830    1.3850 O   0  0  0  0  0  0  0  0  0  0  0  0
    2.3480    0.4440   -0.8060 N   0  0  0  0  0  0  0  0  0  0  0  0
    3.7700    0.2880   -0.7190 C   0  0  0  0  0  0  0  0  0  0  0  0
    4.1350   -1.1440   -0.4330 C   0  0  0  0  0  0  0  0  0  0  0  0
    5.9890   -1.3450   -0.3220 P   0  0  0  0  0  0  0  0  0  0  0  0
    6.3180   -3.0430   -0.1830 O   0  0  0  0  0  0  0  0  0  0  0  0
    6.6020   -0.5230    1.0670 O   0  0  0  0  0  0  0  0  0  0  0  0
    8.3380   -0.4590    0.9110 P   0  0  0  0  0  0  0  0  0  0  0  0
    8.8240   -1.9340    0.1170 O   0  0  0  0  0  0  0  0  0  0  0  0
    8.7020    0.8730   -0.1580 O   0  0  0  0  0  0  0  0  0  0  0  0
    8.6600    1.9930    0.5270 O   0  0  0  0  0  0  0  0  0  0  0  0
    8.2510    2.9710   -0.2400 O   0  0  0  0  0  0  0  0  0  0  0  0
   -3.8520   -0.7240    0.6320 C   0  0  2  0  0  0  0  0  0  0  0  0
   -4.5860   -1.4810   -0.3290 O   0  0  0  0  0  0  0  0  0  0  0  0
  1  2  2  0
  2  3  1  0
  3  4  2  0
  3 33  1  0
  4  5  1  0
  5  6  2  0
  5 32  1  0
  6  7  1  0
  7  8  1  0
  8  9  1  0
  9 10  1  6
  9 15  1  0
  9 32  1  0
 10 11  1  0
 11 12  1  0
 12 13  2  0
 12 14  1  0
 15 16  1  0
 16 17  2  0
 16 18  1  0
 18 19  1  0
 19 20  2  0
 19 21  1  0
 21 22  1  0
 22 23  1  0
 23 24  1  0
 24 25  1  0
 24 26  1  0
 26 27  1  0
 27 28  1  0
 27 29  1  0
 29 30  1  0
 30 31  1  0
 32 33  1  6
M  END
