
     RDKit          3D

 33 33  0  0  0  0  0  0  0  0999 V2000
    3.0120   -0.6200   -1.2160 N   0  0  0  0  0  0  0  0  0  0  0  0
    3.2800   -0.0990   -0.0700 C   0  0  0  0  0  0  0  0  0  0  0  0
    4.5980    0.4750    0.0410 N   0  0  0  0  0  0  0  0  0  0  0  0
    5.8660    0.1970   -1.1630 P   0  0  0  0  0  0  0  0  0  0  0  0
    5.8410   -1.3710   -1.8520 O   0  0  0  0  0  0  0  0  0  0  0  0
    6.0130    1.4590   -2.3170 O   0  0  0  0  0  0  0  0  0  0  0  0
    6.9690    2.7330   -1.5920 P   0  0  0  0  0  0  0  0  0  0  0  0
    7.9190    2.0930   -0.2810 O   0  0  0  0  0  0  0  0  0  0  0  0
    5.8470    3.8690   -0.9040 O   0  0  0  0  0  0  0  0  0  0  0  0
    2.3760   -0.0730    1.0240 N   0  0  0  0  0  0  0  0  0  0  0  0
    0.9810    0.1470    0.8240 C   0  0  0  0  0  0  0  0  0  0  0  0
    0.3220   -0.8420    0.0020 N   0  0  0  0  0  0  0  0  0  0  0  0
    0.4340   -2.1310    0.5860 C   0  0  0  0  0  0  0  0  0  0  0  0
   -0.8150   -2.9730    0.4110 C   0  0  0  0  0  0  0  0  0  0  0  0
   -1.8530   -2.2180    0.9520 O   0  0  0  0  0  0  0  0  0  0  0  0
   -2.1370   -1.1810    0.1060 C   0  0  1  0  0  0  0  0  0  0  0  0
   -2.9440   -1.6900   -1.0310 C   0  0  0  0  0  0  0  0  0  0  0  0
   -3.3410   -0.9390   -1.9650 O   0  0  0  0  0  0  0  0  0  0  0  0
   -3.2620   -3.0380   -1.0490 O   0  0  0  0  0  0  0  0  0  0  0  0
   -3.0830   -0.2500    0.8910 C   0  0  2  0  0  0  0  0  0  0  0  0
   -3.4400    0.8610    0.1030 O   0  0  0  0  0  0  0  0  0  0  0  0
   -4.7710    1.0740   -0.1970 C   0  0  0  0  0  0  0  0  0  0  0  0
   -5.6750    0.2940    0.2210 O   0  0  0  0  0  0  0  0  0  0  0  0
   -5.1860    2.1810   -0.9890 N   0  0  0  0  0  0  0  0  0  0  0  0
   -6.5450    2.4370   -1.3210 C   0  0  0  0  0  0  0  0  0  0  0  0
   -7.4030    1.6270   -0.8780 O   0  0  0  0  0  0  0  0  0  0  0  0
   -6.9660    3.5000   -2.0840 O   0  0  0  0  0  0  0  0  0  0  0  0
   -2.4230    0.2310    2.1240 C   0  0  0  0  0  0  0  0  0  0  0  0
   -2.2670    1.4580    2.3170 O   0  0  0  0  0  0  0  0  0  0  0  0
   -1.9670   -0.6540    3.0850 O   0  0  0  0  0  0  0  0  0  0  0  0
   -0.9670   -0.3850   -0.3590 C   0  0  0  0  0  0  0  0  0  0  0  0
    3.0100   -0.3230    2.6930 P   0  0  0  0  0  0  0  0  0  0  0  0
    3.1540   -1.7700    3.2830 O   0  0  0  0  0  0  0  0  0  0  0  0
  1  2  2  0
  2  3  1  0
  2 10  1  0
  3  4  1  0
  4  5  1  0
  4  6  1  0
  6  7  1  0
  7  8  1  0
  7  9  1  0
 10 11  1  0
 10 32  1  0
 11 12  1  0
 12 13  1  0
 12 31  1  0
 13 14  1  0
 14 15  1  0
 15 16  1  0
 16 17  1  6
 16 20  1  0
 16 31  1  0
 17 18  2  0
 17 19  1  0
 20 21  1  6
 20 28  1  0
 21 22  1  0
 22 23  2  0
 22 24  1  0
 24 25  1  0
 25 26  2  0
 25 27  1  0
 28 29  2  0
 28 30  1  0
 32 33  2  0
M  END
