
     RDKit          3D

 32 33  0  0  0  0  0  0  0  0999 V2000
    6.2710    3.2580    2.3790 O   0  0  0  0  0  0  0  0  0  0  0  0
    6.5490    2.0010    1.4930 P   0  0  0  0  0  0  0  0  0  0  0  0
    5.3500    0.7070    1.3020 N   0  0  0  0  0  0  0  0  0  0  0  0
    4.8840    0.8140   -0.0940 C   0  0  1  0  0  0  0  0  0  0  0  0
    6.0500    0.5690   -0.9930 C   0  0  0  0  0  0  0  0  0  0  0  0
    7.1380    1.1670   -1.0280 O   0  0  0  0  0  0  0  0  0  0  0  0
    5.6040   -0.4740   -1.7570 O   0  0  0  0  0  0  0  0  0  0  0  0
    4.3770   -0.8190   -1.4080 N   0  0  0  0  0  0  0  0  0  0  0  0
    3.8770   -0.1370   -0.4660 C   0  0  0  0  0  0  0  0  0  0  0  0
    2.5440   -0.6270   -0.1910 N   0  0  0  0  0  0  0  0  0  0  0  0
    1.6880   -0.1050    0.7150 C   0  0  0  0  0  0  0  0  0  0  0  0
    2.1670    0.8870    1.3200 O   0  0  0  0  0  0  0  0  0  0  0  0
    0.4160   -0.5650    0.9830 N   0  0  0  0  0  0  0  0  0  0  0  0
   -0.3400    0.1290    1.9120 O   0  0  0  0  0  0  0  0  0  0  0  0
   -1.4590    0.6470    1.2500 C   0  0  1  0  0  0  0  0  0  0  0  0
   -2.3420    1.2120    2.3270 C   0  0  0  0  0  0  0  0  0  0  0  0
   -3.5130    1.7730    1.8340 O   0  0  0  0  0  0  0  0  0  0  0  0
   -0.9170    1.7930    0.3840 C   0  0  0  0  0  0  0  0  0  0  0  0
   -0.3230    2.7310    1.2610 O   0  0  0  0  0  0  0  0  0  0  0  0
    0.3250    4.0690    0.4110 P   0  0  0  0  0  0  0  0  0  0  0  0
   -0.6460    4.3770   -1.0130 O   0  0  0  0  0  0  0  0  0  0  0  0
    0.3800    5.5080    1.3440 O   0  0  0  0  0  0  0  0  0  0  0  0
   -2.2040   -0.3270    0.4360 C   0  0  0  0  0  0  0  0  0  0  0  0
   -1.5990   -1.5900    0.1740 N   0  0  0  0  0  0  0  0  0  0  0  0
   -2.3260   -2.7600   -0.2770 C   0  0  0  0  0  0  0  0  0  0  0  0
   -2.3990   -2.8500   -1.7850 C   0  0  2  0  0  0  0  0  0  0  0  0
   -3.0470   -1.7200   -2.2810 O   0  0  0  0  0  0  0  0  0  0  0  0
   -3.4140   -4.3800   -2.1720 P   0  0  0  0  0  0  0  0  0  0  0  0
   -4.5900   -4.6630   -0.9110 O   0  0  0  0  0  0  0  0  0  0  0  0
   -4.2970   -4.1690   -3.6560 O   0  0  0  0  0  0  0  0  0  0  0  0
   -0.1800   -1.6920    0.3770 C   0  0  0  0  0  0  0  0  0  0  0  0
    0.5080   -2.6820    0.0570 O   0  0  0  0  0  0  0  0  0  0  0  0
  1  2  2  0
  2  3  1  0
  4  3  1  1
  4  5  1  0
  4  9  1  0
  5  6  2  0
  5  7  1  0
  7  8  1  0
  8  9  2  0
  9 10  1  0
 10 11  1  0
 11 12  2  0
 11 13  1  0
 13 14  1  0
 13 31  1  0
 14 15  1  0
 15 16  1  1
 15 18  1  0
 15 23  1  0
 16 17  1  0
 18 19  1  0
 19 20  1  0
 20 21  1  0
 20 22  1  0
 23 24  1  0
 24 25  1  0
 24 31  1  0
 25 26  1  0
 26 27  1  1
 26 28  1  0
 28 29  1  0
 28 30  1  0
 31 32  2  0
M  END
