
     RDKit          3D

 30 30  0  0  0  0  0  0  0  0999 V2000
   -1.0950    3.1270    0.0390 C   0  0  0  0  0  0  0  0  0  0  0  0
   -1.9120    3.0250    1.0040 C   0  0  0  0  0  0  0  0  0  0  0  0
   -2.2060    1.7920    1.7100 C   0  0  0  0  0  0  0  0  0  0  0  0
   -3.1490    2.0090    2.7220 C   0  0  0  0  0  0  0  0  0  0  0  0
   -3.6900    3.3150    2.9700 C   0  0  0  0  0  0  0  0  0  0  0  0
   -1.6830    0.5120    1.6140 C   0  0  0  0  0  0  0  0  0  0  0  0
   -2.3690   -0.3110    2.4660 O   0  0  0  0  0  0  0  0  0  0  0  0
   -0.6860   -0.2820    0.9890 N   0  0  0  0  0  0  0  0  0  0  0  0
   -0.5560   -1.6130    1.4080 C   0  0  0  0  0  0  0  0  0  0  0  0
   -0.9180   -2.8620    0.6570 C   0  0  0  0  0  0  0  0  0  0  0  0
    0.0010   -3.3400   -0.3450 C   0  0  0  0  0  0  0  0  0  0  0  0
    1.1260   -2.6600   -0.5790 C   0  0  0  0  0  0  0  0  0  0  0  0
   -0.1510   -4.5730   -1.1020 C   0  0  0  0  0  0  0  0  0  0  0  0
   -1.9980   -3.5020    1.0030 C   0  0  0  0  0  0  0  0  0  0  0  0
   -2.5470   -4.7050    0.4340 C   0  0  0  0  0  0  0  0  0  0  0  0
   -2.7290   -2.9360    2.0960 O   0  0  0  0  0  0  0  0  0  0  0  0
    0.1800    0.3460    0.0120 C   0  0  0  0  0  0  0  0  0  0  0  0
    1.2210    1.0350    0.4130 C   0  0  0  0  0  0  0  0  0  0  0  0
    2.1150    1.6940   -0.5680 C   0  0  0  0  0  0  0  0  0  0  0  0
    3.1750    2.3880   -0.0470 O   0  0  0  0  0  0  0  0  0  0  0  0
    4.3700    1.9360    0.4750 C   0  0  0  0  0  0  0  0  0  0  0  0
    4.1580    1.0150    1.6640 C   0  0  0  0  0  0  0  0  0  0  0  0
    1.8680    1.5970   -1.8750 C   0  0  0  0  0  0  0  0  0  0  0  0
    0.7460    0.8710   -2.4200 C   0  0  0  0  0  0  0  0  0  0  0  0
    0.5100    0.7570   -3.7110 C   0  0  0  0  0  0  0  0  0  0  0  0
    1.2580    1.2800   -4.8170 C   0  0  0  0  0  0  0  0  0  0  0  0
    2.4340    2.0400   -4.6700 N   0  0  0  0  0  0  0  0  0  0  0  0
    0.8690    1.0620   -6.0120 O   0  0  0  0  0  0  0  0  0  0  0  0
   -0.1200    0.2230   -1.4170 C   0  0  0  0  0  0  0  0  0  0  0  0
   -1.1000   -0.4230   -1.8000 O   0  0  0  0  0  0  0  0  0  0  0  0
  1  2  2  0
  2  3  1  0
  3  4  2  3
  3  6  1  0
  4  5  1  0
  6  7  2  0
  6  8  1  0
  8  9  1  0
  8 17  1  0
  9 10  1  0
 10 11  1  0
 10 14  2  3
 11 12  2  0
 11 13  1  0
 14 15  1  0
 14 16  1  0
 17 18  2  0
 17 29  1  0
 18 19  1  0
 19 20  1  0
 19 23  2  0
 20 21  1  0
 21 22  1  0
 23 24  1  0
 24 25  2  3
 24 29  1  0
 25 26  1  0
 26 27  1  0
 26 28  2  0
 29 30  2  0
M  END
