
     RDKit          3D

 30 32  0  0  0  0  0  0  0  0999 V2000
    5.6610    1.4630    2.4820 C   0  0  0  0  0  0  0  0  0  0  0  0
    6.1150    0.4460    1.5210 C   0  0  0  0  0  0  0  0  0  0  0  0
    7.3990    0.2000    1.6130 O   0  0  0  0  0  0  0  0  0  0  0  0
    5.4180   -0.2890    0.5400 C   0  0  0  0  0  0  0  0  0  0  0  0
    4.1460   -0.2670    0.2260 C   0  0  0  0  0  0  0  0  0  0  0  0
    3.2180    0.6140    0.9400 C   0  0  0  0  0  0  0  0  0  0  0  0
    1.7770    0.3140    0.7820 C   0  0  0  0  0  0  0  0  0  0  0  0
    1.1240    0.2740    1.8960 O   0  0  0  0  0  0  0  0  0  0  0  0
    0.9030    0.0520   -0.3230 N   0  0  0  0  0  0  0  0  0  0  0  0
   -0.5040    0.3550   -0.2290 C   0  0  0  0  0  0  0  0  0  0  0  0
   -1.3360   -0.7630    0.2790 C   0  0  0  0  0  0  0  0  0  0  0  0
   -2.7220   -0.5930    0.4000 N   0  0  0  0  0  0  0  0  0  0  0  0
   -3.6040   -0.9190   -0.6820 C   0  0  0  0  0  0  0  0  0  0  0  0
   -4.2690    0.2390   -1.3370 C   0  0  0  0  0  0  0  0  0  0  0  0
   -4.7740    1.3020   -0.4420 C   0  0  0  0  0  0  0  0  0  0  0  0
   -5.9510    0.9060    0.4210 C   0  0  0  0  0  0  0  0  0  0  0  0
   -5.4260    0.8620    1.8350 C   0  0  0  0  0  0  0  0  0  0  0  0
   -4.2640    0.4700    2.3530 C   0  0  0  0  0  0  0  0  0  0  0  0
   -3.0480   -0.0740    1.7050 C   0  0  0  0  0  0  0  0  0  0  0  0
   -2.0630   -0.0780    2.5070 O   0  0  0  0  0  0  0  0  0  0  0  0
    1.4220   -0.5270   -1.5210 C   0  0  0  0  0  0  0  0  0  0  0  0
    0.5180   -0.5420   -2.5100 C   0  0  0  0  0  0  0  0  0  0  0  0
   -0.7080   -0.0500   -2.3420 F   0  0  0  0  0  0  0  0  0  0  0  0
    0.8150   -1.0740   -3.7620 C   0  0  0  0  0  0  0  0  0  0  0  0
    2.0580   -1.5990   -3.9990 C   0  0  0  0  0  0  0  0  0  0  0  0
    2.3910   -2.1300   -5.2090 F   0  0  0  0  0  0  0  0  0  0  0  0
    3.0120   -1.6000   -3.0050 C   0  0  0  0  0  0  0  0  0  0  0  0
    4.2640   -2.1040   -3.1600 F   0  0  0  0  0  0  0  0  0  0  0  0
    2.6920   -1.0630   -1.7670 C   0  0  0  0  0  0  0  0  0  0  0  0
    3.7690   -1.1440   -0.8570 N   0  0  0  0  0  0  0  0  0  0  0  0
  1  2  1  0
  2  3  2  0
  2  4  1  0
  4  5  2  3
  5  6  1  0
  5 30  1  0
  6  7  1  0
  7  8  2  0
  7  9  1  0
  9 10  1  0
  9 21  1  0
 10 11  1  0
 11 12  1  0
 12 13  1  0
 12 19  1  0
 13 14  1  0
 14 15  1  0
 15 16  1  0
 16 17  1  0
 17 18  2  0
 18 19  1  0
 19 20  2  0
 21 22  2  0
 21 29  1  0
 22 23  1  0
 22 24  1  0
 24 25  2  0
 25 26  1  0
 25 27  1  0
 27 28  1  0
 27 29  2  0
 29 30  1  0
M  END
