
     RDKit          3D

 30 32  0  0  0  0  0  0  0  0999 V2000
   -0.6040    4.0450    2.3180 C   0  0  0  0  0  0  0  0  0  0  0  0
   -0.5850    2.7540    2.5890 C   0  0  0  0  0  0  0  0  0  0  0  0
   -1.7040    1.8920    2.1900 C   0  0  0  0  0  0  0  0  0  0  0  0
   -1.2930    0.8000    1.2710 N   0  0  0  0  0  0  0  0  0  0  0  0
   -0.3640   -0.1400    1.5790 O   0  0  0  0  0  0  0  0  0  0  0  0
    0.8260   -0.5060    1.0380 C   0  0  0  0  0  0  0  0  0  0  0  0
    1.6250   -1.1440    1.8570 O   0  0  0  0  0  0  0  0  0  0  0  0
    1.3560   -0.3190   -0.2560 N   0  0  0  0  0  0  0  0  0  0  0  0
    2.6950    0.3220   -0.3230 C   0  0  0  0  0  0  0  0  0  0  0  0
    2.5130    1.8330   -0.4170 C   0  0  0  0  0  0  0  0  0  0  0  0
    3.9040    2.4590   -0.4830 C   0  0  1  0  0  0  0  0  0  0  0  0
    4.5860    1.9950   -1.5880 F   0  0  0  0  0  0  0  0  0  0  0  0
    3.7910    3.8400   -0.4890 F   0  0  0  0  0  0  0  0  0  0  0  0
    4.6060    2.0830    0.6380 F   0  0  0  0  0  0  0  0  0  0  0  0
    0.7740   -0.6650   -1.5240 C   0  0  0  0  0  0  0  0  0  0  0  0
    0.1860   -2.0200   -1.6480 C   0  0  0  0  0  0  0  0  0  0  0  0
    0.3720   -2.8950   -0.4560 C   0  0  0  0  0  0  0  0  0  0  0  0
    1.4560   -3.6250   -0.2340 C   0  0  0  0  0  0  0  0  0  0  0  0
    1.3440   -4.3780    1.0160 C   0  0  0  0  0  0  0  0  0  0  0  0
    0.0170   -3.9740    1.4910 C   0  0  0  0  0  0  0  0  0  0  0  0
   -0.5550   -3.1040    0.6320 C   0  0  0  0  0  0  0  0  0  0  0  0
   -1.8720   -2.4350    0.7290 C   0  0  0  0  0  0  0  0  0  0  0  0
   -2.4540   -2.6520    1.8740 O   0  0  0  0  0  0  0  0  0  0  0  0
   -2.6090   -1.6360   -0.1360 N   0  0  0  0  0  0  0  0  0  0  0  0
   -2.5130   -0.3210   -0.6390 C   0  0  0  0  0  0  0  0  0  0  0  0
   -3.0700   -0.0770   -1.9010 C   0  0  0  0  0  0  0  0  0  0  0  0
   -3.0990    1.1430   -2.5290 C   0  0  0  0  0  0  0  0  0  0  0  0
   -2.5390    2.2060   -1.8630 C   0  0  0  0  0  0  0  0  0  0  0  0
   -1.9710    2.0480   -0.6190 C   0  0  0  0  0  0  0  0  0  0  0  0
   -1.9600    0.7860   -0.0140 C   0  0  0  0  0  0  0  0  0  0  0  0
  1  2  2  0
  2  3  1  0
  3  4  1  0
  4  5  1  0
  4 30  1  0
  5  6  1  0
  6  7  2  0
  6  8  1  0
  8  9  1  0
  8 15  1  0
  9 10  1  0
 10 11  1  0
 11 12  1  6
 11 13  1  0
 11 14  1  0
 15 16  1  0
 16 17  1  0
 17 18  2  0
 17 21  1  0
 18 19  1  0
 19 20  1  0
 20 21  2  0
 21 22  1  0
 22 23  2  0
 22 24  1  0
 24 25  1  0
 25 26  2  0
 25 30  1  0
 26 27  1  0
 27 28  2  0
 28 29  1  0
 29 30  2  0
M  END
