
     RDKit          3D

 30 32  0  0  0  0  0  0  0  0999 V2000
    0.6670   -4.4280    1.8370 C   0  0  0  0  0  0  0  0  0  0  0  0
    0.5020   -3.2600    0.9090 C   0  0  0  0  0  0  0  0  0  0  0  0
   -0.4700   -3.0710    0.0000 N   0  0  0  0  0  0  0  0  0  0  0  0
   -0.2910   -1.8920   -0.6610 C   0  0  0  0  0  0  0  0  0  0  0  0
   -1.1360   -1.4000   -1.6750 N   0  0  0  0  0  0  0  0  0  0  0  0
   -0.9930   -1.8780   -3.0130 C   0  0  0  0  0  0  0  0  0  0  0  0
   -2.1120   -0.4420   -1.3530 C   0  0  0  0  0  0  0  0  0  0  0  0
   -2.8470   -0.0130   -2.2790 O   0  0  0  0  0  0  0  0  0  0  0  0
   -2.2950    0.0730    0.0400 C   0  0  0  0  0  0  0  0  0  0  0  0
   -3.4200    1.1030    0.1100 C   0  0  1  0  0  0  0  0  0  0  0  0
   -4.6780    0.4170   -0.3420 C   0  0  0  0  0  0  0  0  0  0  0  0
   -3.4910    1.5810    1.5310 C   0  0  0  0  0  0  0  0  0  0  0  0
   -4.5540    2.5890    1.6740 C   0  0  0  0  0  0  0  0  0  0  0  0
   -5.6800    2.2570    1.9460 O   0  0  0  0  0  0  0  0  0  0  0  0
   -4.2440    3.9030    1.4940 F   0  0  0  0  0  0  0  0  0  0  0  0
    0.8630   -1.2930   -0.1420 C   0  0  0  0  0  0  0  0  0  0  0  0
    1.4930   -0.1120   -0.4430 C   0  0  0  0  0  0  0  0  0  0  0  0
    1.0670    0.6620   -1.3130 O   0  0  0  0  0  0  0  0  0  0  0  0
    2.6110    0.2210    0.2270 N   0  0  0  0  0  0  0  0  0  0  0  0
    3.3170    1.4370   -0.0410 C   0  0  0  0  0  0  0  0  0  0  0  0
    3.8730    1.6850   -1.2780 C   0  0  0  0  0  0  0  0  0  0  0  0
    4.5620    2.8740   -1.5350 C   0  0  0  0  0  0  0  0  0  0  0  0
    4.7110    3.8380   -0.5630 C   0  0  0  0  0  0  0  0  0  0  0  0
    5.3850    5.0000   -0.8130 F   0  0  0  0  0  0  0  0  0  0  0  0
    4.1560    3.5910    0.6730 C   0  0  0  0  0  0  0  0  0  0  0  0
    3.4690    2.4040    0.9270 C   0  0  0  0  0  0  0  0  0  0  0  0
    2.9380    2.1910    2.1470 F   0  0  0  0  0  0  0  0  0  0  0  0
    3.0900   -0.6030    1.1730 C   0  0  0  0  0  0  0  0  0  0  0  0
    2.4840   -1.7780    1.4900 C   0  0  0  0  0  0  0  0  0  0  0  0
    1.3250   -2.1570    0.8170 C   0  0  0  0  0  0  0  0  0  0  0  0
  1  2  1  0
  2  3  1  0
  2 30  2  0
  3  4  1  0
  4  5  1  0
  4 16  2  0
  5  6  1  0
  5  7  1  0
  7  8  2  0
  7  9  1  0
  9 10  1  0
 10 11  1  1
 10 12  1  0
 12 13  1  0
 13 14  2  0
 13 15  1  0
 16 17  1  0
 16 30  1  0
 17 18  2  0
 17 19  1  0
 19 20  1  0
 19 28  1  0
 20 21  2  0
 20 26  1  0
 21 22  1  0
 22 23  2  0
 23 24  1  0
 23 25  1  0
 25 26  2  0
 26 27  1  0
 28 29  2  0
 29 30  1  0
M  END
