
     RDKit          3D

 30 32  0  0  0  0  0  0  0  0999 V2000
    6.6760    1.8790    1.1300 C   0  0  0  0  0  0  0  0  0  0  0  0
    5.5570    1.1010    0.8050 O   0  0  0  0  0  0  0  0  0  0  0  0
    4.3950    1.5340    0.3040 C   0  0  0  0  0  0  0  0  0  0  0  0
    4.2900    2.7940    0.0980 O   0  0  0  0  0  0  0  0  0  0  0  0
    3.2250    0.6970   -0.0310 C   0  0  0  0  0  0  0  0  0  0  0  0
    2.2230    1.2710   -0.4760 N   0  0  0  0  0  0  0  0  0  0  0  0
    0.9930    1.0030   -0.9040 N   0  0  0  0  0  0  0  0  0  0  0  0
   -0.2160    1.4180   -0.2080 C   0  0  0  0  0  0  0  0  0  0  0  0
   -0.0420    2.0590    0.8460 O   0  0  0  0  0  0  0  0  0  0  0  0
   -1.5050    1.0530   -0.7970 C   0  0  2  0  0  0  0  0  0  0  0  0
   -1.6340    1.6700   -2.1710 C   0  0  0  0  0  0  0  0  0  0  0  0
   -2.6490    2.7590   -1.9820 C   0  0  0  0  0  0  0  0  0  0  0  0
   -2.9170    2.8460   -0.5130 C   0  0  0  0  0  0  0  0  0  0  0  0
   -2.6390    1.4980   -0.0530 N   0  0  0  0  0  0  0  0  0  0  0  0
   -3.7850    0.6800   -0.4520 C   0  0  0  0  0  0  0  0  0  0  0  0
   -3.6060   -0.7320   -0.0280 C   0  0  0  0  0  0  0  0  0  0  0  0
   -3.5710   -1.7820   -0.8320 C   0  0  0  0  0  0  0  0  0  0  0  0
   -3.6900   -1.7860   -2.1910 F   0  0  0  0  0  0  0  0  0  0  0  0
   -3.3780   -3.0030   -0.0370 C   0  0  0  0  0  0  0  0  0  0  0  0
   -3.3040   -2.5310    1.3480 C   0  0  0  0  0  0  0  0  0  0  0  0
   -3.4380   -1.2180    1.3300 C   0  0  0  0  0  0  0  0  0  0  0  0
   -3.4220   -0.3270    2.5180 C   0  0  0  0  0  0  0  0  0  0  0  0
    3.2650   -0.7570    0.2060 C   0  0  0  0  0  0  0  0  0  0  0  0
    2.1020   -1.5120    0.1000 C   0  0  0  0  0  0  0  0  0  0  0  0
    2.0560   -2.8870    0.2710 C   0  0  0  0  0  0  0  0  0  0  0  0
    0.8680   -3.5680    0.1510 F   0  0  0  0  0  0  0  0  0  0  0  0
    3.2290   -3.5360    0.5620 C   0  0  0  0  0  0  0  0  0  0  0  0
    4.3980   -2.8240    0.6740 C   0  0  0  0  0  0  0  0  0  0  0  0
    5.5690   -3.4550    0.9620 F   0  0  0  0  0  0  0  0  0  0  0  0
    4.4240   -1.4340    0.4970 C   0  0  0  0  0  0  0  0  0  0  0  0
  1  2  1  0
  2  3  1  0
  3  4  2  0
  3  5  1  0
  5  6  2  3
  5 23  1  0
  6  7  1  0
  7  8  1  0
  8  9  2  0
 10  8  1  1
 10 11  1  0
 10 14  1  0
 11 12  1  0
 12 13  1  0
 13 14  1  0
 14 15  1  0
 15 16  1  0
 16 17  2  0
 16 21  1  0
 17 18  1  0
 17 19  1  0
 19 20  1  0
 20 21  2  0
 21 22  1  0
 23 24  2  0
 23 30  1  0
 24 25  1  0
 25 26  1  0
 25 27  2  0
 27 28  1  0
 28 29  1  0
 28 30  2  0
M  END
