
     RDKit          3D

 16 17  0  0  0  0  0  0  0  0999 V2000
    3.6380    1.6350   -0.4040 C   0  0  0  0  0  0  0  0  0  0  0  0
    2.8680    1.0230    0.6380 N   0  0  0  0  0  0  0  0  0  0  0  0
    2.1050   -0.1350    0.3860 C   0  0  0  0  0  0  0  0  0  0  0  0
    0.8180   -0.1250    0.1220 C   0  0  0  0  0  0  0  0  0  0  0  0
    0.1410   -1.3030   -0.1140 C   0  0  0  0  0  0  0  0  0  0  0  0
    0.8250   -2.5140   -0.0730 O   0  0  0  0  0  0  0  0  0  0  0  0
    0.8730   -3.1620    1.2050 C   0  0  0  0  0  0  0  0  0  0  0  0
   -1.2150   -1.3210   -0.3950 C   0  0  0  0  0  0  0  0  0  0  0  0
   -1.9060   -2.6150   -0.6440 C   0  0  0  0  0  0  0  0  0  0  0  0
   -1.9140   -0.1330   -0.4410 C   0  0  0  0  0  0  0  0  0  0  0  0
   -1.2410    1.0480   -0.2060 C   0  0  0  0  0  0  0  0  0  0  0  0
    0.1170    1.0670    0.0750 C   0  0  0  0  0  0  0  0  0  0  0  0
    0.4530    2.3140    0.2470 N   0  0  0  0  0  0  0  0  0  0  0  0
   -0.6670    3.1390    0.0840 N   0  0  0  0  0  0  0  0  0  0  0  0
   -1.7150    2.4410   -0.1890 C   0  0  0  0  0  0  0  0  0  0  0  0
   -3.1060    2.8360   -0.4430 C   0  0  0  0  0  0  0  0  0  0  0  0
  1  2  1  0
  2  3  1  0
  3  4  2  3
  4  5  1  0
  4 12  1  0
  5  6  1  0
  5  8  2  0
  6  7  1  0
  8  9  1  0
  8 10  1  0
 10 11  2  0
 11 12  1  0
 11 15  1  0
 12 13  2  0
 13 14  1  0
 14 15  2  0
 15 16  1  0
M  END
