
     RDKit          3D

 16 16  0  0  0  0  0  0  0  0999 V2000
    4.0330   -1.7240    0.3350 C   0  0  0  0  0  0  0  0  0  0  0  0
    4.1700   -0.3780   -0.2310 C   0  0  0  0  0  0  0  0  0  0  0  0
    3.4070    0.6590   -0.0270 C   0  0  0  0  0  0  0  0  0  0  0  0
    3.7140    1.9150   -0.6900 N   0  0  0  0  0  0  0  0  0  0  0  0
    2.2140    0.7270    0.8520 C   0  0  0  0  0  0  0  0  0  0  0  0
    1.0450    1.0690    0.0470 N   0  0  0  0  0  0  0  0  0  0  0  0
   -0.0520    1.3840    0.9460 C   0  0  0  0  0  0  0  0  0  0  0  0
   -1.3810    1.3620    0.2090 C   0  0  0  0  0  0  0  0  0  0  0  0
   -1.6280    0.0460   -0.2480 N   0  0  0  0  0  0  0  0  0  0  0  0
   -2.9280   -0.3760   -0.4940 C   0  0  2  0  0  0  0  0  0  0  0  0
   -3.7450   -0.3150    0.7840 C   0  0  0  0  0  0  0  0  0  0  0  0
   -3.0740   -1.7460   -1.0970 C   0  0  0  0  0  0  0  0  0  0  0  0
   -3.5710    0.5590   -1.4920 C   0  0  0  0  0  0  0  0  0  0  0  0
   -4.7380    0.3570   -1.8140 O   0  0  0  0  0  0  0  0  0  0  0  0
   -0.5260   -0.8210   -0.2900 C   0  0  0  0  0  0  0  0  0  0  0  0
    0.7240   -0.0770   -0.7860 C   0  0  0  0  0  0  0  0  0  0  0  0
  1  2  1  0
  2  3  2  3
  3  4  1  0
  3  5  1  0
  5  6  1  0
  6  7  1  0
  6 16  1  0
  7  8  1  0
  8  9  1  0
  9 10  1  0
  9 15  1  0
 10 11  1  1
 10 12  1  0
 10 13  1  0
 13 14  2  0
 15 16  1  0
M  END
