
     RDKit          3D

 16 17  0  0  0  0  0  0  0  0999 V2000
    2.0880   -0.5160    1.9480 N   0  0  0  0  0  0  0  0  0  0  0  0
    1.8270    0.0230    0.6590 C   0  0  0  0  0  0  0  0  0  0  0  0
    0.5970    0.2490    0.2700 C   0  0  0  0  0  0  0  0  0  0  0  0
   -0.5490   -0.0470    1.1560 C   0  0  0  0  0  0  0  0  0  0  0  0
   -0.3020   -0.5170    2.2770 O   0  0  0  0  0  0  0  0  0  0  0  0
   -1.8630    0.2200    0.6780 N   0  0  0  0  0  0  0  0  0  0  0  0
   -2.9620   -0.0830    1.5750 C   0  0  0  0  0  0  0  0  0  0  0  0
   -3.9310   -0.9100    0.7180 C   0  0  0  0  0  0  0  0  0  0  0  0
   -4.4860    0.0540   -0.2940 C   0  0  0  0  0  0  0  0  0  0  0  0
   -3.4660    0.7410   -1.1190 C   0  0  0  0  0  0  0  0  0  0  0  0
   -2.0870    0.7590   -0.6200 C   0  0  0  0  0  0  0  0  0  0  0  0
    2.9030    0.3180   -0.2140 N   0  0  0  0  0  0  0  0  0  0  0  0
    3.6470    1.5390   -0.2080 C   0  0  0  0  0  0  0  0  0  0  0  0
    4.7590    1.3970   -0.9030 C   0  0  0  0  0  0  0  0  0  0  0  0
    4.8300    0.0130   -1.4410 C   0  0  0  0  0  0  0  0  0  0  0  0
    3.4450   -0.5360   -1.2550 C   0  0  0  0  0  0  0  0  0  0  0  0
  1  2  1  0
  2  3  2  3
  2 12  1  0
  3  4  1  0
  4  5  2  0
  4  6  1  0
  6  7  1  0
  6 11  1  0
  7  8  1  0
  8  9  1  0
  9 10  1  0
 10 11  1  0
 12 13  1  0
 12 16  1  0
 13 14  2  0
 14 15  1  0
 15 16  1  0
M  END
