
     RDKit          3D

 16 17  0  0  0  0  0  0  0  0999 V2000
    5.2900    0.3920   -0.5420 C   0  0  0  0  0  0  0  0  0  0  0  0
    3.8690    0.4590   -0.9510 C   0  0  0  0  0  0  0  0  0  0  0  0
    2.9110    0.1470   -0.0980 C   0  0  0  0  0  0  0  0  0  0  0  0
    1.5360    0.1970   -0.4470 N   0  0  0  0  0  0  0  0  0  0  0  0
    0.5610   -0.0860    0.3110 C   0  0  0  0  0  0  0  0  0  0  0  0
   -0.8150   -0.0070   -0.1310 N   0  0  0  0  0  0  0  0  0  0  0  0
   -1.3710    1.3040   -0.0120 C   0  0  0  0  0  0  0  0  0  0  0  0
   -2.7590    1.3100    0.5930 C   0  0  0  0  0  0  0  0  0  0  0  0
   -3.7240    0.8590   -0.4840 C   0  0  0  0  0  0  0  0  0  0  0  0
   -3.7250   -0.6560   -0.4500 C   0  0  0  0  0  0  0  0  0  0  0  0
   -2.6180   -1.2300   -1.2830 C   0  0  0  0  0  0  0  0  0  0  0  0
   -1.2950   -1.2710   -0.5850 C   0  0  0  0  0  0  0  0  0  0  0  0
    0.7610   -0.5190    1.7030 C   0  0  0  0  0  0  0  0  0  0  0  0
    2.1780   -0.5870    2.1160 C   0  0  0  0  0  0  0  0  0  0  0  0
    2.4930   -0.9450    3.2890 O   0  0  0  0  0  0  0  0  0  0  0  0
    3.2180   -0.2620    1.2330 N   0  0  0  0  0  0  0  0  0  0  0  0
  1  2  1  0
  2  3  2  3
  3  4  1  0
  3 16  1  0
  4  5  2  0
  5  6  1  0
  5 13  1  0
  6  7  1  0
  6 12  1  0
  7  8  1  0
  8  9  1  0
  9 10  1  0
 10 11  1  0
 11 12  1  0
 13 14  1  0
 14 15  2  0
 14 16  1  0
M  END
