
     RDKit          3D

  9  8  0  0  0  0  0  0  0  0999 V2000
   -3.1110    0.3920    0.3620 N   0  0  0  0  0  0  0  0  0  0  0  0
   -2.0580    0.3420   -0.6260 C   0  0  0  0  0  0  0  0  0  0  0  0
   -0.7640   -0.0080    0.1100 C   0  0  0  0  0  0  0  0  0  0  0  0
    0.3390   -0.0620   -0.9140 C   0  0  0  0  0  0  0  0  0  0  0  0
    1.6720   -0.3980   -0.3290 C   0  0  2  0  0  0  0  0  0  0  0  0
    1.7000   -1.6800    0.3320 N   0  0  0  0  0  0  0  0  0  0  0  0
    2.1590    0.6490    0.6030 C   0  0  0  0  0  0  0  0  0  0  0  0
    2.5280    0.4030    1.7800 O   0  0  0  0  0  0  0  0  0  0  0  0
    2.2020    1.9550    0.1370 O   0  0  0  0  0  0  0  0  0  0  0  0
  1  2  1  0
  2  3  1  0
  3  4  1  0
  4  5  1  0
  5  6  1  1
  5  7  1  0
  7  8  2  0
  7  9  1  0
M  CHG  2   1   1   6   1
M  END
