
     RDKit          3D

 16 17  0  0  0  0  0  0  0  0999 V2000
    4.3380    2.0790    0.0950 C   0  0  0  0  0  0  0  0  0  0  0  0
    3.3810    1.5940   -0.6580 C   0  0  0  0  0  0  0  0  0  0  0  0
    2.4460    0.6250   -0.1170 C   0  0  0  0  0  0  0  0  0  0  0  0
    1.4650    0.1090   -0.8360 C   0  0  0  0  0  0  0  0  0  0  0  0
    0.5500   -0.8410   -0.3040 N   0  0  0  0  0  0  0  0  0  0  0  0
    1.0520   -2.1560   -0.0040 C   0  0  0  0  0  0  0  0  0  0  0  0
    0.0100   -3.1110    0.3920 C   0  0  0  0  0  0  0  0  0  0  0  0
    0.3300   -4.3100    0.5450 O   0  0  0  0  0  0  0  0  0  0  0  0
   -1.3540   -2.7720    0.6190 N   0  0  0  0  0  0  0  0  0  0  0  0
   -1.7470   -1.4320    0.3710 C   0  0  0  0  0  0  0  0  0  0  0  0
   -3.0680   -1.0880    0.5860 C   0  0  0  0  0  0  0  0  0  0  0  0
   -3.4630    0.1760    0.3580 N   0  0  0  0  0  0  0  0  0  0  0  0
   -2.5840    1.1120   -0.0800 C   0  0  0  0  0  0  0  0  0  0  0  0
   -3.1200    2.4810   -0.3030 C   0  0  0  0  0  0  0  0  0  0  0  0
   -1.2620    0.7880   -0.3010 C   0  0  0  0  0  0  0  0  0  0  0  0
   -0.8120   -0.4990   -0.0790 C   0  0  0  0  0  0  0  0  0  0  0  0
  1  2  2  0
  2  3  1  0
  3  4  2  3
  4  5  1  0
  5  6  1  0
  5 16  1  0
  6  7  1  0
  7  8  2  0
  7  9  1  0
  9 10  1  0
 10 11  2  0
 10 16  1  0
 11 12  1  0
 12 13  2  0
 13 14  1  0
 13 15  1  0
 15 16  2  0
M  END
