
     RDKit          3D

 16 16  0  0  0  0  0  0  0  0999 V2000
    1.7780   -2.0960    1.6000 C   0  0  0  0  0  0  0  0  0  0  0  0
    2.3140   -2.2610    0.4050 C   0  0  0  0  0  0  0  0  0  0  0  0
    3.0360   -3.5210    0.0720 C   0  0  0  0  0  0  0  0  0  0  0  0
    2.2040   -1.2120   -0.6050 C   0  0  0  0  0  0  0  0  0  0  0  0
    2.7450   -1.3860   -1.7990 C   0  0  0  0  0  0  0  0  0  0  0  0
    2.6560   -0.3460   -2.8540 C   0  0  0  0  0  0  0  0  0  0  0  0
    1.5170   -0.0140   -0.2960 N   0  0  0  0  0  0  0  0  0  0  0  0
    0.2500    0.1610   -0.4190 C   0  0  0  0  0  0  0  0  0  0  0  0
   -0.5630   -0.8860   -0.8940 N   0  0  0  0  0  0  0  0  0  0  0  0
   -0.3350    1.4590   -0.0610 C   0  0  0  0  0  0  0  0  0  0  0  0
   -1.3130    1.3880    1.0050 N   0  0  0  0  0  0  0  0  0  0  0  0
   -2.5160    0.7240    0.6700 C   0  0  0  0  0  0  0  0  0  0  0  0
   -3.7340    1.1010    1.4140 C   0  0  0  0  0  0  0  0  0  0  0  0
   -3.5960    2.2370    2.2030 O   0  0  0  0  0  0  0  0  0  0  0  0
   -2.7970    3.1810    1.5420 C   0  0  0  0  0  0  0  0  0  0  0  0
   -1.3930    2.6500    1.6450 C   0  0  0  0  0  0  0  0  0  0  0  0
  1  2  2  0
  2  3  1  0
  2  4  1  0
  4  5  2  3
  4  7  1  0
  5  6  1  0
  7  8  2  3
  8  9  1  0
  8 10  1  0
 10 11  1  0
 11 12  1  0
 11 16  1  0
 12 13  1  0
 13 14  1  0
 14 15  1  0
 15 16  1  0
M  END
