
     RDKit          3D

 16 17  0  0  0  0  0  0  0  0999 V2000
    2.4930   -0.3280    2.2070 C   0  0  0  0  0  0  0  0  0  0  0  0
    2.9550   -0.0110    1.0180 C   0  0  0  0  0  0  0  0  0  0  0  0
    2.0510    0.3440   -0.0620 C   0  0  0  0  0  0  0  0  0  0  0  0
    2.5390    0.6530   -1.2420 C   0  0  0  0  0  0  0  0  0  0  0  0
    3.9900    0.6730   -1.5670 C   0  0  0  0  0  0  0  0  0  0  0  0
    0.7040    0.3540    0.1680 O   0  0  0  0  0  0  0  0  0  0  0  0
   -0.2590   -0.0610   -0.6910 C   0  0  0  0  0  0  0  0  0  0  0  0
    0.0620   -0.5470   -1.8960 N   0  0  0  0  0  0  0  0  0  0  0  0
   -0.9200   -0.9620   -2.7540 C   0  0  0  0  0  0  0  0  0  0  0  0
   -2.2310   -0.8730   -2.3640 C   0  0  0  0  0  0  0  0  0  0  0  0
   -2.5180   -0.3800   -1.1460 N   0  0  0  0  0  0  0  0  0  0  0  0
   -1.5840    0.0370   -0.2760 C   0  0  0  0  0  0  0  0  0  0  0  0
   -1.9050    0.5730    1.0860 C   0  0  1  0  0  0  0  0  0  0  0  0
   -3.3560    0.8900    1.3180 C   0  0  0  0  0  0  0  0  0  0  0  0
   -3.5920   -0.5230    1.5770 N   0  0  0  0  0  0  0  0  0  0  0  0
   -2.2160   -0.5620    2.0820 C   0  0  0  0  0  0  0  0  0  0  0  0
  1  2  2  0
  2  3  1  0
  3  4  2  3
  3  6  1  0
  4  5  1  0
  6  7  1  0
  7  8  2  0
  7 12  1  0
  8  9  1  0
  9 10  2  0
 10 11  1  0
 11 12  2  0
 13 12  1  6
 13 14  1  0
 13 16  1  0
 14 15  1  0
 15 16  1  0
M  END
