
     RDKit          3D

 11 11  0  0  0  0  0  0  0  0999 V2000
    2.9930   -0.9680   -0.6070 C   0  0  0  0  0  0  0  0  0  0  0  0
    2.7960    0.3090   -1.1180 O   0  0  0  0  0  0  0  0  0  0  0  0
    1.5640    0.4240   -1.6240 O   0  0  0  0  0  0  0  0  0  0  0  0
    0.5440    0.9180   -0.4590 P   0  0  0  0  0  0  0  0  0  0  0  0
   -1.0840    0.2940    0.1470 C   0  0  0  0  0  0  0  0  0  0  0  0
   -1.6550   -0.7470   -0.3720 O   0  0  0  0  0  0  0  0  0  0  0  0
   -2.8440   -1.4050   -0.1100 C   0  0  0  0  0  0  0  0  0  0  0  0
   -1.3150    1.2260    1.1390 C   0  0  0  0  0  0  0  0  0  0  0  0
   -0.5240    2.1360    1.3860 O   0  0  0  0  0  0  0  0  0  0  0  0
    0.6060    2.3060    0.7310 C   0  0  0  0  0  0  0  0  0  0  0  0
    1.5990    3.1460    0.7700 O   0  0  0  0  0  0  0  0  0  0  0  0
  1  2  1  0
  2  3  1  0
  3  4  1  0
  4  5  1  0
  4 10  1  0
  5  6  1  0
  5  8  2  0
  6  7  1  0
  8  9  1  0
  9 10  1  0
 10 11  2  0
M  END
