
     RDKit          3D

 10  9  0  0  0  0  0  0  0  0999 V2000
   -1.4610    0.6240   -1.7720 C   0  0  0  0  0  0  0  0  0  0  0  0
   -0.9270    0.4390   -0.5790 C   0  0  0  0  0  0  0  0  0  0  0  0
    0.5410    0.2390   -0.4630 C   0  0  0  0  0  0  0  0  0  0  0  0
    1.0860    1.2470    0.3370 O   0  0  0  0  0  0  0  0  0  0  0  0
    2.4020    1.0180    0.4060 O   0  0  0  0  0  0  0  0  0  0  0  0
    2.9720   -0.0020    1.1390 C   0  0  0  0  0  0  0  0  0  0  0  0
    2.2000   -0.7600    1.7810 O   0  0  0  0  0  0  0  0  0  0  0  0
    4.3570   -0.2090    1.1860 O   0  0  0  0  0  0  0  0  0  0  0  0
   -1.7470    0.4370    0.5300 O   0  0  0  0  0  0  0  0  0  0  0  0
   -2.9010   -0.3790    0.4860 C   0  0  0  0  0  0  0  0  0  0  0  0
  1  2  2  0
  2  3  1  0
  2  9  1  0
  3  4  1  0
  4  5  1  0
  5  6  1  0
  6  7  2  0
  6  8  1  0
  9 10  1  0
M  END
