
     RDKit          3D

 23 23  0  0  0  0  0  0  0  0999 V2000
   -6.4290    0.2470   -1.6330 O   0  0  0  0  0  0  0  0  0  0  0  0
   -5.1980    0.0980   -1.3200 C   0  0  0  0  0  0  0  0  0  0  0  0
   -4.4570   -0.6490   -2.1880 O   0  0  0  0  0  0  0  0  0  0  0  0
   -4.6590    0.6940   -0.1200 C   0  0  0  0  0  0  0  0  0  0  0  0
   -5.5580    1.4440    0.6820 C   0  0  0  0  0  0  0  0  0  0  0  0
   -5.1550    2.0510    1.8370 C   0  0  0  0  0  0  0  0  0  0  0  0
   -3.8460    1.9310    2.2320 C   0  0  0  0  0  0  0  0  0  0  0  0
   -2.9820    1.2050    1.4530 C   0  0  0  0  0  0  0  0  0  0  0  0
   -3.3640    0.5670    0.2560 C   0  0  0  0  0  0  0  0  0  0  0  0
   -2.4200   -0.1640   -0.4930 N   0  0  0  0  0  0  0  0  0  0  0  0
   -1.0510   -0.2040    0.0550 C   0  0  0  0  0  0  0  0  0  0  0  0
   -0.1390   -1.0100   -0.8300 C   0  0  1  0  0  0  0  0  0  0  0  0
   -0.0490   -0.4900   -2.1140 O   0  0  0  0  0  0  0  0  0  0  0  0
    1.2130   -1.0520   -0.1900 C   0  0  2  0  0  0  0  0  0  0  0  0
    1.0670   -1.5800    1.0920 O   0  0  0  0  0  0  0  0  0  0  0  0
    1.8260    0.3240   -0.0350 C   0  0  2  0  0  0  0  0  0  0  0  0
    2.0170    0.9480   -1.2670 O   0  0  0  0  0  0  0  0  0  0  0  0
    3.2240    0.1140    0.5500 C   0  0  0  0  0  0  0  0  0  0  0  0
    3.9090   -0.6720   -0.3260 O   0  0  0  0  0  0  0  0  0  0  0  0
    5.4220   -0.9630    0.1990 P   0  0  0  0  0  0  0  0  0  0  0  0
    6.0700   -0.0510   -0.8330 O   0  0  0  0  0  0  0  0  0  0  0  0
    6.1000   -0.0410    1.4270 O   0  0  0  0  0  0  0  0  0  0  0  0
    6.2430   -2.3040   -0.2970 O   0  0  0  0  0  0  0  0  0  0  0  0
  1  2  2  0
  2  3  1  0
  2  4  1  0
  4  5  2  0
  4  9  1  0
  5  6  1  0
  6  7  2  0
  7  8  1  0
  8  9  2  0
  9 10  1  0
 10 11  1  0
 11 12  1  0
 12 13  1  6
 12 14  1  0
 14 15  1  1
 14 16  1  0
 16 17  1  6
 16 18  1  0
 18 19  1  0
 19 20  1  0
 20 21  1  0
 20 22  1  0
 20 23  1  0
M  END
