
     RDKit          3D

 11 11  0  0  0  0  0  0  0  0999 V2000
   -2.0150    1.6600   -0.0160 C   0  0  0  0  0  0  0  0  0  0  0  0
   -1.6640    0.2280    0.1960 C   0  0  0  0  0  0  0  0  0  0  0  0
   -2.5220   -0.7890    0.2970 O   0  0  0  0  0  0  0  0  0  0  0  0
   -1.8470   -1.9000    0.4800 C   0  0  0  0  0  0  0  0  0  0  0  0
   -2.3390   -3.0710    0.6210 O   0  0  0  0  0  0  0  0  0  0  0  0
   -0.5750   -1.6090    0.4960 O   0  0  0  0  0  0  0  0  0  0  0  0
   -0.4180   -0.3100    0.3240 C   0  0  0  0  0  0  0  0  0  0  0  0
    0.8850    0.4120    0.2790 C   0  0  0  0  0  0  0  0  0  0  0  0
    2.2060   -0.6350   -0.4920 P   0  0  0  0  0  0  0  0  0  0  0  0
    3.0860   -1.5370    0.7070 O   0  0  0  0  0  0  0  0  0  0  0  0
    3.3600    0.4430   -1.2210 O   0  0  0  0  0  0  0  0  0  0  0  0
  1  2  1  0
  2  3  1  0
  2  7  2  0
  3  4  1  0
  4  5  2  0
  4  6  1  0
  6  7  1  0
  7  8  1  0
  8  9  1  0
  9 10  1  0
  9 11  1  0
M  END
