
     RDKit          3D

 11 10  0  0  0  0  0  0  0  0999 V2000
    1.9810    1.7040   -0.7200 C   0  0  0  0  0  0  0  0  0  0  0  0
    0.9670    0.7620   -0.3430 O   0  0  0  0  0  0  0  0  0  0  0  0
    1.0610   -0.5590   -0.6710 C   0  0  0  0  0  0  0  0  0  0  0  0
    2.0800   -0.9190   -1.3220 O   0  0  0  0  0  0  0  0  0  0  0  0
    0.0580   -1.5560   -0.3110 C   0  0  0  0  0  0  0  0  0  0  0  0
   -1.0270   -1.2810    0.3590 C   0  0  0  0  0  0  0  0  0  0  0  0
   -1.9690   -2.3250    0.6740 C   0  0  0  0  0  0  0  0  0  0  0  0
   -1.7170   -3.4920    0.2890 O   0  0  0  0  0  0  0  0  0  0  0  0
   -1.3610    0.4180    0.9010 P   0  0  0  0  0  0  0  0  0  0  0  0
   -0.1510    0.9400    2.0150 O   0  0  0  0  0  0  0  0  0  0  0  0
   -1.5230    1.5580   -0.3530 O   0  0  0  0  0  0  0  0  0  0  0  0
  1  2  1  0
  2  3  1  0
  3  4  2  0
  3  5  1  0
  5  6  2  3
  6  7  1  0
  6  9  1  0
  7  8  2  0
  9 10  1  0
  9 11  1  0
M  END
