
     RDKit          3D

 11 10  0  0  0  0  0  0  0  0999 V2000
    1.4760   -1.2060   -0.8990 O   0  0  0  0  0  0  0  0  0  0  0  0
    1.6320   -0.1990   -0.1670 C   0  0  0  0  0  0  0  0  0  0  0  0
    0.4660    0.5730    0.2700 C   0  0  0  0  0  0  0  0  0  0  0  0
   -0.8040   -0.0330   -0.2840 C   0  0  0  0  0  0  0  0  0  0  0  0
   -2.0140    0.7720    0.1720 C   0  0  0  0  0  0  0  0  0  0  0  0
   -3.5120   -0.0580   -0.5640 P   0  0  0  0  0  0  0  0  0  0  0  0
   -4.9220    0.9090   -0.4220 O   0  0  0  0  0  0  0  0  0  0  0  0
   -3.7120   -1.6500    0.0230 O   0  0  0  0  0  0  0  0  0  0  0  0
    2.9130    0.2060    0.2460 O   0  0  0  0  0  0  0  0  0  0  0  0
    4.0010   -0.5900   -0.2160 C   0  0  0  0  0  0  0  0  0  0  0  0
    5.2030   -0.0710    0.2700 O   0  0  0  0  0  0  0  0  0  0  0  0
  1  2  2  0
  2  3  1  0
  2  9  1  0
  3  4  1  0
  4  5  1  0
  5  6  1  0
  6  7  1  0
  6  8  1  0
  9 10  1  0
 10 11  1  0
M  END
