
     RDKit          3D

 11 11  0  0  0  0  0  0  0  0999 V2000
   -2.8120    1.3500    0.3120 C   0  0  0  0  0  0  0  0  0  0  0  0
   -1.7650    0.4640   -0.0480 O   0  0  0  0  0  0  0  0  0  0  0  0
   -1.8770   -0.9140    0.0800 C   0  0  0  0  0  0  0  0  0  0  0  0
   -2.9620   -1.3550    0.5360 O   0  0  0  0  0  0  0  0  0  0  0  0
   -0.7670   -1.8480   -0.3020 C   0  0  0  0  0  0  0  0  0  0  0  0
    0.4150   -1.0520   -0.8180 C   0  0  0  0  0  0  0  0  0  0  0  0
    1.0800    0.1260    0.4320 P   0  0  0  0  0  0  0  0  0  0  0  0
    1.8400    1.4310   -0.4650 O   0  0  0  0  0  0  0  0  0  0  0  0
    3.1630    1.1870   -0.2430 C   0  0  0  0  0  0  0  0  0  0  0  0
    3.4480    0.4200    0.7740 O   0  0  0  0  0  0  0  0  0  0  0  0
    2.5750   -0.4460    1.1230 O   0  0  0  0  0  0  0  0  0  0  0  0
  1  2  1  0
  2  3  1  0
  3  4  2  0
  3  5  1  0
  5  6  1  0
  6  7  1  0
  7  8  1  0
  7 11  1  0
  8  9  1  0
  9 10  1  0
 10 11  1  0
M  END
