
     RDKit          3D

 20 19  0  0  0  0  0  0  0  0999 V2000
   -3.6050   -2.1660   -2.2930 N   0  0  0  0  0  0  0  0  0  0  0  0
   -2.4390   -2.0670   -1.5310 C   0  0  0  0  0  0  0  0  0  0  0  0
   -1.5370   -2.9690   -1.7030 O   0  0  0  0  0  0  0  0  0  0  0  0
   -2.1750   -1.0070   -0.5560 C   0  0  1  0  0  0  0  0  0  0  0  0
   -3.1060   -1.0370    0.5970 C   0  0  0  0  0  0  0  0  0  0  0  0
   -4.5230   -0.8280    0.2170 C   0  0  0  0  0  0  0  0  0  0  0  0
   -4.7680    0.4860   -0.4260 C   0  0  0  0  0  0  0  0  0  0  0  0
   -4.3540    1.6720    0.2590 N   0  0  0  0  0  0  0  0  0  0  0  0
   -5.4120    0.6600   -1.6870 S   0  0  0  0  0  0  0  0  0  0  0  0
   -0.8200   -1.1730   -0.0270 N   0  0  0  0  0  0  0  0  0  0  0  0
    0.1160   -0.1310   -0.2290 C   0  0  0  0  0  0  0  0  0  0  0  0
   -0.1940    0.9250   -0.8490 O   0  0  0  0  0  0  0  0  0  0  0  0
    1.4860   -0.3540    0.3310 C   0  0  0  0  0  0  0  0  0  0  0  0
    2.2510    0.7960    0.0130 O   0  0  0  0  0  0  0  0  0  0  0  0
    3.5830    0.9290    0.3780 C   0  0  0  0  0  0  0  0  0  0  0  0
    4.0850   -0.0320    1.0140 O   0  0  0  0  0  0  0  0  0  0  0  0
    4.3640    2.0130    0.0980 O   0  0  0  0  0  0  0  0  0  0  0  0
    5.7210    2.1780    0.4530 C   0  0  0  0  0  0  0  0  0  0  0  0
    6.5410    1.0790   -0.1880 C   0  0  0  0  0  0  0  0  0  0  0  0
    7.9040    1.2180    0.1500 O   0  0  0  0  0  0  0  0  0  0  0  0
  1  2  1  0
  2  3  2  0
  2  4  1  0
  4  5  1  1
  4 10  1  0
  5  6  1  0
  6  7  1  0
  7  8  1  0
  7  9  2  0
 10 11  1  0
 11 12  2  0
 11 13  1  0
 13 14  1  0
 14 15  1  0
 15 16  2  0
 15 17  1  0
 17 18  1  0
 18 19  1  0
 19 20  1  0
M  CHG  1   8   1
M  END
