
     RDKit          3D

 20 19  0  0  0  0  0  0  0  0999 V2000
    5.3290   -1.8060   -0.8970 C   0  0  0  0  0  0  0  0  0  0  0  0
    4.3100   -1.4780   -1.6910 O   0  0  0  0  0  0  0  0  0  0  0  0
    3.3830   -0.5690   -1.4630 C   0  0  0  0  0  0  0  0  0  0  0  0
    2.5060   -0.6520   -0.2360 C   0  0  2  0  0  0  0  0  0  0  0  0
    1.5370    0.4080   -0.4510 O   0  0  0  0  0  0  0  0  0  0  0  0
    0.1490    0.0610   -0.4930 C   0  0  0  0  0  0  0  0  0  0  0  0
   -0.0470   -1.1510   -0.3320 O   0  0  0  0  0  0  0  0  0  0  0  0
   -0.8280    1.1350   -0.7110 C   0  0  0  0  0  0  0  0  0  0  0  0
   -2.1180    0.9320   -0.8180 O   0  0  0  0  0  0  0  0  0  0  0  0
   -2.9380    0.3510    0.0370 C   0  0  1  0  0  0  0  0  0  0  0  0
   -2.8880    0.7360    1.4870 C   0  0  0  0  0  0  0  0  0  0  0  0
   -4.3710    0.9310   -0.4660 C   0  0  0  0  0  0  0  0  0  0  0  0
   -5.3950    0.4010    0.3560 N   0  0  0  0  0  0  0  0  0  0  0  0
   -3.1470   -1.0860   -0.1240 C   0  0  0  0  0  0  0  0  0  0  0  0
   -2.7500   -1.6770   -1.1230 O   0  0  0  0  0  0  0  0  0  0  0  0
   -3.9940   -2.0800    1.1220 S   0  0  0  0  0  0  0  0  0  0  0  0
    3.2530   -0.1850    0.9690 C   0  0  0  0  0  0  0  0  0  0  0  0
    4.1460   -0.8340    1.5570 O   0  0  0  0  0  0  0  0  0  0  0  0
    2.9620    1.1050    1.5380 N   0  0  0  0  0  0  0  0  0  0  0  0
    3.6760    1.5240    2.6710 N   0  0  0  0  0  0  0  0  0  0  0  0
  1  2  1  0
  2  3  1  0
  4  3  1  6
  4  5  1  0
  4 17  1  0
  5  6  1  0
  6  7  2  0
  6  8  1  0
  8  9  1  0
  9 10  1  0
 10 11  1  1
 10 12  1  0
 10 14  1  0
 12 13  1  0
 14 15  2  0
 14 16  1  0
 17 18  2  0
 17 19  1  0
 19 20  1  0
M  CHG  1  13   1
M  END
