
     RDKit          3D

 26 28  0  0  0  0  0  0  0  0999 V2000
    3.2520    0.1910   -1.5410 C   0  0  0  0  0  0  0  0  0  0  0  0
    2.9630   -0.7880   -0.4260 C   0  0  0  0  0  0  0  0  0  0  0  0
    1.7390   -1.3030   -0.1470 N   0  0  0  0  0  0  0  0  0  0  0  0
    1.8540   -2.1520    0.8820 C   0  0  0  0  0  0  0  0  0  0  0  0
    0.7400   -2.9490    1.5230 C   0  0  0  0  0  0  0  0  0  0  0  0
   -0.4920   -2.4750    1.0180 O   0  0  0  0  0  0  0  0  0  0  0  0
   -0.9340   -1.1830    1.1650 C   0  0  0  0  0  0  0  0  0  0  0  0
   -0.2010   -0.3730    1.7860 O   0  0  0  0  0  0  0  0  0  0  0  0
   -2.2020   -0.6960    0.6430 C   0  0  0  0  0  0  0  0  0  0  0  0
   -3.1450   -1.4170   -0.0700 C   0  0  0  0  0  0  0  0  0  0  0  0
   -4.1780   -0.5820   -0.3570 N   0  0  0  0  0  0  0  0  0  0  0  0
   -3.9060    0.6370    0.1580 C   0  0  0  0  0  0  0  0  0  0  0  0
   -4.7900    1.8530    0.0690 C   0  0  2  0  0  0  0  0  0  0  0  0
   -6.2330    1.5920    0.4530 C   0  0  0  0  0  0  0  0  0  0  0  0
   -6.5910    1.7560   -0.9960 C   0  0  0  0  0  0  0  0  0  0  0  0
   -5.1980    2.2570   -1.3070 C   0  0  0  0  0  0  0  0  0  0  0  0
   -2.7030    0.5400    0.7580 N   0  0  0  0  0  0  0  0  0  0  0  0
    3.1050   -2.1620    1.2310 O   0  0  0  0  0  0  0  0  0  0  0  0
    3.8220   -1.3560    0.4740 C   0  0  0  0  0  0  0  0  0  0  0  0
    5.2520   -1.1160    0.5800 C   0  0  0  0  0  0  0  0  0  0  0  0
    5.7900    0.0820    0.5500 C   0  0  0  0  0  0  0  0  0  0  0  0
    5.0120    1.2020    0.4150 F   0  0  0  0  0  0  0  0  0  0  0  0
    7.2360    0.2080    0.6570 C   0  0  0  0  0  0  0  0  0  0  0  0
    7.7900    1.4040    0.6290 C   0  0  0  0  0  0  0  0  0  0  0  0
    6.7860    2.8420    0.4630 Cl  0  0  0  0  0  0  0  0  0  0  0  0
    9.5410    1.5510    0.7580 Cl  0  0  0  0  0  0  0  0  0  0  0  0
  1  2  1  0
  2  3  1  0
  2 19  2  0
  3  4  2  0
  4  5  1  0
  4 18  1  0
  5  6  1  0
  6  7  1  0
  7  8  2  0
  7  9  1  0
  9 10  2  0
  9 17  1  0
 10 11  1  0
 11 12  1  0
 13 12  1  6
 12 17  2  0
 13 14  1  0
 13 16  1  0
 14 15  1  0
 15 16  1  0
 18 19  1  0
 19 20  1  0
 20 21  2  3
 21 22  1  0
 21 23  1  0
 23 24  2  3
 24 25  1  0
 24 26  1  0
M  END
