
     RDKit          3D

 20 19  0  0  0  0  0  0  0  0999 V2000
   -3.5700    1.3700   -1.2550 C   0  0  0  0  0  0  0  0  0  0  0  0
   -3.0470    0.2130   -0.4240 C   0  0  1  0  0  0  0  0  0  0  0  0
   -2.7330   -0.9140   -1.2820 N   0  0  0  0  0  0  0  0  0  0  0  0
   -1.8110    0.6910    0.3070 C   0  0  0  0  0  0  0  0  0  0  0  0
   -1.1950   -0.3530    1.1670 C   0  0  1  0  0  0  0  0  0  0  0  0
   -0.0690    0.1610    1.7960 O   0  0  0  0  0  0  0  0  0  0  0  0
    1.0760   -0.5580    1.6610 C   0  0  0  0  0  0  0  0  0  0  0  0
    1.5890   -0.7780    0.3010 C   0  0  0  0  0  0  0  0  0  0  0  0
    1.1190   -0.3980   -0.7690 O   0  0  0  0  0  0  0  0  0  0  0  0
    2.7840   -1.5290    0.2220 O   0  0  0  0  0  0  0  0  0  0  0  0
    3.4070   -1.8250   -0.9790 C   0  0  0  0  0  0  0  0  0  0  0  0
    3.8640   -0.5870   -1.6380 C   0  0  0  0  0  0  0  0  0  0  0  0
    4.3380   -0.6740   -2.8190 O   0  0  0  0  0  0  0  0  0  0  0  0
    3.7760    0.6570   -0.9710 N   0  0  0  0  0  0  0  0  0  0  0  0
    4.2170    1.8360   -1.6540 C   0  0  0  0  0  0  0  0  0  0  0  0
    4.6610    1.6930   -2.8200 O   0  0  0  0  0  0  0  0  0  0  0  0
    4.1650    3.0910   -1.0710 O   0  0  0  0  0  0  0  0  0  0  0  0
   -2.1730   -0.8540    2.1930 C   0  0  0  0  0  0  0  0  0  0  0  0
   -2.7720   -0.0270    3.1540 N   0  0  0  0  0  0  0  0  0  0  0  0
   -2.5450   -2.4360    2.1750 S   0  0  0  0  0  0  0  0  0  0  0  0
  2  1  1  6
  2  3  1  0
  2  4  1  0
  5  4  1  1
  5  6  1  0
  5 18  1  0
  6  7  1  0
  7  8  1  0
  8  9  2  0
  8 10  1  0
 10 11  1  0
 11 12  1  0
 12 13  2  0
 12 14  1  0
 14 15  1  0
 15 16  2  0
 15 17  1  0
 18 19  1  0
 18 20  2  0
M  CHG  1   3   1
M  END
