
     RDKit          3D

 19 18  0  0  0  0  0  0  0  0999 V2000
    7.4330    0.6070    0.0370 C   0  0  0  0  0  0  0  0  0  0  0  0
    6.0650    0.5100   -0.3610 O   0  0  0  0  0  0  0  0  0  0  0  0
    5.3040   -0.4950    0.2030 C   0  0  0  0  0  0  0  0  0  0  0  0
    5.8150   -1.2880    1.0370 O   0  0  0  0  0  0  0  0  0  0  0  0
    3.8680   -0.6630   -0.1590 C   0  0  0  0  0  0  0  0  0  0  0  0
    2.9640   -0.0910    0.9160 C   0  0  0  0  0  0  0  0  0  0  0  0
    1.6290   -0.2700    0.5380 O   0  0  0  0  0  0  0  0  0  0  0  0
    1.0170    0.2370   -0.5870 C   0  0  0  0  0  0  0  0  0  0  0  0
    1.7150    0.9390   -1.3680 O   0  0  0  0  0  0  0  0  0  0  0  0
   -0.4010   -0.0680   -0.8040 C   0  0  1  0  0  0  0  0  0  0  0  0
   -0.8750   -0.8910    0.2880 N   0  0  0  0  0  0  0  0  0  0  0  0
   -1.2680    1.1350   -0.9770 C   0  0  0  0  0  0  0  0  0  0  0  0
   -2.9660    0.6070   -1.2480 S   0  0  0  0  0  0  0  0  0  0  0  0
   -3.6790   -0.1660    0.2150 C   0  0  2  0  0  0  0  0  0  0  0  0
   -5.1310   -0.5020   -0.1560 C   0  0  0  0  0  0  0  0  0  0  0  0
   -5.0760   -1.4050   -1.2870 N   0  0  0  0  0  0  0  0  0  0  0  0
   -3.6350    0.7410    1.3900 C   0  0  0  0  0  0  0  0  0  0  0  0
   -4.3050    1.9810    1.3260 N   0  0  0  0  0  0  0  0  0  0  0  0
   -3.0190    0.4370    2.4400 O   0  0  0  0  0  0  0  0  0  0  0  0
  1  2  1  0
  2  3  1  0
  3  4  2  0
  3  5  1  0
  5  6  1  0
  6  7  1  0
  7  8  1  0
  8  9  2  0
  8 10  1  0
 10 11  1  1
 10 12  1  0
 12 13  1  0
 13 14  1  0
 14 15  1  6
 14 17  1  0
 15 16  1  0
 17 18  1  0
 17 19  2  0
M  CHG  1  16   1
M  END
