
     RDKit          3D

 20 19  0  0  0  0  0  0  0  0999 V2000
   -3.9280   -1.7110   -1.2560 C   0  0  0  0  0  0  0  0  0  0  0  0
   -3.7320   -0.3510   -0.7070 C   0  0  0  0  0  0  0  0  0  0  0  0
   -2.3910   -0.0930   -0.0890 C   0  0  2  0  0  0  0  0  0  0  0  0
   -2.3810    1.2470    0.4010 O   0  0  0  0  0  0  0  0  0  0  0  0
   -1.3080   -0.2730   -1.0970 C   0  0  0  0  0  0  0  0  0  0  0  0
    0.0510    0.0010   -0.4870 C   0  0  0  0  0  0  0  0  0  0  0  0
    0.1350    0.3280    0.7110 O   0  0  0  0  0  0  0  0  0  0  0  0
    1.2280   -0.1070   -1.2510 N   0  0  0  0  0  0  0  0  0  0  0  0
    2.5820    0.1200   -0.8600 C   0  0  0  0  0  0  0  0  0  0  0  0
    2.9020    1.5200   -0.4470 C   0  0  1  0  0  0  0  0  0  0  0  0
    4.4530    1.6720   -0.4330 C   0  0  0  0  0  0  0  0  0  0  0  0
    2.5440    2.4030   -1.4960 O   0  0  0  0  0  0  0  0  0  0  0  0
    2.3400    1.9900    0.7940 C   0  0  0  0  0  0  0  0  0  0  0  0
    2.5840    1.4180    2.0830 N   0  0  0  0  0  0  0  0  0  0  0  0
    1.5780    2.9740    0.7950 O   0  0  0  0  0  0  0  0  0  0  0  0
   -2.2030   -0.9520    1.1060 C   0  0  0  0  0  0  0  0  0  0  0  0
   -2.1920   -0.4720    2.2940 O   0  0  0  0  0  0  0  0  0  0  0  0
   -2.0180   -2.3630    1.0550 N   0  0  0  0  0  0  0  0  0  0  0  0
   -1.8040   -3.3320    2.4930 S   0  0  0  0  0  0  0  0  0  0  0  0
   -2.3170   -2.6260    3.7330 O   0  0  0  0  0  0  0  0  0  0  0  0
  1  2  1  0
  2  3  1  0
  3  4  1  1
  3  5  1  0
  3 16  1  0
  5  6  1  0
  6  7  2  0
  6  8  1  0
  8  9  1  0
  9 10  1  0
 10 11  1  1
 10 12  1  0
 10 13  1  0
 13 14  1  0
 13 15  2  0
 16 17  2  0
 16 18  1  0
 18 19  1  0
 19 20  2  0
M  CHG  1  14   1
M  END
