
     RDKit          3D

 19 18  0  0  0  0  0  0  0  0999 V2000
    6.0770   -0.2820   -0.2510 C   0  0  0  0  0  0  0  0  0  0  0  0
    4.7470   -0.7030   -0.3320 O   0  0  0  0  0  0  0  0  0  0  0  0
    3.7440   -0.2900    0.5250 C   0  0  0  0  0  0  0  0  0  0  0  0
    4.0510    0.5170    1.4360 O   0  0  0  0  0  0  0  0  0  0  0  0
    2.3340   -0.7410    0.4340 C   0  0  0  0  0  0  0  0  0  0  0  0
    1.5340   -0.1840    1.4030 O   0  0  0  0  0  0  0  0  0  0  0  0
   -0.0980   -0.6950    1.3130 P   0  0  0  0  0  0  0  0  0  0  0  0
   -0.4310   -1.8620   -0.0550 C   0  0  0  0  0  0  0  0  0  0  0  0
   -1.8010   -1.8280   -0.5280 N   0  0  0  0  0  0  0  0  0  0  0  0
   -2.2450   -0.9580   -1.5850 C   0  0  0  0  0  0  0  0  0  0  0  0
   -2.7310   -2.7020    0.0930 C   0  0  0  0  0  0  0  0  0  0  0  0
   -4.1340   -2.6960   -0.3610 C   0  0  0  0  0  0  0  0  0  0  0  0
   -2.3870   -3.4860    1.0280 O   0  0  0  0  0  0  0  0  0  0  0  0
   -1.1240    0.6970    1.2840 O   0  0  0  0  0  0  0  0  0  0  0  0
   -0.2700    2.0770    0.6190 P   0  0  0  0  0  0  0  0  0  0  0  0
    0.0570    1.7200   -1.0470 O   0  0  0  0  0  0  0  0  0  0  0  0
   -1.3810    3.5390    0.7800 C   0  0  0  0  0  0  0  0  0  0  0  0
   -1.0810    4.5240   -0.1700 O   0  0  0  0  0  0  0  0  0  0  0  0
   -1.8850    5.5570   -0.0360 O   0  0  0  0  0  0  0  0  0  0  0  0
  1  2  1  0
  2  3  1  0
  3  4  2  0
  3  5  1  0
  5  6  1  0
  6  7  1  0
  7  8  1  0
  7 14  1  0
  8  9  1  0
  9 10  1  0
  9 11  1  0
 11 12  1  0
 11 13  2  0
 14 15  1  0
 15 16  1  0
 15 17  1  0
 17 18  1  0
 18 19  1  0
M  END
