
     RDKit          3D

 21 21  0  0  0  0  0  0  0  0999 V2000
    2.2150   -1.6160    1.2230 C   0  0  0  0  0  0  0  0  0  0  0  0
    1.9320   -0.6030    0.2490 N   0  0  0  0  0  0  0  0  0  0  0  0
    3.1300    0.0200   -0.3080 C   0  0  0  0  0  0  0  0  0  0  0  0
    2.9730    0.9150   -1.1640 O   0  0  0  0  0  0  0  0  0  0  0  0
    4.4010   -0.3310    0.0630 O   0  0  0  0  0  0  0  0  0  0  0  0
    5.5250    0.2550   -0.4620 O   0  0  0  0  0  0  0  0  0  0  0  0
    5.7060    1.6330   -0.3250 C   0  0  0  0  0  0  0  0  0  0  0  0
    4.7950    2.2680    0.2910 O   0  0  0  0  0  0  0  0  0  0  0  0
    6.7970    2.3160   -0.8150 O   0  0  0  0  0  0  0  0  0  0  0  0
    0.7070   -0.1460   -0.2250 C   0  0  0  0  0  0  0  0  0  0  0  0
    0.7680    0.7980   -1.1220 O   0  0  0  0  0  0  0  0  0  0  0  0
   -0.6240   -0.5560    0.1240 C   0  0  0  0  0  0  0  0  0  0  0  0
   -1.6770    0.0430   -0.4830 C   0  0  0  0  0  0  0  0  0  0  0  0
   -3.0150   -0.2750   -0.2230 N   0  0  0  0  0  0  0  0  0  0  0  0
   -4.0440    0.3870   -0.8990 N   0  0  0  0  0  0  0  0  0  0  0  0
   -4.6240    1.6090   -0.4670 C   0  0  0  0  0  0  0  0  0  0  0  0
   -4.2070    2.1400    0.5720 O   0  0  0  0  0  0  0  0  0  0  0  0
   -5.6400    2.1950   -1.2020 O   0  0  0  0  0  0  0  0  0  0  0  0
   -3.3610   -1.2760    0.7330 C   0  0  0  0  0  0  0  0  0  0  0  0
   -2.2090   -1.9030    1.3700 C   0  0  0  0  0  0  0  0  0  0  0  0
   -0.9650   -1.5800    1.0970 C   0  0  0  0  0  0  0  0  0  0  0  0
  1  2  1  0
  2  3  1  0
  2 10  1  0
  3  4  2  0
  3  5  1  0
  5  6  1  0
  6  7  1  0
  7  8  2  0
  7  9  1  0
 10 11  2  0
 10 12  1  0
 12 13  2  0
 12 21  1  0
 13 14  1  0
 14 15  1  0
 14 19  1  0
 15 16  1  0
 16 17  2  0
 16 18  1  0
 19 20  1  0
 20 21  2  0
M  END
