
     RDKit          3D

 19 18  0  0  0  0  0  0  0  0999 V2000
   -3.3060    2.9400    0.5530 C   0  0  0  0  0  0  0  0  0  0  0  0
   -2.0030    2.4530    1.0800 C   0  0  0  0  0  0  0  0  0  0  0  0
   -1.8990    1.0190    1.1540 N   0  0  0  0  0  0  0  0  0  0  0  0
   -1.8590    0.3790   -0.1380 C   0  0  2  0  0  0  0  0  0  0  0  0
   -2.2900   -1.0610    0.0270 C   0  0  0  0  0  0  0  0  0  0  0  0
   -2.2740   -1.8010   -1.2970 C   0  0  0  0  0  0  0  0  0  0  0  0
   -2.7200   -3.1960   -1.0180 C   0  0  0  0  0  0  0  0  0  0  0  0
   -2.7620   -3.9940   -1.9860 O   0  0  0  0  0  0  0  0  0  0  0  0
   -3.0800   -3.6330    0.2300 O   0  0  0  0  0  0  0  0  0  0  0  0
   -0.4690    0.4820   -0.6750 C   0  0  0  0  0  0  0  0  0  0  0  0
    0.4890   -0.1310    0.1500 O   0  0  0  0  0  0  0  0  0  0  0  0
    1.7140    0.0640   -0.5030 C   0  0  0  0  0  0  0  0  0  0  0  0
    2.8770   -0.5240    0.2310 C   0  0  2  0  0  0  0  0  0  0  0  0
    3.0840    0.2090    1.9240 P   0  0  0  0  0  0  0  0  0  0  0  0
    3.7190    1.8230    1.7640 O   0  0  0  0  0  0  0  0  0  0  0  0
    4.2410   -0.7170    2.8160 O   0  0  0  0  0  0  0  0  0  0  0  0
    4.4060   -0.1070   -0.7730 P   0  0  0  0  0  0  0  0  0  0  0  0
    3.9490   -0.2360   -2.4480 O   0  0  0  0  0  0  0  0  0  0  0  0
    5.6510   -1.2680   -0.4820 O   0  0  0  0  0  0  0  0  0  0  0  0
  1  2  1  0
  2  3  1  0
  3  4  1  0
  4  5  1  1
  4 10  1  0
  5  6  1  0
  6  7  1  0
  7  8  2  0
  7  9  1  0
 10 11  1  0
 11 12  1  0
 13 12  1  6
 13 14  1  0
 13 17  1  0
 14 15  1  0
 14 16  1  0
 17 18  1  0
 17 19  1  0
M  END
