
     RDKit          3D

 21 23  0  0  0  0  0  0  0  0999 V2000
    5.9370   -0.9110   -0.2320 O   0  0  0  0  0  0  0  0  0  0  0  0
    4.8470   -0.2060   -0.4520 O   0  0  0  0  0  0  0  0  0  0  0  0
    4.6880    0.6170    0.5650 O   0  0  0  0  0  0  0  0  0  0  0  0
    3.8720    1.6720    0.1910 C   0  0  0  0  0  0  0  0  0  0  0  0
    2.5570    1.0620   -0.2180 C   0  0  0  0  0  0  0  0  0  0  0  0
    1.5600    0.8570    0.6400 N   0  0  0  0  0  0  0  0  0  0  0  0
    0.5380    0.3030   -0.0360 C   0  0  0  0  0  0  0  0  0  0  0  0
   -0.7430   -0.0610    0.6040 C   0  0  2  0  0  0  0  0  0  0  0  0
   -0.4480   -0.7020    1.8050 O   0  0  0  0  0  0  0  0  0  0  0  0
    0.2190   -1.8920    1.6400 C   0  0  0  0  0  0  0  0  0  0  0  0
    0.0040   -2.5970    0.3430 C   0  0  0  0  0  0  0  0  0  0  0  0
   -1.2070   -2.1940   -0.3080 N   0  0  0  0  0  0  0  0  0  0  0  0
   -1.5620   -0.9840   -0.1830 C   0  0  0  0  0  0  0  0  0  0  0  0
   -2.7960   -0.5010   -0.8270 C   0  0  1  0  0  0  0  0  0  0  0  0
   -3.7970    0.0410    0.1730 C   0  0  0  0  0  0  0  0  0  0  0  0
   -4.4710    0.9840   -0.6400 O   0  0  0  0  0  0  0  0  0  0  0  0
   -3.3600    1.6330   -1.1910 C   0  0  2  0  0  0  0  0  0  0  0  0
   -3.7240    2.5040   -2.2090 O   0  0  0  0  0  0  0  0  0  0  0  0
   -2.5500    0.6140   -1.6170 O   0  0  0  0  0  0  0  0  0  0  0  0
    0.9680    0.1940   -1.2980 N   0  0  0  0  0  0  0  0  0  0  0  0
    2.1740    0.6540   -1.3770 O   0  0  0  0  0  0  0  0  0  0  0  0
  1  2  1  0
  2  3  1  0
  3  4  1  0
  4  5  1  0
  5  6  2  0
  5 21  1  0
  6  7  1  0
  8  7  1  6
  7 20  2  0
  8  9  1  0
  8 13  1  0
  9 10  1  0
 10 11  1  0
 11 12  1  0
 12 13  2  0
 14 13  1  1
 14 15  1  0
 14 19  1  0
 15 16  1  0
 16 17  1  0
 17 18  1  6
 17 19  1  0
 20 21  1  0
M  END
