
     RDKit          3D

 21 22  0  0  0  0  0  0  0  0999 V2000
   -2.9310   -1.3250    1.4540 O   0  0  0  0  0  0  0  0  0  0  0  0
   -3.8560   -1.0560    0.6490 C   0  0  0  0  0  0  0  0  0  0  0  0
   -5.0650   -0.5190    1.1410 N   0  0  0  0  0  0  0  0  0  0  0  0
   -5.2860   -0.2710    2.4640 O   0  0  0  0  0  0  0  0  0  0  0  0
   -5.5660    1.0290    2.5620 O   0  0  0  0  0  0  0  0  0  0  0  0
   -3.6270   -1.3210   -0.7980 C   0  0  2  0  0  0  0  0  0  0  0  0
   -2.3470   -1.8830   -1.0230 O   0  0  0  0  0  0  0  0  0  0  0  0
   -1.4790   -0.7930   -1.1230 C   0  0  0  0  0  0  0  0  0  0  0  0
   -2.1680    0.3080   -1.3660 C   0  0  0  0  0  0  0  0  0  0  0  0
   -1.5100    1.5880   -1.5150 N   0  0  0  0  0  0  0  0  0  0  0  0
   -0.2370    1.7080   -1.4180 C   0  0  0  0  0  0  0  0  0  0  0  0
    0.5350    0.5500   -1.1580 N   0  0  0  0  0  0  0  0  0  0  0  0
    1.9600    0.7060   -1.0440 C   0  0  0  0  0  0  0  0  0  0  0  0
    2.5060    1.8390   -1.1620 O   0  0  0  0  0  0  0  0  0  0  0  0
    2.7990   -0.4150   -0.7940 N   0  0  0  0  0  0  0  0  0  0  0  0
    4.2340   -0.2960   -0.6710 C   0  0  0  0  0  0  0  0  0  0  0  0
    4.6350    0.6110    0.4780 C   0  0  0  0  0  0  0  0  0  0  0  0
    4.1250    0.0720    1.6830 O   0  0  0  0  0  0  0  0  0  0  0  0
    4.4520    0.8420    2.6950 O   0  0  0  0  0  0  0  0  0  0  0  0
   -0.0020   -0.7690   -0.9940 C   0  0  0  0  0  0  0  0  0  0  0  0
   -3.5010   -0.0680   -1.4280 O   0  0  0  0  0  0  0  0  0  0  0  0
  1  2  2  0
  2  3  1  0
  6  2  1  1
  3  4  1  0
  4  5  1  0
  6  7  1  0
  6 21  1  0
  7  8  1  0
  8  9  2  0
  8 20  1  0
  9 10  1  0
  9 21  1  0
 10 11  2  0
 11 12  1  0
 12 13  1  0
 12 20  1  0
 13 14  2  0
 13 15  1  0
 15 16  1  0
 16 17  1  0
 17 18  1  0
 18 19  1  0
M  END
