
     RDKit          3D

 19 18  0  0  0  0  0  0  0  0999 V2000
   -6.5020    1.2640    3.4200 O   0  0  0  0  0  0  0  0  0  0  0  0
   -6.4590   -0.1120    2.7140 P   0  0  0  0  0  0  0  0  0  0  0  0
   -5.0420   -0.5490    1.8380 O   0  0  0  0  0  0  0  0  0  0  0  0
   -5.1430   -0.1040    0.5090 C   0  0  0  0  0  0  0  0  0  0  0  0
   -3.9120   -0.4740   -0.2830 C   0  0  0  0  0  0  0  0  0  0  0  0
   -4.0860   -0.0040   -1.5740 O   0  0  0  0  0  0  0  0  0  0  0  0
   -2.7300   -0.3680   -2.5940 P   0  0  0  0  0  0  0  0  0  0  0  0
   -2.4410    1.0200   -3.5910 O   0  0  0  0  0  0  0  0  0  0  0  0
   -1.3040   -0.7940   -1.5270 C   0  0  0  0  0  0  0  0  0  0  0  0
   -0.4990    0.3750   -1.1830 N   0  0  0  0  0  0  0  0  0  0  0  0
    0.6370    0.1800   -0.3590 C   0  0  0  0  0  0  0  0  0  0  0  0
    0.9070   -1.0000    0.0450 O   0  0  0  0  0  0  0  0  0  0  0  0
    1.4830    1.1810    0.0440 O   0  0  0  0  0  0  0  0  0  0  0  0
    2.6090    1.0230    0.8540 C   0  0  0  0  0  0  0  0  0  0  0  0
    3.6470    0.1010    0.2770 C   0  0  0  0  0  0  0  0  0  0  0  0
    4.7960    0.0280    1.2550 C   0  0  0  0  0  0  0  0  0  0  0  0
    5.8780   -0.8540    0.7870 C   0  0  0  0  0  0  0  0  0  0  0  0
    6.8850   -0.9850    1.5290 O   0  0  0  0  0  0  0  0  0  0  0  0
    5.8600   -1.5480   -0.4140 O   0  0  0  0  0  0  0  0  0  0  0  0
  1  2  2  0
  2  3  1  0
  3  4  1  0
  4  5  1  0
  5  6  1  0
  6  7  1  0
  7  8  1  0
  7  9  1  0
  9 10  1  0
 10 11  1  0
 11 12  2  0
 11 13  1  0
 13 14  1  0
 14 15  1  0
 15 16  1  0
 16 17  1  0
 17 18  2  0
 17 19  1  0
M  END
