
     RDKit          3D

 21 22  0  0  0  0  0  0  0  0999 V2000
    4.7490    1.3680   -0.7670 C   0  0  0  0  0  0  0  0  0  0  0  0
    3.7350    0.3970   -0.5060 O   0  0  0  0  0  0  0  0  0  0  0  0
    2.9960    0.3810    0.6580 C   0  0  0  0  0  0  0  0  0  0  0  0
    3.2240    1.2600    1.5240 O   0  0  0  0  0  0  0  0  0  0  0  0
    1.9330   -0.6550    0.9040 C   0  0  1  0  0  0  0  0  0  0  0  0
    0.6770   -0.0650    1.4160 C   0  0  0  0  0  0  0  0  0  0  0  0
   -0.4060   -0.0130    0.4400 N   0  0  0  0  0  0  0  0  0  0  0  0
   -1.2500    1.0850    0.7380 C   0  0  0  0  0  0  0  0  0  0  0  0
   -2.2190    1.4890   -0.3260 C   0  0  0  0  0  0  0  0  0  0  0  0
   -2.9950    2.5970    0.1100 O   0  0  0  0  0  0  0  0  0  0  0  0
   -3.8410    2.9310   -0.8590 O   0  0  0  0  0  0  0  0  0  0  0  0
   -1.0400   -1.3040    0.4780 C   0  0  1  0  0  0  0  0  0  0  0  0
   -2.4630   -1.4190    0.4020 C   0  0  0  0  0  0  0  0  0  0  0  0
   -3.3160   -1.0640    1.2440 O   0  0  0  0  0  0  0  0  0  0  0  0
   -2.8000   -2.0410   -0.8470 N   0  0  0  0  0  0  0  0  0  0  0  0
   -1.5800   -2.3730   -1.5560 C   0  0  0  0  0  0  0  0  0  0  0  0
   -1.4370   -2.9250   -2.6750 O   0  0  0  0  0  0  0  0  0  0  0  0
   -0.4980   -1.9560   -0.7470 N   0  0  0  0  0  0  0  0  0  0  0  0
    0.8930   -2.0650   -0.9640 C   0  0  0  0  0  0  0  0  0  0  0  0
    1.1800   -2.7450   -1.9760 O   0  0  0  0  0  0  0  0  0  0  0  0
    1.8910   -1.5040   -0.1840 O   0  0  0  0  0  0  0  0  0  0  0  0
  1  2  1  0
  2  3  1  0
  3  4  2  0
  5  3  1  6
  5  6  1  0
  5 21  1  0
  6  7  1  0
  7  8  1  0
 12  7  1  6
  8  9  1  0
  9 10  1  0
 10 11  1  0
 12 13  1  0
 12 18  1  0
 13 14  2  0
 13 15  1  0
 15 16  1  0
 16 17  2  0
 16 18  1  0
 18 19  1  0
 19 20  2  0
 19 21  1  0
M  END
