
     RDKit          3D

 21 21  0  0  0  0  0  0  0  0999 V2000
   -4.7820    1.9440   -0.8050 N   0  0  0  0  0  0  0  0  0  0  0  0
   -4.7010    1.9490    0.6370 C   0  0  0  0  0  0  0  0  0  0  0  0
   -3.5730    1.0850    1.0480 C   0  0  0  0  0  0  0  0  0  0  0  0
   -3.2700    0.9150    2.2280 O   0  0  0  0  0  0  0  0  0  0  0  0
   -2.7740    0.3960    0.0360 C   0  0  0  0  0  0  0  0  0  0  0  0
   -1.7060   -0.4110    0.6180 N   0  0  0  0  0  0  0  0  0  0  0  0
   -0.8070   -1.1650   -0.1620 C   0  0  0  0  0  0  0  0  0  0  0  0
   -0.9430   -1.1330   -1.4110 O   0  0  0  0  0  0  0  0  0  0  0  0
    0.2130   -1.9380    0.3470 O   0  0  0  0  0  0  0  0  0  0  0  0
    1.1010   -2.6830   -0.4070 C   0  0  0  0  0  0  0  0  0  0  0  0
    1.0170   -3.9600   -0.8130 N   0  0  0  0  0  0  0  0  0  0  0  0
    2.0690   -4.2830   -1.5070 O   0  0  0  0  0  0  0  0  0  0  0  0
    2.9080   -3.2740   -1.6120 C   0  0  0  0  0  0  0  0  0  0  0  0
    2.3010   -2.2270   -0.9060 C   0  0  0  0  0  0  0  0  0  0  0  0
    2.8190   -0.9600   -0.7430 O   0  0  0  0  0  0  0  0  0  0  0  0
    3.6220   -0.5630    0.3120 C   0  0  0  0  0  0  0  0  0  0  0  0
    3.9010   -1.4200    1.1880 O   0  0  0  0  0  0  0  0  0  0  0  0
    4.1070    0.8270    0.3600 C   0  0  0  0  0  0  0  0  0  0  0  0
    2.9600    1.9730    1.2400 P   0  0  0  0  0  0  0  0  0  0  0  0
    2.0880    1.2100    2.5090 O   0  0  0  0  0  0  0  0  0  0  0  0
    1.8990    2.7930    0.1330 O   0  0  0  0  0  0  0  0  0  0  0  0
  1  2  1  0
  2  3  1  0
  3  4  2  0
  3  5  1  0
  5  6  1  0
  6  7  1  0
  7  8  2  0
  7  9  1  0
  9 10  1  0
 10 11  2  0
 10 14  1  0
 11 12  1  0
 12 13  1  0
 13 14  2  0
 14 15  1  0
 15 16  1  0
 16 17  2  0
 16 18  1  0
 18 19  1  0
 19 20  1  0
 19 21  1  0
M  END
