
     RDKit          3D

 38 40  0  0  0  0  0  0  0  0999 V2000
   -0.6270    2.6720    0.6980 C   0  0  0  0  0  0  0  0  0  0  0  0
   -0.3320    2.1440   -0.6810 C   0  0  2  0  0  0  0  0  0  0  0  0
   -0.0750    3.2720   -1.4980 O   0  0  0  0  0  0  0  0  0  0  0  0
   -1.5370    1.3650   -1.1780 C   0  0  0  0  0  0  0  0  0  0  0  0
   -2.6720    1.7830   -0.5050 O   0  0  0  0  0  0  0  0  0  0  0  0
   -3.8800    1.2420   -0.2300 C   0  0  0  0  0  0  0  0  0  0  0  0
   -5.1220    1.9860   -0.7250 C   0  0  2  0  0  0  0  0  0  0  0  0
   -5.2240    2.0080   -2.0970 O   0  0  0  0  0  0  0  0  0  0  0  0
   -4.8990    3.4370   -0.2740 C   0  0  0  0  0  0  0  0  0  0  0  0
   -3.7420    3.9530   -0.8300 O   0  0  0  0  0  0  0  0  0  0  0  0
   -4.0650    0.1110    0.4440 C   0  0  0  0  0  0  0  0  0  0  0  0
   -5.4260   -0.2620    0.6070 O   0  0  0  0  0  0  0  0  0  0  0  0
   -3.0920   -0.7910    1.0330 C   0  0  2  0  0  0  0  0  0  0  0  0
   -1.8630   -0.2350    1.3460 O   0  0  0  0  0  0  0  0  0  0  0  0
   -2.8540   -2.0690    0.2520 C   0  0  2  0  0  0  0  0  0  0  0  0
   -4.0610   -2.8890    0.1370 C   0  0  0  0  0  0  0  0  0  0  0  0
   -4.4720   -3.2330   -0.9980 O   0  0  0  0  0  0  0  0  0  0  0  0
   -4.8420   -3.3500    1.2410 N   0  0  0  0  0  0  0  0  0  0  0  0
   -5.9850   -4.1330    1.0400 N   0  0  0  0  0  0  0  0  0  0  0  0
   -1.6340   -2.7850    0.7380 C   0  0  1  0  0  0  0  0  0  0  0  0
   -1.8210   -4.1510    1.1100 N   0  0  0  0  0  0  0  0  0  0  0  0
   -0.4710   -2.6820   -0.2350 C   0  0  0  0  0  0  0  0  0  0  0  0
    0.7510   -2.0610    0.3680 C   0  0  1  0  0  0  0  0  0  0  0  0
    1.8070   -2.9180    0.5490 O   0  0  0  0  0  0  0  0  0  0  0  0
    2.7950   -2.6400   -0.3610 C   0  0  0  0  0  0  0  0  0  0  0  0
    2.6970   -1.1690   -0.7020 C   0  0  2  0  0  0  0  0  0  0  0  0
    3.4900   -0.3750    0.0860 O   0  0  0  0  0  0  0  0  0  0  0  0
    4.3800    0.3270   -0.7210 C   0  0  0  0  0  0  0  0  0  0  0  0
    5.2360    1.1880    0.1860 C   0  0  2  0  0  0  0  0  0  0  0  0
    4.4750    2.0830    0.9150 O   0  0  0  0  0  0  0  0  0  0  0  0
    6.2440    1.9660   -0.6360 C   0  0  1  0  0  0  0  0  0  0  0  0
    7.0490    2.6890    0.2070 O   0  0  0  0  0  0  0  0  0  0  0  0
    8.2700    2.0250    0.2940 C   0  0  0  0  0  0  0  0  0  0  0  0
    8.1520    0.8210   -0.5880 C   0  0  0  0  0  0  0  0  0  0  0  0
    7.0580    1.1300   -1.3900 O   0  0  0  0  0  0  0  0  0  0  0  0
    1.2270   -0.9050   -0.4830 C   0  0  2  0  0  0  0  0  0  0  0  0
    0.9510    0.2800    0.1540 O   0  0  0  0  0  0  0  0  0  0  0  0
    0.9300    1.3200   -0.7450 C   0  0  0  0  0  0  0  0  0  0  0  0
  2  1  1  1
  2  3  1  0
  2  4  1  0
  2 38  1  0
  4  5  1  0
  5  6  1  0
  6  7  1  0
  6 11  2  0
  7  8  1  6
  7  9  1  0
  9 10  1  0
 11 12  1  0
 11 13  1  0
 13 14  1  6
 13 15  1  0
 15 16  1  1
 15 20  1  0
 16 17  2  0
 16 18  1  0
 18 19  1  0
 20 21  1  6
 20 22  1  0
 23 22  1  6
 23 24  1  0
 23 36  1  0
 24 25  1  0
 25 26  1  0
 26 27  1  1
 26 36  1  0
 27 28  1  0
 28 29  1  0
 29 30  1  6
 29 31  1  0
 31 32  1  1
 31 35  1  0
 32 33  1  0
 33 34  1  0
 34 35  1  0
 36 37  1  1
 37 38  1  0
M  CHG  1  21   1
M  END
