
     RDKit          3D

 39 40  0  0  0  0  0  0  0  0999 V2000
    6.9930   -0.8390   -1.5620 C   0  0  0  0  0  0  0  0  0  0  0  0
    5.7050   -0.9150   -0.7830 C   0  0  2  0  0  0  0  0  0  0  0  0
    4.7070   -0.3300   -1.5560 O   0  0  0  0  0  0  0  0  0  0  0  0
    5.8750   -0.2110    0.5380 C   0  0  0  0  0  0  0  0  0  0  0  0
    4.6730   -0.2250    1.3510 N   0  0  0  0  0  0  0  0  0  0  0  0
    3.7520    0.8600    1.2240 C   0  0  0  0  0  0  0  0  0  0  0  0
    2.6070    0.6660    0.2960 C   0  0  0  0  0  0  0  0  0  0  0  0
    1.3960    1.1020    0.8880 O   0  0  0  0  0  0  0  0  0  0  0  0
    0.5740    1.7230   -0.0530 C   0  0  2  0  0  0  0  0  0  0  0  0
    0.9840    3.1730   -0.1170 C   0  0  0  0  0  0  0  0  0  0  0  0
    0.0580    3.8400   -0.8850 O   0  0  0  0  0  0  0  0  0  0  0  0
   -1.0800    4.0320   -0.1130 C   0  0  2  0  0  0  0  0  0  0  0  0
   -2.0840    4.5940   -1.0240 N   0  0  0  0  0  0  0  0  0  0  0  0
   -0.8270    5.1250    0.9340 C   0  0  0  0  0  0  0  0  0  0  0  0
   -0.3580    6.2780    0.3380 O   0  0  0  0  0  0  0  0  0  0  0  0
   -1.6300    2.8050    0.5090 C   0  0  0  0  0  0  0  0  0  0  0  0
   -0.8700    1.5440    0.2440 C   0  0  1  0  0  0  0  0  0  0  0  0
   -1.5580    0.8600   -0.7770 O   0  0  0  0  0  0  0  0  0  0  0  0
   -1.8490   -0.4410   -0.4350 C   0  0  1  0  0  0  0  0  0  0  0  0
   -3.1120   -0.8620   -0.7900 O   0  0  0  0  0  0  0  0  0  0  0  0
   -3.8980   -1.2090    0.2920 C   0  0  0  0  0  0  0  0  0  0  0  0
   -5.2680   -1.6660   -0.1360 C   0  0  1  0  0  0  0  0  0  0  0  0
   -5.1010   -2.7770   -0.9590 O   0  0  0  0  0  0  0  0  0  0  0  0
   -6.0950   -2.1130    1.0630 C   0  0  0  0  0  0  0  0  0  0  0  0
   -5.3990   -3.1410    1.7390 O   0  0  0  0  0  0  0  0  0  0  0  0
   -6.0310   -0.5810   -0.8590 C   0  0  0  0  0  0  0  0  0  0  0  0
   -7.2780   -1.0930   -1.2130 O   0  0  0  0  0  0  0  0  0  0  0  0
   -0.8430   -1.4400   -0.9590 C   0  0  2  0  0  0  0  0  0  0  0  0
   -1.3190   -2.0480   -2.2420 C   0  0  0  0  0  0  0  0  0  0  0  0
   -1.5690   -1.2330   -3.3790 N   0  0  0  0  0  0  0  0  0  0  0  0
   -1.5080   -3.2800   -2.3440 O   0  0  0  0  0  0  0  0  0  0  0  0
   -0.6840   -2.4530   -0.0290 O   0  0  0  0  0  0  0  0  0  0  0  0
    0.6100   -2.9180    0.0540 C   0  0  0  0  0  0  0  0  0  0  0  0
    1.1550   -2.5410    1.4280 C   0  0  1  0  0  0  0  0  0  0  0  0
    0.5130   -3.3730    2.3510 O   0  0  0  0  0  0  0  0  0  0  0  0
    2.6540   -2.8090    1.4570 C   0  0  0  0  0  0  0  0  0  0  0  0
    3.3320   -2.0420    2.4020 O   0  0  0  0  0  0  0  0  0  0  0  0
    4.5210   -1.3380    2.2320 C   0  0  0  0  0  0  0  0  0  0  0  0
    5.5700   -1.6940    2.9030 O   0  0  0  0  0  0  0  0  0  0  0  0
  2  1  1  6
  2  3  1  0
  2  4  1  0
  4  5  1  0
  5  6  1  0
  5 38  1  0
  6  7  1  0
  7  8  1  0
  8  9  1  0
  9 10  1  1
  9 17  1  0
 10 11  1  0
 11 12  1  0
 12 13  1  6
 12 14  1  0
 12 16  1  0
 14 15  1  0
 17 16  1  6
 17 18  1  0
 18 19  1  0
 19 20  1  6
 19 28  1  0
 20 21  1  0
 21 22  1  0
 22 23  1  6
 22 24  1  0
 22 26  1  0
 24 25  1  0
 26 27  1  0
 28 29  1  6
 28 32  1  0
 29 30  1  0
 29 31  2  0
 32 33  1  0
 33 34  1  0
 34 35  1  1
 34 36  1  0
 36 37  1  0
 37 38  1  0
 38 39  2  0
M  CHG  1  13   1
M  END
