
     RDKit          3D

 38 39  0  0  0  0  0  0  0  0999 V2000
   -0.9600   -5.5410   -0.5070 N   0  0  0  0  0  0  0  0  0  0  0  0
   -2.0520   -4.7500   -0.9770 C   0  0  0  0  0  0  0  0  0  0  0  0
   -1.7560   -3.2550   -0.9570 C   0  0  1  0  0  0  0  0  0  0  0  0
   -2.9760   -2.5610   -1.4690 C   0  0  0  0  0  0  0  0  0  0  0  0
   -3.7710   -1.7890   -0.5050 C   0  0  1  0  0  0  0  0  0  0  0  0
   -4.9580   -2.4820   -0.1550 O   0  0  0  0  0  0  0  0  0  0  0  0
   -3.1650   -1.4340    0.6680 O   0  0  0  0  0  0  0  0  0  0  0  0
   -4.2860   -0.4800   -1.1320 C   0  0  0  0  0  0  0  0  0  0  0  0
   -4.4480    0.5740   -0.1020 C   0  0  0  0  0  0  0  0  0  0  0  0
   -3.2880    1.5740   -0.0360 C   0  0  1  0  0  0  0  0  0  0  0  0
   -3.7540    2.6310    0.9540 C   0  0  2  0  0  0  0  0  0  0  0  0
   -5.0350    3.0850    0.6460 O   0  0  0  0  0  0  0  0  0  0  0  0
   -2.8750    3.8530    0.9830 C   0  0  0  0  0  0  0  0  0  0  0  0
   -2.7810    4.5820   -0.2820 C   0  0  0  0  0  0  0  0  0  0  0  0
   -1.9840    5.5650   -0.3030 O   0  0  0  0  0  0  0  0  0  0  0  0
   -3.4550    4.3270   -1.4470 O   0  0  0  0  0  0  0  0  0  0  0  0
   -2.0850    1.0430    0.1540 O   0  0  0  0  0  0  0  0  0  0  0  0
   -0.7890    1.0480    0.2550 C   0  0  0  0  0  0  0  0  0  0  0  0
   -0.0070    1.6280    1.0940 O   0  0  0  0  0  0  0  0  0  0  0  0
    0.0250    0.2560   -0.7510 C   0  0  1  0  0  0  0  0  0  0  0  0
   -0.6560    0.1290   -1.9450 O   0  0  0  0  0  0  0  0  0  0  0  0
    1.2310    1.0960   -1.1270 C   0  0  1  0  0  0  0  0  0  0  0  0
    0.7460    2.3580   -1.8210 C   0  0  0  0  0  0  0  0  0  0  0  0
    0.0550    3.2110   -1.0040 O   0  0  0  0  0  0  0  0  0  0  0  0
    2.0720    1.3610   -0.0830 O   0  0  0  0  0  0  0  0  0  0  0  0
    3.3400    0.9080   -0.3680 C   0  0  0  0  0  0  0  0  0  0  0  0
    4.3090    1.1790    0.7850 C   0  0  1  0  0  0  0  0  0  0  0  0
    3.8320    0.5180    1.9000 O   0  0  0  0  0  0  0  0  0  0  0  0
    4.5050   -0.7120    2.0010 C   0  0  0  0  0  0  0  0  0  0  0  0
    5.9380   -0.3740    2.4330 C   0  0  0  0  0  0  0  0  0  0  0  0
    6.3840    0.7610    1.5380 C   0  0  1  0  0  0  0  0  0  0  0  0
    7.8420    0.7240    1.2190 C   0  0  0  0  0  0  0  0  0  0  0  0
    8.2510   -0.3970    0.5350 O   0  0  0  0  0  0  0  0  0  0  0  0
    5.5650    0.7230    0.4050 O   0  0  0  0  0  0  0  0  0  0  0  0
    0.4400   -1.0270   -0.1280 C   0  0  0  0  0  0  0  0  0  0  0  0
   -0.5050   -1.6990    0.7010 N   0  0  0  0  0  0  0  0  0  0  0  0
   -1.3150   -2.8120    0.3860 C   0  0  0  0  0  0  0  0  0  0  0  0
   -1.7330   -3.5370    1.3270 O   0  0  0  0  0  0  0  0  0  0  0  0
  1  2  1  0
  3  2  1  1
  3  4  1  0
  3 37  1  0
  4  5  1  0
  5  6  1  1
  5  7  1  0
  5  8  1  0
  8  9  1  0
 10  9  1  1
 10 11  1  0
 10 17  1  0
 11 12  1  6
 11 13  1  0
 13 14  1  0
 14 15  2  0
 14 16  1  0
 17 18  1  0
 18 19  2  0
 18 20  1  0
 20 21  1  6
 20 22  1  0
 20 35  1  0
 22 23  1  1
 22 25  1  0
 23 24  1  0
 25 26  1  0
 27 26  1  6
 27 28  1  0
 27 34  1  0
 28 29  1  0
 29 30  1  0
 30 31  1  0
 31 32  1  6
 31 34  1  0
 32 33  1  0
 35 36  1  0
 36 37  1  0
 37 38  2  0
M  CHG  1   1   1
M  END
