
     RDKit          3D

 38 39  0  0  0  0  0  0  0  0999 V2000
    8.1150    1.6920    1.4720 C   0  0  0  0  0  0  0  0  0  0  0  0
    8.0630    0.4110    0.6460 C   0  0  1  0  0  0  0  0  0  0  0  0
    6.7420   -0.2060    0.9320 C   0  0  0  0  0  0  0  0  0  0  0  0
    6.6680   -1.3210    1.5100 O   0  0  0  0  0  0  0  0  0  0  0  0
    5.5340    0.4450    0.5630 N   0  0  0  0  0  0  0  0  0  0  0  0
    4.2810   -0.1390    0.8370 N   0  0  0  0  0  0  0  0  0  0  0  0
    3.0700    0.4080    0.3460 C   0  0  0  0  0  0  0  0  0  0  0  0
    3.1470    1.4580   -0.3620 O   0  0  0  0  0  0  0  0  0  0  0  0
    1.8330   -0.1540    0.6080 O   0  0  0  0  0  0  0  0  0  0  0  0
    0.6900    0.4800    0.0660 C   0  0  0  0  0  0  0  0  0  0  0  0
   -0.4990   -0.3700    0.5330 C   0  0  0  0  0  0  0  0  0  0  0  0
   -1.7610    0.1620    0.0500 N   0  0  0  0  0  0  0  0  0  0  0  0
   -2.2060   -0.6800   -1.0630 C   0  0  2  0  0  0  0  0  0  0  0  0
   -3.1620   -0.0110   -1.9760 C   0  0  1  0  0  0  0  0  0  0  0  0
   -3.9920   -0.9630   -2.5930 O   0  0  0  0  0  0  0  0  0  0  0  0
   -4.0700    1.0270   -1.3150 C   0  0  0  0  0  0  0  0  0  0  0  0
   -5.1840    0.2700   -0.7280 C   0  0  0  0  0  0  0  0  0  0  0  0
   -6.4260    1.0080   -0.3300 C   0  0  2  0  0  0  0  0  0  0  0  0
   -7.2420    1.2370   -1.4500 O   0  0  0  0  0  0  0  0  0  0  0  0
   -6.1630    2.3040    0.3530 C   0  0  0  0  0  0  0  0  0  0  0  0
   -7.4330    3.0250    0.7270 C   0  0  0  0  0  0  0  0  0  0  0  0
   -7.1480    4.2390    1.3620 O   0  0  0  0  0  0  0  0  0  0  0  0
   -7.1610    0.0450    0.5960 C   0  0  0  0  0  0  0  0  0  0  0  0
   -6.3330   -1.0440    0.9680 O   0  0  0  0  0  0  0  0  0  0  0  0
   -6.8270   -2.2650    0.6460 C   0  0  0  0  0  0  0  0  0  0  0  0
   -5.9380   -3.1820   -0.1340 C   0  0  1  0  0  0  0  0  0  0  0  0
   -6.2290   -3.1270   -1.5110 O   0  0  0  0  0  0  0  0  0  0  0  0
   -4.4810   -3.0980    0.1680 C   0  0  0  0  0  0  0  0  0  0  0  0
   -3.8100   -2.5110   -0.9250 O   0  0  0  0  0  0  0  0  0  0  0  0
   -2.5570   -2.0600   -0.6150 C   0  0  2  0  0  0  0  0  0  0  0  0
   -2.4250   -2.1990    0.7890 O   0  0  0  0  0  0  0  0  0  0  0  0
    8.1310    0.7310   -0.8160 C   0  0  0  0  0  0  0  0  0  0  0  0
    9.5140    0.8600   -1.3680 C   0  0  1  0  0  0  0  0  0  0  0  0
   10.0970    2.0920   -1.0400 O   0  0  0  0  0  0  0  0  0  0  0  0
   10.3830   -0.2480   -0.8140 C   0  0  2  0  0  0  0  0  0  0  0  0
    9.8420   -1.4820   -1.1650 O   0  0  0  0  0  0  0  0  0  0  0  0
   10.3220   -0.1270    0.6990 C   0  0  0  0  0  0  0  0  0  0  0  0
    9.0460   -0.4390    1.0960 O   0  0  0  0  0  0  0  0  0  0  0  0
  2  1  1  1
  2  3  1  0
  2 32  1  0
  2 38  1  0
  3  4  2  0
  3  5  1  0
  5  6  1  0
  6  7  1  0
  7  8  2  0
  7  9  1  0
  9 10  1  0
 10 11  1  0
 11 12  1  0
 13 12  1  1
 13 14  1  0
 13 30  1  0
 14 15  1  1
 14 16  1  0
 16 17  1  0
 17 18  1  0
 18 19  1  6
 18 20  1  0
 18 23  1  0
 20 21  1  0
 21 22  1  0
 23 24  1  0
 24 25  1  0
 25 26  1  0
 26 27  1  6
 26 28  1  0
 28 29  1  0
 29 30  1  0
 30 31  1  1
 32 33  1  0
 33 34  1  1
 33 35  1  0
 35 36  1  1
 35 37  1  0
 37 38  1  0
M  CHG  1  12   1
M  END
