
     RDKit          3D

 39 41  0  0  0  0  0  0  0  0999 V2000
   -2.8330   -5.4960   -2.2340 C   0  0  0  0  0  0  0  0  0  0  0  0
   -3.1010   -4.5740   -1.1700 O   0  0  0  0  0  0  0  0  0  0  0  0
   -2.2070   -3.6070   -0.8010 C   0  0  0  0  0  0  0  0  0  0  0  0
   -1.1170   -3.5900   -1.4800 O   0  0  0  0  0  0  0  0  0  0  0  0
   -2.3440   -2.6090    0.2550 C   0  0  1  0  0  0  0  0  0  0  0  0
   -2.6050   -3.1410    1.6270 C   0  0  0  0  0  0  0  0  0  0  0  0
   -3.8530   -3.9120    1.7540 C   0  0  0  0  0  0  0  0  0  0  0  0
   -4.0810   -4.5070    2.8360 O   0  0  0  0  0  0  0  0  0  0  0  0
   -4.7410   -3.9740    0.7150 O   0  0  0  0  0  0  0  0  0  0  0  0
   -1.1460   -1.7380    0.3150 N   0  0  0  0  0  0  0  0  0  0  0  0
   -1.2320   -0.3490    0.1290 C   0  0  0  0  0  0  0  0  0  0  0  0
   -2.4630    0.0580   -0.1040 O   0  0  0  0  0  0  0  0  0  0  0  0
   -0.2150    0.6510    0.1590 C   0  0  0  0  0  0  0  0  0  0  0  0
   -0.5090    1.9450   -0.0910 C   0  0  0  0  0  0  0  0  0  0  0  0
   -1.7840    2.4740   -0.4000 C   0  0  0  0  0  0  0  0  0  0  0  0
   -1.9060    3.7920   -0.6180 C   0  0  0  0  0  0  0  0  0  0  0  0
   -3.1840    4.3720   -0.9350 C   0  0  0  0  0  0  0  0  0  0  0  0
   -3.2390    5.7040   -1.1430 C   0  0  0  0  0  0  0  0  0  0  0  0
   -4.4960    6.3590   -1.4670 C   0  0  1  0  0  0  0  0  0  0  0  0
   -4.3370    7.0370   -2.7030 O   0  0  0  0  0  0  0  0  0  0  0  0
   -5.6200    5.5420   -1.5420 O   0  0  0  0  0  0  0  0  0  0  0  0
   -5.5530    4.1950   -1.3300 C   0  0  0  0  0  0  0  0  0  0  0  0
   -4.4030    3.6180   -1.0390 C   0  0  0  0  0  0  0  0  0  0  0  0
    1.1910    0.4610    0.4380 C   0  0  0  0  0  0  0  0  0  0  0  0
    1.9570    1.5030    0.3580 O   0  0  0  0  0  0  0  0  0  0  0  0
    1.8150   -0.7080    0.7880 N   0  0  0  0  0  0  0  0  0  0  0  0
    3.2490   -0.7260    1.0220 C   0  0  0  0  0  0  0  0  0  0  0  0
    4.0310   -1.5150    0.3180 C   0  0  0  0  0  0  0  0  0  0  0  0
    5.4960   -1.5950    0.4940 C   0  0  1  0  0  0  0  0  0  0  0  0
    6.1210   -1.2010   -0.7850 N   0  0  0  0  0  0  0  0  0  0  0  0
    6.9000   -2.0830   -1.5430 C   0  0  0  0  0  0  0  0  0  0  0  0
    7.5230   -1.7690   -2.7770 N   0  0  0  0  0  0  0  0  0  0  0  0
    7.0570   -3.2660   -1.0780 O   0  0  0  0  0  0  0  0  0  0  0  0
    5.9670   -0.7190    1.4580 O   0  0  0  0  0  0  0  0  0  0  0  0
    5.1680    0.1080    2.2030 C   0  0  0  0  0  0  0  0  0  0  0  0
    3.8640    0.1200    2.0090 C   0  0  0  0  0  0  0  0  0  0  0  0
    3.2830    1.0540    2.8990 O   0  0  0  0  0  0  0  0  0  0  0  0
    4.3400    1.9420    3.2820 C   0  0  0  0  0  0  0  0  0  0  0  0
    5.4320    1.0430    3.2300 O   0  0  0  0  0  0  0  0  0  0  0  0
  1  2  1  0
  2  3  1  0
  3  4  2  0
  3  5  1  0
  5  6  1  1
  5 10  1  0
  6  7  1  0
  7  8  2  0
  7  9  1  0
 10 11  1  0
 11 12  2  0
 11 13  1  0
 13 14  2  3
 13 24  1  0
 14 15  1  0
 15 16  2  3
 16 17  1  0
 17 18  2  0
 17 23  1  0
 18 19  1  0
 19 20  1  6
 19 21  1  0
 21 22  1  0
 22 23  2  0
 24 25  2  0
 24 26  1  0
 26 27  1  0
 27 28  2  0
 27 36  1  0
 28 29  1  0
 29 30  1  6
 29 34  1  0
 30 31  1  0
 31 32  1  0
 31 33  2  0
 34 35  1  0
 35 36  2  0
 35 39  1  0
 36 37  1  0
 37 38  1  0
 38 39  1  0
M  END
