
     RDKit          3D

 39 41  0  0  0  0  0  0  0  0999 V2000
    8.0940   -2.6610    1.7850 C   0  0  0  0  0  0  0  0  0  0  0  0
    8.8000   -2.1960    0.7530 C   0  0  0  0  0  0  0  0  0  0  0  0
    8.7120   -0.7770    0.4430 C   0  0  0  0  0  0  0  0  0  0  0  0
    9.4350   -0.3500   -0.6070 C   0  0  0  0  0  0  0  0  0  0  0  0
   10.2760   -1.2490   -1.4120 C   0  0  1  0  0  0  0  0  0  0  0  0
    9.4780   -2.1000   -2.1720 F   0  0  0  0  0  0  0  0  0  0  0  0
   11.0160   -0.5150   -2.3100 F   0  0  0  0  0  0  0  0  0  0  0  0
    7.8880    0.1620    1.2380 C   0  0  2  0  0  0  0  0  0  0  0  0
    8.3190    0.2890    2.6680 C   0  0  0  0  0  0  0  0  0  0  0  0
    6.5060   -0.1200    1.1130 O   0  0  0  0  0  0  0  0  0  0  0  0
    5.5950    0.7210    0.5280 C   0  0  0  0  0  0  0  0  0  0  0  0
    6.0070    1.8060    0.0740 O   0  0  0  0  0  0  0  0  0  0  0  0
    4.1520    0.3930    0.4150 C   0  0  0  0  0  0  0  0  0  0  0  0
    3.4380    1.4990   -0.2820 C   0  0  0  0  0  0  0  0  0  0  0  0
    2.0000    1.3060   -0.4580 C   0  0  0  0  0  0  0  0  0  0  0  0
    1.2000    0.8060   -2.0000 S   0  0  0  0  0  0  0  0  0  0  0  0
   -0.4140    0.7970   -1.3980 C   0  0  0  0  0  0  0  0  0  0  0  0
   -1.6170    0.5040   -2.0080 N   0  0  0  0  0  0  0  0  0  0  0  0
   -2.7770    0.5680   -1.3150 C   0  0  0  0  0  0  0  0  0  0  0  0
   -3.9510    0.2430   -2.0370 N   0  0  0  0  0  0  0  0  0  0  0  0
   -5.2690    0.2350   -1.5450 C   0  0  0  0  0  0  0  0  0  0  0  0
   -5.4890    0.5450   -0.3510 O   0  0  0  0  0  0  0  0  0  0  0  0
   -6.4110   -0.1330   -2.4090 C   0  0  0  0  0  0  0  0  0  0  0  0
   -6.1970   -0.4420   -3.5820 O   0  0  0  0  0  0  0  0  0  0  0  0
   -7.7980   -0.1360   -1.8900 C   0  0  2  0  0  0  0  0  0  0  0  0
   -8.1790    1.2420   -1.4240 C   0  0  0  0  0  0  0  0  0  0  0  0
   -7.7920   -1.2940   -0.4660 S   0  0  0  0  0  0  0  0  0  0  0  0
   -9.4310   -1.3790    0.2210 C   0  0  0  0  0  0  0  0  0  0  0  0
  -10.4770   -0.7280   -0.2500 C   0  0  0  0  0  0  0  0  0  0  0  0
  -11.6590   -1.0490    0.5790 C   0  0  0  0  0  0  0  0  0  0  0  0
  -11.1330   -1.9910    1.6060 C   0  0  0  0  0  0  0  0  0  0  0  0
   -9.8400   -2.1600    1.3690 C   0  0  0  0  0  0  0  0  0  0  0  0
   -9.0180   -2.9550    2.1040 F   0  0  0  0  0  0  0  0  0  0  0  0
   -2.6680    0.9190   -0.0540 N   0  0  0  0  0  0  0  0  0  0  0  0
   -1.5350    1.2160    0.5970 C   0  0  0  0  0  0  0  0  0  0  0  0
   -1.5760    1.5420    1.8230 O   0  0  0  0  0  0  0  0  0  0  0  0
   -0.3040    1.1570   -0.1040 C   0  0  0  0  0  0  0  0  0  0  0  0
    0.9430    1.4180    0.3710 C   0  0  0  0  0  0  0  0  0  0  0  0
    1.2040    1.8400    1.8180 C   0  0  0  0  0  0  0  0  0  0  0  0
  1  2  2  0
  2  3  1  0
  3  4  2  3
  3  8  1  0
  4  5  1  0
  5  6  1  6
  5  7  1  0
  8  9  1  1
  8 10  1  0
 10 11  1  0
 11 12  2  0
 11 13  1  0
 13 14  1  0
 14 15  1  0
 15 16  1  0
 15 38  2  0
 16 17  1  0
 17 18  1  0
 17 37  2  0
 18 19  2  0
 19 20  1  0
 19 34  1  0
 20 21  1  0
 21 22  2  0
 21 23  1  0
 23 24  2  0
 23 25  1  0
 25 26  1  1
 25 27  1  0
 27 28  1  0
 28 29  2  0
 28 32  1  0
 29 30  1  0
 30 31  1  0
 31 32  2  0
 32 33  1  0
 34 35  1  0
 35 36  2  0
 35 37  1  0
 37 38  1  0
 38 39  1  0
M  END
