
     RDKit          3D

 39 41  0  0  0  0  0  0  0  0999 V2000
   -6.3570   -1.4780    1.7310 C   0  0  0  0  0  0  0  0  0  0  0  0
   -6.1030   -2.6380    0.8470 C   0  0  0  0  0  0  0  0  0  0  0  0
   -6.8780   -3.7850    1.0190 C   0  0  0  0  0  0  0  0  0  0  0  0
   -6.6680   -4.8650    0.2230 C   0  0  0  0  0  0  0  0  0  0  0  0
   -5.6960   -4.8200   -0.7430 C   0  0  0  0  0  0  0  0  0  0  0  0
   -4.9250   -3.6720   -0.9110 C   0  0  0  0  0  0  0  0  0  0  0  0
   -3.8940   -3.7080   -1.9800 C   0  0  0  0  0  0  0  0  0  0  0  0
   -5.1220   -2.5660   -0.1140 C   0  0  0  0  0  0  0  0  0  0  0  0
   -4.3580   -1.4420   -0.2880 O   0  0  0  0  0  0  0  0  0  0  0  0
   -3.1370   -1.1510    0.3450 C   0  0  0  0  0  0  0  0  0  0  0  0
   -2.6950    0.1890   -0.1740 C   0  0  0  0  0  0  0  0  0  0  0  0
   -3.3670    0.8390   -1.0150 O   0  0  0  0  0  0  0  0  0  0  0  0
   -1.4720    0.8020    0.2660 N   0  0  0  0  0  0  0  0  0  0  0  0
   -1.0710    2.0940   -0.2510 C   0  0  1  0  0  0  0  0  0  0  0  0
   -1.0000    3.0750    0.8570 C   0  0  0  0  0  0  0  0  0  0  0  0
   -0.6650    4.4520    0.4930 C   0  0  0  0  0  0  0  0  0  0  0  0
    0.5880    4.9730    0.4630 C   0  0  0  0  0  0  0  0  0  0  0  0
    0.8020    6.2830    0.1060 C   0  0  0  0  0  0  0  0  0  0  0  0
   -0.2870    7.0590   -0.2220 C   0  0  0  0  0  0  0  0  0  0  0  0
   -1.5760    6.5790   -0.2070 C   0  0  0  0  0  0  0  0  0  0  0  0
   -1.7570    5.2680    0.1530 C   0  0  0  0  0  0  0  0  0  0  0  0
    0.1490    1.9680   -1.1280 C   0  0  1  0  0  0  0  0  0  0  0  0
    0.5690    3.2090   -1.6080 O   0  0  0  0  0  0  0  0  0  0  0  0
    1.1410    0.9570   -0.8530 C   0  0  0  0  0  0  0  0  0  0  0  0
    1.9700    0.7470    0.2890 C   0  0  2  0  0  0  0  0  0  0  0  0
    2.9640    1.6640    0.8380 C   0  0  0  0  0  0  0  0  0  0  0  0
    4.1200    2.0980    0.0030 C   0  0  1  0  0  0  0  0  0  0  0  0
    3.8440    2.8360   -1.2450 C   0  0  0  0  0  0  0  0  0  0  0  0
    4.9300    3.0600    0.8990 C   0  0  0  0  0  0  0  0  0  0  0  0
    2.7470   -0.5200    0.0980 N   0  0  0  0  0  0  0  0  0  0  0  0
    2.5830   -1.6600    0.8750 C   0  0  0  0  0  0  0  0  0  0  0  0
    1.7230   -1.6170    1.7980 O   0  0  0  0  0  0  0  0  0  0  0  0
    3.3500   -2.8820    0.6710 C   0  0  0  0  0  0  0  0  0  0  0  0
    3.1610   -3.9880    1.4700 C   0  0  0  0  0  0  0  0  0  0  0  0
    3.8740   -5.1590    1.2990 C   0  0  0  0  0  0  0  0  0  0  0  0
    4.8170   -5.2570    0.3020 C   0  0  0  0  0  0  0  0  0  0  0  0
    5.5750   -6.4400    0.0880 N   0  0  0  0  0  0  0  0  0  0  0  0
    5.0220   -4.1530   -0.5120 C   0  0  0  0  0  0  0  0  0  0  0  0
    4.2910   -2.9800   -0.3220 C   0  0  0  0  0  0  0  0  0  0  0  0
  1  2  1  0
  2  3  2  0
  2  8  1  0
  3  4  1  0
  4  5  2  0
  5  6  1  0
  6  7  1  0
  6  8  2  0
  8  9  1  0
  9 10  1  0
 10 11  1  0
 11 12  2  0
 11 13  1  0
 13 14  1  0
 14 15  1  1
 14 22  1  0
 15 16  1  0
 16 17  2  0
 16 21  1  0
 17 18  1  0
 18 19  2  0
 19 20  1  0
 20 21  2  0
 22 23  1  1
 22 24  1  0
 25 24  1  6
 25 26  1  0
 25 30  1  0
 26 27  1  0
 27 28  1  6
 27 29  1  0
 30 31  1  0
 31 32  2  0
 31 33  1  0
 33 34  2  0
 33 39  1  0
 34 35  1  0
 35 36  2  0
 36 37  1  0
 36 38  1  0
 38 39  2  0
M  END
