
     RDKit          3D

 39 41  0  0  0  0  0  0  0  0999 V2000
    5.8180    3.0910    1.5420 C   0  0  0  0  0  0  0  0  0  0  0  0
    5.4700    2.2940    0.4380 O   0  0  0  0  0  0  0  0  0  0  0  0
    4.2160    1.7010    0.3280 C   0  0  0  0  0  0  0  0  0  0  0  0
    3.4010    1.9140    1.2730 O   0  0  0  0  0  0  0  0  0  0  0  0
    3.8490    0.8570   -0.8390 C   0  0  2  0  0  0  0  0  0  0  0  0
    3.9100    1.6650   -2.1260 C   0  0  0  0  0  0  0  0  0  0  0  0
    2.5000    0.4040   -0.6600 N   0  0  0  0  0  0  0  0  0  0  0  0
    1.3800    1.2420   -0.5960 C   0  0  0  0  0  0  0  0  0  0  0  0
    1.6080    2.4770   -0.7060 O   0  0  0  0  0  0  0  0  0  0  0  0
    0.0340    0.7240   -0.4190 C   0  0  0  0  0  0  0  0  0  0  0  0
   -0.5210   -0.5100   -0.2450 C   0  0  0  0  0  0  0  0  0  0  0  0
   -1.8340   -0.6460   -0.1120 C   0  0  0  0  0  0  0  0  0  0  0  0
   -2.4950   -2.0120    0.0620 C   0  0  0  0  0  0  0  0  0  0  0  0
   -1.5410   -3.0940    0.0800 N   0  0  0  0  0  0  0  0  0  0  0  0
   -0.7080   -3.3710   -1.0250 C   0  0  0  0  0  0  0  0  0  0  0  0
    0.1740   -4.3290   -0.9550 C   0  0  0  0  0  0  0  0  0  0  0  0
    0.9700   -4.5850   -2.0220 F   0  0  0  0  0  0  0  0  0  0  0  0
    0.2970   -5.1330    0.2360 C   0  0  0  0  0  0  0  0  0  0  0  0
   -0.4740   -4.9200    1.2670 C   0  0  0  0  0  0  0  0  0  0  0  0
   -1.4890   -3.8820    1.2870 C   0  0  0  0  0  0  0  0  0  0  0  0
   -2.6260    0.4700   -0.1500 C   0  0  0  0  0  0  0  0  0  0  0  0
   -4.0820    0.6180   -0.0180 C   0  0  1  0  0  0  0  0  0  0  0  0
   -4.3270    0.5220    1.3780 O   0  0  0  0  0  0  0  0  0  0  0  0
   -4.4640    1.9890   -0.4440 C   0  0  0  0  0  0  0  0  0  0  0  0
   -5.9170    2.3330   -0.4120 C   0  0  0  0  0  0  0  0  0  0  0  0
   -6.5070    2.2390    0.9410 C   0  0  0  0  0  0  0  0  0  0  0  0
   -7.9560    2.5890    1.0530 C   0  0  0  0  0  0  0  0  0  0  0  0
   -8.3410    3.9630    0.6290 C   0  0  2  0  0  0  0  0  0  0  0  0
   -9.7310    4.0910    0.8350 F   0  0  0  0  0  0  0  0  0  0  0  0
   -8.1950    4.0550   -0.7600 F   0  0  0  0  0  0  0  0  0  0  0  0
   -1.4480    1.7830   -0.3880 S   0  0  0  0  0  0  0  0  0  0  0  0
    4.7990   -0.2810   -0.8880 C   0  0  0  0  0  0  0  0  0  0  0  0
    4.3180   -1.4240   -0.7780 O   0  0  0  0  0  0  0  0  0  0  0  0
    6.1660   -0.0840   -1.0510 N   0  0  0  0  0  0  0  0  0  0  0  0
    7.1370   -1.1920   -1.1160 C   0  0  0  0  0  0  0  0  0  0  0  0
    6.8650   -2.4550   -1.3940 C   0  0  0  0  0  0  0  0  0  0  0  0
    7.7990   -3.4240   -1.4070 C   0  0  0  0  0  0  0  0  0  0  0  0
    9.3310   -2.4820   -0.9680 S   0  0  0  0  0  0  0  0  0  0  0  0
    8.5100   -0.8770   -0.8200 C   0  0  0  0  0  0  0  0  0  0  0  0
  1  2  1  0
  2  3  1  0
  3  4  2  0
  3  5  1  0
  5  6  1  6
  5  7  1  0
  5 32  1  0
  7  8  1  0
  8  9  2  0
  8 10  1  0
 10 11  2  0
 10 31  1  0
 11 12  1  0
 12 13  1  0
 12 21  2  0
 13 14  1  0
 14 15  1  0
 14 20  1  0
 15 16  2  0
 16 17  1  0
 16 18  1  0
 18 19  2  0
 19 20  1  0
 21 22  1  0
 21 31  1  0
 22 23  1  1
 22 24  1  0
 24 25  1  0
 25 26  1  0
 26 27  1  0
 27 28  1  0
 28 29  1  6
 28 30  1  0
 32 33  2  0
 32 34  1  0
 34 35  1  0
 35 36  1  0
 35 39  2  0
 36 37  2  0
 37 38  1  0
 38 39  1  0
M  END
