
     RDKit          3D

 39 41  0  0  0  0  0  0  0  0999 V2000
    6.5870   -2.4800    1.8340 C   0  0  0  0  0  0  0  0  0  0  0  0
    5.8410   -1.3700    1.1640 C   0  0  0  0  0  0  0  0  0  0  0  0
    5.7220   -0.1400    1.7840 C   0  0  0  0  0  0  0  0  0  0  0  0
    5.0450    0.9080    1.2020 C   0  0  0  0  0  0  0  0  0  0  0  0
    4.9210    2.2290    1.8760 C   0  0  0  0  0  0  0  0  0  0  0  0
    4.4680    0.6930   -0.0590 C   0  0  0  0  0  0  0  0  0  0  0  0
    3.8540    1.7530   -0.6150 F   0  0  0  0  0  0  0  0  0  0  0  0
    4.5470   -0.4960   -0.7220 C   0  0  0  0  0  0  0  0  0  0  0  0
    3.8080   -0.8440   -2.2630 S   0  0  1  0  0  0  0  0  0  0  0  0
    4.3250    0.1820   -3.2930 O   0  0  0  0  0  0  0  0  0  0  0  0
    4.3900   -2.1600   -2.8070 O   0  0  0  0  0  0  0  0  0  0  0  0
    2.1500   -0.9810   -2.3100 N   0  0  0  0  0  0  0  0  0  0  0  0
    1.2720    0.0570   -1.9940 C   0  0  1  0  0  0  0  0  0  0  0  0
    0.4350    0.3990   -3.2280 C   0  0  0  0  0  0  0  0  0  0  0  0
    0.4260   -0.3410   -0.8120 C   0  0  2  0  0  0  0  0  0  0  0  0
   -0.3690   -1.5690   -1.1060 C   0  0  0  0  0  0  0  0  0  0  0  0
   -1.2250   -1.9810    0.0970 C   0  0  0  0  0  0  0  0  0  0  0  0
   -1.9690   -3.2430   -0.3650 C   0  0  0  0  0  0  0  0  0  0  0  0
   -2.9850   -3.7910    0.9630 S   0  0  2  0  0  0  0  0  0  0  0  0
   -3.9670   -2.6950    1.2850 O   0  0  0  0  0  0  0  0  0  0  0  0
   -2.1010   -4.0840    2.1410 O   0  0  0  0  0  0  0  0  0  0  0  0
   -3.8770   -5.2350    0.5120 C   0  0  0  0  0  0  0  0  0  0  0  0
   -3.0080   -6.3910    0.1410 C   0  0  1  0  0  0  0  0  0  0  0  0
   -3.7950   -7.4830   -0.1960 F   0  0  0  0  0  0  0  0  0  0  0  0
   -2.1940   -6.0350   -0.9190 F   0  0  0  0  0  0  0  0  0  0  0  0
   -0.4060    0.7660   -0.2710 C   0  0  0  0  0  0  0  0  0  0  0  0
   -0.0540    1.2550    0.8140 O   0  0  0  0  0  0  0  0  0  0  0  0
   -1.5410    1.2720   -0.9140 N   0  0  0  0  0  0  0  0  0  0  0  0
   -2.3890    2.3140   -0.4960 C   0  0  0  0  0  0  0  0  0  0  0  0
   -2.2060    2.9740    0.6110 C   0  0  0  0  0  0  0  0  0  0  0  0
   -3.1080    4.0670    1.0360 C   0  0  0  0  0  0  0  0  0  0  0  0
   -2.8970    4.7580    2.2140 C   0  0  0  0  0  0  0  0  0  0  0  0
   -3.7740    5.7690    2.5580 C   0  0  0  0  0  0  0  0  0  0  0  0
   -4.8360    6.0980    1.7630 C   0  0  0  0  0  0  0  0  0  0  0  0
   -5.0490    5.4120    0.5880 C   0  0  0  0  0  0  0  0  0  0  0  0
   -4.1720    4.3980    0.2420 C   0  0  0  0  0  0  0  0  0  0  0  0
   -4.3750    3.6940   -0.9480 N   0  0  0  0  0  0  0  0  0  0  0  0
   -3.5290    2.6400   -1.3840 C   0  0  0  0  0  0  0  0  0  0  0  0
    5.2570   -1.5080   -0.0550 C   0  0  0  0  0  0  0  0  0  0  0  0
  1  2  1  0
  2  3  2  0
  2 39  1  0
  3  4  1  0
  4  5  1  0
  4  6  2  0
  6  7  1  0
  6  8  1  0
  8  9  1  0
  8 39  2  0
  9 10  2  0
  9 11  2  0
  9 12  1  1
 12 13  1  0
 13 14  1  6
 13 15  1  0
 15 16  1  6
 15 26  1  0
 16 17  1  0
 17 18  1  0
 19 18  1  6
 19 20  2  0
 19 21  2  0
 19 22  1  0
 22 23  1  0
 23 24  1  6
 23 25  1  0
 26 27  2  0
 26 28  1  0
 28 29  1  0
 29 30  2  0
 29 38  1  0
 30 31  1  0
 31 32  2  0
 31 36  1  0
 32 33  1  0
 33 34  2  0
 34 35  1  0
 35 36  2  0
 36 37  1  0
 37 38  1  0
M  END
