
     RDKit          3D

 39 41  0  0  0  0  0  0  0  0999 V2000
   -6.8290   -4.1550    0.9420 C   0  0  0  0  0  0  0  0  0  0  0  0
   -5.7870   -5.1100   -0.1800 S   0  0  0  0  0  0  0  0  0  0  0  0
   -4.2120   -4.3000   -0.5150 C   0  0  0  0  0  0  0  0  0  0  0  0
   -4.3930   -3.0120   -1.2870 C   0  0  2  0  0  0  0  0  0  0  0  0
   -3.0910   -2.3630   -1.5520 C   0  0  0  0  0  0  0  0  0  0  0  0
   -2.5170   -1.5380   -0.5440 N   0  0  0  0  0  0  0  0  0  0  0  0
   -1.0870   -1.4520   -0.5560 C   0  0  0  0  0  0  0  0  0  0  0  0
   -0.4770   -2.1660   -1.4240 O   0  0  0  0  0  0  0  0  0  0  0  0
   -0.2650   -0.6130    0.3440 C   0  0  1  0  0  0  0  0  0  0  0  0
    1.1670   -0.9450    0.0990 N   0  0  0  0  0  0  0  0  0  0  0  0
    1.9250   -1.5290    1.1230 C   0  0  0  0  0  0  0  0  0  0  0  0
    1.3880   -1.7750    2.2470 O   0  0  0  0  0  0  0  0  0  0  0  0
    3.3240   -1.8580    0.9110 C   0  0  0  0  0  0  0  0  0  0  0  0
    4.0720   -1.4690   -0.1680 C   0  0  0  0  0  0  0  0  0  0  0  0
    5.4190   -1.8210   -0.3150 C   0  0  0  0  0  0  0  0  0  0  0  0
    6.0750   -2.5780    0.6140 C   0  0  0  0  0  0  0  0  0  0  0  0
    7.3360   -2.9710    0.5760 O   0  0  0  0  0  0  0  0  0  0  0  0
    8.4200   -2.8390   -0.1980 C   0  0  0  0  0  0  0  0  0  0  0  0
    8.9930   -1.4620   -0.2800 C   0  0  2  0  0  0  0  0  0  0  0  0
    9.3500   -1.0660    1.0120 F   0  0  0  0  0  0  0  0  0  0  0  0
    8.1450   -0.5600   -0.8240 F   0  0  0  0  0  0  0  0  0  0  0  0
    5.3060   -2.9840    1.7310 C   0  0  0  0  0  0  0  0  0  0  0  0
    5.9120   -3.7450    2.6940 F   0  0  0  0  0  0  0  0  0  0  0  0
    3.9940   -2.6320    1.8580 C   0  0  0  0  0  0  0  0  0  0  0  0
   -0.4430    0.8340    0.0830 C   0  0  0  0  0  0  0  0  0  0  0  0
   -1.0120    1.6620    1.0020 C   0  0  0  0  0  0  0  0  0  0  0  0
   -1.1730    3.0310    0.7410 C   0  0  0  0  0  0  0  0  0  0  0  0
   -0.7640    3.5800   -0.4410 C   0  0  0  0  0  0  0  0  0  0  0  0
   -0.9110    5.0030   -0.7360 C   0  0  0  0  0  0  0  0  0  0  0  0
   -0.7510    5.4410   -1.9150 O   0  0  0  0  0  0  0  0  0  0  0  0
   -1.2310    5.9280    0.2630 N   0  0  0  0  0  0  0  0  0  0  0  0
   -1.4150    7.3340    0.1400 C   0  0  0  0  0  0  0  0  0  0  0  0
   -2.5180    7.8040   -0.7330 C   0  0  0  0  0  0  0  0  0  0  0  0
   -2.3700    7.3880   -2.0330 O   0  0  0  0  0  0  0  0  0  0  0  0
   -0.1830    2.7390   -1.3810 C   0  0  0  0  0  0  0  0  0  0  0  0
   -0.0330    1.3920   -1.1060 C   0  0  0  0  0  0  0  0  0  0  0  0
   -3.1810   -0.7960    0.4810 C   0  0  0  0  0  0  0  0  0  0  0  0
   -4.4400   -1.3510    1.0510 C   0  0  0  0  0  0  0  0  0  0  0  0
   -5.4950   -1.9350   -0.3000 S   0  0  0  0  0  0  0  0  0  0  0  0
  1  2  1  0
  2  3  1  0
  4  3  1  1
  4  5  1  0
  4 39  1  0
  5  6  1  0
  6  7  1  0
  6 37  1  0
  7  8  2  0
  7  9  1  0
  9 10  1  6
  9 25  1  0
 10 11  1  0
 11 12  2  0
 11 13  1  0
 13 14  2  0
 13 24  1  0
 14 15  1  0
 15 16  2  0
 16 17  1  0
 16 22  1  0
 17 18  1  0
 18 19  1  0
 19 20  1  1
 19 21  1  0
 22 23  1  0
 22 24  2  0
 25 26  2  0
 25 36  1  0
 26 27  1  0
 27 28  2  0
 28 29  1  0
 28 35  1  0
 29 30  2  0
 29 31  1  0
 31 32  1  0
 32 33  1  0
 33 34  1  0
 35 36  2  0
 37 38  1  0
 38 39  1  0
M  END
