
     RDKit          3D

 39 41  0  0  0  0  0  0  0  0999 V2000
  -10.2760    1.7430   -0.8390 C   0  0  0  0  0  0  0  0  0  0  0  0
   -9.3350    0.9740   -0.3460 C   0  0  0  0  0  0  0  0  0  0  0  0
   -8.0230    1.4930   -0.0120 C   0  0  0  0  0  0  0  0  0  0  0  0
   -7.0000    0.7130    0.4050 C   0  0  0  0  0  0  0  0  0  0  0  0
   -5.7340    1.3280    0.7140 C   0  0  0  0  0  0  0  0  0  0  0  0
   -4.5280    1.0900   -0.0740 C   0  0  2  0  0  0  0  0  0  0  0  0
   -3.4110    1.9250    0.6070 C   0  0  0  0  0  0  0  0  0  0  0  0
   -4.6000    1.7120   -1.4820 C   0  0  0  0  0  0  0  0  0  0  0  0
   -4.0470   -0.3240   -0.2810 C   0  0  0  0  0  0  0  0  0  0  0  0
   -4.7480   -1.1650   -1.0820 C   0  0  0  0  0  0  0  0  0  0  0  0
   -3.7560   -2.7300   -1.0120 S   0  0  0  0  0  0  0  0  0  0  0  0
   -2.5460   -2.0840    0.0520 C   0  0  0  0  0  0  0  0  0  0  0  0
   -1.1590   -2.9840    0.7030 S   0  0  1  0  0  0  0  0  0  0  0  0
   -1.5530   -3.8610    1.8150 O   0  0  0  0  0  0  0  0  0  0  0  0
   -0.5260   -3.6940   -0.4420 O   0  0  0  0  0  0  0  0  0  0  0  0
   -0.0060   -1.8100    1.2900 N   0  0  0  0  0  0  0  0  0  0  0  0
    0.4500   -1.0080    0.1370 C   0  0  0  0  0  0  0  0  0  0  0  0
    1.4570    0.0300    0.5380 C   0  0  1  0  0  0  0  0  0  0  0  0
    2.7240   -0.6540    1.0100 C   0  0  0  0  0  0  0  0  0  0  0  0
    3.1230   -1.3090   -0.3080 C   0  0  2  0  0  0  0  0  0  0  0  0
    4.6030   -1.5800   -0.3460 C   0  0  0  0  0  0  0  0  0  0  0  0
    5.4470   -0.4390   -0.3020 N   0  0  0  0  0  0  0  0  0  0  0  0
    6.8530   -0.6560   -0.1990 C   0  0  0  0  0  0  0  0  0  0  0  0
    7.2210   -1.8810   -0.1170 O   0  0  0  0  0  0  0  0  0  0  0  0
    7.8590    0.3840   -0.1790 C   0  0  0  0  0  0  0  0  0  0  0  0
    7.5520    1.5440   -0.4890 O   0  0  0  0  0  0  0  0  0  0  0  0
    9.1640    0.0480    0.1970 N   0  0  0  0  0  0  0  0  0  0  0  0
   10.2300    1.0140    0.2160 C   0  0  2  0  0  0  0  0  0  0  0  0
   11.5880    0.4300    0.3010 C   0  0  0  0  0  0  0  0  0  0  0  0
    9.9320    1.9490    1.4150 C   0  0  0  0  0  0  0  0  0  0  0  0
    2.6930   -0.2800   -1.3100 C   0  0  0  0  0  0  0  0  0  0  0  0
    1.8650    0.6130   -0.6860 O   0  0  0  0  0  0  0  0  0  0  0  0
   -2.9230   -0.8330    0.2820 C   0  0  0  0  0  0  0  0  0  0  0  0
   -7.2860   -0.6850    0.5790 C   0  0  0  0  0  0  0  0  0  0  0  0
   -8.4850   -1.2280    0.3460 C   0  0  0  0  0  0  0  0  0  0  0  0
   -8.6400   -2.5550    0.5400 F   0  0  0  0  0  0  0  0  0  0  0  0
   -9.6440   -0.4680   -0.1190 C   0  0  1  0  0  0  0  0  0  0  0  0
  -10.6750   -0.5580    0.8020 F   0  0  0  0  0  0  0  0  0  0  0  0
  -10.1500   -0.9290   -1.3390 F   0  0  0  0  0  0  0  0  0  0  0  0
  1  2  2  0
  2  3  1  0
  2 37  1  0
  3  4  2  0
  4  5  1  0
  4 34  1  0
  5  6  1  0
  6  7  1  1
  6  8  1  0
  6  9  1  0
  9 10  2  0
  9 33  1  0
 10 11  1  0
 11 12  1  0
 12 13  1  0
 12 33  2  0
 13 14  2  0
 13 15  2  0
 13 16  1  1
 16 17  1  0
 18 17  1  6
 18 19  1  0
 18 32  1  0
 19 20  1  0
 20 21  1  1
 20 31  1  0
 21 22  1  0
 22 23  1  0
 23 24  2  0
 23 25  1  0
 25 26  2  0
 25 27  1  0
 27 28  1  0
 28 29  1  1
 28 30  1  0
 31 32  1  0
 34 35  2  0
 35 36  1  0
 35 37  1  0
 37 38  1  1
 37 39  1  0
M  END
