
     RDKit          3D

 39 41  0  0  0  0  0  0  0  0999 V2000
    0.5540    3.2520    1.8520 C   0  0  0  0  0  0  0  0  0  0  0  0
    0.0700    1.8790    1.4320 C   0  0  0  0  0  0  0  0  0  0  0  0
   -0.3160    1.9910   -0.0540 C   0  0  0  0  0  0  0  0  0  0  0  0
   -0.8110    0.6710   -0.5670 C   0  0  2  0  0  0  0  0  0  0  0  0
   -1.1780    0.7010   -1.9870 C   0  0  0  0  0  0  0  0  0  0  0  0
   -2.2750    1.5150   -2.5030 C   0  0  0  0  0  0  0  0  0  0  0  0
   -2.3010    2.9860   -2.3800 C   0  0  0  0  0  0  0  0  0  0  0  0
   -2.9550    3.7980   -1.4980 C   0  0  0  0  0  0  0  0  0  0  0  0
   -2.8120    5.1050   -1.5970 C   0  0  0  0  0  0  0  0  0  0  0  0
   -2.0180    5.6370   -2.5700 C   0  0  0  0  0  0  0  0  0  0  0  0
   -1.4270    4.1270   -3.4160 S   0  0  0  0  0  0  0  0  0  0  0  0
   -1.9970    0.2600    0.1970 N   0  0  0  0  0  0  0  0  0  0  0  0
   -2.6710   -0.9580    0.0080 C   0  0  0  0  0  0  0  0  0  0  0  0
   -2.3010   -1.7870   -0.8310 O   0  0  0  0  0  0  0  0  0  0  0  0
   -3.8820   -1.3270    0.8130 C   0  0  0  0  0  0  0  0  0  0  0  0
   -4.3880   -2.6720    0.4240 C   0  0  0  0  0  0  0  0  0  0  0  0
   -5.6200   -2.9720    1.2910 C   0  0  0  0  0  0  0  0  0  0  0  0
   -5.4770   -3.8480    2.3510 C   0  0  0  0  0  0  0  0  0  0  0  0
   -7.1680   -3.8640    3.0380 S   0  0  0  0  0  0  0  0  0  0  0  0
   -7.8450   -2.7080    1.8330 N   0  0  0  0  0  0  0  0  0  0  0  0
   -6.8010   -2.4150    1.0470 C   0  0  0  0  0  0  0  0  0  0  0  0
   -7.0480   -1.5690    0.0680 O   0  0  0  0  0  0  0  0  0  0  0  0
    0.2520   -0.3720   -0.3910 C   0  0  0  0  0  0  0  0  0  0  0  0
    0.0140   -1.3570    0.3230 O   0  0  0  0  0  0  0  0  0  0  0  0
    1.4950   -0.2850   -0.9920 O   0  0  0  0  0  0  0  0  0  0  0  0
    2.4390   -1.2990   -0.7830 C   0  0  1  0  0  0  0  0  0  0  0  0
    2.7070   -1.9110   -2.1660 C   0  0  0  0  0  0  0  0  0  0  0  0
    3.7520   -0.8110   -0.3080 C   0  0  0  0  0  0  0  0  0  0  0  0
    4.0570    0.3740   -0.0950 O   0  0  0  0  0  0  0  0  0  0  0  0
    4.7540   -1.8100   -0.0780 N   0  0  0  0  0  0  0  0  0  0  0  0
    6.0490   -1.5000    0.3730 C   0  0  0  0  0  0  0  0  0  0  0  0
    7.0440   -1.2490   -0.5300 C   0  0  0  0  0  0  0  0  0  0  0  0
    6.8450   -1.2810   -1.8880 F   0  0  0  0  0  0  0  0  0  0  0  0
    8.3470   -0.9380   -0.1180 C   0  0  0  0  0  0  0  0  0  0  0  0
    8.5980   -0.8930    1.2360 C   0  0  0  0  0  0  0  0  0  0  0  0
    7.5900   -1.1480    2.1670 C   0  0  0  0  0  0  0  0  0  0  0  0
    7.8890   -1.0910    3.4740 F   0  0  0  0  0  0  0  0  0  0  0  0
    6.3160   -1.4510    1.7130 C   0  0  0  0  0  0  0  0  0  0  0  0
    5.3700   -1.6920    2.6760 F   0  0  0  0  0  0  0  0  0  0  0  0
  1  2  1  0
  2  3  1  0
  4  3  1  1
  4  5  1  0
  4 12  1  0
  4 23  1  0
  5  6  1  0
  6  7  1  0
  7  8  2  0
  7 11  1  0
  8  9  1  0
  9 10  2  0
 10 11  1  0
 12 13  1  0
 13 14  2  0
 13 15  1  0
 15 16  1  0
 16 17  1  0
 17 18  2  0
 17 21  1  0
 18 19  1  0
 19 20  1  0
 20 21  1  0
 21 22  2  0
 23 24  2  0
 23 25  1  0
 25 26  1  0
 26 27  1  6
 26 28  1  0
 28 29  2  0
 28 30  1  0
 30 31  1  0
 31 32  2  0
 31 38  1  0
 32 33  1  0
 32 34  1  0
 34 35  2  0
 35 36  1  0
 36 37  1  0
 36 38  2  0
 38 39  1  0
M  END
