
     RDKit          3D

 28 30  0  0  0  0  0  0  0  0999 V2000
    2.1490    3.0770    2.5880 C   0  0  0  0  0  0  0  0  0  0  0  0
    1.5790    1.9860    1.7080 C   0  0  1  0  0  0  0  0  0  0  0  0
    0.5470    2.5500    0.9280 O   0  0  0  0  0  0  0  0  0  0  0  0
   -0.7480    2.0900    0.9770 C   0  0  0  0  0  0  0  0  0  0  0  0
   -1.0370    1.1410    1.7330 O   0  0  0  0  0  0  0  0  0  0  0  0
   -1.7870    2.7110    0.1450 C   0  0  0  0  0  0  0  0  0  0  0  0
   -3.0860    2.1020    0.3240 N   0  0  0  0  0  0  0  0  0  0  0  0
   -3.3170    0.7440    0.0560 C   0  0  0  0  0  0  0  0  0  0  0  0
   -2.3280    0.0580   -0.3580 O   0  0  0  0  0  0  0  0  0  0  0  0
   -4.6060    0.0610    0.2150 C   0  0  1  0  0  0  0  0  0  0  0  0
   -5.7200    0.6290   -0.6090 C   0  0  0  0  0  0  0  0  0  0  0  0
   -5.4220    0.3410   -2.3740 S   0  0  0  0  0  0  0  0  0  0  0  0
   -4.3170   -1.0940   -2.4700 C   0  0  0  0  0  0  0  0  0  0  0  0
   -4.3360   -1.8990   -1.2220 C   0  0  0  0  0  0  0  0  0  0  0  0
   -4.2250   -3.2410   -1.1210 N   0  0  0  0  0  0  0  0  0  0  0  0
   -4.2850   -3.5900    0.1530 C   0  0  0  0  0  0  0  0  0  0  0  0
   -4.4370   -2.4290    0.8610 C   0  0  0  0  0  0  0  0  0  0  0  0
   -4.5730   -2.2760    2.5910 Cl  0  0  0  0  0  0  0  0  0  0  0  0
   -4.4670   -1.3880    0.0030 N   0  0  0  0  0  0  0  0  0  0  0  0
    2.6180    1.4160    0.8060 C   0  0  0  0  0  0  0  0  0  0  0  0
    2.4490    1.5060   -0.4210 O   0  0  0  0  0  0  0  0  0  0  0  0
    3.7220    0.8120    1.2860 O   0  0  0  0  0  0  0  0  0  0  0  0
    4.7940    0.2060    0.6940 C   0  0  0  0  0  0  0  0  0  0  0  0
    4.5150   -1.0650   -0.0110 C   0  0  2  0  0  0  0  0  0  0  0  0
    5.8720   -1.5410   -0.5590 C   0  0  0  0  0  0  0  0  0  0  0  0
    5.5990   -2.9520   -1.0790 C   0  0  0  0  0  0  0  0  0  0  0  0
    4.0590   -2.6090   -2.0200 S   0  0  0  0  0  0  0  0  0  0  0  0
    3.6170   -0.9950   -1.2020 C   0  0  0  0  0  0  0  0  0  0  0  0
  2  1  1  6
  2  3  1  0
  2 20  1  0
  3  4  1  0
  4  5  2  0
  4  6  1  0
  6  7  1  0
  7  8  1  0
  8  9  2  0
 10  8  1  6
 10 11  1  0
 10 19  1  0
 11 12  1  0
 12 13  1  0
 13 14  1  0
 14 15  2  0
 14 19  1  0
 15 16  1  0
 16 17  2  0
 17 18  1  0
 17 19  1  0
 20 21  2  0
 20 22  1  0
 22 23  1  0
 24 23  1  6
 24 25  1  0
 24 28  1  0
 25 26  1  0
 26 27  1  0
 27 28  1  0
M  END
