
     RDKit          3D

 28 30  0  0  0  0  0  0  0  0999 V2000
    0.5790    0.4400   -2.8920 O   0  0  0  0  0  0  0  0  0  0  0  0
    1.4590    0.5060   -1.9700 C   0  0  0  0  0  0  0  0  0  0  0  0
    2.5850    1.4420   -2.0800 C   0  0  0  0  0  0  0  0  0  0  0  0
    3.5230    1.2300   -1.0670 O   0  0  0  0  0  0  0  0  0  0  0  0
    4.2460    0.0330   -0.9660 C   0  0  0  0  0  0  0  0  0  0  0  0
    4.0870   -0.9000   -1.7820 O   0  0  0  0  0  0  0  0  0  0  0  0
    5.1920   -0.0850    0.1250 C   0  0  0  0  0  0  0  0  0  0  0  0
    5.4040    0.9090    1.0460 C   0  0  0  0  0  0  0  0  0  0  0  0
    6.3120    0.7670    2.0750 C   0  0  0  0  0  0  0  0  0  0  0  0
    6.5750    2.0390    3.2430 Cl  0  0  0  0  0  0  0  0  0  0  0  0
    7.0080   -0.4070    2.1570 C   0  0  0  0  0  0  0  0  0  0  0  0
    6.7970   -1.4000    1.2370 C   0  0  0  0  0  0  0  0  0  0  0  0
    5.8990   -1.2100    0.2520 N   0  0  0  0  0  0  0  0  0  0  0  0
    1.3100   -0.3460   -0.8430 N   0  0  0  0  0  0  0  0  0  0  0  0
    0.2770   -1.2630   -0.5850 C   0  0  0  0  0  0  0  0  0  0  0  0
   -1.0850   -0.9110   -0.1890 C   0  0  0  0  0  0  0  0  0  0  0  0
   -1.9790    0.0060   -0.9030 C   0  0  2  0  0  0  0  0  0  0  0  0
   -1.5280    1.4370   -0.9430 C   0  0  0  0  0  0  0  0  0  0  0  0
   -2.7290    2.5040   -0.0290 S   0  0  0  0  0  0  0  0  0  0  0  0
   -3.4170    1.3480    1.2190 C   0  0  0  0  0  0  0  0  0  0  0  0
   -3.9150    0.1690    0.4500 C   0  0  1  0  0  0  0  0  0  0  0  0
   -4.0450   -0.9890    1.4230 C   0  0  0  0  0  0  0  0  0  0  0  0
   -4.8870   -1.9510    0.5760 C   0  0  0  0  0  0  0  0  0  0  0  0
   -5.8400   -0.9610   -0.0370 C   0  0  0  0  0  0  0  0  0  0  0  0
   -6.8940   -1.3200   -0.6150 O   0  0  0  0  0  0  0  0  0  0  0  0
   -5.3490    0.3620    0.1510 N   0  0  0  0  0  0  0  0  0  0  0  0
   -6.2700    1.8460    0.0440 S   0  0  0  0  0  0  0  0  0  0  0  0
   -3.3130   -0.1670   -0.6730 O   0  0  0  0  0  0  0  0  0  0  0  0
  1  2  2  0
  2  3  1  0
  2 14  1  0
  3  4  1  0
  4  5  1  0
  5  6  2  0
  5  7  1  0
  7  8  2  0
  7 13  1  0
  8  9  1  0
  9 10  1  0
  9 11  2  0
 11 12  1  0
 12 13  2  0
 14 15  1  0
 15 16  1  0
 17 16  1  1
 17 18  1  0
 17 28  1  0
 18 19  1  0
 19 20  1  0
 21 20  1  1
 21 22  1  0
 21 26  1  0
 21 28  1  0
 22 23  1  0
 23 24  1  0
 24 25  2  0
 24 26  1  0
 26 27  1  0
M  END
