
     RDKit          3D

 28 30  0  0  0  0  0  0  0  0999 V2000
    8.7490   -0.5810   -0.2690 C   0  0  0  0  0  0  0  0  0  0  0  0
    8.0920    0.1360    0.7810 O   0  0  0  0  0  0  0  0  0  0  0  0
    6.7520    0.4940    0.6140 C   0  0  0  0  0  0  0  0  0  0  0  0
    6.0860    1.1850    1.5970 C   0  0  0  0  0  0  0  0  0  0  0  0
    4.7630    1.5440    1.4410 C   0  0  0  0  0  0  0  0  0  0  0  0
    4.0910    1.1940    0.2600 C   0  0  0  0  0  0  0  0  0  0  0  0
    2.7060    1.5840    0.0790 C   0  0  0  0  0  0  0  0  0  0  0  0
    1.8080    0.7160   -0.2860 C   0  0  0  0  0  0  0  0  0  0  0  0
    0.0400    1.0690   -0.5550 S   0  0  0  0  0  0  0  0  0  0  0  0
   -0.4560   -0.7080   -0.7150 C   0  0  2  0  0  0  0  0  0  0  0  0
   -0.6480   -1.4490    0.8970 S   0  0  0  0  0  0  0  0  0  0  0  0
   -2.0380   -0.8330    1.8580 C   0  0  0  0  0  0  0  0  0  0  0  0
   -3.2820   -1.2980    1.2050 C   0  0  0  0  0  0  0  0  0  0  0  0
   -3.7540   -2.4570    1.4410 O   0  0  0  0  0  0  0  0  0  0  0  0
   -4.0070   -0.4970    0.2970 N   0  0  0  0  0  0  0  0  0  0  0  0
   -3.5990    0.8390   -0.0480 C   0  0  0  0  0  0  0  0  0  0  0  0
   -4.7980    1.6490   -0.4840 C   0  0  0  0  0  0  0  0  0  0  0  0
   -4.6480    2.7110   -1.1100 O   0  0  0  0  0  0  0  0  0  0  0  0
   -6.0560    1.2040   -0.1850 O   0  0  0  0  0  0  0  0  0  0  0  0
   -6.3660   -0.1450    0.1150 C   0  0  1  0  0  0  0  0  0  0  0  0
   -7.5610   -0.5340   -0.7380 C   0  0  0  0  0  0  0  0  0  0  0  0
   -8.8980    0.5530   -0.3140 Cl  0  0  0  0  0  0  0  0  0  0  0  0
   -5.2170   -1.0310   -0.3330 C   0  0  0  0  0  0  0  0  0  0  0  0
    0.7880   -1.2120   -1.2640 N   0  0  0  0  0  0  0  0  0  0  0  0
    1.8980   -0.7160   -0.5370 C   0  0  0  0  0  0  0  0  0  0  0  0
    2.8900   -1.4360   -0.1310 O   0  0  0  0  0  0  0  0  0  0  0  0
    4.8030    0.5050   -0.6890 C   0  0  0  0  0  0  0  0  0  0  0  0
    6.1050    0.1680   -0.5060 N   0  0  0  0  0  0  0  0  0  0  0  0
  1  2  1  0
  2  3  1  0
  3  4  2  0
  3 28  1  0
  4  5  1  0
  5  6  2  0
  6  7  1  0
  6 27  1  0
  7  8  2  3
  8  9  1  0
  8 25  1  0
  9 10  1  0
 10 11  1  1
 10 24  1  0
 11 12  1  0
 12 13  1  0
 13 14  2  0
 13 15  1  0
 15 16  1  0
 15 23  1  0
 16 17  1  0
 17 18  2  0
 17 19  1  0
 19 20  1  0
 20 21  1  6
 20 23  1  0
 21 22  1  0
 24 25  1  0
 25 26  2  0
 27 28  2  0
M  END
