
     RDKit          3D

 28 29  0  0  0  0  0  0  0  0999 V2000
   -3.3760   -3.9200    2.7420 C   0  0  0  0  0  0  0  0  0  0  0  0
   -3.2090   -2.6230    2.1750 O   0  0  0  0  0  0  0  0  0  0  0  0
   -2.5840   -2.4530    0.9680 C   0  0  0  0  0  0  0  0  0  0  0  0
   -2.1370   -3.4040    0.3150 O   0  0  0  0  0  0  0  0  0  0  0  0
   -2.4420   -1.1290    0.4440 N   0  0  0  0  0  0  0  0  0  0  0  0
   -2.9320    0.0200    1.1410 C   0  0  0  0  0  0  0  0  0  0  0  0
   -3.8000    0.8510    0.2490 C   0  0  1  0  0  0  0  0  0  0  0  0
   -4.4160    2.3210    1.0770 S   0  0  0  0  0  0  0  0  0  0  0  0
   -5.4500    3.2600   -0.0640 C   0  0  0  0  0  0  0  0  0  0  0  0
   -3.1230    1.1800   -1.0680 C   0  0  0  0  0  0  0  0  0  0  0  0
   -2.7110   -0.0960   -1.7310 C   0  0  0  0  0  0  0  0  0  0  0  0
   -1.7730   -0.9130   -0.8540 C   0  0  1  0  0  0  0  0  0  0  0  0
   -0.5220   -0.1550   -0.5490 C   0  0  0  0  0  0  0  0  0  0  0  0
    0.3250    0.1530   -1.7140 C   0  0  0  0  0  0  0  0  0  0  0  0
    0.0240   -0.2420   -2.8640 O   0  0  0  0  0  0  0  0  0  0  0  0
    1.5050    0.9210   -1.4790 N   0  0  0  0  0  0  0  0  0  0  0  0
    2.4960    0.4770   -0.8050 C   0  0  0  0  0  0  0  0  0  0  0  0
    2.5560   -1.1740   -0.0540 S   0  0  0  0  0  0  0  0  0  0  0  0
    4.3870   -1.2450   -0.1350 C   0  0  0  0  0  0  0  0  0  0  0  0
    5.0150   -2.3530   -0.2040 C   0  0  0  0  0  0  0  0  0  0  0  0
    6.4250   -2.7250   -0.2810 C   0  0  0  0  0  0  0  0  0  0  0  0
    7.5730   -1.4270   -0.3060 Cl  0  0  0  0  0  0  0  0  0  0  0  0
    4.7490    0.1360   -0.0940 C   0  0  0  0  0  0  0  0  0  0  0  0
    5.9180    0.5390    0.2490 O   0  0  0  0  0  0  0  0  0  0  0  0
    3.7350    1.0480   -0.4550 N   0  0  0  0  0  0  0  0  0  0  0  0
    3.9300    2.4990   -0.4850 C   0  0  0  0  0  0  0  0  0  0  0  0
    3.5900    3.0540    0.8660 C   0  0  0  0  0  0  0  0  0  0  0  0
    2.2810    2.8020    1.2430 O   0  0  0  0  0  0  0  0  0  0  0  0
  1  2  1  0
  2  3  1  0
  3  4  2  0
  3  5  1  0
  5  6  1  0
  5 12  1  0
  6  7  1  0
  7  8  1  1
  7 10  1  0
  8  9  1  0
 10 11  1  0
 11 12  1  0
 12 13  1  1
 13 14  1  0
 14 15  2  0
 14 16  1  0
 16 17  2  3
 17 18  1  0
 17 25  1  0
 18 19  1  0
 19 20  2  3
 19 23  1  0
 20 21  1  0
 21 22  1  0
 23 24  2  0
 23 25  1  0
 25 26  1  0
 26 27  1  0
 27 28  1  0
M  END
