
     RDKit          3D

 28 29  0  0  0  0  0  0  0  0999 V2000
   -8.4030   -0.5000    0.7370 C   0  0  0  0  0  0  0  0  0  0  0  0
   -7.5820   -1.0950    1.8360 C   0  0  0  0  0  0  0  0  0  0  0  0
   -6.2050   -1.0160    1.4840 O   0  0  0  0  0  0  0  0  0  0  0  0
   -5.5840    0.1640    1.2450 C   0  0  0  0  0  0  0  0  0  0  0  0
   -6.4030    1.2090    1.3770 O   0  0  0  0  0  0  0  0  0  0  0  0
   -4.2680    0.4790    0.8920 C   0  0  0  0  0  0  0  0  0  0  0  0
   -3.1900   -0.2090    0.6710 C   0  0  0  0  0  0  0  0  0  0  0  0
   -3.0880   -1.6600    0.7510 C   0  0  0  0  0  0  0  0  0  0  0  0
   -4.5570   -2.5690    1.1870 Cl  0  0  0  0  0  0  0  0  0  0  0  0
   -1.9540    0.5770    0.2810 C   0  0  0  0  0  0  0  0  0  0  0  0
   -0.7750    0.2200    0.0160 C   0  0  0  0  0  0  0  0  0  0  0  0
   -0.1080   -1.1040   -0.0240 C   0  0  0  0  0  0  0  0  0  0  0  0
   -0.6540   -2.1910    0.2240 O   0  0  0  0  0  0  0  0  0  0  0  0
    1.2690   -1.2270   -0.3660 N   0  0  0  0  0  0  0  0  0  0  0  0
    1.9960   -0.2280   -0.6500 C   0  0  0  0  0  0  0  0  0  0  0  0
    3.7060   -0.4990   -1.0630 S   0  0  0  0  0  0  0  0  0  0  0  0
    4.5920    1.0130   -1.4390 C   0  0  2  0  0  0  0  0  0  0  0  0
    4.1180    1.7000   -2.6900 C   0  0  0  0  0  0  0  0  0  0  0  0
    6.0400    0.6660   -1.5620 C   0  0  0  0  0  0  0  0  0  0  0  0
    6.6530    0.8730   -2.6360 O   0  0  0  0  0  0  0  0  0  0  0  0
    6.7420    0.0980   -0.4680 N   0  0  0  0  0  0  0  0  0  0  0  0
    8.1130   -0.2530   -0.5210 C   0  0  0  0  0  0  0  0  0  0  0  0
    8.7970   -0.8420    0.6510 C   0  0  0  0  0  0  0  0  0  0  0  0
    8.7510   -0.0600   -1.5760 O   0  0  0  0  0  0  0  0  0  0  0  0
    1.4060    1.0630   -0.6260 N   0  0  0  0  0  0  0  0  0  0  0  0
    0.1900    1.2740   -0.3340 C   0  0  0  0  0  0  0  0  0  0  0  0
   -0.6950    2.8030   -0.2470 S   0  0  0  0  0  0  0  0  0  0  0  0
   -2.2630    2.0590    0.1940 C   0  0  0  0  0  0  0  0  0  0  0  0
  1  2  1  0
  2  3  1  0
  3  4  1  0
  4  5  2  0
  4  6  1  0
  6  7  2  3
  7  8  1  0
  7 10  1  0
  8  9  1  0
 10 11  2  0
 10 28  1  0
 11 12  1  0
 11 26  1  0
 12 13  2  0
 12 14  1  0
 14 15  2  0
 15 16  1  0
 15 25  1  0
 16 17  1  0
 17 18  1  6
 17 19  1  0
 19 20  2  0
 19 21  1  0
 21 22  1  0
 22 23  1  0
 22 24  2  0
 25 26  2  0
 26 27  1  0
 27 28  1  0
M  END
