
     RDKit          3D

 28 30  0  0  0  0  0  0  0  0999 V2000
   -6.7070   -0.0750    0.7090 C   0  0  0  0  0  0  0  0  0  0  0  0
   -5.7060   -0.8160   -0.1520 C   0  0  1  0  0  0  0  0  0  0  0  0
   -5.9940   -2.2990   -0.1870 C   0  0  0  0  0  0  0  0  0  0  0  0
   -5.5950   -0.2200   -1.5390 C   0  0  0  0  0  0  0  0  0  0  0  0
   -4.6650    0.8670   -1.4670 N   0  0  0  0  0  0  0  0  0  0  0  0
   -4.0670    0.8620   -0.1690 C   0  0  2  0  0  0  0  0  0  0  0  0
   -2.6000    1.0570   -0.1890 C   0  0  0  0  0  0  0  0  0  0  0  0
   -1.9810    1.2080   -1.2710 O   0  0  0  0  0  0  0  0  0  0  0  0
   -1.9420    1.0650    1.0330 O   0  0  0  0  0  0  0  0  0  0  0  0
   -0.5580    1.2440    1.0920 C   0  0  0  0  0  0  0  0  0  0  0  0
    0.1660    0.1780    0.3510 C   0  0  0  0  0  0  0  0  0  0  0  0
   -0.5050   -0.7110   -0.2120 O   0  0  0  0  0  0  0  0  0  0  0  0
    1.5710    0.1690    0.2850 N   0  0  0  0  0  0  0  0  0  0  0  0
    2.2600    1.2430    0.9710 C   0  0  0  0  0  0  0  0  0  0  0  0
    2.9090    2.1190   -0.0800 C   0  0  0  0  0  0  0  0  0  0  0  0
    4.3160    1.7440   -0.3640 C   0  0  0  0  0  0  0  0  0  0  0  0
    4.4970    0.3400   -0.7170 N   0  0  0  0  0  0  0  0  0  0  0  0
    5.8850   -0.1520   -0.6380 C   0  0  0  0  0  0  0  0  0  0  0  0
    6.8140    0.7360   -0.5530 C   0  0  0  0  0  0  0  0  0  0  0  0
    8.4940    0.2000   -0.4530 S   0  0  0  0  0  0  0  0  0  0  0  0
    7.8160   -2.0020   -0.5200 S   0  0  0  0  0  0  0  0  0  0  0  0
    8.3090   -3.1190    0.7530 O   0  0  0  0  0  0  0  0  0  0  0  0
    6.1470   -1.5470   -0.6360 C   0  0  0  0  0  0  0  0  0  0  0  0
    5.0550   -2.9660   -0.6880 Cl  0  0  0  0  0  0  0  0  0  0  0  0
    3.4780   -0.5560   -1.0690 C   0  0  0  0  0  0  0  0  0  0  0  0
    3.7760   -1.1810   -2.1560 O   0  0  0  0  0  0  0  0  0  0  0  0
    2.1670   -0.9070   -0.4590 C   0  0  0  0  0  0  0  0  0  0  0  0
   -4.3330   -0.5260    0.4190 C   0  0  0  0  0  0  0  0  0  0  0  0
  2  1  1  1
  2  3  1  0
  2  4  1  0
  2 28  1  0
  4  5  1  0
  5  6  1  0
  6  7  1  6
  6 28  1  0
  7  8  2  0
  7  9  1  0
  9 10  1  0
 10 11  1  0
 11 12  2  0
 11 13  1  0
 13 14  1  0
 13 27  1  0
 14 15  1  0
 15 16  1  0
 16 17  1  0
 17 18  1  0
 17 25  1  0
 18 19  2  0
 18 23  1  0
 19 20  1  0
 20 21  1  0
 21 22  1  1
 21 23  2  0
 23 24  1  0
 25 26  2  0
 25 27  1  0
M  END
