
     RDKit          3D

 21 23  0  0  0  0  0  0  0  0999 V2000
   -3.2400    1.1980    2.7210 O   0  0  0  0  0  0  0  0  0  0  0  0
   -3.4060    0.7040    1.5530 C   0  0  0  0  0  0  0  0  0  0  0  0
   -4.6930    0.7980    0.8900 C   0  0  0  0  0  0  0  0  0  0  0  0
   -4.7750    0.4250   -0.3740 C   0  0  0  0  0  0  0  0  0  0  0  0
   -3.5830   -0.0690   -1.0780 C   0  0  0  0  0  0  0  0  0  0  0  0
   -3.7310   -0.8750   -2.0740 N   0  0  0  0  0  0  0  0  0  0  0  0
   -2.6490   -1.3910   -2.7960 N   0  0  0  0  0  0  0  0  0  0  0  0
   -1.3610   -0.9730   -2.3670 C   0  0  0  0  0  0  0  0  0  0  0  0
   -0.3280   -1.3990   -2.9730 O   0  0  0  0  0  0  0  0  0  0  0  0
   -1.1410   -0.0890   -1.2780 N   0  0  0  0  0  0  0  0  0  0  0  0
    0.1420    0.3100   -0.8670 N   0  0  0  0  0  0  0  0  0  0  0  0
    1.0790   -0.6170   -0.3280 C   0  0  0  0  0  0  0  0  0  0  0  0
    0.6650   -1.8170   -0.2520 O   0  0  0  0  0  0  0  0  0  0  0  0
    2.4120   -0.2930    0.1160 C   0  0  0  0  0  0  0  0  0  0  0  0
    2.9070    0.9250    0.0660 C   0  0  0  0  0  0  0  0  0  0  0  0
    4.2730    1.2700    0.5200 C   0  0  0  0  0  0  0  0  0  0  0  0
    4.9520    0.1190    1.2180 C   0  0  0  0  0  0  0  0  0  0  0  0
    4.0460   -0.8360    1.6630 O   0  0  0  0  0  0  0  0  0  0  0  0
    3.2780   -1.3680    0.6570 C   0  0  0  0  0  0  0  0  0  0  0  0
   -2.2780    0.4180   -0.5690 C   0  0  2  0  0  0  0  0  0  0  0  0
   -2.2280    0.0360    0.9160 C   0  0  0  0  0  0  0  0  0  0  0  0
  1  2  2  0
  2  3  1  0
  2 21  1  0
  3  4  2  0
  4  5  1  0
  5  6  2  0
  5 20  1  0
  6  7  1  0
  7  8  1  0
  8  9  2  0
  8 10  1  0
 10 11  1  0
 10 20  1  0
 11 12  1  0
 12 13  2  0
 12 14  1  0
 14 15  2  0
 14 19  1  0
 15 16  1  0
 16 17  1  0
 17 18  1  0
 18 19  1  0
 20 21  1  1
M  END
