
     RDKit          3D

 21 22  0  0  0  0  0  0  0  0999 V2000
    0.3600    1.0130    2.4540 C   0  0  0  0  0  0  0  0  0  0  0  0
   -0.2130    1.9750    1.7900 C   0  0  0  0  0  0  0  0  0  0  0  0
   -1.0890    1.8510    0.6300 C   0  0  0  0  0  0  0  0  0  0  0  0
   -1.5680    3.0060    0.1720 C   0  0  0  0  0  0  0  0  0  0  0  0
   -1.1770    4.2860    0.8650 C   0  0  0  0  0  0  0  0  0  0  0  0
   -2.4220    3.1220   -0.9100 O   0  0  0  0  0  0  0  0  0  0  0  0
   -2.7630    1.9260   -1.5200 C   0  0  0  0  0  0  0  0  0  0  0  0
   -2.3510    0.7710   -1.1680 C   0  0  0  0  0  0  0  0  0  0  0  0
   -1.4060    0.5780   -0.0130 C   0  0  1  0  0  0  0  0  0  0  0  0
   -0.2700   -0.1470   -0.4580 N   0  0  0  0  0  0  0  0  0  0  0  0
    0.0670   -1.3260   -0.1690 C   0  0  0  0  0  0  0  0  0  0  0  0
   -0.6440   -2.2720    0.7330 C   0  0  0  0  0  0  0  0  0  0  0  0
   -0.9390   -3.4340    0.0130 O   0  0  0  0  0  0  0  0  0  0  0  0
    1.2950   -1.8810   -0.7870 C   0  0  0  0  0  0  0  0  0  0  0  0
    1.7530   -3.1020   -0.5520 N   0  0  0  0  0  0  0  0  0  0  0  0
    2.8380   -3.6190   -1.0990 N   0  0  0  0  0  0  0  0  0  0  0  0
    3.5660   -2.8800   -1.9670 C   0  0  0  0  0  0  0  0  0  0  0  0
    4.5850   -3.3770   -2.4690 O   0  0  0  0  0  0  0  0  0  0  0  0
    3.1310   -1.6190   -2.2370 N   0  0  0  0  0  0  0  0  0  0  0  0
    2.0420   -1.1140   -1.6840 C   0  0  0  0  0  0  0  0  0  0  0  0
    1.6420    0.0690   -1.9440 O   0  0  0  0  0  0  0  0  0  0  0  0
  1  2  2  0
  2  3  1  0
  3  4  2  0
  3  9  1  0
  4  5  1  0
  4  6  1  0
  6  7  1  0
  7  8  2  0
  8  9  1  0
  9 10  1  6
 10 11  2  3
 11 12  1  0
 11 14  1  0
 12 13  1  0
 14 15  2  0
 14 20  1  0
 15 16  1  0
 16 17  1  0
 17 18  2  0
 17 19  1  0
 19 20  1  0
 20 21  2  0
M  END
