
     RDKit          3D

 21 22  0  0  0  0  0  0  0  0999 V2000
   -3.7290   -1.0900    2.0640 C   0  0  0  0  0  0  0  0  0  0  0  0
   -3.4710   -0.6180    0.6670 C   0  0  0  0  0  0  0  0  0  0  0  0
   -4.5480   -0.5550   -0.0930 C   0  0  0  0  0  0  0  0  0  0  0  0
   -4.6800   -0.1380   -1.5110 C   0  0  0  0  0  0  0  0  0  0  0  0
   -3.8730    0.6820   -2.1690 C   0  0  0  0  0  0  0  0  0  0  0  0
   -2.7380    1.3110   -1.6400 O   0  0  0  0  0  0  0  0  0  0  0  0
   -2.0620    0.9790   -0.4810 C   0  0  0  0  0  0  0  0  0  0  0  0
   -1.3290    1.8720   -0.0140 O   0  0  0  0  0  0  0  0  0  0  0  0
   -2.0970   -0.2820    0.2650 C   0  0  1  0  0  0  0  0  0  0  0  0
   -1.1390   -0.2980    1.4310 C   0  0  0  0  0  0  0  0  0  0  0  0
    0.2180    0.0340    1.0330 N   0  0  0  0  0  0  0  0  0  0  0  0
    0.9670   -0.7190    0.0910 C   0  0  0  0  0  0  0  0  0  0  0  0
    0.4310   -1.7420   -0.4380 O   0  0  0  0  0  0  0  0  0  0  0  0
    2.3270   -0.4040   -0.3230 C   0  0  0  0  0  0  0  0  0  0  0  0
    3.0020    0.6310    0.1470 C   0  0  0  0  0  0  0  0  0  0  0  0
    4.3410    0.8930   -0.2980 N   0  0  0  0  0  0  0  0  0  0  0  0
    5.0490    2.0490    0.2500 C   0  0  0  0  0  0  0  0  0  0  0  0
    5.0110    0.1170   -1.2190 N   0  0  0  0  0  0  0  0  0  0  0  0
    4.3010   -1.0060   -1.7410 C   0  0  0  0  0  0  0  0  0  0  0  0
    4.8370   -1.7680   -2.5870 O   0  0  0  0  0  0  0  0  0  0  0  0
    2.9940   -1.2200   -1.2750 N   0  0  0  0  0  0  0  0  0  0  0  0
  1  2  1  0
  2  3  2  0
  2  9  1  0
  3  4  1  0
  4  5  2  0
  5  6  1  0
  6  7  1  0
  7  8  2  0
  7  9  1  0
  9 10  1  1
 10 11  1  0
 11 12  1  0
 12 13  2  0
 12 14  1  0
 14 15  2  0
 14 21  1  0
 15 16  1  0
 16 17  1  0
 16 18  1  0
 18 19  1  0
 19 20  2  0
 19 21  1  0
M  END
