
     RDKit          3D

 21 23  0  0  0  0  0  0  0  0999 V2000
   -1.3010   -0.3080   -1.5240 C   0  0  0  0  0  0  0  0  0  0  0  0
   -1.4800   -0.5700   -0.0440 C   0  0  1  0  0  0  0  0  0  0  0  0
   -0.4960    0.2400    0.7400 C   0  0  0  0  0  0  0  0  0  0  0  0
    0.8800   -0.0350    0.4400 N   0  0  0  0  0  0  0  0  0  0  0  0
    1.7120   -1.0020    1.0680 C   0  0  0  0  0  0  0  0  0  0  0  0
    1.4370   -1.8050    1.9920 O   0  0  0  0  0  0  0  0  0  0  0  0
    3.0490   -0.9450    0.4520 C   0  0  0  0  0  0  0  0  0  0  0  0
    4.2710   -1.4480    0.4490 C   0  0  0  0  0  0  0  0  0  0  0  0
    5.0810   -0.7750   -0.5680 C   0  0  0  0  0  0  0  0  0  0  0  0
    4.1530    0.2100   -1.1740 C   0  0  0  0  0  0  0  0  0  0  0  0
    4.4580    1.1140   -2.2130 O   0  0  0  0  0  0  0  0  0  0  0  0
    2.9910    0.0780   -0.5550 C   0  0  0  0  0  0  0  0  0  0  0  0
    1.6280    0.6460   -0.5590 C   0  0  0  0  0  0  0  0  0  0  0  0
    1.2320    1.5660   -1.3210 O   0  0  0  0  0  0  0  0  0  0  0  0
   -2.8460   -0.0670    0.3230 C   0  0  0  0  0  0  0  0  0  0  0  0
   -3.7250    0.4830   -0.4280 N   0  0  0  0  0  0  0  0  0  0  0  0
   -4.8910    0.8200    0.2880 C   0  0  0  0  0  0  0  0  0  0  0  0
   -6.0630    1.4390   -0.2170 N   0  0  0  0  0  0  0  0  0  0  0  0
   -4.7430    0.4720    1.5210 N   0  0  0  0  0  0  0  0  0  0  0  0
   -3.4370   -0.1210    1.6630 C   0  0  0  0  0  0  0  0  0  0  0  0
   -2.9290   -0.5810    2.7130 O   0  0  0  0  0  0  0  0  0  0  0  0
  2  1  1  6
  2  3  1  0
  2 15  1  0
  3  4  1  0
  4  5  1  0
  4 13  1  0
  5  6  2  0
  5  7  1  0
  7  8  2  0
  7 12  1  0
  8  9  1  0
  9 10  1  0
 10 11  1  0
 10 12  2  0
 12 13  1  0
 13 14  2  0
 15 16  2  0
 15 20  1  0
 16 17  1  0
 17 18  1  0
 17 19  2  0
 19 20  1  0
 20 21  2  0
M  END
