
     RDKit          3D

 21 23  0  0  0  0  0  0  0  0999 V2000
   -5.7830    1.3140   -1.0320 C   0  0  0  0  0  0  0  0  0  0  0  0
   -5.0780    0.1120   -0.4300 C   0  0  0  0  0  0  0  0  0  0  0  0
   -3.7540    0.4660   -0.2300 O   0  0  0  0  0  0  0  0  0  0  0  0
   -2.9840   -0.5260    0.3130 C   0  0  1  0  0  0  0  0  0  0  0  0
   -1.9580   -0.9550   -0.7180 C   0  0  0  0  0  0  0  0  0  0  0  0
   -0.9470   -1.8190    0.0040 C   0  0  0  0  0  0  0  0  0  0  0  0
   -0.0730   -1.0040    0.9070 C   0  0  1  0  0  0  0  0  0  0  0  0
    1.2280   -0.7540    0.2340 C   0  0  0  0  0  0  0  0  0  0  0  0
    1.5240   -1.1830   -0.9380 N   0  0  0  0  0  0  0  0  0  0  0  0
    2.8050   -0.7880   -1.2910 N   0  0  0  0  0  0  0  0  0  0  0  0
    3.3270   -0.0400   -0.2040 C   0  0  0  0  0  0  0  0  0  0  0  0
    4.5280    0.5230   -0.1310 C   0  0  0  0  0  0  0  0  0  0  0  0
    5.5390    0.4920   -1.1260 N   0  0  0  0  0  0  0  0  0  0  0  0
    6.6740    1.2180   -0.6520 C   0  0  0  0  0  0  0  0  0  0  0  0
    7.7360    1.3740   -1.3020 O   0  0  0  0  0  0  0  0  0  0  0  0
    6.4080    1.7170    0.6400 N   0  0  0  0  0  0  0  0  0  0  0  0
    5.0780    1.2920    0.9740 C   0  0  0  0  0  0  0  0  0  0  0  0
    4.5410    1.5750    2.0630 O   0  0  0  0  0  0  0  0  0  0  0  0
    2.3180   -0.0280    0.7500 O   0  0  0  0  0  0  0  0  0  0  0  0
   -0.7980    0.2460    1.2810 C   0  0  0  0  0  0  0  0  0  0  0  0
   -2.2530   -0.1370    1.5640 C   0  0  0  0  0  0  0  0  0  0  0  0
  1  2  1  0
  2  3  1  0
  4  3  1  6
  4  5  1  0
  4 21  1  0
  5  6  1  0
  6  7  1  0
  7  8  1  6
  7 20  1  0
  8  9  2  0
  8 19  1  0
  9 10  1  0
 10 11  1  0
 11 12  2  3
 11 19  1  0
 12 13  1  0
 12 17  1  0
 13 14  1  0
 14 15  2  0
 14 16  1  0
 16 17  1  0
 17 18  2  0
 20 21  1  0
M  END
