
     RDKit          3D

 21 23  0  0  0  0  0  0  0  0999 V2000
   -6.2270    1.1310   -1.7990 C   0  0  0  0  0  0  0  0  0  0  0  0
   -5.1340    0.2430   -1.9300 O   0  0  0  0  0  0  0  0  0  0  0  0
   -4.2240    0.0020   -0.9240 C   0  0  0  0  0  0  0  0  0  0  0  0
   -4.3600    0.5890    0.1570 O   0  0  0  0  0  0  0  0  0  0  0  0
   -3.1340   -0.8870   -1.0630 N   0  0  0  0  0  0  0  0  0  0  0  0
   -2.1780   -1.1940   -0.1340 N   0  0  0  0  0  0  0  0  0  0  0  0
   -2.4810   -0.8990    1.2270 C   0  0  0  0  0  0  0  0  0  0  0  0
   -1.4270   -1.5560    2.1110 C   0  0  0  0  0  0  0  0  0  0  0  0
   -0.1970   -1.1080    1.7540 O   0  0  0  0  0  0  0  0  0  0  0  0
   -0.1520   -0.2230    0.7020 C   0  0  1  0  0  0  0  0  0  0  0  0
    1.3000    0.0400    0.3710 C   0  0  0  0  0  0  0  0  0  0  0  0
    1.8550    1.2350    0.0980 N   0  0  0  0  0  0  0  0  0  0  0  0
    3.1690    1.0760   -0.1390 C   0  0  0  0  0  0  0  0  0  0  0  0
    4.2240    1.9320   -0.4630 C   0  0  0  0  0  0  0  0  0  0  0  0
    5.4920    1.4660   -0.6470 C   0  0  0  0  0  0  0  0  0  0  0  0
    6.5450    2.3460   -0.9730 O   0  0  0  0  0  0  0  0  0  0  0  0
    5.7750    0.1190   -0.5190 C   0  0  0  0  0  0  0  0  0  0  0  0
    4.7540   -0.7380   -0.2020 C   0  0  0  0  0  0  0  0  0  0  0  0
    3.4760   -0.2650   -0.0160 C   0  0  0  0  0  0  0  0  0  0  0  0
    2.2920   -0.8590    0.2980 N   0  0  0  0  0  0  0  0  0  0  0  0
   -0.8410   -0.7930   -0.4880 C   0  0  0  0  0  0  0  0  0  0  0  0
  1  2  1  0
  2  3  1  0
  3  4  2  0
  3  5  1  0
  5  6  1  0
  6  7  1  0
  6 21  1  0
  7  8  1  0
  8  9  1  0
  9 10  1  0
 10 11  1  6
 10 21  1  0
 11 12  2  0
 11 20  1  0
 12 13  1  0
 13 14  2  0
 13 19  1  0
 14 15  1  0
 15 16  1  0
 15 17  2  0
 17 18  1  0
 18 19  2  0
 19 20  1  0
M  END
