
     RDKit          3D

 20 22  0  0  0  0  0  0  0  0999 V2000
   -3.8180   -2.1930   -1.8560 C   0  0  0  0  0  0  0  0  0  0  0  0
   -3.2340   -1.1360   -0.9910 C   0  0  0  0  0  0  0  0  0  0  0  0
   -2.2020   -0.3970   -1.2690 N   0  0  0  0  0  0  0  0  0  0  0  0
   -1.9230    0.5090   -0.2060 C   0  0  1  0  0  0  0  0  0  0  0  0
   -0.6000    0.1490    0.4090 C   0  0  0  0  0  0  0  0  0  0  0  0
   -0.1560    0.8200    1.3670 O   0  0  0  0  0  0  0  0  0  0  0  0
    0.1950   -0.9330   -0.0410 N   0  0  0  0  0  0  0  0  0  0  0  0
    1.4370   -1.2360    0.5680 C   0  0  0  0  0  0  0  0  0  0  0  0
    2.4730   -0.1470    0.5220 C   0  0  2  0  0  0  0  0  0  0  0  0
    2.8470    0.2240   -0.8750 C   0  0  0  0  0  0  0  0  0  0  0  0
    4.3390    0.2440   -0.8680 C   0  0  0  0  0  0  0  0  0  0  0  0
    4.7170   -0.2600    0.4800 C   0  0  0  0  0  0  0  0  0  0  0  0
    3.6070   -0.6330    1.1660 O   0  0  0  0  0  0  0  0  0  0  0  0
   -1.9130    1.9640   -0.5370 C   0  0  0  0  0  0  0  0  0  0  0  0
   -2.2590    2.7770    0.5650 O   0  0  0  0  0  0  0  0  0  0  0  0
   -2.6310    2.3560    1.8180 C   0  0  0  0  0  0  0  0  0  0  0  0
   -2.5940    3.1640    2.7780 O   0  0  0  0  0  0  0  0  0  0  0  0
   -3.0480    1.0030    1.9780 N   0  0  0  0  0  0  0  0  0  0  0  0
   -3.0290    0.2120    0.7690 C   0  0  0  0  0  0  0  0  0  0  0  0
   -3.7200   -0.7300    0.2790 N   0  0  0  0  0  0  0  0  0  0  0  0
  1  2  1  0
  2  3  2  0
  2 20  1  0
  3  4  1  0
  4  5  1  1
  4 14  1  0
  4 19  1  0
  5  6  2  0
  5  7  1  0
  7  8  1  0
  9  8  1  6
  9 10  1  0
  9 13  1  0
 10 11  1  0
 11 12  1  0
 12 13  1  0
 14 15  1  0
 15 16  1  0
 16 17  2  0
 16 18  1  0
 18 19  1  0
 19 20  2  0
M  END
