
     RDKit          3D

 16 18  0  0  0  0  0  0  0  0999 V2000
    3.0000   -1.4370    0.1270 C   0  0  0  0  0  0  0  0  0  0  0  0
    1.5490   -1.0330    0.1080 C   0  0  0  0  0  0  0  0  0  0  0  0
    0.5710   -1.9390    0.2660 N   0  0  0  0  0  0  0  0  0  0  0  0
   -0.7400   -1.6010    0.2530 C   0  0  0  0  0  0  0  0  0  0  0  0
   -1.7890   -2.6180    0.4300 C   0  0  0  0  0  0  0  0  0  0  0  0
   -1.1360   -0.2820    0.0720 C   0  0  0  0  0  0  0  0  0  0  0  0
   -2.4510    0.1290    0.0480 C   0  0  0  0  0  0  0  0  0  0  0  0
   -3.3650   -0.7320    0.1980 O   0  0  0  0  0  0  0  0  0  0  0  0
   -2.7780    1.4440   -0.1350 N   0  0  0  0  0  0  0  0  0  0  0  0
   -1.8420    2.3950   -0.2990 C   0  0  0  0  0  0  0  0  0  0  0  0
   -0.5240    1.9910   -0.2760 C   0  0  0  0  0  0  0  0  0  0  0  0
    0.5140    2.8990   -0.4360 O   0  0  0  0  0  0  0  0  0  0  0  0
    1.8530    2.5480   -0.4220 C   0  0  0  0  0  0  0  0  0  0  0  0
    2.2200    1.2910   -0.2490 C   0  0  0  0  0  0  0  0  0  0  0  0
    1.1810    0.2840   -0.0740 C   0  0  0  0  0  0  0  0  0  0  0  0
   -0.1490    0.6650   -0.0930 C   0  0  0  0  0  0  0  0  0  0  0  0
  1  2  1  0
  2  3  2  0
  2 15  1  0
  3  4  1  0
  4  5  1  0
  4  6  2  0
  6  7  1  0
  6 16  1  0
  7  8  2  0
  7  9  1  0
  9 10  1  0
 10 11  2  0
 11 12  1  0
 11 16  1  0
 12 13  1  0
 13 14  2  0
 14 15  1  0
 15 16  2  0
M  END
