
     RDKit          3D

 16 17  0  0  0  0  0  0  0  0999 V2000
    3.8760    0.6220    0.2250 C   0  0  0  0  0  0  0  0  0  0  0  0
    2.9130    0.0660   -0.4500 N   0  0  0  0  0  0  0  0  0  0  0  0
    2.0400   -0.8870    0.0730 C   0  0  0  0  0  0  0  0  0  0  0  0
    2.6040   -2.0200    0.5370 C   0  0  0  0  0  0  0  0  0  0  0  0
    0.5730   -0.7520    0.1900 C   0  0  0  0  0  0  0  0  0  0  0  0
   -0.0220    0.3490   -0.2690 C   0  0  0  0  0  0  0  0  0  0  0  0
    0.7510    1.4370   -0.9030 C   0  0  0  0  0  0  0  0  0  0  0  0
   -0.1200    2.3720   -1.6670 C   0  0  0  0  0  0  0  0  0  0  0  0
   -1.3520    2.6800   -1.0920 O   0  0  0  0  0  0  0  0  0  0  0  0
   -2.1590    1.6860   -0.5450 C   0  0  0  0  0  0  0  0  0  0  0  0
   -3.3840    1.7950   -0.4200 O   0  0  0  0  0  0  0  0  0  0  0  0
   -1.4680    0.4750   -0.1160 C   0  0  0  0  0  0  0  0  0  0  0  0
   -2.1720   -0.5060    0.4720 C   0  0  0  0  0  0  0  0  0  0  0  0
   -3.6270   -0.3460    0.6080 C   0  0  0  0  0  0  0  0  0  0  0  0
   -1.5300   -1.6830    0.9640 N   0  0  0  0  0  0  0  0  0  0  0  0
   -0.1270   -1.8750    0.8090 C   0  0  0  0  0  0  0  0  0  0  0  0
  1  2  2  0
  2  3  1  0
  3  4  2  0
  3  5  1  0
  5  6  2  0
  5 16  1  0
  6  7  1  0
  6 12  1  0
  7  8  1  0
  8  9  1  0
  9 10  1  0
 10 11  2  0
 10 12  1  0
 12 13  2  0
 13 14  1  0
 13 15  1  0
 15 16  1  0
M  END
