
     RDKit          3D

 16 18  0  0  0  0  0  0  0  0999 V2000
   -0.6230   -2.7470   -1.0980 O   0  0  0  0  0  0  0  0  0  0  0  0
    0.2110   -1.8460   -0.8020 C   0  0  0  0  0  0  0  0  0  0  0  0
    1.5230   -1.9310   -1.0290 N   0  0  0  0  0  0  0  0  0  0  0  0
    2.0960   -0.7950   -0.5860 C   0  0  0  0  0  0  0  0  0  0  0  0
    3.3960   -0.3840   -0.6040 C   0  0  0  0  0  0  0  0  0  0  0  0
    3.7310    0.8430   -0.1110 C   0  0  0  0  0  0  0  0  0  0  0  0
    2.7750    1.6830    0.4070 C   0  0  0  0  0  0  0  0  0  0  0  0
    1.4520    1.2880    0.4370 C   0  0  0  0  0  0  0  0  0  0  0  0
    1.1070    0.0510   -0.0550 C   0  0  0  0  0  0  0  0  0  0  0  0
   -0.0330   -0.6400   -0.2090 N   0  0  0  0  0  0  0  0  0  0  0  0
   -1.3720   -0.2250    0.0970 C   0  0  0  0  0  0  0  0  0  0  0  0
   -1.6430    0.6230    1.0470 C   0  0  0  0  0  0  0  0  0  0  0  0
   -3.0180    1.0550    1.3540 C   0  0  0  0  0  0  0  0  0  0  0  0
   -3.9500    0.5070    0.5040 O   0  0  0  0  0  0  0  0  0  0  0  0
   -3.7080   -0.3860   -0.5070 C   0  0  0  0  0  0  0  0  0  0  0  0
   -2.4660   -0.7580   -0.7250 C   0  0  0  0  0  0  0  0  0  0  0  0
  1  2  2  0
  2  3  1  0
  2 10  1  0
  3  4  1  0
  4  5  2  0
  4  9  1  0
  5  6  1  0
  6  7  2  0
  7  8  1  0
  8  9  2  0
  9 10  1  0
 10 11  1  0
 11 12  2  0
 11 16  1  0
 12 13  1  0
 13 14  1  0
 14 15  1  0
 15 16  2  0
M  END
