
     RDKit          3D

 15 16  0  0  0  0  0  0  0  0999 V2000
   -3.0290   -0.0590    1.3250 C   0  0  0  0  0  0  0  0  0  0  0  0
   -2.4770    0.6000    0.1790 N   0  0  0  0  0  0  0  0  0  0  0  0
   -3.0530    1.8270   -0.2920 C   0  0  0  0  0  0  0  0  0  0  0  0
   -1.3630    0.0580   -0.5000 C   0  0  0  0  0  0  0  0  0  0  0  0
   -0.1750    0.0220    0.0330 N   0  0  0  0  0  0  0  0  0  0  0  0
    0.9670   -0.5140   -0.6160 C   0  0  0  0  0  0  0  0  0  0  0  0
    2.1540   -0.5230   -0.0220 C   0  0  0  0  0  0  0  0  0  0  0  0
    3.3890   -1.0400   -0.5790 C   0  0  0  0  0  0  0  0  0  0  0  0
    4.3420   -0.8560    0.3390 C   0  0  0  0  0  0  0  0  0  0  0  0
    3.7920   -0.2210    1.5240 C   0  0  0  0  0  0  0  0  0  0  0  0
    2.4820   -0.0230    1.3030 C   0  0  0  0  0  0  0  0  0  0  0  0
    1.6000    0.5550    2.1830 O   0  0  0  0  0  0  0  0  0  0  0  0
    0.7840   -1.0260   -1.8930 O   0  0  0  0  0  0  0  0  0  0  0  0
   -0.4810   -1.0000   -2.4880 C   0  0  0  0  0  0  0  0  0  0  0  0
   -1.5000   -0.4960   -1.8510 C   0  0  0  0  0  0  0  0  0  0  0  0
  1  2  1  0
  2  3  1  0
  2  4  1  0
  4  5  2  0
  4 15  1  0
  5  6  1  0
  6  7  2  3
  6 13  1  0
  7  8  1  0
  7 11  1  0
  8  9  2  0
  9 10  1  0
 10 11  2  0
 11 12  1  0
 13 14  1  0
 14 15  2  0
M  END
