
     RDKit          3D

 20 23  0  0  0  0  0  0  0  0999 V2000
   -2.2590    1.1020   -0.8410 C   0  0  0  0  0  0  0  0  0  0  0  0
   -2.1020    0.4460    0.5070 C   0  0  2  0  0  0  0  0  0  0  0  0
   -1.4000    1.2910    1.5020 C   0  0  0  0  0  0  0  0  0  0  0  0
    0.0550    1.4030    1.1840 C   0  0  0  0  0  0  0  0  0  0  0  0
    0.7200    0.1120    0.8380 C   0  0  2  0  0  0  0  0  0  0  0  0
    2.0720    0.3450    0.3260 C   0  0  0  0  0  0  0  0  0  0  0  0
    2.7720    1.5100    0.6070 C   0  0  0  0  0  0  0  0  0  0  0  0
    4.0460    1.7470    0.1330 C   0  0  0  0  0  0  0  0  0  0  0  0
    4.6120    0.7600   -0.6480 C   0  0  0  0  0  0  0  0  0  0  0  0
    5.8800    0.9530   -1.1410 O   0  0  0  0  0  0  0  0  0  0  0  0
    3.9410   -0.3880   -0.9330 C   0  0  0  0  0  0  0  0  0  0  0  0
    2.6640   -0.6130   -0.4510 C   0  0  0  0  0  0  0  0  0  0  0  0
    2.0260   -1.8990   -0.8240 C   0  0  0  0  0  0  0  0  0  0  0  0
    0.6360   -2.0400   -0.2920 C   0  0  0  0  0  0  0  0  0  0  0  0
   -0.0730   -0.7060   -0.1730 C   0  0  1  0  0  0  0  0  0  0  0  0
   -1.4220   -0.9190    0.3900 C   0  0  2  0  0  0  0  0  0  0  0  0
   -2.3800   -1.6700   -0.4550 C   0  0  0  0  0  0  0  0  0  0  0  0
   -3.7430   -1.0970   -0.0810 C   0  0  0  0  0  0  0  0  0  0  0  0
   -3.4740   -0.0180    0.9500 C   0  0  2  0  0  0  0  0  0  0  0  0
   -4.4090    0.9960    0.9100 O   0  0  0  0  0  0  0  0  0  0  0  0
  2  1  1  6
  2  3  1  0
  2 16  1  0
  2 19  1  0
  3  4  1  0
  5  4  1  6
  5  6  1  0
  5 15  1  0
  6  7  2  0
  6 12  1  0
  7  8  1  0
  8  9  2  0
  9 10  1  0
  9 11  1  0
 11 12  2  0
 12 13  1  0
 13 14  1  0
 15 14  1  1
 15 16  1  0
 16 17  1  6
 17 18  1  0
 18 19  1  0
 19 20  1  6
M  END
