
     RDKit          3D

 16 18  0  0  0  0  0  0  0  0999 V2000
    2.7780   -0.7770   -1.0020 C   0  0  0  0  0  0  0  0  0  0  0  0
    2.1790   -0.4350    0.3190 C   0  0  0  0  0  0  0  0  0  0  0  0
    2.6780   -0.8050    1.5280 N   0  0  0  0  0  0  0  0  0  0  0  0
    1.9180   -0.2440    2.4480 N   0  0  0  0  0  0  0  0  0  0  0  0
    0.9370    0.4830    1.8660 C   0  0  0  0  0  0  0  0  0  0  0  0
    1.1080    0.3550    0.4870 C   0  0  0  0  0  0  0  0  0  0  0  0
    0.1040    0.9270   -0.4870 C   0  0  2  0  0  0  0  0  0  0  0  0
   -0.3920    2.2070    0.0400 C   0  0  0  0  0  0  0  0  0  0  0  0
   -1.7570    2.3610    0.4630 C   0  0  0  0  0  0  0  0  0  0  0  0
   -2.1330    3.4700    0.9130 O   0  0  0  0  0  0  0  0  0  0  0  0
   -2.6860    1.3420    0.3980 O   0  0  0  0  0  0  0  0  0  0  0  0
   -2.3270    0.0850   -0.0850 C   0  0  0  0  0  0  0  0  0  0  0  0
   -3.0360   -1.0400   -0.2400 C   0  0  0  0  0  0  0  0  0  0  0  0
   -2.1430   -2.0530   -0.7920 C   0  0  0  0  0  0  0  0  0  0  0  0
   -0.8450   -1.3690   -0.9360 C   0  0  0  0  0  0  0  0  0  0  0  0
   -0.9690   -0.1270   -0.5190 C   0  0  0  0  0  0  0  0  0  0  0  0
  1  2  1  0
  2  3  1  0
  2  6  2  0
  3  4  1  0
  4  5  2  0
  5  6  1  0
  7  6  1  1
  7  8  1  0
  7 16  1  0
  8  9  1  0
  9 10  2  0
  9 11  1  0
 11 12  1  0
 12 13  2  0
 12 16  1  0
 13 14  1  0
 14 15  1  0
 15 16  2  0
M  END
