
     RDKit          3D

 16 18  0  0  0  0  0  0  0  0999 V2000
   -1.8820    2.9170    0.2890 O   0  0  0  0  0  0  0  0  0  0  0  0
   -0.8500    2.2580    0.0630 C   0  0  0  0  0  0  0  0  0  0  0  0
    0.3710    2.9560   -0.1710 N   0  0  0  0  0  0  0  0  0  0  0  0
    1.6670    2.5100    0.0650 N   0  0  0  0  0  0  0  0  0  0  0  0
    2.1520    1.3290    0.2040 C   0  0  0  0  0  0  0  0  0  0  0  0
    3.4980    1.0650    0.4430 O   0  0  0  0  0  0  0  0  0  0  0  0
    3.6970   -0.3200    0.5560 C   0  0  0  0  0  0  0  0  0  0  0  0
    2.3370   -0.9490    0.3610 C   0  0  0  0  0  0  0  0  0  0  0  0
    1.4850    0.0200    0.1590 C   0  0  0  0  0  0  0  0  0  0  0  0
    0.0820   -0.1930   -0.1050 C   0  0  0  0  0  0  0  0  0  0  0  0
    0.0040   -1.4240   -0.5620 C   0  0  0  0  0  0  0  0  0  0  0  0
   -1.2570   -2.0610   -0.9540 C   0  0  0  0  0  0  0  0  0  0  0  0
   -2.4870   -1.7740   -0.6050 C   0  0  0  0  0  0  0  0  0  0  0  0
   -2.9930   -0.7320    0.2840 C   0  0  0  0  0  0  0  0  0  0  0  0
   -2.2860    0.5610    0.2160 C   0  0  0  0  0  0  0  0  0  0  0  0
   -1.0090    0.8050    0.0630 C   0  0  0  0  0  0  0  0  0  0  0  0
  1  2  2  0
  2  3  1  0
  2 16  1  0
  3  4  1  0
  4  5  2  0
  5  6  1  0
  5  9  1  0
  6  7  1  0
  7  8  1  0
  8  9  2  0
  9 10  1  0
 10 11  2  0
 10 16  1  0
 11 12  1  0
 12 13  2  0
 13 14  1  0
 14 15  1  0
 15 16  2  0
M  END
