
     RDKit          3D

  6  5  0  0  0  0  0  0  0  0999 V2000
    1.9130   -0.4960   -1.1140 C   0  0  0  0  0  0  0  0  0  0  0  0
    1.5070   -0.2640    0.1260 C   0  0  0  0  0  0  0  0  0  0  0  0
    0.6410    0.9100    0.3920 C   0  0  0  0  0  0  0  0  0  0  0  0
   -0.6880    0.5130    0.9750 C   0  0  0  0  0  0  0  0  0  0  0  0
   -1.4670   -0.3990    0.0570 C   0  0  0  0  0  0  0  0  0  0  0  0
   -1.7080    0.2400   -1.1560 O   0  0  0  0  0  0  0  0  0  0  0  0
  1  2  2  0
  2  3  1  0
  3  4  1  0
  4  5  1  0
  5  6  1  0
M  END
