
     RDKit          3D

  6  5  0  0  0  0  0  0  0  0999 V2000
   -0.7460    1.3990    0.4030 C   0  0  0  0  0  0  0  0  0  0  0  0
   -0.4760    0.0250   -0.0730 C   0  0  0  0  0  0  0  0  0  0  0  0
   -1.6610   -0.8120   -0.4030 C   0  0  0  0  0  0  0  0  0  0  0  0
    0.7500   -0.4550   -0.2070 C   0  0  0  0  0  0  0  0  0  0  0  0
    1.9470    0.3450    0.1090 C   0  0  0  0  0  0  0  0  0  0  0  0
    0.9170   -1.7570   -0.6610 O   0  0  0  0  0  0  0  0  0  0  0  0
  1  2  1  0
  2  3  1  0
  2  4  2  3
  4  5  1  0
  4  6  1  0
M  END
