
     RDKit          3D

  7  6  0  0  0  0  0  0  0  0999 V2000
   -1.8440   -0.7530    0.7130 C   0  0  0  0  0  0  0  0  0  0  0  0
   -1.2830    0.3310    0.2390 C   0  0  0  0  0  0  0  0  0  0  0  0
   -2.0480    1.6190    0.0670 C   0  0  0  0  0  0  0  0  0  0  0  0
    0.1510    0.3830   -0.1670 C   0  0  0  0  0  0  0  0  0  0  0  0
    0.7410   -0.9700    0.0740 C   0  0  0  0  0  0  0  0  0  0  0  0
    2.2060   -0.9130   -0.3430 C   0  0  0  0  0  0  0  0  0  0  0  0
    2.9100    0.0260    0.3790 O   0  0  0  0  0  0  0  0  0  0  0  0
  1  2  2  0
  2  3  1  0
  2  4  1  0
  4  5  1  0
  5  6  1  0
  6  7  1  0
M  END
