
     RDKit          3D

  7  7  0  0  0  0  0  0  0  0999 V2000
    2.4350   -0.6280   -0.1880 O   0  0  0  0  0  0  0  0  0  0  0  0
    1.0970   -0.2670   -0.0870 C   0  0  0  0  0  0  0  0  0  0  0  0
    0.7340    1.0560   -0.2200 C   0  0  0  0  0  0  0  0  0  0  0  0
   -0.6030    1.4500   -0.1230 C   0  0  0  0  0  0  0  0  0  0  0  0
   -1.6020    0.5280    0.1090 C   0  0  0  0  0  0  0  0  0  0  0  0
   -1.2410   -0.7960    0.2420 C   0  0  0  0  0  0  0  0  0  0  0  0
    0.0780   -1.1670    0.1440 C   0  0  0  0  0  0  0  0  0  0  0  0
  1  2  1  0
  2  3  2  0
  2  7  1  0
  3  4  1  0
  4  5  2  0
  5  6  1  0
  6  7  2  0
M  END
