
     RDKit          3D

  7  7  0  0  0  0  0  0  0  0999 V2000
   -0.0170    1.3680   -0.6240 C   0  0  0  0  0  0  0  0  0  0  0  0
    0.0790    0.1790    0.2920 C   0  0  1  0  0  0  0  0  0  0  0  0
    1.3660    0.1350    1.0300 C   0  0  0  0  0  0  0  0  0  0  0  0
    2.4020    0.0640    0.0750 O   0  0  0  0  0  0  0  0  0  0  0  0
   -1.1720   -0.0650    1.1060 C   0  0  0  0  0  0  0  0  0  0  0  0
   -1.6830   -0.8950   -0.0780 C   0  0  0  0  0  0  0  0  0  0  0  0
   -0.2060   -1.1340   -0.4140 C   0  0  0  0  0  0  0  0  0  0  0  0
  2  1  1  6
  2  3  1  0
  2  5  1  0
  2  7  1  0
  3  4  1  0
  5  6  1  0
  6  7  1  0
M  END
