
     RDKit          3D

  7  7  0  0  0  0  0  0  0  0999 V2000
    2.1140    0.1840   -0.6190 C   0  0  0  0  0  0  0  0  0  0  0  0
    1.4720   -0.8320    0.3000 C   0  0  0  0  0  0  0  0  0  0  0  0
    0.1090   -0.3880    0.7620 C   0  0  0  0  0  0  0  0  0  0  0  0
   -0.8560   -0.1740   -0.3730 C   0  0  1  0  0  0  0  0  0  0  0  0
   -1.1040   -1.2960   -1.1610 O   0  0  0  0  0  0  0  0  0  0  0  0
   -2.0860    0.6640    0.0160 C   0  0  0  0  0  0  0  0  0  0  0  0
   -1.0950    1.1470   -0.9660 C   0  0  0  0  0  0  0  0  0  0  0  0
  1  2  1  0
  2  3  1  0
  3  4  1  0
  4  5  1  6
  4  6  1  0
  4  7  1  0
  6  7  1  0
M  END
