
     RDKit          3D

  7  7  0  0  0  0  0  0  0  0999 V2000
    2.4630   -0.2470    0.4590 O   0  0  0  0  0  0  0  0  0  0  0  0
    1.2500   -0.1950   -0.2680 C   0  0  1  0  0  0  0  0  0  0  0  0
    0.3640   -1.2280    0.3500 C   0  0  0  0  0  0  0  0  0  0  0  0
   -1.0940   -1.0450    0.0430 C   0  0  0  0  0  0  0  0  0  0  0  0
   -1.5570    0.3600    0.4070 C   0  0  0  0  0  0  0  0  0  0  0  0
   -0.7490    1.3180   -0.4170 C   0  0  0  0  0  0  0  0  0  0  0  0
    0.7240    1.1920   -0.2150 C   0  0  0  0  0  0  0  0  0  0  0  0
  2  1  1  1
  2  3  1  0
  2  7  1  0
  3  4  1  0
  4  5  1  0
  5  6  1  0
  6  7  1  0
M  END
