
     RDKit          3D

  7  7  0  0  0  0  0  0  0  0999 V2000
    2.7030   -0.2280   -0.0110 C   0  0  0  0  0  0  0  0  0  0  0  0
    1.4950    0.0670    0.6580 O   0  0  0  0  0  0  0  0  0  0  0  0
    0.4370   -0.0620   -0.2120 C   0  0  2  0  0  0  0  0  0  0  0  0
   -0.3750    1.2040   -0.3540 C   0  0  0  0  0  0  0  0  0  0  0  0
   -1.8050    0.7570   -0.2750 C   0  0  0  0  0  0  0  0  0  0  0  0
   -1.7490   -0.3810    0.7010 C   0  0  0  0  0  0  0  0  0  0  0  0
   -0.4990   -1.1340    0.2660 C   0  0  0  0  0  0  0  0  0  0  0  0
  1  2  1  0
  3  2  1  1
  3  4  1  0
  3  7  1  0
  4  5  1  0
  5  6  1  0
  6  7  1  0
M  END
