
     RDKit          3D

 28 31  0  0  0  0  0  0  0  0999 V2000
   -1.5280    1.7400    0.0790 O   0  0  0  0  0  0  0  0  0  0  0  0
   -2.6460    1.1740   -0.0060 C   0  0  0  0  0  0  0  0  0  0  0  0
   -3.7180    1.8740   -0.4140 N   0  0  0  0  0  0  0  0  0  0  0  0
   -4.9570    1.3240   -0.5290 C   0  0  0  0  0  0  0  0  0  0  0  0
   -6.0220    2.0810   -0.9510 C   0  0  0  0  0  0  0  0  0  0  0  0
   -7.2540    1.4760   -1.0490 C   0  0  0  0  0  0  0  0  0  0  0  0
   -7.3900    0.1410   -0.7260 C   0  0  0  0  0  0  0  0  0  0  0  0
   -6.3250   -0.6250   -0.3010 C   0  0  0  0  0  0  0  0  0  0  0  0
   -5.0660   -0.0230   -0.1970 C   0  0  0  0  0  0  0  0  0  0  0  0
   -4.0030   -0.7330    0.2130 N   0  0  0  0  0  0  0  0  0  0  0  0
   -3.8950   -2.0190    0.5740 C   0  0  0  0  0  0  0  0  0  0  0  0
   -2.5990   -2.2640    0.9100 N   0  0  0  0  0  0  0  0  0  0  0  0
   -1.9000   -1.1290    0.7570 C   0  0  0  0  0  0  0  0  0  0  0  0
   -0.5150   -0.9040    0.9870 N   0  0  0  0  0  0  0  0  0  0  0  0
    0.2610   -1.9920    1.4360 C   0  0  0  0  0  0  0  0  0  0  0  0
    1.4950   -2.1330    1.0230 C   0  0  0  0  0  0  0  0  0  0  0  0
    2.0560   -1.1950    0.1240 N   0  0  0  0  0  0  0  0  0  0  0  0
    3.3690   -0.7140    0.4020 C   0  0  0  0  0  0  0  0  0  0  0  0
    4.0920   -1.1280    1.5010 C   0  0  0  0  0  0  0  0  0  0  0  0
    5.3650   -0.6720    1.7860 C   0  0  0  0  0  0  0  0  0  0  0  0
    5.9430    0.2430    0.9310 C   0  0  0  0  0  0  0  0  0  0  0  0
    5.2570    0.6830   -0.1780 C   0  0  0  0  0  0  0  0  0  0  0  0
    5.8730    1.6270   -1.0450 N   0  0  0  0  0  0  0  0  0  0  0  0
    7.5000    1.4300   -1.5300 S   0  0  2  0  0  0  0  0  0  0  0  0
    7.6680    2.0450   -2.8910 O   0  0  0  0  0  0  0  0  0  0  0  0
    7.8530   -0.0440   -1.6710 O   0  0  0  0  0  0  0  0  0  0  0  0
    3.9870    0.2130   -0.4400 C   0  0  0  0  0  0  0  0  0  0  0  0
   -2.7870   -0.1630    0.3170 C   0  0  0  0  0  0  0  0  0  0  0  0
  1  2  2  0
  2  3  1  0
  2 28  1  0
  3  4  1  0
  4  5  2  0
  4  9  1  0
  5  6  1  0
  6  7  2  0
  7  8  1  0
  8  9  2  0
  9 10  1  0
 10 11  1  0
 10 28  1  0
 11 12  2  0
 12 13  1  0
 13 14  1  0
 13 28  2  0
 14 15  1  0
 15 16  2  3
 16 17  1  0
 17 18  1  0
 18 19  2  0
 18 27  1  0
 19 20  1  0
 20 21  2  0
 21 22  1  0
 22 23  1  0
 22 27  2  0
 24 23  1  6
 24 25  2  0
 24 26  2  0
M  END
