
     RDKit          3D

  8  8  0  0  0  0  0  0  0  0999 V2000
    2.6290    1.3950   -0.6430 Cl  0  0  0  0  0  0  0  0  0  0  0  0
    2.2380    0.1280    0.5540 C   0  0  0  0  0  0  0  0  0  0  0  0
    1.2450   -0.8030   -0.1110 C   0  0  0  0  0  0  0  0  0  0  0  0
    0.0380    0.0000   -0.4780 C   0  0  2  0  0  0  0  0  0  0  0  0
   -0.6380    0.6460    0.6940 C   0  0  0  0  0  0  0  0  0  0  0  0
   -2.0790    0.6970    0.2320 C   0  0  0  0  0  0  0  0  0  0  0  0
   -2.1390    0.0690   -0.9960 O   0  0  0  0  0  0  0  0  0  0  0  0
   -1.0990   -0.8820   -0.9860 C   0  0  0  0  0  0  0  0  0  0  0  0
  1  2  1  0
  2  3  1  0
  4  3  1  1
  4  5  1  0
  4  8  1  0
  5  6  1  0
  6  7  1  0
  7  8  1  0
M  END
