
     RDKit          3D

  7  7  0  0  0  0  0  0  0  0999 V2000
    2.5620    0.2270   -1.1970 O   0  0  0  0  0  0  0  0  0  0  0  0
    1.9130    0.0280    0.0410 C   0  0  0  0  0  0  0  0  0  0  0  0
    1.1030   -1.2120    0.0190 C   0  0  0  0  0  0  0  0  0  0  0  0
   -0.2010   -1.1910    0.2190 C   0  0  0  0  0  0  0  0  0  0  0  0
   -0.8470    0.0610    0.4630 C   0  0  2  0  0  0  0  0  0  0  0  0
   -1.8700    1.0440    0.3290 C   0  0  0  0  0  0  0  0  0  0  0  0
   -1.7440    0.0980   -0.6350 C   0  0  0  0  0  0  0  0  0  0  0  0
  1  2  1  0
  2  3  1  0
  3  4  2  3
  5  4  1  1
  5  6  1  0
  5  7  1  0
  6  7  1  0
M  END
