
     RDKit          3D

  8  8  0  0  0  0  0  0  0  0999 V2000
   -2.1670   -0.7250   -0.6370 O   0  0  0  0  0  0  0  0  0  0  0  0
   -1.2030   -0.8870    0.3310 C   0  0  0  0  0  0  0  0  0  0  0  0
   -0.1070    0.1680    0.1570 C   0  0  2  0  0  0  0  0  0  0  0  0
   -0.6780    1.5410    0.2750 C   0  0  0  0  0  0  0  0  0  0  0  0
   -1.9150    1.7170   -1.0180 Cl  0  0  0  0  0  0  0  0  0  0  0  0
    0.6870    0.0150   -1.1100 C   0  0  0  0  0  0  0  0  0  0  0  0
    1.9060   -0.2790   -0.2700 C   0  0  0  0  0  0  0  0  0  0  0  0
    1.0880   -0.1450    1.0000 C   0  0  0  0  0  0  0  0  0  0  0  0
  1  2  1  0
  3  2  1  6
  3  4  1  0
  3  6  1  0
  3  8  1  0
  4  5  1  0
  6  7  1  0
  7  8  1  0
M  END
