
     RDKit          3D

  7  7  0  0  0  0  0  0  0  0999 V2000
   -0.5310    1.0610    1.0580 C   0  0  0  0  0  0  0  0  0  0  0  0
   -0.5710    0.0090   -0.0320 C   0  0  1  0  0  0  0  0  0  0  0  0
    0.6230   -0.0100   -0.9380 C   0  0  0  0  0  0  0  0  0  0  0  0
    1.9150   -0.2690   -0.2150 C   0  0  0  0  0  0  0  0  0  0  0  0
    2.1730    0.7020    0.7460 O   0  0  0  0  0  0  0  0  0  0  0  0
   -1.3970   -1.1750    0.2170 C   0  0  0  0  0  0  0  0  0  0  0  0
   -1.8980   -0.1380   -0.7500 C   0  0  0  0  0  0  0  0  0  0  0  0
  2  1  1  1
  2  3  1  0
  2  6  1  0
  2  7  1  0
  3  4  1  0
  4  5  1  0
  6  7  1  0
M  END
