
     RDKit          3D

  8  8  0  0  0  0  0  0  0  0999 V2000
    2.4780   -0.6000    0.1450 O   0  0  0  0  0  0  0  0  0  0  0  0
    1.1260   -0.2560    0.1020 C   0  0  0  0  0  0  0  0  0  0  0  0
    0.7280    1.0700    0.1010 C   0  0  0  0  0  0  0  0  0  0  0  0
   -0.6110    1.4160    0.0590 C   0  0  0  0  0  0  0  0  0  0  0  0
   -1.6000    0.4570    0.0160 C   0  0  0  0  0  0  0  0  0  0  0  0
   -1.2150   -0.8660    0.0170 C   0  0  0  0  0  0  0  0  0  0  0  0
   -2.4740   -2.0870   -0.0380 Cl  0  0  0  0  0  0  0  0  0  0  0  0
    0.1320   -1.2130    0.0590 C   0  0  0  0  0  0  0  0  0  0  0  0
  1  2  1  0
  2  3  2  0
  2  8  1  0
  3  4  1  0
  4  5  2  0
  5  6  1  0
  6  7  1  0
  6  8  2  0
M  END
