
     RDKit          3D

  8  7  0  0  0  0  0  0  0  0999 V2000
   -1.5520    1.1460    0.4890 C   0  0  0  0  0  0  0  0  0  0  0  0
   -0.4780    0.1260    0.0830 C   0  0  2  0  0  0  0  0  0  0  0  0
   -0.9380   -0.5170   -1.1940 C   0  0  0  0  0  0  0  0  0  0  0  0
   -0.4930   -0.9300    1.1610 C   0  0  0  0  0  0  0  0  0  0  0  0
   -2.1530   -1.6250    1.1560 Cl  0  0  0  0  0  0  0  0  0  0  0  0
    0.7980    0.8700   -0.0330 C   0  0  0  0  0  0  0  0  0  0  0  0
    1.9910    0.0750   -0.4210 C   0  0  0  0  0  0  0  0  0  0  0  0
    2.3260   -0.9470    0.4360 O   0  0  0  0  0  0  0  0  0  0  0  0
  2  1  1  1
  2  3  1  0
  2  4  1  0
  2  6  1  0
  4  5  1  0
  6  7  1  0
  7  8  1  0
M  END
