
     RDKit          3D

 21 22  0  0  0  0  0  0  0  0999 V2000
   -4.1630    1.3480    2.2610 C   0  0  0  0  0  0  0  0  0  0  0  0
   -3.9160    1.6890    0.8310 C   0  0  0  0  0  0  0  0  0  0  0  0
   -3.4600    0.5380   -0.0210 C   0  0  2  0  0  0  0  0  0  0  0  0
   -4.4180   -0.5930   -0.0810 C   0  0  0  0  0  0  0  0  0  0  0  0
   -4.4730   -1.1380   -1.5070 C   0  0  0  0  0  0  0  0  0  0  0  0
   -3.2430   -1.9600   -1.8150 C   0  0  0  0  0  0  0  0  0  0  0  0
   -1.9760   -1.1500   -1.6490 C   0  0  0  0  0  0  0  0  0  0  0  0
   -1.5480   -0.9860   -0.3110 N   0  0  0  0  0  0  0  0  0  0  0  0
   -0.1440   -1.1130   -0.1760 C   0  0  0  0  0  0  0  0  0  0  0  0
    0.5310    0.0260   -0.8580 C   0  0  0  0  0  0  0  0  0  0  0  0
   -0.1810    0.8910   -1.4320 O   0  0  0  0  0  0  0  0  0  0  0  0
    1.9380    0.1570   -0.8760 N   0  0  0  0  0  0  0  0  0  0  0  0
    2.5300    1.2860   -1.5570 C   0  0  0  0  0  0  0  0  0  0  0  0
    3.9800    1.4430   -1.0880 C   0  0  0  0  0  0  0  0  0  0  0  0
    3.9700    1.2600    0.4020 C   0  0  2  0  0  0  0  0  0  0  0  0
    5.1950    1.6680    0.9690 O   0  0  0  0  0  0  0  0  0  0  0  0
    3.7570   -0.2050    0.7230 C   0  0  2  0  0  0  0  0  0  0  0  0
    3.3090   -0.2860    2.1630 C   0  0  0  0  0  0  0  0  0  0  0  0
    5.0630   -0.9600    0.5910 C   0  0  0  0  0  0  0  0  0  0  0  0
    2.7450   -0.8320   -0.2210 C   0  0  0  0  0  0  0  0  0  0  0  0
   -2.1210    0.0360    0.4720 C   0  0  0  0  0  0  0  0  0  0  0  0
  1  2  1  0
  3  2  1  1
  3  4  1  0
  3 21  1  0
  4  5  1  0
  5  6  1  0
  6  7  1  0
  7  8  1  0
  8  9  1  0
  8 21  1  0
  9 10  1  0
 10 11  2  0
 10 12  1  0
 12 13  1  0
 12 20  1  0
 13 14  1  0
 14 15  1  0
 15 16  1  6
 15 17  1  0
 17 18  1  1
 17 19  1  0
 17 20  1  0
M  END
