
     RDKit          3D

 21 22  0  0  0  0  0  0  0  0999 V2000
    5.1330    0.9910   -0.4790 C   0  0  0  0  0  0  0  0  0  0  0  0
    4.2850    1.4280    0.6720 C   0  0  0  0  0  0  0  0  0  0  0  0
    3.5320    0.3890    1.4090 C   0  0  0  0  0  0  0  0  0  0  0  0
    2.5870   -0.4230    0.6450 C   0  0  0  0  0  0  0  0  0  0  0  0
    2.9320   -1.5830    0.0040 C   0  0  0  0  0  0  0  0  0  0  0  0
    4.2630   -2.1970    0.1420 C   0  0  0  0  0  0  0  0  0  0  0  0
    2.0230   -2.2690   -0.7640 N   0  0  0  0  0  0  0  0  0  0  0  0
    0.7770   -1.7900   -0.8810 C   0  0  0  0  0  0  0  0  0  0  0  0
    0.3340   -0.6280   -0.2710 C   0  0  0  0  0  0  0  0  0  0  0  0
   -0.9960   -0.1540   -0.4320 N   0  0  0  0  0  0  0  0  0  0  0  0
   -2.0120   -0.3030    0.5780 C   0  0  0  0  0  0  0  0  0  0  0  0
   -3.0950    0.7110    0.4820 C   0  0  2  0  0  0  0  0  0  0  0  0
   -2.6260    2.0000    1.1480 C   0  0  0  0  0  0  0  0  0  0  0  0
   -4.2770    0.2370    1.3120 C   0  0  0  0  0  0  0  0  0  0  0  0
   -4.8330   -1.0700    0.8640 C   0  0  0  0  0  0  0  0  0  0  0  0
   -3.5820    1.0420   -0.8810 C   0  0  0  0  0  0  0  0  0  0  0  0
   -2.8300    0.4460   -2.0230 C   0  0  0  0  0  0  0  0  0  0  0  0
   -1.3740    0.4960   -1.6440 C   0  0  0  0  0  0  0  0  0  0  0  0
   -0.4970    1.0640   -2.3270 O   0  0  0  0  0  0  0  0  0  0  0  0
    1.2720    0.0340    0.4910 C   0  0  0  0  0  0  0  0  0  0  0  0
    0.9370    1.0920    1.0730 O   0  0  0  0  0  0  0  0  0  0  0  0
  1  2  1  0
  2  3  1  0
  3  4  1  0
  4  5  2  0
  4 20  1  0
  5  6  1  0
  5  7  1  0
  7  8  1  0
  8  9  2  0
  9 10  1  0
  9 20  1  0
 10 11  1  0
 10 18  1  0
 11 12  1  0
 12 13  1  1
 12 14  1  0
 12 16  1  0
 14 15  1  0
 16 17  1  0
 17 18  1  0
 18 19  2  0
 20 21  2  0
M  END
