
     RDKit          3D

 22 25  0  0  0  0  0  0  0  0999 V2000
    4.6330    1.2730    0.5400 C   0  0  0  0  0  0  0  0  0  0  0  0
    4.9970    0.0720   -0.2960 C   0  0  0  0  0  0  0  0  0  0  0  0
    4.2890   -1.1090    0.1240 N   0  0  0  0  0  0  0  0  0  0  0  0
    2.8670   -1.2030    0.1010 C   0  0  0  0  0  0  0  0  0  0  0  0
    2.2510   -2.3620    0.5400 C   0  0  0  0  0  0  0  0  0  0  0  0
    0.8650   -2.4990    0.5340 C   0  0  0  0  0  0  0  0  0  0  0  0
    0.1160   -1.4420    0.0750 C   0  0  0  0  0  0  0  0  0  0  0  0
    0.7160   -0.2670   -0.3690 C   0  0  0  0  0  0  0  0  0  0  0  0
    2.0880   -0.1610   -0.3520 C   0  0  0  0  0  0  0  0  0  0  0  0
    0.0610    0.9150   -0.8300 N   0  0  0  0  0  0  0  0  0  0  0  0
   -1.2180    1.3300   -0.3750 C   0  0  0  0  0  0  0  0  0  0  0  0
   -1.3150    2.7040   -0.3120 C   0  0  0  0  0  0  0  0  0  0  0  0
   -2.4520    3.2670    0.2170 C   0  0  0  0  0  0  0  0  0  0  0  0
   -3.4800    2.4790    0.6810 C   0  0  0  0  0  0  0  0  0  0  0  0
   -3.4090    1.0790    0.6290 C   0  0  0  0  0  0  0  0  0  0  0  0
   -2.2800    0.5360    0.0960 C   0  0  0  0  0  0  0  0  0  0  0  0
   -2.3710   -0.8820    0.0200 N   0  0  0  0  0  0  0  0  0  0  0  0
   -3.5080   -1.5560   -0.0870 C   0  0  0  0  0  0  0  0  0  0  0  0
   -4.8680   -1.0550   -0.2660 C   0  0  0  0  0  0  0  0  0  0  0  0
   -3.1170   -2.8760   -0.0940 N   0  0  0  0  0  0  0  0  0  0  0  0
   -1.8280   -2.9900   -0.0030 N   0  0  0  0  0  0  0  0  0  0  0  0
   -1.3180   -1.7560    0.0670 C   0  0  0  0  0  0  0  0  0  0  0  0
  1  2  1  0
  2  3  1  0
  3  4  1  0
  4  5  2  0
  4  9  1  0
  5  6  1  0
  6  7  2  0
  7  8  1  0
  7 22  1  0
  8  9  2  0
  8 10  1  0
 10 11  1  0
 11 12  2  0
 11 16  1  0
 12 13  1  0
 13 14  2  0
 14 15  1  0
 15 16  2  0
 16 17  1  0
 17 18  1  0
 17 22  1  0
 18 19  1  0
 18 20  2  0
 20 21  1  0
 21 22  2  0
M  END
