
     RDKit          3D

 21 22  0  0  0  0  0  0  0  0999 V2000
    4.8390    0.9440    0.2970 C   0  0  0  0  0  0  0  0  0  0  0  0
    3.8620    0.8900    1.4280 C   0  0  0  0  0  0  0  0  0  0  0  0
    2.4490    1.0370    0.8880 C   0  0  0  0  0  0  0  0  0  0  0  0
    2.1730   -0.1150   -0.0950 C   0  0  0  0  0  0  0  0  0  0  0  0
    0.7950    0.0340   -0.6190 C   0  0  0  0  0  0  0  0  0  0  0  0
   -0.1100   -0.8600   -0.3980 C   0  0  0  0  0  0  0  0  0  0  0  0
    0.1190   -2.1040    0.3760 C   0  0  0  0  0  0  0  0  0  0  0  0
    1.1630   -2.4590    0.9110 O   0  0  0  0  0  0  0  0  0  0  0  0
   -0.9560   -3.0130    0.5390 O   0  0  0  0  0  0  0  0  0  0  0  0
   -0.7500   -4.2080    1.2760 C   0  0  0  0  0  0  0  0  0  0  0  0
   -1.5070   -0.6760   -0.8390 C   0  0  1  0  0  0  0  0  0  0  0  0
   -2.4020   -0.5050    0.3570 C   0  0  0  0  0  0  0  0  0  0  0  0
   -3.2950   -1.3870    0.7450 C   0  0  0  0  0  0  0  0  0  0  0  0
   -3.9890   -0.8690    1.9710 C   0  0  0  0  0  0  0  0  0  0  0  0
   -3.3480    0.4330    2.2060 C   0  0  0  0  0  0  0  0  0  0  0  0
   -2.4250    0.6350    1.2610 C   0  0  0  0  0  0  0  0  0  0  0  0
   -1.7190    0.3700   -1.8360 C   0  0  0  0  0  0  0  0  0  0  0  0
   -0.6150    1.3210   -1.9960 C   0  0  0  0  0  0  0  0  0  0  0  0
   -0.9020    2.4770   -2.8370 N   0  0  0  0  0  0  0  0  0  0  0  0
    0.1920    3.3950   -3.0490 C   0  0  0  0  0  0  0  0  0  0  0  0
    0.5360    1.1990   -1.4620 N   0  0  0  0  0  0  0  0  0  0  0  0
  1  2  1  0
  2  3  1  0
  3  4  1  0
  4  5  1  0
  5  6  2  0
  5 21  1  0
  6  7  1  0
  6 11  1  0
  7  8  2  0
  7  9  1  0
  9 10  1  0
 11 12  1  1
 11 17  1  0
 12 13  2  0
 12 16  1  0
 13 14  1  0
 14 15  1  0
 15 16  2  0
 17 18  1  0
 18 19  1  0
 18 21  2  0
 19 20  1  0
M  END
