
     RDKit          3D

 21 22  0  0  0  0  0  0  0  0999 V2000
   -3.9490    0.0920   -2.0230 C   0  0  0  0  0  0  0  0  0  0  0  0
   -3.6430   -0.3580   -0.8380 C   0  0  0  0  0  0  0  0  0  0  0  0
   -4.2570   -1.5360   -0.1670 C   0  0  0  0  0  0  0  0  0  0  0  0
   -4.2590   -1.4440    1.3340 C   0  0  0  0  0  0  0  0  0  0  0  0
   -2.9320   -1.0970    1.9540 C   0  0  0  0  0  0  0  0  0  0  0  0
   -2.0390   -0.4620    0.9920 N   0  0  0  0  0  0  0  0  0  0  0  0
   -0.6300   -0.6000    1.1330 C   0  0  0  0  0  0  0  0  0  0  0  0
   -0.2970   -1.1510    2.2260 O   0  0  0  0  0  0  0  0  0  0  0  0
    0.3260   -0.1800    0.1600 C   0  0  0  0  0  0  0  0  0  0  0  0
    1.6150   -0.2660    0.1840 C   0  0  0  0  0  0  0  0  0  0  0  0
    2.4140    0.2810   -0.9950 C   0  0  0  0  0  0  0  0  0  0  0  0
    3.6650    0.9170   -0.4670 C   0  0  2  0  0  0  0  0  0  0  0  0
    3.8770    2.2630   -1.1220 C   0  0  0  0  0  0  0  0  0  0  0  0
    4.8910    0.0900   -0.7120 C   0  0  0  0  0  0  0  0  0  0  0  0
    3.5380    1.0660    0.9550 O   0  0  0  0  0  0  0  0  0  0  0  0
    3.4630   -0.1630    1.6270 N   0  0  0  0  0  0  0  0  0  0  0  0
    2.4350   -0.8760    1.2150 C   0  0  0  0  0  0  0  0  0  0  0  0
    2.1790   -2.2110    1.7420 C   0  0  0  0  0  0  0  0  0  0  0  0
   -2.6070    0.3320   -0.0390 C   0  0  0  0  0  0  0  0  0  0  0  0
   -2.2890    1.5650   -0.2880 C   0  0  0  0  0  0  0  0  0  0  0  0
   -1.2770    2.3320    0.4620 C   0  0  0  0  0  0  0  0  0  0  0  0
  1  2  2  0
  2  3  1  0
  2 19  1  0
  3  4  1  0
  4  5  1  0
  5  6  1  0
  6  7  1  0
  6 19  1  0
  7  8  2  0
  7  9  1  0
  9 10  2  3
 10 11  1  0
 10 17  1  0
 11 12  1  0
 12 13  1  6
 12 14  1  0
 12 15  1  0
 15 16  1  0
 16 17  2  0
 17 18  1  0
 19 20  2  3
 20 21  1  0
M  END
