
     RDKit          3D

 22 25  0  0  0  0  0  0  0  0999 V2000
    5.0320    1.4110    2.2950 C   0  0  0  0  0  0  0  0  0  0  0  0
    3.7690    0.7520    1.8070 C   0  0  0  0  0  0  0  0  0  0  0  0
    3.6000    0.6140    0.5170 C   0  0  0  0  0  0  0  0  0  0  0  0
    4.4760    1.0140   -0.6080 C   0  0  0  0  0  0  0  0  0  0  0  0
    4.0520    0.1170   -1.7470 C   0  0  0  0  0  0  0  0  0  0  0  0
    2.6620   -0.3060   -1.4230 C   0  0  0  0  0  0  0  0  0  0  0  0
    1.7060   -0.8930   -2.2070 C   0  0  0  0  0  0  0  0  0  0  0  0
    0.4730   -1.1770   -1.6110 C   0  0  0  0  0  0  0  0  0  0  0  0
    0.2110   -0.8890   -0.2980 C   0  0  0  0  0  0  0  0  0  0  0  0
    1.2050   -0.2920    0.4720 C   0  0  0  0  0  0  0  0  0  0  0  0
    2.4340   -0.0020   -0.1010 C   0  0  0  0  0  0  0  0  0  0  0  0
   -1.1310   -1.2830    0.0670 N   0  0  0  0  0  0  0  0  0  0  0  0
   -1.8090   -0.8410    1.2240 C   0  0  0  0  0  0  0  0  0  0  0  0
   -1.4270   -1.0420    2.5130 N   0  0  0  0  0  0  0  0  0  0  0  0
   -2.3020   -0.4890    3.3370 N   0  0  0  0  0  0  0  0  0  0  0  0
   -3.2290    0.0580    2.5910 N   0  0  0  0  0  0  0  0  0  0  0  0
   -2.9820   -0.1260    1.2780 C   0  0  0  0  0  0  0  0  0  0  0  0
   -3.7880    0.3370    0.1500 C   0  0  0  0  0  0  0  0  0  0  0  0
   -4.9560    1.0650    0.6740 N   0  0  0  0  0  0  0  0  0  0  0  0
   -5.7340    1.5100   -0.4800 C   0  0  0  0  0  0  0  0  0  0  0  0
   -1.5600   -2.1750   -0.9780 C   0  0  0  0  0  0  0  0  0  0  0  0
   -0.7530   -1.7980   -2.1750 C   0  0  0  0  0  0  0  0  0  0  0  0
  1  2  1  0
  2  3  2  3
  3  4  1  0
  3 11  1  0
  4  5  1  0
  5  6  1  0
  6  7  2  0
  6 11  1  0
  7  8  1  0
  8  9  2  0
  8 22  1  0
  9 10  1  0
  9 12  1  0
 10 11  2  0
 12 13  1  0
 12 21  1  0
 13 14  1  0
 13 17  2  0
 14 15  2  0
 15 16  1  0
 16 17  1  0
 17 18  1  0
 18 19  1  0
 19 20  1  0
 21 22  1  0
M  END
