
     RDKit          3D

  6  6  0  0  0  0  0  0  0  0999 V2000
   -1.9430    0.0230   -0.0390 C   0  0  0  0  0  0  0  0  0  0  0  0
   -0.4460    0.0120   -0.0140 C   0  0  0  0  0  0  0  0  0  0  0  0
    0.3960    1.1100   -0.1010 C   0  0  0  0  0  0  0  0  0  0  0  0
    1.6790    0.6230   -0.0360 C   0  0  0  0  0  0  0  0  0  0  0  0
    1.6770   -0.7120    0.0880 N   0  0  0  0  0  0  0  0  0  0  0  0
    0.3860   -1.0800    0.1000 C   0  0  0  0  0  0  0  0  0  0  0  0
  1  2  1  0
  2  3  1  0
  2  6  2  0
  3  4  2  0
  4  5  1  0
  5  6  1  0
M  END
