
     RDKit          3D

 28 32  0  0  0  0  0  0  0  0999 V2000
   -2.8080   -1.5730   -2.0790 O   0  0  0  0  0  0  0  0  0  0  0  0
   -3.0990   -0.2200   -1.9430 C   0  0  0  0  0  0  0  0  0  0  0  0
   -2.8860    0.3420   -0.5870 C   0  0  1  0  0  0  0  0  0  0  0  0
   -1.5200    0.2750   -0.0280 C   0  0  2  0  0  0  0  0  0  0  0  0
   -1.5780    0.8840    1.2510 O   0  0  0  0  0  0  0  0  0  0  0  0
   -0.4750    1.0000   -0.8300 C   0  0  0  0  0  0  0  0  0  0  0  0
    0.6140    0.0920   -1.3440 C   0  0  0  0  0  0  0  0  0  0  0  0
    1.3940   -0.5430   -0.2170 C   0  0  2  0  0  0  0  0  0  0  0  0
    2.3390    0.4930    0.3410 C   0  0  2  0  0  0  0  0  0  0  0  0
    3.3120    1.0170   -0.6530 C   0  0  0  0  0  0  0  0  0  0  0  0
    4.5960    1.0810    0.1050 C   0  0  0  0  0  0  0  0  0  0  0  0
    5.7870    1.6230   -0.0870 C   0  0  0  0  0  0  0  0  0  0  0  0
    6.9170    1.5230    0.8720 C   0  0  0  0  0  0  0  0  0  0  0  0
    6.5910    0.7860    2.0210 O   0  0  0  0  0  0  0  0  0  0  0  0
    5.3520    0.2150    2.2370 C   0  0  0  0  0  0  0  0  0  0  0  0
    4.3850    0.3410    1.3420 C   0  0  0  0  0  0  0  0  0  0  0  0
    3.1000   -0.1440    1.3640 O   0  0  0  0  0  0  0  0  0  0  0  0
    2.1620   -1.7460   -0.6110 C   0  0  0  0  0  0  0  0  0  0  0  0
    1.4070   -3.0450   -0.4870 C   0  0  0  0  0  0  0  0  0  0  0  0
    0.7120   -3.2140    0.8250 C   0  0  0  0  0  0  0  0  0  0  0  0
    0.7910   -2.0390    1.5690 O   0  0  0  0  0  0  0  0  0  0  0  0
    0.3900   -0.9350    0.8480 C   0  0  2  0  0  0  0  0  0  0  0  0
   -0.9920   -1.1160    0.2400 C   0  0  0  0  0  0  0  0  0  0  0  0
   -3.3840    1.7700   -0.5840 C   0  0  0  0  0  0  0  0  0  0  0  0
   -4.1280    2.1430    0.6550 C   0  0  0  0  0  0  0  0  0  0  0  0
   -5.3980    1.3670    0.8600 C   0  0  0  0  0  0  0  0  0  0  0  0
   -5.2380   -0.0010    0.2450 C   0  0  0  0  0  0  0  0  0  0  0  0
   -3.8120   -0.4280    0.3580 C   0  0  0  0  0  0  0  0  0  0  0  0
  1  2  1  0
  3  2  1  6
  3  4  1  0
  3 24  1  0
  3 28  1  0
  4  5  1  1
  4  6  1  0
  4 23  1  0
  6  7  1  0
  8  7  1  6
  8  9  1  0
  8 18  1  0
  8 22  1  0
  9 10  1  6
  9 17  1  0
 10 11  1  0
 11 12  2  0
 11 16  1  0
 12 13  1  0
 13 14  1  0
 14 15  1  0
 15 16  2  0
 16 17  1  0
 18 19  1  0
 19 20  1  0
 20 21  1  0
 21 22  1  0
 22 23  1  6
 24 25  1  0
 25 26  1  0
 26 27  1  0
 27 28  1  0
M  END
