
     RDKit          3D

 28 31  0  0  0  0  0  0  0  0999 V2000
   -4.7090   -1.4300   -1.5920 C   0  0  0  0  0  0  0  0  0  0  0  0
   -3.9990   -0.7800   -0.3840 C   0  0  1  0  0  0  0  0  0  0  0  0
   -4.1870   -1.8040    0.7220 C   0  0  0  0  0  0  0  0  0  0  0  0
   -3.4390   -2.9250    0.3630 O   0  0  0  0  0  0  0  0  0  0  0  0
   -2.5340   -0.5460   -0.6940 C   0  0  0  0  0  0  0  0  0  0  0  0
   -1.8720    0.6230   -0.0930 C   0  0  2  0  0  0  0  0  0  0  0  0
   -2.7360    1.2060    1.0480 C   0  0  0  0  0  0  0  0  0  0  0  0
   -4.1840    0.9970    0.9470 C   0  0  0  0  0  0  0  0  0  0  0  0
   -4.6770    0.3790   -0.1630 O   0  0  0  0  0  0  0  0  0  0  0  0
   -1.9070    1.7430   -1.1460 C   0  0  1  0  0  0  0  0  0  0  0  0
   -3.2470    2.0080   -1.5370 O   0  0  0  0  0  0  0  0  0  0  0  0
   -1.3430    3.0350   -0.7240 C   0  0  0  0  0  0  0  0  0  0  0  0
   -0.1770    3.0000    0.2170 C   0  0  0  0  0  0  0  0  0  0  0  0
   -0.1410    1.8340    1.1290 C   0  0  0  0  0  0  0  0  0  0  0  0
   -0.5350    0.5000    0.4980 C   0  0  1  0  0  0  0  0  0  0  0  0
   -0.8400   -0.2340    1.7190 O   0  0  0  0  0  0  0  0  0  0  0  0
    0.5820   -0.2960   -0.0440 C   0  0  1  0  0  0  0  0  0  0  0  0
    0.4170   -1.7900    0.0710 C   0  0  0  0  0  0  0  0  0  0  0  0
    0.9350   -0.0680   -1.4940 C   0  0  0  0  0  0  0  0  0  0  0  0
    1.9340   -1.1260   -1.9170 C   0  0  0  0  0  0  0  0  0  0  0  0
    2.8970   -1.4400   -1.0280 O   0  0  0  0  0  0  0  0  0  0  0  0
    3.1030   -0.6260    0.0300 C   0  0  2  0  0  0  0  0  0  0  0  0
    4.1570    0.3930   -0.4440 C   0  0  0  0  0  0  0  0  0  0  0  0
    5.5480   -0.1950   -0.4190 C   0  0  0  0  0  0  0  0  0  0  0  0
    6.0290   -0.4230    0.9910 C   0  0  0  0  0  0  0  0  0  0  0  0
    4.7760   -0.5480    1.8430 C   0  0  0  0  0  0  0  0  0  0  0  0
    3.7690   -1.4310    1.1320 C   0  0  0  0  0  0  0  0  0  0  0  0
    1.9020    0.0180    0.6400 C   0  0  0  0  0  0  0  0  0  0  0  0
  2  1  1  6
  2  3  1  0
  2  5  1  0
  2  9  1  0
  3  4  1  0
  6  5  1  6
  6  7  1  0
  6 10  1  0
  6 15  1  0
  7  8  1  0
  8  9  1  0
 10 11  1  1
 10 12  1  0
 12 13  1  0
 13 14  1  0
 14 15  1  0
 15 16  1  1
 15 17  1  0
 17 18  1  6
 17 19  1  0
 17 28  1  0
 19 20  1  0
 20 21  1  0
 21 22  1  0
 22 23  1  6
 22 27  1  0
 22 28  1  0
 23 24  1  0
 24 25  1  0
 25 26  1  0
 26 27  1  0
M  END
