
     RDKit          3D

 28 32  0  0  0  0  0  0  0  0999 V2000
    1.8790    0.3150    2.4350 C   0  0  0  0  0  0  0  0  0  0  0  0
    2.2160    0.0090    0.9950 C   0  0  2  0  0  0  0  0  0  0  0  0
    3.2190   -1.1320    1.0290 C   0  0  0  0  0  0  0  0  0  0  0  0
    4.1370   -1.1380   -0.1570 C   0  0  0  0  0  0  0  0  0  0  0  0
    4.9570    0.1070   -0.1810 C   0  0  2  0  0  0  0  0  0  0  0  0
    6.1820   -0.1510    0.4320 O   0  0  0  0  0  0  0  0  0  0  0  0
    4.3300    1.2650    0.5530 C   0  0  0  0  0  0  0  0  0  0  0  0
    2.8180    1.2660    0.4230 C   0  0  1  0  0  0  0  0  0  0  0  0
    2.4880    1.5270   -1.0050 C   0  0  0  0  0  0  0  0  0  0  0  0
    1.0370    1.5060   -1.3520 C   0  0  0  0  0  0  0  0  0  0  0  0
    0.2820    0.8510   -0.1880 C   0  0  2  0  0  0  0  0  0  0  0  0
    1.0400   -0.3800    0.1700 C   0  0  2  0  0  0  0  0  0  0  0  0
    0.1880   -1.4700    0.7540 C   0  0  0  0  0  0  0  0  0  0  0  0
   -1.0630   -1.6540   -0.0300 C   0  0  1  0  0  0  0  0  0  0  0  0
   -1.8250   -2.6560    0.6110 O   0  0  0  0  0  0  0  0  0  0  0  0
   -1.9190   -0.3910    0.0310 C   0  0  2  0  0  0  0  0  0  0  0  0
   -2.2020   -0.1510    1.4990 C   0  0  0  0  0  0  0  0  0  0  0  0
   -3.1170   -0.5200   -0.8350 C   0  0  1  0  0  0  0  0  0  0  0  0
   -4.4350   -0.4780   -0.1480 C   0  0  0  0  0  0  0  0  0  0  0  0
   -5.3440    0.4370   -0.4180 C   0  0  0  0  0  0  0  0  0  0  0  0
   -6.4970    0.1900    0.4240 C   0  0  0  0  0  0  0  0  0  0  0  0
   -7.5720    0.8850    0.4290 O   0  0  0  0  0  0  0  0  0  0  0  0
   -6.2170   -0.9130    1.2010 O   0  0  0  0  0  0  0  0  0  0  0  0
   -4.9540   -1.4170    0.8540 C   0  0  0  0  0  0  0  0  0  0  0  0
   -2.9860    0.5600   -1.8920 C   0  0  0  0  0  0  0  0  0  0  0  0
   -1.4450    0.6760   -2.0210 C   0  0  0  0  0  0  0  0  0  0  0  0
   -1.1280    0.7320   -0.5420 C   0  0  2  0  0  0  0  0  0  0  0  0
   -1.7740    1.9230   -0.0940 O   0  0  0  0  0  0  0  0  0  0  0  0
  2  1  1  1
  2  3  1  0
  2  8  1  0
  2 12  1  0
  3  4  1  0
  4  5  1  0
  5  6  1  1
  5  7  1  0
  8  7  1  6
  8  9  1  0
  9 10  1  0
 11 10  1  6
 11 12  1  0
 11 27  1  0
 12 13  1  1
 13 14  1  0
 14 15  1  1
 14 16  1  0
 16 17  1  1
 16 18  1  0
 16 27  1  0
 18 19  1  1
 18 25  1  0
 19 20  2  0
 19 24  1  0
 20 21  1  0
 21 22  2  0
 21 23  1  0
 23 24  1  0
 25 26  1  0
 26 27  1  0
 27 28  1  1
M  END
