
     RDKit          3D

 28 30  0  0  0  0  0  0  0  0999 V2000
   -3.9510    0.8330   -2.9710 C   0  0  0  0  0  0  0  0  0  0  0  0
   -4.0740    0.3180   -1.5780 C   0  0  2  0  0  0  0  0  0  0  0  0
   -5.0490    1.1140   -0.7370 C   0  0  0  0  0  0  0  0  0  0  0  0
   -5.1930    0.4760    0.6200 C   0  0  1  0  0  0  0  0  0  0  0  0
   -5.9140   -0.7040    0.4830 O   0  0  0  0  0  0  0  0  0  0  0  0
   -3.8750    0.2860    1.3200 C   0  0  0  0  0  0  0  0  0  0  0  0
   -2.8750   -0.3750    0.4020 C   0  0  2  0  0  0  0  0  0  0  0  0
   -1.5730   -0.6770    1.1030 C   0  0  2  0  0  0  0  0  0  0  0  0
   -1.9990   -1.5870    2.2750 C   0  0  0  0  0  0  0  0  0  0  0  0
   -0.9260    0.5140    1.7220 C   0  0  0  0  0  0  0  0  0  0  0  0
    0.0970    1.1260    0.8000 C   0  0  0  0  0  0  0  0  0  0  0  0
    1.0390    0.2720    0.3570 O   0  0  0  0  0  0  0  0  0  0  0  0
    0.6980   -0.9810   -0.0150 C   0  0  1  0  0  0  0  0  0  0  0  0
    0.9950   -1.0750   -1.5250 C   0  0  0  0  0  0  0  0  0  0  0  0
    1.6830    0.1450   -2.0400 C   0  0  0  0  0  0  0  0  0  0  0  0
    3.1380   -0.0470   -2.3370 C   0  0  0  0  0  0  0  0  0  0  0  0
    3.9570    1.1070   -1.7770 C   0  0  2  0  0  0  0  0  0  0  0  0
    4.3370    1.9250   -2.8660 O   0  0  0  0  0  0  0  0  0  0  0  0
    5.1960    0.6440   -1.1140 C   0  0  0  0  0  0  0  0  0  0  0  0
    5.5070    0.8200    0.1440 C   0  0  0  0  0  0  0  0  0  0  0  0
    4.6990    1.5110    1.1640 C   0  0  0  0  0  0  0  0  0  0  0  0
    3.9690    0.5050    2.0630 C   0  0  0  0  0  0  0  0  0  0  0  0
    2.9590   -0.0390    1.3170 O   0  0  0  0  0  0  0  0  0  0  0  0
    2.4190   -1.1980    1.8120 C   0  0  0  0  0  0  0  0  0  0  0  0
    1.7380   -1.9130    0.6350 C   0  0  1  0  0  0  0  0  0  0  0  0
    1.1860   -3.1120    1.0310 O   0  0  0  0  0  0  0  0  0  0  0  0
   -0.6650   -1.4640    0.2100 C   0  0  0  0  0  0  0  0  0  0  0  0
   -2.7220    0.4450   -0.8550 C   0  0  0  0  0  0  0  0  0  0  0  0
  2  1  1  6
  2  3  1  0
  2 28  1  0
  3  4  1  0
  4  5  1  6
  4  6  1  0
  7  6  1  1
  7  8  1  0
  7 28  1  0
  8  9  1  1
  8 10  1  0
  8 27  1  0
 10 11  1  0
 11 12  1  0
 12 13  1  0
 13 14  1  6
 13 25  1  0
 13 27  1  0
 14 15  1  0
 15 16  1  0
 16 17  1  0
 17 18  1  6
 17 19  1  0
 19 20  2  0
 20 21  1  0
 21 22  1  0
 22 23  1  0
 23 24  1  0
 24 25  1  0
 25 26  1  1
M  END
