
     RDKit          3D

 28 30  0  0  0  0  0  0  0  0999 V2000
    2.9960   -3.1980   -0.3130 C   0  0  0  0  0  0  0  0  0  0  0  0
    2.1630   -2.1450    0.1160 C   0  0  0  0  0  0  0  0  0  0  0  0
    2.9260   -1.2190    0.8790 C   0  0  0  0  0  0  0  0  0  0  0  0
    2.9300   -0.2210    1.6440 C   0  0  0  0  0  0  0  0  0  0  0  0
    1.9650    0.6370    2.2760 C   0  0  0  0  0  0  0  0  0  0  0  0
    2.2730    1.7110    3.0170 C   0  0  0  0  0  0  0  0  0  0  0  0
    1.1380    2.3460    3.5010 O   0  0  0  0  0  0  0  0  0  0  0  0
    0.0350    1.6190    3.0840 C   0  0  0  0  0  0  0  0  0  0  0  0
    0.5960    0.5990    2.3220 O   0  0  0  0  0  0  0  0  0  0  0  0
    4.4350   -1.5730    0.7160 O   0  0  0  0  0  0  0  0  0  0  0  0
    5.0350   -0.7050   -0.2270 C   0  0  0  0  0  0  0  0  0  0  0  0
    0.8160   -2.4040   -0.2930 C   0  0  0  0  0  0  0  0  0  0  0  0
    0.3280   -3.8090   -0.4130 C   0  0  0  0  0  0  0  0  0  0  0  0
    1.0980   -4.9390   -0.0640 N   0  0  0  0  0  0  0  0  0  0  0  0
   -0.8050   -4.0740   -0.8230 O   0  0  0  0  0  0  0  0  0  0  0  0
   -0.1360   -1.4930   -0.3310 C   0  0  0  0  0  0  0  0  0  0  0  0
   -1.5150   -1.8820   -0.7540 C   0  0  0  0  0  0  0  0  0  0  0  0
    0.1740   -0.0810   -0.4120 C   0  0  0  0  0  0  0  0  0  0  0  0
   -0.5410    0.9870   -0.3860 C   0  0  0  0  0  0  0  0  0  0  0  0
    0.1590    2.3290   -0.5350 C   0  0  0  0  0  0  0  0  0  0  0  0
   -0.7690    3.3010   -1.2230 C   0  0  0  0  0  0  0  0  0  0  0  0
   -2.0270    2.6610   -1.7720 C   0  0  0  0  0  0  0  0  0  0  0  0
   -2.7360    1.8410   -0.7450 C   0  0  0  0  0  0  0  0  0  0  0  0
   -1.9750    1.0150   -0.0600 C   0  0  0  0  0  0  0  0  0  0  0  0
   -2.4880    0.2010    1.0510 C   0  0  0  0  0  0  0  0  0  0  0  0
   -3.7470    0.2970    1.3790 C   0  0  0  0  0  0  0  0  0  0  0  0
   -4.6730    1.1930    0.6800 C   0  0  0  0  0  0  0  0  0  0  0  0
   -4.1920    1.8990   -0.5300 C   0  0  0  0  0  0  0  0  0  0  0  0
  1  2  2  0
  2  3  1  0
  2 12  1  0
  3  4  2  3
  3 10  1  0
  4  5  1  0
  5  6  2  0
  5  9  1  0
  6  7  1  0
  7  8  1  0
  8  9  1  0
 10 11  1  0
 12 13  1  0
 12 16  2  3
 13 14  1  0
 13 15  2  0
 16 17  1  0
 16 18  1  0
 18 19  2  3
 19 20  1  0
 19 24  1  0
 20 21  1  0
 21 22  1  0
 22 23  1  0
 23 24  2  0
 23 28  1  0
 24 25  1  0
 25 26  2  0
 26 27  1  0
 27 28  1  0
M  END
