
     RDKit          3D

 28 30  0  0  0  0  0  0  0  0999 V2000
   -3.3740   -2.5340   -1.0460 C   0  0  0  0  0  0  0  0  0  0  0  0
   -2.5200   -1.3990   -0.4080 C   0  0  1  0  0  0  0  0  0  0  0  0
   -1.1170   -1.8380   -0.2590 C   0  0  0  0  0  0  0  0  0  0  0  0
   -0.6100   -2.2450    1.0730 C   0  0  2  0  0  0  0  0  0  0  0  0
   -0.2100   -1.2550    2.0660 C   0  0  0  0  0  0  0  0  0  0  0  0
   -1.0080   -0.0840    2.4050 C   0  0  0  0  0  0  0  0  0  0  0  0
   -0.3110    1.1060    2.7300 O   0  0  0  0  0  0  0  0  0  0  0  0
    0.1610    1.9680    1.7510 C   0  0  0  0  0  0  0  0  0  0  0  0
   -0.5920    2.7240    0.9710 C   0  0  0  0  0  0  0  0  0  0  0  0
   -2.0510    2.8570    0.9300 C   0  0  0  0  0  0  0  0  0  0  0  0
   -2.7290    2.5870   -0.3590 C   0  0  2  0  0  0  0  0  0  0  0  0
   -3.8340    1.5740   -0.1450 C   0  0  0  0  0  0  0  0  0  0  0  0
   -3.9250    0.5300   -1.2070 C   0  0  0  0  0  0  0  0  0  0  0  0
   -2.6670   -0.2750   -1.4180 C   0  0  1  0  0  0  0  0  0  0  0  0
   -1.5040    0.6510   -1.4250 C   0  0  0  0  0  0  0  0  0  0  0  0
   -1.8810    2.1340   -1.4990 C   0  0  1  0  0  0  0  0  0  0  0  0
   -2.4560    2.3870   -2.7190 O   0  0  0  0  0  0  0  0  0  0  0  0
    1.6630    1.9870    1.6340 C   0  0  0  0  0  0  0  0  0  0  0  0
    2.1540    1.2110    0.4130 C   0  0  0  0  0  0  0  0  0  0  0  0
    3.4520    0.6110    0.7790 C   0  0  0  0  0  0  0  0  0  0  0  0
    3.8350   -0.6910    0.1660 C   0  0  2  0  0  0  0  0  0  0  0  0
    3.6180   -0.8260   -1.3000 C   0  0  0  0  0  0  0  0  0  0  0  0
    4.4330    0.2130   -2.0630 C   0  0  0  0  0  0  0  0  0  0  0  0
    5.7700   -0.0170   -1.7540 O   0  0  0  0  0  0  0  0  0  0  0  0
    3.5000   -1.8090    0.9160 O   0  0  0  0  0  0  0  0  0  0  0  0
    2.4520   -2.4500    0.3450 C   0  0  0  0  0  0  0  0  0  0  0  0
    1.5500   -3.1600    1.3620 C   0  0  0  0  0  0  0  0  0  0  0  0
    0.3400   -3.2280    0.8100 O   0  0  0  0  0  0  0  0  0  0  0  0
  2  1  1  6
  2  3  1  0
  2 14  1  0
  4  3  1  6
  4  5  1  0
  4 28  1  0
  5  6  1  0
  6  7  1  0
  7  8  1  0
  8  9  2  0
  8 18  1  0
  9 10  1  0
 11 10  1  1
 11 12  1  0
 11 16  1  0
 12 13  1  0
 13 14  1  0
 14 15  1  1
 15 16  1  0
 16 17  1  6
 18 19  1  0
 19 20  1  0
 20 21  1  0
 21 22  1  6
 21 25  1  0
 22 23  1  0
 23 24  1  0
 25 26  1  0
 26 27  1  0
 27 28  1  0
M  END
