
     RDKit          3D

 28 31  0  0  0  0  0  0  0  0999 V2000
   -1.0710   -3.5220    2.0230 C   0  0  0  0  0  0  0  0  0  0  0  0
   -1.1500   -3.4340    0.7380 C   0  0  0  0  0  0  0  0  0  0  0  0
   -0.9080   -4.5570   -0.0490 O   0  0  0  0  0  0  0  0  0  0  0  0
   -0.9720   -4.5670   -1.4260 C   0  0  0  0  0  0  0  0  0  0  0  0
   -1.2820   -3.4440   -2.0220 C   0  0  0  0  0  0  0  0  0  0  0  0
   -1.5410   -2.2580   -1.2610 C   0  0  0  0  0  0  0  0  0  0  0  0
   -1.4930   -2.1820    0.0900 C   0  0  0  0  0  0  0  0  0  0  0  0
   -1.8170   -0.9480    0.7700 C   0  0  0  0  0  0  0  0  0  0  0  0
   -0.8430   -0.1980    1.5780 C   0  0  2  0  0  0  0  0  0  0  0  0
   -1.7270    1.0090    2.1010 C   0  0  0  0  0  0  0  0  0  0  0  0
   -2.3280    1.4810    0.9740 O   0  0  0  0  0  0  0  0  0  0  0  0
   -1.5220    2.0860    0.0520 C   0  0  2  0  0  0  0  0  0  0  0  0
   -1.2120    3.4910    0.5220 C   0  0  0  0  0  0  0  0  0  0  0  0
   -2.5070    4.2230    0.7780 C   0  0  0  0  0  0  0  0  0  0  0  0
   -3.4600    4.0520   -0.1990 O   0  0  0  0  0  0  0  0  0  0  0  0
   -2.8440    3.6880   -1.3680 C   0  0  0  0  0  0  0  0  0  0  0  0
   -2.3540    2.2760   -1.2190 C   0  0  0  0  0  0  0  0  0  0  0  0
   -0.2840    1.2930   -0.3010 C   0  0  0  0  0  0  0  0  0  0  0  0
    0.2620    0.5370    0.8740 C   0  0  1  0  0  0  0  0  0  0  0  0
    0.5650    1.6280    1.7840 O   0  0  0  0  0  0  0  0  0  0  0  0
    1.5570   -0.1250    0.6960 C   0  0  1  0  0  0  0  0  0  0  0  0
    1.6240   -1.3740   -0.1270 C   0  0  0  0  0  0  0  0  0  0  0  0
    3.1030   -1.6570   -0.4680 C   0  0  1  0  0  0  0  0  0  0  0  0
    3.2300   -3.1110   -0.8700 C   0  0  0  0  0  0  0  0  0  0  0  0
    3.5060   -0.7160   -1.5460 C   0  0  0  0  0  0  0  0  0  0  0  0
    3.0960    0.6780   -1.1450 C   0  0  0  0  0  0  0  0  0  0  0  0
    2.7250    0.7400    0.3360 C   0  0  1  0  0  0  0  0  0  0  0  0
    2.5350    2.0940    0.5670 O   0  0  0  0  0  0  0  0  0  0  0  0
  1  2  2  0
  2  3  1  0
  2  7  1  0
  3  4  1  0
  4  5  2  0
  5  6  1  0
  6  7  2  0
  7  8  1  0
  9  8  1  6
  9 10  1  0
  9 19  1  0
 10 11  1  0
 11 12  1  0
 12 13  1  1
 12 17  1  0
 12 18  1  0
 13 14  1  0
 14 15  1  0
 15 16  1  0
 16 17  1  0
 18 19  1  0
 19 20  1  1
 19 21  1  0
 21 22  1  6
 21 27  1  0
 22 23  1  0
 23 24  1  6
 23 25  1  0
 25 26  1  0
 26 27  1  0
 27 28  1  6
M  END
