
     RDKit          3D

 27 30  0  0  0  0  0  0  0  0999 V2000
   -4.9670    1.4180   -1.8050 C   0  0  0  0  0  0  0  0  0  0  0  0
   -4.8210    1.1820   -0.3550 C   0  0  0  0  0  0  0  0  0  0  0  0
   -4.5080   -0.1630    0.1180 C   0  0  1  0  0  0  0  0  0  0  0  0
   -4.4300   -0.0970    1.5340 O   0  0  0  0  0  0  0  0  0  0  0  0
   -5.4730   -1.2430   -0.2030 C   0  0  0  0  0  0  0  0  0  0  0  0
   -4.7040   -2.4990    0.1890 C   0  0  0  0  0  0  0  0  0  0  0  0
   -3.2900   -2.0600    0.5060 C   0  0  0  0  0  0  0  0  0  0  0  0
   -3.1990   -0.7540   -0.3140 C   0  0  1  0  0  0  0  0  0  0  0  0
   -3.1510   -1.2150   -1.7340 C   0  0  0  0  0  0  0  0  0  0  0  0
   -1.8970   -1.9920   -1.9850 C   0  0  0  0  0  0  0  0  0  0  0  0
   -0.6720   -1.3450   -1.3790 C   0  0  0  0  0  0  0  0  0  0  0  0
   -1.0210    0.0910   -1.0240 C   0  0  2  0  0  0  0  0  0  0  0  0
    0.1830    0.8990   -0.7180 C   0  0  0  0  0  0  0  0  0  0  0  0
    0.4440    1.9210   -1.4020 O   0  0  0  0  0  0  0  0  0  0  0  0
    1.0320    0.5590    0.3010 O   0  0  0  0  0  0  0  0  0  0  0  0
    2.1880    1.2520    0.6670 C   0  0  1  0  0  0  0  0  0  0  0  0
    2.1670    1.8030    2.0610 C   0  0  0  0  0  0  0  0  0  0  0  0
    3.3080    2.8100    2.1560 C   0  0  0  0  0  0  0  0  0  0  0  0
    4.6210    2.0910    1.9470 C   0  0  0  0  0  0  0  0  0  0  0  0
    4.6460    1.2870    0.6810 C   0  0  1  0  0  0  0  0  0  0  0  0
    5.8640    0.3870    0.7310 C   0  0  0  0  0  0  0  0  0  0  0  0
    5.6930   -0.8480   -0.1040 C   0  0  0  0  0  0  0  0  0  0  0  0
    4.8150   -0.6270   -1.3020 C   0  0  1  0  0  0  0  0  0  0  0  0
    4.7800   -1.8270   -2.0240 O   0  0  0  0  0  0  0  0  0  0  0  0
    3.4490   -0.2070   -0.8590 C   0  0  0  0  0  0  0  0  0  0  0  0
    3.4350    0.4090    0.5170 C   0  0  2  0  0  0  0  0  0  0  0  0
   -2.0030    0.0470    0.1040 C   0  0  0  0  0  0  0  0  0  0  0  0
  1  2  1  0
  2  3  1  0
  3  4  1  1
  3  5  1  0
  3  8  1  0
  5  6  1  0
  6  7  1  0
  8  7  1  1
  8  9  1  0
  8 27  1  0
  9 10  1  0
 10 11  1  0
 11 12  1  0
 12 13  1  1
 12 27  1  0
 13 14  2  0
 13 15  1  0
 16 15  1  1
 16 17  1  0
 16 26  1  0
 17 18  1  0
 18 19  1  0
 20 19  1  1
 20 21  1  0
 20 26  1  0
 21 22  1  0
 22 23  1  0
 23 24  1  1
 23 25  1  0
 26 25  1  6
M  END
