
     RDKit          3D

 27 30  0  0  0  0  0  0  0  0999 V2000
    3.8110   -1.8870   -0.7470 C   0  0  0  0  0  0  0  0  0  0  0  0
    3.4810   -0.4750   -0.3280 C   0  0  0  0  0  0  0  0  0  0  0  0
    3.9610    0.5710   -0.9540 C   0  0  0  0  0  0  0  0  0  0  0  0
    4.8170    0.5870   -2.0580 O   0  0  0  0  0  0  0  0  0  0  0  0
    3.4560    1.7820   -0.3080 C   0  0  0  0  0  0  0  0  0  0  0  0
    2.6090    1.2380    0.7880 C   0  0  0  0  0  0  0  0  0  0  0  0
    2.6210   -0.0730    0.7800 C   0  0  0  0  0  0  0  0  0  0  0  0
    1.9070   -0.9810    1.7130 C   0  0  0  0  0  0  0  0  0  0  0  0
    0.7110   -1.6790    1.0480 C   0  0  2  0  0  0  0  0  0  0  0  0
    0.9610   -3.1250    0.7710 C   0  0  0  0  0  0  0  0  0  0  0  0
    0.2770   -0.8900   -0.1510 C   0  0  0  0  0  0  0  0  0  0  0  0
   -1.1450   -1.0020   -0.5180 C   0  0  1  0  0  0  0  0  0  0  0  0
   -1.2300   -1.8740   -1.7810 C   0  0  0  0  0  0  0  0  0  0  0  0
   -2.0120   -1.6760    0.5110 C   0  0  0  0  0  0  0  0  0  0  0  0
   -3.3460   -1.9940   -0.1120 C   0  0  0  0  0  0  0  0  0  0  0  0
   -3.6980   -1.1420   -1.1280 O   0  0  0  0  0  0  0  0  0  0  0  0
   -3.2960    0.1900   -0.8920 C   0  0  1  0  0  0  0  0  0  0  0  0
   -4.0290    0.6640    0.2970 C   0  0  0  0  0  0  0  0  0  0  0  0
   -3.4250    1.8500    0.9950 C   0  0  0  0  0  0  0  0  0  0  0  0
   -2.4660    2.4820    0.0380 C   0  0  0  0  0  0  0  0  0  0  0  0
   -1.2910    1.4930   -0.0820 C   0  0  2  0  0  0  0  0  0  0  0  0
   -0.2680    2.2770   -0.8220 C   0  0  0  0  0  0  0  0  0  0  0  0
   -0.4020    2.2880   -2.0880 O   0  0  0  0  0  0  0  0  0  0  0  0
    0.7790    2.9690   -0.2500 O   0  0  0  0  0  0  0  0  0  0  0  0
    0.8800    3.0160    1.1590 C   0  0  0  0  0  0  0  0  0  0  0  0
    1.8650    2.1030    1.7500 C   0  0  0  0  0  0  0  0  0  0  0  0
   -1.8130    0.3270   -0.8800 C   0  0  1  0  0  0  0  0  0  0  0  0
  1  2  1  0
  2  3  2  0
  2  7  1  0
  3  4  1  0
  3  5  1  0
  5  6  1  0
  6  7  2  0
  6 26  1  0
  7  8  1  0
  8  9  1  0
  9 10  1  6
  9 11  1  0
 11 12  1  0
 12 13  1  6
 12 14  1  0
 12 27  1  0
 14 15  1  0
 15 16  1  0
 16 17  1  0
 17 18  1  1
 27 17  1  1
 18 19  1  0
 19 20  1  0
 21 20  1  6
 21 22  1  0
 21 27  1  0
 22 23  2  0
 22 24  1  0
 24 25  1  0
 25 26  1  0
M  END
