
     RDKit          3D

 27 30  0  0  0  0  0  0  0  0999 V2000
    5.3510   -2.3120    0.9990 C   0  0  0  0  0  0  0  0  0  0  0  0
    3.9120   -2.0400    1.3790 C   0  0  0  0  0  0  0  0  0  0  0  0
    3.2100   -1.3530    0.2540 C   0  0  1  0  0  0  0  0  0  0  0  0
    1.7230   -1.0730    0.6480 C   0  0  0  0  0  0  0  0  0  0  0  0
    1.2310   -0.0550   -0.3100 C   0  0  1  0  0  0  0  0  0  0  0  0
   -0.0870   -0.0910   -0.8950 C   0  0  1  0  0  0  0  0  0  0  0  0
   -0.1080    1.0390   -1.8040 O   0  0  0  0  0  0  0  0  0  0  0  0
   -0.3480   -1.2470   -1.8420 C   0  0  0  0  0  0  0  0  0  0  0  0
   -1.3210   -0.7750   -2.8840 C   0  0  0  0  0  0  0  0  0  0  0  0
   -2.2890    0.2540   -2.4080 C   0  0  0  0  0  0  0  0  0  0  0  0
   -2.4140    0.2310   -0.8850 C   0  0  0  0  0  0  0  0  0  0  0  0
   -1.3350    0.0620   -0.1320 C   0  0  0  0  0  0  0  0  0  0  0  0
   -1.4390    0.0560    1.3020 C   0  0  0  0  0  0  0  0  0  0  0  0
   -0.5100   -0.0920    2.1170 O   0  0  0  0  0  0  0  0  0  0  0  0
   -2.6890    0.2320    1.8880 O   0  0  0  0  0  0  0  0  0  0  0  0
   -3.7490    0.8320    1.1450 C   0  0  2  0  0  0  0  0  0  0  0  0
   -5.0860    0.5520    1.7770 C   0  0  0  0  0  0  0  0  0  0  0  0
   -6.1700    0.6220    0.7300 C   0  0  0  0  0  0  0  0  0  0  0  0
   -6.0820   -0.5740   -0.2140 C   0  0  0  0  0  0  0  0  0  0  0  0
   -4.6420   -0.7450   -0.5280 C   0  0  0  0  0  0  0  0  0  0  0  0
   -4.2590   -1.7830   -0.9760 O   0  0  0  0  0  0  0  0  0  0  0  0
   -3.7470    0.3830   -0.2690 C   0  0  2  0  0  0  0  0  0  0  0  0
    1.7510    1.2900    0.1760 C   0  0  0  0  0  0  0  0  0  0  0  0
    3.2610    1.1910    0.2770 C   0  0  2  0  0  0  0  0  0  0  0  0
    3.7470    1.5750    1.6590 C   0  0  0  0  0  0  0  0  0  0  0  0
    3.8070    2.2830   -0.6650 C   0  0  0  0  0  0  0  0  0  0  0  0
    3.8520   -0.0810   -0.2020 C   0  0  0  0  0  0  0  0  0  0  0  0
  1  2  1  0
  3  2  1  1
  3  4  1  0
  3 27  1  0
  5  4  1  1
  5  6  1  0
  5 23  1  0
  6  7  1  6
  6  8  1  0
  6 12  1  0
  8  9  1  0
  9 10  1  0
 10 11  1  0
 11 12  2  0
 11 22  1  0
 12 13  1  0
 13 14  2  0
 13 15  1  0
 15 16  1  0
 16 17  1  1
 16 22  1  0
 17 18  1  0
 18 19  1  0
 19 20  1  0
 20 21  2  0
 22 20  1  1
 23 24  1  0
 24 25  1  1
 24 26  1  0
 24 27  1  0
M  END
