
     RDKit          3D

 27 30  0  0  0  0  0  0  0  0999 V2000
   -0.0270    4.5890   -1.4730 C   0  0  0  0  0  0  0  0  0  0  0  0
    0.4300    3.2430   -1.0140 C   0  0  0  0  0  0  0  0  0  0  0  0
   -0.7660    2.2880   -0.8850 C   0  0  0  0  0  0  0  0  0  0  0  0
   -0.2220    0.9810   -0.4260 C   0  0  1  0  0  0  0  0  0  0  0  0
    0.4340    1.0130    0.7850 O   0  0  0  0  0  0  0  0  0  0  0  0
    1.4080   -0.0140    0.7720 C   0  0  2  0  0  0  0  0  0  0  0  0
    1.6550   -0.3560    2.2230 C   0  0  0  0  0  0  0  0  0  0  0  0
    2.8360    0.4970    2.6790 C   0  0  0  0  0  0  0  0  0  0  0  0
    3.9820   -0.0300    2.1380 O   0  0  0  0  0  0  0  0  0  0  0  0
    3.9190   -0.1170    0.7670 C   0  0  1  0  0  0  0  0  0  0  0  0
    5.1200    0.6630    0.2200 C   0  0  0  0  0  0  0  0  0  0  0  0
    4.1340   -1.5540    0.3660 C   0  0  0  0  0  0  0  0  0  0  0  0
    2.6960    0.4970    0.1620 C   0  0  0  0  0  0  0  0  0  0  0  0
    0.9530   -1.1860   -0.0360 C   0  0  0  0  0  0  0  0  0  0  0  0
   -0.5740   -1.3740    0.0100 C   0  0  2  0  0  0  0  0  0  0  0  0
   -0.8390   -1.7510    1.3040 O   0  0  0  0  0  0  0  0  0  0  0  0
   -0.8740   -2.5080   -0.9590 C   0  0  0  0  0  0  0  0  0  0  0  0
   -1.1120   -1.8090   -2.2560 C   0  0  1  0  0  0  0  0  0  0  0  0
   -2.1340   -2.5330   -3.1200 C   0  0  0  0  0  0  0  0  0  0  0  0
   -1.5090   -0.3910   -1.9620 C   0  0  0  0  0  0  0  0  0  0  0  0
   -1.2280   -0.1550   -0.4840 C   0  0  2  0  0  0  0  0  0  0  0  0
   -2.5120    0.2690    0.1710 C   0  0  2  0  0  0  0  0  0  0  0  0
   -2.3640    0.6680    1.6040 C   0  0  0  0  0  0  0  0  0  0  0  0
   -3.5350    0.1880    2.4750 C   0  0  0  0  0  0  0  0  0  0  0  0
   -3.7680   -1.1450    2.3500 O   0  0  0  0  0  0  0  0  0  0  0  0
   -3.9430   -1.6140    1.0840 C   0  0  0  0  0  0  0  0  0  0  0  0
   -3.6530   -0.6530   -0.0220 C   0  0  0  0  0  0  0  0  0  0  0  0
  1  2  1  0
  2  3  1  0
  4  3  1  1
  4  5  1  0
  4 21  1  0
  5  6  1  0
  6  7  1  1
  6 13  1  0
  6 14  1  0
  7  8  1  0
  8  9  1  0
  9 10  1  0
 10 11  1  6
 10 12  1  0
 10 13  1  0
 14 15  1  0
 15 16  1  1
 15 17  1  0
 15 21  1  0
 17 18  1  0
 18 19  1  1
 18 20  1  0
 21 20  1  6
 21 22  1  0
 22 23  1  1
 22 27  1  0
 23 24  1  0
 24 25  1  0
 25 26  1  0
 26 27  1  0
M  END
