
     RDKit          3D

 27 30  0  0  0  0  0  0  0  0999 V2000
   -5.5200    2.1860    1.4020 C   0  0  0  0  0  0  0  0  0  0  0  0
   -5.7420    0.7620    1.0380 C   0  0  1  0  0  0  0  0  0  0  0  0
   -6.9510    0.6130    0.3630 O   0  0  0  0  0  0  0  0  0  0  0  0
   -4.6310    0.1770    0.1600 C   0  0  1  0  0  0  0  0  0  0  0  0
   -3.3170    0.2380    0.8480 C   0  0  0  0  0  0  0  0  0  0  0  0
   -2.1260   -0.2780    0.0930 C   0  0  1  0  0  0  0  0  0  0  0  0
   -2.0340   -1.7040   -0.3710 C   0  0  0  0  0  0  0  0  0  0  0  0
   -1.3140    0.7110   -0.7130 C   0  0  0  0  0  0  0  0  0  0  0  0
   -0.7880    0.2790    0.5990 C   0  0  2  0  0  0  0  0  0  0  0  0
    0.3920   -0.6000    0.5710 C   0  0  0  0  0  0  0  0  0  0  0  0
    1.5110   -0.3480   -0.1030 C   0  0  0  0  0  0  0  0  0  0  0  0
    1.7050    0.8790   -0.9240 C   0  0  0  0  0  0  0  0  0  0  0  0
    3.0480    1.4940   -0.7160 C   0  0  0  0  0  0  0  0  0  0  0  0
    4.1860    0.5230   -0.6240 C   0  0  1  0  0  0  0  0  0  0  0  0
    5.4130    1.3130   -0.1850 C   0  0  0  0  0  0  0  0  0  0  0  0
    6.5290    0.4450    0.2890 C   0  0  0  0  0  0  0  0  0  0  0  0
    6.3030   -1.0150   -0.0140 C   0  0  0  0  0  0  0  0  0  0  0  0
    5.0010   -1.5220    0.5400 C   0  0  0  0  0  0  0  0  0  0  0  0
    3.8770   -0.5460    0.4010 C   0  0  1  0  0  0  0  0  0  0  0  0
    3.5250    0.0550    1.7490 C   0  0  0  0  0  0  0  0  0  0  0  0
    2.6560   -1.3070   -0.0690 C   0  0  1  0  0  0  0  0  0  0  0  0
    2.3850   -2.4230    0.6950 O   0  0  0  0  0  0  0  0  0  0  0  0
   -5.1030   -1.1990   -0.2150 C   0  0  0  0  0  0  0  0  0  0  0  0
   -5.2860   -1.1490   -1.7170 C   0  0  0  0  0  0  0  0  0  0  0  0
   -4.6110    0.0400   -2.1330 O   0  0  0  0  0  0  0  0  0  0  0  0
   -4.6510    0.9590   -1.0880 C   0  0  0  0  0  0  0  0  0  0  0  0
   -4.6940    2.2040   -1.2350 O   0  0  0  0  0  0  0  0  0  0  0  0
  2  1  1  6
  2  3  1  0
  2  4  1  0
  4  5  1  1
  4 23  1  0
  4 26  1  0
  5  6  1  0
  6  7  1  6
  6  8  1  0
  6  9  1  0
  8  9  1  0
  9 10  1  6
 10 11  2  3
 11 12  1  0
 11 21  1  0
 12 13  1  0
 14 13  1  1
 14 15  1  0
 14 19  1  0
 15 16  1  0
 16 17  1  0
 17 18  1  0
 18 19  1  0
 19 20  1  1
 19 21  1  0
 21 22  1  1
 23 24  1  0
 24 25  1  0
 25 26  1  0
 26 27  2  0
M  END
