
     RDKit          3D

 27 30  0  0  0  0  0  0  0  0999 V2000
   -3.7360    2.5350   -1.6590 C   0  0  0  0  0  0  0  0  0  0  0  0
   -3.5690    1.0390   -1.4950 C   0  0  2  0  0  0  0  0  0  0  0  0
   -4.9510    0.4160   -1.5770 C   0  0  0  0  0  0  0  0  0  0  0  0
   -4.9000   -0.8580   -0.7570 C   0  0  0  0  0  0  0  0  0  0  0  0
   -3.5070   -1.4240   -0.8280 C   0  0  0  0  0  0  0  0  0  0  0  0
   -2.5810   -0.6180    0.1100 C   0  0  1  0  0  0  0  0  0  0  0  0
   -3.0240   -1.0070    1.5090 C   0  0  0  0  0  0  0  0  0  0  0  0
   -1.8250   -1.2900    2.3830 C   0  0  0  0  0  0  0  0  0  0  0  0
   -0.7650   -0.2490    1.9760 C   0  0  0  0  0  0  0  0  0  0  0  0
   -0.2810   -0.6440    0.6370 C   0  0  1  0  0  0  0  0  0  0  0  0
    0.5900    0.2850   -0.1160 C   0  0  0  0  0  0  0  0  0  0  0  0
    1.9570    0.5700    0.3920 C   0  0  2  0  0  0  0  0  0  0  0  0
    1.8970    1.6700    1.4590 C   0  0  0  0  0  0  0  0  0  0  0  0
    2.8110    1.1510   -0.7110 C   0  0  2  0  0  0  0  0  0  0  0  0
    3.0150    0.2860   -1.8980 C   0  0  0  0  0  0  0  0  0  0  0  0
    4.1040    1.6230   -0.1430 C   0  0  0  0  0  0  0  0  0  0  0  0
    5.0380    2.2280   -1.1720 C   0  0  0  0  0  0  0  0  0  0  0  0
    6.1890    2.6140   -0.4400 O   0  0  0  0  0  0  0  0  0  0  0  0
    2.5750   -0.6910    0.8850 C   0  0  0  0  0  0  0  0  0  0  0  0
    1.8740   -1.8900    0.2710 C   0  0  1  0  0  0  0  0  0  0  0  0
    2.5030   -3.1090    0.9630 C   0  0  0  0  0  0  0  0  0  0  0  0
    1.7100   -3.2180    2.2160 C   0  0  0  0  0  0  0  0  0  0  0  0
    1.8630   -4.1300    3.0850 O   0  0  0  0  0  0  0  0  0  0  0  0
    0.8190   -2.1530    2.2150 O   0  0  0  0  0  0  0  0  0  0  0  0
    0.4830   -1.9600    0.8420 C   0  0  1  0  0  0  0  0  0  0  0  0
   -1.3300   -0.9550   -0.2260 O   0  0  0  0  0  0  0  0  0  0  0  0
   -2.9850    0.8150   -0.1000 C   0  0  0  0  0  0  0  0  0  0  0  0
  2  1  1  1
  2  3  1  0
  2 27  1  0
  3  4  1  0
  4  5  1  0
  6  5  1  6
  6  7  1  0
  6 26  1  0
  6 27  1  0
  7  8  1  0
  8  9  1  0
 10  9  1  1
 10 11  1  0
 10 25  1  0
 10 26  1  0
 11 12  1  0
 12 13  1  1
 12 14  1  0
 12 19  1  0
 14 15  1  6
 14 16  1  0
 16 17  1  0
 17 18  1  0
 20 19  1  1
 20 21  1  0
 20 25  1  0
 21 22  1  0
 22 23  2  0
 22 24  1  0
 25 24  1  1
M  END
