
     RDKit          3D

 27 30  0  0  0  0  0  0  0  0999 V2000
    0.9170    2.4920    0.2070 C   0  0  0  0  0  0  0  0  0  0  0  0
    0.1640    1.2040    0.0610 C   0  0  1  0  0  0  0  0  0  0  0  0
   -0.4500    1.0350    1.3080 O   0  0  0  0  0  0  0  0  0  0  0  0
   -0.9570    1.4310   -0.9280 C   0  0  0  0  0  0  0  0  0  0  0  0
   -2.2160    1.9270   -0.2530 C   0  0  0  0  0  0  0  0  0  0  0  0
   -3.5060    1.5140   -0.8150 C   0  0  2  0  0  0  0  0  0  0  0  0
   -4.5580    1.7490    0.2900 C   0  0  0  0  0  0  0  0  0  0  0  0
   -4.7910    0.3710    0.9340 C   0  0  0  0  0  0  0  0  0  0  0  0
   -3.7050   -0.4760    0.3080 C   0  0  1  0  0  0  0  0  0  0  0  0
   -3.8100   -1.9280    0.4520 C   0  0  0  0  0  0  0  0  0  0  0  0
   -2.5300   -2.5050    1.0730 C   0  0  0  0  0  0  0  0  0  0  0  0
   -1.7940   -1.4960    1.5790 O   0  0  0  0  0  0  0  0  0  0  0  0
   -0.3950   -1.5580    1.3640 C   0  0  0  0  0  0  0  0  0  0  0  0
    0.0260   -1.1880    0.0290 C   0  0  2  0  0  0  0  0  0  0  0  0
    0.5860   -2.3030   -0.8340 C   0  0  0  0  0  0  0  0  0  0  0  0
    0.6660   -1.5070   -2.1360 C   0  0  0  0  0  0  0  0  0  0  0  0
    1.3220   -0.2410   -1.6590 C   0  0  0  0  0  0  0  0  0  0  0  0
    0.9690   -0.0180   -0.1990 C   0  0  1  0  0  0  0  0  0  0  0  0
    2.1620   -0.2470    0.6090 C   0  0  0  0  0  0  0  0  0  0  0  0
    3.3170    0.6310    0.7080 C   0  0  2  0  0  0  0  0  0  0  0  0
    4.1320    0.9820   -0.4750 C   0  0  0  0  0  0  0  0  0  0  0  0
    5.1170   -0.1220   -0.8760 C   0  0  0  0  0  0  0  0  0  0  0  0
    6.1360   -0.1710    0.0720 O   0  0  0  0  0  0  0  0  0  0  0  0
    5.7260    0.2660    1.3250 C   0  0  0  0  0  0  0  0  0  0  0  0
    4.3190   -0.1640    1.5990 C   0  0  0  0  0  0  0  0  0  0  0  0
   -3.7700    0.0830   -1.0930 C   0  0  2  0  0  0  0  0  0  0  0  0
   -3.1110   -0.5600   -2.0580 O   0  0  0  0  0  0  0  0  0  0  0  0
  2  1  1  1
  2  3  1  0
  2  4  1  0
  2 18  1  0
  4  5  1  0
  6  5  1  1
  6  7  1  0
  6 26  1  0
  7  8  1  0
  9  8  1  1
  9 10  1  0
  9 26  1  0
 10 11  1  0
 11 12  1  0
 12 13  1  0
 14 13  1  1
 14 15  1  0
 14 18  1  0
 15 16  1  0
 16 17  1  0
 17 18  1  0
 18 19  1  1
 20 19  1  6
 20 21  1  0
 20 25  1  0
 21 22  1  0
 22 23  1  0
 23 24  1  0
 24 25  1  0
 26 27  1  6
M  END
