
     RDKit          3D

 27 30  0  0  0  0  0  0  0  0999 V2000
   -6.3830    0.8110    1.2040 C   0  0  0  0  0  0  0  0  0  0  0  0
   -5.6140   -0.3110    0.5100 C   0  0  1  0  0  0  0  0  0  0  0  0
   -6.4080   -1.3780    0.2060 O   0  0  0  0  0  0  0  0  0  0  0  0
   -6.0730   -1.8630   -1.0350 C   0  0  0  0  0  0  0  0  0  0  0  0
   -5.3810   -0.7570   -1.7890 C   0  0  2  0  0  0  0  0  0  0  0  0
   -4.3820   -1.1910   -2.6250 O   0  0  0  0  0  0  0  0  0  0  0  0
   -4.9370    0.1830   -0.7160 C   0  0  2  0  0  0  0  0  0  0  0  0
   -3.4530    0.3290   -0.6020 C   0  0  1  0  0  0  0  0  0  0  0  0
   -3.1870    1.3330    0.5230 C   0  0  0  0  0  0  0  0  0  0  0  0
   -1.7360    1.6670    0.4860 C   0  0  0  0  0  0  0  0  0  0  0  0
   -0.8240    0.4720    0.5660 C   0  0  2  0  0  0  0  0  0  0  0  0
   -0.8780   -0.0680    2.0010 C   0  0  0  0  0  0  0  0  0  0  0  0
    0.5420    0.9200    0.2220 C   0  0  0  0  0  0  0  0  0  0  0  0
    0.7930    2.1360   -0.0760 O   0  0  0  0  0  0  0  0  0  0  0  0
    1.6380    0.0690    0.1980 O   0  0  0  0  0  0  0  0  0  0  0  0
    2.9400    0.5210   -0.1350 C   0  0  2  0  0  0  0  0  0  0  0  0
    3.4740   -0.1410   -1.3800 C   0  0  0  0  0  0  0  0  0  0  0  0
    4.5150   -1.1680   -1.1330 C   0  0  1  0  0  0  0  0  0  0  0  0
    5.8930   -0.6770   -0.9220 C   0  0  0  0  0  0  0  0  0  0  0  0
    6.1110    0.7810   -1.1450 C   0  0  0  0  0  0  0  0  0  0  0  0
    5.5240    1.6910   -0.1470 C   0  0  0  0  0  0  0  0  0  0  0  0
    5.0480    1.1000    1.1170 C   0  0  0  0  0  0  0  0  0  0  0  0
    3.8020    0.3070    1.0770 C   0  0  2  0  0  0  0  0  0  0  0  0
    4.0450   -1.1650    1.3320 C   0  0  0  0  0  0  0  0  0  0  0  0
    4.0990   -1.9780    0.0770 C   0  0  0  0  0  0  0  0  0  0  0  0
   -1.2490   -0.6610   -0.3300 C   0  0  0  0  0  0  0  0  0  0  0  0
   -2.7290   -0.9250   -0.2560 C   0  0  0  0  0  0  0  0  0  0  0  0
  2  1  1  6
  2  3  1  0
  2  7  1  0
  3  4  1  0
  4  5  1  0
  5  6  1  1
  5  7  1  0
  7  8  1  1
  8  9  1  1
  8 27  1  0
  9 10  1  0
 10 11  1  0
 11 12  1  1
 11 13  1  0
 11 26  1  0
 13 14  2  0
 13 15  1  0
 16 15  1  1
 16 17  1  0
 16 23  1  0
 17 18  1  0
 18 19  1  1
 18 25  1  0
 19 20  1  0
 20 21  1  0
 21 22  1  0
 23 22  1  6
 23 24  1  0
 24 25  1  0
 26 27  1  0
M  END
