
     RDKit          3D

 13 13  0  0  0  0  0  0  0  0999 V2000
    3.7500    1.3090   -0.5350 O   0  0  0  0  0  0  0  0  0  0  0  0
    2.5250    1.2520   -0.0710 O   0  0  0  0  0  0  0  0  0  0  0  0
    1.7590    0.4310   -0.7530 O   0  0  0  0  0  0  0  0  0  0  0  0
    1.2050   -0.4760    0.1040 C   0  0  2  0  0  0  0  0  0  0  0  0
    1.6370   -1.7530   -0.2450 O   0  0  0  0  0  0  0  0  0  0  0  0
   -0.2760   -0.4740    0.1140 C   0  0  0  0  0  0  0  0  0  0  0  0
   -1.0250    0.2990   -0.6080 C   0  0  0  0  0  0  0  0  0  0  0  0
   -2.4920    0.2490   -0.5500 C   0  0  1  0  0  0  0  0  0  0  0  0
   -3.0180    1.5020   -0.1430 O   0  0  0  0  0  0  0  0  0  0  0  0
   -3.0330   -0.0420   -1.8170 F   0  0  0  0  0  0  0  0  0  0  0  0
   -2.9910   -0.6910    0.3380 O   0  0  0  0  0  0  0  0  0  0  0  0
   -2.2150   -1.4990    1.0920 N   0  0  0  0  0  0  0  0  0  0  0  0
   -0.9350   -1.4220    1.0090 C   0  0  0  0  0  0  0  0  0  0  0  0
  1  2  1  0
  2  3  1  0
  3  4  1  0
  4  5  1  6
  4  6  1  0
  6  7  2  0
  6 13  1  0
  7  8  1  0
  8  9  1  1
  8 10  1  0
  8 11  1  0
 11 12  1  0
 12 13  2  0
M  END
