
     RDKit          3D

 14 14  0  0  0  0  0  0  0  0999 V2000
   -4.4650   -0.6230    0.9500 C   0  0  0  0  0  0  0  0  0  0  0  0
   -3.6300    0.3490    1.0850 N   0  0  0  0  0  0  0  0  0  0  0  0
   -2.6800    0.6070    0.0940 C   0  0  0  0  0  0  0  0  0  0  0  0
   -2.7790    0.8610   -1.1960 C   0  0  0  0  0  0  0  0  0  0  0  0
   -1.5790    1.0700   -1.8700 N   0  0  0  0  0  0  0  0  0  0  0  0
   -0.5980    1.6540   -1.1340 O   0  0  0  0  0  0  0  0  0  0  0  0
   -0.8310    0.6940    0.3360 P   0  0  0  0  0  0  0  0  0  0  0  0
   -0.2460   -0.8980   -0.0380 O   0  0  0  0  0  0  0  0  0  0  0  0
    1.1290   -0.8400   -0.1980 C   0  0  0  0  0  0  0  0  0  0  0  0
    1.6770   -0.3840    0.9940 O   0  0  0  0  0  0  0  0  0  0  0  0
    3.4020   -0.2660    0.9240 P   0  0  0  0  0  0  0  0  0  0  0  0
    3.9980   -1.7350    0.1860 O   0  0  0  0  0  0  0  0  0  0  0  0
    3.7830    1.0950   -0.0990 O   0  0  0  0  0  0  0  0  0  0  0  0
    5.0680    1.0510   -0.3540 O   0  0  0  0  0  0  0  0  0  0  0  0
  1  2  2  0
  2  3  1  0
  3  4  2  0
  3  7  1  0
  4  5  1  0
  5  6  1  0
  6  7  1  0
  7  8  1  0
  8  9  1  0
  9 10  1  0
 10 11  1  0
 11 12  1  0
 11 13  1  0
 13 14  1  0
M  END
