
     RDKit          3D

 13 12  0  0  0  0  0  0  0  0999 V2000
   -3.1930   -0.2430   -1.2010 C   0  0  0  0  0  0  0  0  0  0  0  0
   -2.1730    0.0300   -0.1560 C   0  0  2  0  0  0  0  0  0  0  0  0
   -1.9790    1.5140    0.1200 C   0  0  0  0  0  0  0  0  0  0  0  0
   -0.8980   -0.4590   -0.4910 O   0  0  0  0  0  0  0  0  0  0  0  0
   -0.1290   -0.1360    0.5290 O   0  0  0  0  0  0  0  0  0  0  0  0
    1.5210   -0.5490    0.2780 P   0  0  0  0  0  0  0  0  0  0  0  0
    1.7970   -2.0960    1.0360 O   0  0  0  0  0  0  0  0  0  0  0  0
    2.5000    0.6890    1.0900 O   0  0  0  0  0  0  0  0  0  0  0  0
    3.4630    1.3900    0.3930 C   0  0  0  0  0  0  0  0  0  0  0  0
    4.0130    0.8770   -0.6330 N   0  0  0  0  0  0  0  0  0  0  0  0
    3.6490   -0.3940   -1.0610 N   0  0  0  0  0  0  0  0  0  0  0  0
   -2.6100   -0.7620    1.4840 P   0  0  0  0  0  0  0  0  0  0  0  0
   -2.5860   -2.3000    1.6710 O   0  0  0  0  0  0  0  0  0  0  0  0
  2  1  1  6
  2  3  1  0
  2  4  1  0
  2 12  1  0
  4  5  1  0
  5  6  1  0
  6  7  1  0
  6  8  1  0
  8  9  1  0
  9 10  2  3
 10 11  1  0
 12 13  2  0
M  END
