
     RDKit          3D

 14 13  0  0  0  0  0  0  0  0999 V2000
   -3.0840    0.2460    1.4840 N   0  0  0  0  0  0  0  0  0  0  0  0
   -2.7840   -0.2570    0.1580 C   0  0  0  0  0  0  0  0  0  0  0  0
   -1.3650   -0.2430   -0.1200 N   0  0  0  0  0  0  0  0  0  0  0  0
   -0.8690    0.6890   -0.8320 C   0  0  0  0  0  0  0  0  0  0  0  0
    0.4990    0.6590   -1.0700 O   0  0  0  0  0  0  0  0  0  0  0  0
    1.3210   -0.3800   -0.6800 C   0  0  0  0  0  0  0  0  0  0  0  0
    1.0420   -1.7390   -1.0760 C   0  0  0  0  0  0  0  0  0  0  0  0
    1.8030   -2.6540   -0.7070 O   0  0  0  0  0  0  0  0  0  0  0  0
    2.3870   -0.1180    0.0760 C   0  0  0  0  0  0  0  0  0  0  0  0
    3.2300   -1.1490    0.4830 O   0  0  0  0  0  0  0  0  0  0  0  0
    2.7110    1.1580    0.4900 O   0  0  0  0  0  0  0  0  0  0  0  0
    3.1590    1.4480    1.7090 O   0  0  0  0  0  0  0  0  0  0  0  0
   -1.9150    2.0250   -1.5200 P   0  0  0  0  0  0  0  0  0  0  0  0
   -1.2390    3.1470   -2.3810 O   0  0  0  0  0  0  0  0  0  0  0  0
  1  2  1  0
  2  3  1  0
  3  4  2  3
  4  5  1  0
  4 13  1  0
  5  6  1  0
  6  7  1  0
  6  9  2  3
  7  8  2  0
  9 10  1  0
  9 11  1  0
 11 12  1  0
 13 14  2  0
M  END
