
     RDKit          3D

 13 12  0  0  0  0  0  0  0  0999 V2000
   -2.2530   -1.2520    0.2180 C   0  0  0  0  0  0  0  0  0  0  0  0
   -1.3050   -0.9020   -0.6070 C   0  0  0  0  0  0  0  0  0  0  0  0
   -1.5220   -1.0190   -2.0960 C   0  0  0  0  0  0  0  0  0  0  0  0
    0.0200   -0.3770   -0.1920 C   0  0  1  0  0  0  0  0  0  0  0  0
    0.1590   -0.2920    1.1750 O   0  0  0  0  0  0  0  0  0  0  0  0
    1.3950    0.1940    1.4360 N   0  0  0  0  0  0  0  0  0  0  0  0
    1.9200   -0.3490    2.5610 O   0  0  0  0  0  0  0  0  0  0  0  0
    3.1000    0.1100    2.8310 O   0  0  0  0  0  0  0  0  0  0  0  0
    3.7010    0.6780    1.8280 O   0  0  0  0  0  0  0  0  0  0  0  0
    1.3830   -1.4290   -0.8850 P   0  0  0  0  0  0  0  0  0  0  0  0
    1.9930   -2.5240   -0.0010 O   0  0  0  0  0  0  0  0  0  0  0  0
    0.1410    1.3650   -0.8670 P   0  0  0  0  0  0  0  0  0  0  0  0
   -1.3460    2.3040   -0.2750 C   0  0  0  0  0  0  0  0  0  0  0  0
  1  2  2  0
  2  3  1  0
  2  4  1  0
  4  5  1  1
  4 10  1  0
  4 12  1  0
  5  6  1  0
  6  7  1  0
  7  8  1  0
  8  9  1  0
 10 11  2  0
 12 13  1  0
M  END
