
     RDKit          3D

 14 13  0  0  0  0  0  0  0  0999 V2000
    5.7320   -0.5250    0.5430 C   0  0  0  0  0  0  0  0  0  0  0  0
    5.0010    0.4330    0.9480 N   0  0  0  0  0  0  0  0  0  0  0  0
    3.9170    0.8780    0.2710 O   0  0  0  0  0  0  0  0  0  0  0  0
    2.5460   -0.1180   -0.1840 P   0  0  0  0  0  0  0  0  0  0  0  0
    2.6960   -0.6990   -1.8110 O   0  0  0  0  0  0  0  0  0  0  0  0
    1.0420    0.9140   -0.0280 C   0  0  0  0  0  0  0  0  0  0  0  0
    0.9480    2.0140   -0.6120 O   0  0  0  0  0  0  0  0  0  0  0  0
    0.0120    0.4400    0.7550 O   0  0  0  0  0  0  0  0  0  0  0  0
   -1.0790    1.1670    0.8800 O   0  0  0  0  0  0  0  0  0  0  0  0
   -2.1790    0.5300    0.3430 C   0  0  2  0  0  0  0  0  0  0  0  0
   -2.0320    0.2320   -1.1320 C   0  0  0  0  0  0  0  0  0  0  0  0
   -3.6530    1.6400    0.5790 P   0  0  0  0  0  0  0  0  0  0  0  0
   -2.3630   -0.7150    1.0150 N   0  0  0  0  0  0  0  0  0  0  0  0
   -3.5140   -1.0140    1.4580 C   0  0  0  0  0  0  0  0  0  0  0  0
  1  2  2  0
  2  3  1  0
  3  4  1  0
  4  5  1  0
  4  6  1  0
  6  7  2  0
  6  8  1  0
  8  9  1  0
  9 10  1  0
 10 11  1  6
 10 12  1  0
 10 13  1  0
 13 14  2  0
M  END
