
     RDKit          3D

 19 19  0  0  0  0  0  0  0  0999 V2000
    3.5990   -0.3930    2.6900 C   0  0  0  0  0  0  0  0  0  0  0  0
    4.0990   -0.2520    1.3130 C   0  0  0  0  0  0  0  0  0  0  0  0
    5.4980    0.0600    1.0430 C   0  0  0  0  0  0  0  0  0  0  0  0
    3.2360   -0.4180    0.3050 C   0  0  0  0  0  0  0  0  0  0  0  0
    1.8560   -0.7260    0.5710 C   0  0  0  0  0  0  0  0  0  0  0  0
    0.8720   -0.9230   -0.2510 C   0  0  0  0  0  0  0  0  0  0  0  0
    0.9970   -0.8630   -1.6800 C   0  0  0  0  0  0  0  0  0  0  0  0
    2.0970   -0.6110   -2.2250 O   0  0  0  0  0  0  0  0  0  0  0  0
   -0.5100   -1.2360    0.2610 C   0  0  2  0  0  0  0  0  0  0  0  0
   -0.9100   -2.5800   -0.2950 C   0  0  0  0  0  0  0  0  0  0  0  0
   -1.5030   -0.2320   -0.1690 C   0  0  0  0  0  0  0  0  0  0  0  0
   -2.6010   -0.5810   -0.8980 C   0  0  0  0  0  0  0  0  0  0  0  0
   -3.5610    0.3270   -1.3210 C   0  0  0  0  0  0  0  0  0  0  0  0
   -4.7540   -0.1040   -2.1220 C   0  0  0  0  0  0  0  0  0  0  0  0
   -3.4190    1.6560   -1.0000 C   0  0  0  0  0  0  0  0  0  0  0  0
   -2.3010    2.0430   -0.2520 C   0  0  0  0  0  0  0  0  0  0  0  0
   -2.2000    3.4910    0.0640 C   0  0  0  0  0  0  0  0  0  0  0  0
   -1.3670    1.1160    0.1520 C   0  0  0  0  0  0  0  0  0  0  0  0
   -0.2800    1.5300    0.8850 O   0  0  0  0  0  0  0  0  0  0  0  0
  1  2  1  0
  2  3  1  0
  2  4  2  3
  4  5  1  0
  5  6  2  3
  6  7  1  0
  6  9  1  0
  7  8  2  0
  9 10  1  6
  9 11  1  0
 11 12  2  0
 11 18  1  0
 12 13  1  0
 13 14  1  0
 13 15  2  0
 15 16  1  0
 16 17  1  0
 16 18  2  0
 18 19  1  0
M  END
