
     RDKit          3D

 19 19  0  0  0  0  0  0  0  0999 V2000
    3.6760    2.4750    0.7750 C   0  0  0  0  0  0  0  0  0  0  0  0
    3.7630    1.1490    0.1230 C   0  0  0  0  0  0  0  0  0  0  0  0
    4.8350    0.8950   -0.8600 C   0  0  0  0  0  0  0  0  0  0  0  0
    2.8840    0.2110    0.4280 C   0  0  0  0  0  0  0  0  0  0  0  0
    2.9220   -1.1370   -0.1940 C   0  0  0  0  0  0  0  0  0  0  0  0
    1.7440   -1.4060   -0.8830 O   0  0  0  0  0  0  0  0  0  0  0  0
    0.4650   -1.4360   -0.3410 C   0  0  0  0  0  0  0  0  0  0  0  0
   -0.0330   -2.6110    0.2120 C   0  0  0  0  0  0  0  0  0  0  0  0
    0.8670   -3.7900    0.1820 C   0  0  0  0  0  0  0  0  0  0  0  0
   -1.2980   -2.5990    0.7360 C   0  0  0  0  0  0  0  0  0  0  0  0
   -2.1110   -1.4850    0.7470 C   0  0  0  0  0  0  0  0  0  0  0  0
   -3.4900   -1.5790    1.3500 C   0  0  0  0  0  0  0  0  0  0  0  0
   -1.6270   -0.3200    0.2030 C   0  0  0  0  0  0  0  0  0  0  0  0
   -2.4390    0.8970    0.1850 C   0  0  0  0  0  0  0  0  0  0  0  0
   -3.5190    0.9060   -0.8690 C   0  0  0  0  0  0  0  0  0  0  0  0
   -4.2510    2.2450   -0.7310 C   0  0  0  0  0  0  0  0  0  0  0  0
   -3.3190    3.2580   -0.9380 O   0  0  0  0  0  0  0  0  0  0  0  0
   -0.3540   -0.3120   -0.3310 C   0  0  0  0  0  0  0  0  0  0  0  0
    0.1480    0.9680   -0.9460 C   0  0  0  0  0  0  0  0  0  0  0  0
  1  2  1  0
  2  3  1  0
  2  4  2  3
  4  5  1  0
  5  6  1  0
  6  7  1  0
  7  8  2  0
  7 18  1  0
  8  9  1  0
  8 10  1  0
 10 11  2  0
 11 12  1  0
 11 13  1  0
 13 14  1  0
 13 18  2  0
 14 15  1  0
 15 16  1  0
 16 17  1  0
 18 19  1  0
M  END
