
     RDKit          3D

 19 19  0  0  0  0  0  0  0  0999 V2000
    5.9230   -0.5700    0.0200 C   0  0  0  0  0  0  0  0  0  0  0  0
    4.5800   -0.7810    0.7110 C   0  0  0  0  0  0  0  0  0  0  0  0
    3.7540    0.4240    0.6450 C   0  0  0  0  0  0  0  0  0  0  0  0
    4.3730    1.6570    1.3340 C   0  0  0  0  0  0  0  0  0  0  0  0
    2.6160    0.6290    0.1190 C   0  0  0  0  0  0  0  0  0  0  0  0
    1.6880   -0.2390   -0.6260 C   0  0  0  0  0  0  0  0  0  0  0  0
    2.0010   -1.6210   -0.9650 C   0  0  0  0  0  0  0  0  0  0  0  0
    0.5600    0.3180   -1.0220 C   0  0  0  0  0  0  0  0  0  0  0  0
   -0.5240   -0.2820   -1.7570 C   0  0  0  0  0  0  0  0  0  0  0  0
   -1.8600   -0.0710   -1.0920 C   0  0  0  0  0  0  0  0  0  0  0  0
   -2.7280    0.8950   -1.5620 C   0  0  0  0  0  0  0  0  0  0  0  0
   -3.9520    1.1200   -0.9660 C   0  0  0  0  0  0  0  0  0  0  0  0
   -4.9100    2.1500   -1.4430 C   0  0  0  0  0  0  0  0  0  0  0  0
   -4.3350    0.3590    0.1420 C   0  0  0  0  0  0  0  0  0  0  0  0
   -3.4800   -0.6040    0.6160 C   0  0  0  0  0  0  0  0  0  0  0  0
   -3.8210   -1.3740    1.7050 O   0  0  0  0  0  0  0  0  0  0  0  0
   -5.0740   -1.1430    2.3140 C   0  0  0  0  0  0  0  0  0  0  0  0
   -2.2580   -0.7990   -0.0120 C   0  0  0  0  0  0  0  0  0  0  0  0
   -1.4570   -1.7750    0.5110 O   0  0  0  0  0  0  0  0  0  0  0  0
  1  2  1  0
  2  3  1  0
  3  4  1  0
  3  5  2  3
  5  6  1  0
  6  7  1  0
  6  8  2  3
  8  9  1  0
  9 10  1  0
 10 11  2  0
 10 18  1  0
 11 12  1  0
 12 13  1  0
 12 14  2  0
 14 15  1  0
 15 16  1  0
 15 18  2  0
 16 17  1  0
 18 19  1  0
M  END
