
     RDKit          3D

 19 19  0  0  0  0  0  0  0  0999 V2000
    0.1060    2.2210    2.2840 C   0  0  0  0  0  0  0  0  0  0  0  0
   -0.0060    2.0290    1.0000 C   0  0  0  0  0  0  0  0  0  0  0  0
    0.6880    3.0490    0.1200 C   0  0  0  0  0  0  0  0  0  0  0  0
   -0.7090    0.9770    0.3050 C   0  0  0  0  0  0  0  0  0  0  0  0
   -1.8560    1.3780   -0.3950 C   0  0  0  0  0  0  0  0  0  0  0  0
   -2.2700    2.8100   -0.3570 C   0  0  0  0  0  0  0  0  0  0  0  0
   -2.5640    0.4360   -1.0940 C   0  0  0  0  0  0  0  0  0  0  0  0
   -2.1850   -0.8780   -1.1240 C   0  0  0  0  0  0  0  0  0  0  0  0
   -2.9900   -1.8550   -1.8970 C   0  0  0  0  0  0  0  0  0  0  0  0
   -1.0280   -1.2450   -0.4080 C   0  0  0  0  0  0  0  0  0  0  0  0
   -0.7870   -2.6280   -0.5430 O   0  0  0  0  0  0  0  0  0  0  0  0
   -1.5030   -3.4830    0.3670 C   0  0  0  0  0  0  0  0  0  0  0  0
   -0.2650   -0.3610    0.3100 C   0  0  0  0  0  0  0  0  0  0  0  0
    0.9390   -0.7670    0.9920 C   0  0  2  0  0  0  0  0  0  0  0  0
    1.3020   -2.2080    0.8020 C   0  0  0  0  0  0  0  0  0  0  0  0
    0.9380   -0.5560    2.3850 O   0  0  0  0  0  0  0  0  0  0  0  0
    2.1930   -0.0110    0.5340 C   0  0  0  0  0  0  0  0  0  0  0  0
    2.4760   -0.1720   -0.9270 C   0  0  0  0  0  0  0  0  0  0  0  0
    3.7300    0.6230   -1.2260 C   0  0  0  0  0  0  0  0  0  0  0  0
  1  2  2  0
  2  3  1  0
  2  4  1  0
  4  5  2  0
  4 13  1  0
  5  6  1  0
  5  7  1  0
  7  8  2  0
  8  9  1  0
  8 10  1  0
 10 11  1  0
 10 13  2  0
 11 12  1  0
 13 14  1  0
 14 15  1  1
 14 16  1  0
 14 17  1  0
 17 18  1  0
 18 19  1  0
M  END
