
     RDKit          3D

 46 50  0  0  0  0  0  0  0  0999 V2000
    8.2590    4.3770    2.2460 C   0  0  0  0  0  0  0  0  0  0  0  0
    8.4680    3.4000    1.2380 O   0  0  0  0  0  0  0  0  0  0  0  0
    7.9000    2.1350    1.3230 C   0  0  0  0  0  0  0  0  0  0  0  0
    8.0700    1.1570    0.3740 C   0  0  0  0  0  0  0  0  0  0  0  0
    7.4850   -0.0820    0.5070 C   0  0  0  0  0  0  0  0  0  0  0  0
    6.7030   -0.4190    1.5820 C   0  0  0  0  0  0  0  0  0  0  0  0
    6.0710   -1.7410    1.7600 C   0  0  0  0  0  0  0  0  0  0  0  0
    5.2070   -2.1520    0.6930 N   0  0  0  0  0  0  0  0  0  0  0  0
    3.9260   -1.5550    0.4720 C   0  0  0  0  0  0  0  0  0  0  0  0
    3.6080   -0.6260    1.2680 O   0  0  0  0  0  0  0  0  0  0  0  0
    3.0090   -1.9720   -0.6050 C   0  0  0  0  0  0  0  0  0  0  0  0
    1.8300   -1.0860   -0.5360 N   0  0  0  0  0  0  0  0  0  0  0  0
    0.7980   -1.4710    0.3450 C   0  0  0  0  0  0  0  0  0  0  0  0
    0.9070   -2.5530    1.0370 O   0  0  0  0  0  0  0  0  0  0  0  0
   -0.4370   -0.7470    0.5800 C   0  0  0  0  0  0  0  0  0  0  0  0
   -0.3960    0.2620    1.5190 C   0  0  0  0  0  0  0  0  0  0  0  0
   -1.5330    1.0000    1.7780 C   0  0  0  0  0  0  0  0  0  0  0  0
   -2.7430    0.7540    1.1090 C   0  0  0  0  0  0  0  0  0  0  0  0
   -2.7270   -0.2310    0.2140 N   0  0  0  0  0  0  0  0  0  0  0  0
   -1.6300   -0.9650   -0.0560 C   0  0  0  0  0  0  0  0  0  0  0  0
   -1.7150   -2.0430   -1.0590 C   0  0  0  0  0  0  0  0  0  0  0  0
   -0.6910   -2.6650   -1.3380 O   0  0  0  0  0  0  0  0  0  0  0  0
   -2.9510   -2.3180   -1.6480 N   0  0  0  0  0  0  0  0  0  0  0  0
   -3.2100   -3.2940   -2.6090 C   0  0  0  0  0  0  0  0  0  0  0  0
   -2.2420   -4.0430   -3.2000 C   0  0  0  0  0  0  0  0  0  0  0  0
   -2.5340   -5.0070   -4.1610 C   0  0  0  0  0  0  0  0  0  0  0  0
   -3.8260   -5.2460   -4.5570 C   0  0  0  0  0  0  0  0  0  0  0  0
   -4.8140   -4.4970   -3.9690 C   0  0  0  0  0  0  0  0  0  0  0  0
   -6.2320   -4.7420   -4.3670 C   0  0  0  0  0  0  0  0  0  0  0  0
   -4.5270   -3.5450   -3.0200 C   0  0  0  0  0  0  0  0  0  0  0  0
   -5.6800   -2.7910   -2.4530 C   0  0  0  0  0  0  0  0  0  0  0  0
   -3.9510    1.4170    1.2720 O   0  0  0  0  0  0  0  0  0  0  0  0
   -4.1020    2.7290    1.8180 C   0  0  2  0  0  0  0  0  0  0  0  0
   -3.6020    2.7020    3.2190 C   0  0  0  0  0  0  0  0  0  0  0  0
   -2.1200    2.9420    3.3640 C   0  0  0  0  0  0  0  0  0  0  0  0
   -1.3430    1.9720    2.7400 O   0  0  0  0  0  0  0  0  0  0  0  0
   -5.5870    3.0090    1.7770 C   0  0  0  0  0  0  0  0  0  0  0  0
   -5.7810    4.4860    2.0520 C   0  0  0  0  0  0  0  0  0  0  0  0
   -4.4530    5.1720    1.0080 S   0  0  0  0  0  0  0  0  0  0  0  0
   -5.0740    5.3670   -0.3810 O   0  0  0  0  0  0  0  0  0  0  0  0
   -3.4120    3.6800    0.9020 C   0  0  0  0  0  0  0  0  0  0  0  0
    1.8330    0.0650   -1.3900 C   0  0  2  0  0  0  0  0  0  0  0  0
    1.6930    1.3860   -0.6900 C   0  0  0  0  0  0  0  0  0  0  0  0
    0.7900   -0.0280   -2.5090 C   0  0  0  0  0  0  0  0  0  0  0  0
    6.5290    0.5610    2.5390 C   0  0  0  0  0  0  0  0  0  0  0  0
    7.1060    1.8120    2.4280 C   0  0  0  0  0  0  0  0  0  0  0  0
  1  2  1  0
  2  3  1  0
  3  4  2  0
  3 46  1  0
  4  5  1  0
  5  6  2  0
  6  7  1  0
  6 45  1  0
  7  8  1  0
  8  9  1  0
  9 10  2  0
  9 11  1  0
 11 12  1  0
 12 13  1  0
 12 42  1  0
 13 14  2  0
 13 15  1  0
 15 16  2  0
 15 20  1  0
 16 17  1  0
 17 18  2  0
 17 36  1  0
 18 19  1  0
 18 32  1  0
 19 20  2  0
 20 21  1  0
 21 22  2  0
 21 23  1  0
 23 24  1  0
 24 25  2  0
 24 30  1  0
 25 26  1  0
 26 27  2  0
 27 28  1  0
 28 29  1  0
 28 30  2  0
 30 31  1  0
 32 33  1  0
 33 34  1  1
 33 37  1  0
 33 41  1  0
 34 35  1  0
 35 36  1  0
 37 38  1  0
 39 38  1  1
 39 40  2  0
 39 41  1  0
 42 43  1  1
 42 44  1  0
 45 46  2  0
M  END
