
     RDKit          3D

 46 50  0  0  0  0  0  0  0  0999 V2000
   -8.2480    3.6430    1.0690 C   0  0  0  0  0  0  0  0  0  0  0  0
   -7.8590    2.4550    0.6250 C   0  0  0  0  0  0  0  0  0  0  0  0
   -6.5380    2.3130    0.0070 C   0  0  0  0  0  0  0  0  0  0  0  0
   -5.6050    1.4310    0.6300 N   0  0  0  0  0  0  0  0  0  0  0  0
   -4.7460    1.9670    1.6670 C   0  0  0  0  0  0  0  0  0  0  0  0
   -5.0560    3.1320    2.0850 O   0  0  0  0  0  0  0  0  0  0  0  0
   -3.5810    1.3620    2.3030 C   0  0  0  0  0  0  0  0  0  0  0  0
   -3.0540    1.9700    3.2500 O   0  0  0  0  0  0  0  0  0  0  0  0
   -3.0260    0.1190    1.8960 N   0  0  0  0  0  0  0  0  0  0  0  0
   -3.0430   -0.3710    0.4970 C   0  0  2  0  0  0  0  0  0  0  0  0
   -2.2710    0.5960   -0.3120 C   0  0  0  0  0  0  0  0  0  0  0  0
   -2.9410    1.5230   -1.1260 C   0  0  0  0  0  0  0  0  0  0  0  0
   -2.2290    2.4600   -1.8610 C   0  0  0  0  0  0  0  0  0  0  0  0
   -0.8630    2.5060   -1.8150 C   0  0  0  0  0  0  0  0  0  0  0  0
   -0.2470    1.6000   -1.0250 C   0  0  0  0  0  0  0  0  0  0  0  0
   -0.9250    0.6080   -0.2360 C   0  0  0  0  0  0  0  0  0  0  0  0
   -0.0800   -0.3370    0.3610 N   0  0  0  0  0  0  0  0  0  0  0  0
    1.2150    0.1770    0.8630 C   0  0  0  0  0  0  0  0  0  0  0  0
    1.3770    1.3780    0.9100 O   0  0  0  0  0  0  0  0  0  0  0  0
    2.2360   -0.7440    1.2270 C   0  0  0  0  0  0  0  0  0  0  0  0
    2.1240   -1.9990    1.1470 O   0  0  0  0  0  0  0  0  0  0  0  0
    3.5160   -0.1880    1.6910 N   0  0  0  0  0  0  0  0  0  0  0  0
    4.5470   -1.2580    1.7050 C   0  0  0  0  0  0  0  0  0  0  0  0
    5.4800   -0.6860    0.5910 C   0  0  0  0  0  0  0  0  0  0  0  0
    5.8810    0.6240    0.6660 C   0  0  0  0  0  0  0  0  0  0  0  0
    6.9590    1.0550   -0.0940 C   0  0  0  0  0  0  0  0  0  0  0  0
    7.6080    0.1580   -0.9160 C   0  0  0  0  0  0  0  0  0  0  0  0
    7.1960   -1.1630   -0.9810 C   0  0  0  0  0  0  0  0  0  0  0  0
    6.1150   -1.5610   -0.2080 C   0  0  0  0  0  0  0  0  0  0  0  0
    5.4180   -2.8620   -0.5170 C   0  0  0  0  0  0  0  0  0  0  0  0
    6.1230   -3.9370   -0.1800 O   0  0  0  0  0  0  0  0  0  0  0  0
    7.4600   -3.9590   -0.2690 C   0  0  0  0  0  0  0  0  0  0  0  0
    8.6950    0.4540   -1.7590 O   0  0  0  0  0  0  0  0  0  0  0  0
    9.8500    1.2400   -1.4270 C   0  0  0  0  0  0  0  0  0  0  0  0
    9.6460    1.8540   -0.0430 C   0  0  0  0  0  0  0  0  0  0  0  0
    8.6310    2.9460   -0.0460 C   0  0  0  0  0  0  0  0  0  0  0  0
    7.2920    2.4060    0.0640 O   0  0  0  0  0  0  0  0  0  0  0  0
   -4.4050   -0.6750    0.0630 C   0  0  0  0  0  0  0  0  0  0  0  0
   -5.5290    0.0790    0.1170 C   0  0  0  0  0  0  0  0  0  0  0  0
   -6.8670   -0.3600   -0.2680 C   0  0  0  0  0  0  0  0  0  0  0  0
   -6.9230   -1.8370   -0.6870 C   0  0  1  0  0  0  0  0  0  0  0  0
   -6.8950   -2.7230    0.5620 C   0  0  0  0  0  0  0  0  0  0  0  0
   -8.2000   -2.0890   -1.4180 C   0  0  0  0  0  0  0  0  0  0  0  0
   -5.6860   -2.1710   -1.4870 C   0  0  0  0  0  0  0  0  0  0  0  0
   -4.5480   -1.9930   -0.5170 C   0  0  0  0  0  0  0  0  0  0  0  0
   -3.8120   -2.9490   -0.2690 O   0  0  0  0  0  0  0  0  0  0  0  0
  1  2  2  0
  2  3  1  0
  3  4  1  0
  4  5  1  0
  4 39  1  0
  5  6  2  0
  5  7  1  0
  7  8  2  0
  7  9  1  0
  9 10  1  0
 10 11  1  6
 10 38  1  0
 11 12  2  0
 11 16  1  0
 12 13  1  0
 13 14  2  0
 14 15  1  0
 15 16  2  0
 16 17  1  0
 17 18  1  0
 18 19  2  0
 18 20  1  0
 20 21  2  0
 20 22  1  0
 22 23  1  0
 23 24  1  0
 24 25  2  0
 24 29  1  0
 25 26  1  0
 26 27  2  0
 26 37  1  0
 27 28  1  0
 27 33  1  0
 28 29  2  0
 29 30  1  0
 30 31  1  0
 31 32  1  0
 33 34  1  0
 34 35  1  0
 35 36  1  0
 36 37  1  0
 38 39  2  0
 38 45  1  0
 39 40  1  0
 40 41  1  0
 41 42  1  1
 41 43  1  0
 41 44  1  0
 44 45  1  0
 45 46  2  0
M  END
