
     RDKit          3D

 41 45  0  0  0  0  0  0  0  0999 V2000
   -7.1010   -1.2960   -1.2780 C   0  0  0  0  0  0  0  0  0  0  0  0
   -7.2460   -1.6410    0.1260 N   0  0  2  0  0  0  0  0  0  0  0  0
   -7.7210   -2.9890    0.2400 C   0  0  0  0  0  0  0  0  0  0  0  0
   -8.2760   -0.7570    0.6650 C   0  0  0  0  0  0  0  0  0  0  0  0
   -6.0120   -1.4630    0.8060 C   0  0  0  0  0  0  0  0  0  0  0  0
   -5.1670   -2.5160    1.0640 C   0  0  0  0  0  0  0  0  0  0  0  0
   -3.9680   -2.3340    1.7260 C   0  0  0  0  0  0  0  0  0  0  0  0
   -3.5690   -1.0740    2.1580 C   0  0  0  0  0  0  0  0  0  0  0  0
   -2.2710   -0.9680    2.8630 C   0  0  0  0  0  0  0  0  0  0  0  0
   -1.1540   -1.0260    1.9340 N   0  0  0  0  0  0  0  0  0  0  0  0
   -0.8200    0.1150    1.1230 C   0  0  0  0  0  0  0  0  0  0  0  0
   -1.5640    1.1160    1.2980 O   0  0  0  0  0  0  0  0  0  0  0  0
    0.2970    0.0710    0.1870 C   0  0  0  0  0  0  0  0  0  0  0  0
    1.0120   -1.1060   -0.0530 C   0  0  0  0  0  0  0  0  0  0  0  0
    1.9700   -0.8250   -0.9950 C   0  0  0  0  0  0  0  0  0  0  0  0
    2.9590   -1.5560   -1.6310 C   0  0  0  0  0  0  0  0  0  0  0  0
    3.8190   -1.0370   -2.5680 C   0  0  0  0  0  0  0  0  0  0  0  0
    4.7990   -1.7890   -3.1860 O   0  0  0  0  0  0  0  0  0  0  0  0
    5.0350   -3.1300   -2.9320 C   0  0  0  0  0  0  0  0  0  0  0  0
    5.4250   -3.4530   -1.5390 C   0  0  0  0  0  0  0  0  0  0  0  0
    5.7770   -2.5310   -0.5850 C   0  0  0  0  0  0  0  0  0  0  0  0
    6.1300   -2.9220    0.6930 C   0  0  0  0  0  0  0  0  0  0  0  0
    6.1340   -4.2540    1.0340 C   0  0  0  0  0  0  0  0  0  0  0  0
    5.7840   -5.1970    0.0930 C   0  0  0  0  0  0  0  0  0  0  0  0
    5.4380   -4.7810   -1.1690 C   0  0  0  0  0  0  0  0  0  0  0  0
    3.6430    0.3140   -2.8630 C   0  0  0  0  0  0  0  0  0  0  0  0
    2.6860    1.0940   -2.2720 C   0  0  0  0  0  0  0  0  0  0  0  0
    1.8520    0.5100   -1.3360 C   0  0  0  0  0  0  0  0  0  0  0  0
    0.8330    1.0120   -0.5990 N   0  0  0  0  0  0  0  0  0  0  0  0
    0.3620    2.3750   -0.6480 C   0  0  0  0  0  0  0  0  0  0  0  0
    1.0600    3.3380    0.1790 C   0  0  0  0  0  0  0  0  0  0  0  0
    0.9210    3.4370    1.5320 C   0  0  0  0  0  0  0  0  0  0  0  0
    1.6330    4.4210    2.2340 C   0  0  0  0  0  0  0  0  0  0  0  0
    2.4770    5.2990    1.5980 C   0  0  0  0  0  0  0  0  0  0  0  0
    2.6290    5.2120    0.2300 C   0  0  0  0  0  0  0  0  0  0  0  0
    3.5280    6.1440   -0.4520 C   0  0  0  0  0  0  0  0  0  0  0  0
    4.2010    7.1100    0.3830 N   0  0  0  0  0  0  0  0  0  0  0  0
    3.7470    6.1550   -1.7120 N   0  0  0  0  0  0  0  0  0  0  0  0
    1.9210    4.2390   -0.4450 C   0  0  0  0  0  0  0  0  0  0  0  0
   -4.4080   -0.0160    1.9050 C   0  0  0  0  0  0  0  0  0  0  0  0
   -5.6110   -0.2150    1.2380 C   0  0  0  0  0  0  0  0  0  0  0  0
  2  1  1  6
  2  3  1  0
  2  4  1  0
  2  5  1  0
  5  6  2  0
  5 41  1  0
  6  7  1  0
  7  8  2  0
  8  9  1  0
  8 40  1  0
  9 10  1  0
 10 11  1  0
 11 12  2  0
 11 13  1  0
 13 14  2  0
 13 29  1  0
 14 15  1  0
 15 16  2  0
 15 28  1  0
 16 17  1  0
 17 18  1  0
 17 26  2  0
 18 19  1  0
 19 20  1  0
 20 21  2  0
 20 25  1  0
 21 22  1  0
 22 23  2  0
 23 24  1  0
 24 25  2  0
 26 27  1  0
 27 28  2  0
 28 29  1  0
 29 30  1  0
 30 31  1  0
 31 32  2  0
 31 39  1  0
 32 33  1  0
 33 34  2  0
 34 35  1  0
 35 36  1  0
 35 39  2  0
 36 37  1  0
 36 38  2  0
 40 41  2  0
M  CHG  2   2   1  38   1
M  END
