
     RDKit          3D

 46 51  0  0  0  0  0  0  0  0999 V2000
   -4.4250    2.3060    2.5520 C   0  0  0  0  0  0  0  0  0  0  0  0
   -4.3070    2.1090    1.0290 C   0  0  0  0  0  0  0  0  0  0  0  0
   -4.4790    0.7030    0.6280 C   0  0  0  0  0  0  0  0  0  0  0  0
   -3.3280    0.0300    0.4700 C   0  0  0  0  0  0  0  0  0  0  0  0
   -2.0590    0.6820    0.6740 C   0  0  0  0  0  0  0  0  0  0  0  0
   -1.4450    1.7390    0.0740 C   0  0  0  0  0  0  0  0  0  0  0  0
   -0.2040    1.9510    0.6820 C   0  0  0  0  0  0  0  0  0  0  0  0
   -0.1320    0.9760    1.6500 C   0  0  0  0  0  0  0  0  0  0  0  0
   -1.2130    0.2870    1.5970 O   0  0  0  0  0  0  0  0  0  0  0  0
   -3.2680   -1.4500    0.1740 C   0  0  2  0  0  0  0  0  0  0  0  0
   -1.9600   -2.0100    0.2930 N   0  0  0  0  0  0  0  0  0  0  0  0
   -1.6990   -2.9210    1.3900 C   0  0  0  0  0  0  0  0  0  0  0  0
   -2.0430   -4.3540    1.1010 C   0  0  0  0  0  0  0  0  0  0  0  0
   -0.9460   -1.6980   -0.6140 C   0  0  0  0  0  0  0  0  0  0  0  0
   -1.2130   -0.9030   -1.5760 O   0  0  0  0  0  0  0  0  0  0  0  0
    0.4430   -2.2000   -0.5750 C   0  0  1  0  0  0  0  0  0  0  0  0
    0.4630   -3.6930   -0.8790 C   0  0  0  0  0  0  0  0  0  0  0  0
    1.2660   -1.5250   -1.5280 O   0  0  0  0  0  0  0  0  0  0  0  0
    2.4550   -0.9260   -1.1380 C   0  0  0  0  0  0  0  0  0  0  0  0
    2.7370   -1.0270    0.0920 O   0  0  0  0  0  0  0  0  0  0  0  0
    3.3350   -0.2130   -2.1120 C   0  0  0  0  0  0  0  0  0  0  0  0
    4.5200    0.3400   -1.4120 C   0  0  2  0  0  0  0  0  0  0  0  0
    4.2270    1.3520   -0.3350 C   0  0  0  0  0  0  0  0  0  0  0  0
    5.3190    1.4620    0.6620 C   0  0  0  0  0  0  0  0  0  0  0  0
    6.6160    1.7480   -0.1220 C   0  0  0  0  0  0  0  0  0  0  0  0
    6.5950    1.5170   -1.4680 C   0  0  0  0  0  0  0  0  0  0  0  0
    8.3200    1.9840   -1.9920 S   0  0  0  0  0  0  0  0  0  0  0  0
    8.8330    2.4230   -0.3530 C   0  0  0  0  0  0  0  0  0  0  0  0
   10.0460    2.8830    0.0720 N   0  0  0  0  0  0  0  0  0  0  0  0
   10.2480    3.1600    1.3540 C   0  0  0  0  0  0  0  0  0  0  0  0
   11.3730    3.5800    1.7100 O   0  0  0  0  0  0  0  0  0  0  0  0
    9.2260    2.9720    2.1970 N   0  0  0  0  0  0  0  0  0  0  0  0
    8.0270    2.5230    1.8070 C   0  0  0  0  0  0  0  0  0  0  0  0
    7.1560    2.3920    2.7010 O   0  0  0  0  0  0  0  0  0  0  0  0
    7.7580    2.2100    0.4400 C   0  0  0  0  0  0  0  0  0  0  0  0
    5.5270    1.0280   -2.3140 C   0  0  0  0  0  0  0  0  0  0  0  0
   -3.9830   -1.7670   -1.0490 C   0  0  0  0  0  0  0  0  0  0  0  0
   -3.3590   -2.1920   -2.0850 O   0  0  0  0  0  0  0  0  0  0  0  0
   -5.4150   -1.6440   -1.2230 N   0  0  0  0  0  0  0  0  0  0  0  0
   -6.2660   -0.8020   -0.4470 C   0  0  0  0  0  0  0  0  0  0  0  0
   -7.5980   -1.1440   -0.6320 C   0  0  0  0  0  0  0  0  0  0  0  0
   -7.9860   -2.2660   -1.5240 C   0  0  0  0  0  0  0  0  0  0  0  0
   -8.5010   -0.3720    0.0620 C   0  0  0  0  0  0  0  0  0  0  0  0
   -8.1260    0.6660    0.8840 C   0  0  0  0  0  0  0  0  0  0  0  0
   -6.7670    0.9980    1.0590 C   0  0  0  0  0  0  0  0  0  0  0  0
   -5.8670    0.2380    0.3750 C   0  0  0  0  0  0  0  0  0  0  0  0
  1  2  1  0
  2  3  1  0
  3  4  2  0
  3 46  1  0
  4  5  1  0
  4 10  1  0
  5  6  2  0
  5  9  1  0
  6  7  1  0
  7  8  2  0
  8  9  1  0
 10 11  1  6
 10 37  1  0
 11 12  1  0
 11 14  1  0
 12 13  1  0
 14 15  2  0
 14 16  1  0
 16 17  1  6
 16 18  1  0
 18 19  1  0
 19 20  2  0
 19 21  1  0
 22 21  1  6
 22 23  1  0
 22 36  1  0
 23 24  1  0
 24 25  1  0
 25 26  2  0
 25 35  1  0
 26 27  1  0
 26 36  1  0
 27 28  1  0
 28 29  1  0
 28 35  2  0
 29 30  1  0
 30 31  2  0
 30 32  1  0
 32 33  1  0
 33 34  2  0
 33 35  1  0
 37 38  2  0
 37 39  1  0
 39 40  1  0
 40 41  2  0
 40 46  1  0
 41 42  1  0
 41 43  1  0
 43 44  2  0
 44 45  1  0
 45 46  2  0
M  END
