
     RDKit          3D

 46 50  0  0  0  0  0  0  0  0999 V2000
   -5.5920    0.7810   -1.1030 C   0  0  0  0  0  0  0  0  0  0  0  0
   -6.9280    0.5060   -0.5750 C   0  0  1  0  0  0  0  0  0  0  0  0
   -7.5250   -0.7010   -1.2760 C   0  0  0  0  0  0  0  0  0  0  0  0
   -6.8130   -1.2960   -2.3020 C   0  0  0  0  0  0  0  0  0  0  0  0
   -7.3930   -2.3690   -2.9390 C   0  0  0  0  0  0  0  0  0  0  0  0
   -8.6320   -2.8270   -2.5650 C   0  0  0  0  0  0  0  0  0  0  0  0
   -9.2990   -2.2050   -1.5420 C   0  0  0  0  0  0  0  0  0  0  0  0
   -8.7590   -1.1110   -0.8610 C   0  0  0  0  0  0  0  0  0  0  0  0
   -9.5190   -0.4650    0.2000 C   0  0  0  0  0  0  0  0  0  0  0  0
   -8.7840    0.5730    0.9580 C   0  0  0  0  0  0  0  0  0  0  0  0
   -7.2800    0.4410    0.7760 N   0  0  0  0  0  0  0  0  0  0  0  0
   -6.5710    0.2940    1.9470 C   0  0  0  0  0  0  0  0  0  0  0  0
   -7.4240    0.3440    3.0270 O   0  0  0  0  0  0  0  0  0  0  0  0
   -5.2610    0.1060    2.4650 C   0  0  0  0  0  0  0  0  0  0  0  0
   -4.0620   -0.0050    1.7320 N   0  0  0  0  0  0  0  0  0  0  0  0
   -3.6150   -1.3190    1.3240 C   0  0  0  0  0  0  0  0  0  0  0  0
   -2.1440   -1.5120    1.4100 C   0  0  2  0  0  0  0  0  0  0  0  0
   -1.7970   -2.3760    2.6190 C   0  0  0  0  0  0  0  0  0  0  0  0
   -2.1050   -1.7450    3.8050 O   0  0  0  0  0  0  0  0  0  0  0  0
   -1.3610   -0.3550    1.5290 O   0  0  0  0  0  0  0  0  0  0  0  0
   -1.7880    0.9360    1.3090 C   0  0  0  0  0  0  0  0  0  0  0  0
   -0.9680    1.9370    1.0190 C   0  0  0  0  0  0  0  0  0  0  0  0
    0.4510    1.5800    0.9510 C   0  0  0  0  0  0  0  0  0  0  0  0
    1.2850    1.9210   -0.0830 C   0  0  0  0  0  0  0  0  0  0  0  0
    2.6260    1.5660   -0.0550 C   0  0  0  0  0  0  0  0  0  0  0  0
    3.1620    0.8550    1.0190 C   0  0  0  0  0  0  0  0  0  0  0  0
    4.5460    0.4200    1.0460 C   0  0  0  0  0  0  0  0  0  0  0  0
    5.5600    1.4760    1.4390 C   0  0  0  0  0  0  0  0  0  0  0  0
    6.8770    0.7770    1.3930 C   0  0  0  0  0  0  0  0  0  0  0  0
    7.4740    0.3680    2.5510 C   0  0  0  0  0  0  0  0  0  0  0  0
    8.6580   -0.3460    2.4020 C   0  0  0  0  0  0  0  0  0  0  0  0
    9.1800   -0.6170    1.1930 N   0  0  0  0  0  0  0  0  0  0  0  0
    8.6060   -0.2230    0.0360 C   0  0  0  0  0  0  0  0  0  0  0  0
    9.2420   -0.6290   -1.1580 N   0  0  0  0  0  0  0  0  0  0  0  0
    8.8300   -0.3460   -2.4800 C   0  0  0  0  0  0  0  0  0  0  0  0
    7.8200    0.3720   -2.6450 O   0  0  0  0  0  0  0  0  0  0  0  0
    9.5460   -0.8670   -3.6620 C   0  0  0  0  0  0  0  0  0  0  0  0
    9.1580   -0.3010   -4.9670 C   0  0  0  0  0  0  0  0  0  0  0  0
    9.5270    1.4320   -5.0860 S   0  0  0  0  0  0  0  0  0  0  0  0
   11.0240    1.7050   -5.1640 O   0  0  0  0  0  0  0  0  0  0  0  0
    8.7350    2.3340   -3.9320 O   0  0  0  0  0  0  0  0  0  0  0  0
    7.4460    0.4810    0.1380 C   0  0  0  0  0  0  0  0  0  0  0  0
    2.3180    0.5230    2.0440 C   0  0  0  0  0  0  0  0  0  0  0  0
    0.9960    0.8660    2.0290 C   0  0  0  0  0  0  0  0  0  0  0  0
   -3.2560    1.1220    1.4250 C   0  0  0  0  0  0  0  0  0  0  0  0
   -3.6980    2.2690    1.2500 O   0  0  0  0  0  0  0  0  0  0  0  0
  2  1  1  1
  2  3  1  0
  2 11  1  0
  3  4  2  0
  3  8  1  0
  4  5  1  0
  5  6  2  0
  6  7  1  0
  7  8  2  0
  8  9  1  0
  9 10  1  0
 10 11  1  0
 11 12  1  0
 12 13  2  0
 12 14  1  0
 14 15  1  0
 15 16  1  0
 15 45  1  0
 16 17  1  0
 17 18  1  1
 17 20  1  0
 18 19  1  0
 20 21  1  0
 21 22  2  3
 21 45  1  0
 22 23  1  0
 23 24  2  0
 23 44  1  0
 24 25  1  0
 25 26  2  0
 26 27  1  0
 26 43  1  0
 27 28  1  0
 28 29  1  0
 29 30  2  0
 29 42  1  0
 30 31  1  0
 31 32  2  0
 32 33  1  0
 33 34  1  0
 33 42  2  0
 34 35  1  0
 35 36  2  0
 35 37  1  0
 37 38  1  0
 38 39  1  0
 39 40  2  0
 39 41  1  1
 43 44  2  0
 45 46  2  0
M  END
