
     RDKit          3D

 46 50  0  0  0  0  0  0  0  0999 V2000
   -5.0180    7.7330   -1.4220 C   0  0  0  0  0  0  0  0  0  0  0  0
   -4.4940    7.0240   -0.3310 O   0  0  0  0  0  0  0  0  0  0  0  0
   -4.4370    5.6440   -0.3910 C   0  0  0  0  0  0  0  0  0  0  0  0
   -4.8530    4.8800   -1.4540 C   0  0  0  0  0  0  0  0  0  0  0  0
   -4.7920    3.5320   -1.4940 C   0  0  0  0  0  0  0  0  0  0  0  0
   -4.2760    2.8230   -0.3980 C   0  0  0  0  0  0  0  0  0  0  0  0
   -4.2770    1.3520   -0.4340 C   0  0  0  0  0  0  0  0  0  0  0  0
   -2.9810    0.7860   -0.0530 N   0  0  0  0  0  0  0  0  0  0  0  0
   -2.8950    0.1710    1.2430 C   0  0  0  0  0  0  0  0  0  0  0  0
   -3.8170   -1.0480    1.1350 C   0  0  0  0  0  0  0  0  0  0  0  0
   -3.4950   -2.1600    0.4090 C   0  0  0  0  0  0  0  0  0  0  0  0
   -4.3330   -3.2730    0.3680 C   0  0  0  0  0  0  0  0  0  0  0  0
   -5.5140   -3.2340    1.0810 C   0  0  0  0  0  0  0  0  0  0  0  0
   -5.8570   -2.1220    1.8180 C   0  0  0  0  0  0  0  0  0  0  0  0
   -4.9840   -1.0280    1.8310 C   0  0  0  0  0  0  0  0  0  0  0  0
   -7.0240   -2.0390    2.5480 O   0  0  0  0  0  0  0  0  0  0  0  0
   -7.5620   -3.2910    2.9890 C   0  0  0  0  0  0  0  0  0  0  0  0
   -7.6900   -4.1760    1.7780 C   0  0  0  0  0  0  0  0  0  0  0  0
   -6.4230   -4.3210    1.1190 N   0  0  0  0  0  0  0  0  0  0  0  0
   -5.9990   -5.5480    0.4730 C   0  0  0  0  0  0  0  0  0  0  0  0
   -1.9970    0.6650   -1.0350 C   0  0  0  0  0  0  0  0  0  0  0  0
   -2.3110    0.9520   -2.2680 O   0  0  0  0  0  0  0  0  0  0  0  0
   -0.6380    0.2480   -0.8280 C   0  0  0  0  0  0  0  0  0  0  0  0
    0.0680    0.2640    0.3540 C   0  0  0  0  0  0  0  0  0  0  0  0
    1.3430   -0.2750    0.5010 C   0  0  0  0  0  0  0  0  0  0  0  0
    1.9110   -0.8410   -0.6100 C   0  0  0  0  0  0  0  0  0  0  0  0
    3.1980   -1.4420   -0.4770 N   0  0  0  0  0  0  0  0  0  0  0  0
    4.3950   -0.9000   -0.9970 C   0  0  0  0  0  0  0  0  0  0  0  0
    4.3150    0.2000   -1.6080 O   0  0  0  0  0  0  0  0  0  0  0  0
    5.6550   -1.6220   -0.8070 C   0  0  0  0  0  0  0  0  0  0  0  0
    5.6490   -2.7310   -0.2650 O   0  0  0  0  0  0  0  0  0  0  0  0
    6.8910   -1.0760   -1.2280 N   0  0  0  0  0  0  0  0  0  0  0  0
    8.1750   -1.7250   -1.0890 C   0  0  1  0  0  0  0  0  0  0  0  0
    8.8680   -1.7720   -2.4140 C   0  0  0  0  0  0  0  0  0  0  0  0
    9.0080   -1.2470    0.0390 C   0  0  0  0  0  0  0  0  0  0  0  0
    9.3800    0.1920    0.0780 C   0  0  2  0  0  0  0  0  0  0  0  0
   10.1890    0.6170   -1.1180 C   0  0  0  0  0  0  0  0  0  0  0  0
   10.2870    0.3590    1.3090 C   0  0  0  0  0  0  0  0  0  0  0  0
    1.2400   -0.8730   -1.8250 C   0  0  0  0  0  0  0  0  0  0  0  0
   -0.0050   -0.3450   -1.9420 C   0  0  0  0  0  0  0  0  0  0  0  0
   -3.8510    3.5580    0.6770 C   0  0  0  0  0  0  0  0  0  0  0  0
   -3.3220    3.2780    1.8450 O   0  0  0  0  0  0  0  0  0  0  0  0
   -3.0680    4.3160    2.5610 C   0  0  0  0  0  0  0  0  0  0  0  0
   -2.5570    4.3720    3.7190 O   0  0  0  0  0  0  0  0  0  0  0  0
   -3.4390    5.3510    1.8540 O   0  0  0  0  0  0  0  0  0  0  0  0
   -3.9240    4.9590    0.6960 C   0  0  0  0  0  0  0  0  0  0  0  0
  1  2  1  0
  2  3  1  0
  3  4  2  0
  3 46  1  0
  4  5  1  0
  5  6  2  0
  6  7  1  0
  6 41  1  0
  7  8  1  0
  8  9  1  0
  8 21  1  0
  9 10  1  0
 10 11  2  0
 10 15  1  0
 11 12  1  0
 12 13  2  0
 13 14  1  0
 13 19  1  0
 14 15  2  0
 14 16  1  0
 16 17  1  0
 17 18  1  0
 18 19  1  0
 19 20  1  0
 21 22  2  0
 21 23  1  0
 23 24  2  0
 23 40  1  0
 24 25  1  0
 25 26  2  0
 26 27  1  0
 26 39  1  0
 27 28  1  0
 28 29  2  0
 28 30  1  0
 30 31  2  0
 30 32  1  0
 32 33  1  0
 33 34  1  6
 33 35  1  0
 35 36  1  0
 36 37  1  6
 36 38  1  0
 39 40  2  0
 41 42  1  0
 41 46  2  0
 42 43  1  0
 43 44  2  0
 43 45  1  0
 45 46  1  0
M  END
