
     RDKit          3D

 46 50  0  0  0  0  0  0  0  0999 V2000
    0.1570    2.1800    0.8990 C   0  0  0  0  0  0  0  0  0  0  0  0
    0.1070    1.1130   -0.1240 C   0  0  0  0  0  0  0  0  0  0  0  0
    0.3650   -0.1700    0.2000 O   0  0  0  0  0  0  0  0  0  0  0  0
    0.1030   -0.9820    1.2660 C   0  0  0  0  0  0  0  0  0  0  0  0
   -1.3350   -1.1620    1.5320 C   0  0  0  0  0  0  0  0  0  0  0  0
   -2.3560   -0.5740    0.8470 C   0  0  0  0  0  0  0  0  0  0  0  0
   -3.6880   -0.8200    1.1780 C   0  0  0  0  0  0  0  0  0  0  0  0
   -4.0400   -1.6630    2.2060 C   0  0  0  0  0  0  0  0  0  0  0  0
   -3.0060   -2.2820    2.9280 C   0  0  0  0  0  0  0  0  0  0  0  0
   -3.3970   -3.4000    4.2190 S   0  0  1  0  0  0  0  0  0  0  0  0
   -2.7640   -5.0170    3.8260 C   0  0  0  0  0  0  0  0  0  0  0  0
   -2.8360   -2.8720    5.5080 O   0  0  0  0  0  0  0  0  0  0  0  0
   -4.9100   -3.4480    4.3230 O   0  0  0  0  0  0  0  0  0  0  0  0
   -1.7060   -2.0210    2.5810 C   0  0  0  0  0  0  0  0  0  0  0  0
   -0.5900   -2.6510    3.3390 C   0  0  0  0  0  0  0  0  0  0  0  0
   -0.2050    1.4170   -1.4180 C   0  0  0  0  0  0  0  0  0  0  0  0
   -0.4700    2.7580   -1.7130 C   0  0  0  0  0  0  0  0  0  0  0  0
   -0.7780    3.2910   -2.8630 C   0  0  0  0  0  0  0  0  0  0  0  0
   -1.0380    4.7410   -3.0120 C   0  0  0  0  0  0  0  0  0  0  0  0
   -1.3460    5.1780   -4.1550 O   0  0  0  0  0  0  0  0  0  0  0  0
   -0.9740    5.6830   -1.9630 N   0  0  0  0  0  0  0  0  0  0  0  0
   -1.2700    7.0950   -2.1070 C   0  0  2  0  0  0  0  0  0  0  0  0
   -0.0810    7.9950   -2.1950 C   0  0  0  0  0  0  0  0  0  0  0  0
   -0.7780    9.3570   -1.9880 C   0  0  0  0  0  0  0  0  0  0  0  0
   -1.6920    9.0090   -0.8930 N   0  0  0  0  0  0  0  0  0  0  0  0
   -2.0260    7.6260   -0.9720 C   0  0  0  0  0  0  0  0  0  0  0  0
   -2.8320    7.0840   -0.1560 O   0  0  0  0  0  0  0  0  0  0  0  0
   -0.2870    0.2570   -2.3040 C   0  0  0  0  0  0  0  0  0  0  0  0
   -0.0550   -0.9710   -1.8620 N   0  0  0  0  0  0  0  0  0  0  0  0
   -0.1980   -1.9010   -2.8760 N   0  0  0  0  0  0  0  0  0  0  0  0
   -0.1240   -3.3420   -2.7330 C   0  0  0  0  0  0  0  0  0  0  0  0
    1.1550   -3.9600   -3.0660 C   0  0  0  0  0  0  0  0  0  0  0  0
    2.2790   -3.5990   -2.3790 O   0  0  0  0  0  0  0  0  0  0  0  0
    2.6030   -3.6930   -1.0760 C   0  0  0  0  0  0  0  0  0  0  0  0
    1.8710   -4.2450   -0.0850 C   0  0  0  0  0  0  0  0  0  0  0  0
    2.2920   -4.2920    1.2530 C   0  0  0  0  0  0  0  0  0  0  0  0
    3.5200   -3.7380    1.5500 C   0  0  0  0  0  0  0  0  0  0  0  0
    4.3090   -3.1660    0.6000 C   0  0  0  0  0  0  0  0  0  0  0  0
    3.8530   -3.1390   -0.7250 C   0  0  0  0  0  0  0  0  0  0  0  0
    5.5200   -2.6260    0.9260 O   0  0  0  0  0  0  0  0  0  0  0  0
    6.0260   -2.5790    2.2130 C   0  0  0  0  0  0  0  0  0  0  0  0
    5.1610   -3.2020    3.2270 C   0  0  0  0  0  0  0  0  0  0  0  0
    4.0210   -3.7280    2.9210 C   0  0  0  0  0  0  0  0  0  0  0  0
   -0.5430   -1.2440   -4.0750 C   0  0  0  0  0  0  0  0  0  0  0  0
   -0.7670   -1.6650   -5.2350 O   0  0  0  0  0  0  0  0  0  0  0  0
   -0.6160    0.2250   -3.7260 C   0  0  0  0  0  0  0  0  0  0  0  0
  1  2  1  0
  2  3  1  0
  2 16  2  3
  3  4  1  0
  4  5  1  0
  5  6  2  0
  5 14  1  0
  6  7  1  0
  7  8  2  0
  8  9  1  0
  9 10  1  0
  9 14  2  0
 10 11  1  6
 10 12  2  0
 10 13  2  0
 14 15  1  0
 16 17  1  0
 16 28  1  0
 17 18  2  3
 18 19  1  0
 19 20  2  0
 19 21  1  0
 22 21  1  1
 22 23  1  0
 22 26  1  0
 23 24  1  0
 24 25  1  0
 25 26  1  0
 26 27  2  0
 28 29  2  0
 28 46  1  0
 29 30  1  0
 30 31  1  0
 30 44  1  0
 31 32  1  0
 32 33  1  0
 33 34  1  0
 34 35  2  0
 34 39  1  0
 35 36  1  0
 36 37  2  0
 37 38  1  0
 37 43  1  0
 38 39  2  0
 38 40  1  0
 40 41  1  0
 41 42  1  0
 42 43  2  0
 44 45  2  0
 44 46  1  0
M  END
