
     RDKit          3D

 32 35  0  0  0  0  0  0  0  0999 V2000
   -9.7920    0.2140    0.2570 C   0  0  0  0  0  0  0  0  0  0  0  0
   -8.3860    0.3330   -0.1340 N   0  0  0  0  0  0  0  0  0  0  0  0
   -7.3860    0.5840    0.8370 C   0  0  0  0  0  0  0  0  0  0  0  0
   -7.8190    0.6910    2.0360 O   0  0  0  0  0  0  0  0  0  0  0  0
   -6.0050    0.7130    0.5530 N   0  0  0  0  0  0  0  0  0  0  0  0
   -5.4290    0.6040   -0.7590 C   0  0  0  0  0  0  0  0  0  0  0  0
   -4.3210   -0.4620   -0.7740 C   0  0  0  0  0  0  0  0  0  0  0  0
   -3.3390   -0.0640    0.3270 C   0  0  2  0  0  0  0  0  0  0  0  0
   -2.1310   -0.8680    0.2890 N   0  0  0  0  0  0  0  0  0  0  0  0
   -0.9570   -0.0300    0.1530 C   0  0  1  0  0  0  0  0  0  0  0  0
   -0.0520   -0.1560    1.3870 C   0  0  0  0  0  0  0  0  0  0  0  0
    1.1180   -0.2790    0.4300 C   0  0  2  0  0  0  0  0  0  0  0  0
    1.9560    0.8210    0.3720 O   0  0  0  0  0  0  0  0  0  0  0  0
    3.3290    0.7410    0.5710 C   0  0  0  0  0  0  0  0  0  0  0  0
    3.8180   -0.3850    0.8030 O   0  0  0  0  0  0  0  0  0  0  0  0
    4.1750    1.8650    0.5210 N   0  0  0  0  0  0  0  0  0  0  0  0
    5.5520    1.8780    0.7040 N   0  0  0  0  0  0  0  0  0  0  0  0
    6.4680    0.9600    0.1590 C   0  0  0  0  0  0  0  0  0  0  0  0
    6.0240    0.0240   -0.5570 O   0  0  0  0  0  0  0  0  0  0  0  0
    7.8460    0.9890    0.3360 O   0  0  0  0  0  0  0  0  0  0  0  0
    8.7060    0.0650   -0.2120 C   0  0  0  0  0  0  0  0  0  0  0  0
    8.6770   -0.5210   -1.4560 C   0  0  0  0  0  0  0  0  0  0  0  0
    9.7260   -1.3710   -1.5680 N   0  0  0  0  0  0  0  0  0  0  0  0
   10.0060   -2.1310   -2.6880 O   0  0  0  0  0  0  0  0  0  0  0  0
   10.4340   -1.3410   -0.4100 C   0  0  0  0  0  0  0  0  0  0  0  0
    9.8120   -0.4530    0.4440 C   0  0  0  0  0  0  0  0  0  0  0  0
   10.2010   -0.1160    1.7370 O   0  0  0  0  0  0  0  0  0  0  0  0
    0.1490   -0.5440   -0.6650 C   0  0  2  0  0  0  0  0  0  0  0  0
    0.3670   -0.2450   -2.0800 C   0  0  0  0  0  0  0  0  0  0  0  0
    0.1800   -1.6940   -1.5340 C   0  0  0  0  0  0  0  0  0  0  0  0
   -4.0740   -0.1590    1.6240 C   0  0  0  0  0  0  0  0  0  0  0  0
   -5.0940    0.9790    1.6550 C   0  0  0  0  0  0  0  0  0  0  0  0
  1  2  1  0
  2  3  1  0
  3  4  2  0
  3  5  1  0
  5  6  1  0
  5 32  1  0
  6  7  1  0
  7  8  1  0
  8  9  1  1
  8 31  1  0
 10  9  1  1
 10 11  1  0
 10 28  1  0
 11 12  1  0
 12 13  1  6
 12 28  1  0
 13 14  1  0
 14 15  2  0
 14 16  1  0
 16 17  1  0
 17 18  1  0
 18 19  2  0
 18 20  1  0
 20 21  1  0
 21 22  2  0
 21 26  1  0
 22 23  1  0
 23 24  1  0
 23 25  1  0
 25 26  2  0
 26 27  1  0
 28 29  1  6
 28 30  1  0
 29 30  1  0
 31 32  1  0
M  CHG  2   9   1  24  -1
M  END
