
     RDKit          3D

 31 32  0  0  0  0  0  0  0  0999 V2000
    8.2530    0.9520    0.1840 C   0  0  0  0  0  0  0  0  0  0  0  0
    7.4340    0.6950   -0.9430 O   0  0  0  0  0  0  0  0  0  0  0  0
    6.2340    1.3550   -1.1110 C   0  0  0  0  0  0  0  0  0  0  0  0
    5.8940    2.1850   -0.2380 O   0  0  0  0  0  0  0  0  0  0  0  0
    5.3480    1.1150   -2.2750 C   0  0  1  0  0  0  0  0  0  0  0  0
    4.9050   -0.3340   -2.2390 C   0  0  0  0  0  0  0  0  0  0  0  0
    4.2480   -0.6960   -0.9370 C   0  0  2  0  0  0  0  0  0  0  0  0
    3.6140   -1.9430   -1.1370 O   0  0  0  0  0  0  0  0  0  0  0  0
    3.2460    0.3330   -0.4750 C   0  0  2  0  0  0  0  0  0  0  0  0
    2.0230   -0.2970   -0.2700 O   0  0  0  0  0  0  0  0  0  0  0  0
    1.6430   -0.1970    1.0740 C   0  0  0  0  0  0  0  0  0  0  0  0
    0.2920   -0.8970    1.2820 C   0  0  1  0  0  0  0  0  0  0  0  0
    0.0430   -0.9850    2.7350 C   0  0  0  0  0  0  0  0  0  0  0  0
   -0.6340    0.2290    3.2710 C   0  0  2  0  0  0  0  0  0  0  0  0
   -1.3310   -0.1270    4.4500 O   0  0  0  0  0  0  0  0  0  0  0  0
   -1.5890    0.8760    2.3180 C   0  0  0  0  0  0  0  0  0  0  0  0
   -1.7880    0.1590    1.0260 C   0  0  2  0  0  0  0  0  0  0  0  0
   -2.8670   -0.8910    1.0700 C   0  0  1  0  0  0  0  0  0  0  0  0
   -4.0550   -0.4380    1.6010 O   0  0  0  0  0  0  0  0  0  0  0  0
   -3.0850   -1.6130   -0.1980 C   0  0  0  0  0  0  0  0  0  0  0  0
   -3.6930   -0.9010   -1.2710 N   0  0  0  0  0  0  0  0  0  0  0  0
   -5.1100   -0.7400   -1.1700 C   0  0  0  0  0  0  0  0  0  0  0  0
   -5.5200    0.7350   -1.2910 C   0  0  0  0  0  0  0  0  0  0  0  0
   -7.0250    0.8130   -1.1740 C   0  0  1  0  0  0  0  0  0  0  0  0
   -7.4430    2.1300   -1.2770 O   0  0  0  0  0  0  0  0  0  0  0  0
   -7.5570   -0.0030   -2.1680 O   0  0  0  0  0  0  0  0  0  0  0  0
   -7.3530    0.3390    0.1010 O   0  0  0  0  0  0  0  0  0  0  0  0
   -0.6120   -0.2890    0.5000 O   0  0  0  0  0  0  0  0  0  0  0  0
    3.1300    1.4740   -1.4230 C   0  0  0  0  0  0  0  0  0  0  0  0
    2.0480    2.1000   -1.5730 O   0  0  0  0  0  0  0  0  0  0  0  0
    4.2050    1.9130   -2.1940 O   0  0  0  0  0  0  0  0  0  0  0  0
  1  2  1  0
  2  3  1  0
  3  4  2  0
  5  3  1  1
  5  6  1  0
  5 31  1  0
  6  7  1  0
  7  8  1  6
  7  9  1  0
  9 10  1  6
  9 29  1  0
 10 11  1  0
 12 11  1  1
 12 13  1  0
 12 28  1  0
 13 14  1  0
 14 15  1  1
 14 16  1  0
 17 16  1  1
 17 18  1  0
 17 28  1  0
 18 19  1  6
 18 20  1  0
 20 21  1  0
 21 22  1  0
 22 23  1  0
 23 24  1  0
 24 25  1  6
 24 26  1  0
 24 27  1  0
 29 30  2  0
 29 31  1  0
M  CHG  2  21   1  25  -1
M  END
