
     RDKit          3D

 31 33  0  0  0  0  0  0  0  0999 V2000
    0.8400    3.2550   -0.7990 C   0  0  0  0  0  0  0  0  0  0  0  0
    0.7940    2.0520    0.1060 C   0  0  1  0  0  0  0  0  0  0  0  0
   -0.2260    1.2070   -0.3290 O   0  0  0  0  0  0  0  0  0  0  0  0
   -1.3380    0.9280    0.4230 C   0  0  0  0  0  0  0  0  0  0  0  0
   -1.4400    1.4620    1.5570 O   0  0  0  0  0  0  0  0  0  0  0  0
   -2.4290    0.0290   -0.0340 C   0  0  1  0  0  0  0  0  0  0  0  0
   -1.9120   -1.3500   -0.3060 C   0  0  0  0  0  0  0  0  0  0  0  0
   -2.4100   -2.2050    0.6400 O   0  0  0  0  0  0  0  0  0  0  0  0
   -3.5660   -1.6710    1.1610 C   0  0  0  0  0  0  0  0  0  0  0  0
   -3.4820   -0.1740    1.0030 C   0  0  2  0  0  0  0  0  0  0  0  0
   -4.7870    0.3400    0.3870 C   0  0  2  0  0  0  0  0  0  0  0  0
   -5.9340   -0.3480    0.8870 N   0  0  0  0  0  0  0  0  0  0  0  0
   -4.5230    0.0360   -1.0900 C   0  0  1  0  0  0  0  0  0  0  0  0
   -5.4440    0.6370   -1.9100 O   0  0  0  0  0  0  0  0  0  0  0  0
   -3.1280    0.6140   -1.2440 C   0  0  0  0  0  0  0  0  0  0  0  0
    2.1050    1.3730    0.2190 C   0  0  0  0  0  0  0  0  0  0  0  0
    3.0910    2.0520    0.6050 O   0  0  0  0  0  0  0  0  0  0  0  0
    2.3270    0.0520   -0.0660 O   0  0  0  0  0  0  0  0  0  0  0  0
    3.5860   -0.5660    0.0520 C   0  0  0  0  0  0  0  0  0  0  0  0
    3.9880   -1.2100    1.1770 C   0  0  0  0  0  0  0  0  0  0  0  0
    3.1510   -1.2800    2.2700 O   0  0  0  0  0  0  0  0  0  0  0  0
    3.2380   -0.3230    3.2690 C   0  0  0  0  0  0  0  0  0  0  0  0
    4.0940    0.5870    3.1360 O   0  0  0  0  0  0  0  0  0  0  0  0
    2.4420   -0.3110    4.3990 O   0  0  0  0  0  0  0  0  0  0  0  0
    5.2400   -1.7840    1.1980 C   0  0  0  0  0  0  0  0  0  0  0  0
    6.0800   -1.7040    0.0800 C   0  0  0  0  0  0  0  0  0  0  0  0
    7.3360   -2.2850    0.1130 O   0  0  0  0  0  0  0  0  0  0  0  0
    5.6610   -1.0490   -1.0530 C   0  0  0  0  0  0  0  0  0  0  0  0
    6.4970   -0.9630   -2.1830 O   0  0  0  0  0  0  0  0  0  0  0  0
    4.4040   -0.4810   -1.0540 C   0  0  0  0  0  0  0  0  0  0  0  0
    3.9580    0.1960   -2.2110 O   0  0  0  0  0  0  0  0  0  0  0  0
  2  1  1  6
  2  3  1  0
  2 16  1  0
  3  4  1  0
  4  5  2  0
  6  4  1  1
  6  7  1  0
  6 10  1  0
  6 15  1  0
  7  8  1  0
  8  9  1  0
 10  9  1  6
 10 11  1  0
 11 12  1  1
 11 13  1  0
 13 14  1  6
 13 15  1  0
 16 17  2  0
 16 18  1  0
 18 19  1  0
 19 20  2  0
 19 30  1  0
 20 21  1  0
 20 25  1  0
 21 22  1  0
 22 23  2  0
 22 24  1  0
 25 26  2  0
 26 27  1  0
 26 28  1  0
 28 29  1  0
 28 30  2  0
 30 31  1  0
M  CHG  2  12   1  24  -1
M  END
