
     RDKit          3D

 31 32  0  0  0  0  0  0  0  0999 V2000
   -4.3700    1.0270   -4.4610 C   0  0  0  0  0  0  0  0  0  0  0  0
   -3.9070    0.8170   -3.1270 O   0  0  0  0  0  0  0  0  0  0  0  0
   -4.1760   -0.3650   -2.4400 C   0  0  0  0  0  0  0  0  0  0  0  0
   -4.8540   -1.2260   -3.0900 O   0  0  0  0  0  0  0  0  0  0  0  0
   -3.7100   -0.6140   -1.0550 C   0  0  1  0  0  0  0  0  0  0  0  0
   -4.8910   -0.8980   -0.1280 C   0  0  2  0  0  0  0  0  0  0  0  0
   -5.5720   -2.0300   -0.5710 O   0  0  0  0  0  0  0  0  0  0  0  0
   -5.7990    0.1620   -0.1500 O   0  0  0  0  0  0  0  0  0  0  0  0
   -2.8190   -1.8620   -0.9810 C   0  0  0  0  0  0  0  0  0  0  0  0
   -2.4250   -1.9700    0.3740 O   0  0  0  0  0  0  0  0  0  0  0  0
   -1.8160   -0.8760    0.9890 C   0  0  0  0  0  0  0  0  0  0  0  0
   -1.0040   -1.0210    2.0080 C   0  0  0  0  0  0  0  0  0  0  0  0
   -0.3680    0.1030    2.6520 C   0  0  1  0  0  0  0  0  0  0  0  0
    1.1790   -0.1350    2.7650 C   0  0  1  0  0  0  0  0  0  0  0  0
    1.6230    0.9930    3.3850 O   0  0  0  0  0  0  0  0  0  0  0  0
    1.2700   -1.1780    3.6870 O   0  0  0  0  0  0  0  0  0  0  0  0
    1.7250   -0.4670    1.4440 C   0  0  0  0  0  0  0  0  0  0  0  0
    2.9570   -0.8150    1.2250 O   0  0  0  0  0  0  0  0  0  0  0  0
    4.0760   -0.1630    1.4500 C   0  0  0  0  0  0  0  0  0  0  0  0
    4.0770    1.1350    0.6690 C   0  0  0  0  0  0  0  0  0  0  0  0
    3.9720    0.9730   -0.7200 O   0  0  0  0  0  0  0  0  0  0  0  0
    4.8940    0.2990   -1.4930 C   0  0  0  0  0  0  0  0  0  0  0  0
    5.8940   -0.2010   -0.9230 O   0  0  0  0  0  0  0  0  0  0  0  0
    4.7310    0.1520   -2.9770 C   0  0  0  0  0  0  0  0  0  0  0  0
    5.8990   -0.6310   -3.5190 C   0  0  0  0  0  0  0  0  0  0  0  0
    6.0030   -1.8890   -2.9770 O   0  0  0  0  0  0  0  0  0  0  0  0
   -0.6660    1.4190    2.1230 C   0  0  2  0  0  0  0  0  0  0  0  0
   -1.0720    2.3780    3.1780 N   0  0  0  0  0  0  0  0  0  0  0  0
   -1.5750    1.4950    0.9950 C   0  0  0  0  0  0  0  0  0  0  0  0
   -2.1300    0.4390    0.4420 C   0  0  0  0  0  0  0  0  0  0  0  0
   -2.9970    0.5260   -0.6360 O   0  0  0  0  0  0  0  0  0  0  0  0
  1  2  1  0
  2  3  1  0
  3  4  2  0
  5  3  1  6
  5  6  1  0
  5  9  1  0
  5 31  1  0
  6  7  1  6
  6  8  1  0
  9 10  1  0
 10 11  1  0
 11 12  2  0
 11 30  1  0
 13 12  1  6
 13 14  1  0
 13 27  1  0
 14 15  1  1
 14 16  1  0
 14 17  1  0
 17 18  1  0
 18 19  1  0
 19 20  1  0
 20 21  1  0
 21 22  1  0
 22 23  2  0
 22 24  1  0
 24 25  1  0
 25 26  1  0
 27 28  1  1
 27 29  1  0
 29 30  2  0
 30 31  1  0
M  CHG  2  15  -1  28   1
M  END
