
     RDKit          3D

 31 33  0  0  0  0  0  0  0  0999 V2000
    8.2240    0.4660   -2.2860 N   0  0  0  0  0  0  0  0  0  0  0  0
    6.8640    0.9720   -2.2810 C   0  0  0  0  0  0  0  0  0  0  0  0
    6.0330    0.1430   -1.3290 C   0  0  1  0  0  0  0  0  0  0  0  0
    6.5860    0.1640    0.0720 C   0  0  0  0  0  0  0  0  0  0  0  0
    5.7350   -0.5060    0.9150 O   0  0  0  0  0  0  0  0  0  0  0  0
    4.7770   -1.2600    0.2540 C   0  0  0  0  0  0  0  0  0  0  0  0
    3.9670   -0.4530   -0.7250 C   0  0  1  0  0  0  0  0  0  0  0  0
    2.7030   -0.0100   -0.1250 C   0  0  0  0  0  0  0  0  0  0  0  0
    2.2990    1.1790   -0.0970 O   0  0  0  0  0  0  0  0  0  0  0  0
    1.8930   -0.9680    0.4540 O   0  0  0  0  0  0  0  0  0  0  0  0
    0.6790   -0.6880    1.0540 C   0  0  0  0  0  0  0  0  0  0  0  0
    0.5210   -0.3620    2.3810 C   0  0  0  0  0  0  0  0  0  0  0  0
    1.6290   -0.3040    3.1800 O   0  0  0  0  0  0  0  0  0  0  0  0
   -0.7270   -0.0900    2.9300 C   0  0  0  0  0  0  0  0  0  0  0  0
   -1.8290   -0.1530    2.1130 C   0  0  0  0  0  0  0  0  0  0  0  0
   -1.7170   -0.4710    0.7990 C   0  0  0  0  0  0  0  0  0  0  0  0
   -0.4530   -0.7390    0.2720 C   0  0  0  0  0  0  0  0  0  0  0  0
   -0.3470   -1.0630   -1.0670 O   0  0  0  0  0  0  0  0  0  0  0  0
   -2.9760   -0.4570    0.2320 O   0  0  0  0  0  0  0  0  0  0  0  0
   -3.9290   -0.5070    1.2690 C   0  0  2  0  0  0  0  0  0  0  0  0
   -5.0370    0.5210    0.8210 C   0  0  2  0  0  0  0  0  0  0  0  0
   -5.9940    0.4760    1.8560 O   0  0  0  0  0  0  0  0  0  0  0  0
   -5.5000    0.0520   -0.4820 C   0  0  0  0  0  0  0  0  0  0  0  0
   -6.5050    0.7680   -1.2830 C   0  0  1  0  0  0  0  0  0  0  0  0
   -6.7530    0.0170   -2.4530 O   0  0  0  0  0  0  0  0  0  0  0  0
   -7.7800    1.0740   -0.6110 C   0  0  0  0  0  0  0  0  0  0  0  0
   -7.7460    2.0260    0.5080 C   0  0  0  0  0  0  0  0  0  0  0  0
   -6.8410    2.8940    0.5610 O   0  0  0  0  0  0  0  0  0  0  0  0
   -8.6870    2.0040    1.5230 O   0  0  0  0  0  0  0  0  0  0  0  0
   -3.2040    0.0580    2.3380 O   0  0  0  0  0  0  0  0  0  0  0  0
    4.7110    0.5780   -1.2770 O   0  0  0  0  0  0  0  0  0  0  0  0
  1  2  1  0
  3  2  1  6
  3  4  1  0
  3 31  1  0
  4  5  1  0
  5  6  1  0
  6  7  1  0
  7  8  1  1
  7 31  1  0
  8  9  2  0
  8 10  1  0
 10 11  1  0
 11 12  2  0
 11 17  1  0
 12 13  1  0
 12 14  1  0
 14 15  2  0
 15 16  1  0
 15 30  1  0
 16 17  2  0
 16 19  1  0
 17 18  1  0
 20 19  1  6
 20 21  1  0
 20 30  1  0
 21 22  1  1
 21 23  1  0
 23 24  1  0
 24 25  1  6
 24 26  1  0
 26 27  1  0
 27 28  2  0
 27 29  1  0
M  CHG  2   1   1  29  -1
M  END
