
     RDKit          3D

 33 35  0  0  0  0  0  0  0  0999 V2000
   -6.7990    1.4880    1.9910 C   0  0  0  0  0  0  0  0  0  0  0  0
   -6.8260    1.0810    0.5270 C   0  0  1  0  0  0  0  0  0  0  0  0
   -5.6870    0.1790    0.1540 C   0  0  0  0  0  0  0  0  0  0  0  0
   -4.3650    0.8260    0.3890 C   0  0  0  0  0  0  0  0  0  0  0  0
   -3.2810   -0.0990   -0.0140 C   0  0  0  0  0  0  0  0  0  0  0  0
   -3.6530   -1.2200   -0.5000 O   0  0  0  0  0  0  0  0  0  0  0  0
   -1.9460    0.2060    0.1150 N   0  0  0  0  0  0  0  0  0  0  0  0
   -0.8810   -0.6260   -0.2690 C   0  0  0  0  0  0  0  0  0  0  0  0
   -1.0050   -1.6420   -1.1810 C   0  0  0  0  0  0  0  0  0  0  0  0
    0.0910   -2.4400   -1.5170 C   0  0  0  0  0  0  0  0  0  0  0  0
    1.3050   -2.2230   -0.9460 C   0  0  0  0  0  0  0  0  0  0  0  0
    1.4340   -1.2080   -0.0310 C   0  0  0  0  0  0  0  0  0  0  0  0
    0.3530   -0.3910    0.3270 C   0  0  0  0  0  0  0  0  0  0  0  0
    2.7320   -0.9040    0.6480 C   0  0  0  0  0  0  0  0  0  0  0  0
    3.7140   -1.8620    0.2930 N   0  0  2  0  0  0  0  0  0  0  0  0
    3.3690   -3.0360    0.9330 O   0  0  0  0  0  0  0  0  0  0  0  0
    5.0330   -1.5390    0.7990 C   0  0  0  0  0  0  0  0  0  0  0  0
    5.6360   -0.3570    0.1790 C   0  0  0  0  0  0  0  0  0  0  0  0
    4.9780    0.2430   -0.7340 O   0  0  0  0  0  0  0  0  0  0  0  0
    6.9110    0.1440    0.5550 N   0  0  0  0  0  0  0  0  0  0  0  0
    7.3700    1.2550   -0.0810 O   0  0  0  0  0  0  0  0  0  0  0  0
    8.5410    1.8960    0.2560 C   0  0  0  0  0  0  0  0  0  0  0  0
    9.2440    1.4340    1.2070 O   0  0  0  0  0  0  0  0  0  0  0  0
    9.0120    3.0300   -0.3860 O   0  0  0  0  0  0  0  0  0  0  0  0
   10.1890    3.6700   -0.0480 N   0  0  0  0  0  0  0  0  0  0  0  0
    3.6840   -2.1330   -1.1200 C   0  0  0  0  0  0  0  0  0  0  0  0
    2.4930   -3.0800   -1.3210 C   0  0  0  0  0  0  0  0  0  0  0  0
   -8.1080    0.3880    0.3170 N   0  0  0  0  0  0  0  0  0  0  0  0
   -9.0800    1.3900    0.0960 C   0  0  0  0  0  0  0  0  0  0  0  0
  -10.3420    1.2700    0.2440 O   0  0  0  0  0  0  0  0  0  0  0  0
   -8.3730    2.5520   -0.3220 N   0  0  0  0  0  0  0  0  0  0  0  0
   -6.9760    2.2450   -0.3520 C   0  0  0  0  0  0  0  0  0  0  0  0
   -6.1120    2.8630   -1.0010 O   0  0  0  0  0  0  0  0  0  0  0  0
  2  1  1  1
  2  3  1  0
  2 28  1  0
  2 32  1  0
  3  4  1  0
  4  5  1  0
  5  6  2  0
  5  7  1  0
  7  8  1  0
  8  9  2  0
  8 13  1  0
  9 10  1  0
 10 11  2  0
 11 12  1  0
 11 27  1  0
 12 13  2  0
 12 14  1  0
 14 15  1  0
 15 16  1  1
 15 17  1  0
 15 26  1  0
 17 18  1  0
 18 19  2  0
 18 20  1  0
 20 21  1  0
 21 22  1  0
 22 23  2  0
 22 24  1  0
 24 25  1  0
 26 27  1  0
 28 29  1  0
 29 30  2  0
 29 31  1  0
 31 32  1  0
 32 33  2  0
M  CHG  2  15   1  16  -1
M  END
