
     RDKit          3D

 33 36  0  0  0  0  0  0  0  0999 V2000
   -2.9610   -0.2540    0.3680 O   0  0  0  0  0  0  0  0  0  0  0  0
   -3.3670    0.8370    0.8350 C   0  0  0  0  0  0  0  0  0  0  0  0
   -4.6870    1.2270    0.4910 N   0  0  0  0  0  0  0  0  0  0  0  0
   -5.5370    0.4570   -0.3310 C   0  0  0  0  0  0  0  0  0  0  0  0
   -6.8210    0.7360   -0.7230 C   0  0  0  0  0  0  0  0  0  0  0  0
   -7.2570   -0.3160   -1.5310 C   0  0  0  0  0  0  0  0  0  0  0  0
   -8.5480   -0.5180   -2.2090 C   0  0  0  0  0  0  0  0  0  0  0  0
   -9.4980   -1.2410   -1.3900 N   0  0  0  0  0  0  0  0  0  0  0  0
  -10.6840   -0.6130   -1.5020 O   0  0  0  0  0  0  0  0  0  0  0  0
   -6.2650   -1.1500   -1.5920 O   0  0  0  0  0  0  0  0  0  0  0  0
   -5.2300   -0.7200   -0.8910 N   0  0  0  0  0  0  0  0  0  0  0  0
   -2.5170    1.6080    1.6590 N   0  0  0  0  0  0  0  0  0  0  0  0
   -1.1960    1.2320    2.0140 C   0  0  0  0  0  0  0  0  0  0  0  0
   -0.4590    0.1190    1.6780 C   0  0  0  0  0  0  0  0  0  0  0  0
    0.7950    0.2300    2.2910 C   0  0  0  0  0  0  0  0  0  0  0  0
    1.8840   -0.7640    2.1810 C   0  0  0  0  0  0  0  0  0  0  0  0
    2.7410   -0.4120    1.0780 N   0  0  0  0  0  0  0  0  0  0  0  0
    3.6580    0.6710    1.2790 C   0  0  0  0  0  0  0  0  0  0  0  0
    3.6740    1.2560    2.3860 O   0  0  0  0  0  0  0  0  0  0  0  0
    4.5870    1.1190    0.2200 C   0  0  2  0  0  0  0  0  0  0  0  0
    3.8900    1.6720   -0.9760 C   0  0  0  0  0  0  0  0  0  0  0  0
    4.9720    2.0480   -1.9590 C   0  0  0  0  0  0  0  0  0  0  0  0
    5.1370    3.1880   -2.4060 O   0  0  0  0  0  0  0  0  0  0  0  0
    5.8480    1.0330   -2.3940 O   0  0  0  0  0  0  0  0  0  0  0  0
    6.0560    0.0230   -1.4290 C   0  0  0  0  0  0  0  0  0  0  0  0
    6.9030   -1.0300   -1.7630 C   0  0  0  0  0  0  0  0  0  0  0  0
    7.1780   -2.0720   -0.9030 C   0  0  0  0  0  0  0  0  0  0  0  0
    6.5710   -2.0540    0.3530 C   0  0  0  0  0  0  0  0  0  0  0  0
    6.8570   -3.1140    1.2110 O   0  0  0  0  0  0  0  0  0  0  0  0
    5.7290   -1.0260    0.7100 C   0  0  0  0  0  0  0  0  0  0  0  0
    5.4800    0.0130   -0.1970 C   0  0  0  0  0  0  0  0  0  0  0  0
    0.7280    1.3950    2.9490 N   0  0  0  0  0  0  0  0  0  0  0  0
   -0.4100    1.9570    2.7840 O   0  0  0  0  0  0  0  0  0  0  0  0
  1  2  2  0
  2  3  1  0
  2 12  1  0
  3  4  1  0
  4  5  1  0
  4 11  2  0
  5  6  2  0
  6  7  1  0
  6 10  1  0
  7  8  1  0
  8  9  1  0
 10 11  1  0
 12 13  1  0
 13 14  2  0
 13 33  1  0
 14 15  1  0
 15 16  1  0
 15 32  2  0
 16 17  1  0
 17 18  1  0
 18 19  2  0
 20 18  1  1
 20 21  1  0
 20 31  1  0
 21 22  1  0
 22 23  2  0
 22 24  1  0
 24 25  1  0
 25 26  2  0
 25 31  1  0
 26 27  1  0
 27 28  2  0
 28 29  1  0
 28 30  1  0
 30 31  2  0
 32 33  1  0
M  CHG  2   8   1   9  -1
M  END
