
     RDKit          3D

 32 33  0  0  0  0  0  0  0  0999 V2000
   -3.5450    2.5070    1.5570 C   0  0  0  0  0  0  0  0  0  0  0  0
   -3.0650    1.1590    1.0050 C   0  0  2  0  0  0  0  0  0  0  0  0
   -1.6340    0.9010    1.3330 C   0  0  0  0  0  0  0  0  0  0  0  0
   -0.6720    1.2850    0.2350 C   0  0  1  0  0  0  0  0  0  0  0  0
   -0.5940    2.7220    0.0700 N   0  0  0  0  0  0  0  0  0  0  0  0
   -0.0950    2.9880   -1.1780 O   0  0  0  0  0  0  0  0  0  0  0  0
    0.6720    0.8050    0.6470 C   0  0  0  0  0  0  0  0  0  0  0  0
    1.6330    1.6020    0.7960 O   0  0  0  0  0  0  0  0  0  0  0  0
    0.9410   -0.5330    0.8890 O   0  0  0  0  0  0  0  0  0  0  0  0
    2.1670   -1.0490    1.2760 C   0  0  0  0  0  0  0  0  0  0  0  0
    3.2620   -0.8010    0.3170 C   0  0  0  0  0  0  0  0  0  0  0  0
    2.9920   -0.1620   -0.7320 O   0  0  0  0  0  0  0  0  0  0  0  0
    4.5590   -1.2220    0.4970 O   0  0  0  0  0  0  0  0  0  0  0  0
    5.5940   -0.9950   -0.3950 C   0  0  0  0  0  0  0  0  0  0  0  0
    5.8380   -1.9650   -1.4270 C   0  0  0  0  0  0  0  0  0  0  0  0
    6.8600   -1.7670   -2.3290 O   0  0  0  0  0  0  0  0  0  0  0  0
    5.0980   -3.0410   -1.5250 C   0  0  0  0  0  0  0  0  0  0  0  0
    5.3220   -3.9910   -2.5210 O   0  0  0  0  0  0  0  0  0  0  0  0
    6.3450    0.0850   -0.3060 C   0  0  0  0  0  0  0  0  0  0  0  0
    7.3780    0.2990   -1.2070 O   0  0  0  0  0  0  0  0  0  0  0  0
    6.1100    1.1080    0.7600 C   0  0  0  0  0  0  0  0  0  0  0  0
    5.8170    2.3550    0.2160 O   0  0  0  0  0  0  0  0  0  0  0  0
   -1.0750    0.7120   -1.1110 C   0  0  0  0  0  0  0  0  0  0  0  0
   -2.4470    0.1130   -1.1010 C   0  0  0  0  0  0  0  0  0  0  0  0
   -3.3800    1.1280   -0.4570 C   0  0  1  0  0  0  0  0  0  0  0  0
   -4.6980    0.7410   -0.4860 O   0  0  0  0  0  0  0  0  0  0  0  0
   -4.7360   -0.2510    0.5010 C   0  0  2  0  0  0  0  0  0  0  0  0
   -6.0490   -0.3970    0.8770 O   0  0  0  0  0  0  0  0  0  0  0  0
   -6.4530   -1.7000    0.6820 C   0  0  0  0  0  0  0  0  0  0  0  0
   -6.3910   -2.1910   -0.7250 C   0  0  0  0  0  0  0  0  0  0  0  0
   -7.1900   -1.4440   -1.5910 O   0  0  0  0  0  0  0  0  0  0  0  0
   -3.9180    0.1940    1.5370 O   0  0  0  0  0  0  0  0  0  0  0  0
  2  1  1  1
  2  3  1  0
  2 25  1  0
  2 32  1  0
  3  4  1  0
  4  5  1  6
  4  7  1  0
  4 23  1  0
  5  6  1  0
  7  8  2  0
  7  9  1  0
  9 10  1  0
 10 11  1  0
 11 12  2  0
 11 13  1  0
 13 14  1  0
 14 15  1  0
 14 19  2  3
 15 16  1  0
 15 17  2  3
 17 18  1  0
 19 20  1  0
 19 21  1  0
 21 22  1  0
 23 24  1  0
 25 24  1  6
 25 26  1  0
 26 27  1  0
 27 28  1  1
 27 32  1  0
 28 29  1  0
 29 30  1  0
 30 31  1  0
M  CHG  2   5   1   6  -1
M  END
