
     RDKit          3D

 32 35  0  0  0  0  0  0  0  0999 V2000
    8.9420   -0.6060    1.6610 N   0  0  0  0  0  0  0  0  0  0  0  0
    7.7430   -1.3150    1.3650 C   0  0  0  0  0  0  0  0  0  0  0  0
    7.7420   -2.5820    1.4290 N   0  0  0  0  0  0  0  0  0  0  0  0
    6.5630   -0.5730    1.0000 C   0  0  0  0  0  0  0  0  0  0  0  0
    6.6460    0.8070    0.9520 C   0  0  0  0  0  0  0  0  0  0  0  0
    5.5350    1.5200    0.6080 C   0  0  0  0  0  0  0  0  0  0  0  0
    4.3460    0.8780    0.3120 C   0  0  0  0  0  0  0  0  0  0  0  0
    4.2430   -0.4960    0.3550 C   0  0  0  0  0  0  0  0  0  0  0  0
    2.9680   -1.2000    0.0390 C   0  0  0  0  0  0  0  0  0  0  0  0
    2.0140   -0.2230   -0.2850 O   0  0  0  0  0  0  0  0  0  0  0  0
    0.7050   -0.5250   -0.6340 C   0  0  0  0  0  0  0  0  0  0  0  0
    0.4060   -1.7380   -0.6460 O   0  0  0  0  0  0  0  0  0  0  0  0
   -0.2680    0.5070   -0.9660 C   0  0  0  0  0  0  0  0  0  0  0  0
    0.0840    1.8630   -0.9970 C   0  0  0  0  0  0  0  0  0  0  0  0
   -1.0270    2.5550   -1.3720 C   0  0  0  0  0  0  0  0  0  0  0  0
   -1.2630    3.9140   -1.5710 C   0  0  0  0  0  0  0  0  0  0  0  0
   -2.4790    4.3900   -1.9580 C   0  0  0  0  0  0  0  0  0  0  0  0
   -3.5070    3.4930   -2.1580 C   0  0  0  0  0  0  0  0  0  0  0  0
   -3.2750    2.1330   -1.9600 C   0  0  0  0  0  0  0  0  0  0  0  0
   -2.0520    1.6590   -1.5710 C   0  0  0  0  0  0  0  0  0  0  0  0
   -1.5570    0.4160   -1.3130 N   0  0  0  0  0  0  0  0  0  0  0  0
   -2.3260   -0.7830   -1.4250 C   0  0  0  0  0  0  0  0  0  0  0  0
   -3.1600   -1.1180   -0.2520 C   0  0  0  0  0  0  0  0  0  0  0  0
   -2.6230   -1.6520    0.8830 C   0  0  0  0  0  0  0  0  0  0  0  0
   -3.4990   -1.9510    1.9380 C   0  0  0  0  0  0  0  0  0  0  0  0
   -4.8510   -1.7270    1.8630 C   0  0  0  0  0  0  0  0  0  0  0  0
   -5.4030   -1.1890    0.7220 C   0  0  0  0  0  0  0  0  0  0  0  0
   -6.8490   -0.9260    0.5820 C   0  0  0  0  0  0  0  0  0  0  0  0
   -7.2880   -0.3730   -0.6380 N   0  0  0  0  0  0  0  0  0  0  0  0
   -7.6950   -1.1710    1.4950 N   0  0  0  0  0  0  0  0  0  0  0  0
   -4.5390   -0.8970   -0.3110 C   0  0  0  0  0  0  0  0  0  0  0  0
    5.3900   -1.2200    0.7090 C   0  0  0  0  0  0  0  0  0  0  0  0
  1  2  1  0
  2  3  2  0
  2  4  1  0
  4  5  2  0
  4 32  1  0
  5  6  1  0
  6  7  2  0
  7  8  1  0
  8  9  1  0
  8 32  2  0
  9 10  1  0
 10 11  1  0
 11 12  2  0
 11 13  1  0
 13 14  2  0
 13 21  1  0
 14 15  1  0
 15 16  2  0
 15 20  1  0
 16 17  1  0
 17 18  2  0
 18 19  1  0
 19 20  2  0
 20 21  1  0
 21 22  1  0
 22 23  1  0
 23 24  2  0
 23 31  1  0
 24 25  1  0
 25 26  2  0
 26 27  1  0
 27 28  1  0
 27 31  2  0
 28 29  1  0
 28 30  2  0
M  CHG  2   3   1  30   1
M  END
