
     RDKit          3D

 32 33  0  0  0  0  0  0  0  0999 V2000
   -3.2960    3.0870   -0.9830 N   0  0  0  0  0  0  0  0  0  0  0  0
   -3.6550    1.9810   -1.7690 C   0  0  0  0  0  0  0  0  0  0  0  0
   -3.8790    2.1140   -2.9940 O   0  0  0  0  0  0  0  0  0  0  0  0
   -3.7910    0.5780   -1.1920 C   0  0  1  0  0  0  0  0  0  0  0  0
   -4.1950   -0.2750   -2.2920 N   0  0  0  0  0  0  0  0  0  0  0  0
   -2.3750    0.1690   -0.8550 C   0  0  0  0  0  0  0  0  0  0  0  0
   -1.9850    0.4690    0.5730 C   0  0  1  0  0  0  0  0  0  0  0  0
   -0.5920    1.0300    0.7060 C   0  0  1  0  0  0  0  0  0  0  0  0
   -0.3940    1.3360    2.1090 N   0  0  0  0  0  0  0  0  0  0  0  0
    0.4620    0.0220    0.3000 C   0  0  1  0  0  0  0  0  0  0  0  0
    1.8520    0.5840    0.3040 C   0  0  1  0  0  0  0  0  0  0  0  0
    1.9540    1.7600   -0.5630 N   0  0  0  0  0  0  0  0  0  0  0  0
    2.4010    0.9660    1.6330 C   0  0  0  0  0  0  0  0  0  0  0  0
    3.8220    1.4960    1.3820 C   0  0  0  0  0  0  0  0  0  0  0  0
    4.6430    0.5650    0.8020 O   0  0  0  0  0  0  0  0  0  0  0  0
    4.8380   -0.5900    1.5370 C   0  0  0  0  0  0  0  0  0  0  0  0
    5.7780   -1.4810    0.7220 C   0  0  0  0  0  0  0  0  0  0  0  0
    6.9530   -0.7570    0.5580 O   0  0  0  0  0  0  0  0  0  0  0  0
    7.9130   -1.4360   -0.1670 C   0  0  2  0  0  0  0  0  0  0  0  0
    9.0690   -1.5700    0.6180 O   0  0  0  0  0  0  0  0  0  0  0  0
    8.2590   -0.6660   -1.2740 O   0  0  0  0  0  0  0  0  0  0  0  0
    0.3040   -1.0780    1.0970 O   0  0  0  0  0  0  0  0  0  0  0  0
    0.1030   -2.1970    0.3330 C   0  0  0  0  0  0  0  0  0  0  0  0
    0.6190   -1.7430   -1.0160 C   0  0  0  0  0  0  0  0  0  0  0  0
    0.2350   -0.4080   -1.0270 O   0  0  0  0  0  0  0  0  0  0  0  0
   -2.8550    1.4890    1.0410 O   0  0  0  0  0  0  0  0  0  0  0  0
   -4.1030    0.9700    1.2370 C   0  0  0  0  0  0  0  0  0  0  0  0
   -4.7480    0.6020   -0.0650 C   0  0  2  0  0  0  0  0  0  0  0  0
   -5.6510   -0.5690    0.1370 C   0  0  2  0  0  0  0  0  0  0  0  0
   -6.4670   -0.2310    1.2850 O   0  0  0  0  0  0  0  0  0  0  0  0
   -4.9930   -1.8530    0.5570 C   0  0  0  0  0  0  0  0  0  0  0  0
   -4.1610   -2.4290   -0.3660 O   0  0  0  0  0  0  0  0  0  0  0  0
  1  2  1  0
  2  3  2  0
  2  4  1  0
  4  5  1  6
  4  6  1  0
  4 28  1  0
  7  6  1  6
  7  8  1  0
  7 26  1  0
  8  9  1  1
  8 10  1  0
 10 11  1  0
 10 22  1  1
 10 25  1  0
 11 12  1  6
 11 13  1  0
 13 14  1  0
 14 15  1  0
 15 16  1  0
 16 17  1  0
 17 18  1  0
 18 19  1  0
 19 20  1  1
 19 21  1  0
 22 23  1  0
 23 24  1  0
 24 25  1  0
 26 27  1  0
 28 27  1  1
 28 29  1  0
 29 30  1  1
 29 31  1  0
 31 32  1  0
M  CHG  2   5   1  12   1
M  END
