
     RDKit          3D

 32 32  0  0  0  0  0  0  0  0999 V2000
    4.4020   -2.7470   -2.3780 C   0  0  0  0  0  0  0  0  0  0  0  0
    3.5250   -2.5320   -1.1640 C   0  0  1  0  0  0  0  0  0  0  0  0
    3.5570   -1.0700   -0.8430 C   0  0  0  0  0  0  0  0  0  0  0  0
    3.0080   -0.8670    0.3910 O   0  0  0  0  0  0  0  0  0  0  0  0
    3.6200    0.1310    1.1290 C   0  0  0  0  0  0  0  0  0  0  0  0
    2.5200    0.7430    2.0110 C   0  0  1  0  0  0  0  0  0  0  0  0
    1.9720   -0.2440    2.8380 O   0  0  0  0  0  0  0  0  0  0  0  0
    3.0800    1.8060    2.9090 C   0  0  0  0  0  0  0  0  0  0  0  0
    3.7180    2.9490    2.1880 C   0  0  0  0  0  0  0  0  0  0  0  0
    4.1830    3.8390    3.1840 O   0  0  0  0  0  0  0  0  0  0  0  0
    1.4770    1.2890    1.0510 C   0  0  0  0  0  0  0  0  0  0  0  0
    1.2130    0.3020    0.1020 O   0  0  0  0  0  0  0  0  0  0  0  0
   -0.2040    0.3310   -0.0790 C   0  0  0  0  0  0  0  0  0  0  0  0
   -0.6100   -0.6650   -1.1250 C   0  0  1  0  0  0  0  0  0  0  0  0
   -1.9170   -0.3920   -1.8070 C   0  0  0  0  0  0  0  0  0  0  0  0
   -3.0700   -0.4390   -1.1500 O   0  0  0  0  0  0  0  0  0  0  0  0
   -3.4140    0.3280   -0.1150 C   0  0  1  0  0  0  0  0  0  0  0  0
   -4.5160    1.3440   -0.4750 C   0  0  1  0  0  0  0  0  0  0  0  0
   -4.0330    2.2280   -1.5250 N   0  0  0  0  0  0  0  0  0  0  0  0
   -5.7470    0.6160   -0.8790 C   0  0  0  0  0  0  0  0  0  0  0  0
   -6.7740    1.5500   -1.2130 O   0  0  0  0  0  0  0  0  0  0  0  0
   -3.9270   -0.4600    1.0500 C   0  0  2  0  0  0  0  0  0  0  0  0
   -4.2700    0.4510    2.0900 O   0  0  0  0  0  0  0  0  0  0  0  0
   -2.9530   -1.4560    1.5810 C   0  0  0  0  0  0  0  0  0  0  0  0
   -2.4230   -1.3150    2.8980 N   0  0  0  0  0  0  0  0  0  0  0  0
   -2.5810   -2.4310    0.8880 O   0  0  0  0  0  0  0  0  0  0  0  0
    0.4400   -0.5480   -2.1720 N   0  0  0  0  0  0  0  0  0  0  0  0
    0.9130   -1.6540   -2.9200 C   0  0  0  0  0  0  0  0  0  0  0  0
    1.0000   -1.5320   -4.2010 O   0  0  0  0  0  0  0  0  0  0  0  0
    1.3200   -2.9410   -2.3690 C   0  0  0  0  0  0  0  0  0  0  0  0
    0.8070   -3.9800   -2.9330 O   0  0  0  0  0  0  0  0  0  0  0  0
    2.2270   -3.1130   -1.2730 N   0  0  0  0  0  0  0  0  0  0  0  0
  2  1  1  6
  2  3  1  0
  2 32  1  0
  3  4  1  0
  4  5  1  0
  5  6  1  0
  6  7  1  1
  6  8  1  0
  6 11  1  0
  8  9  1  0
  9 10  1  0
 11 12  1  0
 12 13  1  0
 13 14  1  0
 14 15  1  6
 14 27  1  0
 15 16  1  0
 17 16  1  6
 17 18  1  0
 17 22  1  0
 18 19  1  6
 18 20  1  0
 20 21  1  0
 22 23  1  1
 22 24  1  0
 24 25  1  0
 24 26  2  0
 27 28  1  0
 28 29  2  0
 28 30  1  0
 30 31  2  0
 30 32  1  0
M  CHG  1  19   1
M  END
