
     RDKit          3D

 32 35  0  0  0  0  0  0  0  0999 V2000
    0.2050   -5.0510   -1.0450 C   0  0  0  0  0  0  0  0  0  0  0  0
   -0.5780   -3.8460   -1.4330 C   0  0  0  0  0  0  0  0  0  0  0  0
   -1.6850   -3.9270   -2.2570 C   0  0  0  0  0  0  0  0  0  0  0  0
   -2.3970   -2.7980   -2.6040 C   0  0  0  0  0  0  0  0  0  0  0  0
   -2.0120   -1.5400   -2.1270 C   0  0  0  0  0  0  0  0  0  0  0  0
   -0.9270   -1.4340   -1.3160 C   0  0  0  0  0  0  0  0  0  0  0  0
   -0.2380   -2.5730   -0.9880 C   0  0  0  0  0  0  0  0  0  0  0  0
    0.7870   -2.1410   -0.1750 C   0  0  0  0  0  0  0  0  0  0  0  0
    0.7050   -0.7460   -0.0230 C   0  0  0  0  0  0  0  0  0  0  0  0
    1.6920   -0.0320    0.7730 C   0  0  0  0  0  0  0  0  0  0  0  0
    1.7120    1.2230    0.8340 O   0  0  0  0  0  0  0  0  0  0  0  0
    2.7080   -0.7040    1.5390 N   0  0  0  0  0  0  0  0  0  0  0  0
    3.6900    0.0230    2.3300 C   0  0  0  0  0  0  0  0  0  0  0  0
    4.7640    0.6310    1.5110 C   0  0  0  0  0  0  0  0  0  0  0  0
    4.7670    1.9620    1.1650 C   0  0  0  0  0  0  0  0  0  0  0  0
    5.7840    2.5180    0.3910 C   0  0  0  0  0  0  0  0  0  0  0  0
    5.7140    4.2260   -0.0090 Cl  0  0  0  0  0  0  0  0  0  0  0  0
    6.8300    1.7430   -0.0570 C   0  0  0  0  0  0  0  0  0  0  0  0
    6.8360    0.4140    0.2830 C   0  0  0  0  0  0  0  0  0  0  0  0
    8.1560   -0.5800   -0.2770 Cl  0  0  0  0  0  0  0  0  0  0  0  0
    5.8240   -0.1240    1.0490 C   0  0  0  0  0  0  0  0  0  0  0  0
   -0.3530   -0.3400   -0.7290 N   0  0  0  0  0  0  0  0  0  0  0  0
   -0.7970    1.0200   -0.7870 C   0  0  0  0  0  0  0  0  0  0  0  0
   -1.8250    1.4510    0.1160 C   0  0  0  0  0  0  0  0  0  0  0  0
   -1.6280    1.7940    1.4260 C   0  0  0  0  0  0  0  0  0  0  0  0
   -2.6470    2.2140    2.2530 C   0  0  0  0  0  0  0  0  0  0  0  0
   -3.9290    2.3100    1.7980 C   0  0  0  0  0  0  0  0  0  0  0  0
   -4.1820    1.9730    0.4740 C   0  0  0  0  0  0  0  0  0  0  0  0
   -5.5650    2.0890    0.0340 C   0  0  0  0  0  0  0  0  0  0  0  0
   -6.5990    2.5250    0.9230 N   0  0  0  0  0  0  0  0  0  0  0  0
   -5.8650    1.7940   -1.1740 N   0  0  0  0  0  0  0  0  0  0  0  0
   -3.1530    1.5560   -0.3360 C   0  0  0  0  0  0  0  0  0  0  0  0
  1  2  1  0
  2  3  2  0
  2  7  1  0
  3  4  1  0
  4  5  2  0
  5  6  1  0
  6  7  2  0
  6 22  1  0
  7  8  1  0
  8  9  2  0
  9 10  1  0
  9 22  1  0
 10 11  2  0
 10 12  1  0
 12 13  1  0
 13 14  1  0
 14 15  2  0
 14 21  1  0
 15 16  1  0
 16 17  1  0
 16 18  2  0
 18 19  1  0
 19 20  1  0
 19 21  2  0
 22 23  1  0
 23 24  1  0
 24 25  2  0
 24 32  1  0
 25 26  1  0
 26 27  2  0
 27 28  1  0
 28 29  1  0
 28 32  2  0
 29 30  1  0
 29 31  2  0
M  CHG  1  31   1
M  END
