
     RDKit          3D

 33 33  0  0  0  0  0  0  0  0999 V2000
   -3.5800    1.6040   -2.0640 N   0  0  0  0  0  0  0  0  0  0  0  0
   -4.0200    0.5200   -1.2300 C   0  0  0  0  0  0  0  0  0  0  0  0
   -3.3290    0.2600    0.0140 C   0  0  1  0  0  0  0  0  0  0  0  0
   -4.0710   -0.8360    0.5960 O   0  0  0  0  0  0  0  0  0  0  0  0
   -1.8730    0.0510    0.2030 C   0  0  2  0  0  0  0  0  0  0  0  0
   -1.8060   -0.0870    1.7220 C   0  0  0  0  0  0  0  0  0  0  0  0
   -2.4260   -1.0320    2.5630 C   0  0  0  0  0  0  0  0  0  0  0  0
   -2.0100   -0.6910    3.9240 O   0  0  0  0  0  0  0  0  0  0  0  0
   -1.1700    1.3630    0.0690 C   0  0  1  0  0  0  0  0  0  0  0  0
   -0.2060    1.5800    1.1040 O   0  0  0  0  0  0  0  0  0  0  0  0
   -0.7360    2.0430   -1.1020 C   0  0  0  0  0  0  0  0  0  0  0  0
    0.5340    2.6910   -0.8350 O   0  0  0  0  0  0  0  0  0  0  0  0
    1.5120    1.7440   -1.0040 C   0  0  1  0  0  0  0  0  0  0  0  0
    1.8520    1.7360   -2.3670 O   0  0  0  0  0  0  0  0  0  0  0  0
    2.7070    1.7920   -0.1120 C   0  0  1  0  0  0  0  0  0  0  0  0
    2.9610    3.1570    0.4970 C   0  0  0  0  0  0  0  0  0  0  0  0
    2.9140    4.1220   -0.5080 O   0  0  0  0  0  0  0  0  0  0  0  0
    2.7490    0.8510    0.8620 O   0  0  0  0  0  0  0  0  0  0  0  0
    3.1910   -0.3820    0.6670 C   0  0  2  0  0  0  0  0  0  0  0  0
    3.2550   -1.1120    2.0010 C   0  0  0  0  0  0  0  0  0  0  0  0
    2.0490   -1.2080    2.6440 O   0  0  0  0  0  0  0  0  0  0  0  0
    4.6610   -0.3480    0.2000 C   0  0  0  0  0  0  0  0  0  0  0  0
    5.4760    0.2570    1.1180 O   0  0  0  0  0  0  0  0  0  0  0  0
    2.4960   -1.2870   -0.3110 C   0  0  0  0  0  0  0  0  0  0  0  0
    1.2530   -1.9160    0.0990 C   0  0  0  0  0  0  0  0  0  0  0  0
    1.4410   -3.2100    0.3250 O   0  0  0  0  0  0  0  0  0  0  0  0
   -0.0500   -1.5440    0.3190 N   0  0  0  0  0  0  0  0  0  0  0  0
   -1.2230   -1.1440   -0.4510 C   0  0  1  0  0  0  0  0  0  0  0  0
   -2.2060   -2.3280   -0.5080 C   0  0  0  0  0  0  0  0  0  0  0  0
   -1.5450   -3.4820   -1.1550 N   0  0  0  0  0  0  0  0  0  0  0  0
   -0.8220   -1.0700   -1.8390 C   0  0  0  0  0  0  0  0  0  0  0  0
   -1.7660   -0.7700   -2.8390 N   0  0  0  0  0  0  0  0  0  0  0  0
    0.2740   -1.2340   -2.3730 O   0  0  0  0  0  0  0  0  0  0  0  0
  1  2  1  0
  2  3  1  0
  3  4  1  6
  3  5  1  0
  5  6  1  1
  5  9  1  0
  5 28  1  0
  6  7  1  0
  7  8  1  0
  9 10  1  1
  9 11  1  0
 11 12  1  0
 12 13  1  0
 13 14  1  6
 13 15  1  0
 15 16  1  1
 15 18  1  0
 16 17  1  0
 18 19  1  0
 19 20  1  1
 19 22  1  0
 19 24  1  0
 20 21  1  0
 22 23  1  0
 24 25  1  0
 25 26  2  0
 25 27  1  0
 27 28  1  0
 28 29  1  6
 28 31  1  0
 29 30  1  0
 31 32  1  0
 31 33  2  0
M  CHG  1  30   1
M  END
