
     RDKit          3D

 33 33  0  0  0  0  0  0  0  0999 V2000
   -2.7650    1.9640   -0.6970 C   0  0  0  0  0  0  0  0  0  0  0  0
   -3.6790    0.8390   -0.0650 C   0  0  1  0  0  0  0  0  0  0  0  0
   -3.3410    0.8620    1.2920 O   0  0  0  0  0  0  0  0  0  0  0  0
   -5.0300    1.4000   -0.1660 C   0  0  0  0  0  0  0  0  0  0  0  0
   -5.6850    1.5280   -1.3770 O   0  0  0  0  0  0  0  0  0  0  0  0
   -5.6880    1.8170    0.8930 N   0  0  0  0  0  0  0  0  0  0  0  0
   -6.9330    2.3290    0.7620 O   0  0  0  0  0  0  0  0  0  0  0  0
   -3.3370   -0.3950   -0.7910 C   0  0  1  0  0  0  0  0  0  0  0  0
   -3.7600   -0.3260   -2.2320 C   0  0  0  0  0  0  0  0  0  0  0  0
   -3.1950    0.7200   -2.9410 O   0  0  0  0  0  0  0  0  0  0  0  0
   -1.8620   -0.5980   -0.7860 N   0  0  0  0  0  0  0  0  0  0  0  0
   -1.0800   -0.8520    0.3440 C   0  0  0  0  0  0  0  0  0  0  0  0
   -1.6400   -0.9320    1.4570 O   0  0  0  0  0  0  0  0  0  0  0  0
    0.4060   -1.0300    0.2550 C   0  0  1  0  0  0  0  0  0  0  0  0
    0.7160   -1.0380   -1.1100 O   0  0  0  0  0  0  0  0  0  0  0  0
    1.1350    0.0040    1.0070 C   0  0  1  0  0  0  0  0  0  0  0  0
    0.7860   -0.0280    2.4680 C   0  0  0  0  0  0  0  0  0  0  0  0
    1.0930   -1.2850    3.0390 O   0  0  0  0  0  0  0  0  0  0  0  0
    2.6290   -0.0760    0.9060 C   0  0  2  0  0  0  0  0  0  0  0  0
    3.3170    1.0130    1.7010 C   0  0  0  0  0  0  0  0  0  0  0  0
    4.5910    1.3210    0.9200 C   0  0  0  0  0  0  0  0  0  0  0  0
    4.6670    0.2590   -0.1500 C   0  0  1  0  0  0  0  0  0  0  0  0
    5.3010    0.7290   -1.4100 C   0  0  0  0  0  0  0  0  0  0  0  0
    6.7230    0.8010   -1.4280 N   0  0  0  0  0  0  0  0  0  0  0  0
    4.9730   -0.9790    0.2940 O   0  0  0  0  0  0  0  0  0  0  0  0
    6.1220   -1.2240    0.9460 C   0  0  0  0  0  0  0  0  0  0  0  0
    6.1270   -2.6050    1.2700 O   0  0  0  0  0  0  0  0  0  0  0  0
    3.1510    0.1920   -0.4840 C   0  0  0  0  0  0  0  0  0  0  0  0
   -3.9490   -1.6890   -0.2510 C   0  0  2  0  0  0  0  0  0  0  0  0
   -3.4100   -2.6670   -1.1750 O   0  0  0  0  0  0  0  0  0  0  0  0
   -5.3840   -1.7290   -0.5020 C   0  0  0  0  0  0  0  0  0  0  0  0
   -6.3210   -1.0950    0.3430 N   0  0  0  0  0  0  0  0  0  0  0  0
   -5.9070   -2.3440   -1.5020 O   0  0  0  0  0  0  0  0  0  0  0  0
  2  1  1  6
  2  3  1  0
  2  4  1  0
  2  8  1  0
  4  5  1  0
  4  6  2  3
  6  7  1  0
  8  9  1  6
  8 11  1  0
  8 29  1  0
  9 10  1  0
 11 12  1  0
 12 13  2  0
 12 14  1  0
 14 15  1  6
 14 16  1  0
 16 17  1  1
 16 19  1  0
 17 18  1  0
 19 20  1  1
 19 28  1  0
 20 21  1  0
 21 22  1  0
 22 23  1  6
 22 25  1  0
 22 28  1  0
 23 24  1  0
 25 26  1  0
 26 27  1  0
 29 30  1  6
 29 31  1  0
 31 32  1  0
 31 33  2  0
M  CHG  1  24   1
M  END
