
     RDKit          3D

 32 33  0  0  0  0  0  0  0  0999 V2000
   -1.4150   -5.2810    1.8570 C   0  0  0  0  0  0  0  0  0  0  0  0
   -0.9870   -4.0140    1.4980 O   0  0  0  0  0  0  0  0  0  0  0  0
   -1.6810   -3.1190    0.7270 C   0  0  0  0  0  0  0  0  0  0  0  0
   -2.9970   -3.3720    0.6990 C   0  0  0  0  0  0  0  0  0  0  0  0
   -3.7820   -2.4970   -0.0730 O   0  0  0  0  0  0  0  0  0  0  0  0
   -1.0880   -1.9750   -0.0200 C   0  0  0  0  0  0  0  0  0  0  0  0
    0.2050   -1.7400    0.0090 C   0  0  0  0  0  0  0  0  0  0  0  0
    1.3840   -2.4060    0.6860 C   0  0  2  0  0  0  0  0  0  0  0  0
    1.2330   -3.4690    1.4460 O   0  0  0  0  0  0  0  0  0  0  0  0
    1.8550   -1.1770    1.4960 C   0  0  0  0  0  0  0  0  0  0  0  0
    1.8610   -0.1270    0.4090 C   0  0  1  0  0  0  0  0  0  0  0  0
    1.4050    1.0730    0.8700 O   0  0  0  0  0  0  0  0  0  0  0  0
    3.2790    0.0430   -0.0700 C   0  0  0  0  0  0  0  0  0  0  0  0
    4.2360    0.4710    0.9760 C   0  0  1  0  0  0  0  0  0  0  0  0
    5.5040    0.5670    0.3220 O   0  0  0  0  0  0  0  0  0  0  0  0
    3.9870    1.8670    1.5200 C   0  0  0  0  0  0  0  0  0  0  0  0
    3.9300    2.8630    0.4770 N   0  0  0  0  0  0  0  0  0  0  0  0
    0.9890   -0.6970   -0.7080 C   0  0  2  0  0  0  0  0  0  0  0  0
    0.5410    0.1180   -1.6330 O   0  0  0  0  0  0  0  0  0  0  0  0
    0.6160    1.3610   -2.1590 C   0  0  0  0  0  0  0  0  0  0  0  0
    1.6320    1.7610   -2.8700 O   0  0  0  0  0  0  0  0  0  0  0  0
   -0.3160    2.4330   -2.0750 N   0  0  0  0  0  0  0  0  0  0  0  0
   -1.0100    2.9520   -0.9240 C   0  0  1  0  0  0  0  0  0  0  0  0
   -0.8000    4.3670   -1.0080 O   0  0  0  0  0  0  0  0  0  0  0  0
   -2.5120    2.7530   -1.0260 C   0  0  0  0  0  0  0  0  0  0  0  0
   -3.0940    2.1010    0.0290 O   0  0  0  0  0  0  0  0  0  0  0  0
   -3.4550    0.7570   -0.2800 C   0  0  1  0  0  0  0  0  0  0  0  0
   -4.5410    0.7260   -1.2500 C   0  0  0  0  0  0  0  0  0  0  0  0
   -5.0720    1.9940   -1.6960 N   0  0  0  0  0  0  0  0  0  0  0  0
   -5.0690   -0.2770   -1.7440 O   0  0  0  0  0  0  0  0  0  0  0  0
   -2.1520    0.1450   -0.7480 C   0  0  0  0  0  0  0  0  0  0  0  0
   -2.0340   -1.2260   -0.7140 O   0  0  0  0  0  0  0  0  0  0  0  0
  1  2  1  0
  2  3  1  0
  3  4  2  3
  3  6  1  0
  4  5  1  0
  6  7  2  0
  6 32  1  0
  7  8  1  0
  7 18  1  0
  8  9  1  1
  8 10  1  0
 10 11  1  0
 11 12  1  1
 11 13  1  0
 11 18  1  0
 13 14  1  0
 14 15  1  6
 14 16  1  0
 16 17  1  0
 18 19  1  1
 19 20  1  0
 20 21  2  0
 20 22  1  0
 22 23  1  0
 23 24  1  6
 23 25  1  0
 25 26  1  0
 26 27  1  0
 27 28  1  6
 27 31  1  0
 28 29  1  0
 28 30  2  0
 31 32  1  0
M  CHG  1  17   1
M  END
