
     RDKit          3D

 33 36  0  0  0  0  0  0  0  0999 V2000
   10.1930    1.4470    0.3110 C   0  0  0  0  0  0  0  0  0  0  0  0
    8.7690    1.5830    0.3960 O   0  0  0  0  0  0  0  0  0  0  0  0
    7.9060    0.5070    0.3990 C   0  0  0  0  0  0  0  0  0  0  0  0
    8.3760   -0.6530    0.3240 O   0  0  0  0  0  0  0  0  0  0  0  0
    6.4680    0.7230    0.4890 C   0  0  0  0  0  0  0  0  0  0  0  0
    5.9900    1.9080    0.5650 O   0  0  0  0  0  0  0  0  0  0  0  0
    5.6140   -0.3920    0.4920 N   0  0  0  0  0  0  0  0  0  0  0  0
    4.2260   -0.1490    0.5800 C   0  0  0  0  0  0  0  0  0  0  0  0
    3.4780    0.9500    0.6670 N   0  0  0  0  0  0  0  0  0  0  0  0
    2.2390    0.8940    0.7350 N   0  0  0  0  0  0  0  0  0  0  0  0
    1.5260   -0.1990    0.7300 C   0  0  0  0  0  0  0  0  0  0  0  0
   -0.1460   -0.6750    0.8050 S   0  0  0  0  0  0  0  0  0  0  0  0
   -0.9190   -0.7860   -0.8710 C   0  0  2  0  0  0  0  0  0  0  0  0
   -0.9830    0.5350   -1.4710 C   0  0  0  0  0  0  0  0  0  0  0  0
   -0.4770    0.6870   -2.6230 O   0  0  0  0  0  0  0  0  0  0  0  0
   -1.5740    1.7310   -0.8810 C   0  0  0  0  0  0  0  0  0  0  0  0
   -2.1240    1.7350    0.3820 C   0  0  0  0  0  0  0  0  0  0  0  0
   -2.6830    2.8770    0.9400 C   0  0  0  0  0  0  0  0  0  0  0  0
   -2.7130    4.0680    0.2520 C   0  0  0  0  0  0  0  0  0  0  0  0
   -3.3010    5.3060    0.8160 C   0  0  0  0  0  0  0  0  0  0  0  0
   -2.1650    4.0800   -1.0170 C   0  0  0  0  0  0  0  0  0  0  0  0
   -2.1850    5.5770   -1.9250 Cl  0  0  0  0  0  0  0  0  0  0  0  0
   -1.6120    2.9370   -1.5610 C   0  0  0  0  0  0  0  0  0  0  0  0
   -2.1720   -1.5400   -0.7920 C   0  0  0  0  0  0  0  0  0  0  0  0
   -3.3740   -0.9810   -1.0900 C   0  0  0  0  0  0  0  0  0  0  0  0
   -4.5530   -1.7340   -0.9880 C   0  0  0  0  0  0  0  0  0  0  0  0
   -4.5200   -3.0580   -0.5850 C   0  0  0  0  0  0  0  0  0  0  0  0
   -3.2980   -3.6200   -0.2850 C   0  0  0  0  0  0  0  0  0  0  0  0
   -2.1430   -2.8670   -0.3890 C   0  0  0  0  0  0  0  0  0  0  0  0
   -3.5300   -5.0510    0.1200 C   0  0  0  0  0  0  0  0  0  0  0  0
   -4.9780   -5.0520    0.5180 C   0  0  0  0  0  0  0  0  0  0  0  0
   -5.5360   -4.0440   -0.3960 N   0  0  0  0  0  0  0  0  0  0  0  0
    2.9690   -1.4030    0.5990 S   0  0  0  0  0  0  0  0  0  0  0  0
  1  2  1  0
  2  3  1  0
  3  4  2  0
  3  5  1  0
  5  6  2  0
  5  7  1  0
  7  8  1  0
  8  9  2  0
  8 33  1  0
  9 10  1  0
 10 11  2  0
 11 12  1  0
 11 33  1  0
 13 12  1  1
 13 14  1  0
 13 24  1  0
 14 15  2  0
 14 16  1  0
 16 17  2  0
 16 23  1  0
 17 18  1  0
 18 19  2  0
 19 20  1  0
 19 21  1  0
 21 22  1  0
 21 23  2  0
 24 25  2  0
 24 29  1  0
 25 26  1  0
 26 27  2  0
 27 28  1  0
 27 32  1  0
 28 29  2  0
 28 30  1  0
 30 31  1  0
 31 32  1  0
M  END
