
     RDKit          3D

 32 35  0  0  0  0  0  0  0  0999 V2000
    7.8980    1.4380    0.6580 C   0  0  0  0  0  0  0  0  0  0  0  0
    7.6030   -0.0510    0.5550 C   0  0  2  0  0  0  0  0  0  0  0  0
    6.1880   -0.1820    0.2550 N   0  0  0  0  0  0  0  0  0  0  0  0
    5.7180   -0.7510   -0.9660 C   0  0  0  0  0  0  0  0  0  0  0  0
    6.5830   -1.1430   -1.7910 O   0  0  0  0  0  0  0  0  0  0  0  0
    4.3170   -0.9000   -1.2980 C   0  0  0  0  0  0  0  0  0  0  0  0
    3.9860   -1.4120   -2.5400 C   0  0  0  0  0  0  0  0  0  0  0  0
    2.6720   -1.5810   -2.9120 C   0  0  0  0  0  0  0  0  0  0  0  0
    1.6270   -1.2420   -2.0520 C   0  0  0  0  0  0  0  0  0  0  0  0
    1.9370   -0.7320   -0.8170 C   0  0  0  0  0  0  0  0  0  0  0  0
    0.9540   -0.3500    0.1090 N   0  0  0  0  0  0  0  0  0  0  0  0
   -0.4190   -0.2260   -0.1330 C   0  0  0  0  0  0  0  0  0  0  0  0
   -0.9290   -0.4490   -1.2460 O   0  0  0  0  0  0  0  0  0  0  0  0
   -1.3410    0.1920    0.9830 C   0  0  0  0  0  0  0  0  0  0  0  0
   -2.7100    0.2540    0.5280 N   0  0  0  0  0  0  0  0  0  0  0  0
   -3.4860   -0.9300    0.1490 C   0  0  0  0  0  0  0  0  0  0  0  0
   -4.8990   -0.4650   -0.0380 C   0  0  2  0  0  0  0  0  0  0  0  0
   -5.7340   -0.5720    1.1930 C   0  0  0  0  0  0  0  0  0  0  0  0
   -6.6350   -1.7330    0.9390 C   0  0  0  0  0  0  0  0  0  0  0  0
   -6.9360   -1.5630   -0.5540 C   0  0  0  0  0  0  0  0  0  0  0  0
   -5.6000   -1.1790   -1.1650 C   0  0  0  0  0  0  0  0  0  0  0  0
   -4.7140    0.9950   -0.3260 C   0  0  0  0  0  0  0  0  0  0  0  0
   -5.5350    1.6890   -1.0770 C   0  0  0  0  0  0  0  0  0  0  0  0
   -5.4600    3.4180   -1.5160 S   0  0  0  0  0  0  0  0  0  0  0  0
   -4.7740    4.2960   -0.1230 C   0  0  0  0  0  0  0  0  0  0  0  0
   -3.8720    3.8710    0.7160 C   0  0  0  0  0  0  0  0  0  0  0  0
   -3.1500    2.6070    0.8100 C   0  0  0  0  0  0  0  0  0  0  0  0
   -3.5140    1.4190    0.3710 C   0  0  0  0  0  0  0  0  0  0  0  0
    3.2840   -0.5730   -0.4680 C   0  0  0  0  0  0  0  0  0  0  0  0
    7.9650   -0.7760    1.7930 C   0  0  0  0  0  0  0  0  0  0  0  0
    9.2920   -0.7900    2.2910 N   0  0  0  0  0  0  0  0  0  0  0  0
    7.0860   -1.4000    2.4320 O   0  0  0  0  0  0  0  0  0  0  0  0
  2  1  1  1
  2  3  1  0
  2 30  1  0
  3  4  1  0
  4  5  2  0
  4  6  1  0
  6  7  2  0
  6 29  1  0
  7  8  1  0
  8  9  2  0
  9 10  1  0
 10 11  1  0
 10 29  2  0
 11 12  1  0
 12 13  2  0
 12 14  1  0
 14 15  1  0
 15 16  1  0
 15 28  1  0
 17 16  1  1
 17 18  1  0
 17 21  1  0
 17 22  1  0
 18 19  1  0
 19 20  1  0
 20 21  1  0
 22 23  2  0
 22 28  1  0
 23 24  1  0
 24 25  1  0
 25 26  2  0
 26 27  1  0
 27 28  2  0
 30 31  1  0
 30 32  2  0
M  END
