
     RDKit          3D

 33 36  0  0  0  0  0  0  0  0999 V2000
    2.0500   -3.5450   -1.2350 C   0  0  0  0  0  0  0  0  0  0  0  0
    0.6770   -3.0090   -1.3710 C   0  0  0  0  0  0  0  0  0  0  0  0
   -0.2350   -3.5500   -2.1890 O   0  0  0  0  0  0  0  0  0  0  0  0
   -1.3550   -2.9170   -2.1450 C   0  0  0  0  0  0  0  0  0  0  0  0
   -2.6310   -3.1510   -2.8660 C   0  0  0  0  0  0  0  0  0  0  0  0
   -1.1770   -1.8770   -1.2280 C   0  0  0  0  0  0  0  0  0  0  0  0
   -2.1910   -0.9050   -0.8530 C   0  0  0  0  0  0  0  0  0  0  0  0
   -2.4640    0.2440   -1.5650 C   0  0  0  0  0  0  0  0  0  0  0  0
   -3.4720    1.1240   -1.1730 C   0  0  0  0  0  0  0  0  0  0  0  0
   -4.2490    0.8990   -0.0590 C   0  0  0  0  0  0  0  0  0  0  0  0
   -5.2880    1.7910    0.3570 N   0  0  0  0  0  0  0  0  0  0  0  0
   -5.1370    2.7780    1.3120 N   0  0  0  0  0  0  0  0  0  0  0  0
   -6.1810    3.2030    1.9560 C   0  0  0  0  0  0  0  0  0  0  0  0
   -7.7880    2.5790    1.6680 S   0  0  1  0  0  0  0  0  0  0  0  0
   -7.9080    1.1890    2.1780 O   0  0  0  0  0  0  0  0  0  0  0  0
   -8.7500    3.4590    2.4490 O   0  0  0  0  0  0  0  0  0  0  0  0
   -3.9840   -0.2510    0.6650 C   0  0  0  0  0  0  0  0  0  0  0  0
   -2.9890   -1.1170    0.2750 C   0  0  0  0  0  0  0  0  0  0  0  0
    0.1030   -1.9340   -0.7390 C   0  0  0  0  0  0  0  0  0  0  0  0
    0.6430   -1.0340    0.2590 C   0  0  0  0  0  0  0  0  0  0  0  0
    0.0320    0.0650    0.5370 O   0  0  0  0  0  0  0  0  0  0  0  0
    1.8270   -1.2470    0.9980 N   0  0  0  0  0  0  0  0  0  0  0  0
    2.3110   -0.2940    1.9700 C   0  0  0  0  0  0  0  0  0  0  0  0
    2.6840    1.0240    1.4020 C   0  0  0  0  0  0  0  0  0  0  0  0
    3.7920    0.9120    0.4230 N   0  0  0  0  0  0  0  0  0  0  0  0
    3.5900    0.3030   -0.8740 C   0  0  0  0  0  0  0  0  0  0  0  0
    4.6540    1.4560   -1.8660 S   0  0  0  0  0  0  0  0  0  0  0  0
    5.8540    1.7260   -0.5310 C   0  0  0  0  0  0  0  0  0  0  0  0
    7.0740    2.1160   -0.2510 C   0  0  0  0  0  0  0  0  0  0  0  0
    7.2420    2.0130    1.2180 C   0  0  0  0  0  0  0  0  0  0  0  0
    5.9360    1.5080    1.7030 C   0  0  0  0  0  0  0  0  0  0  0  0
    5.5930    1.1900    3.3890 Cl  0  0  0  0  0  0  0  0  0  0  0  0
    5.1160    1.3420    0.6530 C   0  0  0  0  0  0  0  0  0  0  0  0
  1  2  1  0
  2  3  1  0
  2 19  2  0
  3  4  1  0
  4  5  1  0
  4  6  2  0
  6  7  1  0
  6 19  1  0
  7  8  2  0
  7 18  1  0
  8  9  1  0
  9 10  2  0
 10 11  1  0
 10 17  1  0
 11 12  1  0
 12 13  2  3
 14 13  1  1
 14 15  2  0
 14 16  2  0
 17 18  2  0
 19 20  1  0
 20 21  2  0
 20 22  1  0
 22 23  1  0
 23 24  1  0
 24 25  1  0
 25 26  1  0
 25 33  1  0
 26 27  1  0
 27 28  1  0
 28 29  2  0
 28 33  1  0
 29 30  1  0
 30 31  1  0
 31 32  1  0
 31 33  2  0
M  END
