
     RDKit          3D

 33 36  0  0  0  0  0  0  0  0999 V2000
    6.6540   -1.9480    2.3230 C   0  0  0  0  0  0  0  0  0  0  0  0
    6.0590   -1.0760    1.5430 C   0  0  0  0  0  0  0  0  0  0  0  0
    5.7560    0.3150    1.9370 C   0  0  0  0  0  0  0  0  0  0  0  0
    4.2960    0.5170    1.7500 C   0  0  0  0  0  0  0  0  0  0  0  0
    3.8000    0.1600    0.3550 C   0  0  0  0  0  0  0  0  0  0  0  0
    2.6820    0.7720   -0.1700 C   0  0  0  0  0  0  0  0  0  0  0  0
    1.7590    1.7450    0.4090 C   0  0  0  0  0  0  0  0  0  0  0  0
    2.0010    2.0770    1.6250 O   0  0  0  0  0  0  0  0  0  0  0  0
    0.6700    2.3410   -0.1900 N   0  0  0  0  0  0  0  0  0  0  0  0
   -0.0460    3.2800    0.7060 C   0  0  0  0  0  0  0  0  0  0  0  0
   -1.3900    3.6310    0.1270 C   0  0  0  0  0  0  0  0  0  0  0  0
   -2.2250    2.3880   -0.0820 C   0  0  0  0  0  0  0  0  0  0  0  0
   -3.4240    2.2040    0.4200 N   0  0  0  0  0  0  0  0  0  0  0  0
   -3.9340    0.9570    0.0470 C   0  0  0  0  0  0  0  0  0  0  0  0
   -5.5120    0.4730    0.5870 S   0  0  0  0  0  0  0  0  0  0  0  0
   -6.1660   -1.0680    0.1400 C   0  0  0  0  0  0  0  0  0  0  0  0
   -7.5740   -1.2630    0.7360 C   0  0  0  0  0  0  0  0  0  0  0  0
   -8.0610   -0.1890    1.5120 N   0  0  0  0  0  0  0  0  0  0  0  0
   -8.1890   -2.3170    0.5130 O   0  0  0  0  0  0  0  0  0  0  0  0
   -2.9700    0.3970   -0.7140 C   0  0  0  0  0  0  0  0  0  0  0  0
   -2.9710   -0.9030   -1.3660 C   0  0  0  0  0  0  0  0  0  0  0  0
   -1.9400   -1.2640   -2.0540 O   0  0  0  0  0  0  0  0  0  0  0  0
   -3.9580   -1.8440   -1.3540 O   0  0  0  0  0  0  0  0  0  0  0  0
   -3.8800   -3.0720   -2.0100 C   0  0  0  0  0  0  0  0  0  0  0  0
   -1.9280    1.2940   -0.7800 N   0  0  0  0  0  0  0  0  0  0  0  0
   -0.7390    0.9560   -1.5390 C   0  0  0  0  0  0  0  0  0  0  0  0
    0.2620    2.0930   -1.5240 C   0  0  0  0  0  0  0  0  0  0  0  0
    2.4960    0.0740   -1.8000 S   0  0  0  0  0  0  0  0  0  0  0  0
    3.9220   -0.9930   -1.6760 C   0  0  0  0  0  0  0  0  0  0  0  0
    4.4350   -2.0690   -2.9690 Cl  0  0  0  0  0  0  0  0  0  0  0  0
    4.4340   -0.7450   -0.4140 C   0  0  0  0  0  0  0  0  0  0  0  0
    5.6360   -1.4250    0.1770 C   0  0  0  0  0  0  0  0  0  0  0  0
    6.2830   -2.3250   -0.5090 C   0  0  0  0  0  0  0  0  0  0  0  0
  1  2  2  0
  2  3  1  0
  2 32  1  0
  3  4  1  0
  4  5  1  0
  5  6  2  0
  5 31  1  0
  6  7  1  0
  6 28  1  0
  7  8  2  0
  7  9  1  0
  9 10  1  0
  9 27  1  0
 10 11  1  0
 11 12  1  0
 12 13  2  0
 12 25  1  0
 13 14  1  0
 14 15  1  0
 14 20  2  0
 15 16  1  0
 16 17  1  0
 17 18  1  0
 17 19  2  0
 20 21  1  0
 20 25  1  0
 21 22  2  0
 21 23  1  0
 23 24  1  0
 25 26  1  0
 26 27  1  0
 28 29  1  0
 29 30  1  0
 29 31  2  0
 31 32  1  0
 32 33  2  0
M  END
