
     RDKit          3D

 32 35  0  0  0  0  0  0  0  0999 V2000
   -3.0460   -4.3070    2.2630 C   0  0  0  0  0  0  0  0  0  0  0  0
   -3.2650   -4.3440    0.9840 C   0  0  0  0  0  0  0  0  0  0  0  0
   -4.3430   -5.4980    0.1450 S   0  0  0  0  0  0  0  0  0  0  0  0
   -3.5820   -5.2580   -1.4840 C   0  0  0  0  0  0  0  0  0  0  0  0
   -2.8920   -3.9590   -1.2900 C   0  0  0  0  0  0  0  0  0  0  0  0
   -2.7330   -3.5100   -0.1050 C   0  0  0  0  0  0  0  0  0  0  0  0
   -2.0900   -2.2760    0.2530 N   0  0  0  0  0  0  0  0  0  0  0  0
   -1.5400   -1.3660   -0.6440 C   0  0  0  0  0  0  0  0  0  0  0  0
   -1.5660   -1.5920   -1.8730 O   0  0  0  0  0  0  0  0  0  0  0  0
   -0.8880   -0.0830   -0.2230 C   0  0  2  0  0  0  0  0  0  0  0  0
   -1.9440    0.9530   -0.0270 C   0  0  0  0  0  0  0  0  0  0  0  0
   -1.7420    2.2530   -0.4890 C   0  0  0  0  0  0  0  0  0  0  0  0
   -2.7040    3.2390   -0.3400 C   0  0  0  0  0  0  0  0  0  0  0  0
   -3.8820    2.9340    0.2740 C   0  0  0  0  0  0  0  0  0  0  0  0
   -4.8810    3.9250    0.4320 N   0  0  0  0  0  0  0  0  0  0  0  0
   -4.6740    5.2510   -0.0850 C   0  0  0  0  0  0  0  0  0  0  0  0
   -4.1160    1.6800    0.7360 C   0  0  0  0  0  0  0  0  0  0  0  0
   -3.1310    0.6880    0.5790 C   0  0  0  0  0  0  0  0  0  0  0  0
   -0.0600    0.3040   -1.3520 N   0  0  0  0  0  0  0  0  0  0  0  0
    1.2800    0.4120   -0.9340 C   0  0  0  0  0  0  0  0  0  0  0  0
    2.2750    0.7600   -1.6940 O   0  0  0  0  0  0  0  0  0  0  0  0
    1.3430    0.0740    0.4680 C   0  0  0  0  0  0  0  0  0  0  0  0
    2.4220    0.0330    1.2330 C   0  0  0  0  0  0  0  0  0  0  0  0
    3.7790    0.3050    0.8590 C   0  0  0  0  0  0  0  0  0  0  0  0
    4.5700    1.2330    1.5450 C   0  0  0  0  0  0  0  0  0  0  0  0
    5.8880    1.4650    1.2080 C   0  0  0  0  0  0  0  0  0  0  0  0
    6.4660    0.7730    0.1640 C   0  0  0  0  0  0  0  0  0  0  0  0
    7.7900    0.9960   -0.1870 O   0  0  0  0  0  0  0  0  0  0  0  0
    8.4190    0.3060   -1.2510 C   0  0  0  0  0  0  0  0  0  0  0  0
    5.7130   -0.1430   -0.5240 C   0  0  0  0  0  0  0  0  0  0  0  0
    4.3760   -0.3690   -0.1700 C   0  0  0  0  0  0  0  0  0  0  0  0
   -0.0020   -0.2330    0.8660 N   0  0  0  0  0  0  0  0  0  0  0  0
  1  2  2  0
  2  3  1  0
  2  6  1  0
  3  4  1  0
  4  5  1  0
  5  6  2  0
  6  7  1  0
  7  8  1  0
  8  9  2  0
 10  8  1  6
 10 11  1  0
 10 19  1  0
 10 32  1  0
 11 12  2  0
 11 18  1  0
 12 13  1  0
 13 14  2  0
 14 15  1  0
 14 17  1  0
 15 16  1  0
 17 18  2  0
 19 20  1  0
 20 21  2  0
 20 22  1  0
 22 23  2  3
 22 32  1  0
 23 24  1  0
 24 25  2  0
 24 31  1  0
 25 26  1  0
 26 27  2  0
 27 28  1  0
 27 30  1  0
 28 29  1  0
 30 31  2  0
M  END
