
     RDKit          3D

 33 36  0  0  0  0  0  0  0  0999 V2000
    8.0660    2.4950   -0.9500 C   0  0  0  0  0  0  0  0  0  0  0  0
    7.6330    2.4450    0.3320 O   0  0  0  0  0  0  0  0  0  0  0  0
    6.3760    1.9800    0.4860 C   0  0  0  0  0  0  0  0  0  0  0  0
    6.2380    0.5620    0.1030 C   0  0  0  0  0  0  0  0  0  0  0  0
    7.2430   -0.1010   -0.2270 O   0  0  0  0  0  0  0  0  0  0  0  0
    4.9240   -0.0400    0.1200 N   0  0  0  0  0  0  0  0  0  0  0  0
    3.7610    0.6890    0.4920 C   0  0  0  0  0  0  0  0  0  0  0  0
    2.4680   -0.0040    0.1380 C   0  0  0  0  0  0  0  0  0  0  0  0
    2.5100   -1.4140    0.3240 N   0  0  0  0  0  0  0  0  0  0  0  0
    1.4070   -2.2520    0.1900 C   0  0  0  0  0  0  0  0  0  0  0  0
    1.4930   -3.4970    0.3680 O   0  0  0  0  0  0  0  0  0  0  0  0
    0.0640   -1.7530   -0.1690 C   0  0  0  0  0  0  0  0  0  0  0  0
   -1.0710   -2.3900   -0.3300 C   0  0  0  0  0  0  0  0  0  0  0  0
   -2.2160   -1.7190   -0.6700 C   0  0  0  0  0  0  0  0  0  0  0  0
   -3.5180   -2.4290   -0.8730 C   0  0  0  0  0  0  0  0  0  0  0  0
   -3.6970   -3.7930   -0.7910 C   0  0  0  0  0  0  0  0  0  0  0  0
   -5.0120   -4.1140   -1.0420 C   0  0  0  0  0  0  0  0  0  0  0  0
   -5.6310   -2.9120   -1.2780 C   0  0  0  0  0  0  0  0  0  0  0  0
   -4.6930   -1.9260   -1.1650 N   0  0  0  0  0  0  0  0  0  0  0  0
   -2.1000   -0.3780   -0.8240 C   0  0  0  0  0  0  0  0  0  0  0  0
   -3.0210    0.7420   -1.1610 C   0  0  0  0  0  0  0  0  0  0  0  0
   -3.8040    1.0700    0.0630 C   0  0  0  0  0  0  0  0  0  0  0  0
   -3.5910    0.4220    1.0950 O   0  0  0  0  0  0  0  0  0  0  0  0
   -4.7480    2.0920    0.0100 N   0  0  0  0  0  0  0  0  0  0  0  0
   -5.5770    2.5160    1.1240 C   0  0  0  0  0  0  0  0  0  0  0  0
   -5.4800    1.8600    2.3990 C   0  0  0  0  0  0  0  0  0  0  0  0
   -6.6580    2.7100    3.3990 S   0  0  0  0  0  0  0  0  0  0  0  0
   -7.2270    3.8850    2.1160 C   0  0  0  0  0  0  0  0  0  0  0  0
   -6.4520    3.5070    1.0340 C   0  0  0  0  0  0  0  0  0  0  0  0
   -6.7240    4.4640   -0.4960 Cl  0  0  0  0  0  0  0  0  0  0  0  0
   -0.3390   -0.0680   -0.4830 S   0  0  0  0  0  0  0  0  0  0  0  0
    3.7840   -2.0360    0.6800 C   0  0  0  0  0  0  0  0  0  0  0  0
    4.8210   -1.4240   -0.2560 C   0  0  0  0  0  0  0  0  0  0  0  0
  1  2  1  0
  2  3  1  0
  3  4  1  0
  4  5  2  0
  4  6  1  0
  6  7  1  0
  6 33  1  0
  7  8  1  0
  8  9  1  0
  9 10  1  0
  9 32  1  0
 10 11  2  0
 10 12  1  0
 12 13  2  0
 12 31  1  0
 13 14  1  0
 14 15  1  0
 14 20  2  0
 15 16  2  0
 15 19  1  0
 16 17  1  0
 17 18  2  0
 18 19  1  0
 20 21  1  0
 20 31  1  0
 21 22  1  0
 22 23  2  0
 22 24  1  0
 24 25  1  0
 25 26  2  0
 25 29  1  0
 26 27  1  0
 27 28  1  0
 28 29  2  0
 29 30  1  0
 32 33  1  0
M  END
