
     RDKit          3D

 17 17  0  0  0  0  0  0  0  0999 V2000
    4.8680   -0.5100   -0.7340 C   0  0  0  0  0  0  0  0  0  0  0  0
    4.2050    0.7320    0.3290 S   0  0  2  0  0  0  0  0  0  0  0  0
    4.8210    2.0500    0.0310 O   0  0  0  0  0  0  0  0  0  0  0  0
    4.4790    0.3290    1.7450 O   0  0  0  0  0  0  0  0  0  0  0  0
    2.4900    0.7470    0.1220 N   0  0  0  0  0  0  0  0  0  0  0  0
    1.9840   -0.5320    0.5050 C   0  0  0  0  0  0  0  0  0  0  0  0
    0.5200   -0.6130    0.3600 C   0  0  0  0  0  0  0  0  0  0  0  0
   -0.0880   -1.6890    0.6620 O   0  0  0  0  0  0  0  0  0  0  0  0
   -0.2300    0.5010   -0.1160 N   0  0  0  0  0  0  0  0  0  0  0  0
   -1.6230    0.3510   -0.2280 C   0  0  0  0  0  0  0  0  0  0  0  0
   -2.3500    1.1830    0.4920 C   0  0  0  0  0  0  0  0  0  0  0  0
   -3.8240    1.2680    0.5820 C   0  0  0  0  0  0  0  0  0  0  0  0
   -4.6910    0.3090    0.3050 C   0  0  0  0  0  0  0  0  0  0  0  0
   -4.4340   -1.0650   -0.1530 C   0  0  0  0  0  0  0  0  0  0  0  0
   -3.4420   -1.1500   -1.1740 O   0  0  0  0  0  0  0  0  0  0  0  0
   -2.1030   -0.6940   -1.1140 C   0  0  0  0  0  0  0  0  0  0  0  0
   -1.2830   -1.2430   -1.8890 O   0  0  0  0  0  0  0  0  0  0  0  0
  2  1  1  6
  2  3  2  0
  2  4  2  0
  2  5  1  0
  5  6  1  0
  6  7  1  0
  7  8  2  0
  7  9  1  0
  9 10  1  0
 10 11  2  0
 10 16  1  0
 11 12  1  0
 12 13  2  0
 13 14  1  0
 14 15  1  0
 15 16  1  0
 16 17  2  0
M  END
