
     RDKit          3D

 17 17  0  0  0  0  0  0  0  0999 V2000
   -4.4510    0.3230   -0.9540 C   0  0  0  0  0  0  0  0  0  0  0  0
   -3.4000   -0.8080   -0.9660 C   0  0  0  0  0  0  0  0  0  0  0  0
   -3.3950   -1.3380    0.3190 O   0  0  0  0  0  0  0  0  0  0  0  0
   -3.0480   -0.4250    1.2790 C   0  0  0  0  0  0  0  0  0  0  0  0
   -1.7330    0.1090    1.3110 C   0  0  0  0  0  0  0  0  0  0  0  0
   -1.1970    1.0290    1.7590 O   0  0  0  0  0  0  0  0  0  0  0  0
   -0.6330   -0.9360    0.4210 N   0  0  0  0  0  0  0  0  0  0  0  0
    0.4750   -0.1240    0.5080 C   0  0  0  0  0  0  0  0  0  0  0  0
    0.7430    0.9350    0.9780 O   0  0  0  0  0  0  0  0  0  0  0  0
    1.6400   -0.8080   -0.1970 N   0  0  0  0  0  0  0  0  0  0  0  0
    2.8590   -0.1360   -0.1860 C   0  0  0  0  0  0  0  0  0  0  0  0
    3.9170   -0.7030    0.3640 C   0  0  0  0  0  0  0  0  0  0  0  0
    5.2190    0.4410    0.1810 S   0  0  2  0  0  0  0  0  0  0  0  0
    6.3380   -0.0790   -0.6700 O   0  0  0  0  0  0  0  0  0  0  0  0
    5.7100    0.9460    1.5060 O   0  0  0  0  0  0  0  0  0  0  0  0
    4.2660    1.6590   -0.6380 C   0  0  0  0  0  0  0  0  0  0  0  0
    3.0770    1.1720   -0.7340 C   0  0  0  0  0  0  0  0  0  0  0  0
  1  2  1  0
  2  3  1  0
  3  4  1  0
  4  5  1  0
  5  6  2  0
  5  7  1  0
  7  8  1  0
  8  9  2  0
  8 10  1  0
 10 11  1  0
 11 12  2  0
 11 17  1  0
 13 12  1  1
 13 14  2  0
 13 15  2  0
 13 16  1  0
 16 17  2  0
M  END
