
     RDKit          3D

 17 17  0  0  0  0  0  0  0  0999 V2000
    4.8620    0.7250   -0.6790 N   0  0  0  0  0  0  0  0  0  0  0  0
    4.2660    1.4940    0.3850 C   0  0  0  0  0  0  0  0  0  0  0  0
    4.9510    2.4410    0.8310 O   0  0  0  0  0  0  0  0  0  0  0  0
    2.9260    1.1720    0.9090 C   0  0  0  0  0  0  0  0  0  0  0  0
    2.3820    0.0300    0.1990 N   0  0  0  0  0  0  0  0  0  0  0  0
    1.1040   -0.5110    0.4860 C   0  0  0  0  0  0  0  0  0  0  0  0
    0.4170    0.0320    1.3990 O   0  0  0  0  0  0  0  0  0  0  0  0
    0.6180   -1.6860   -0.2900 C   0  0  0  0  0  0  0  0  0  0  0  0
   -0.6590   -2.0930    0.1170 O   0  0  0  0  0  0  0  0  0  0  0  0
   -1.7770   -1.2190    0.0380 C   0  0  0  0  0  0  0  0  0  0  0  0
   -1.6920   -0.1200   -0.6350 C   0  0  0  0  0  0  0  0  0  0  0  0
   -2.6720    0.9390   -0.8750 C   0  0  0  0  0  0  0  0  0  0  0  0
   -4.1870    0.5980   -0.0950 S   0  0  1  0  0  0  0  0  0  0  0  0
   -4.5890    1.6830    0.8700 O   0  0  0  0  0  0  0  0  0  0  0  0
   -5.2850    0.4520   -1.1200 O   0  0  0  0  0  0  0  0  0  0  0  0
   -4.0830   -0.9150    0.7460 C   0  0  0  0  0  0  0  0  0  0  0  0
   -2.9800   -1.6290    0.7380 C   0  0  0  0  0  0  0  0  0  0  0  0
  1  2  1  0
  2  3  2  0
  2  4  1  0
  4  5  1  0
  5  6  1  0
  6  7  2  0
  6  8  1  0
  8  9  1  0
  9 10  1  0
 10 11  2  0
 10 17  1  0
 11 12  1  0
 13 12  1  6
 13 14  2  0
 13 15  2  0
 13 16  1  0
 16 17  2  0
M  END
