
     RDKit          3D

 14 15  0  0  0  0  0  0  0  0999 V2000
    3.5290    1.1420    0.4300 O   0  0  0  0  0  0  0  0  0  0  0  0
    3.2230    0.0400   -0.0540 C   0  0  0  0  0  0  0  0  0  0  0  0
    4.2900   -0.8220   -0.3340 O   0  0  0  0  0  0  0  0  0  0  0  0
    1.8910   -0.4860   -0.3770 C   0  0  0  0  0  0  0  0  0  0  0  0
    0.7400    0.3580   -0.1280 C   0  0  0  0  0  0  0  0  0  0  0  0
    0.7450    1.7310   -0.0460 C   0  0  0  0  0  0  0  0  0  0  0  0
   -0.3590    2.5140    0.2070 C   0  0  0  0  0  0  0  0  0  0  0  0
   -1.5640    1.9090    0.3930 C   0  0  0  0  0  0  0  0  0  0  0  0
   -1.6280    0.5210    0.3190 C   0  0  0  0  0  0  0  0  0  0  0  0
   -2.8830   -0.0390    0.5100 C   0  0  0  0  0  0  0  0  0  0  0  0
   -3.0580   -1.3990    0.4520 C   0  0  0  0  0  0  0  0  0  0  0  0
   -1.9460   -2.1630    0.1980 C   0  0  0  0  0  0  0  0  0  0  0  0
   -0.6880   -1.6100    0.0070 C   0  0  0  0  0  0  0  0  0  0  0  0
   -0.5070   -0.2600    0.0640 C   0  0  0  0  0  0  0  0  0  0  0  0
  1  2  2  0
  2  3  1  0
  2  4  1  0
  4  5  1  0
  5  6  2  0
  5 14  1  0
  6  7  1  0
  7  8  2  0
  8  9  1  0
  9 10  2  0
  9 14  1  0
 10 11  1  0
 11 12  2  0
 12 13  1  0
 13 14  2  0
M  END
