
     RDKit          3D

 17 17  0  0  0  0  0  0  0  0999 V2000
    3.7470   -0.0150    1.4960 N   0  0  0  0  0  0  0  0  0  0  0  0
    4.6320   -0.1300    0.3960 C   0  0  0  0  0  0  0  0  0  0  0  0
    5.7300   -0.7020    0.5730 O   0  0  0  0  0  0  0  0  0  0  0  0
    4.2760    0.4020   -0.9140 C   0  0  0  0  0  0  0  0  0  0  0  0
    3.0250    1.0130   -0.9730 O   0  0  0  0  0  0  0  0  0  0  0  0
    1.8240    0.4080   -0.7010 C   0  0  0  0  0  0  0  0  0  0  0  0
    1.8200   -0.8000   -0.3680 O   0  0  0  0  0  0  0  0  0  0  0  0
    0.5500    1.1310   -0.7880 C   0  0  0  0  0  0  0  0  0  0  0  0
   -0.6150    0.2680   -0.4490 C   0  0  0  0  0  0  0  0  0  0  0  0
   -0.3980   -0.9340   -0.1370 O   0  0  0  0  0  0  0  0  0  0  0  0
   -1.9390    0.7580   -0.4670 N   0  0  0  0  0  0  0  0  0  0  0  0
   -3.0690   -0.1170   -0.1280 C   0  0  0  0  0  0  0  0  0  0  0  0
   -4.0220   -0.3520   -0.9840 C   0  0  0  0  0  0  0  0  0  0  0  0
   -5.1250   -1.2370   -0.5840 C   0  0  0  0  0  0  0  0  0  0  0  0
   -4.8600   -1.3740    1.2080 S   0  0  0  0  0  0  0  0  0  0  0  0
   -3.1860   -0.7590    1.1630 C   0  0  0  0  0  0  0  0  0  0  0  0
   -2.3160   -0.8590    2.0430 O   0  0  0  0  0  0  0  0  0  0  0  0
  1  2  1  0
  2  3  2  0
  2  4  1  0
  4  5  1  0
  5  6  1  0
  6  7  2  0
  6  8  1  0
  8  9  1  0
  9 10  2  0
  9 11  1  0
 11 12  1  0
 12 13  2  0
 12 16  1  0
 13 14  1  0
 14 15  1  0
 15 16  1  0
 16 17  2  0
M  END
