
     RDKit          3D

 17 17  0  0  0  0  0  0  0  0999 V2000
    4.1570    2.0110   -1.0690 C   0  0  0  0  0  0  0  0  0  0  0  0
    3.5110    1.0740   -1.9020 O   0  0  0  0  0  0  0  0  0  0  0  0
    2.9870   -0.1030   -1.4250 C   0  0  0  0  0  0  0  0  0  0  0  0
    3.0760   -0.3760   -0.2060 O   0  0  0  0  0  0  0  0  0  0  0  0
    2.3000   -1.0920   -2.3300 C   0  0  0  0  0  0  0  0  0  0  0  0
    1.7310   -2.4950   -1.4360 S   0  0  0  0  0  0  0  0  0  0  0  0
    0.4010   -2.3320   -0.3380 C   0  0  0  0  0  0  0  0  0  0  0  0
    0.0900   -3.4420    0.4970 O   0  0  0  0  0  0  0  0  0  0  0  0
   -0.3620   -1.2730   -0.1990 C   0  0  0  0  0  0  0  0  0  0  0  0
   -0.1660   -0.1070   -0.9690 N   0  0  0  0  0  0  0  0  0  0  0  0
   -1.4650   -1.2790    0.7790 C   0  0  0  0  0  0  0  0  0  0  0  0
   -1.6200   -2.3390    1.4700 O   0  0  0  0  0  0  0  0  0  0  0  0
   -2.3390   -0.2230    0.9980 N   0  0  0  0  0  0  0  0  0  0  0  0
   -2.4990    1.1010    0.4380 C   0  0  0  0  0  0  0  0  0  0  0  0
   -2.8160    1.8930    1.7040 C   0  0  0  0  0  0  0  0  0  0  0  0
   -3.1930    0.9650    2.6500 O   0  0  0  0  0  0  0  0  0  0  0  0
   -3.4620   -0.2190    1.9870 C   0  0  0  0  0  0  0  0  0  0  0  0
  1  2  1  0
  2  3  1  0
  3  4  2  0
  3  5  1  0
  5  6  1  0
  6  7  1  0
  7  8  1  0
  7  9  2  3
  9 10  1  0
  9 11  1  0
 11 12  2  0
 11 13  1  0
 13 14  1  0
 13 17  1  0
 14 15  1  0
 15 16  1  0
 16 17  1  0
M  END
