
     RDKit          3D

 17 17  0  0  0  0  0  0  0  0999 V2000
    3.9550    2.1380    0.1840 N   0  0  0  0  0  0  0  0  0  0  0  0
    3.7960    0.7670    0.5630 C   0  0  0  0  0  0  0  0  0  0  0  0
    2.9500   -0.0090   -0.3770 C   0  0  0  0  0  0  0  0  0  0  0  0
    2.4210    0.4800   -1.4050 O   0  0  0  0  0  0  0  0  0  0  0  0
    2.7390   -1.3470   -0.0920 O   0  0  0  0  0  0  0  0  0  0  0  0
    1.9670   -2.1780   -0.8830 C   0  0  0  0  0  0  0  0  0  0  0  0
    0.5130   -1.7640   -0.9380 C   0  0  0  0  0  0  0  0  0  0  0  0
   -0.2400   -2.3800   -1.7270 O   0  0  0  0  0  0  0  0  0  0  0  0
    0.0060   -0.7390   -0.1460 N   0  0  0  0  0  0  0  0  0  0  0  0
   -1.3340   -0.2540   -0.1080 C   0  0  0  0  0  0  0  0  0  0  0  0
   -2.2940   -0.7400   -0.8520 C   0  0  0  0  0  0  0  0  0  0  0  0
   -3.7220   -0.3880   -0.9640 C   0  0  0  0  0  0  0  0  0  0  0  0
   -4.1570    0.9110    0.1020 S   0  0  2  0  0  0  0  0  0  0  0  0
   -5.2310    0.4460    1.0590 O   0  0  0  0  0  0  0  0  0  0  0  0
   -4.6770    2.1180   -0.6640 O   0  0  0  0  0  0  0  0  0  0  0  0
   -2.7630    1.4250    1.0050 C   0  0  0  0  0  0  0  0  0  0  0  0
   -1.6040    0.8610    0.8400 C   0  0  0  0  0  0  0  0  0  0  0  0
  1  2  1  0
  2  3  1  0
  3  4  2  0
  3  5  1  0
  5  6  1  0
  6  7  1  0
  7  8  2  0
  7  9  1  0
  9 10  1  0
 10 11  2  0
 10 17  1  0
 11 12  1  0
 13 12  1  6
 13 14  2  0
 13 15  2  0
 13 16  1  0
 16 17  2  0
M  END
