
     RDKit          3D

 17 17  0  0  0  0  0  0  0  0999 V2000
   -6.1790    0.2110   -1.5130 O   0  0  0  0  0  0  0  0  0  0  0  0
   -6.7540   -0.1080   -0.4410 C   0  0  0  0  0  0  0  0  0  0  0  0
   -5.9590   -0.3650    0.6540 O   0  0  0  0  0  0  0  0  0  0  0  0
   -4.5790   -0.2650    0.5400 C   0  0  0  0  0  0  0  0  0  0  0  0
   -3.7650    0.8150    0.7430 C   0  0  0  0  0  0  0  0  0  0  0  0
   -2.4460    0.6740    0.5720 C   0  0  0  0  0  0  0  0  0  0  0  0
   -1.9650   -0.5570    0.1960 C   0  0  0  0  0  0  0  0  0  0  0  0
   -0.6590   -1.0430   -0.0650 N   0  0  0  0  0  0  0  0  0  0  0  0
    0.4550   -0.1960    0.0460 C   0  0  0  0  0  0  0  0  0  0  0  0
    0.3950    1.0130    0.3730 O   0  0  0  0  0  0  0  0  0  0  0  0
    1.8060   -0.7610   -0.2420 C   0  0  0  0  0  0  0  0  0  0  0  0
    1.9380   -1.9620   -0.5730 O   0  0  0  0  0  0  0  0  0  0  0  0
    2.9690    0.0360   -0.1480 N   0  0  0  0  0  0  0  0  0  0  0  0
    4.2830   -0.5570   -0.4390 C   0  0  0  0  0  0  0  0  0  0  0  0
    5.3320    0.5430   -0.2540 C   0  0  0  0  0  0  0  0  0  0  0  0
    5.2740    0.9990    1.0600 O   0  0  0  0  0  0  0  0  0  0  0  0
   -3.4430   -1.5220    0.0910 S   0  0  0  0  0  0  0  0  0  0  0  0
  1  2  2  0
  2  3  1  0
  3  4  1  0
  4  5  2  0
  4 17  1  0
  5  6  1  0
  6  7  2  0
  7  8  1  0
  7 17  1  0
  8  9  1  0
  9 10  2  0
  9 11  1  0
 11 12  2  0
 11 13  1  0
 13 14  1  0
 14 15  1  0
 15 16  1  0
M  END
