
     RDKit          3D

 17 17  0  0  0  0  0  0  0  0999 V2000
   -5.4360    1.0320    1.1550 C   0  0  0  0  0  0  0  0  0  0  0  0
   -4.8580   -0.1730    0.6650 O   0  0  0  0  0  0  0  0  0  0  0  0
   -3.4950   -0.3280    0.4930 C   0  0  0  0  0  0  0  0  0  0  0  0
   -2.7470    0.6370    0.7830 O   0  0  0  0  0  0  0  0  0  0  0  0
   -2.9230   -1.6050   -0.0220 C   0  0  0  0  0  0  0  0  0  0  0  0
   -1.4970   -1.5580   -0.1260 N   0  0  0  0  0  0  0  0  0  0  0  0
   -0.7860   -0.6400   -0.9280 C   0  0  0  0  0  0  0  0  0  0  0  0
   -1.4160    0.2050   -1.6070 O   0  0  0  0  0  0  0  0  0  0  0  0
    0.6850   -0.6150   -1.0150 C   0  0  0  0  0  0  0  0  0  0  0  0
    1.2880   -1.4680   -0.3280 O   0  0  0  0  0  0  0  0  0  0  0  0
    1.3740    0.3110   -1.8230 N   0  0  0  0  0  0  0  0  0  0  0  0
    2.8110    0.3220   -1.8900 C   0  0  0  0  0  0  0  0  0  0  0  0
    3.5020    0.5980   -0.6430 C   0  0  0  0  0  0  0  0  0  0  0  0
    3.0380    0.8650    0.5360 C   0  0  0  0  0  0  0  0  0  0  0  0
    3.9240    1.0840    1.5330 O   0  0  0  0  0  0  0  0  0  0  0  0
    5.1980    0.5050    1.3840 C   0  0  0  0  0  0  0  0  0  0  0  0
    5.2770    0.6110   -0.4630 S   0  0  0  0  0  0  0  0  0  0  0  0
  1  2  1  0
  2  3  1  0
  3  4  2  0
  3  5  1  0
  5  6  1  0
  6  7  1  0
  7  8  2  0
  7  9  1  0
  9 10  2  0
  9 11  1  0
 11 12  1  0
 12 13  1  0
 13 14  2  0
 13 17  1  0
 14 15  1  0
 15 16  1  0
 16 17  1  0
M  END
