
     RDKit          3D

 24 24  0  0  0  0  0  0  0  0999 V2000
    6.5440   -0.1780   -0.9690 O   0  0  0  0  0  0  0  0  0  0  0  0
    5.9810    0.9570   -0.8410 C   0  0  0  0  0  0  0  0  0  0  0  0
    6.7930    2.0730   -0.7160 O   0  0  0  0  0  0  0  0  0  0  0  0
    8.1360    1.9580   -0.7310 O   0  0  0  0  0  0  0  0  0  0  0  0
    4.6050    1.0200   -0.8320 O   0  0  0  0  0  0  0  0  0  0  0  0
    3.6610   -0.4620   -0.9980 P   0  0  0  0  0  0  0  0  0  0  0  0
    4.1950   -1.6560    0.1410 O   0  0  0  0  0  0  0  0  0  0  0  0
    1.8550   -0.1140   -0.7180 C   0  0  0  0  0  0  0  0  0  0  0  0
    1.4640   -0.3340    0.7130 C   0  0  0  0  0  0  0  0  0  0  0  0
    0.1100   -0.0860    0.9930 O   0  0  0  0  0  0  0  0  0  0  0  0
   -0.9020   -0.7860    0.3950 C   0  0  0  0  0  0  0  0  0  0  0  0
   -0.6210   -1.6850   -0.4330 O   0  0  0  0  0  0  0  0  0  0  0  0
   -2.3460   -0.5560    0.6590 C   0  0  2  0  0  0  0  0  0  0  0  0
   -2.5900    0.4370    1.5710 O   0  0  0  0  0  0  0  0  0  0  0  0
   -2.0960    1.5520    1.1370 O   0  0  0  0  0  0  0  0  0  0  0  0
   -3.2030    2.8730    1.2170 P   0  0  0  0  0  0  0  0  0  0  0  0
   -4.1480    2.8710    2.6560 O   0  0  0  0  0  0  0  0  0  0  0  0
   -4.1350    3.0720   -0.2030 O   0  0  0  0  0  0  0  0  0  0  0  0
   -2.8760   -1.7900    1.0970 O   0  0  0  0  0  0  0  0  0  0  0  0
   -2.9360   -2.6480   -0.4370 P   0  0  0  0  0  0  0  0  0  0  0  0
   -4.5560   -3.2440   -0.6310 O   0  0  0  0  0  0  0  0  0  0  0  0
   -2.7630   -1.2700   -1.5170 O   0  0  0  0  0  0  0  0  0  0  0  0
   -3.1160   -0.2460   -0.6070 C   0  0  1  0  0  0  0  0  0  0  0  0
   -4.4760   -0.4290   -0.3460 O   0  0  0  0  0  0  0  0  0  0  0  0
  1  2  2  0
  2  3  1  0
  2  5  1  0
  3  4  1  0
  5  6  1  0
  6  7  1  0
  6  8  1  0
  8  9  1  0
  9 10  1  0
 10 11  1  0
 11 12  2  0
 11 13  1  0
 13 14  1  1
 13 19  1  0
 13 23  1  0
 14 15  1  0
 15 16  1  0
 16 17  1  0
 16 18  1  0
 19 20  1  0
 20 21  1  0
 20 22  1  0
 22 23  1  0
 23 24  1  1
M  END
