
     RDKit          3D

 24 24  0  0  0  0  0  0  0  0999 V2000
   -3.3420   -0.6740   -1.1970 O   0  0  0  0  0  0  0  0  0  0  0  0
   -2.6430   -1.3640   -0.4370 C   0  0  0  0  0  0  0  0  0  0  0  0
   -3.2420   -2.3980    0.2650 O   0  0  0  0  0  0  0  0  0  0  0  0
   -1.2010   -1.1150   -0.2620 C   0  0  1  0  0  0  0  0  0  0  0  0
   -0.2410   -2.6550   -0.7710 P   0  0  0  0  0  0  0  0  0  0  0  0
   -1.1640   -3.5680   -1.9300 O   0  0  0  0  0  0  0  0  0  0  0  0
   -0.0340   -3.6940    0.6250 O   0  0  0  0  0  0  0  0  0  0  0  0
   -0.7220   -0.0120   -0.9640 O   0  0  0  0  0  0  0  0  0  0  0  0
   -0.1870    0.8410    0.0310 C   0  0  1  0  0  0  0  0  0  0  0  0
    0.6560    1.8020   -0.4410 O   0  0  0  0  0  0  0  0  0  0  0  0
    1.1500    2.7750    0.9170 P   0  0  0  0  0  0  0  0  0  0  0  0
   -0.1040    2.8750    2.1080 O   0  0  0  0  0  0  0  0  0  0  0  0
    1.6600    4.3500    0.4000 O   0  0  0  0  0  0  0  0  0  0  0  0
   -1.3370    1.5090    0.5630 O   0  0  0  0  0  0  0  0  0  0  0  0
   -1.9740    2.4110   -0.8040 P   0  0  0  0  0  0  0  0  0  0  0  0
   -3.7030    2.5090   -0.7190 O   0  0  0  0  0  0  0  0  0  0  0  0
   -1.4460    1.7410   -2.3000 O   0  0  0  0  0  0  0  0  0  0  0  0
    0.3390   -0.1630    0.9770 C   0  0  2  0  0  0  0  0  0  0  0  0
    0.5590    0.3300    2.2810 O   0  0  0  0  0  0  0  0  0  0  0  0
    1.1680   -1.0670    0.5600 O   0  0  0  0  0  0  0  0  0  0  0  0
    2.4400   -1.1900    0.3670 C   0  0  0  0  0  0  0  0  0  0  0  0
    3.0770   -0.2960   -0.6680 C   0  0  0  0  0  0  0  0  0  0  0  0
    4.4700   -0.5980   -0.7540 O   0  0  0  0  0  0  0  0  0  0  0  0
   -0.9460   -0.9140    1.0930 O   0  0  0  0  0  0  0  0  0  0  0  0
  1  2  2  0
  2  3  1  0
  2  4  1  0
  4  5  1  6
  4  8  1  0
  4 24  1  0
  5  6  1  0
  5  7  1  0
  8  9  1  0
  9 10  1  6
  9 14  1  0
  9 18  1  0
 10 11  1  0
 11 12  1  0
 11 13  1  0
 14 15  1  0
 15 16  1  0
 15 17  1  0
 18 19  1  1
 18 20  1  0
 18 24  1  0
 20 21  1  0
 21 22  1  0
 22 23  1  0
M  END
