
     RDKit          3D

 24 24  0  0  0  0  0  0  0  0999 V2000
    0.7960    2.6260   -1.1030 O   0  0  0  0  0  0  0  0  0  0  0  0
   -0.3630    3.0030   -1.3230 C   0  0  0  0  0  0  0  0  0  0  0  0
   -0.5910    3.7620   -2.4870 O   0  0  0  0  0  0  0  0  0  0  0  0
   -1.3680    2.6840   -0.4560 O   0  0  0  0  0  0  0  0  0  0  0  0
   -1.3140    1.9520    0.7050 C   0  0  0  0  0  0  0  0  0  0  0  0
   -0.9230    0.4620    0.5180 C   0  0  2  0  0  0  0  0  0  0  0  0
    0.3040    0.4380   -0.0180 O   0  0  0  0  0  0  0  0  0  0  0  0
    0.9090   -0.7330   -0.2300 C   0  0  0  0  0  0  0  0  0  0  0  0
    2.3600   -0.5750   -0.7120 C   0  0  0  0  0  0  0  0  0  0  0  0
    3.1240    0.1050    0.2090 O   0  0  0  0  0  0  0  0  0  0  0  0
    4.7320    0.2260   -0.4320 P   0  0  0  0  0  0  0  0  0  0  0  0
    5.7680    1.1240    0.6290 O   0  0  0  0  0  0  0  0  0  0  0  0
    5.4200   -1.3480   -0.7170 O   0  0  0  0  0  0  0  0  0  0  0  0
   -1.9310   -0.1500   -0.1010 O   0  0  0  0  0  0  0  0  0  0  0  0
   -2.0500   -1.4380   -0.3710 C   0  0  1  0  0  0  0  0  0  0  0  0
   -3.3400   -1.9550    0.0460 O   0  0  0  0  0  0  0  0  0  0  0  0
   -3.4720   -3.0780   -0.5730 O   0  0  0  0  0  0  0  0  0  0  0  0
   -3.7700   -2.8110   -1.8490 O   0  0  0  0  0  0  0  0  0  0  0  0
   -2.4170   -1.7360   -2.2090 P   0  0  0  0  0  0  0  0  0  0  0  0
   -1.1240   -2.6190   -2.9400 O   0  0  0  0  0  0  0  0  0  0  0  0
   -0.7700   -0.0130    1.8630 O   0  0  0  0  0  0  0  0  0  0  0  0
   -2.2240    0.1520    2.7490 P   0  0  0  0  0  0  0  0  0  0  0  0
   -2.2440    1.5020    3.8080 O   0  0  0  0  0  0  0  0  0  0  0  0
   -2.4660   -1.2860    3.6890 O   0  0  0  0  0  0  0  0  0  0  0  0
  1  2  2  0
  2  3  1  0
  2  4  1  0
  4  5  1  0
  6  5  1  1
  6  7  1  0
  6 14  1  0
  6 21  1  0
  7  8  1  0
  8  9  1  0
  9 10  1  0
 10 11  1  0
 11 12  1  0
 11 13  1  0
 15 14  1  6
 15 16  1  0
 15 19  1  0
 16 17  1  0
 17 18  1  0
 18 19  1  0
 19 20  1  0
 21 22  1  0
 22 23  1  0
 22 24  1  0
M  END
