
     RDKit          3D

 24 24  0  0  0  0  0  0  0  0999 V2000
   -5.5310    0.6860   -1.4690 C   0  0  0  0  0  0  0  0  0  0  0  0
   -4.1020    0.7050   -1.5630 O   0  0  0  0  0  0  0  0  0  0  0  0
   -3.3050   -0.1460   -0.8470 C   0  0  0  0  0  0  0  0  0  0  0  0
   -3.8610   -0.9760   -0.0770 O   0  0  0  0  0  0  0  0  0  0  0  0
   -1.9200   -0.1720   -0.8990 O   0  0  0  0  0  0  0  0  0  0  0  0
   -1.1690   -1.0800   -0.1290 C   0  0  2  0  0  0  0  0  0  0  0  0
   -1.4680   -2.4020   -0.4170 O   0  0  0  0  0  0  0  0  0  0  0  0
   -1.3640   -0.7680    1.2090 O   0  0  0  0  0  0  0  0  0  0  0  0
   -0.4320    0.1910    1.5460 C   0  0  2  0  0  0  0  0  0  0  0  0
    0.4270   -0.2250    2.5550 O   0  0  0  0  0  0  0  0  0  0  0  0
   -1.1540    1.3900    1.9900 C   0  0  0  0  0  0  0  0  0  0  0  0
   -0.9180    1.8450    3.1380 O   0  0  0  0  0  0  0  0  0  0  0  0
   -2.0900    2.0560    1.2070 O   0  0  0  0  0  0  0  0  0  0  0  0
    0.3670    0.4300    0.4300 O   0  0  0  0  0  0  0  0  0  0  0  0
    0.3050   -0.7780   -0.2720 C   0  0  2  0  0  0  0  0  0  0  0  0
    0.7350   -0.5980   -2.0460 P   0  0  0  0  0  0  0  0  0  0  0  0
    0.6420   -2.1280   -2.8120 O   0  0  0  0  0  0  0  0  0  0  0  0
    2.2750    0.1260   -2.2860 O   0  0  0  0  0  0  0  0  0  0  0  0
    3.4810   -0.4620   -1.2090 P   0  0  0  0  0  0  0  0  0  0  0  0
    3.0550   -1.9890   -0.5290 O   0  0  0  0  0  0  0  0  0  0  0  0
    3.7450    0.7490    0.0090 O   0  0  0  0  0  0  0  0  0  0  0  0
    5.2900    1.4610   -0.2900 P   0  0  0  0  0  0  0  0  0  0  0  0
    6.4810    0.5340    0.5660 O   0  0  0  0  0  0  0  0  0  0  0  0
    5.3390    3.1280    0.1330 O   0  0  0  0  0  0  0  0  0  0  0  0
  1  2  1  0
  2  3  1  0
  3  4  2  0
  3  5  1  0
  5  6  1  0
  6  7  1  1
  6  8  1  0
  6 15  1  0
  8  9  1  0
  9 10  1  1
  9 11  1  0
  9 14  1  0
 11 12  2  0
 11 13  1  0
 14 15  1  0
 15 16  1  6
 16 17  1  0
 16 18  1  0
 18 19  1  0
 19 20  1  0
 19 21  1  0
 21 22  1  0
 22 23  1  0
 22 24  1  0
M  END
