
     RDKit          3D

 24 24  0  0  0  0  0  0  0  0999 V2000
    2.4450   -0.7030   -0.8990 O   0  0  0  0  0  0  0  0  0  0  0  0
    1.9320   -0.2280   -1.9630 C   0  0  0  0  0  0  0  0  0  0  0  0
    2.7750   -0.0370   -3.0340 O   0  0  0  0  0  0  0  0  0  0  0  0
    4.5040   -0.4310   -2.9470 P   0  0  0  0  0  0  0  0  0  0  0  0
    4.7360   -1.3930   -1.5380 O   0  0  0  0  0  0  0  0  0  0  0  0
    5.4510    1.0030   -2.9180 O   0  0  0  0  0  0  0  0  0  0  0  0
    6.3310    1.2160   -1.4600 P   0  0  0  0  0  0  0  0  0  0  0  0
    5.3230    1.6560   -0.1310 O   0  0  0  0  0  0  0  0  0  0  0  0
    7.3220   -0.1270   -1.0570 O   0  0  0  0  0  0  0  0  0  0  0  0
    0.5910    0.0470   -1.9400 O   0  0  0  0  0  0  0  0  0  0  0  0
   -0.3630   -0.2540   -0.4830 P   0  0  0  0  0  0  0  0  0  0  0  0
    0.7580   -0.2020    0.8640 O   0  0  0  0  0  0  0  0  0  0  0  0
   -1.6110    0.9040   -0.2800 O   0  0  0  0  0  0  0  0  0  0  0  0
   -2.6050    0.3780    0.5410 C   0  0  1  0  0  0  0  0  0  0  0  0
   -3.7340    1.3690    0.7500 C   0  0  2  0  0  0  0  0  0  0  0  0
   -3.2930    2.5350    1.3410 O   0  0  0  0  0  0  0  0  0  0  0  0
   -4.8070    0.6870    1.5720 C   0  0  0  0  0  0  0  0  0  0  0  0
   -5.2240   -0.4700    0.9560 O   0  0  0  0  0  0  0  0  0  0  0  0
   -3.1470   -0.7480   -0.1150 O   0  0  0  0  0  0  0  0  0  0  0  0
   -2.8600   -1.8980    0.5780 C   0  0  0  0  0  0  0  0  0  0  0  0
   -3.1280   -3.0740    0.2310 O   0  0  0  0  0  0  0  0  0  0  0  0
   -2.2080   -1.5310    1.7550 O   0  0  0  0  0  0  0  0  0  0  0  0
   -2.0820   -0.1480    1.8100 C   0  0  0  0  0  0  0  0  0  0  0  0
   -1.6020    0.4700    2.7880 O   0  0  0  0  0  0  0  0  0  0  0  0
  1  2  2  0
  2  3  1  0
  2 10  1  0
  3  4  1  0
  4  5  1  0
  4  6  1  0
  6  7  1  0
  7  8  1  0
  7  9  1  0
 10 11  1  0
 11 12  1  0
 11 13  1  0
 14 13  1  6
 14 15  1  0
 14 19  1  0
 14 23  1  0
 15 16  1  1
 15 17  1  0
 17 18  1  0
 19 20  1  0
 20 21  2  0
 20 22  1  0
 22 23  1  0
 23 24  2  0
M  END
