
     RDKit          3D

 23 25  0  0  0  0  0  0  0  0999 V2000
   -6.2150   -0.2920   -1.3230 O   0  0  0  0  0  0  0  0  0  0  0  0
   -5.1200   -0.0990   -0.7430 C   0  0  0  0  0  0  0  0  0  0  0  0
   -4.2440   -1.2080   -0.6350 N   0  0  0  0  0  0  0  0  0  0  0  0
   -3.2330   -1.4690    0.3380 C   0  0  0  0  0  0  0  0  0  0  0  0
   -2.3200   -0.3280    0.6020 C   0  0  0  0  0  0  0  0  0  0  0  0
   -1.0600   -0.5210    0.9020 O   0  0  0  0  0  0  0  0  0  0  0  0
   -0.4150    0.5800    1.0990 C   0  0  0  0  0  0  0  0  0  0  0  0
    0.7970    1.1720    1.4160 C   0  0  0  0  0  0  0  0  0  0  0  0
    2.0090    0.5660    1.6890 O   0  0  0  0  0  0  0  0  0  0  0  0
    2.9070    0.3010    0.6770 C   0  0  0  0  0  0  0  0  0  0  0  0
    2.6000    0.6180   -0.4830 O   0  0  0  0  0  0  0  0  0  0  0  0
    4.1690   -0.3200    0.8940 N   0  0  0  0  0  0  0  0  0  0  0  0
    5.1120   -0.6060   -0.1300 C   0  0  0  0  0  0  0  0  0  0  0  0
    4.4930   -1.7320   -1.4420 P   0  0  0  0  0  0  0  0  0  0  0  0
    3.6660   -0.9290   -2.7080 O   0  0  0  0  0  0  0  0  0  0  0  0
    3.6820   -3.1100   -0.8430 O   0  0  0  0  0  0  0  0  0  0  0  0
    0.6050    2.4960    1.4180 N   0  0  0  0  0  0  0  0  0  0  0  0
   -0.6500    2.7760    1.1220 N   0  0  0  0  0  0  0  0  0  0  0  0
   -1.3130    1.6210    0.9190 C   0  0  0  0  0  0  0  0  0  0  0  0
   -2.5030    1.0370    0.6070 C   0  0  0  0  0  0  0  0  0  0  0  0
   -3.7300    1.7680    0.3360 C   0  0  0  0  0  0  0  0  0  0  0  0
   -3.7200    2.9720    0.6720 O   0  0  0  0  0  0  0  0  0  0  0  0
   -4.9160    1.2260   -0.2720 N   0  0  0  0  0  0  0  0  0  0  0  0
  1  2  2  0
  2  3  1  0
  2 23  1  0
  3  4  1  0
  4  5  1  0
  5  6  1  0
  5 20  2  0
  6  7  1  0
  7  8  2  0
  7 19  1  0
  8  9  1  0
  8 17  1  0
  9 10  1  0
 10 11  2  0
 10 12  1  0
 12 13  1  0
 13 14  1  0
 14 15  1  0
 14 16  1  0
 17 18  1  0
 18 19  2  0
 19 20  1  0
 20 21  1  0
 21 22  2  0
 21 23  1  0
M  END
