
     RDKit          3D

 23 25  0  0  0  0  0  0  0  0999 V2000
    3.2350   -1.4830   -1.8770 O   0  0  0  0  0  0  0  0  0  0  0  0
    2.1860   -0.9260   -1.3960 C   0  0  0  0  0  0  0  0  0  0  0  0
    1.8050    0.2250   -1.9800 O   0  0  0  0  0  0  0  0  0  0  0  0
    2.6260    0.9990   -3.3240 P   0  0  0  0  0  0  0  0  0  0  0  0
    1.8350    2.4680   -3.7840 O   0  0  0  0  0  0  0  0  0  0  0  0
    4.2930    1.2350   -2.9760 O   0  0  0  0  0  0  0  0  0  0  0  0
    1.4990   -1.5670   -0.2770 C   0  0  0  0  0  0  0  0  0  0  0  0
    1.9050   -2.7430    0.3040 N   0  0  0  0  0  0  0  0  0  0  0  0
    1.0850   -3.0870    1.3040 C   0  0  0  0  0  0  0  0  0  0  0  0
    1.1720   -4.2070    2.1230 O   0  0  0  0  0  0  0  0  0  0  0  0
    0.1710   -2.1290    1.3440 N   0  0  0  0  0  0  0  0  0  0  0  0
    0.3700   -1.1810    0.4100 C   0  0  0  0  0  0  0  0  0  0  0  0
   -0.4340    0.0110    0.1670 C   0  0  0  0  0  0  0  0  0  0  0  0
   -0.2350    0.9540   -0.7620 N   0  0  0  0  0  0  0  0  0  0  0  0
   -1.1380    1.9120   -0.7320 C   0  0  0  0  0  0  0  0  0  0  0  0
   -2.0030    1.5640    0.3110 C   0  0  0  0  0  0  0  0  0  0  0  0
   -3.0990    2.1760    0.7880 N   0  0  0  0  0  0  0  0  0  0  0  0
   -3.7900    1.6570    1.8130 C   0  0  0  0  0  0  0  0  0  0  0  0
   -4.8150    2.2140    2.2720 O   0  0  0  0  0  0  0  0  0  0  0  0
   -3.3400    0.5070    2.3360 N   0  0  0  0  0  0  0  0  0  0  0  0
   -2.2400   -0.1330    1.8760 C   0  0  0  0  0  0  0  0  0  0  0  0
   -1.8640   -1.2130    2.4080 O   0  0  0  0  0  0  0  0  0  0  0  0
   -1.5490    0.3910    0.8480 N   0  0  0  0  0  0  0  0  0  0  0  0
  1  2  2  0
  2  3  1  0
  2  7  1  0
  3  4  1  0
  4  5  1  0
  4  6  1  0
  7  8  1  0
  7 12  2  0
  8  9  1  0
  9 10  1  0
  9 11  2  0
 11 12  1  0
 12 13  1  0
 13 14  2  0
 13 23  1  0
 14 15  1  0
 15 16  2  0
 16 17  1  0
 16 23  1  0
 17 18  1  0
 18 19  2  0
 18 20  1  0
 20 21  1  0
 21 22  2  0
 21 23  1  0
M  END
