
     RDKit          3D

 23 24  0  0  0  0  0  0  0  0999 V2000
    3.2160   -1.7300   -1.9820 N   0  0  0  0  0  0  0  0  0  0  0  0
    3.1300   -0.6960   -1.1880 C   0  0  0  0  0  0  0  0  0  0  0  0
    4.3860   -0.0640   -0.9600 N   0  0  0  0  0  0  0  0  0  0  0  0
    4.5250    1.0510    0.4390 P   0  0  0  0  0  0  0  0  0  0  0  0
    5.4870    2.4330   -0.0400 O   0  0  0  0  0  0  0  0  0  0  0  0
    2.8720    1.6130    0.6130 O   0  0  0  0  0  0  0  0  0  0  0  0
    1.7430    0.8700    0.2760 C   0  0  0  0  0  0  0  0  0  0  0  0
    0.5750    1.0800    0.6680 N   0  0  0  0  0  0  0  0  0  0  0  0
   -0.2770    1.7410    1.3380 O   0  0  0  0  0  0  0  0  0  0  0  0
   -1.5250    2.2960    1.0380 C   0  0  1  0  0  0  0  0  0  0  0  0
   -1.6970    2.6120   -0.3900 C   0  0  0  0  0  0  0  0  0  0  0  0
   -0.8340    2.4200   -1.2840 O   0  0  0  0  0  0  0  0  0  0  0  0
   -2.9010    3.1680   -0.8000 O   0  0  0  0  0  0  0  0  0  0  0  0
   -2.5920    1.3710    1.5740 C   0  0  0  0  0  0  0  0  0  0  0  0
   -3.0330    0.3230    0.6080 C   0  0  0  0  0  0  0  0  0  0  0  0
   -3.0970   -0.9230    1.1730 O   0  0  0  0  0  0  0  0  0  0  0  0
   -1.9380   -1.6490    1.1940 C   0  0  0  0  0  0  0  0  0  0  0  0
   -1.7270   -2.4780   -0.0530 C   0  0  0  0  0  0  0  0  0  0  0  0
   -0.4090   -3.1140   -0.0150 N   0  0  0  0  0  0  0  0  0  0  0  0
    0.7650   -2.2980   -0.1890 C   0  0  0  0  0  0  0  0  0  0  0  0
    1.8050   -2.7390    0.3850 O   0  0  0  0  0  0  0  0  0  0  0  0
    0.7250   -1.0480   -0.9830 C   0  0  0  0  0  0  0  0  0  0  0  0
    1.9280   -0.2610   -0.6170 N   0  0  0  0  0  0  0  0  0  0  0  0
  1  2  2  0
  2  3  1  0
  2 23  1  0
  3  4  1  0
  4  5  1  0
  4  6  1  0
  6  7  1  0
  7  8  2  0
  7 23  1  0
  8  9  1  0
  9 10  1  0
 10 11  1  6
 10 14  1  0
 11 12  2  0
 11 13  1  0
 14 15  1  0
 15 16  1  0
 16 17  1  0
 17 18  1  0
 18 19  1  0
 19 20  1  0
 20 21  2  0
 20 22  1  0
 22 23  1  0
M  END
