
     RDKit          3D

 15 16  0  0  0  0  0  0  0  0999 V2000
    3.5990    0.3440   -0.1180 C   0  0  0  0  0  0  0  0  0  0  0  0
    2.2860    0.4330    0.3540 O   0  0  0  0  0  0  0  0  0  0  0  0
    1.2160   -0.2600   -0.1680 C   0  0  0  0  0  0  0  0  0  0  0  0
    1.4250   -1.0310   -1.1380 O   0  0  0  0  0  0  0  0  0  0  0  0
   -0.1770   -0.1610    0.3380 C   0  0  2  0  0  0  0  0  0  0  0  0
   -0.6480   -1.5250    0.8660 C   0  0  0  0  0  0  0  0  0  0  0  0
   -0.9090   -2.2910   -0.2670 O   0  0  0  0  0  0  0  0  0  0  0  0
   -2.0800   -1.8360   -0.8480 C   0  0  0  0  0  0  0  0  0  0  0  0
   -2.2950   -0.4690   -0.5980 O   0  0  0  0  0  0  0  0  0  0  0  0
   -1.0660    0.1710   -0.8180 C   0  0  1  0  0  0  0  0  0  0  0  0
   -1.1800    1.4950   -1.1050 O   0  0  0  0  0  0  0  0  0  0  0  0
   -1.9630    2.1630   -0.2930 O   0  0  0  0  0  0  0  0  0  0  0  0
   -1.3540    1.9500    1.3100 P   0  0  0  0  0  0  0  0  0  0  0  0
   -0.6160    3.4170    1.9160 O   0  0  0  0  0  0  0  0  0  0  0  0
   -0.2020    0.7100    1.3760 O   0  0  0  0  0  0  0  0  0  0  0  0
  1  2  1  0
  2  3  1  0
  3  4  2  0
  5  3  1  6
  5  6  1  0
  5 10  1  0
  5 15  1  0
  6  7  1  0
  7  8  1  0
  8  9  1  0
 10  9  1  1
 10 11  1  0
 11 12  1  0
 12 13  1  0
 13 14  1  0
 13 15  1  0
M  END
