
     RDKit          3D

 15 15  0  0  0  0  0  0  0  0999 V2000
    0.4200   -2.2140    0.6330 C   0  0  0  0  0  0  0  0  0  0  0  0
    0.1030   -0.8200    0.1070 C   0  0  1  0  0  0  0  0  0  0  0  0
   -1.3600   -0.7710   -0.2210 C   0  0  0  0  0  0  0  0  0  0  0  0
   -1.6700    0.4790   -0.7640 O   0  0  0  0  0  0  0  0  0  0  0  0
   -3.3680    0.5540   -1.1520 P   0  0  0  0  0  0  0  0  0  0  0  0
   -4.0720    2.0390   -0.6300 O   0  0  0  0  0  0  0  0  0  0  0  0
   -4.1750   -0.8150   -0.4550 O   0  0  0  0  0  0  0  0  0  0  0  0
    0.4030    0.2360    1.1490 C   0  0  0  0  0  0  0  0  0  0  0  0
    1.7730    0.4540    1.2810 O   0  0  0  0  0  0  0  0  0  0  0  0
    2.3270    1.0010    0.1250 C   0  0  1  0  0  0  0  0  0  0  0  0
    3.6620    1.2660    0.4030 O   0  0  0  0  0  0  0  0  0  0  0  0
    4.0030    2.5030    0.2380 O   0  0  0  0  0  0  0  0  0  0  0  0
    2.1720   -0.0130   -0.9510 C   0  0  0  0  0  0  0  0  0  0  0  0
    3.1190   -0.2970   -1.7310 O   0  0  0  0  0  0  0  0  0  0  0  0
    0.9170   -0.6210   -1.0360 O   0  0  0  0  0  0  0  0  0  0  0  0
  2  1  1  1
  2  3  1  0
  2  8  1  0
  2 15  1  0
  3  4  1  0
  4  5  1  0
  5  6  1  0
  5  7  1  0
  8  9  1  0
  9 10  1  0
 10 11  1  1
 10 13  1  0
 11 12  1  0
 13 14  2  0
 13 15  1  0
M  END
