
     RDKit          3D

 16 16  0  0  0  0  0  0  0  0999 V2000
    5.2600    0.3530    0.9800 O   0  0  0  0  0  0  0  0  0  0  0  0
    4.3270    1.1910    0.9810 C   0  0  0  0  0  0  0  0  0  0  0  0
    3.0360    0.7610    0.6350 O   0  0  0  0  0  0  0  0  0  0  0  0
    2.8180   -0.5480    0.3070 C   0  0  0  0  0  0  0  0  0  0  0  0
    3.8000   -1.3350    0.3270 O   0  0  0  0  0  0  0  0  0  0  0  0
    1.5070   -1.1220   -0.0740 C   0  0  0  0  0  0  0  0  0  0  0  0
    0.4920   -0.1710   -0.0640 O   0  0  0  0  0  0  0  0  0  0  0  0
   -0.6750   -0.8060   -0.4300 C   0  0  0  0  0  0  0  0  0  0  0  0
   -1.8740    0.0900   -0.4680 C   0  0  1  0  0  0  0  0  0  0  0  0
   -1.7850    1.1360   -1.3370 O   0  0  0  0  0  0  0  0  0  0  0  0
   -3.0700   -0.7670   -0.6910 C   0  0  0  0  0  0  0  0  0  0  0  0
   -3.5180   -1.0530   -1.8280 O   0  0  0  0  0  0  0  0  0  0  0  0
   -3.6220   -1.2060    0.4950 O   0  0  0  0  0  0  0  0  0  0  0  0
   -3.8150   -0.2520    1.3930 O   0  0  0  0  0  0  0  0  0  0  0  0
   -2.3070    0.6530    1.2770 P   0  0  0  0  0  0  0  0  0  0  0  0
   -2.7370    2.3240    1.2980 O   0  0  0  0  0  0  0  0  0  0  0  0
  1  2  2  0
  2  3  1  0
  3  4  1  0
  4  5  2  0
  4  6  1  0
  6  7  1  0
  7  8  1  0
  8  9  1  0
  9 10  1  6
  9 11  1  0
  9 15  1  0
 11 12  2  0
 11 13  1  0
 13 14  1  0
 14 15  1  0
 15 16  1  0
M  END
