
     RDKit          3D

 15 15  0  0  0  0  0  0  0  0999 V2000
    0.2380    0.5970    1.8100 C   0  0  0  0  0  0  0  0  0  0  0  0
    0.5180    0.1560    0.3970 C   0  0  2  0  0  0  0  0  0  0  0  0
    1.8870   -0.4220    0.2470 C   0  0  0  0  0  0  0  0  0  0  0  0
    2.2760   -1.4050    0.8890 O   0  0  0  0  0  0  0  0  0  0  0  0
    2.7530    0.1730   -0.6530 O   0  0  0  0  0  0  0  0  0  0  0  0
    4.0680   -0.2820   -0.8800 C   0  0  0  0  0  0  0  0  0  0  0  0
    4.1030   -1.5990   -1.3400 O   0  0  0  0  0  0  0  0  0  0  0  0
    0.3490    1.2540   -0.4440 O   0  0  0  0  0  0  0  0  0  0  0  0
   -1.0340    1.3880   -0.4950 C   0  0  0  0  0  0  0  0  0  0  0  0
   -1.5480    0.0090   -0.2030 C   0  0  2  0  0  0  0  0  0  0  0  0
   -2.2140   -0.0310    1.0200 O   0  0  0  0  0  0  0  0  0  0  0  0
   -3.8130   -0.6290    0.9090 P   0  0  0  0  0  0  0  0  0  0  0  0
   -4.8770    0.4020    0.0470 O   0  0  0  0  0  0  0  0  0  0  0  0
   -3.8990   -2.2270    0.2480 O   0  0  0  0  0  0  0  0  0  0  0  0
   -0.3990   -0.7980   -0.0400 O   0  0  0  0  0  0  0  0  0  0  0  0
  2  1  1  1
  2  3  1  0
  2  8  1  0
  2 15  1  0
  3  4  2  0
  3  5  1  0
  5  6  1  0
  6  7  1  0
  8  9  1  0
  9 10  1  0
 10 11  1  1
 10 15  1  0
 11 12  1  0
 12 13  1  0
 12 14  1  0
M  END
