
     RDKit          3D

 15 16  0  0  0  0  0  0  0  0999 V2000
   -1.7700   -1.7130    2.0020 O   0  0  0  0  0  0  0  0  0  0  0  0
   -1.8900   -0.6570    1.3620 C   0  0  0  0  0  0  0  0  0  0  0  0
   -3.0430    0.1360    1.5010 O   0  0  0  0  0  0  0  0  0  0  0  0
   -3.3630    1.0990    0.5130 C   0  0  0  0  0  0  0  0  0  0  0  0
   -2.4880    0.7990   -0.6950 C   0  0  0  0  0  0  0  0  0  0  0  0
   -1.1640    0.8910   -0.2930 O   0  0  0  0  0  0  0  0  0  0  0  0
   -0.8380   -0.2170    0.4530 C   0  0  2  0  0  0  0  0  0  0  0  0
   -0.3790   -1.3310   -0.4980 C   0  0  0  0  0  0  0  0  0  0  0  0
    0.8340   -0.7510   -0.9400 O   0  0  0  0  0  0  0  0  0  0  0  0
    1.3620   -0.0760    0.1340 C   0  0  2  0  0  0  0  0  0  0  0  0
    2.4410   -0.8140    0.6140 O   0  0  0  0  0  0  0  0  0  0  0  0
    3.9100    0.0820    0.6230 P   0  0  0  0  0  0  0  0  0  0  0  0
    5.1420   -0.8500   -0.1670 O   0  0  0  0  0  0  0  0  0  0  0  0
    3.6950    1.6020   -0.2040 O   0  0  0  0  0  0  0  0  0  0  0  0
    0.3810    0.0420    1.1010 O   0  0  0  0  0  0  0  0  0  0  0  0
  1  2  2  0
  2  3  1  0
  2  7  1  0
  3  4  1  0
  4  5  1  0
  5  6  1  0
  6  7  1  0
  7  8  1  6
  7 15  1  0
  8  9  1  0
  9 10  1  0
 10 11  1  1
 10 15  1  0
 11 12  1  0
 12 13  1  0
 12 14  1  0
M  END
