
     RDKit          3D

 15 15  0  0  0  0  0  0  0  0999 V2000
    0.7140    0.5920   -3.2350 O   0  0  0  0  0  0  0  0  0  0  0  0
    1.1120    0.6710   -2.0440 C   0  0  0  0  0  0  0  0  0  0  0  0
    2.2420    1.3150   -1.5560 O   0  0  0  0  0  0  0  0  0  0  0  0
    2.5140    0.8190   -0.2610 C   0  0  2  0  0  0  0  0  0  0  0  0
    3.9000    0.3180   -0.2430 C   0  0  0  0  0  0  0  0  0  0  0  0
    4.5950    0.3880   -1.2770 O   0  0  0  0  0  0  0  0  0  0  0  0
    4.4650   -0.2340    0.8930 O   0  0  0  0  0  0  0  0  0  0  0  0
    1.6070   -0.2410   -0.0660 O   0  0  0  0  0  0  0  0  0  0  0  0
    0.4760    0.0890   -0.8110 C   0  0  2  0  0  0  0  0  0  0  0  0
   -0.2130   -1.0630   -1.0870 O   0  0  0  0  0  0  0  0  0  0  0  0
   -1.5100   -1.1130   -0.6450 C   0  0  0  0  0  0  0  0  0  0  0  0
   -1.6260   -0.9730    0.8530 C   0  0  0  0  0  0  0  0  0  0  0  0
   -3.3740   -1.0420    1.4320 P   0  0  0  0  0  0  0  0  0  0  0  0
   -4.3710   -0.1710    0.2800 O   0  0  0  0  0  0  0  0  0  0  0  0
   -3.4830   -0.1850    2.9380 O   0  0  0  0  0  0  0  0  0  0  0  0
  1  2  2  0
  2  3  1  0
  2  9  1  0
  3  4  1  0
  4  5  1  6
  4  8  1  0
  5  6  2  0
  5  7  1  0
  8  9  1  0
  9 10  1  6
 10 11  1  0
 11 12  1  0
 12 13  1  0
 13 14  1  0
 13 15  1  0
M  END
