
     RDKit          3D

 15 15  0  0  0  0  0  0  0  0999 V2000
    0.0750   -2.3550   -1.7150 O   0  0  0  0  0  0  0  0  0  0  0  0
   -0.4980   -1.5130   -1.0270 C   0  0  0  0  0  0  0  0  0  0  0  0
   -1.8950   -1.2470   -1.1110 O   0  0  0  0  0  0  0  0  0  0  0  0
   -2.1680    0.0230   -0.8690 C   0  0  1  0  0  0  0  0  0  0  0  0
   -3.3640    0.1990    0.2070 C   0  0  0  0  0  0  0  0  0  0  0  0
   -3.5200    1.5610    0.0710 O   0  0  0  0  0  0  0  0  0  0  0  0
   -3.2410    2.1670    1.2760 O   0  0  0  0  0  0  0  0  0  0  0  0
   -1.0540    0.5170    0.0870 C   0  0  0  0  0  0  0  0  0  0  0  0
    0.0350   -0.6330   -0.0140 C   0  0  1  0  0  0  0  0  0  0  0  0
    0.0510   -1.2070    1.2960 O   0  0  0  0  0  0  0  0  0  0  0  0
    1.1790    0.0390   -0.2810 O   0  0  0  0  0  0  0  0  0  0  0  0
    2.3250   -0.7370   -0.3120 C   0  0  0  0  0  0  0  0  0  0  0  0
    3.6900    0.4270   -0.7440 P   0  0  0  0  0  0  0  0  0  0  0  0
    5.0640   -0.3860   -1.3550 O   0  0  0  0  0  0  0  0  0  0  0  0
    4.0130    1.4270    0.6080 O   0  0  0  0  0  0  0  0  0  0  0  0
  1  2  2  0
  2  3  1  0
  2  9  1  0
  3  4  1  0
  4  5  1  1
  4  8  1  0
  5  6  1  0
  6  7  1  0
  8  9  1  0
  9 10  1  1
  9 11  1  0
 11 12  1  0
 12 13  1  0
 13 14  1  0
 13 15  1  0
M  END
