
     RDKit          3D

 25 26  0  0  0  0  0  0  0  0999 V2000
    1.6050    4.8870   -0.8170 C   0  0  0  0  0  0  0  0  0  0  0  0
    1.9020    3.4350   -0.9760 C   0  0  0  0  0  0  0  0  0  0  0  0
    3.0980    3.0190   -1.4420 N   0  0  0  0  0  0  0  0  0  0  0  0
    3.4010    1.7140   -1.5480 C   0  0  0  0  0  0  0  0  0  0  0  0
    2.5280    0.7260   -1.2020 C   0  0  0  0  0  0  0  0  0  0  0  0
    2.7830   -0.7610   -1.2420 C   0  0  0  0  0  0  0  0  0  0  0  0
    2.7900   -1.1380    0.0520 O   0  0  0  0  0  0  0  0  0  0  0  0
    3.0080   -2.5630    0.6790 P   0  0  0  0  0  0  0  0  0  0  0  0
    4.5260   -2.5000    0.5600 O   0  0  0  0  0  0  0  0  0  0  0  0
    2.9690   -2.6990    2.3320 O   0  0  0  0  0  0  0  0  0  0  0  0
    3.0160   -4.0360   -0.1740 O   0  0  0  0  0  0  0  0  0  0  0  0
    1.2690    1.1470   -0.7220 C   0  0  0  0  0  0  0  0  0  0  0  0
    0.2720    0.1020   -0.4080 C   0  0  0  0  0  0  0  0  0  0  0  0
   -0.8340    0.5150    0.0260 N   0  0  0  0  0  0  0  0  0  0  0  0
   -2.0100   -0.2110    0.4260 C   0  0  1  0  0  0  0  0  0  0  0  0
   -3.0360   -0.5920   -0.9550 P   0  0  0  0  0  0  0  0  0  0  0  0
   -3.1190    0.5700   -2.1790 O   0  0  0  0  0  0  0  0  0  0  0  0
   -3.6250   -2.0940   -1.1940 O   0  0  0  0  0  0  0  0  0  0  0  0
   -4.3510   -0.0950   -0.4010 O   0  0  0  0  0  0  0  0  0  0  0  0
   -1.6920   -1.4470    1.1490 C   0  0  0  0  0  0  0  0  0  0  0  0
   -2.9750   -1.6770    1.9650 C   0  0  0  0  0  0  0  0  0  0  0  0
   -3.1790   -0.3200    2.5420 C   0  0  0  0  0  0  0  0  0  0  0  0
   -2.6360    0.6470    1.5160 C   0  0  0  0  0  0  0  0  0  0  0  0
    0.9800    2.5110   -0.6140 C   0  0  0  0  0  0  0  0  0  0  0  0
   -0.2810    2.8210   -0.1270 O   0  0  0  0  0  0  0  0  0  0  0  0
  1  2  1  0
  2  3  2  0
  2 24  1  0
  3  4  1  0
  4  5  2  0
  5  6  1  0
  5 12  1  0
  6  7  1  0
  7  8  1  0
  8  9  1  0
  8 10  1  0
  8 11  1  0
 12 13  1  0
 12 24  2  0
 13 14  2  3
 14 15  1  0
 15 16  1  6
 15 20  1  0
 15 23  1  0
 16 17  1  0
 16 18  1  0
 16 19  1  0
 20 21  1  0
 21 22  1  0
 22 23  1  0
 24 25  1  0
M  END
