
     RDKit          3D

 16 16  0  0  0  0  0  0  0  0999 V2000
   -2.9710   -1.0090   -0.9210 O   0  0  0  0  0  0  0  0  0  0  0  0
   -2.5610   -0.2670   -1.8460 C   0  0  0  0  0  0  0  0  0  0  0  0
   -2.8590   -0.6120   -3.1770 O   0  0  0  0  0  0  0  0  0  0  0  0
   -1.8370    0.8570   -1.5350 O   0  0  0  0  0  0  0  0  0  0  0  0
   -1.4830    1.2880   -0.2760 C   0  0  0  0  0  0  0  0  0  0  0  0
   -0.5810    0.3840    0.5200 C   0  0  1  0  0  0  0  0  0  0  0  0
    0.7400    0.3090   -0.2130 C   0  0  0  0  0  0  0  0  0  0  0  0
    1.6950   -0.3970    0.4880 O   0  0  0  0  0  0  0  0  0  0  0  0
    3.1480   -0.3970   -0.4710 P   0  0  0  0  0  0  0  0  0  0  0  0
    4.3880   -1.3620    0.2110 O   0  0  0  0  0  0  0  0  0  0  0  0
    2.7370   -0.8750   -2.0790 O   0  0  0  0  0  0  0  0  0  0  0  0
   -0.3420    1.0240    1.7400 O   0  0  0  0  0  0  0  0  0  0  0  0
   -0.1420    0.0320    2.6790 C   0  0  0  0  0  0  0  0  0  0  0  0
   -1.0560   -1.0410    2.1850 C   0  0  0  0  0  0  0  0  0  0  0  0
   -1.6140   -1.8910    2.9150 O   0  0  0  0  0  0  0  0  0  0  0  0
   -1.1180   -0.8600    0.8120 O   0  0  0  0  0  0  0  0  0  0  0  0
  1  2  2  0
  2  3  1  0
  2  4  1  0
  4  5  1  0
  6  5  1  6
  6  7  1  0
  6 12  1  0
  6 16  1  0
  7  8  1  0
  8  9  1  0
  9 10  1  0
  9 11  1  0
 12 13  1  0
 13 14  1  0
 14 15  2  0
 14 16  1  0
M  END
