
     RDKit          3D

 24 24  0  0  0  0  0  0  0  0999 V2000
    3.7700   -1.9570   -1.1410 C   0  0  0  0  0  0  0  0  0  0  0  0
    2.7620   -0.8630   -0.9770 C   0  0  0  0  0  0  0  0  0  0  0  0
    2.5170   -0.5000    0.4700 C   0  0  2  0  0  0  0  0  0  0  0  0
    2.0070   -1.7560    1.1570 C   0  0  0  0  0  0  0  0  0  0  0  0
    1.3700    0.4210    0.4700 N   0  0  0  0  0  0  0  0  0  0  0  0
    0.2300    0.1530    0.0180 C   0  0  0  0  0  0  0  0  0  0  0  0
   -0.8940    1.0810    0.0280 C   0  0  0  0  0  0  0  0  0  0  0  0
   -2.1000    0.6150   -0.5170 C   0  0  0  0  0  0  0  0  0  0  0  0
   -2.1500   -0.7450   -1.0820 C   0  0  0  0  0  0  0  0  0  0  0  0
   -3.3080   -1.2090   -1.5480 O   0  0  0  0  0  0  0  0  0  0  0  0
   -4.6360   -1.5000   -0.7830 P   0  0  0  0  0  0  0  0  0  0  0  0
   -5.2020   -2.5710   -1.7500 O   0  0  0  0  0  0  0  0  0  0  0  0
   -6.0390   -0.6250   -0.9750 O   0  0  0  0  0  0  0  0  0  0  0  0
   -4.7140   -2.7320    0.4380 O   0  0  0  0  0  0  0  0  0  0  0  0
   -3.1620    1.4820   -0.5170 C   0  0  0  0  0  0  0  0  0  0  0  0
   -3.0530    2.7440   -0.0070 N   0  0  0  0  0  0  0  0  0  0  0  0
   -1.9100    3.1650    0.5030 C   0  0  0  0  0  0  0  0  0  0  0  0
   -1.7840    4.5560    1.0670 C   0  0  0  0  0  0  0  0  0  0  0  0
   -0.7600    2.3510    0.5480 C   0  0  0  0  0  0  0  0  0  0  0  0
    0.3740    2.8830    1.0970 O   0  0  0  0  0  0  0  0  0  0  0  0
    3.8350    0.1550    1.3780 P   0  0  0  0  0  0  0  0  0  0  0  0
    4.7140   -0.8130    2.4300 O   0  0  0  0  0  0  0  0  0  0  0  0
    4.0870    1.8030    1.4240 O   0  0  0  0  0  0  0  0  0  0  0  0
    4.9680    0.0140    0.3650 O   0  0  0  0  0  0  0  0  0  0  0  0
  1  2  1  0
  2  3  1  0
  3  4  1  1
  3  5  1  0
  3 21  1  0
  5  6  2  3
  6  7  1  0
  7  8  2  0
  7 19  1  0
  8  9  1  0
  8 15  1  0
  9 10  1  0
 10 11  1  0
 11 12  1  0
 11 13  1  0
 11 14  1  0
 15 16  2  0
 16 17  1  0
 17 18  1  0
 17 19  2  0
 19 20  1  0
 21 22  1  0
 21 23  1  0
 21 24  1  0
M  END
