
     RDKit          3D

 26 27  0  0  0  0  0  0  0  0999 V2000
   -3.5000   -3.6740    0.0580 C   0  0  0  0  0  0  0  0  0  0  0  0
   -3.1920   -2.3000   -0.0520 O   0  0  0  0  0  0  0  0  0  0  0  0
   -2.0270   -1.7600    0.5530 C   0  0  0  0  0  0  0  0  0  0  0  0
   -1.1410   -2.5990    0.8460 N   0  0  0  0  0  0  0  0  0  0  0  0
    0.1460   -2.4150    1.4590 C   0  0  0  0  0  0  0  0  0  0  0  0
    0.3440   -0.7010    2.1350 P   0  0  0  0  0  0  0  0  0  0  0  0
    1.9470   -0.1410    2.1220 O   0  0  0  0  0  0  0  0  0  0  0  0
    2.5930   -0.2360    0.9160 C   0  0  0  0  0  0  0  0  0  0  0  0
    3.9410    0.2850    1.0950 N   0  0  0  0  0  0  0  0  0  0  0  0
    4.8180    0.2990   -0.0080 C   0  0  0  0  0  0  0  0  0  0  0  0
    4.4910   -0.1190   -1.1470 O   0  0  0  0  0  0  0  0  0  0  0  0
    6.0980    0.7940    0.1650 O   0  0  0  0  0  0  0  0  0  0  0  0
    7.0390    0.8570   -0.8410 C   0  0  0  0  0  0  0  0  0  0  0  0
    6.7270    0.4430   -1.9810 O   0  0  0  0  0  0  0  0  0  0  0  0
   -0.7930    0.3290    1.1220 C   0  0  0  0  0  0  0  0  0  0  0  0
   -0.8020    1.4940    0.6370 N   0  0  0  0  0  0  0  0  0  0  0  0
   -2.0480    1.6980   -0.0920 C   0  0  1  0  0  0  0  0  0  0  0  0
   -2.9720    2.3170    0.7250 O   0  0  0  0  0  0  0  0  0  0  0  0
   -1.7380    2.4440   -1.2540 O   0  0  0  0  0  0  0  0  0  0  0  0
   -1.1770    3.6900   -1.2410 C   0  0  0  0  0  0  0  0  0  0  0  0
   -0.9090    4.2330   -0.1410 O   0  0  0  0  0  0  0  0  0  0  0  0
   -0.8810    4.4030   -2.3950 O   0  0  0  0  0  0  0  0  0  0  0  0
   -2.3950    0.3880   -0.4220 O   0  0  0  0  0  0  0  0  0  0  0  0
   -2.0620   -0.3130    0.7320 C   0  0  1  0  0  0  0  0  0  0  0  0
   -2.9940   -0.0260    1.7290 O   0  0  0  0  0  0  0  0  0  0  0  0
   -4.1880   -0.4990    1.3060 N   0  0  0  0  0  0  0  0  0  0  0  0
  1  2  1  0
  2  3  1  0
  3  4  2  0
  3 24  1  0
  4  5  1  0
  5  6  1  0
  6  7  1  0
  6 15  1  0
  7  8  1  0
  8  9  1  0
  9 10  1  0
 10 11  2  0
 10 12  1  0
 12 13  1  0
 13 14  2  0
 15 16  2  0
 15 24  1  0
 16 17  1  0
 17 18  1  1
 17 19  1  0
 17 23  1  0
 19 20  1  0
 20 21  2  0
 20 22  1  0
 23 24  1  0
 24 25  1  1
 25 26  1  0
M  END
