
     RDKit          3D

 28 30  0  0  0  0  0  0  0  0999 V2000
   -0.0240   -3.1600   -1.4300 C   0  0  0  0  0  0  0  0  0  0  0  0
   -0.2190   -1.8240   -1.0670 O   0  0  0  0  0  0  0  0  0  0  0  0
    0.2460   -1.2310    0.1030 C   0  0  0  0  0  0  0  0  0  0  0  0
    1.4050   -0.6040   -0.0090 C   0  0  0  0  0  0  0  0  0  0  0  0
    2.1020   -0.5530   -1.2610 N   0  0  0  0  0  0  0  0  0  0  0  0
    3.5260    0.5750   -1.3710 P   0  0  0  0  0  0  0  0  0  0  0  0
    3.0280    2.2590   -1.7920 C   0  0  0  0  0  0  0  0  0  0  0  0
    3.8180    3.2020   -1.4910 O   0  0  0  0  0  0  0  0  0  0  0  0
    1.8400    2.5960   -2.4230 O   0  0  0  0  0  0  0  0  0  0  0  0
    4.1510    0.6060    0.4140 C   0  0  0  0  0  0  0  0  0  0  0  0
    3.3790   -0.2740    1.1740 O   0  0  0  0  0  0  0  0  0  0  0  0
    2.0320    0.0430    1.1660 C   0  0  1  0  0  0  0  0  0  0  0  0
    1.7550    1.8720    1.0040 P   0  0  0  0  0  0  0  0  0  0  0  0
    2.4980    2.8050    1.9830 O   0  0  0  0  0  0  0  0  0  0  0  0
    1.4150   -0.3780    2.3530 O   0  0  0  0  0  0  0  0  0  0  0  0
    0.1450   -0.4240    2.2900 O   0  0  0  0  0  0  0  0  0  0  0  0
   -0.4360   -1.2570    1.3840 C   0  0  1  0  0  0  0  0  0  0  0  0
   -1.9200   -1.2420    1.3930 C   0  0  2  0  0  0  0  0  0  0  0  0
   -2.3660   -2.2310    0.4920 O   0  0  0  0  0  0  0  0  0  0  0  0
   -2.5580    0.0020    1.1950 N   0  0  0  0  0  0  0  0  0  0  0  0
   -2.6780    0.9480    0.1580 C   0  0  0  0  0  0  0  0  0  0  0  0
   -2.3420    0.5950   -1.2740 C   0  0  0  0  0  0  0  0  0  0  0  0
   -2.8420    1.5580   -2.1550 O   0  0  0  0  0  0  0  0  0  0  0  0
   -2.5530    1.2510   -3.3780 O   0  0  0  0  0  0  0  0  0  0  0  0
   -3.0670    2.0960    0.4600 N   0  0  0  0  0  0  0  0  0  0  0  0
   -3.3590    2.4070    1.7390 O   0  0  0  0  0  0  0  0  0  0  0  0
   -3.5720    0.8320    2.5070 P   0  0  0  0  0  0  0  0  0  0  0  0
   -2.7340    0.7590    4.0090 O   0  0  0  0  0  0  0  0  0  0  0  0
  1  2  1  0
  2  3  1  0
  3  4  2  0
  3 17  1  0
  4  5  1  0
  4 12  1  0
  5  6  1  0
  6  7  1  0
  6 10  1  0
  7  8  2  0
  7  9  1  0
 10 11  1  0
 11 12  1  0
 12 13  1  6
 12 15  1  0
 13 14  2  0
 15 16  1  0
 17 16  1  1
 17 18  1  0
 18 19  1  6
 18 20  1  0
 20 21  1  0
 20 27  1  0
 21 22  1  0
 21 25  2  0
 22 23  1  0
 23 24  1  0
 25 26  1  0
 26 27  1  0
 27 28  1  0
M  END
