
     RDKit          3D

 28 29  0  0  0  0  0  0  0  0999 V2000
    4.8970    2.4150   -0.4610 C   0  0  0  0  0  0  0  0  0  0  0  0
    5.3730    0.6640    0.0250 P   0  0  0  0  0  0  0  0  0  0  0  0
    6.8120    0.2290   -0.8130 O   0  0  0  0  0  0  0  0  0  0  0  0
    3.6810   -0.6170   -0.4490 P   0  0  0  0  0  0  0  0  0  0  0  0
    3.8830   -2.3250    0.0700 C   0  0  0  0  0  0  0  0  0  0  0  0
    3.3410   -3.2380   -0.6420 O   0  0  0  0  0  0  0  0  0  0  0  0
    4.5790   -2.7560    1.1800 O   0  0  0  0  0  0  0  0  0  0  0  0
    2.1800    0.1410    0.0910 N   0  0  0  0  0  0  0  0  0  0  0  0
    1.8320   -0.1080    1.4500 C   0  0  0  0  0  0  0  0  0  0  0  0
    0.3450   -0.1530    1.6300 C   0  0  1  0  0  0  0  0  0  0  0  0
   -0.3850    0.6460    0.6910 N   0  0  0  0  0  0  0  0  0  0  0  0
    0.1780    0.7050   -0.6160 C   0  0  1  0  0  0  0  0  0  0  0  0
    1.1650   -0.3040   -0.6910 O   0  0  0  0  0  0  0  0  0  0  0  0
   -1.0100    0.4150   -1.9800 P   0  0  0  0  0  0  0  0  0  0  0  0
   -0.1710    0.5700   -3.4910 O   0  0  0  0  0  0  0  0  0  0  0  0
   -0.8470    0.0120   -4.4750 O   0  0  0  0  0  0  0  0  0  0  0  0
   -2.3130    1.5910   -1.9560 O   0  0  0  0  0  0  0  0  0  0  0  0
   -3.6310    1.2290   -1.7370 C   0  0  0  0  0  0  0  0  0  0  0  0
   -4.5340    2.0570   -2.0040 O   0  0  0  0  0  0  0  0  0  0  0  0
   -3.9820   -0.0880   -1.2050 C   0  0  2  0  0  0  0  0  0  0  0  0
   -5.4070   -0.2110   -1.0160 N   0  0  0  0  0  0  0  0  0  0  0  0
   -3.2640   -0.4060   -0.0390 O   0  0  0  0  0  0  0  0  0  0  0  0
   -3.9550   -0.0620    1.1030 C   0  0  0  0  0  0  0  0  0  0  0  0
   -3.0530    0.4570    2.1750 C   0  0  0  0  0  0  0  0  0  0  0  0
   -3.3920    1.4910    2.8230 O   0  0  0  0  0  0  0  0  0  0  0  0
   -1.8530   -0.1330    2.5040 O   0  0  0  0  0  0  0  0  0  0  0  0
   -1.4620   -1.4310    2.1560 C   0  0  0  0  0  0  0  0  0  0  0  0
   -0.1660   -1.4490    1.6040 O   0  0  0  0  0  0  0  0  0  0  0  0
  1  2  1  0
  2  3  1  0
  2  4  1  0
  4  5  1  0
  4  8  1  0
  5  6  2  0
  5  7  1  0
  8  9  1  0
  8 13  1  0
 10  9  1  6
 10 11  1  0
 10 28  1  0
 11 12  1  0
 12 13  1  1
 12 14  1  0
 14 15  1  0
 14 17  1  0
 15 16  1  0
 17 18  1  0
 18 19  2  0
 18 20  1  0
 20 21  1  1
 20 22  1  0
 22 23  1  0
 23 24  1  0
 24 25  2  0
 24 26  1  0
 26 27  1  0
 27 28  1  0
M  END
