
     RDKit          3D

 28 30  0  0  0  0  0  0  0  0999 V2000
   -5.9800   -1.1300   -1.6220 N   0  0  0  0  0  0  0  0  0  0  0  0
   -4.9800   -0.0760   -1.6100 C   0  0  0  0  0  0  0  0  0  0  0  0
   -4.4390   -0.0240   -0.3500 O   0  0  0  0  0  0  0  0  0  0  0  0
   -3.4920    0.9110   -0.1870 N   0  0  0  0  0  0  0  0  0  0  0  0
   -3.9770    2.1480   -0.2360 O   0  0  0  0  0  0  0  0  0  0  0  0
   -4.7950    2.4800    0.8400 C   0  0  1  0  0  0  0  0  0  0  0  0
   -4.2560    3.7160    1.4060 N   0  0  0  0  0  0  0  0  0  0  0  0
   -6.0820    2.7880    0.3970 O   0  0  0  0  0  0  0  0  0  0  0  0
   -4.7710    1.1560    2.1770 P   0  0  0  0  0  0  0  0  0  0  0  0
   -3.4070    0.1830    2.0400 C   0  0  0  0  0  0  0  0  0  0  0  0
   -2.5790    0.6500    0.8750 C   0  0  1  0  0  0  0  0  0  0  0  0
   -1.5210   -0.3020    0.5220 C   0  0  0  0  0  0  0  0  0  0  0  0
   -1.5000   -0.7920   -0.6370 O   0  0  0  0  0  0  0  0  0  0  0  0
   -0.5520   -0.6800    1.4030 O   0  0  0  0  0  0  0  0  0  0  0  0
    0.4550   -1.5570    1.1360 O   0  0  0  0  0  0  0  0  0  0  0  0
    1.7330   -1.1090    0.8230 C   0  0  0  0  0  0  0  0  0  0  0  0
    1.8740    0.1420    0.8070 O   0  0  0  0  0  0  0  0  0  0  0  0
    2.8670   -1.9800    0.5230 C   0  0  0  0  0  0  0  0  0  0  0  0
    4.0770   -1.1210    0.2330 C   0  0  1  0  0  0  0  0  0  0  0  0
    5.5750   -2.1350   -0.1590 P   0  0  0  0  0  0  0  0  0  0  0  0
    6.7820   -1.9390    1.0720 O   0  0  0  0  0  0  0  0  0  0  0  0
    6.2350   -2.2750    2.2210 O   0  0  0  0  0  0  0  0  0  0  0  0
    6.2660   -1.6210   -1.6610 O   0  0  0  0  0  0  0  0  0  0  0  0
    6.3850   -0.2330   -1.7260 C   0  0  0  0  0  0  0  0  0  0  0  0
    5.1150    0.3560   -2.2550 C   0  0  1  0  0  0  0  0  0  0  0  0
    4.3460   -0.4570   -3.0600 O   0  0  0  0  0  0  0  0  0  0  0  0
    3.1180   -0.5310   -2.5610 O   0  0  0  0  0  0  0  0  0  0  0  0
    3.7190    0.1200   -1.0870 P   0  0  0  0  0  0  0  0  0  0  0  0
  1  2  1  0
  2  3  1  0
  3  4  1  0
  4  5  1  0
  4 11  1  0
  5  6  1  0
  6  7  1  1
  6  8  1  0
  6  9  1  0
  9 10  2  0
 10 11  1  0
 11 12  1  6
 12 13  2  0
 12 14  1  0
 14 15  1  0
 15 16  1  0
 16 17  2  0
 16 18  1  0
 19 18  1  6
 19 20  1  0
 19 28  1  0
 20 21  1  0
 20 23  1  0
 21 22  1  0
 23 24  1  0
 25 24  1  1
 25 26  1  0
 25 28  1  0
 26 27  1  0
 27 28  1  0
M  END
