
     RDKit          3D

 27 28  0  0  0  0  0  0  0  0999 V2000
   -4.7420    0.6310   -0.3870 C   0  0  0  0  0  0  0  0  0  0  0  0
   -4.4180    0.1400    1.0030 C   0  0  2  0  0  0  0  0  0  0  0  0
   -4.2610    1.1620    1.9350 O   0  0  0  0  0  0  0  0  0  0  0  0
   -3.2410   -0.7390    1.0270 C   0  0  0  0  0  0  0  0  0  0  0  0
   -1.9950   -0.3870    0.7940 C   0  0  0  0  0  0  0  0  0  0  0  0
   -0.9640   -1.3410    0.8530 O   0  0  0  0  0  0  0  0  0  0  0  0
    0.3210   -1.1560    0.5340 N   0  0  0  0  0  0  0  0  0  0  0  0
    1.4420   -1.1740    1.9080 P   0  0  0  0  0  0  0  0  0  0  0  0
    0.9340   -0.1920    3.2230 O   0  0  0  0  0  0  0  0  0  0  0  0
    2.9650   -0.5460    1.2980 O   0  0  0  0  0  0  0  0  0  0  0  0
    2.8170   -0.4890   -0.0820 C   0  0  2  0  0  0  0  0  0  0  0  0
    4.0850   -0.0590   -0.6940 C   0  0  0  0  0  0  0  0  0  0  0  0
    4.2240    0.0260   -1.9570 O   0  0  0  0  0  0  0  0  0  0  0  0
    5.2410    0.2890    0.1050 C   0  0  0  0  0  0  0  0  0  0  0  0
    6.4470    0.6910   -0.4850 O   0  0  0  0  0  0  0  0  0  0  0  0
    5.1880    0.2270    1.7620 P   0  0  0  0  0  0  0  0  0  0  0  0
    6.5630    0.6410    2.7140 O   0  0  0  0  0  0  0  0  0  0  0  0
    1.8320    0.3950   -0.4730 O   0  0  0  0  0  0  0  0  0  0  0  0
    0.5490   -0.0090   -0.2720 C   0  0  1  0  0  0  0  0  0  0  0  0
   -0.0080   -0.2870   -1.6090 N   0  0  0  0  0  0  0  0  0  0  0  0
   -0.2770   -1.6220   -2.0040 C   0  0  0  0  0  0  0  0  0  0  0  0
   -0.0600   -2.6140   -1.2580 O   0  0  0  0  0  0  0  0  0  0  0  0
   -0.1830    1.1650    0.2430 N   0  0  0  0  0  0  0  0  0  0  0  0
   -1.5800    0.9640    0.4670 C   0  0  0  0  0  0  0  0  0  0  0  0
   -2.3860    1.9210    0.3800 O   0  0  0  0  0  0  0  0  0  0  0  0
   -5.9330   -0.8150    1.5960 P   0  0  0  0  0  0  0  0  0  0  0  0
   -7.0370   -1.2770    0.6100 O   0  0  0  0  0  0  0  0  0  0  0  0
  2  1  1  6
  2  3  1  0
  2  4  1  0
  2 26  1  0
  4  5  2  3
  5  6  1  0
  5 24  1  0
  6  7  1  0
  7  8  1  0
  7 19  1  0
  8  9  1  0
  8 10  1  0
 10 11  1  0
 11 12  1  6
 11 18  1  0
 12 13  2  0
 12 14  1  0
 14 15  1  0
 14 16  2  3
 16 17  1  0
 18 19  1  0
 19 20  1  6
 19 23  1  0
 20 21  1  0
 21 22  2  0
 23 24  1  0
 24 25  2  0
 26 27  2  0
M  END
