
     RDKit          3D

 28 29  0  0  0  0  0  0  0  0999 V2000
   -4.2300   -0.4260    0.5060 C   0  0  0  0  0  0  0  0  0  0  0  0
   -3.1780   -0.7550   -0.5250 C   0  0  1  0  0  0  0  0  0  0  0  0
   -3.8360   -0.9600   -1.7310 O   0  0  0  0  0  0  0  0  0  0  0  0
   -4.5110    0.0650   -2.1490 O   0  0  0  0  0  0  0  0  0  0  0  0
   -4.3630    1.1050   -1.3700 O   0  0  0  0  0  0  0  0  0  0  0  0
   -2.1720    0.3330   -0.7280 C   0  0  0  0  0  0  0  0  0  0  0  0
   -0.7560   -0.1070   -0.2890 C   0  0  1  0  0  0  0  0  0  0  0  0
   -0.9460   -0.6720    1.0840 C   0  0  0  0  0  0  0  0  0  0  0  0
   -1.8200   -1.8980    0.9680 C   0  0  0  0  0  0  0  0  0  0  0  0
   -2.5190   -1.9490   -0.2310 O   0  0  0  0  0  0  0  0  0  0  0  0
   -0.3230   -0.9660   -1.2670 O   0  0  0  0  0  0  0  0  0  0  0  0
    0.8310   -1.5360   -1.6260 C   0  0  0  0  0  0  0  0  0  0  0  0
    1.3820   -1.2830   -2.7260 O   0  0  0  0  0  0  0  0  0  0  0  0
    1.5220   -2.4980   -0.7460 C   0  0  0  0  0  0  0  0  0  0  0  0
    2.2670   -1.9220    0.3680 C   0  0  0  0  0  0  0  0  0  0  0  0
    2.1240   -2.5610    1.6560 N   0  0  0  0  0  0  0  0  0  0  0  0
    3.0260   -0.9190    0.3110 N   0  0  0  0  0  0  0  0  0  0  0  0
    3.4310    0.0940   -1.0810 P   0  0  0  0  0  0  0  0  0  0  0  0
    4.6760    1.3310   -0.5210 C   0  0  0  0  0  0  0  0  0  0  0  0
    5.8850    1.2190   -0.8690 O   0  0  0  0  0  0  0  0  0  0  0  0
    4.3430    2.4080    0.2860 O   0  0  0  0  0  0  0  0  0  0  0  0
    2.6780    2.7670    0.5790 P   0  0  0  0  0  0  0  0  0  0  0  0
    2.4180    4.0470    1.6780 O   0  0  0  0  0  0  0  0  0  0  0  0
    2.2460    5.1620    0.9600 O   0  0  0  0  0  0  0  0  0  0  0  0
    1.6490    1.3570    0.8460 N   0  0  0  0  0  0  0  0  0  0  0  0
    1.2750    1.1800    2.1250 O   0  0  0  0  0  0  0  0  0  0  0  0
    0.2060    1.4780   -0.1730 P   0  0  0  0  0  0  0  0  0  0  0  0
    0.5630    2.0290   -1.7770 O   0  0  0  0  0  0  0  0  0  0  0  0
  2  1  1  1
  2  3  1  0
  2  6  1  0
  2 10  1  0
  3  4  1  0
  4  5  1  0
  7  6  1  6
  7  8  1  0
  7 11  1  0
  7 27  1  0
  8  9  1  0
  9 10  1  0
 11 12  1  0
 12 13  2  0
 12 14  1  0
 14 15  1  0
 15 16  1  0
 15 17  2  0
 17 18  1  0
 18 19  1  0
 19 20  2  0
 19 21  1  0
 21 22  1  0
 22 23  1  0
 22 25  1  0
 23 24  1  0
 25 26  1  0
 25 27  1  0
 27 28  1  0
M  END
