
     RDKit          3D

 28 28  0  0  0  0  0  0  0  0999 V2000
   -5.0880   -1.6370   -2.3300 C   0  0  0  0  0  0  0  0  0  0  0  0
   -4.9850   -0.4260   -1.8190 C   0  0  0  0  0  0  0  0  0  0  0  0
   -4.3310   -0.2480   -0.4960 C   0  0  2  0  0  0  0  0  0  0  0  0
   -5.2920   -0.6980    0.5930 C   0  0  0  0  0  0  0  0  0  0  0  0
   -4.0320    1.2160   -0.2480 C   0  0  0  0  0  0  0  0  0  0  0  0
   -3.1210    1.7990   -1.2780 C   0  0  0  0  0  0  0  0  0  0  0  0
   -2.8210   -1.2890   -0.4460 P   0  0  0  0  0  0  0  0  0  0  0  0
   -1.8160   -1.0080    1.0860 C   0  0  1  0  0  0  0  0  0  0  0  0
   -2.3140   -1.8770    2.0670 O   0  0  0  0  0  0  0  0  0  0  0  0
   -0.5190   -1.3670    0.8310 O   0  0  0  0  0  0  0  0  0  0  0  0
    0.6300   -0.1280    1.1170 P   0  0  0  0  0  0  0  0  0  0  0  0
    2.1260   -0.3590    0.2850 O   0  0  0  0  0  0  0  0  0  0  0  0
    3.3290   -0.0060    0.8250 C   0  0  0  0  0  0  0  0  0  0  0  0
    3.3640    0.7550    2.4870 P   0  0  0  0  0  0  0  0  0  0  0  0
    2.9780    2.2590    2.5930 O   0  0  0  0  0  0  0  0  0  0  0  0
    4.4640   -0.2010    0.1790 C   0  0  0  0  0  0  0  0  0  0  0  0
    4.5030   -0.8050   -1.1530 C   0  0  0  0  0  0  0  0  0  0  0  0
    5.6490   -0.9940   -1.7870 C   0  0  0  0  0  0  0  0  0  0  0  0
    5.6400   -1.5650   -3.0370 F   0  0  0  0  0  0  0  0  0  0  0  0
    6.9460   -0.6250   -1.2300 C   0  0  2  0  0  0  0  0  0  0  0  0
    7.8250   -1.7220   -1.1940 O   0  0  0  0  0  0  0  0  0  0  0  0
    6.9030   -0.0180    0.1080 C   0  0  0  0  0  0  0  0  0  0  0  0
    8.0730    0.3640    0.7180 F   0  0  0  0  0  0  0  0  0  0  0  0
    5.7600    0.1660    0.7310 C   0  0  0  0  0  0  0  0  0  0  0  0
   -0.0310    1.5380    1.0260 C   0  0  0  0  0  0  0  0  0  0  0  0
   -0.0390    2.1320   -0.0910 O   0  0  0  0  0  0  0  0  0  0  0  0
   -0.5690    2.2780    2.1590 C   0  0  0  0  0  0  0  0  0  0  0  0
   -0.5720    1.7100    3.2780 O   0  0  0  0  0  0  0  0  0  0  0  0
  1  2  2  0
  2  3  1  0
  3  4  1  1
  3  5  1  0
  3  7  1  0
  5  6  1  0
  7  8  1  0
  8  9  1  1
  8 10  1  0
 10 11  1  0
 11 12  1  0
 11 25  1  0
 12 13  1  0
 13 14  1  0
 13 16  2  3
 14 15  2  0
 16 17  1  0
 16 24  1  0
 17 18  2  0
 18 19  1  0
 18 20  1  0
 20 21  1  1
 20 22  1  0
 22 23  1  0
 22 24  2  0
 25 26  2  0
 25 27  1  0
 27 28  2  0
M  END
