
     RDKit          3D

  8  7  0  0  0  0  0  0  0  0999 V2000
    2.1060    1.2880   -0.4220 O   0  0  0  0  0  0  0  0  0  0  0  0
    2.2350    0.1080    0.0020 C   0  0  0  0  0  0  0  0  0  0  0  0
    3.5170   -0.4080    0.1640 O   0  0  0  0  0  0  0  0  0  0  0  0
    1.0880   -0.6040    0.2820 O   0  0  0  0  0  0  0  0  0  0  0  0
   -0.1940   -0.0890    0.1200 C   0  0  0  0  0  0  0  0  0  0  0  0
   -0.2600    1.1010   -0.3090 O   0  0  0  0  0  0  0  0  0  0  0  0
   -1.4140   -0.8820    0.4300 C   0  0  0  0  0  0  0  0  0  0  0  0
   -2.8970    0.1950    0.0700 P   0  0  0  0  0  0  0  0  0  0  0  0
  1  2  2  0
  2  3  1  0
  2  4  1  0
  4  5  1  0
  5  6  2  0
  5  7  1  0
  7  8  1  0
M  END
