
     RDKit          3D

  9  9  0  0  0  0  0  0  0  0999 V2000
    2.9120   -0.0040   -0.5820 C   0  0  0  0  0  0  0  0  0  0  0  0
    1.4700   -0.1680   -0.1980 C   0  0  0  0  0  0  0  0  0  0  0  0
    1.0690    0.8330    0.6970 O   0  0  0  0  0  0  0  0  0  0  0  0
   -0.6600    0.9720    0.5040 P   0  0  0  0  0  0  0  0  0  0  0  0
   -1.4010   -0.5210    1.0340 O   0  0  0  0  0  0  0  0  0  0  0  0
   -2.7590   -0.3900    0.7060 C   0  0  0  0  0  0  0  0  0  0  0  0
   -2.9110    0.4620   -0.3730 O   0  0  0  0  0  0  0  0  0  0  0  0
   -2.0510    0.2120   -1.3510 O   0  0  0  0  0  0  0  0  0  0  0  0
   -1.0810    1.1040   -1.1870 O   0  0  0  0  0  0  0  0  0  0  0  0
  1  2  1  0
  2  3  1  0
  3  4  1  0
  4  5  1  0
  4  9  1  0
  5  6  1  0
  6  7  1  0
  7  8  1  0
  8  9  1  0
M  END
