
     RDKit          3D

  9  8  0  0  0  0  0  0  0  0999 V2000
   -3.3740    1.0300   -0.5310 O   0  0  0  0  0  0  0  0  0  0  0  0
   -2.7660    0.5200    0.6050 C   0  0  0  0  0  0  0  0  0  0  0  0
   -1.5480   -0.3110    0.2820 C   0  0  0  0  0  0  0  0  0  0  0  0
   -0.5670    0.3890   -0.3860 O   0  0  0  0  0  0  0  0  0  0  0  0
    0.7480   -0.7100   -0.6740 P   0  0  0  0  0  0  0  0  0  0  0  0
    0.2070   -2.3490   -0.4890 O   0  0  0  0  0  0  0  0  0  0  0  0
    1.9830   -0.3650    0.4940 O   0  0  0  0  0  0  0  0  0  0  0  0
    3.0070    0.3120   -0.2020 C   0  0  0  0  0  0  0  0  0  0  0  0
    4.0590    0.6460    0.6180 O   0  0  0  0  0  0  0  0  0  0  0  0
  1  2  1  0
  2  3  1  0
  3  4  1  0
  4  5  1  0
  5  6  1  0
  5  7  1  0
  7  8  1  0
  8  9  1  0
M  END
