
     RDKit          3D

  9  8  0  0  0  0  0  0  0  0999 V2000
    2.3740    0.4820   -1.8710 O   0  0  0  0  0  0  0  0  0  0  0  0
    2.5670    0.2790   -0.6480 C   0  0  0  0  0  0  0  0  0  0  0  0
    3.8260    0.0810   -0.1000 O   0  0  0  0  0  0  0  0  0  0  0  0
    1.4560    0.2570    0.1740 O   0  0  0  0  0  0  0  0  0  0  0  0
    0.1780    0.4610   -0.3940 C   0  0  0  0  0  0  0  0  0  0  0  0
   -0.8230    0.3780    0.7620 C   0  0  1  0  0  0  0  0  0  0  0  0
   -0.5310    1.3620    1.6980 O   0  0  0  0  0  0  0  0  0  0  0  0
   -2.5540    0.6080    0.1980 P   0  0  0  0  0  0  0  0  0  0  0  0
   -3.5360   -0.7790    0.4250 O   0  0  0  0  0  0  0  0  0  0  0  0
  1  2  2  0
  2  3  1  0
  2  4  1  0
  4  5  1  0
  5  6  1  0
  6  7  1  1
  6  8  1  0
  8  9  1  0
M  END
