
     RDKit          3D

  8  7  0  0  0  0  0  0  0  0999 V2000
   -2.3440    1.6420   -1.2550 O   0  0  0  0  0  0  0  0  0  0  0  0
   -1.5320    1.3300    0.0250 P   0  0  0  0  0  0  0  0  0  0  0  0
   -1.3080   -0.3490    0.7170 C   0  0  0  0  0  0  0  0  0  0  0  0
   -0.2700   -1.2000    0.0730 C   0  0  0  0  0  0  0  0  0  0  0  0
    1.0040   -0.6910    0.1580 O   0  0  0  0  0  0  0  0  0  0  0  0
    1.6080    0.3780   -0.3760 C   0  0  0  0  0  0  0  0  0  0  0  0
    0.9670    1.1250   -1.1360 O   0  0  0  0  0  0  0  0  0  0  0  0
    2.9480    0.7360   -0.1420 O   0  0  0  0  0  0  0  0  0  0  0  0
  1  2  2  0
  2  3  1  0
  3  4  1  0
  4  5  1  0
  5  6  1  0
  6  7  2  0
  6  8  1  0
M  END
