
     RDKit          3D

  9  8  0  0  0  0  0  0  0  0999 V2000
    4.1120   -0.1970    0.9880 O   0  0  0  0  0  0  0  0  0  0  0  0
    2.8990   -0.6850    0.7920 O   0  0  0  0  0  0  0  0  0  0  0  0
    2.0720    0.3450    0.3800 C   0  0  0  0  0  0  0  0  0  0  0  0
    0.6720   -0.1140    0.1330 C   0  0  0  0  0  0  0  0  0  0  0  0
    0.0710   -0.6600    1.2580 O   0  0  0  0  0  0  0  0  0  0  0  0
   -1.2310   -1.0380    0.8560 C   0  0  0  0  0  0  0  0  0  0  0  0
   -2.0800    0.4950    0.2800 P   0  0  0  0  0  0  0  0  0  0  0  0
   -2.4080    0.4670   -1.4120 O   0  0  0  0  0  0  0  0  0  0  0  0
   -3.4810    0.8800    1.1830 O   0  0  0  0  0  0  0  0  0  0  0  0
  1  2  1  0
  2  3  1  0
  3  4  1  0
  4  5  1  0
  5  6  1  0
  6  7  1  0
  7  8  1  0
  7  9  1  0
M  END
