
     RDKit          3D

 18 19  0  0  0  0  0  0  0  0999 V2000
   -3.6650   -1.6630   -1.5710 C   0  0  0  0  0  0  0  0  0  0  0  0
   -2.1790   -1.7100   -1.5600 C   0  0  0  0  0  0  0  0  0  0  0  0
   -1.6110   -2.5500   -2.2980 O   0  0  0  0  0  0  0  0  0  0  0  0
   -1.4130   -0.8030   -0.7130 C   0  0  0  0  0  0  0  0  0  0  0  0
   -2.0380    0.1150    0.0940 C   0  0  0  0  0  0  0  0  0  0  0  0
   -1.2870    0.9490    0.8740 C   0  0  0  0  0  0  0  0  0  0  0  0
   -1.9590    1.9400    1.7450 C   0  0  0  0  0  0  0  0  0  0  0  0
   -3.3270    1.8440    1.6090 O   0  0  0  0  0  0  0  0  0  0  0  0
    0.1070    0.8490    0.8350 C   0  0  0  0  0  0  0  0  0  0  0  0
    0.7850    1.7260    1.6520 O   0  0  0  0  0  0  0  0  0  0  0  0
    0.7350   -0.0560    0.0400 C   0  0  0  0  0  0  0  0  0  0  0  0
    2.1840   -0.1720   -0.0120 C   0  0  0  0  0  0  0  0  0  0  0  0
    2.8760   -1.0300   -0.7620 C   0  0  0  0  0  0  0  0  0  0  0  0
    4.3040   -0.8210   -0.5210 C   0  0  1  0  0  0  0  0  0  0  0  0
    5.0510   -0.3740   -2.0800 Cl  0  0  0  0  0  0  0  0  0  0  0  0
    4.3770    0.2570    0.4550 C   0  0  0  0  0  0  0  0  0  0  0  0
    3.1390    0.6210    0.7380 C   0  0  0  0  0  0  0  0  0  0  0  0
   -0.0200   -0.8940   -0.7440 C   0  0  0  0  0  0  0  0  0  0  0  0
  1  2  1  0
  2  3  2  0
  2  4  1  0
  4  5  2  0
  4 18  1  0
  5  6  1  0
  6  7  1  0
  6  9  2  0
  7  8  1  0
  9 10  1  0
  9 11  1  0
 11 12  1  0
 11 18  2  0
 12 13  2  0
 12 17  1  0
 13 14  1  0
 14 15  1  6
 14 16  1  0
 16 17  2  0
M  END
