
     RDKit          3D

 18 19  0  0  0  0  0  0  0  0999 V2000
    4.8740    0.8380    1.5200 C   0  0  0  0  0  0  0  0  0  0  0  0
    3.6290    0.9850    2.1150 O   0  0  0  0  0  0  0  0  0  0  0  0
    2.3920    0.7720    1.5660 C   0  0  0  0  0  0  0  0  0  0  0  0
    2.2060    0.3550    0.2640 C   0  0  0  0  0  0  0  0  0  0  0  0
    0.9450    0.1450   -0.2750 C   0  0  0  0  0  0  0  0  0  0  0  0
   -0.1360    0.3660    0.5380 C   0  0  0  0  0  0  0  0  0  0  0  0
    0.0600    0.7920    1.8690 C   0  0  0  0  0  0  0  0  0  0  0  0
    1.3030    1.0000    2.4000 C   0  0  0  0  0  0  0  0  0  0  0  0
    1.4830    1.4190    3.7110 O   0  0  0  0  0  0  0  0  0  0  0  0
   -1.5360    0.1820    0.0800 C   0  0  2  0  0  0  0  0  0  0  0  0
   -2.3390   -0.3420    1.0910 O   0  0  0  0  0  0  0  0  0  0  0  0
   -1.5660   -0.6010   -1.1480 C   0  0  0  0  0  0  0  0  0  0  0  0
   -2.7440   -0.7350   -1.7840 C   0  0  0  0  0  0  0  0  0  0  0  0
   -3.9610   -0.1210   -1.2760 C   0  0  0  0  0  0  0  0  0  0  0  0
   -5.0870   -0.2820   -1.9330 C   0  0  0  0  0  0  0  0  0  0  0  0
   -5.1720   -1.2110   -3.4050 Cl  0  0  0  0  0  0  0  0  0  0  0  0
   -0.3720   -1.2560   -1.7380 C   0  0  0  0  0  0  0  0  0  0  0  0
    0.8260   -0.3150   -1.7010 C   0  0  0  0  0  0  0  0  0  0  0  0
  1  2  1  0
  2  3  1  0
  3  4  2  0
  3  8  1  0
  4  5  1  0
  5  6  2  0
  5 18  1  0
  6  7  1  0
  6 10  1  0
  7  8  2  0
  8  9  1  0
 10 11  1  1
 10 12  1  0
 12 13  2  3
 12 17  1  0
 13 14  1  0
 14 15  2  3
 15 16  1  0
 17 18  1  0
M  END
