
     RDKit          3D

 10  9  0  0  0  0  0  0  0  0999 V2000
   -2.8890   -0.4380    0.7670 O   0  0  0  0  0  0  0  0  0  0  0  0
   -2.4240    0.0660   -0.2680 C   0  0  0  0  0  0  0  0  0  0  0  0
   -3.2980    0.5170   -1.2310 O   0  0  0  0  0  0  0  0  0  0  0  0
   -0.9790    0.1590   -0.4200 C   0  0  0  0  0  0  0  0  0  0  0  0
   -0.5400    0.6740   -1.4790 O   0  0  0  0  0  0  0  0  0  0  0  0
   -0.0380   -0.3280    0.6190 C   0  0  0  0  0  0  0  0  0  0  0  0
    1.6480   -0.0260    0.0400 S   0  0  2  0  0  0  0  0  0  0  0  0
    2.5640   -0.6640    1.3920 O   0  0  0  0  0  0  0  0  0  0  0  0
    1.9700    1.4010   -0.1270 O   0  0  0  0  0  0  0  0  0  0  0  0
    1.8770   -1.0610   -1.1090 O   0  0  0  0  0  0  0  0  0  0  0  0
  1  2  2  0
  2  3  1  0
  2  4  1  0
  4  5  2  0
  4  6  1  0
  6  7  1  0
  7  8  1  1
  7  9  1  0
  7 10  1  0
M  END
