
     RDKit          3D

 18 19  0  0  0  0  0  0  0  0999 V2000
   -3.8500   -1.4970    1.0930 C   0  0  0  0  0  0  0  0  0  0  0  0
   -2.5110   -2.1300    0.9080 C   0  0  0  0  0  0  0  0  0  0  0  0
   -1.4260   -1.4120    0.6610 C   0  0  0  0  0  0  0  0  0  0  0  0
   -0.2420   -2.0880    0.5060 O   0  0  0  0  0  0  0  0  0  0  0  0
   -1.4680    0.0360    0.5570 C   0  0  0  0  0  0  0  0  0  0  0  0
   -0.4760    0.8560    0.3070 C   0  0  0  0  0  0  0  0  0  0  0  0
    0.9260    0.6010    0.0560 C   0  0  0  0  0  0  0  0  0  0  0  0
    1.3710   -0.2700   -0.8920 C   0  0  0  0  0  0  0  0  0  0  0  0
    2.7100   -0.5070   -1.0790 C   0  0  0  0  0  0  0  0  0  0  0  0
    3.1700   -1.4750   -2.1330 C   0  0  0  0  0  0  0  0  0  0  0  0
    3.6560    0.1330   -0.3080 C   0  0  0  0  0  0  0  0  0  0  0  0
    3.2240    1.0100    0.6470 C   0  0  0  0  0  0  0  0  0  0  0  0
    4.3920    1.8400    1.6410 Cl  0  0  0  0  0  0  0  0  0  0  0  0
    1.8840    1.2570    0.8450 C   0  0  0  0  0  0  0  0  0  0  0  0
   -1.0050    2.2710    0.3070 C   0  0  1  0  0  0  0  0  0  0  0  0
   -0.4050    2.9930   -0.7180 O   0  0  0  0  0  0  0  0  0  0  0  0
   -2.4680    2.0380    0.0580 C   0  0  0  0  0  0  0  0  0  0  0  0
   -2.6560    0.7910    0.7240 O   0  0  0  0  0  0  0  0  0  0  0  0
  1  2  1  0
  2  3  2  3
  3  4  1  0
  3  5  1  0
  5  6  2  0
  5 18  1  0
  6  7  1  0
  6 15  1  0
  7  8  2  0
  7 14  1  0
  8  9  1  0
  9 10  1  0
  9 11  2  0
 11 12  1  0
 12 13  1  0
 12 14  2  0
 15 16  1  6
 15 17  1  0
 17 18  1  0
M  END
