
     RDKit          3D

 18 19  0  0  0  0  0  0  0  0999 V2000
   -4.4220   -0.8020    0.3270 C   0  0  0  0  0  0  0  0  0  0  0  0
   -2.9520   -0.5410    0.3130 C   0  0  0  0  0  0  0  0  0  0  0  0
   -2.1220   -1.3610    1.0590 C   0  0  0  0  0  0  0  0  0  0  0  0
   -0.7410   -1.1860    1.0630 C   0  0  0  0  0  0  0  0  0  0  0  0
   -0.2120   -0.1560    0.2950 C   0  0  0  0  0  0  0  0  0  0  0  0
    1.2380    0.0150    0.3500 C   0  0  0  0  0  0  0  0  0  0  0  0
    1.7840    1.1060    0.9340 C   0  0  0  0  0  0  0  0  0  0  0  0
    3.1520    1.2120    0.9970 C   0  0  0  0  0  0  0  0  0  0  0  0
    3.9440    0.1940    0.4560 C   0  0  0  0  0  0  0  0  0  0  0  0
    3.3710   -0.9030   -0.1310 C   0  0  0  0  0  0  0  0  0  0  0  0
    4.1020   -1.9640   -0.6950 O   0  0  0  0  0  0  0  0  0  0  0  0
    2.0030   -1.0140   -0.1950 C   0  0  0  0  0  0  0  0  0  0  0  0
    1.3970   -2.0980   -0.7780 O   0  0  0  0  0  0  0  0  0  0  0  0
   -1.0200    0.6710   -0.4530 C   0  0  0  0  0  0  0  0  0  0  0  0
   -0.3750    1.7340   -1.2670 C   0  0  0  0  0  0  0  0  0  0  0  0
   -1.2850    2.4910   -2.0060 O   0  0  0  0  0  0  0  0  0  0  0  0
   -2.3810    0.4550   -0.4240 C   0  0  0  0  0  0  0  0  0  0  0  0
   -3.3910    1.5170   -1.3920 Cl  0  0  0  0  0  0  0  0  0  0  0  0
  1  2  1  0
  2  3  2  0
  2 17  1  0
  3  4  1  0
  4  5  2  0
  5  6  1  0
  5 14  1  0
  6  7  2  0
  6 12  1  0
  7  8  1  0
  8  9  2  0
  9 10  1  0
 10 11  1  0
 10 12  2  0
 12 13  1  0
 14 15  1  0
 14 17  2  0
 15 16  1  0
 17 18  1  0
M  END
