
     RDKit          3D

 18 19  0  0  0  0  0  0  0  0999 V2000
   -3.9530    0.8600   -0.8610 C   0  0  0  0  0  0  0  0  0  0  0  0
   -2.5600    0.5370   -0.4970 C   0  0  0  0  0  0  0  0  0  0  0  0
   -1.5890    1.3970   -0.9350 C   0  0  0  0  0  0  0  0  0  0  0  0
   -0.2730    1.1740   -0.7060 C   0  0  0  0  0  0  0  0  0  0  0  0
    0.0730   -0.0090    0.0240 C   0  0  0  0  0  0  0  0  0  0  0  0
    1.4820   -0.2430    0.1110 C   0  0  0  0  0  0  0  0  0  0  0  0
    2.2360   -0.4520    1.2270 C   0  0  0  0  0  0  0  0  0  0  0  0
    3.6230   -0.5560    1.1970 C   0  0  0  0  0  0  0  0  0  0  0  0
    4.3560   -0.7890    2.3270 O   0  0  0  0  0  0  0  0  0  0  0  0
    4.2360   -0.4310   -0.0090 C   0  0  0  0  0  0  0  0  0  0  0  0
    3.5550   -0.2200   -1.1700 C   0  0  0  0  0  0  0  0  0  0  0  0
    4.2930   -0.0970   -2.3620 O   0  0  0  0  0  0  0  0  0  0  0  0
    2.1840   -0.1360   -1.1070 C   0  0  0  0  0  0  0  0  0  0  0  0
   -0.9120   -0.8470    0.4720 C   0  0  0  0  0  0  0  0  0  0  0  0
   -0.4280   -2.2930    1.4090 Cl  0  0  0  0  0  0  0  0  0  0  0  0
   -2.2360   -0.5940    0.2160 C   0  0  0  0  0  0  0  0  0  0  0  0
   -3.2900   -1.4810    0.6520 C   0  0  0  0  0  0  0  0  0  0  0  0
   -3.3790   -1.4100    2.0840 O   0  0  0  0  0  0  0  0  0  0  0  0
  1  2  1  0
  2  3  2  0
  2 16  1  0
  3  4  1  0
  4  5  2  0
  5  6  1  0
  5 14  1  0
  6  7  2  0
  6 13  1  0
  7  8  1  0
  8  9  1  0
  8 10  2  0
 10 11  1  0
 11 12  1  0
 11 13  2  0
 14 15  1  0
 14 16  2  0
 16 17  1  0
 17 18  1  0
M  END
