
     RDKit          3D

 13 13  0  0  0  0  0  0  0  0999 V2000
   -1.4780    1.1600   -1.7420 N   0  0  0  0  0  0  0  0  0  0  0  0
   -0.9860    0.8110   -0.4210 C   0  0  2  0  0  0  0  0  0  0  0  0
    0.1370   -0.1590   -0.5040 C   0  0  0  0  0  0  0  0  0  0  0  0
    0.7110   -0.5040   -1.6340 C   0  0  0  0  0  0  0  0  0  0  0  0
    1.7430   -1.3850   -1.8380 O   0  0  0  0  0  0  0  0  0  0  0  0
    0.5930   -0.7650    0.7230 C   0  0  0  0  0  0  0  0  0  0  0  0
    1.8290   -0.7690    1.1100 C   0  0  0  0  0  0  0  0  0  0  0  0
    2.9560   -0.1560    0.3850 C   0  0  0  0  0  0  0  0  0  0  0  0
    3.5180    0.8100    1.2900 O   0  0  0  0  0  0  0  0  0  0  0  0
   -0.4620   -1.3610    1.4870 O   0  0  0  0  0  0  0  0  0  0  0  0
   -1.6400   -0.5640    1.5850 C   0  0  0  0  0  0  0  0  0  0  0  0
   -2.0850    0.0790    0.3290 C   0  0  1  0  0  0  0  0  0  0  0  0
   -3.1290    0.9690    0.5870 O   0  0  0  0  0  0  0  0  0  0  0  0
  2  1  1  6
  2  3  1  0
  2 12  1  0
  3  4  2  3
  3  6  1  0
  4  5  1  0
  6  7  2  3
  6 10  1  0
  7  8  1  0
  8  9  1  0
 10 11  1  0
 11 12  1  0
 12 13  1  1
M  CHG  1   1   1
M  END
