
     RDKit          3D

 19 21  0  0  0  0  0  0  0  0999 V2000
   -5.1010   -1.9180    0.1760 C   0  0  0  0  0  0  0  0  0  0  0  0
   -3.7200   -1.4600    0.0240 N   0  0  0  0  0  0  0  0  0  0  0  0
   -2.7630   -2.2340   -0.4120 N   0  0  0  0  0  0  0  0  0  0  0  0
   -1.6290   -1.5660   -0.4470 C   0  0  0  0  0  0  0  0  0  0  0  0
   -1.8770   -0.2810   -0.0040 C   0  0  0  0  0  0  0  0  0  0  0  0
   -3.2240   -0.2160    0.3000 C   0  0  0  0  0  0  0  0  0  0  0  0
   -4.0380    0.8230    0.7690 N   0  0  0  0  0  0  0  0  0  0  0  0
   -3.7210    2.0990    1.2090 C   0  0  0  0  0  0  0  0  0  0  0  0
   -2.5840    2.5250    1.2920 O   0  0  0  0  0  0  0  0  0  0  0  0
   -0.7910    0.7330    0.0480 C   0  0  0  0  0  0  0  0  0  0  0  0
    0.3760    0.3190   -0.6720 N   0  0  0  0  0  0  0  0  0  0  0  0
    1.5230    1.0690   -0.4530 C   0  0  1  0  0  0  0  0  0  0  0  0
    2.1060    1.0590    0.9410 C   0  0  0  0  0  0  0  0  0  0  0  0
    3.2240    0.0350    0.9310 C   0  0  0  0  0  0  0  0  0  0  0  0
    3.6370   -0.0770   -0.4980 C   0  0  2  0  0  0  0  0  0  0  0  0
    5.0370    0.3550   -0.6030 N   0  0  0  0  0  0  0  0  0  0  0  0
    2.7160    0.8250   -1.2970 C   0  0  0  0  0  0  0  0  0  0  0  0
    0.2830   -0.7140   -1.5810 C   0  0  0  0  0  0  0  0  0  0  0  0
   -0.2630   -1.9420   -0.8440 C   0  0  0  0  0  0  0  0  0  0  0  0
  1  2  1  0
  2  3  1  0
  2  6  1  0
  3  4  2  0
  4  5  1  0
  4 19  1  0
  5  6  2  0
  5 10  1  0
  6  7  1  0
  7  8  1  0
  8  9  2  0
 10 11  1  0
 12 11  1  1
 11 18  1  0
 12 13  1  0
 12 17  1  0
 13 14  1  0
 14 15  1  0
 15 16  1  1
 15 17  1  0
 18 19  1  0
M  CHG  1  16   1
M  END
