
     RDKit          3D

 13 14  0  0  0  0  0  0  0  0999 V2000
   -1.6320    2.2280    0.2110 C   0  0  0  0  0  0  0  0  0  0  0  0
   -0.8180    1.4260   -0.6220 O   0  0  0  0  0  0  0  0  0  0  0  0
   -0.5270    0.2900    0.0620 C   0  0  2  0  0  0  0  0  0  0  0  0
    0.9510    0.0760    0.2580 C   0  0  0  0  0  0  0  0  0  0  0  0
    1.1640   -1.2240    0.3760 C   0  0  0  0  0  0  0  0  0  0  0  0
   -0.1480   -1.9600    0.2660 C   0  0  0  0  0  0  0  0  0  0  0  0
   -0.8620   -0.9850   -0.6830 C   0  0  1  0  0  0  0  0  0  0  0  0
   -2.2460   -1.2440   -0.8040 N   0  0  0  0  0  0  0  0  0  0  0  0
    2.5020   -1.5190    0.5610 O   0  0  0  0  0  0  0  0  0  0  0  0
    3.2160   -0.3610    0.5670 C   0  0  0  0  0  0  0  0  0  0  0  0
    4.4630   -0.2820    0.7150 O   0  0  0  0  0  0  0  0  0  0  0  0
    2.2580    0.7520    0.3710 C   0  0  1  0  0  0  0  0  0  0  0  0
    2.6230    1.4060   -0.8020 O   0  0  0  0  0  0  0  0  0  0  0  0
  1  2  1  0
  3  2  1  6
  3  4  1  0
  3  7  1  0
  4  5  2  0
  4 12  1  0
  5  6  1  0
  5  9  1  0
  6  7  1  0
  7  8  1  1
  9 10  1  0
 10 11  2  0
 10 12  1  0
 12 13  1  6
M  CHG  1   8   1
M  END
