
     RDKit          3D

 20 21  0  0  0  0  0  0  0  0999 V2000
   -3.9600   -1.7340   -0.5420 N   0  0  0  0  0  0  0  0  0  0  0  0
   -2.7190   -1.1100   -0.2620 C   0  0  1  0  0  0  0  0  0  0  0  0
   -1.8910   -1.1740   -1.5590 C   0  0  0  0  0  0  0  0  0  0  0  0
   -0.4260   -0.9360   -1.2290 C   0  0  0  0  0  0  0  0  0  0  0  0
   -0.3130   -0.0580   -0.0430 C   0  0  0  0  0  0  0  0  0  0  0  0
    0.7910   -0.0370    0.6640 C   0  0  0  0  0  0  0  0  0  0  0  0
    1.9300   -0.8280    0.3610 N   0  0  0  0  0  0  0  0  0  0  0  0
    3.2500   -0.3000    0.3450 C   0  0  0  0  0  0  0  0  0  0  0  0
    3.2990    0.9160   -0.2120 C   0  0  0  0  0  0  0  0  0  0  0  0
    4.5010    1.7500   -0.3900 C   0  0  0  0  0  0  0  0  0  0  0  0
    4.3480    2.7320   -1.1330 O   0  0  0  0  0  0  0  0  0  0  0  0
    5.7920    1.5240    0.2070 N   0  0  0  0  0  0  0  0  0  0  0  0
    6.1620    0.4280    0.9920 N   0  0  0  0  0  0  0  0  0  0  0  0
    5.4820   -0.8070    1.1740 C   0  0  0  0  0  0  0  0  0  0  0  0
    4.2420   -1.1300    0.9030 N   0  0  0  0  0  0  0  0  0  0  0  0
   -1.4400    0.7820    0.3170 C   0  0  0  0  0  0  0  0  0  0  0  0
   -2.7000    0.2690    0.2150 C   0  0  0  0  0  0  0  0  0  0  0  0
   -3.7860    1.1370    0.5840 C   0  0  0  0  0  0  0  0  0  0  0  0
   -5.0640    0.9240    0.5910 C   0  0  0  0  0  0  0  0  0  0  0  0
   -6.1830    2.2350    1.1150 S   0  0  0  0  0  0  0  0  0  0  0  0
  2  1  1  6
  2  3  1  0
  2 17  1  0
  3  4  1  0
  4  5  1  0
  5  6  2  3
  5 16  1  0
  6  7  1  0
  7  8  1  0
  8  9  2  0
  8 15  1  0
  9 10  1  0
 10 11  2  0
 10 12  1  0
 12 13  1  0
 13 14  1  0
 14 15  2  0
 16 17  2  0
 17 18  1  0
 18 19  2  3
 19 20  1  0
M  CHG  1   1   1
M  END
