
     RDKit          3D

 20 22  0  0  0  0  0  0  0  0999 V2000
   -1.6910   -2.2720    1.6290 O   0  0  0  0  0  0  0  0  0  0  0  0
   -2.5400   -1.9520    0.7690 C   0  0  0  0  0  0  0  0  0  0  0  0
   -3.7560   -2.6200    0.4550 N   0  0  0  0  0  0  0  0  0  0  0  0
   -4.3680   -1.8830   -0.6740 C   0  0  0  0  0  0  0  0  0  0  0  0
   -3.8710   -0.4360   -0.3490 C   0  0  0  0  0  0  0  0  0  0  0  0
   -2.4560   -0.7510   -0.1740 C   0  0  1  0  0  0  0  0  0  0  0  0
   -1.4600    0.0890    0.2950 N   0  0  0  0  0  0  0  0  0  0  0  0
   -1.0700    1.4030   -0.0060 C   0  0  0  0  0  0  0  0  0  0  0  0
   -1.8190    2.3640   -0.5260 N   0  0  0  0  0  0  0  0  0  0  0  0
   -1.3580    3.6290   -0.7040 C   0  0  0  0  0  0  0  0  0  0  0  0
   -0.0810    4.0200   -0.3580 C   0  0  0  0  0  0  0  0  0  0  0  0
    0.6870    3.0440    0.1660 N   0  0  0  0  0  0  0  0  0  0  0  0
    0.2360    1.8230    0.3330 C   0  0  0  0  0  0  0  0  0  0  0  0
    1.0610    0.6470    0.8930 C   0  0  0  0  0  0  0  0  0  0  0  0
    1.3170   -0.2100   -0.2040 N   0  0  0  0  0  0  0  0  0  0  0  0
    2.5450   -0.8170   -0.4910 C   0  0  1  0  0  0  0  0  0  0  0  0
    3.6250   -0.0300   -0.9930 C   0  0  0  0  0  0  0  0  0  0  0  0
    4.7060    0.1860   -0.0150 C   0  0  0  0  0  0  0  0  0  0  0  0
    4.4370   -1.0760    1.2910 S   0  0  0  0  0  0  0  0  0  0  0  0
    2.9010   -1.7230    0.6600 C   0  0  0  0  0  0  0  0  0  0  0  0
  1  2  2  0
  2  3  1  0
  2  6  1  0
  3  4  1  0
  4  5  1  0
  5  6  1  0
  6  7  1  1
  7  8  1  0
  8  9  2  0
  8 13  1  0
  9 10  1  0
 10 11  2  0
 11 12  1  0
 12 13  2  0
 13 14  1  0
 14 15  1  0
 16 15  1  1
 16 17  1  0
 16 20  1  0
 17 18  1  0
 18 19  1  0
 19 20  1  0
M  CHG  1  15   1
M  END
