
     RDKit          3D

 13 14  0  0  0  0  0  0  0  0999 V2000
   -3.1870    0.2060    0.1710 N   0  0  0  0  0  0  0  0  0  0  0  0
   -1.9720    0.8820    0.5610 C   0  0  0  0  0  0  0  0  0  0  0  0
   -0.7420    0.2510   -0.0270 C   0  0  2  0  0  0  0  0  0  0  0  0
   -0.7390    0.2430   -1.5120 C   0  0  0  0  0  0  0  0  0  0  0  0
   -1.3100   -1.0490   -1.4690 O   0  0  0  0  0  0  0  0  0  0  0  0
   -0.8180   -1.2580   -0.2040 C   0  0  1  0  0  0  0  0  0  0  0  0
    0.5420   -1.9070   -0.1290 C   0  0  0  0  0  0  0  0  0  0  0  0
    1.5410   -1.1460   -0.6840 O   0  0  0  0  0  0  0  0  0  0  0  0
    1.7180    0.0810   -0.1080 C   0  0  2  0  0  0  0  0  0  0  0  0
    2.9230    0.0930    0.8390 C   0  0  0  0  0  0  0  0  0  0  0  0
    4.0810   -0.2320    0.1110 O   0  0  0  0  0  0  0  0  0  0  0  0
    0.5400    0.5540    0.6700 C   0  0  1  0  0  0  0  0  0  0  0  0
    0.6880    1.8960    0.9940 O   0  0  0  0  0  0  0  0  0  0  0  0
  1  2  1  0
  3  2  1  6
  3  4  1  0
  3  6  1  0
  3 12  1  0
  4  5  1  0
  5  6  1  0
  6  7  1  6
  7  8  1  0
  8  9  1  0
  9 10  1  1
  9 12  1  0
 10 11  1  0
 12 13  1  6
M  CHG  1   1   1
M  END
