
     RDKit          3D

 19 20  0  0  0  0  0  0  0  0999 V2000
    4.8900    1.5360    0.9730 C   0  0  0  0  0  0  0  0  0  0  0  0
    4.6100    0.1990    0.5040 N   0  0  0  0  0  0  0  0  0  0  0  0
    3.2590   -0.2200    0.3050 C   0  0  0  0  0  0  0  0  0  0  0  0
    2.3380    0.4570    0.8870 N   0  0  0  0  0  0  0  0  0  0  0  0
    0.8820    0.2390    0.8470 C   0  0  1  0  0  0  0  0  0  0  0  0
    0.2640    1.4570    1.5400 C   0  0  0  0  0  0  0  0  0  0  0  0
    0.3240    0.2110   -0.5390 C   0  0  2  0  0  0  0  0  0  0  0  0
   -1.0670    0.4130   -0.4660 N   0  0  0  0  0  0  0  0  0  0  0  0
   -1.9250   -0.4700    0.1670 C   0  0  0  0  0  0  0  0  0  0  0  0
   -3.3650    0.0260   -0.0240 C   0  0  2  0  0  0  0  0  0  0  0  0
   -3.5250    1.3970    0.5700 C   0  0  0  0  0  0  0  0  0  0  0  0
   -4.3370   -0.8990    0.6530 C   0  0  0  0  0  0  0  0  0  0  0  0
   -3.7190    0.0960   -1.4230 N   0  0  0  0  0  0  0  0  0  0  0  0
    0.7000   -1.0100   -1.3380 C   0  0  0  0  0  0  0  0  0  0  0  0
   -0.3390   -1.4600   -2.1820 C   0  0  0  0  0  0  0  0  0  0  0  0
    0.4250   -2.9220   -2.9910 S   0  0  0  0  0  0  0  0  0  0  0  0
    2.0060   -2.7800   -2.1390 C   0  0  0  0  0  0  0  0  0  0  0  0
    1.8520   -1.6700   -1.3270 C   0  0  0  0  0  0  0  0  0  0  0  0
    3.0600   -1.3470   -0.5200 N   0  0  0  0  0  0  0  0  0  0  0  0
  1  2  1  0
  2  3  1  0
  3  4  2  0
  3 19  1  0
  4  5  1  0
  5  6  1  1
  5  7  1  0
  7  8  1  1
  7 14  1  0
  8  9  1  0
  9 10  1  0
 10 11  1  1
 10 12  1  0
 10 13  1  0
 14 15  2  0
 14 18  1  0
 15 16  1  0
 16 17  1  0
 17 18  2  0
 18 19  1  0
M  CHG  1   4   1
M  END
