
     RDKit          3D

 28 28  0  0  0  0  0  0  0  0999 V2000
    1.7600   -0.1890    1.4150 O   0  0  0  0  0  0  0  0  0  0  0  0
    1.6140   -0.4800    0.2120 C   0  0  0  0  0  0  0  0  0  0  0  0
    0.4000   -0.2620   -0.3670 O   0  0  0  0  0  0  0  0  0  0  0  0
   -0.7390    0.2710    0.2590 C   0  0  1  0  0  0  0  0  0  0  0  0
   -1.2220    1.5260   -0.2930 C   0  0  0  0  0  0  0  0  0  0  0  0
   -0.6870    2.1090   -1.2710 O   0  0  0  0  0  0  0  0  0  0  0  0
   -2.3300    2.1600    0.2510 O   0  0  0  0  0  0  0  0  0  0  0  0
   -2.8220    3.3780   -0.2600 C   0  0  0  0  0  0  0  0  0  0  0  0
   -4.0290    3.7600    0.5820 C   0  0  0  0  0  0  0  0  0  0  0  0
   -3.7140    3.9200    1.9080 O   0  0  0  0  0  0  0  0  0  0  0  0
   -1.7510   -0.8370    0.3850 C   0  0  1  0  0  0  0  0  0  0  0  0
   -2.1790   -1.4510   -0.8920 C   0  0  2  0  0  0  0  0  0  0  0  0
   -1.1020   -2.0260   -1.6010 O   0  0  0  0  0  0  0  0  0  0  0  0
   -2.9810   -0.5410   -1.8010 C   0  0  0  0  0  0  0  0  0  0  0  0
   -4.0530    0.0360   -1.1500 O   0  0  0  0  0  0  0  0  0  0  0  0
   -1.1590   -1.9380    1.2680 C   0  0  1  0  0  0  0  0  0  0  0  0
   -0.8720   -1.3670    2.5420 O   0  0  0  0  0  0  0  0  0  0  0  0
   -2.0900   -3.0680    1.5240 C   0  0  0  0  0  0  0  0  0  0  0  0
   -3.2550   -2.6000    2.1010 O   0  0  0  0  0  0  0  0  0  0  0  0
    2.7210   -1.0540   -0.5940 C   0  0  2  0  0  0  0  0  0  0  0  0
    3.8480   -1.1870    0.1920 O   0  0  0  0  0  0  0  0  0  0  0  0
    4.3910    0.0090    0.5970 C   0  0  1  0  0  0  0  0  0  0  0  0
    5.8980   -0.0730    0.4640 C   0  0  0  0  0  0  0  0  0  0  0  0
    6.3860   -1.0950    1.2540 O   0  0  0  0  0  0  0  0  0  0  0  0
    3.8630    1.1210   -0.0110 O   0  0  0  0  0  0  0  0  0  0  0  0
    3.7780    1.0220   -1.3890 C   0  0  0  0  0  0  0  0  0  0  0  0
    2.9440   -0.1720   -1.7960 C   0  0  2  0  0  0  0  0  0  0  0  0
    1.6920    0.1970   -2.2850 O   0  0  0  0  0  0  0  0  0  0  0  0
  1  2  2  0
  2  3  1  0
 20  2  1  1
  4  3  1  6
  4  5  1  0
 11  4  1  6
  5  6  2  0
  5  7  1  0
  7  8  1  0
  8  9  1  0
  9 10  1  0
 11 12  1  0
 11 16  1  0
 12 13  1  6
 12 14  1  0
 14 15  1  0
 16 17  1  1
 16 18  1  0
 18 19  1  0
 20 21  1  0
 20 27  1  0
 21 22  1  0
 22 23  1  6
 22 25  1  0
 23 24  1  0
 25 26  1  0
 26 27  1  0
 27 28  1  1
M  END
