
     RDKit          3D

 20 22  0  0  0  0  0  0  0  0999 V2000
    0.5720   -2.5110   -0.0600 O   0  0  0  0  0  0  0  0  0  0  0  0
    0.3550   -1.3010   -0.0020 C   0  0  0  0  0  0  0  0  0  0  0  0
    1.4100   -0.4240    0.1300 C   0  0  0  0  0  0  0  0  0  0  0  0
    2.6900   -0.9140    0.1950 C   0  0  0  0  0  0  0  0  0  0  0  0
    3.0610   -2.2160    0.1420 O   0  0  0  0  0  0  0  0  0  0  0  0
    3.7180    0.0310    0.3290 C   0  0  0  0  0  0  0  0  0  0  0  0
    3.5020    1.3860    0.3950 C   0  0  0  0  0  0  0  0  0  0  0  0
    2.2100    1.8590    0.3290 C   0  0  0  0  0  0  0  0  0  0  0  0
    1.1840    0.9450    0.1970 C   0  0  0  0  0  0  0  0  0  0  0  0
   -0.0540    1.3570    0.1300 O   0  0  0  0  0  0  0  0  0  0  0  0
   -1.0850    0.5930    0.0070 C   0  0  0  0  0  0  0  0  0  0  0  0
   -2.3490    1.1690   -0.0520 C   0  0  0  0  0  0  0  0  0  0  0  0
   -2.4810    2.5770    0.0250 N   0  0  0  0  0  0  0  0  0  0  0  0
   -3.4590    3.1180   -0.5150 O   0  0  0  0  0  0  0  0  0  0  0  0
   -1.5560    3.3430    0.6790 O   0  0  0  0  0  0  0  0  0  0  0  0
   -3.4310    0.3240   -0.1840 C   0  0  0  0  0  0  0  0  0  0  0  0
   -3.3010   -1.0380   -0.2570 C   0  0  0  0  0  0  0  0  0  0  0  0
   -2.0250   -1.6350   -0.1990 C   0  0  0  0  0  0  0  0  0  0  0  0
   -1.9090   -2.9700   -0.2720 O   0  0  0  0  0  0  0  0  0  0  0  0
   -0.9310   -0.7760   -0.0660 C   0  0  0  0  0  0  0  0  0  0  0  0
  1  2  2  0
  2  3  1  0
  2 20  1  0
  3  4  2  0
  3  9  1  0
  4  5  1  0
  4  6  1  0
  6  7  2  0
  7  8  1  0
  8  9  2  0
  9 10  1  0
 10 11  1  0
 11 12  2  0
 11 20  1  0
 12 13  1  0
 12 16  1  0
 13 14  2  0
 13 15  1  0
 16 17  2  0
 17 18  1  0
 18 19  1  0
 18 20  2  0
M  CHG  2  13   1  15  -1
M  END
