
     RDKit          3D

 27 27  0  0  0  0  0  0  0  0999 V2000
    5.5180   -2.0120   -1.5350 C   0  0  0  0  0  0  0  0  0  0  0  0
    4.7390   -1.1430   -0.7490 O   0  0  0  0  0  0  0  0  0  0  0  0
    3.3540   -1.1120   -0.8060 C   0  0  0  0  0  0  0  0  0  0  0  0
    2.8510   -1.9460   -1.6380 O   0  0  0  0  0  0  0  0  0  0  0  0
    2.5370   -0.2120    0.0090 C   0  0  2  0  0  0  0  0  0  0  0  0
    1.1410   -0.4010   -0.2050 O   0  0  0  0  0  0  0  0  0  0  0  0
    0.2710   -0.7090    0.8240 C   0  0  0  0  0  0  0  0  0  0  0  0
    0.8120   -0.8130    1.9760 O   0  0  0  0  0  0  0  0  0  0  0  0
   -1.1660   -0.9190    0.7280 C   0  0  1  0  0  0  0  0  0  0  0  0
   -1.7480   -1.2100    1.9720 O   0  0  0  0  0  0  0  0  0  0  0  0
   -1.9240    0.2390    0.1370 C   0  0  2  0  0  0  0  0  0  0  0  0
   -1.9950    1.4490    1.0320 C   0  0  0  0  0  0  0  0  0  0  0  0
   -2.6220    1.2930    2.2170 O   0  0  0  0  0  0  0  0  0  0  0  0
   -3.9340    1.0000    2.2840 C   0  0  0  0  0  0  0  0  0  0  0  0
   -4.8880    2.0080    1.7100 C   0  0  0  0  0  0  0  0  0  0  0  0
   -4.7240    2.2760    0.3670 O   0  0  0  0  0  0  0  0  0  0  0  0
   -3.1350   -0.2780   -0.1940 O   0  0  0  0  0  0  0  0  0  0  0  0
   -3.0650   -1.6240   -0.4070 C   0  0  2  0  0  0  0  0  0  0  0  0
   -3.8020   -2.3780    0.5050 O   0  0  0  0  0  0  0  0  0  0  0  0
   -1.5980   -2.0320   -0.1960 C   0  0  1  0  0  0  0  0  0  0  0  0
   -0.9730   -1.9460   -1.5690 C   0  0  0  0  0  0  0  0  0  0  0  0
   -1.4580   -3.0360   -2.3280 O   0  0  0  0  0  0  0  0  0  0  0  0
    2.7730    1.2690   -0.2980 C   0  0  1  0  0  0  0  0  0  0  0  0
    2.3440    1.6330   -1.7010 C   0  0  0  0  0  0  0  0  0  0  0  0
    1.9820    2.0530    0.5790 O   0  0  0  0  0  0  0  0  0  0  0  0
    4.1980    1.6850   -0.1070 C   0  0  0  0  0  0  0  0  0  0  0  0
    4.2970    3.0570   -0.4030 O   0  0  0  0  0  0  0  0  0  0  0  0
  1  2  1  0
  2  3  1  0
  3  4  2  0
  3  5  1  0
  5  6  1  6
  5 23  1  0
  6  7  1  0
  7  8  2  0
  7  9  1  0
  9 10  1  1
  9 11  1  0
  9 20  1  0
 11 12  1  1
 11 17  1  0
 12 13  1  0
 13 14  1  0
 14 15  1  0
 15 16  1  0
 17 18  1  0
 18 19  1  1
 18 20  1  0
 20 21  1  6
 21 22  1  0
 23 24  1  6
 23 25  1  0
 23 26  1  0
 26 27  1  0
M  END
