
     RDKit          3D

 27 27  0  0  0  0  0  0  0  0999 V2000
    3.3280    0.9530   -3.2190 C   0  0  0  0  0  0  0  0  0  0  0  0
    2.7760    1.5930   -2.1140 O   0  0  0  0  0  0  0  0  0  0  0  0
    3.3750    1.0980   -0.9680 C   0  0  0  0  0  0  0  0  0  0  0  0
    2.8880    1.6860    0.2880 C   0  0  0  0  0  0  0  0  0  0  0  0
    1.6170    1.5900    0.6980 O   0  0  0  0  0  0  0  0  0  0  0  0
    1.0770    0.3770    1.0030 C   0  0  1  0  0  0  0  0  0  0  0  0
    1.1700    0.2520    2.5430 C   0  0  0  0  0  0  0  0  0  0  0  0
    1.5560    1.1890    3.2470 O   0  0  0  0  0  0  0  0  0  0  0  0
    0.8140   -0.9310    3.1050 O   0  0  0  0  0  0  0  0  0  0  0  0
    0.8470   -1.2030    4.4940 C   0  0  0  0  0  0  0  0  0  0  0  0
   -0.3730    0.2480    0.6470 C   0  0  2  0  0  0  0  0  0  0  0  0
   -1.0150    1.2400    1.4650 O   0  0  0  0  0  0  0  0  0  0  0  0
   -0.8250   -1.0710    1.1580 C   0  0  0  0  0  0  0  0  0  0  0  0
   -1.8580   -1.8340    0.3910 C   0  0  2  0  0  0  0  0  0  0  0  0
   -3.1470   -1.3570    0.6950 O   0  0  0  0  0  0  0  0  0  0  0  0
   -1.8060   -3.1360    0.8260 O   0  0  0  0  0  0  0  0  0  0  0  0
   -2.6920   -4.0150    0.2870 C   0  0  0  0  0  0  0  0  0  0  0  0
   -1.6520   -1.6210   -1.0730 C   0  0  1  0  0  0  0  0  0  0  0  0
   -2.5700   -2.3340   -1.8470 O   0  0  0  0  0  0  0  0  0  0  0  0
   -1.9790   -0.1610   -1.2730 C   0  0  2  0  0  0  0  0  0  0  0  0
   -1.9860    0.1100   -2.6390 O   0  0  0  0  0  0  0  0  0  0  0  0
   -0.7350    0.6230   -0.7310 C   0  0  2  0  0  0  0  0  0  0  0  0
    0.2380    0.2840   -1.6660 O   0  0  0  0  0  0  0  0  0  0  0  0
   -1.2280    2.0470   -0.8750 C   0  0  0  0  0  0  0  0  0  0  0  0
   -0.3640    3.1330   -0.4980 C   0  0  0  0  0  0  0  0  0  0  0  0
   -0.4930    3.6810    0.6540 O   0  0  0  0  0  0  0  0  0  0  0  0
    0.6520    3.6830   -1.2970 O   0  0  0  0  0  0  0  0  0  0  0  0
  1  2  1  0
  2  3  1  0
  3  4  1  0
  4  5  1  0
  6  5  1  1
  6  7  1  0
  6 11  1  0
  7  8  2  0
  7  9  1  0
  9 10  1  0
 11 12  1  1
 11 13  1  0
 11 22  1  0
 13 14  1  0
 14 15  1  1
 14 16  1  0
 14 18  1  0
 16 17  1  0
 18 19  1  6
 18 20  1  0
 20 21  1  6
 20 22  1  0
 22 23  1  6
 22 24  1  0
 24 25  1  0
 25 26  2  0
 25 27  1  0
M  END
