
     RDKit          3D

 27 27  0  0  0  0  0  0  0  0999 V2000
    2.4890   -0.2180    1.9090 C   0  0  0  0  0  0  0  0  0  0  0  0
    2.4230    0.7290    0.7540 C   0  0  2  0  0  0  0  0  0  0  0  0
    2.6420    2.1470    1.2630 C   0  0  0  0  0  0  0  0  0  0  0  0
    2.7020    3.0340    0.1640 O   0  0  0  0  0  0  0  0  0  0  0  0
    1.2090    0.6710    0.0310 O   0  0  0  0  0  0  0  0  0  0  0  0
   -0.0430    0.9210    0.5590 C   0  0  0  0  0  0  0  0  0  0  0  0
   -0.0910    1.2220    1.7800 O   0  0  0  0  0  0  0  0  0  0  0  0
   -1.2650    0.8420   -0.2580 C   0  0  1  0  0  0  0  0  0  0  0  0
   -0.8580    0.8320   -1.6560 O   0  0  0  0  0  0  0  0  0  0  0  0
   -2.1620   -0.3050   -0.0810 C   0  0  2  0  0  0  0  0  0  0  0  0
   -3.4080   -0.3220   -0.8780 C   0  0  2  0  0  0  0  0  0  0  0  0
   -3.1800   -0.3070   -2.2690 O   0  0  0  0  0  0  0  0  0  0  0  0
   -4.4900   -0.1650   -2.7360 C   0  0  0  0  0  0  0  0  0  0  0  0
   -5.1730    0.6120   -1.8360 O   0  0  0  0  0  0  0  0  0  0  0  0
   -4.3260    0.8310   -0.7400 C   0  0  1  0  0  0  0  0  0  0  0  0
   -5.1160    0.8410    0.5470 C   0  0  0  0  0  0  0  0  0  0  0  0
   -6.0640    1.8800    0.4590 O   0  0  0  0  0  0  0  0  0  0  0  0
   -2.3350   -0.9380    1.2580 C   0  0  1  0  0  0  0  0  0  0  0  0
   -3.3350   -1.9800    1.1550 O   0  0  0  0  0  0  0  0  0  0  0  0
   -1.1140   -1.8130    1.6470 C   0  0  0  0  0  0  0  0  0  0  0  0
   -1.4360   -2.4240    2.8460 O   0  0  0  0  0  0  0  0  0  0  0  0
    3.5400    0.4440   -0.1830 C   0  0  0  0  0  0  0  0  0  0  0  0
    3.3590    0.2000   -1.4010 O   0  0  0  0  0  0  0  0  0  0  0  0
    4.8470    0.4400    0.2830 O   0  0  0  0  0  0  0  0  0  0  0  0
    5.9710    0.1860   -0.5050 C   0  0  0  0  0  0  0  0  0  0  0  0
    5.9370   -1.1870   -1.1430 C   0  0  0  0  0  0  0  0  0  0  0  0
    7.0880   -1.3590   -1.9090 O   0  0  0  0  0  0  0  0  0  0  0  0
  2  1  1  1
  2  3  1  0
  2  5  1  0
  2 22  1  0
  3  4  1  0
  5  6  1  0
  6  7  2  0
  6  8  1  0
  8  9  1  6
 10  8  1  1
 10 11  1  0
 10 18  1  0
 11 12  1  6
 11 15  1  0
 12 13  1  0
 13 14  1  0
 14 15  1  0
 15 16  1  1
 16 17  1  0
 18 19  1  6
 18 20  1  0
 20 21  1  0
 22 23  2  0
 22 24  1  0
 24 25  1  0
 25 26  1  0
 26 27  1  0
M  END
