
     RDKit          3D

 20 22  0  0  0  0  0  0  0  0999 V2000
    4.8100    1.7830    1.0960 O   0  0  0  0  0  0  0  0  0  0  0  0
    4.0770    1.9540   -0.0880 C   0  0  0  0  0  0  0  0  0  0  0  0
    2.8170    1.2110   -0.1290 C   0  0  0  0  0  0  0  0  0  0  0  0
    1.5990    1.7650   -0.3210 N   0  0  0  0  0  0  0  0  0  0  0  0
    0.7430    0.7240   -0.3990 C   0  0  0  0  0  0  0  0  0  0  0  0
   -0.6630    0.6070   -0.5730 C   0  0  0  0  0  0  0  0  0  0  0  0
   -1.2240   -0.6250   -0.5770 C   0  0  0  0  0  0  0  0  0  0  0  0
   -2.7290   -0.7920   -0.6900 C   0  0  1  0  0  0  0  0  0  0  0  0
   -2.9770   -1.9970    0.0800 O   0  0  0  0  0  0  0  0  0  0  0  0
   -3.4430    0.2780    0.0700 C   0  0  2  0  0  0  0  0  0  0  0  0
   -4.7660   -0.1930    0.4160 O   0  0  0  0  0  0  0  0  0  0  0  0
   -3.7880    1.5300   -0.7080 C   0  0  0  0  0  0  0  0  0  0  0  0
   -4.3920    2.3890    0.2570 O   0  0  0  0  0  0  0  0  0  0  0  0
   -0.5110   -1.8070   -0.4200 C   0  0  0  0  0  0  0  0  0  0  0  0
    0.8790   -1.6810   -0.2530 C   0  0  0  0  0  0  0  0  0  0  0  0
    1.7310   -2.8200   -0.0120 N   0  0  0  0  0  0  0  0  0  0  0  0
    3.1220   -2.5540    0.1970 C   0  0  0  0  0  0  0  0  0  0  0  0
    3.6310   -1.3040    0.1630 C   0  0  0  0  0  0  0  0  0  0  0  0
    2.7400   -0.1680   -0.0860 C   0  0  0  0  0  0  0  0  0  0  0  0
    1.4290   -0.4380   -0.2560 C   0  0  0  0  0  0  0  0  0  0  0  0
  1  2  1  0
  2  3  1  0
  3  4  1  0
  3 19  2  0
  4  5  1  0
  5  6  2  0
  5 20  1  0
  6  7  1  0
  7  8  1  0
  7 14  2  0
  8  9  1  1
  8 10  1  0
 10 11  1  6
 10 12  1  0
 12 13  1  0
 14 15  1  0
 15 16  1  0
 15 20  2  0
 16 17  1  0
 17 18  2  0
 18 19  1  0
 19 20  1  0
M  END
