
     RDKit          3D

 20 22  0  0  0  0  0  0  0  0999 V2000
   -3.4880    2.5670    0.4480 C   0  0  0  0  0  0  0  0  0  0  0  0
   -3.2760    1.0820    0.3290 C   0  0  0  0  0  0  0  0  0  0  0  0
   -4.1780    0.0540    0.3850 C   0  0  0  0  0  0  0  0  0  0  0  0
   -3.4660   -1.0730    0.2290 N   0  0  0  0  0  0  0  0  0  0  0  0
   -2.1470   -0.7790    0.0830 C   0  0  0  0  0  0  0  0  0  0  0  0
   -0.9940   -1.5640   -0.1390 C   0  0  0  0  0  0  0  0  0  0  0  0
   -1.1870   -3.0070   -0.0290 C   0  0  0  0  0  0  0  0  0  0  0  0
   -0.9950   -3.7460   -1.1880 O   0  0  0  0  0  0  0  0  0  0  0  0
    0.2310   -0.9650   -0.3130 C   0  0  0  0  0  0  0  0  0  0  0  0
    0.2960    0.4050   -0.2680 C   0  0  0  0  0  0  0  0  0  0  0  0
   -0.7810    1.2210   -0.0530 C   0  0  0  0  0  0  0  0  0  0  0  0
   -1.9850    0.5660    0.1300 C   0  0  0  0  0  0  0  0  0  0  0  0
    1.6270    1.0040   -0.6360 C   0  0  2  0  0  0  0  0  0  0  0  0
    1.7740    0.5780   -1.9990 O   0  0  0  0  0  0  0  0  0  0  0  0
    2.6670    0.3370    0.2180 C   0  0  2  0  0  0  0  0  0  0  0  0
    3.9770    0.9700   -0.0680 C   0  0  0  0  0  0  0  0  0  0  0  0
    4.7270    1.7260    0.8630 N   0  0  0  0  0  0  0  0  0  0  0  0
    4.4540    0.8340   -1.2220 O   0  0  0  0  0  0  0  0  0  0  0  0
    2.6200   -1.1480    0.1210 C   0  0  0  0  0  0  0  0  0  0  0  0
    1.4190   -1.6460   -0.5300 O   0  0  0  0  0  0  0  0  0  0  0  0
  1  2  1  0
  2  3  2  0
  2 12  1  0
  3  4  1  0
  4  5  1  0
  5  6  2  0
  5 12  1  0
  6  7  1  0
  6  9  1  0
  7  8  1  0
  9 10  2  0
  9 20  1  0
 10 11  1  0
 10 13  1  0
 11 12  2  0
 13 14  1  6
 13 15  1  0
 15 16  1  6
 15 19  1  0
 16 17  1  0
 16 18  2  0
 19 20  1  0
M  END
