
     RDKit          3D

 19 21  0  0  0  0  0  0  0  0999 V2000
    6.4240   -1.4340    1.4530 N   0  0  0  0  0  0  0  0  0  0  0  0
    5.3800   -0.7380    0.7980 C   0  0  0  0  0  0  0  0  0  0  0  0
    5.6800    0.0200   -0.3070 C   0  0  0  0  0  0  0  0  0  0  0  0
    4.6560    0.7100   -0.9580 C   0  0  0  0  0  0  0  0  0  0  0  0
    3.3750    0.6030   -0.4650 C   0  0  0  0  0  0  0  0  0  0  0  0
    2.1840    1.1640   -0.8990 C   0  0  0  0  0  0  0  0  0  0  0  0
    1.1960    0.7330   -0.0500 C   0  0  0  0  0  0  0  0  0  0  0  0
   -0.2420    1.0720   -0.1160 C   0  0  0  0  0  0  0  0  0  0  0  0
   -0.9670    0.2010   -0.8790 O   0  0  0  0  0  0  0  0  0  0  0  0
   -2.2940    0.4490   -1.0200 C   0  0  0  0  0  0  0  0  0  0  0  0
   -3.1390    0.4750    0.2020 C   0  0  2  0  0  0  0  0  0  0  0  0
   -2.8820    1.3920    1.1860 O   0  0  0  0  0  0  0  0  0  0  0  0
   -3.3410   -0.8980    0.8560 C   0  0  0  0  0  0  0  0  0  0  0  0
   -4.8240   -0.6850    0.7020 C   0  0  2  0  0  0  0  0  0  0  0  0
   -5.4520   -1.8390    0.1170 N   0  0  0  0  0  0  0  0  0  0  0  0
   -4.6170    0.4870   -0.2210 C   0  0  0  0  0  0  0  0  0  0  0  0
    1.7680   -0.0360    0.8330 O   0  0  0  0  0  0  0  0  0  0  0  0
    3.0470   -0.1520    0.6410 C   0  0  0  0  0  0  0  0  0  0  0  0
    4.0840   -0.8370    1.2830 C   0  0  0  0  0  0  0  0  0  0  0  0
  1  2  1  0
  2  3  2  0
  2 19  1  0
  3  4  1  0
  4  5  2  0
  5  6  1  0
  5 18  1  0
  6  7  2  0
  7  8  1  0
  7 17  1  0
  8  9  1  0
  9 10  1  0
 10 11  1  0
 11 12  1  1
 11 13  1  0
 11 16  1  0
 13 14  1  0
 14 15  1  6
 14 16  1  0
 17 18  1  0
 18 19  2  0
M  END
