
     RDKit          3D

 19 20  0  0  0  0  0  0  0  0999 V2000
   -4.5460    0.9990   -1.7160 N   0  0  0  0  0  0  0  0  0  0  0  0
   -3.8790    0.1530   -0.7930 C   0  0  0  0  0  0  0  0  0  0  0  0
   -4.5500   -0.7350    0.0100 C   0  0  0  0  0  0  0  0  0  0  0  0
   -3.9170   -1.5520    0.9010 C   0  0  0  0  0  0  0  0  0  0  0  0
   -2.5130   -1.5370    1.0550 C   0  0  0  0  0  0  0  0  0  0  0  0
   -1.9690   -2.3940    1.9750 O   0  0  0  0  0  0  0  0  0  0  0  0
   -1.8310   -0.6450    0.2500 C   0  0  0  0  0  0  0  0  0  0  0  0
   -0.3680   -0.5900    0.3720 C   0  0  0  0  0  0  0  0  0  0  0  0
    0.2710   -1.3000    1.1570 O   0  0  0  0  0  0  0  0  0  0  0  0
    0.3630    0.3010   -0.4250 N   0  0  0  0  0  0  0  0  0  0  0  0
    1.7790    0.4800   -0.4420 C   0  0  0  0  0  0  0  0  0  0  0  0
    2.2690    1.6600   -1.0340 C   0  0  0  0  0  0  0  0  0  0  0  0
    3.6230    1.8810   -1.0960 C   0  0  0  0  0  0  0  0  0  0  0  0
    4.5040    0.9570   -0.5850 C   0  0  0  0  0  0  0  0  0  0  0  0
    5.8830    1.1420   -0.6270 O   0  0  0  0  0  0  0  0  0  0  0  0
    4.0110   -0.1900   -0.0110 C   0  0  0  0  0  0  0  0  0  0  0  0
    4.8820   -1.1300    0.5080 O   0  0  0  0  0  0  0  0  0  0  0  0
    2.6310   -0.4520    0.0710 C   0  0  0  0  0  0  0  0  0  0  0  0
   -2.4870    0.1730   -0.6440 C   0  0  0  0  0  0  0  0  0  0  0  0
  1  2  1  0
  2  3  2  0
  2 19  1  0
  3  4  1  0
  4  5  2  0
  5  6  1  0
  5  7  1  0
  7  8  1  0
  7 19  2  0
  8  9  2  0
  8 10  1  0
 10 11  1  0
 11 12  2  0
 11 18  1  0
 12 13  1  0
 13 14  2  0
 14 15  1  0
 14 16  1  0
 16 17  1  0
 16 18  2  0
M  END
