
     RDKit          3D

 20 22  0  0  0  0  0  0  0  0999 V2000
   -4.2730   -1.0190    0.3650 N   0  0  0  0  0  0  0  0  0  0  0  0
   -3.7290    0.2790    0.0930 C   0  0  0  0  0  0  0  0  0  0  0  0
   -2.2550    0.3430    0.1190 C   0  0  0  0  0  0  0  0  0  0  0  0
   -1.6430    1.1390    0.9750 C   0  0  0  0  0  0  0  0  0  0  0  0
   -2.3850    1.9340    1.8700 O   0  0  0  0  0  0  0  0  0  0  0  0
   -1.4370   -0.4630   -0.7980 C   0  0  2  0  0  0  0  0  0  0  0  0
   -1.8170   -0.1740   -2.1000 O   0  0  0  0  0  0  0  0  0  0  0  0
   -1.4960   -1.9500   -0.5390 C   0  0  0  0  0  0  0  0  0  0  0  0
   -0.5530   -2.0790    0.6340 C   0  0  0  0  0  0  0  0  0  0  0  0
    0.5440   -1.1720    0.2570 C   0  0  0  0  0  0  0  0  0  0  0  0
    1.8780   -1.1810    0.6210 C   0  0  0  0  0  0  0  0  0  0  0  0
    2.7380   -0.2120    0.1390 C   0  0  0  0  0  0  0  0  0  0  0  0
    2.2450    0.7550   -0.7040 C   0  0  0  0  0  0  0  0  0  0  0  0
    0.8950    0.7460   -1.0580 C   0  0  0  0  0  0  0  0  0  0  0  0
    0.0310   -0.2120   -0.5850 C   0  0  0  0  0  0  0  0  0  0  0  0
    3.1110    1.7260   -1.1850 O   0  0  0  0  0  0  0  0  0  0  0  0
    4.2990    2.0490   -0.4890 C   0  0  0  0  0  0  0  0  0  0  0  0
    4.9490    0.7960   -0.0100 C   0  0  0  0  0  0  0  0  0  0  0  0
    6.1830    0.6230   -0.0590 O   0  0  0  0  0  0  0  0  0  0  0  0
    4.1160   -0.2230    0.5160 N   0  0  0  0  0  0  0  0  0  0  0  0
  1  2  1  0
  2  3  1  0
  3  4  2  3
  3  6  1  0
  4  5  1  0
  6  7  1  6
  6  8  1  0
  6 15  1  0
  8  9  1  0
  9 10  1  0
 10 11  2  0
 10 15  1  0
 11 12  1  0
 12 13  2  0
 12 20  1  0
 13 14  1  0
 13 16  1  0
 14 15  2  0
 16 17  1  0
 17 18  1  0
 18 19  2  0
 18 20  1  0
M  END
