
     RDKit          3D

 20 21  0  0  0  0  0  0  0  0999 V2000
   -5.9030   -0.4380    0.9270 C   0  0  0  0  0  0  0  0  0  0  0  0
   -5.0120   -0.2000   -0.2470 C   0  0  0  0  0  0  0  0  0  0  0  0
   -3.5900   -0.2030    0.2380 C   0  0  0  0  0  0  0  0  0  0  0  0
   -3.3730   -0.3860    1.4420 O   0  0  0  0  0  0  0  0  0  0  0  0
   -2.5750    0.0030   -0.6990 N   0  0  0  0  0  0  0  0  0  0  0  0
   -1.1970    0.0310   -0.4210 C   0  0  0  0  0  0  0  0  0  0  0  0
   -0.6600   -0.1430    0.8300 C   0  0  0  0  0  0  0  0  0  0  0  0
    0.7230   -0.1100    1.0800 C   0  0  0  0  0  0  0  0  0  0  0  0
    1.2710   -0.2840    2.3340 O   0  0  0  0  0  0  0  0  0  0  0  0
    1.5490    0.1080    0.0070 C   0  0  0  0  0  0  0  0  0  0  0  0
    3.0070    0.1600    0.1660 C   0  0  0  0  0  0  0  0  0  0  0  0
    3.7880    1.1310   -0.4270 C   0  0  0  0  0  0  0  0  0  0  0  0
    5.1630    1.1290   -0.2400 C   0  0  0  0  0  0  0  0  0  0  0  0
    5.8000    0.2120    0.5070 N   0  0  0  0  0  0  0  0  0  0  0  0
    5.0460   -0.7380    1.0880 C   0  0  0  0  0  0  0  0  0  0  0  0
    5.6600   -1.5990    1.7900 O   0  0  0  0  0  0  0  0  0  0  0  0
    3.6690   -0.7800    0.9320 C   0  0  0  0  0  0  0  0  0  0  0  0
    1.0170    0.2840   -1.2520 C   0  0  0  0  0  0  0  0  0  0  0  0
   -0.3390    0.2520   -1.5000 C   0  0  0  0  0  0  0  0  0  0  0  0
   -0.7540    0.4410   -2.8040 O   0  0  0  0  0  0  0  0  0  0  0  0
  1  2  1  0
  2  3  1  0
  3  4  2  0
  3  5  1  0
  5  6  1  0
  6  7  2  0
  6 19  1  0
  7  8  1  0
  8  9  1  0
  8 10  2  0
 10 11  1  0
 10 18  1  0
 11 12  1  0
 11 17  2  0
 12 13  2  0
 13 14  1  0
 14 15  1  0
 15 16  2  0
 15 17  1  0
 18 19  2  0
 19 20  1  0
M  END
