
     RDKit          3D

 14 14  0  0  0  0  0  0  0  0999 V2000
   -2.3880    1.5580    1.1940 C   0  0  0  0  0  0  0  0  0  0  0  0
   -2.0670    0.4230    0.2280 C   0  0  2  0  0  0  0  0  0  0  0  0
   -3.3210   -0.4030    0.1070 C   0  0  0  0  0  0  0  0  0  0  0  0
   -0.9130   -0.3670    0.8090 C   0  0  0  0  0  0  0  0  0  0  0  0
    0.1620   -0.4410   -0.2600 C   0  0  1  0  0  0  0  0  0  0  0  0
    1.3540   -1.2440    0.1710 C   0  0  0  0  0  0  0  0  0  0  0  0
    2.4140   -0.3970    0.8510 C   0  0  0  0  0  0  0  0  0  0  0  0
    2.7390    0.7700    0.0580 N   0  0  0  0  0  0  0  0  0  0  0  0
    4.4450    0.8990   -0.0860 S   0  0  1  0  0  0  0  0  0  0  0  0
    5.0840    0.4270    1.2000 O   0  0  0  0  0  0  0  0  0  0  0  0
    4.9820    0.0700   -1.2170 O   0  0  0  0  0  0  0  0  0  0  0  0
   -0.5110   -1.0300   -1.4910 C   0  0  0  0  0  0  0  0  0  0  0  0
   -1.5430   -0.0190   -1.9440 C   0  0  0  0  0  0  0  0  0  0  0  0
   -1.7310    0.9830   -1.0050 O   0  0  0  0  0  0  0  0  0  0  0  0
  2  1  1  1
  2  3  1  0
  2  4  1  0
  2 14  1  0
  4  5  1  0
  5  6  1  1
  5 12  1  0
  6  7  1  0
  7  8  1  0
  9  8  1  1
  9 10  2  0
  9 11  2  0
 12 13  1  0
 13 14  1  0
M  END
