
     RDKit          3D

 14 14  0  0  0  0  0  0  0  0999 V2000
    3.7790   -0.6080    1.0690 C   0  0  0  0  0  0  0  0  0  0  0  0
    2.9310   -1.0230    0.0370 O   0  0  0  0  0  0  0  0  0  0  0  0
    1.6690   -0.5110    0.3460 C   0  0  0  0  0  0  0  0  0  0  0  0
    0.6330   -0.8660   -0.6670 C   0  0  0  0  0  0  0  0  0  0  0  0
   -0.6700   -0.2820   -0.2520 C   0  0  2  0  0  0  0  0  0  0  0  0
   -0.9880   -0.8570    1.0790 C   0  0  0  0  0  0  0  0  0  0  0  0
   -1.2220   -1.3210    2.1140 N   0  0  0  0  0  0  0  0  0  0  0  0
   -1.8230   -0.7220   -1.1390 C   0  0  0  0  0  0  0  0  0  0  0  0
   -3.0620   -0.2110   -0.4410 C   0  0  0  0  0  0  0  0  0  0  0  0
   -4.1310   -0.4920   -0.9050 O   0  0  0  0  0  0  0  0  0  0  0  0
   -2.9340    0.7870    1.0400 S   0  0  0  0  0  0  0  0  0  0  0  0
   -1.3030    1.6260    1.0930 C   0  0  0  0  0  0  0  0  0  0  0  0
   -0.6280    1.2210   -0.2280 C   0  0  2  0  0  0  0  0  0  0  0  0
   -1.4890    1.7210   -1.2320 O   0  0  0  0  0  0  0  0  0  0  0  0
  1  2  1  0
  2  3  1  0
  3  4  1  0
  5  4  1  6
  5  6  1  0
  5  8  1  0
  5 13  1  0
  6  7  3  0
  8  9  1  0
  9 10  2  0
  9 11  1  0
 11 12  1  0
 12 13  1  0
 13 14  1  6
M  END
