
     RDKit          3D

 14 14  0  0  0  0  0  0  0  0999 V2000
    3.5780    1.8270    0.5330 C   0  0  0  0  0  0  0  0  0  0  0  0
    3.6950    0.4050    1.0580 C   0  0  0  0  0  0  0  0  0  0  0  0
    2.0350   -0.2060    1.5530 S   0  0  0  0  0  0  0  0  0  0  0  0
    1.0810   -0.3360    0.0230 C   0  0  1  0  0  0  0  0  0  0  0  0
    1.5710   -1.3970   -0.8870 C   0  0  0  0  0  0  0  0  0  0  0  0
    0.5370   -2.2460   -1.1820 O   0  0  0  0  0  0  0  0  0  0  0  0
   -0.6390   -1.6030   -0.9160 C   0  0  0  0  0  0  0  0  0  0  0  0
   -0.3680   -0.6690    0.2320 C   0  0  1  0  0  0  0  0  0  0  0  0
   -0.5940   -1.4450    1.5090 C   0  0  0  0  0  0  0  0  0  0  0  0
   -1.1880    0.5290    0.1540 N   0  0  0  0  0  0  0  0  0  0  0  0
   -2.5810    0.4960    0.1380 C   0  0  0  0  0  0  0  0  0  0  0  0
   -3.1860   -0.5910    0.1910 O   0  0  0  0  0  0  0  0  0  0  0  0
   -3.3690    1.6630    0.0610 O   0  0  0  0  0  0  0  0  0  0  0  0
   -4.7710    1.5480    0.0470 C   0  0  0  0  0  0  0  0  0  0  0  0
  1  2  1  0
  2  3  1  0
  4  3  1  1
  4  5  1  0
  4  8  1  0
  5  6  1  0
  6  7  1  0
  7  8  1  0
  8  9  1  1
  8 10  1  0
 10 11  1  0
 11 12  2  0
 11 13  1  0
 13 14  1  0
M  END
