
     RDKit          3D

 12 11  0  0  0  0  0  0  0  0999 V2000
    4.0990   -0.0440    0.9290 N   0  0  0  0  0  0  0  0  0  0  0  0
    3.2590   -0.5450   -0.1410 C   0  0  0  0  0  0  0  0  0  0  0  0
    1.8410   -0.6710    0.2840 C   0  0  0  0  0  0  0  0  0  0  0  0
    0.8550   -0.0330   -0.2890 C   0  0  0  0  0  0  0  0  0  0  0  0
    1.1000    0.8110   -1.3470 O   0  0  0  0  0  0  0  0  0  0  0  0
   -0.5520   -0.1870    0.1680 C   0  0  1  0  0  0  0  0  0  0  0  0
   -0.6840   -1.1240    1.3150 C   0  0  0  0  0  0  0  0  0  0  0  0
   -2.0260   -1.3180    1.6050 O   0  0  0  0  0  0  0  0  0  0  0  0
   -1.1100    1.0240    0.4380 O   0  0  0  0  0  0  0  0  0  0  0  0
   -2.1000    1.4780   -0.3710 C   0  0  0  0  0  0  0  0  0  0  0  0
   -3.3100    0.5780   -0.4100 C   0  0  0  0  0  0  0  0  0  0  0  0
   -4.2870    1.1280   -1.2740 O   0  0  0  0  0  0  0  0  0  0  0  0
  1  2  1  0
  2  3  1  0
  3  4  2  3
  4  5  1  0
  4  6  1  0
  6  7  1  1
  6  9  1  0
  7  8  1  0
  9 10  1  0
 10 11  1  0
 11 12  1  0
M  CHG  1   1   1
M  END
