
     RDKit          3D

 14 14  0  0  0  0  0  0  0  0999 V2000
   -2.3440    2.2690    0.7220 C   0  0  0  0  0  0  0  0  0  0  0  0
   -2.7530    1.0940    0.3570 C   0  0  0  0  0  0  0  0  0  0  0  0
   -4.1280    0.8140    0.2060 O   0  0  0  0  0  0  0  0  0  0  0  0
   -4.5940   -0.4300    0.3600 O   0  0  0  0  0  0  0  0  0  0  0  0
   -3.8700   -1.3310   -0.4110 C   0  0  0  0  0  0  0  0  0  0  0  0
   -2.4010   -1.1420   -0.2840 C   0  0  0  0  0  0  0  0  0  0  0  0
   -1.8300   -0.0090    0.0780 C   0  0  0  0  0  0  0  0  0  0  0  0
   -0.4300    0.1830    0.2030 N   0  0  0  0  0  0  0  0  0  0  0  0
    0.6030   -0.7340   -0.0150 C   0  0  0  0  0  0  0  0  0  0  0  0
    0.3230   -1.8940   -0.3700 O   0  0  0  0  0  0  0  0  0  0  0  0
    2.0470   -0.3770    0.1610 C   0  0  1  0  0  0  0  0  0  0  0  0
    2.8680   -1.5860   -0.1540 C   0  0  0  0  0  0  0  0  0  0  0  0
    2.3860    1.0250   -0.9160 S   0  0  0  0  0  0  0  0  0  0  0  0
    4.0810    1.5880   -0.8310 C   0  0  0  0  0  0  0  0  0  0  0  0
  1  2  2  0
  2  3  1  0
  2  7  1  0
  3  4  1  0
  4  5  1  0
  5  6  1  0
  6  7  2  0
  7  8  1  0
  8  9  1  0
  9 10  2  0
  9 11  1  0
 11 12  1  6
 11 13  1  0
 13 14  1  0
M  END
