
     RDKit          3D

 14 14  0  0  0  0  0  0  0  0999 V2000
    2.4100   -0.4660   -0.8760 C   0  0  0  0  0  0  0  0  0  0  0  0
    1.8920    0.1680    0.4010 C   0  0  2  0  0  0  0  0  0  0  0  0
    2.8700   -0.1650    1.5000 C   0  0  0  0  0  0  0  0  0  0  0  0
    4.5190    0.4530    1.1750 S   0  0  0  0  0  0  0  0  0  0  0  0
    0.5220   -0.2820    0.7560 C   0  0  0  0  0  0  0  0  0  0  0  0
    0.3850   -0.9080    1.8510 O   0  0  0  0  0  0  0  0  0  0  0  0
   -0.5880   -0.0380   -0.0660 N   0  0  0  0  0  0  0  0  0  0  0  0
   -0.5960    0.6650   -1.3480 C   0  0  0  0  0  0  0  0  0  0  0  0
   -1.8260    0.1090   -2.0460 C   0  0  0  0  0  0  0  0  0  0  0  0
   -2.8190    0.0440   -0.9060 C   0  0  0  0  0  0  0  0  0  0  0  0
   -1.9480   -0.4520    0.2230 C   0  0  2  0  0  0  0  0  0  0  0  0
   -2.3430    0.1310    1.5130 C   0  0  0  0  0  0  0  0  0  0  0  0
   -1.5500    0.8490    2.1450 O   0  0  0  0  0  0  0  0  0  0  0  0
   -3.6130   -0.1290    2.0220 O   0  0  0  0  0  0  0  0  0  0  0  0
  2  1  1  6
  2  3  1  0
  2  5  1  0
  3  4  1  0
  5  6  2  0
  5  7  1  0
  7  8  1  0
  7 11  1  0
  8  9  1  0
  9 10  1  0
 10 11  1  0
 11 12  1  1
 12 13  2  0
 12 14  1  0
M  END
