
     RDKit          3D

 32 35  0  0  0  0  0  0  0  0999 V2000
   10.2190   -0.1090    2.9690 C   0  0  0  0  0  0  0  0  0  0  0  0
    8.7380   -0.2610    3.0360 C   0  0  0  0  0  0  0  0  0  0  0  0
    7.9780   -0.1540    1.9530 C   0  0  0  0  0  0  0  0  0  0  0  0
    8.3630    0.0900    0.6970 N   0  0  0  0  0  0  0  0  0  0  0  0
    7.2770    0.1180   -0.0870 C   0  0  0  0  0  0  0  0  0  0  0  0
    7.2370    0.4010   -1.8190 Cl  0  0  0  0  0  0  0  0  0  0  0  0
    6.1710   -0.1080    0.6440 N   0  0  0  0  0  0  0  0  0  0  0  0
    4.8240   -0.2240    0.5770 C   0  0  0  0  0  0  0  0  0  0  0  0
    3.8440   -0.0780   -0.8590 S   0  0  1  0  0  0  0  0  0  0  0  0
    4.1260    1.2030   -1.5920 O   0  0  0  0  0  0  0  0  0  0  0  0
    4.2660   -1.2180   -1.7760 O   0  0  0  0  0  0  0  0  0  0  0  0
    2.2090   -0.2980   -0.4920 N   0  0  0  0  0  0  0  0  0  0  0  0
    1.6270    0.6400    0.4180 C   0  0  0  0  0  0  0  0  0  0  0  0
    0.5150    1.4540   -0.1810 C   0  0  0  0  0  0  0  0  0  0  0  0
   -0.5710    0.6060   -0.8400 C   0  0  0  0  0  0  0  0  0  0  0  0
   -0.0690   -0.7620   -1.0620 C   0  0  1  0  0  0  0  0  0  0  0  0
   -0.8380   -1.6760   -1.9280 C   0  0  0  0  0  0  0  0  0  0  0  0
   -2.2000   -1.9950   -1.5140 C   0  0  0  0  0  0  0  0  0  0  0  0
   -3.2180   -0.9420   -1.5440 C   0  0  0  0  0  0  0  0  0  0  0  0
   -3.1530    0.1690   -2.1160 O   0  0  0  0  0  0  0  0  0  0  0  0
   -4.4550   -1.1330   -0.8660 O   0  0  0  0  0  0  0  0  0  0  0  0
   -5.4560   -0.1740   -0.8610 C   0  0  1  0  0  0  0  0  0  0  0  0
   -6.7120   -0.6260   -1.5870 C   0  0  0  0  0  0  0  0  0  0  0  0
   -7.4750    0.6650   -1.9190 C   0  0  0  0  0  0  0  0  0  0  0  0
   -7.8160    1.4180   -0.6550 C   0  0  0  0  0  0  0  0  0  0  0  0
   -6.6670    1.6040    0.2790 C   0  0  0  0  0  0  0  0  0  0  0  0
   -5.8850    0.3190    0.4810 C   0  0  2  0  0  0  0  0  0  0  0  0
   -4.8050    0.5380    1.4110 N   0  0  0  0  0  0  0  0  0  0  0  0
    1.3680   -0.5970   -1.6220 C   0  0  0  0  0  0  0  0  0  0  0  0
    4.4110   -0.4760    1.8630 C   0  0  0  0  0  0  0  0  0  0  0  0
    5.4980   -0.5130    2.7030 C   0  0  0  0  0  0  0  0  0  0  0  0
    6.5990   -0.2780    1.9170 C   0  0  0  0  0  0  0  0  0  0  0  0
  1  2  1  0
  2  3  2  3
  3  4  1  0
  3 32  1  0
  4  5  2  0
  5  6  1  0
  5  7  1  0
  7  8  1  0
  7 32  1  0
  8  9  1  0
  8 30  2  0
  9 10  2  0
  9 11  2  0
  9 12  1  1
 12 13  1  0
 12 29  1  0
 13 14  1  0
 14 15  1  0
 15 16  1  0
 16 17  1  6
 16 29  1  0
 17 18  1  0
 18 19  1  0
 19 20  2  0
 19 21  1  0
 22 21  1  1
 22 23  1  0
 22 27  1  0
 23 24  1  0
 24 25  1  0
 25 26  1  0
 26 27  1  0
 27 28  1  1
 30 31  1  0
 31 32  2  0
M  CHG  1  28   1
M  END
