
     RDKit          3D

 33 36  0  0  0  0  0  0  0  0999 V2000
    4.6200    1.7520   -0.8880 N   0  0  0  0  0  0  0  0  0  0  0  0
    3.5390    0.8860   -1.3600 C   0  0  0  0  0  0  0  0  0  0  0  0
    3.4100   -0.3170   -0.5140 C   0  0  0  0  0  0  0  0  0  0  0  0
    4.2500   -0.4880    0.5060 C   0  0  0  0  0  0  0  0  0  0  0  0
    4.1860   -1.6760    1.4070 C   0  0  1  0  0  0  0  0  0  0  0  0
    3.3330   -1.4460    2.4690 F   0  0  0  0  0  0  0  0  0  0  0  0
    3.6950   -3.1280    0.5000 Cl  0  0  0  0  0  0  0  0  0  0  0  0
    2.1490   -1.5330   -0.8200 S   0  0  0  0  0  0  0  0  0  0  0  0
    0.8430   -0.9040   -1.8100 C   0  0  0  0  0  0  0  0  0  0  0  0
   -0.2900   -0.1670   -1.1670 C   0  0  1  0  0  0  0  0  0  0  0  0
   -1.0530   -1.0510   -0.2290 C   0  0  0  0  0  0  0  0  0  0  0  0
   -0.8960   -0.8210    0.9770 O   0  0  0  0  0  0  0  0  0  0  0  0
   -1.8860   -2.0660   -0.6850 N   0  0  0  0  0  0  0  0  0  0  0  0
   -2.1750   -2.4220   -2.0610 C   0  0  0  0  0  0  0  0  0  0  0  0
   -1.6400   -3.8340   -2.2210 C   0  0  0  0  0  0  0  0  0  0  0  0
   -2.3670   -4.6630   -1.3350 O   0  0  0  0  0  0  0  0  0  0  0  0
   -2.7900   -4.2140   -0.0980 C   0  0  0  0  0  0  0  0  0  0  0  0
   -3.4470   -5.0350    0.8190 C   0  0  0  0  0  0  0  0  0  0  0  0
   -3.8560   -4.5530    2.0500 C   0  0  0  0  0  0  0  0  0  0  0  0
   -3.6310   -3.2440    2.4130 C   0  0  0  0  0  0  0  0  0  0  0  0
   -2.9810   -2.4200    1.5130 C   0  0  0  0  0  0  0  0  0  0  0  0
   -2.5660   -2.8900    0.2780 C   0  0  0  0  0  0  0  0  0  0  0  0
    0.0580    1.0770   -0.5080 N   0  0  0  0  0  0  0  0  0  0  0  0
    0.7940    1.3250    0.6760 C   0  0  0  0  0  0  0  0  0  0  0  0
    1.1910    0.5010    1.5180 O   0  0  0  0  0  0  0  0  0  0  0  0
    1.0580    2.8030    0.8140 C   0  0  0  0  0  0  0  0  0  0  0  0
   -0.2000    3.3230    0.1570 C   0  0  1  0  0  0  0  0  0  0  0  0
   -1.4230    3.1520    1.0300 C   0  0  0  0  0  0  0  0  0  0  0  0
   -2.3470    4.1850    0.3690 C   0  0  0  0  0  0  0  0  0  0  0  0
   -1.4350    5.3170    0.2560 N   0  0  0  0  0  0  0  0  0  0  0  0
   -0.1750    4.7610   -0.2050 C   0  0  0  0  0  0  0  0  0  0  0  0
   -0.3130    2.3990   -0.9920 C   0  0  0  0  0  0  0  0  0  0  0  0
   -0.6490    2.6250   -2.1640 O   0  0  0  0  0  0  0  0  0  0  0  0
  1  2  1  0
  2  3  1  0
  3  4  2  3
  3  8  1  0
  4  5  1  0
  5  6  1  1
  5  7  1  0
  8  9  1  0
 10  9  1  1
 10 11  1  0
 10 23  1  0
 11 12  2  0
 11 13  1  0
 13 14  1  0
 13 22  1  0
 14 15  1  0
 15 16  1  0
 16 17  1  0
 17 18  2  0
 17 22  1  0
 18 19  1  0
 19 20  2  0
 20 21  1  0
 21 22  2  0
 23 24  1  0
 23 32  1  0
 24 25  2  0
 24 26  1  0
 27 26  1  1
 27 28  1  0
 27 31  1  0
 27 32  1  0
 28 29  1  0
 29 30  1  0
 30 31  1  0
 32 33  2  0
M  CHG  1   1   1
M  END
