
     RDKit          3D

 33 35  0  0  0  0  0  0  0  0999 V2000
    0.5960    2.3080   -0.8980 C   0  0  0  0  0  0  0  0  0  0  0  0
    0.3330    0.9020   -0.8400 O   0  0  0  0  0  0  0  0  0  0  0  0
    0.5390    0.2250    0.3690 C   0  0  0  0  0  0  0  0  0  0  0  0
    1.0900    0.8230    1.3020 O   0  0  0  0  0  0  0  0  0  0  0  0
    0.1330   -1.2310    0.5130 C   0  0  2  0  0  0  0  0  0  0  0  0
    0.4530   -2.0880   -0.6740 C   0  0  0  0  0  0  0  0  0  0  0  0
    1.8920   -1.7860   -0.9490 C   0  0  0  0  0  0  0  0  0  0  0  0
    2.7480   -2.0950    0.0320 C   0  0  0  0  0  0  0  0  0  0  0  0
    4.0340   -1.6320   -0.0890 C   0  0  0  0  0  0  0  0  0  0  0  0
    4.4550   -0.9090   -1.1880 C   0  0  0  0  0  0  0  0  0  0  0  0
    5.8380   -0.5810   -1.1900 C   0  0  0  0  0  0  0  0  0  0  0  0
    6.9250   -0.3290   -1.1850 C   0  0  0  0  0  0  0  0  0  0  0  0
    8.4430   -0.0040   -1.1740 C   0  0  0  0  0  0  0  0  0  0  0  0
    9.1790    0.6320   -1.9590 C   0  0  0  0  0  0  0  0  0  0  0  0
   10.4840    1.0540   -1.4800 C   0  0  0  0  0  0  0  0  0  0  0  0
   10.8530    0.7660   -0.1840 C   0  0  0  0  0  0  0  0  0  0  0  0
   10.0540    0.0480    0.6930 C   0  0  0  0  0  0  0  0  0  0  0  0
    8.8500   -0.3340    0.1890 C   0  0  0  0  0  0  0  0  0  0  0  0
    3.5930   -0.5890   -2.1750 C   0  0  0  0  0  0  0  0  0  0  0  0
    2.2730   -1.0610   -2.0450 C   0  0  0  0  0  0  0  0  0  0  0  0
   -1.3360   -1.0520    0.3390 N   0  0  0  0  0  0  0  0  0  0  0  0
   -1.9420    0.2450    0.6610 C   0  0  0  0  0  0  0  0  0  0  0  0
   -1.3810    1.1180    1.2310 O   0  0  0  0  0  0  0  0  0  0  0  0
   -3.3740    0.2330    0.2180 C   0  0  0  0  0  0  0  0  0  0  0  0
   -4.4090    0.6810    1.1350 C   0  0  1  0  0  0  0  0  0  0  0  0
   -4.7820    2.0840    1.1700 C   0  0  0  0  0  0  0  0  0  0  0  0
   -5.8810    2.2350    2.2280 C   0  0  0  0  0  0  0  0  0  0  0  0
   -7.0790    1.4100    1.7910 C   0  0  0  0  0  0  0  0  0  0  0  0
   -6.7770    0.2920    0.9680 N   0  0  0  0  0  0  0  0  0  0  0  0
   -7.5890   -0.3590   -0.0060 C   0  0  0  0  0  0  0  0  0  0  0  0
   -8.8300   -0.8230    0.4440 N   0  0  0  0  0  0  0  0  0  0  0  0
   -7.1180   -0.5370   -1.1780 N   0  0  0  0  0  0  0  0  0  0  0  0
   -5.4820   -0.3520    1.1660 C   0  0  0  0  0  0  0  0  0  0  0  0
  1  2  1  0
  2  3  1  0
  3  4  2  0
  3  5  1  0
  5  6  1  6
  5 21  1  0
  6  7  1  0
  7  8  2  0
  7 20  1  0
  8  9  1  0
  9 10  2  0
 10 11  1  0
 10 19  1  0
 11 12  3  0
 12 13  1  0
 13 14  2  0
 13 18  1  0
 14 15  1  0
 15 16  2  0
 16 17  1  0
 17 18  2  0
 19 20  2  0
 21 22  1  0
 22 23  2  0
 22 24  1  0
 25 24  1  6
 25 26  1  0
 25 33  1  0
 26 27  1  0
 27 28  1  0
 28 29  1  0
 29 30  1  0
 29 33  1  0
 30 31  1  0
 30 32  2  0
M  CHG  1  32   1
M  END
