
     RDKit          3D

 33 36  0  0  0  0  0  0  0  0999 V2000
    4.5020   -4.2270    3.6290 O   0  0  0  0  0  0  0  0  0  0  0  0
    3.8920   -3.9570    2.2630 S   0  0  0  0  0  0  0  0  0  0  0  0
    4.9490   -2.8740    1.3030 C   0  0  0  0  0  0  0  0  0  0  0  0
    4.0880   -1.9060    0.5530 C   0  0  0  0  0  0  0  0  0  0  0  0
    4.7040   -1.0910   -0.1580 O   0  0  0  0  0  0  0  0  0  0  0  0
    2.6570   -1.9120    0.6450 C   0  0  0  0  0  0  0  0  0  0  0  0
    1.8330   -1.1170    0.0360 C   0  0  0  0  0  0  0  0  0  0  0  0
    2.1150   -0.0350   -0.8760 C   0  0  0  0  0  0  0  0  0  0  0  0
    1.2780    0.7510   -1.4800 C   0  0  0  0  0  0  0  0  0  0  0  0
   -0.1780    0.6950   -1.3550 C   0  0  1  0  0  0  0  0  0  0  0  0
   -0.8180   -0.5570   -1.3330 N   0  0  0  0  0  0  0  0  0  0  0  0
   -1.9170   -0.8040   -0.4660 C   0  0  0  0  0  0  0  0  0  0  0  0
   -2.3050    0.0390    0.4740 C   0  0  0  0  0  0  0  0  0  0  0  0
   -3.4420   -0.1870    1.4010 C   0  0  0  0  0  0  0  0  0  0  0  0
   -4.1040   -1.4290    1.1880 N   0  0  0  0  0  0  0  0  0  0  0  0
   -5.1950   -1.7010    0.3360 C   0  0  0  0  0  0  0  0  0  0  0  0
   -5.7960   -0.8710   -0.3880 O   0  0  0  0  0  0  0  0  0  0  0  0
   -5.5650   -3.1390    0.3970 C   0  0  0  0  0  0  0  0  0  0  0  0
   -4.8940   -3.6290    1.6390 C   0  0  0  0  0  0  0  0  0  0  0  0
   -3.7710   -2.6590    1.8180 C   0  0  0  0  0  0  0  0  0  0  0  0
   -2.7180   -2.9670    2.4480 O   0  0  0  0  0  0  0  0  0  0  0  0
   -1.5970    1.2740    0.5300 N   0  0  0  0  0  0  0  0  0  0  0  0
   -0.6550    1.5760   -0.2680 C   0  0  0  0  0  0  0  0  0  0  0  0
   -0.0650    2.8740   -0.0310 N   0  0  0  0  0  0  0  0  0  0  0  0
    0.9310    3.6010   -0.7320 C   0  0  0  0  0  0  0  0  0  0  0  0
    1.0040    4.9410   -0.3390 C   0  0  0  0  0  0  0  0  0  0  0  0
    1.9060    5.8220   -0.8970 C   0  0  0  0  0  0  0  0  0  0  0  0
    2.7650    5.3690   -1.8740 C   0  0  0  0  0  0  0  0  0  0  0  0
    2.6970    4.0500   -2.2660 C   0  0  0  0  0  0  0  0  0  0  0  0
    1.7870    3.1440   -1.7090 C   0  0  0  0  0  0  0  0  0  0  0  0
    1.9690    1.8000   -2.3480 C   0  0  2  0  0  0  0  0  0  0  0  0
    1.2960    1.8060   -3.5510 F   0  0  0  0  0  0  0  0  0  0  0  0
    3.6490    1.4170   -2.6520 Cl  0  0  0  0  0  0  0  0  0  0  0  0
  1  2  2  0
  2  3  1  0
  3  4  1  0
  4  5  2  0
  4  6  1  0
  6  7  2  3
  7  8  1  0
  8  9  2  3
  9 10  1  0
  9 31  1  0
 10 11  1  1
 10 23  1  0
 11 12  1  0
 12 13  2  0
 13 14  1  0
 13 22  1  0
 14 15  1  0
 15 16  1  0
 15 20  1  0
 16 17  2  0
 16 18  1  0
 18 19  1  0
 19 20  1  0
 20 21  2  0
 22 23  2  0
 23 24  1  0
 24 25  1  0
 25 26  2  0
 25 30  1  0
 26 27  1  0
 27 28  2  0
 28 29  1  0
 29 30  2  0
 30 31  1  0
 31 32  1  6
 31 33  1  0
M  CHG  1  22   1
M  END
