
     RDKit          3D

 33 36  0  0  0  0  0  0  0  0999 V2000
    1.8460    1.1020   -1.9660 C   0  0  0  0  0  0  0  0  0  0  0  0
    1.6000    1.0320   -0.4820 C   0  0  1  0  0  0  0  0  0  0  0  0
    2.8710    0.8300    0.2790 C   0  0  0  0  0  0  0  0  0  0  0  0
    3.1670    1.7150    1.1110 O   0  0  0  0  0  0  0  0  0  0  0  0
    3.6590   -0.3020    0.0450 N   0  0  0  0  0  0  0  0  0  0  0  0
    4.8510   -0.5850    0.6950 C   0  0  0  0  0  0  0  0  0  0  0  0
    5.4160    0.1950    1.6480 C   0  0  0  0  0  0  0  0  0  0  0  0
    6.6310   -0.1680    2.2580 C   0  0  0  0  0  0  0  0  0  0  0  0
    7.2670   -1.2860    1.9220 N   0  0  0  0  0  0  0  0  0  0  0  0
    6.7250   -2.0800    0.9750 C   0  0  0  0  0  0  0  0  0  0  0  0
    5.5380   -1.7520    0.3610 C   0  0  0  0  0  0  0  0  0  0  0  0
    5.0520   -2.5940   -0.5810 F   0  0  0  0  0  0  0  0  0  0  0  0
    0.9990    2.3470   -0.0500 C   0  0  0  0  0  0  0  0  0  0  0  0
   -0.1770    2.5730   -0.9260 C   0  0  0  0  0  0  0  0  0  0  0  0
   -0.3450    3.6210   -1.6010 O   0  0  0  0  0  0  0  0  0  0  0  0
   -1.1450    1.5110   -0.9730 N   0  0  0  0  0  0  0  0  0  0  0  0
   -2.4770    1.7750   -1.5060 C   0  0  0  0  0  0  0  0  0  0  0  0
   -3.4060    2.2240   -0.4270 C   0  0  0  0  0  0  0  0  0  0  0  0
   -2.9720    3.4400    0.2270 N   0  0  0  0  0  0  0  0  0  0  0  0
   -3.2220    4.7170   -0.0430 C   0  0  0  0  0  0  0  0  0  0  0  0
   -2.5940    5.5580    0.8510 C   0  0  0  0  0  0  0  0  0  0  0  0
   -1.9180    4.6960    1.7180 C   0  0  0  0  0  0  0  0  0  0  0  0
   -2.1670    3.4040    1.3130 C   0  0  0  0  0  0  0  0  0  0  0  0
   -0.7340    0.2400   -0.4880 C   0  0  0  0  0  0  0  0  0  0  0  0
   -1.6480   -0.7140   -0.3720 C   0  0  0  0  0  0  0  0  0  0  0  0
   -1.2630   -2.0260    0.1200 C   0  0  0  0  0  0  0  0  0  0  0  0
   -2.1270   -3.0130    0.2570 C   0  0  0  0  0  0  0  0  0  0  0  0
   -1.7680   -4.3610    0.7560 C   0  0  0  0  0  0  0  0  0  0  0  0
   -2.2150   -5.3660   -0.1710 N   0  0  0  0  0  0  0  0  0  0  0  0
   -3.3040   -4.9450   -1.0110 C   0  0  0  0  0  0  0  0  0  0  0  0
   -4.2400   -3.9730   -0.2820 C   0  0  0  0  0  0  0  0  0  0  0  0
   -3.4530   -2.7890   -0.0820 O   0  0  0  0  0  0  0  0  0  0  0  0
    0.6720   -0.0860   -0.1020 C   0  0  0  0  0  0  0  0  0  0  0  0
  2  1  1  6
  2  3  1  0
  2 13  1  0
  2 33  1  0
  3  4  2  0
  3  5  1  0
  5  6  1  0
  6  7  2  0
  6 11  1  0
  7  8  1  0
  8  9  2  0
  9 10  1  0
 10 11  2  0
 11 12  1  0
 13 14  1  0
 14 15  2  0
 14 16  1  0
 16 17  1  0
 16 24  1  0
 17 18  1  0
 18 19  1  0
 19 20  1  0
 19 23  1  0
 20 21  2  0
 21 22  1  0
 22 23  2  0
 24 25  2  3
 24 33  1  0
 25 26  1  0
 26 27  2  3
 27 28  1  0
 27 32  1  0
 28 29  1  0
 29 30  1  0
 30 31  1  0
 31 32  1  0
M  END
