
     RDKit          3D

 33 36  0  0  0  0  0  0  0  0999 V2000
    2.0380   -0.5350    0.7300 C   0  0  0  0  0  0  0  0  0  0  0  0
    0.9620   -0.5050    1.7570 C   0  0  0  0  0  0  0  0  0  0  0  0
    0.0200    0.5520    1.5020 N   0  0  0  0  0  0  0  0  0  0  0  0
    0.0590    1.8330    2.1420 C   0  0  0  0  0  0  0  0  0  0  0  0
    0.6900    2.9670    1.4440 C   0  0  0  0  0  0  0  0  0  0  0  0
    2.0940    2.8790    1.0870 C   0  0  0  0  0  0  0  0  0  0  0  0
    2.7090    2.5030   -0.0410 N   0  0  0  0  0  0  0  0  0  0  0  0
    4.0400    2.5850    0.0890 C   0  0  0  0  0  0  0  0  0  0  0  0
    5.1410    2.3020   -0.8610 C   0  0  0  0  0  0  0  0  0  0  0  0
    5.5860    0.8950   -0.8070 C   0  0  0  0  0  0  0  0  0  0  0  0
    5.0470   -0.2430   -1.3460 C   0  0  0  0  0  0  0  0  0  0  0  0
    3.8150   -0.2920   -2.1870 C   0  0  0  0  0  0  0  0  0  0  0  0
    5.8240   -1.2860   -0.9960 N   0  0  0  0  0  0  0  0  0  0  0  0
    6.8420   -0.8460   -0.2510 C   0  0  0  0  0  0  0  0  0  0  0  0
    7.9550   -1.6350    0.3610 C   0  0  0  0  0  0  0  0  0  0  0  0
    6.7310    0.5210   -0.1070 C   0  0  0  0  0  0  0  0  0  0  0  0
    7.5790    1.3300    0.5830 F   0  0  0  0  0  0  0  0  0  0  0  0
    4.2230    3.0310    1.3570 N   0  0  0  0  0  0  0  0  0  0  0  0
    3.0730    3.1970    1.9220 O   0  0  0  0  0  0  0  0  0  0  0  0
   -1.1000    0.2990    0.6080 C   0  0  0  0  0  0  0  0  0  0  0  0
   -1.8890    1.2250    0.4260 O   0  0  0  0  0  0  0  0  0  0  0  0
   -1.2850   -0.9290   -0.0210 N   0  0  0  0  0  0  0  0  0  0  0  0
   -2.3270   -1.2900   -0.8850 C   0  0  0  0  0  0  0  0  0  0  0  0
   -3.7250   -1.3480   -0.4150 C   0  0  2  0  0  0  0  0  0  0  0  0
   -4.4020   -0.0290   -0.2020 C   0  0  0  0  0  0  0  0  0  0  0  0
   -5.8440   -0.3390   -0.2890 N   0  0  0  0  0  0  0  0  0  0  0  0
   -6.7300    0.6430   -0.8000 C   0  0  0  0  0  0  0  0  0  0  0  0
   -8.1320    0.1980   -0.8360 C   0  0  0  0  0  0  0  0  0  0  0  0
   -8.4850   -0.9890   -0.4260 C   0  0  0  0  0  0  0  0  0  0  0  0
   -7.5320   -1.9560    0.0910 C   0  0  0  0  0  0  0  0  0  0  0  0
   -6.2370   -1.6180    0.1510 C   0  0  0  0  0  0  0  0  0  0  0  0
   -5.2720   -2.6140    0.6810 C   0  0  0  0  0  0  0  0  0  0  0  0
   -3.9580   -2.2200    0.6540 O   0  0  0  0  0  0  0  0  0  0  0  0
  1  2  1  0
  2  3  1  0
  3  4  1  0
  3 20  1  0
  4  5  1  0
  5  6  1  0
  6  7  2  0
  6 19  1  0
  7  8  1  0
  8  9  1  0
  8 18  2  0
  9 10  1  0
 10 11  2  0
 10 16  1  0
 11 12  1  0
 11 13  1  0
 13 14  1  0
 14 15  1  0
 14 16  2  0
 16 17  1  0
 18 19  1  0
 20 21  2  0
 20 22  1  0
 22 23  1  0
 24 23  1  1
 24 25  1  0
 24 33  1  0
 25 26  1  0
 26 27  1  0
 26 31  1  0
 27 28  1  0
 28 29  2  0
 29 30  1  0
 30 31  2  0
 31 32  1  0
 32 33  1  0
M  END
