
     RDKit          3D

 21 21  0  0  0  0  0  0  0  0999 V2000
    2.9570   -0.5030    1.9370 C   0  0  0  0  0  0  0  0  0  0  0  0
    2.5540   -0.3520    0.4800 C   0  0  2  0  0  0  0  0  0  0  0  0
    3.6060   -0.8660   -0.4320 C   0  0  0  0  0  0  0  0  0  0  0  0
    3.2940   -1.7840   -1.2290 O   0  0  0  0  0  0  0  0  0  0  0  0
    4.8890   -0.3850   -0.4400 O   0  0  0  0  0  0  0  0  0  0  0  0
    6.1310   -1.0170   -1.5420 P   0  0  0  0  0  0  0  0  0  0  0  0
    7.6570   -0.8530   -0.7320 O   0  0  0  0  0  0  0  0  0  0  0  0
    6.1900   -0.0840   -2.9970 O   0  0  0  0  0  0  0  0  0  0  0  0
    2.1820    1.0800    0.1540 C   0  0  0  0  0  0  0  0  0  0  0  0
    0.7820    1.0580   -0.0180 O   0  0  0  0  0  0  0  0  0  0  0  0
    0.4350   -0.0520    0.7140 C   0  0  1  0  0  0  0  0  0  0  0  0
   -0.9700   -0.4620    0.5400 C   0  0  0  0  0  0  0  0  0  0  0  0
   -1.3670   -1.4710    1.1760 O   0  0  0  0  0  0  0  0  0  0  0  0
   -1.9030    0.2020   -0.2960 N   0  0  0  0  0  0  0  0  0  0  0  0
   -3.2670   -0.2410   -0.4310 C   0  0  0  0  0  0  0  0  0  0  0  0
   -3.6520   -1.2510    0.2110 O   0  0  0  0  0  0  0  0  0  0  0  0
   -4.0920    0.4820   -1.2740 O   0  0  0  0  0  0  0  0  0  0  0  0
   -5.4330    0.0800   -1.4290 C   0  0  0  0  0  0  0  0  0  0  0  0
   -6.1880    0.1230   -0.1360 C   0  0  0  0  0  0  0  0  0  0  0  0
   -6.1930    1.4680    0.4070 N   0  0  0  0  0  0  0  0  0  0  0  0
    1.3390   -1.0070    0.2870 O   0  0  0  0  0  0  0  0  0  0  0  0
  2  1  1  1
  2  3  1  0
  2  9  1  0
  2 21  1  0
  3  4  2  0
  3  5  1  0
  5  6  1  0
  6  7  1  0
  6  8  1  0
  9 10  1  0
 10 11  1  0
 11 12  1  6
 11 21  1  0
 12 13  2  0
 12 14  1  0
 14 15  1  0
 15 16  2  0
 15 17  1  0
 17 18  1  0
 18 19  1  0
 19 20  1  0
M  END
