
     RDKit          3D

 13 12  0  0  0  0  0  0  0  0999 V2000
   -3.1430   -1.3040   -0.2750 C   0  0  0  0  0  0  0  0  0  0  0  0
   -1.9240   -0.5020   -0.5590 C   0  0  0  0  0  0  0  0  0  0  0  0
   -1.1020   -1.0040   -1.2910 O   0  0  0  0  0  0  0  0  0  0  0  0
   -1.7210    0.8320    0.0170 C   0  0  1  0  0  0  0  0  0  0  0  0
   -2.9480    1.1480    0.6810 O   0  0  0  0  0  0  0  0  0  0  0  0
   -0.6130    0.9010    1.0710 C   0  0  2  0  0  0  0  0  0  0  0  0
   -0.7100    2.2440    1.5420 O   0  0  0  0  0  0  0  0  0  0  0  0
    0.7620    0.6710    0.5050 C   0  0  0  0  0  0  0  0  0  0  0  0
    0.9770   -0.5960    0.0720 O   0  0  0  0  0  0  0  0  0  0  0  0
    2.4940   -0.7860   -0.5280 P   0  0  0  0  0  0  0  0  0  0  0  0
    3.2230    0.4340   -1.4080 O   0  0  0  0  0  0  0  0  0  0  0  0
    3.2270   -2.2550   -0.4860 O   0  0  0  0  0  0  0  0  0  0  0  0
    3.1580   -0.2710    0.7420 O   0  0  0  0  0  0  0  0  0  0  0  0
  1  2  1  0
  2  3  2  0
  2  4  1  0
  4  5  1  1
  4  6  1  0
  6  7  1  6
  6  8  1  0
  8  9  1  0
  9 10  1  0
 10 11  1  0
 10 12  1  0
 10 13  1  0
M  END
