
     RDKit          3D

 21 22  0  0  0  0  0  0  0  0999 V2000
   -6.9530   -0.2830    0.1770 O   0  0  0  0  0  0  0  0  0  0  0  0
   -5.7450   -0.4490    0.4710 C   0  0  0  0  0  0  0  0  0  0  0  0
   -5.1490   -1.7320    0.5810 N   0  0  0  0  0  0  0  0  0  0  0  0
   -3.7300   -1.8580    0.5600 C   0  0  0  0  0  0  0  0  0  0  0  0
   -3.0080   -0.6500    0.0590 C   0  0  1  0  0  0  0  0  0  0  0  0
   -3.5780    0.6520    0.5030 C   0  0  0  0  0  0  0  0  0  0  0  0
   -4.9550    0.6490    0.6990 O   0  0  0  0  0  0  0  0  0  0  0  0
   -1.6620   -0.6800    0.4250 O   0  0  0  0  0  0  0  0  0  0  0  0
   -1.0980    0.2480   -0.4200 C   0  0  1  0  0  0  0  0  0  0  0  0
    0.2870    0.0090   -0.6470 O   0  0  0  0  0  0  0  0  0  0  0  0
    1.2610    0.9420   -0.3620 C   0  0  0  0  0  0  0  0  0  0  0  0
    0.9250    2.0530    0.1170 O   0  0  0  0  0  0  0  0  0  0  0  0
    2.6570    0.7140   -0.5860 N   0  0  0  0  0  0  0  0  0  0  0  0
    3.6580    1.7080   -0.2790 C   0  0  0  0  0  0  0  0  0  0  0  0
    5.0120    1.1370   -0.6370 C   0  0  0  0  0  0  0  0  0  0  0  0
    5.2510   -0.3960    0.3870 P   0  0  0  0  0  0  0  0  0  0  0  0
    5.6960   -1.7500   -0.6010 O   0  0  0  0  0  0  0  0  0  0  0  0
    6.4030   -0.1220    1.6570 O   0  0  0  0  0  0  0  0  0  0  0  0
   -1.7490    0.1180   -1.6740 O   0  0  0  0  0  0  0  0  0  0  0  0
   -2.8940   -0.6320   -1.4290 C   0  0  0  0  0  0  0  0  0  0  0  0
   -3.6420   -1.1620   -2.2900 O   0  0  0  0  0  0  0  0  0  0  0  0
  1  2  2  0
  2  3  1  0
  2  7  1  0
  3  4  1  0
  5  4  1  6
  5  6  1  0
  5  8  1  0
  5 20  1  0
  6  7  1  0
  8  9  1  0
  9 10  1  6
  9 19  1  0
 10 11  1  0
 11 12  2  0
 11 13  1  0
 13 14  1  0
 14 15  1  0
 15 16  1  0
 16 17  1  0
 16 18  1  0
 19 20  1  0
 20 21  2  0
M  END
