
     RDKit          3D

 22 22  0  0  0  0  0  0  0  0999 V2000
   -0.3550    1.3070    0.9400 C   0  0  0  0  0  0  0  0  0  0  0  0
   -1.6240    1.5600    0.4780 O   0  0  0  0  0  0  0  0  0  0  0  0
   -2.2030    0.5720   -0.2710 C   0  0  1  0  0  0  0  0  0  0  0  0
   -1.4590    0.2280   -1.5090 C   0  0  0  0  0  0  0  0  0  0  0  0
   -1.9770    0.4020   -2.6650 O   0  0  0  0  0  0  0  0  0  0  0  0
   -0.1830   -0.2940   -1.5090 O   0  0  0  0  0  0  0  0  0  0  0  0
    0.5340   -0.6240   -2.6410 C   0  0  0  0  0  0  0  0  0  0  0  0
    0.0100   -0.4460   -3.7600 O   0  0  0  0  0  0  0  0  0  0  0  0
    1.8830   -1.1710   -2.5210 C   0  0  2  0  0  0  0  0  0  0  0  0
    2.0080   -2.4740   -3.1770 N   0  0  0  0  0  0  0  0  0  0  0  0
    2.3440   -1.3170   -1.2200 O   0  0  0  0  0  0  0  0  0  0  0  0
    3.4960   -0.6800   -0.8000 C   0  0  0  0  0  0  0  0  0  0  0  0
    4.1030    0.0290   -1.6360 O   0  0  0  0  0  0  0  0  0  0  0  0
    4.0210   -0.7720    0.4730 O   0  0  0  0  0  0  0  0  0  0  0  0
    5.4730    0.0490    0.9500 P   0  0  0  0  0  0  0  0  0  0  0  0
    5.2120    1.6140    1.5890 O   0  0  0  0  0  0  0  0  0  0  0  0
    6.3460   -0.8840    2.1300 O   0  0  0  0  0  0  0  0  0  0  0  0
   -2.5050   -0.6780    0.5480 C   0  0  0  0  0  0  0  0  0  0  0  0
   -3.0520   -0.3210    1.7490 O   0  0  0  0  0  0  0  0  0  0  0  0
   -3.7820    0.8330    1.7550 C   0  0  0  0  0  0  0  0  0  0  0  0
   -4.3880    1.2160    0.4490 C   0  0  0  0  0  0  0  0  0  0  0  0
   -3.5200    1.0890   -0.6800 N   0  0  0  0  0  0  0  0  0  0  0  0
  1  2  1  0
  3  2  1  1
  3  4  1  0
  3 18  1  0
  3 22  1  0
  4  5  2  0
  4  6  1  0
  6  7  1  0
  7  8  2  0
  7  9  1  0
  9 10  1  1
  9 11  1  0
 11 12  1  0
 12 13  2  0
 12 14  1  0
 14 15  1  0
 15 16  1  0
 15 17  1  0
 18 19  1  0
 19 20  1  0
 20 21  1  0
 21 22  1  0
M  END
