
     RDKit          3D

 21 22  0  0  0  0  0  0  0  0999 V2000
    1.5720    1.2670    0.1790 O   0  0  0  0  0  0  0  0  0  0  0  0
    1.4660    0.0300   -0.0310 C   0  0  0  0  0  0  0  0  0  0  0  0
    2.6560   -0.6950   -0.5050 C   0  0  0  0  0  0  0  0  0  0  0  0
    3.7360    0.1570   -0.6430 O   0  0  0  0  0  0  0  0  0  0  0  0
    5.1510   -0.6410   -1.1940 P   0  0  0  0  0  0  0  0  0  0  0  0
    5.4020   -0.4460   -2.8980 O   0  0  0  0  0  0  0  0  0  0  0  0
    6.5620   -0.2190   -0.2940 O   0  0  0  0  0  0  0  0  0  0  0  0
    0.2160   -0.6500    0.1880 N   0  0  0  0  0  0  0  0  0  0  0  0
   -0.9220    0.0810    0.6490 C   0  0  2  0  0  0  0  0  0  0  0  0
   -1.4570   -0.5360    1.9160 C   0  0  0  0  0  0  0  0  0  0  0  0
   -1.7550   -1.9270    1.6380 N   0  0  0  0  0  0  0  0  0  0  0  0
   -2.2260   -2.2500    0.3380 C   0  0  0  0  0  0  0  0  0  0  0  0
   -2.4420   -3.4520    0.0300 O   0  0  0  0  0  0  0  0  0  0  0  0
   -2.4660   -1.2910   -0.6330 O   0  0  0  0  0  0  0  0  0  0  0  0
   -2.0480    0.0330   -0.3870 C   0  0  1  0  0  0  0  0  0  0  0  0
   -3.2370    0.8430    0.1530 C   0  0  0  0  0  0  0  0  0  0  0  0
   -2.7450    2.0750    0.5070 O   0  0  0  0  0  0  0  0  0  0  0  0
   -2.5170    2.8370   -0.6330 C   0  0  0  0  0  0  0  0  0  0  0  0
   -1.9240    2.0920   -1.6750 O   0  0  0  0  0  0  0  0  0  0  0  0
   -1.6630    0.7480   -1.6160 C   0  0  0  0  0  0  0  0  0  0  0  0
   -1.1250    0.1520   -2.5530 O   0  0  0  0  0  0  0  0  0  0  0  0
  1  2  2  0
  2  3  1  0
  2  8  1  0
  3  4  1  0
  4  5  1  0
  5  6  1  0
  5  7  1  0
  9  8  1  6
  9 10  1  0
  9 15  1  0
 10 11  1  0
 11 12  1  0
 12 13  2  0
 12 14  1  0
 14 15  1  0
 15 16  1  1
 15 20  1  0
 16 17  1  0
 17 18  1  0
 18 19  1  0
 19 20  1  0
 20 21  2  0
M  END
