
     RDKit          3D

 21 22  0  0  0  0  0  0  0  0999 V2000
   -4.7250    2.0060   -0.9630 C   0  0  0  0  0  0  0  0  0  0  0  0
   -4.0700    0.7390   -0.6080 N   0  0  0  0  0  0  0  0  0  0  0  0
   -4.0030   -0.4040   -1.4470 C   0  0  0  0  0  0  0  0  0  0  0  0
   -4.8020   -0.6870   -2.4050 O   0  0  0  0  0  0  0  0  0  0  0  0
   -2.8390   -1.2240   -1.0230 C   0  0  0  0  0  0  0  0  0  0  0  0
   -2.4590   -0.6730    0.3180 C   0  0  1  0  0  0  0  0  0  0  0  0
   -1.1270   -0.0610    0.2280 N   0  0  0  0  0  0  0  0  0  0  0  0
   -0.0560   -0.4550    1.0460 C   0  0  0  0  0  0  0  0  0  0  0  0
   -0.2620   -1.3720    1.8840 O   0  0  0  0  0  0  0  0  0  0  0  0
    1.2830    0.1690    0.9470 C   0  0  1  0  0  0  0  0  0  0  0  0
    2.1600   -0.4290    1.8930 O   0  0  0  0  0  0  0  0  0  0  0  0
    3.4380   -0.1790    1.4120 C   0  0  0  0  0  0  0  0  0  0  0  0
    4.5250   -0.0590    2.0400 O   0  0  0  0  0  0  0  0  0  0  0  0
    3.2570   -0.0750   -0.0760 C   0  0  1  0  0  0  0  0  0  0  0  0
    3.7580   -1.2600   -0.6210 O   0  0  0  0  0  0  0  0  0  0  0  0
    5.0070   -0.9790   -1.7750 P   0  0  0  0  0  0  0  0  0  0  0  0
    5.1030    0.6840   -2.2540 O   0  0  0  0  0  0  0  0  0  0  0  0
    6.5400   -1.5810   -1.2420 O   0  0  0  0  0  0  0  0  0  0  0  0
    1.8980   -0.0450   -0.2590 O   0  0  0  0  0  0  0  0  0  0  0  0
   -3.4050    0.4270    0.5930 C   0  0  0  0  0  0  0  0  0  0  0  0
   -3.5730    0.9730    1.6990 O   0  0  0  0  0  0  0  0  0  0  0  0
  1  2  1  0
  2  3  1  0
  2 20  1  0
  3  4  2  0
  3  5  1  0
  5  6  1  0
  6  7  1  6
  6 20  1  0
  7  8  1  0
  8  9  2  0
 10  8  1  6
 10 11  1  0
 10 19  1  0
 11 12  1  0
 12 13  2  0
 12 14  1  0
 14 15  1  6
 14 19  1  0
 15 16  1  0
 16 17  1  0
 16 18  1  0
 20 21  2  0
M  END
