
     RDKit          3D

 22 23  0  0  0  0  0  0  0  0999 V2000
    3.5420   -1.3420   -0.2390 O   0  0  0  0  0  0  0  0  0  0  0  0
    3.7950   -0.1270   -0.0070 C   0  0  0  0  0  0  0  0  0  0  0  0
    2.7130    0.8930    0.0220 C   0  0  0  0  0  0  0  0  0  0  0  0
    1.4520    0.2970   -0.2360 O   0  0  0  0  0  0  0  0  0  0  0  0
    0.2810    1.0280   -0.2650 C   0  0  0  0  0  0  0  0  0  0  0  0
    0.3330    2.2640   -0.0550 O   0  0  0  0  0  0  0  0  0  0  0  0
   -0.9880    0.4300   -0.5240 N   0  0  0  0  0  0  0  0  0  0  0  0
   -2.2820    1.0800   -0.5820 C   0  0  0  0  0  0  0  0  0  0  0  0
   -3.2100    0.0600    0.0510 C   0  0  2  0  0  0  0  0  0  0  0  0
   -3.5050    0.3580    1.4140 N   0  0  0  0  0  0  0  0  0  0  0  0
   -4.2530    1.5040    1.8300 C   0  0  0  0  0  0  0  0  0  0  0  0
   -4.4770    1.7060    3.0690 O   0  0  0  0  0  0  0  0  0  0  0  0
   -4.7440    2.4090    0.9020 O   0  0  0  0  0  0  0  0  0  0  0  0
   -3.0080   -0.5440    2.2570 O   0  0  0  0  0  0  0  0  0  0  0  0
   -2.0490   -1.2870    1.5780 C   0  0  0  0  0  0  0  0  0  0  0  0
   -2.4380   -1.2300    0.1190 C   0  0  1  0  0  0  0  0  0  0  0  0
   -3.1940   -2.3240   -0.2740 O   0  0  0  0  0  0  0  0  0  0  0  0
   -1.2680   -0.9730   -0.7910 C   0  0  0  0  0  0  0  0  0  0  0  0
    5.1220    0.2000    0.2150 O   0  0  0  0  0  0  0  0  0  0  0  0
    6.4010   -1.0090    0.1790 P   0  0  0  0  0  0  0  0  0  0  0  0
    6.0420   -2.3030   -0.9010 O   0  0  0  0  0  0  0  0  0  0  0  0
    7.8640   -0.1840   -0.2810 O   0  0  0  0  0  0  0  0  0  0  0  0
  1  2  2  0
  2  3  1  0
  2 19  1  0
  3  4  1  0
  4  5  1  0
  5  6  2  0
  5  7  1  0
  7  8  1  0
  7 18  1  0
  9  8  1  1
  9 10  1  0
  9 16  1  0
 10 11  1  0
 10 14  1  0
 11 12  2  0
 11 13  1  0
 14 15  1  0
 15 16  1  0
 16 17  1  6
 16 18  1  0
 19 20  1  0
 20 21  1  0
 20 22  1  0
M  END
