
     RDKit          3D

 21 22  0  0  0  0  0  0  0  0999 V2000
    1.4000    0.9900   -0.4550 O   0  0  0  0  0  0  0  0  0  0  0  0
    1.5230   -0.2190   -0.1540 C   0  0  0  0  0  0  0  0  0  0  0  0
    0.4320   -1.2020   -0.1070 C   0  0  0  0  0  0  0  0  0  0  0  0
   -0.8490   -0.6460   -0.4500 N   0  0  0  0  0  0  0  0  0  0  0  0
   -1.2900   -0.6430   -1.8020 C   0  0  0  0  0  0  0  0  0  0  0  0
   -2.7490   -0.2740   -1.9560 C   0  0  0  0  0  0  0  0  0  0  0  0
   -3.1750    0.6640   -1.0460 O   0  0  0  0  0  0  0  0  0  0  0  0
   -3.0430    0.2990    0.2700 C   0  0  2  0  0  0  0  0  0  0  0  0
   -4.0440   -0.7640    0.6980 C   0  0  0  0  0  0  0  0  0  0  0  0
   -5.2030   -0.0110    0.7950 O   0  0  0  0  0  0  0  0  0  0  0  0
   -4.8380    1.2890    1.0580 C   0  0  2  0  0  0  0  0  0  0  0  0
   -5.4380    2.1280    0.1150 O   0  0  0  0  0  0  0  0  0  0  0  0
   -3.4650    1.3690    1.0610 O   0  0  0  0  0  0  0  0  0  0  0  0
   -1.6530   -0.1060    0.5830 C   0  0  0  0  0  0  0  0  0  0  0  0
   -1.2210    0.0370    1.7440 O   0  0  0  0  0  0  0  0  0  0  0  0
    2.8390   -0.6960    0.1760 N   0  0  0  0  0  0  0  0  0  0  0  0
    3.9830    0.1910    0.1600 C   0  0  0  0  0  0  0  0  0  0  0  0
    5.1230   -0.4850    0.5070 O   0  0  0  0  0  0  0  0  0  0  0  0
    6.5370    0.4710    0.5200 P   0  0  0  0  0  0  0  0  0  0  0  0
    6.6110    1.5950    1.8120 O   0  0  0  0  0  0  0  0  0  0  0  0
    7.9820   -0.4290    0.3320 O   0  0  0  0  0  0  0  0  0  0  0  0
  1  2  2  0
  2  3  1  0
  2 16  1  0
  3  4  1  0
  4  5  1  0
  4 14  1  0
  5  6  1  0
  6  7  1  0
  7  8  1  0
  8  9  1  6
  8 13  1  0
  8 14  1  0
  9 10  1  0
 10 11  1  0
 11 12  1  6
 11 13  1  0
 14 15  2  0
 16 17  1  0
 17 18  1  0
 18 19  1  0
 19 20  1  0
 19 21  1  0
M  END
