
     RDKit          3D

 21 22  0  0  0  0  0  0  0  0999 V2000
   -2.9490    1.2390   -1.0750 C   0  0  0  0  0  0  0  0  0  0  0  0
   -3.0720    0.2410    0.0540 C   0  0  1  0  0  0  0  0  0  0  0  0
   -4.5200   -0.2250    0.1450 C   0  0  0  0  0  0  0  0  0  0  0  0
   -4.3870   -1.6920   -0.2040 C   0  0  0  0  0  0  0  0  0  0  0  0
   -3.1500   -2.0040    0.3590 O   0  0  0  0  0  0  0  0  0  0  0  0
   -2.3390   -1.0200   -0.2510 C   0  0  2  0  0  0  0  0  0  0  0  0
   -0.9290   -1.0640    0.2300 C   0  0  0  0  0  0  0  0  0  0  0  0
   -0.4420    0.1570    0.7900 N   0  0  0  0  0  0  0  0  0  0  0  0
    0.9180    0.5140    0.6300 C   0  0  0  0  0  0  0  0  0  0  0  0
    1.3600    1.5780    1.1120 O   0  0  0  0  0  0  0  0  0  0  0  0
    1.7840   -0.3120   -0.0670 O   0  0  0  0  0  0  0  0  0  0  0  0
    3.1460    0.0450   -0.2270 C   0  0  1  0  0  0  0  0  0  0  0  0
    3.8250   -0.9880   -0.9900 N   0  0  0  0  0  0  0  0  0  0  0  0
    3.2100    1.2720   -0.8760 O   0  0  0  0  0  0  0  0  0  0  0  0
    3.7330    0.0890    1.0370 O   0  0  0  0  0  0  0  0  0  0  0  0
    5.3940    0.5140    0.9750 P   0  0  0  0  0  0  0  0  0  0  0  0
    5.7110    1.8640   -0.0360 O   0  0  0  0  0  0  0  0  0  0  0  0
    6.4210   -0.8090    0.5840 O   0  0  0  0  0  0  0  0  0  0  0  0
   -1.3290    1.0030    1.5030 C   0  0  0  0  0  0  0  0  0  0  0  0
   -0.8950    1.8590    2.3310 O   0  0  0  0  0  0  0  0  0  0  0  0
   -2.6850    0.8550    1.2580 O   0  0  0  0  0  0  0  0  0  0  0  0
  2  1  1  6
  2  3  1  0
  2  6  1  0
  2 21  1  0
  3  4  1  0
  4  5  1  0
  5  6  1  0
  6  7  1  1
  7  8  1  0
  8  9  1  0
  8 19  1  0
  9 10  2  0
  9 11  1  0
 11 12  1  0
 12 13  1  6
 12 14  1  0
 12 15  1  0
 15 16  1  0
 16 17  1  0
 16 18  1  0
 19 20  2  0
 19 21  1  0
M  END
