
     RDKit          3D

 21 21  0  0  0  0  0  0  0  0999 V2000
   -2.9950    0.4600   -3.4910 O   0  0  0  0  0  0  0  0  0  0  0  0
   -2.9830    1.3820   -2.6060 C   0  0  0  0  0  0  0  0  0  0  0  0
   -3.6850    2.5550   -2.8320 O   0  0  0  0  0  0  0  0  0  0  0  0
   -2.2360    1.1250   -1.4400 N   0  0  0  0  0  0  0  0  0  0  0  0
   -1.5000   -0.1190   -1.2140 C   0  0  1  0  0  0  0  0  0  0  0  0
   -0.0630    0.1910   -1.1270 C   0  0  0  0  0  0  0  0  0  0  0  0
    0.5380    0.0500    0.1570 N   0  0  0  0  0  0  0  0  0  0  0  0
    1.9140    0.4820    0.3230 C   0  0  0  0  0  0  0  0  0  0  0  0
    2.9010   -0.6320    0.0400 C   0  0  2  0  0  0  0  0  0  0  0  0
    2.6950   -1.7060    0.9030 O   0  0  0  0  0  0  0  0  0  0  0  0
    4.6070    0.0420    0.3200 P   0  0  0  0  0  0  0  0  0  0  0  0
    4.5960    1.6910    0.7980 O   0  0  0  0  0  0  0  0  0  0  0  0
    5.6000   -0.1960   -1.0730 O   0  0  0  0  0  0  0  0  0  0  0  0
   -0.1430   -0.4900    1.2800 C   0  0  0  0  0  0  0  0  0  0  0  0
    0.5140   -0.9940    2.1980 O   0  0  0  0  0  0  0  0  0  0  0  0
   -1.6460   -0.4110    1.2770 C   0  0  2  0  0  0  0  0  0  0  0  0
   -2.0700    0.8440    1.6530 O   0  0  0  0  0  0  0  0  0  0  0  0
   -2.1150   -1.4350    2.2670 C   0  0  0  0  0  0  0  0  0  0  0  0
   -1.8230   -2.6460    2.0910 O   0  0  0  0  0  0  0  0  0  0  0  0
   -2.8660   -1.0720    3.3760 O   0  0  0  0  0  0  0  0  0  0  0  0
   -2.1120   -0.8230   -0.0690 C   0  0  0  0  0  0  0  0  0  0  0  0
  1  2  2  0
  2  3  1  0
  2  4  1  0
  5  4  1  1
  5  6  1  0
  5 21  1  0
  6  7  1  0
  7  8  1  0
  7 14  1  0
  8  9  1  0
  9 10  1  1
  9 11  1  0
 11 12  1  0
 11 13  1  0
 14 15  2  0
 14 16  1  0
 16 17  1  1
 16 18  1  0
 16 21  1  0
 18 19  2  0
 18 20  1  0
M  END
