
     RDKit          3D

 18 18  0  0  0  0  0  0  0  0999 V2000
    2.7550   -1.7240   -0.0020 C   0  0  0  0  0  0  0  0  0  0  0  0
    2.3300   -0.3070    0.3450 C   0  0  1  0  0  0  0  0  0  0  0  0
    3.3200    0.6140   -0.3640 C   0  0  0  0  0  0  0  0  0  0  0  0
    4.5820    0.3160    0.1280 O   0  0  0  0  0  0  0  0  0  0  0  0
    5.5310    1.0290   -0.3920 O   0  0  0  0  0  0  0  0  0  0  0  0
    1.0530   -0.0040   -0.1530 O   0  0  0  0  0  0  0  0  0  0  0  0
   -0.0080    0.4290    0.5920 C   0  0  0  0  0  0  0  0  0  0  0  0
    0.1430    0.5780    1.8320 O   0  0  0  0  0  0  0  0  0  0  0  0
   -1.2970    0.7080   -0.0850 C   0  0  1  0  0  0  0  0  0  0  0  0
   -1.1960    0.4670   -1.4300 O   0  0  0  0  0  0  0  0  0  0  0  0
   -0.9800   -0.7990   -1.6110 O   0  0  0  0  0  0  0  0  0  0  0  0
   -1.9560   -1.6380   -1.1790 C   0  0  0  0  0  0  0  0  0  0  0  0
   -2.5570   -1.3520   -0.0050 O   0  0  0  0  0  0  0  0  0  0  0  0
   -2.4280   -0.0890    0.4880 C   0  0  2  0  0  0  0  0  0  0  0  0
   -3.6480    0.6050    0.2610 O   0  0  0  0  0  0  0  0  0  0  0  0
   -4.4470    1.0970    1.2630 C   0  0  0  0  0  0  0  0  0  0  0  0
   -4.1000    0.9350    2.4630 O   0  0  0  0  0  0  0  0  0  0  0  0
   -5.6430    1.7780    1.0420 O   0  0  0  0  0  0  0  0  0  0  0  0
  2  1  1  6
  2  3  1  0
  2  6  1  0
  3  4  1  0
  4  5  1  0
  6  7  1  0
  7  8  2  0
  9  7  1  1
  9 10  1  0
  9 14  1  0
 10 11  1  0
 11 12  1  0
 12 13  1  0
 13 14  1  0
 14 15  1  6
 15 16  1  0
 16 17  2  0
 16 18  1  0
M  END
