
     RDKit          3D

 18 18  0  0  0  0  0  0  0  0999 V2000
    4.4430    0.1400    1.7570 O   0  0  0  0  0  0  0  0  0  0  0  0
    3.4450   -0.0160    1.0190 C   0  0  0  0  0  0  0  0  0  0  0  0
    3.2300    0.9030   -0.1240 C   0  0  0  0  0  0  0  0  0  0  0  0
    1.8710    1.1190   -0.2900 O   0  0  0  0  0  0  0  0  0  0  0  0
    1.4670    0.9680   -1.6120 C   0  0  0  0  0  0  0  0  0  0  0  0
    0.4090    0.0670   -1.7080 O   0  0  0  0  0  0  0  0  0  0  0  0
   -0.7050    0.6500   -1.1130 C   0  0  0  0  0  0  0  0  0  0  0  0
   -1.3150   -0.3290   -0.1300 C   0  0  2  0  0  0  0  0  0  0  0  0
   -2.7160    0.1550    0.2170 C   0  0  0  0  0  0  0  0  0  0  0  0
   -3.5270    0.2310   -0.8990 O   0  0  0  0  0  0  0  0  0  0  0  0
   -4.7030    0.6530   -0.5080 O   0  0  0  0  0  0  0  0  0  0  0  0
   -4.9640    0.3670    0.7290 O   0  0  0  0  0  0  0  0  0  0  0  0
   -0.5200   -0.3540    1.1260 C   0  0  0  0  0  0  0  0  0  0  0  0
   -0.4510    0.7370    1.7480 O   0  0  0  0  0  0  0  0  0  0  0  0
    0.0660   -1.5220    1.5110 O   0  0  0  0  0  0  0  0  0  0  0  0
    0.8620   -2.3730    0.7590 C   0  0  0  0  0  0  0  0  0  0  0  0
    2.0000   -1.7550    0.2310 O   0  0  0  0  0  0  0  0  0  0  0  0
    2.5260   -1.0300    1.2370 O   0  0  0  0  0  0  0  0  0  0  0  0
  1  2  2  0
  2  3  1  0
  2 18  1  0
  3  4  1  0
  4  5  1  0
  5  6  1  0
  6  7  1  0
  7  8  1  0
  8  9  1  1
  8 13  1  0
  9 10  1  0
 10 11  1  0
 11 12  1  0
 13 14  2  0
 13 15  1  0
 15 16  1  0
 16 17  1  0
 17 18  1  0
M  END
