
     RDKit          3D

 18 18  0  0  0  0  0  0  0  0999 V2000
   -3.7460   -0.2010    0.6780 O   0  0  0  0  0  0  0  0  0  0  0  0
   -2.5770   -0.2740    0.3540 C   0  0  0  0  0  0  0  0  0  0  0  0
   -1.7590   -1.4630    0.7110 C   0  0  0  0  0  0  0  0  0  0  0  0
   -0.8240   -1.6510   -0.2730 O   0  0  0  0  0  0  0  0  0  0  0  0
   -0.1520   -2.7740   -0.2050 O   0  0  0  0  0  0  0  0  0  0  0  0
    1.1370   -3.0030   -0.6290 C   0  0  0  0  0  0  0  0  0  0  0  0
    1.5080   -3.9080   -1.4190 O   0  0  0  0  0  0  0  0  0  0  0  0
    2.1330   -2.1710   -0.1510 O   0  0  0  0  0  0  0  0  0  0  0  0
    1.9660   -0.8460    0.2450 C   0  0  0  0  0  0  0  0  0  0  0  0
    2.2470    0.0150   -0.9480 C   0  0  0  0  0  0  0  0  0  0  0  0
    2.9930   -0.4040   -1.8740 O   0  0  0  0  0  0  0  0  0  0  0  0
    1.7030    1.2670   -1.0560 O   0  0  0  0  0  0  0  0  0  0  0  0
    1.3750    2.0770    0.0670 C   0  0  0  0  0  0  0  0  0  0  0  0
    0.1760    2.6450   -0.0960 O   0  0  0  0  0  0  0  0  0  0  0  0
   -0.9830    2.9620    0.3790 C   0  0  0  0  0  0  0  0  0  0  0  0
   -1.4100    4.0560    0.8930 O   0  0  0  0  0  0  0  0  0  0  0  0
   -2.0030    1.9920    0.3650 O   0  0  0  0  0  0  0  0  0  0  0  0
   -1.9460    0.8320   -0.4110 C   0  0  0  0  0  0  0  0  0  0  0  0
  1  2  2  0
  2  3  1  0
  2 18  1  0
  3  4  1  0
  4  5  1  0
  5  6  1  0
  6  7  2  0
  6  8  1  0
  8  9  1  0
  9 10  1  0
 10 11  2  0
 10 12  1  0
 12 13  1  0
 13 14  1  0
 14 15  1  0
 15 16  2  0
 15 17  1  0
 17 18  1  0
M  END
