
     RDKit          3D

 18 19  0  0  0  0  0  0  0  0999 V2000
    4.6350    2.0880    0.3170 O   0  0  0  0  0  0  0  0  0  0  0  0
    4.0690    1.0060    0.7910 O   0  0  0  0  0  0  0  0  0  0  0  0
    4.5590   -0.0540    0.1800 O   0  0  0  0  0  0  0  0  0  0  0  0
    3.5570   -0.8050   -0.1780 O   0  0  0  0  0  0  0  0  0  0  0  0
    2.3260   -0.1140   -0.0560 C   0  0  0  0  0  0  0  0  0  0  0  0
    1.2800   -1.1230   -0.5080 C   0  0  0  0  0  0  0  0  0  0  0  0
   -0.1310   -0.5600   -0.4410 C   0  0  1  0  0  0  0  0  0  0  0  0
   -0.2900    0.6420   -1.3060 C   0  0  0  0  0  0  0  0  0  0  0  0
   -1.5590    1.1030   -1.3540 O   0  0  0  0  0  0  0  0  0  0  0  0
   -2.1250    1.5740   -0.2210 C   0  0  2  0  0  0  0  0  0  0  0  0
   -3.4550    0.8570    0.0950 C   0  0  0  0  0  0  0  0  0  0  0  0
   -4.1360    1.8660    0.7470 O   0  0  0  0  0  0  0  0  0  0  0  0
   -3.4910    2.9710    0.6020 O   0  0  0  0  0  0  0  0  0  0  0  0
   -2.6610    2.8770   -0.3820 O   0  0  0  0  0  0  0  0  0  0  0  0
   -0.9530   -1.6090   -0.8950 O   0  0  0  0  0  0  0  0  0  0  0  0
   -1.0170   -2.4600    0.1850 C   0  0  0  0  0  0  0  0  0  0  0  0
   -0.8720   -1.5810    1.3790 C   0  0  0  0  0  0  0  0  0  0  0  0
   -0.4360   -0.3740    0.8830 O   0  0  0  0  0  0  0  0  0  0  0  0
  1  2  1  0
  2  3  1  0
  3  4  1  0
  4  5  1  0
  5  6  1  0
  7  6  1  1
  7  8  1  0
  7 15  1  0
  7 18  1  0
  8  9  1  0
 10  9  1  6
 10 11  1  0
 10 14  1  0
 11 12  1  0
 12 13  1  0
 13 14  1  0
 15 16  1  0
 16 17  1  0
 17 18  1  0
M  END
