
     RDKit          3D

 18 18  0  0  0  0  0  0  0  0999 V2000
    4.9840    0.2950    1.4690 O   0  0  0  0  0  0  0  0  0  0  0  0
    5.2330    0.1460    0.2600 C   0  0  0  0  0  0  0  0  0  0  0  0
    6.5570    0.1550   -0.1490 O   0  0  0  0  0  0  0  0  0  0  0  0
    4.1720   -0.0220   -0.6170 O   0  0  0  0  0  0  0  0  0  0  0  0
    2.8360   -0.0240   -0.1470 C   0  0  2  0  0  0  0  0  0  0  0  0
    2.3200   -1.2950   -0.4130 O   0  0  0  0  0  0  0  0  0  0  0  0
    0.9870   -1.3890   -0.0640 C   0  0  0  0  0  0  0  0  0  0  0  0
    0.1120   -0.4280   -0.8140 C   0  0  1  0  0  0  0  0  0  0  0  0
   -1.2420   -0.4810   -0.1950 C   0  0  0  0  0  0  0  0  0  0  0  0
   -1.7970   -1.6090   -0.1340 O   0  0  0  0  0  0  0  0  0  0  0  0
   -1.9080    0.6070    0.3030 O   0  0  0  0  0  0  0  0  0  0  0  0
   -3.1870    0.5730    0.8900 C   0  0  0  0  0  0  0  0  0  0  0  0
   -4.2500    0.0640   -0.0390 C   0  0  0  0  0  0  0  0  0  0  0  0
   -4.2920    0.9180   -1.1480 O   0  0  0  0  0  0  0  0  0  0  0  0
   -5.2110    0.5350   -2.0210 O   0  0  0  0  0  0  0  0  0  0  0  0
    0.6350    0.8720   -0.8300 O   0  0  0  0  0  0  0  0  0  0  0  0
    2.0140    1.0270   -0.8460 C   0  0  0  0  0  0  0  0  0  0  0  0
    2.5900    1.9990   -1.4160 O   0  0  0  0  0  0  0  0  0  0  0  0
  1  2  2  0
  2  3  1  0
  2  4  1  0
  5  4  1  6
  5  6  1  0
  5 17  1  0
  6  7  1  0
  7  8  1  0
  8  9  1  1
  8 16  1  0
  9 10  2  0
  9 11  1  0
 11 12  1  0
 12 13  1  0
 13 14  1  0
 14 15  1  0
 16 17  1  0
 17 18  2  0
M  END
