
     RDKit          3D

 18 18  0  0  0  0  0  0  0  0999 V2000
    1.4680   -0.4000   -1.0940 O   0  0  0  0  0  0  0  0  0  0  0  0
    1.3350   -0.8960    0.0360 C   0  0  0  0  0  0  0  0  0  0  0  0
    0.0060   -1.0520    0.6840 C   0  0  0  0  0  0  0  0  0  0  0  0
   -0.9550   -0.5650   -0.1750 O   0  0  0  0  0  0  0  0  0  0  0  0
   -2.2370   -0.6720    0.3560 C   0  0  0  0  0  0  0  0  0  0  0  0
   -3.2130   -0.1060   -0.6760 C   0  0  1  0  0  0  0  0  0  0  0  0
   -4.5380   -0.1720   -0.2250 O   0  0  0  0  0  0  0  0  0  0  0  0
   -5.1840    0.9550    0.2120 C   0  0  0  0  0  0  0  0  0  0  0  0
   -6.2870    0.8300    0.8030 O   0  0  0  0  0  0  0  0  0  0  0  0
   -4.6930    2.2340    0.0400 O   0  0  0  0  0  0  0  0  0  0  0  0
   -3.5020    2.3760   -0.5980 O   0  0  0  0  0  0  0  0  0  0  0  0
   -2.8030    1.2530   -1.0630 C   0  0  0  0  0  0  0  0  0  0  0  0
   -1.8190    1.4490   -1.8210 O   0  0  0  0  0  0  0  0  0  0  0  0
    2.4510   -1.3170    0.7120 O   0  0  0  0  0  0  0  0  0  0  0  0
    3.7760   -1.2710    0.3190 C   0  0  0  0  0  0  0  0  0  0  0  0
    4.3340    0.0910    0.0870 C   0  0  0  0  0  0  0  0  0  0  0  0
    3.7020    0.8330   -0.8940 O   0  0  0  0  0  0  0  0  0  0  0  0
    4.3150    1.9920   -0.9660 O   0  0  0  0  0  0  0  0  0  0  0  0
  1  2  2  0
  2  3  1  0
  2 14  1  0
  3  4  1  0
  4  5  1  0
  6  5  1  1
  6  7  1  0
  6 12  1  0
  7  8  1  0
  8  9  2  0
  8 10  1  0
 10 11  1  0
 11 12  1  0
 12 13  2  0
 14 15  1  0
 15 16  1  0
 16 17  1  0
 17 18  1  0
M  END
