
     RDKit          3D

 18 18  0  0  0  0  0  0  0  0999 V2000
   -4.8520    0.2530   -0.7070 C   0  0  0  0  0  0  0  0  0  0  0  0
   -4.0140   -0.2280    0.4590 C   0  0  2  0  0  0  0  0  0  0  0  0
   -4.7790   -0.7400    1.4850 O   0  0  0  0  0  0  0  0  0  0  0  0
   -3.2680    0.8820    0.8490 O   0  0  0  0  0  0  0  0  0  0  0  0
   -1.9930    0.6840    0.5160 C   0  0  0  0  0  0  0  0  0  0  0  0
   -1.9980   -0.6570   -0.3800 C   0  0  1  0  0  0  0  0  0  0  0  0
   -0.7310   -1.2100    0.0380 C   0  0  0  0  0  0  0  0  0  0  0  0
   -0.3580   -1.8130    1.0380 O   0  0  0  0  0  0  0  0  0  0  0  0
    0.4330   -0.9810   -0.8800 O   0  0  0  0  0  0  0  0  0  0  0  0
    1.6060   -1.2580   -0.2210 C   0  0  0  0  0  0  0  0  0  0  0  0
    2.0110    0.3290    0.2580 C   0  0  0  0  0  0  0  0  0  0  0  0
    3.0040   -0.0280    1.0690 O   0  0  0  0  0  0  0  0  0  0  0  0
    4.1230    0.4370    0.9520 O   0  0  0  0  0  0  0  0  0  0  0  0
    4.6540    1.0440   -0.0610 O   0  0  0  0  0  0  0  0  0  0  0  0
    5.9960    0.7250   -0.3680 C   0  0  0  0  0  0  0  0  0  0  0  0
    6.6110   -0.1760    0.2090 O   0  0  0  0  0  0  0  0  0  0  0  0
    6.6050    1.4890   -1.3870 O   0  0  0  0  0  0  0  0  0  0  0  0
   -3.1250   -1.1940    0.0810 O   0  0  0  0  0  0  0  0  0  0  0  0
  2  1  1  6
  2  3  1  0
  2  4  1  0
  2 18  1  0
  4  5  1  0
  5  6  1  0
  6  7  1  1
  6 18  1  0
  7  8  2  0
  7  9  1  0
  9 10  1  0
 10 11  1  0
 11 12  1  0
 12 13  1  0
 13 14  1  0
 14 15  1  0
 15 16  2  0
 15 17  1  0
M  END
