
     RDKit          3D

 35 37  0  0  0  0  0  0  0  0999 V2000
   -4.1790    0.4790    2.6920 C   0  0  0  0  0  0  0  0  0  0  0  0
   -4.4470   -0.9390    2.3200 C   0  0  0  0  0  0  0  0  0  0  0  0
   -4.0430   -1.2770    0.9700 O   0  0  0  0  0  0  0  0  0  0  0  0
   -4.4680   -0.4700   -0.0450 C   0  0  0  0  0  0  0  0  0  0  0  0
   -3.6110    0.3100   -0.8570 C   0  0  0  0  0  0  0  0  0  0  0  0
   -2.2770    0.4860   -0.4580 N   0  0  0  0  0  0  0  0  0  0  0  0
   -1.1650   -0.2480   -0.8880 C   0  0  0  0  0  0  0  0  0  0  0  0
   -1.3060   -1.1790   -1.7750 O   0  0  0  0  0  0  0  0  0  0  0  0
    0.0660    0.0470   -0.4280 N   0  0  0  0  0  0  0  0  0  0  0  0
    1.3670   -0.4680   -0.7470 C   0  0  0  0  0  0  0  0  0  0  0  0
    1.5400   -1.8090   -0.5170 C   0  0  0  0  0  0  0  0  0  0  0  0
    2.8510   -2.2580   -0.3420 C   0  0  0  0  0  0  0  0  0  0  0  0
    3.8960   -1.3210   -0.4140 C   0  0  0  0  0  0  0  0  0  0  0  0
    5.4860   -1.7740    0.3760 S   0  0  0  0  0  0  0  0  0  0  0  0
    6.0910   -0.3460    1.3500 C   0  0  0  0  0  0  0  0  0  0  0  0
    7.0580    0.3790    0.4780 C   0  0  0  0  0  0  0  0  0  0  0  0
    6.9820    1.5730    0.1320 O   0  0  0  0  0  0  0  0  0  0  0  0
    8.0950   -0.4520   -0.0430 N   0  0  0  0  0  0  0  0  0  0  0  0
    9.1760   -0.1340   -0.9030 C   0  0  0  0  0  0  0  0  0  0  0  0
   10.2210    0.8250   -0.5430 C   0  0  0  0  0  0  0  0  0  0  0  0
   10.3520    2.0200   -0.7340 O   0  0  0  0  0  0  0  0  0  0  0  0
   11.2470    0.1640    0.2270 O   0  0  0  0  0  0  0  0  0  0  0  0
   12.3520    0.8070    0.7510 C   0  0  0  0  0  0  0  0  0  0  0  0
    3.6820    0.0070   -0.6830 C   0  0  0  0  0  0  0  0  0  0  0  0
    2.3980    0.4840   -0.8610 C   0  0  0  0  0  0  0  0  0  0  0  0
   -4.0330    1.0540   -1.8990 C   0  0  0  0  0  0  0  0  0  0  0  0
   -3.3130    1.9100   -2.7490 O   0  0  0  0  0  0  0  0  0  0  0  0
   -5.3950    1.0680   -2.2060 C   0  0  0  0  0  0  0  0  0  0  0  0
   -6.2260    0.3620   -1.4210 C   0  0  0  0  0  0  0  0  0  0  0  0
   -5.8060   -0.4050   -0.3540 C   0  0  0  0  0  0  0  0  0  0  0  0
   -6.6040   -1.2030    0.4920 O   0  0  0  0  0  0  0  0  0  0  0  0
   -7.9570   -1.5430    0.2350 C   0  0  0  0  0  0  0  0  0  0  0  0
   -8.8620   -0.3480    0.3080 C   0  0  0  0  0  0  0  0  0  0  0  0
   -8.2430    0.9160   -0.2090 C   0  0  0  0  0  0  0  0  0  0  0  0
   -7.6840    0.7520   -1.6100 C   0  0  0  0  0  0  0  0  0  0  0  0
  1  2  1  0
  2  3  1  0
  3  4  1  0
  4  5  2  0
  4 30  1  0
  5  6  1  0
  5 26  1  0
  6  7  1  0
  7  8  2  0
  7  9  1  0
  9 10  1  0
 10 11  2  0
 10 25  1  0
 11 12  1  0
 12 13  2  0
 13 14  1  0
 13 24  1  0
 14 15  1  0
 15 16  1  0
 16 17  2  0
 16 18  1  0
 18 19  1  0
 19 20  1  0
 20 21  2  0
 20 22  1  0
 22 23  1  0
 24 25  2  0
 26 27  1  0
 26 28  2  0
 28 29  1  0
 29 30  2  0
 29 35  1  0
 30 31  1  0
 31 32  1  0
 32 33  1  0
 33 34  1  0
 34 35  1  0
M  END
