
     RDKit          3D

 35 40  0  0  0  0  0  0  0  0999 V2000
    3.7470    3.6120    0.9740 C   0  0  0  0  0  0  0  0  0  0  0  0
    2.8380    2.4430    0.7970 C   0  0  0  0  0  0  0  0  0  0  0  0
    1.4920    2.4540    1.1260 C   0  0  0  0  0  0  0  0  0  0  0  0
    1.0010    1.2060    0.8200 C   0  0  0  0  0  0  0  0  0  0  0  0
   -0.2580    0.6470    0.9270 C   0  0  0  0  0  0  0  0  0  0  0  0
   -0.4590   -0.6480    0.5280 C   0  0  0  0  0  0  0  0  0  0  0  0
   -1.6870   -1.3380    0.5290 N   0  0  0  0  0  0  0  0  0  0  0  0
   -2.9980   -0.7610    0.6090 C   0  0  0  0  0  0  0  0  0  0  0  0
   -3.0520    0.4780    0.6950 O   0  0  0  0  0  0  0  0  0  0  0  0
   -4.1730   -1.6330    0.5800 C   0  0  0  0  0  0  0  0  0  0  0  0
   -3.9730   -2.9180    0.6110 O   0  0  0  0  0  0  0  0  0  0  0  0
   -5.5100   -1.2490    0.5190 N   0  0  0  0  0  0  0  0  0  0  0  0
   -6.4910   -2.3540    0.5540 C   0  0  0  0  0  0  0  0  0  0  0  0
   -7.6200   -1.9650   -0.3740 C   0  0  0  0  0  0  0  0  0  0  0  0
   -8.3900   -0.8190    0.2670 C   0  0  0  0  0  0  0  0  0  0  0  0
   -7.4610    0.1740    0.8930 C   0  0  2  0  0  0  0  0  0  0  0  0
   -8.0180    1.5490    0.4690 C   0  0  0  0  0  0  0  0  0  0  0  0
   -8.0890    1.5650   -0.9130 O   0  0  0  0  0  0  0  0  0  0  0  0
   -6.8650    1.6030   -1.4770 C   0  0  0  0  0  0  0  0  0  0  0  0
   -5.8440    0.6970   -0.9370 C   0  0  0  0  0  0  0  0  0  0  0  0
   -6.0230    0.0820    0.4030 C   0  0  2  0  0  0  0  0  0  0  0  0
    0.6330   -1.3740    0.0190 C   0  0  0  0  0  0  0  0  0  0  0  0
    1.8870   -0.8210   -0.0870 C   0  0  0  0  0  0  0  0  0  0  0  0
    2.0640    0.4700    0.3150 C   0  0  0  0  0  0  0  0  0  0  0  0
    3.1660    1.2460    0.3100 N   0  0  0  0  0  0  0  0  0  0  0  0
    4.4680    0.8700   -0.1590 C   0  0  0  0  0  0  0  0  0  0  0  0
    4.9380    1.4080   -1.3470 C   0  0  0  0  0  0  0  0  0  0  0  0
    6.1800    1.0530   -1.8490 C   0  0  0  0  0  0  0  0  0  0  0  0
    6.9970    0.1510   -1.1870 C   0  0  0  0  0  0  0  0  0  0  0  0
    6.5320   -0.3830   -0.0060 C   0  0  0  0  0  0  0  0  0  0  0  0
    5.2900   -0.0210    0.4840 C   0  0  0  0  0  0  0  0  0  0  0  0
    7.5750   -1.3060    0.4960 C   0  0  0  0  0  0  0  0  0  0  0  0
    8.8140   -0.8550   -0.2390 C   0  0  1  0  0  0  0  0  0  0  0  0
    9.7920   -1.9900   -0.4610 C   0  0  0  0  0  0  0  0  0  0  0  0
    8.2830   -0.3640   -1.4920 N   0  0  0  0  0  0  0  0  0  0  0  0
  1  2  1  0
  2  3  2  0
  2 25  1  0
  3  4  1  0
  4  5  2  0
  4 24  1  0
  5  6  1  0
  6  7  1  0
  6 22  2  0
  7  8  1  0
  8  9  2  0
  8 10  1  0
 10 11  2  0
 10 12  1  0
 12 13  1  0
 12 21  1  0
 13 14  1  0
 14 15  1  0
 16 15  1  6
 16 17  1  0
 16 21  1  0
 17 18  1  0
 18 19  1  0
 19 20  1  0
 21 20  1  6
 22 23  1  0
 23 24  2  0
 24 25  1  0
 25 26  1  0
 26 27  2  0
 26 31  1  0
 27 28  1  0
 28 29  2  0
 29 30  1  0
 29 35  1  0
 30 31  2  0
 30 32  1  0
 32 33  1  0
 33 34  1  6
 33 35  1  0
M  CHG  1  35   1
M  END
