
     RDKit          3D

 35 37  0  0  0  0  0  0  0  0999 V2000
   11.1750   -0.8240   -1.4240 C   0  0  0  0  0  0  0  0  0  0  0  0
    9.7720   -0.6760   -1.2500 O   0  0  0  0  0  0  0  0  0  0  0  0
    9.2880    0.1550   -0.2560 C   0  0  0  0  0  0  0  0  0  0  0  0
   10.1150    0.7580    0.4680 O   0  0  0  0  0  0  0  0  0  0  0  0
    7.8400    0.3460   -0.0290 C   0  0  0  0  0  0  0  0  0  0  0  0
    7.0090   -0.4650   -0.9950 C   0  0  0  0  0  0  0  0  0  0  0  0
    5.5900   -0.3120   -0.8230 N   0  0  0  0  0  0  0  0  0  0  0  0
    4.9380   -0.6770    0.4130 C   0  0  0  0  0  0  0  0  0  0  0  0
    5.6570   -1.1300    1.3160 O   0  0  0  0  0  0  0  0  0  0  0  0
    3.5600   -0.5260    0.5830 N   0  0  0  0  0  0  0  0  0  0  0  0
    2.8700   -0.8890    1.8310 C   0  0  0  0  0  0  0  0  0  0  0  0
    3.5640   -1.3840    2.8560 C   0  0  0  0  0  0  0  0  0  0  0  0
    2.2440   -1.6610    4.1370 S   0  0  0  0  0  0  0  0  0  0  0  0
    0.9570   -1.0800    3.1320 C   0  0  0  0  0  0  0  0  0  0  0  0
   -0.4190   -0.9740    3.4220 C   0  0  0  0  0  0  0  0  0  0  0  0
   -1.2760   -0.4810    2.4720 C   0  0  0  0  0  0  0  0  0  0  0  0
   -0.7390   -0.1080    1.2590 C   0  0  0  0  0  0  0  0  0  0  0  0
   -1.6270    0.3890    0.3110 O   0  0  0  0  0  0  0  0  0  0  0  0
   -1.2100    0.8080   -0.9730 C   0  0  0  0  0  0  0  0  0  0  0  0
   -2.3590    1.2860   -1.7610 C   0  0  0  0  0  0  0  0  0  0  0  0
   -2.1570    1.6940   -2.9290 O   0  0  0  0  0  0  0  0  0  0  0  0
   -3.6830    1.2730   -1.1740 N   0  0  0  0  0  0  0  0  0  0  0  0
   -4.7350    1.7570   -2.0190 C   0  0  0  0  0  0  0  0  0  0  0  0
   -6.1080    1.7710   -1.4550 C   0  0  1  0  0  0  0  0  0  0  0  0
   -7.0800    2.2300   -2.3320 O   0  0  0  0  0  0  0  0  0  0  0  0
   -6.4890    0.7590   -0.4980 C   0  0  0  0  0  0  0  0  0  0  0  0
   -7.2590   -0.2050   -0.9370 C   0  0  0  0  0  0  0  0  0  0  0  0
   -7.6560   -0.1760   -2.3170 C   0  0  0  0  0  0  0  0  0  0  0  0
   -7.7590   -1.3020   -0.1900 O   0  0  0  0  0  0  0  0  0  0  0  0
   -7.2470   -1.8990    0.9630 C   0  0  0  0  0  0  0  0  0  0  0  0
   -6.4660   -1.3750    1.8700 C   0  0  0  0  0  0  0  0  0  0  0  0
   -5.9370   -0.0060    1.8840 C   0  0  0  0  0  0  0  0  0  0  0  0
   -5.9600    0.8570    0.8900 C   0  0  0  0  0  0  0  0  0  0  0  0
    0.6020   -0.2230    1.0080 C   0  0  0  0  0  0  0  0  0  0  0  0
    1.5190   -0.7270    1.9630 C   0  0  0  0  0  0  0  0  0  0  0  0
  1  2  1  0
  2  3  1  0
  3  4  2  0
  3  5  1  0
  5  6  1  0
  6  7  1  0
  7  8  1  0
  8  9  2  0
  8 10  1  0
 10 11  1  0
 11 12  2  0
 11 35  1  0
 12 13  1  0
 13 14  1  0
 14 15  2  0
 14 35  1  0
 15 16  1  0
 16 17  2  0
 17 18  1  0
 17 34  1  0
 18 19  1  0
 19 20  1  0
 20 21  2  0
 20 22  1  0
 22 23  1  0
 23 24  1  0
 24 25  1  6
 24 26  1  0
 26 27  2  0
 26 33  1  0
 27 28  1  0
 27 29  1  0
 29 30  1  0
 30 31  2  0
 31 32  1  0
 32 33  2  0
 34 35  2  0
M  END
