
     RDKit          3D

 35 41  0  0  0  0  0  0  0  0999 V2000
    3.6250    1.5680   -0.2760 C   0  0  0  0  0  0  0  0  0  0  0  0
    4.1930    0.7270    0.8510 C   0  0  2  0  0  0  0  0  0  0  0  0
    5.4460    1.2740    1.2890 N   0  0  0  0  0  0  0  0  0  0  0  0
    6.4950    1.0750    0.3060 C   0  0  0  0  0  0  0  0  0  0  0  0
    6.7490   -0.4340    0.2600 C   0  0  0  0  0  0  0  0  0  0  0  0
    5.5140   -1.0800   -0.2890 C   0  0  0  0  0  0  0  0  0  0  0  0
    4.2650   -0.7190    0.4590 C   0  0  2  0  0  0  0  0  0  0  0  0
    3.1130   -0.9740   -0.4180 N   0  0  0  0  0  0  0  0  0  0  0  0
    2.1120   -1.9160   -0.0850 C   0  0  0  0  0  0  0  0  0  0  0  0
    2.2730   -2.5290    1.0200 O   0  0  0  0  0  0  0  0  0  0  0  0
    0.9260   -2.2470   -0.8820 C   0  0  1  0  0  0  0  0  0  0  0  0
    0.0590   -3.2800   -0.1970 C   0  0  0  0  0  0  0  0  0  0  0  0
   -1.2520   -2.6140    0.0380 C   0  0  0  0  0  0  0  0  0  0  0  0
   -2.3820   -3.0040    0.6180 N   0  0  0  0  0  0  0  0  0  0  0  0
   -3.4720   -2.1640    0.7150 C   0  0  0  0  0  0  0  0  0  0  0  0
   -4.4920   -2.5440    1.5390 C   0  0  0  0  0  0  0  0  0  0  0  0
   -5.4600   -1.6460    1.8910 C   0  0  0  0  0  0  0  0  0  0  0  0
   -5.3840   -0.3510    1.4090 C   0  0  0  0  0  0  0  0  0  0  0  0
   -4.3690    0.0630    0.5660 C   0  0  0  0  0  0  0  0  0  0  0  0
   -3.4130   -0.8800    0.1930 C   0  0  0  0  0  0  0  0  0  0  0  0
   -2.2810   -0.4800   -0.4330 C   0  0  0  0  0  0  0  0  0  0  0  0
   -1.1810   -1.3770   -0.4830 C   0  0  0  0  0  0  0  0  0  0  0  0
   -0.0120   -1.0800   -1.0670 C   0  0  0  0  0  0  0  0  0  0  0  0
    0.0970    0.1400   -1.6670 C   0  0  0  0  0  0  0  0  0  0  0  0
   -0.9780    1.0450   -1.6920 C   0  0  0  0  0  0  0  0  0  0  0  0
   -0.8850    2.1040   -2.5590 C   0  0  0  0  0  0  0  0  0  0  0  0
   -1.9940    2.8480   -2.8610 C   0  0  0  0  0  0  0  0  0  0  0  0
   -3.1970    2.5150   -2.2870 C   0  0  0  0  0  0  0  0  0  0  0  0
   -3.2780    1.4520   -1.4080 C   0  0  0  0  0  0  0  0  0  0  0  0
   -2.1790    0.7160   -1.0740 C   0  0  0  0  0  0  0  0  0  0  0  0
   -4.4140    1.3810    0.2460 O   0  0  0  0  0  0  0  0  0  0  0  0
   -4.9920    2.4090    1.0910 C   0  0  0  0  0  0  0  0  0  0  0  0
   -6.3480    1.8940    1.4640 C   0  0  0  0  0  0  0  0  0  0  0  0
   -7.3480    2.6030    1.4050 O   0  0  0  0  0  0  0  0  0  0  0  0
   -6.4080    0.5430    1.8860 N   0  0  0  0  0  0  0  0  0  0  0  0
  2  1  1  6
  2  3  1  0
  2  7  1  0
  3  4  1  0
  4  5  1  0
  5  6  1  0
  6  7  1  0
  7  8  1  6
  8  9  1  0
  9 10  2  0
 11  9  1  1
 11 12  1  0
 11 23  1  0
 12 13  1  0
 13 14  2  0
 13 22  1  0
 14 15  1  0
 15 16  2  0
 15 20  1  0
 16 17  1  0
 17 18  2  0
 18 19  1  0
 18 35  1  0
 19 20  2  0
 19 31  1  0
 20 21  1  0
 21 22  1  0
 21 30  2  0
 22 23  2  0
 23 24  1  0
 24 25  2  0
 25 26  1  0
 25 30  1  0
 26 27  2  0
 27 28  1  0
 28 29  2  0
 29 30  1  0
 31 32  1  0
 32 33  1  0
 33 34  2  0
 33 35  1  0
M  END
