
     RDKit          3D

 35 40  0  0  0  0  0  0  0  0999 V2000
   -5.9500   -3.8190    1.1860 C   0  0  0  0  0  0  0  0  0  0  0  0
   -4.6810   -3.1590    1.7030 C   0  0  1  0  0  0  0  0  0  0  0  0
   -3.4550   -3.9140    1.3050 C   0  0  0  0  0  0  0  0  0  0  0  0
   -2.5080   -2.8670    0.8650 C   0  0  0  0  0  0  0  0  0  0  0  0
   -1.1680   -2.8990    0.5310 C   0  0  0  0  0  0  0  0  0  0  0  0
   -0.4790   -1.7690    0.1310 C   0  0  0  0  0  0  0  0  0  0  0  0
    0.8990   -1.9190   -0.2060 N   0  0  0  0  0  0  0  0  0  0  0  0
    1.8350   -0.9050   -0.4030 C   0  0  0  0  0  0  0  0  0  0  0  0
    1.4180    0.2920   -0.2550 O   0  0  0  0  0  0  0  0  0  0  0  0
    3.2590   -1.0700   -0.7670 C   0  0  0  0  0  0  0  0  0  0  0  0
    3.7590   -2.2690   -0.9310 C   0  0  0  0  0  0  0  0  0  0  0  0
    5.1320   -2.6700   -1.2910 C   0  0  0  0  0  0  0  0  0  0  0  0
    6.2010   -1.9080   -1.2010 C   0  0  0  0  0  0  0  0  0  0  0  0
    6.3360   -0.5270   -0.7470 C   0  0  0  0  0  0  0  0  0  0  0  0
    7.4930    0.0510   -0.3770 N   0  0  0  0  0  0  0  0  0  0  0  0
    7.2000    1.2960   -0.0220 C   0  0  0  0  0  0  0  0  0  0  0  0
    8.0510    2.2940    0.4370 C   0  0  0  0  0  0  0  0  0  0  0  0
    7.4960    3.5170    0.7450 C   0  0  0  0  0  0  0  0  0  0  0  0
    6.1390    3.7100    0.5920 C   0  0  0  0  0  0  0  0  0  0  0  0
    5.3150    2.7120    0.1380 C   0  0  0  0  0  0  0  0  0  0  0  0
    5.8620    1.4860   -0.1730 C   0  0  0  0  0  0  0  0  0  0  0  0
    5.3000    0.3220   -0.6380 N   0  0  0  0  0  0  0  0  0  0  0  0
    3.9110    0.2560   -0.8970 C   0  0  0  0  0  0  0  0  0  0  0  0
   -1.1460   -0.5840    0.0640 C   0  0  0  0  0  0  0  0  0  0  0  0
   -2.5150   -0.5200    0.3990 C   0  0  0  0  0  0  0  0  0  0  0  0
   -3.1750    0.8000    0.3760 C   0  0  1  0  0  0  0  0  0  0  0  0
   -2.5520    1.7640   -0.5990 C   0  0  0  0  0  0  0  0  0  0  0  0
   -3.5920    2.2180   -1.6250 C   0  0  0  0  0  0  0  0  0  0  0  0
   -4.3700    3.3360   -1.1980 N   0  0  0  0  0  0  0  0  0  0  0  0
   -5.5010    2.9720   -0.3920 C   0  0  0  0  0  0  0  0  0  0  0  0
   -5.1290    2.2210    0.8400 C   0  0  2  0  0  0  0  0  0  0  0  0
   -4.0580    2.8260    1.4890 O   0  0  0  0  0  0  0  0  0  0  0  0
   -4.6630    0.8120    0.4150 C   0  0  0  0  0  0  0  0  0  0  0  0
   -3.1890   -1.6700    0.7990 C   0  0  0  0  0  0  0  0  0  0  0  0
   -4.5060   -1.8810    1.1740 O   0  0  0  0  0  0  0  0  0  0  0  0
  2  1  1  6
  2  3  1  0
  2 35  1  0
  3  4  1  0
  4  5  2  0
  4 34  1  0
  5  6  1  0
  6  7  1  0
  6 24  2  0
  7  8  1  0
  8  9  2  0
  8 10  1  0
 10 11  2  0
 10 23  1  0
 11 12  1  0
 12 13  2  0
 13 14  1  0
 14 15  2  0
 14 22  1  0
 15 16  1  0
 16 17  2  0
 16 21  1  0
 17 18  1  0
 18 19  2  0
 19 20  1  0
 20 21  2  0
 21 22  1  0
 22 23  1  0
 24 25  1  0
 26 25  1  6
 25 34  2  0
 26 27  1  0
 26 33  1  0
 27 28  1  0
 28 29  1  0
 29 30  1  0
 30 31  1  0
 31 32  1  6
 31 33  1  0
 34 35  1  0
M  CHG  1  15   1
M  END
