
     RDKit          3D

 35 39  0  0  0  0  0  0  0  0999 V2000
   -5.6630    0.3830   -0.3160 C   0  0  0  0  0  0  0  0  0  0  0  0
   -4.6060   -0.5480   -0.8550 C   0  0  0  0  0  0  0  0  0  0  0  0
   -4.9990   -1.4010   -1.8740 C   0  0  0  0  0  0  0  0  0  0  0  0
   -4.0860   -2.2760   -2.3920 C   0  0  0  0  0  0  0  0  0  0  0  0
   -2.8160   -2.2780   -1.8840 C   0  0  0  0  0  0  0  0  0  0  0  0
   -2.3910   -1.4280   -0.8540 C   0  0  0  0  0  0  0  0  0  0  0  0
   -3.3190   -0.5300   -0.3200 C   0  0  0  0  0  0  0  0  0  0  0  0
   -3.0210    0.4080    0.7550 C   0  0  0  0  0  0  0  0  0  0  0  0
   -3.9080    0.3980    1.7070 O   0  0  0  0  0  0  0  0  0  0  0  0
   -1.9180    1.2800    0.8570 N   0  0  0  0  0  0  0  0  0  0  0  0
   -1.4880    2.2550   -0.1360 C   0  0  1  0  0  0  0  0  0  0  0  0
   -1.2510    3.6130    0.5900 C   0  0  0  0  0  0  0  0  0  0  0  0
    0.0920    3.3210    1.1570 C   0  0  0  0  0  0  0  0  0  0  0  0
    0.7760    2.5180    0.0830 C   0  0  0  0  0  0  0  0  0  0  0  0
    2.1620    2.3710   -0.1490 C   0  0  0  0  0  0  0  0  0  0  0  0
    2.6200    1.6150   -1.2160 C   0  0  0  0  0  0  0  0  0  0  0  0
    1.6270    1.0380   -2.0030 C   0  0  0  0  0  0  0  0  0  0  0  0
    0.2440    1.2040   -1.7420 C   0  0  0  0  0  0  0  0  0  0  0  0
   -0.1860    1.9470   -0.6930 C   0  0  0  0  0  0  0  0  0  0  0  0
    4.0960    1.3970   -1.4710 C   0  0  0  0  0  0  0  0  0  0  0  0
    4.9620    2.0380   -2.1630 O   0  0  0  0  0  0  0  0  0  0  0  0
    4.7170    0.2040   -0.8010 N   0  0  0  0  0  0  0  0  0  0  0  0
    6.1750    0.1450   -1.1090 C   0  0  0  0  0  0  0  0  0  0  0  0
    3.8210   -0.6200   -0.0200 C   0  0  0  0  0  0  0  0  0  0  0  0
    3.0940   -1.6790   -0.5380 C   0  0  0  0  0  0  0  0  0  0  0  0
    2.1960   -2.4880    0.2050 C   0  0  0  0  0  0  0  0  0  0  0  0
    1.9470   -2.3000    1.5560 C   0  0  0  0  0  0  0  0  0  0  0  0
    2.6610   -1.2400    2.0920 C   0  0  0  0  0  0  0  0  0  0  0  0
    3.5510   -0.4470    1.3300 C   0  0  0  0  0  0  0  0  0  0  0  0
    1.0120   -3.1590    2.3600 C   0  0  0  0  0  0  0  0  0  0  0  0
    1.2230   -4.2730    3.0260 O   0  0  0  0  0  0  0  0  0  0  0  0
   -0.3790   -2.7680    2.4740 N   0  0  0  0  0  0  0  0  0  0  0  0
   -0.8700   -1.6580    2.0330 C   0  0  0  0  0  0  0  0  0  0  0  0
   -0.6150   -1.1780    0.7410 N   0  0  0  0  0  0  0  0  0  0  0  0
   -1.0090   -1.5420   -0.4000 C   0  0  0  0  0  0  0  0  0  0  0  0
  1  2  1  0
  2  3  1  0
  2  7  2  0
  3  4  2  0
  4  5  1  0
  5  6  2  0
  6  7  1  0
  6 35  1  0
  7  8  1  0
  8  9  2  0
  8 10  1  0
 10 11  1  0
 11 12  1  1
 11 19  1  0
 12 13  1  0
 13 14  1  0
 14 15  2  0
 14 19  1  0
 15 16  1  0
 16 17  2  0
 16 20  1  0
 17 18  1  0
 18 19  2  0
 20 21  2  0
 20 22  1  0
 22 23  1  0
 22 24  1  0
 24 25  2  0
 24 29  1  0
 25 26  1  0
 26 27  2  0
 27 28  1  0
 27 30  1  0
 28 29  2  0
 30 31  2  0
 30 32  1  0
 32 33  2  0
 33 34  1  0
 34 35  2  0
M  CHG  1  32   1
M  END
