
     RDKit          3D

 27 29  0  0  0  0  0  0  0  0999 V2000
   -1.3640   -3.5300   -2.2680 N   0  0  0  0  0  0  0  0  0  0  0  0
   -1.5330   -3.0950   -0.9530 N   0  0  0  0  0  0  0  0  0  0  0  0
   -1.0980   -1.7730   -0.5190 C   0  0  0  0  0  0  0  0  0  0  0  0
   -0.0770   -1.2720   -1.1430 N   0  0  0  0  0  0  0  0  0  0  0  0
    0.6110   -0.0140   -0.9900 C   0  0  0  0  0  0  0  0  0  0  0  0
    1.8240   -0.1500   -0.3270 C   0  0  0  0  0  0  0  0  0  0  0  0
    2.5090   -1.4000   -0.1070 N   0  0  0  0  0  0  0  0  0  0  0  0
    2.2440   -2.1130    1.0750 C   0  0  0  0  0  0  0  0  0  0  0  0
    1.4470   -1.7430    1.9720 O   0  0  0  0  0  0  0  0  0  0  0  0
    2.9330   -3.3320    1.2530 O   0  0  0  0  0  0  0  0  0  0  0  0
    2.5310    0.9410    0.1380 C   0  0  0  0  0  0  0  0  0  0  0  0
    3.7420    0.8150    0.7970 O   0  0  0  0  0  0  0  0  0  0  0  0
    1.9370    2.1510   -0.1050 C   0  0  0  0  0  0  0  0  0  0  0  0
    2.6550    3.2720    0.3710 O   0  0  0  0  0  0  0  0  0  0  0  0
    0.7280    2.2900   -0.7690 N   0  0  0  0  0  0  0  0  0  0  0  0
    0.0420    1.2520   -1.2400 C   0  0  0  0  0  0  0  0  0  0  0  0
   -1.0820    1.3090   -1.9300 O   0  0  0  0  0  0  0  0  0  0  0  0
    0.2690    3.6740   -0.5920 C   0  0  0  0  0  0  0  0  0  0  0  0
    0.9370    4.6750   -0.8850 O   0  0  0  0  0  0  0  0  0  0  0  0
   -1.0200    3.9680   -0.0460 O   0  0  0  0  0  0  0  0  0  0  0  0
   -1.9990    3.0020   -0.1570 O   0  0  0  0  0  0  0  0  0  0  0  0
   -2.5860    2.1910    0.7930 C   0  0  0  0  0  0  0  0  0  0  0  0
   -3.3680    2.7830    1.6930 O   0  0  0  0  0  0  0  0  0  0  0  0
   -2.3440    0.8290    0.7640 N   0  0  0  0  0  0  0  0  0  0  0  0
   -2.9400   -0.2780    0.0680 C   0  0  0  0  0  0  0  0  0  0  0  0
   -1.8730   -1.2300    0.5820 C   0  0  2  0  0  0  0  0  0  0  0  0
   -1.4080   -0.0480    1.3460 C   0  0  0  0  0  0  0  0  0  0  0  0
  1  2  1  0
  2  3  1  0
  3  4  2  0
  3 26  1  0
  4  5  1  0
  5  6  2  0
  5 16  1  0
  6  7  1  0
  6 11  1  0
  7  8  1  0
  8  9  2  0
  8 10  1  0
 11 12  1  0
 11 13  2  0
 13 14  1  0
 13 15  1  0
 15 16  1  0
 15 18  1  0
 16 17  2  0
 18 19  2  0
 18 20  1  0
 20 21  1  0
 21 22  1  0
 22 23  2  0
 22 24  1  0
 24 25  1  0
 24 27  1  0
 25 26  1  0
 26 27  1  1
M  END
