
     RDKit          3D

 27 27  0  0  0  0  0  0  0  0999 V2000
   -1.0170    5.1750    0.3020 N   0  0  0  0  0  0  0  0  0  0  0  0
   -1.7560    4.2430    1.0430 C   0  0  0  0  0  0  0  0  0  0  0  0
   -0.9510    3.1920    1.7610 C   0  0  0  0  0  0  0  0  0  0  0  0
   -0.1570    2.3820    0.8890 N   0  0  0  0  0  0  0  0  0  0  0  0
   -0.7010    1.2510    0.3870 C   0  0  0  0  0  0  0  0  0  0  0  0
   -1.9320    0.9180    0.7030 N   0  0  0  0  0  0  0  0  0  0  0  0
   -2.4090   -0.2860    0.1240 C   0  0  0  0  0  0  0  0  0  0  0  0
   -2.1540   -0.6070   -1.2020 O   0  0  0  0  0  0  0  0  0  0  0  0
   -3.1070   -1.1440    0.8090 N   0  0  0  0  0  0  0  0  0  0  0  0
   -3.5950   -2.3460    0.2640 C   0  0  0  0  0  0  0  0  0  0  0  0
   -4.8080   -2.6540    0.4880 O   0  0  0  0  0  0  0  0  0  0  0  0
   -2.8270   -3.2430   -0.5200 N   0  0  0  0  0  0  0  0  0  0  0  0
   -3.3620   -4.4500   -1.0520 C   0  0  0  0  0  0  0  0  0  0  0  0
   -4.5700   -4.7100   -0.8020 O   0  0  0  0  0  0  0  0  0  0  0  0
   -2.6400   -5.3370   -1.8150 O   0  0  0  0  0  0  0  0  0  0  0  0
    0.0540    0.4980   -0.4300 N   0  0  0  0  0  0  0  0  0  0  0  0
    1.3150    0.8210   -0.7660 C   0  0  0  0  0  0  0  0  0  0  0  0
    2.1380   -0.0180   -1.6760 C   0  0  0  0  0  0  0  0  0  0  0  0
    2.6010   -1.1960   -1.0920 O   0  0  0  0  0  0  0  0  0  0  0  0
    3.4120   -1.1910    0.0240 C   0  0  0  0  0  0  0  0  0  0  0  0
    3.7430   -0.0950    0.5300 O   0  0  0  0  0  0  0  0  0  0  0  0
    3.8710   -2.4920    0.5960 C   0  0  0  0  0  0  0  0  0  0  0  0
    4.6620   -2.2140    1.6990 O   0  0  0  0  0  0  0  0  0  0  0  0
    5.0750   -3.3590    2.2140 O   0  0  0  0  0  0  0  0  0  0  0  0
    1.8040    1.9560   -0.2370 N   0  0  0  0  0  0  0  0  0  0  0  0
    1.0850    2.7440    0.5880 C   0  0  0  0  0  0  0  0  0  0  0  0
    1.6180    3.8120    1.0530 O   0  0  0  0  0  0  0  0  0  0  0  0
  1  2  1  0
  2  3  1  0
  3  4  1  0
  4  5  1  0
  4 26  1  0
  5  6  2  3
  5 16  1  0
  6  7  1  0
  7  8  1  0
  7  9  2  3
  9 10  1  0
 10 11  2  0
 10 12  1  0
 12 13  1  0
 13 14  2  0
 13 15  1  0
 16 17  2  0
 17 18  1  0
 17 25  1  0
 18 19  1  0
 19 20  1  0
 20 21  2  0
 20 22  1  0
 22 23  1  0
 23 24  1  0
 25 26  1  0
 26 27  2  0
M  END
