
     RDKit          3D

 15 14  0  0  0  0  0  0  0  0999 V2000
   -3.5510   -0.1160   -0.5980 O   0  0  0  0  0  0  0  0  0  0  0  0
   -2.7960    0.7970   -0.9570 C   0  0  0  0  0  0  0  0  0  0  0  0
   -3.2470    1.8270   -1.8090 O   0  0  0  0  0  0  0  0  0  0  0  0
   -1.5140    0.7770   -0.5030 O   0  0  0  0  0  0  0  0  0  0  0  0
   -1.0170   -0.2500    0.3600 C   0  0  2  0  0  0  0  0  0  0  0  0
   -1.1130   -1.5840   -0.2960 C   0  0  0  0  0  0  0  0  0  0  0  0
   -0.4830   -1.7560   -1.4900 O   0  0  0  0  0  0  0  0  0  0  0  0
   -1.9230   -0.3420    1.6030 C   0  0  0  0  0  0  0  0  0  0  0  0
   -2.0690    0.8770    2.2270 O   0  0  0  0  0  0  0  0  0  0  0  0
    0.2130    0.1830    0.7840 N   0  0  0  0  0  0  0  0  0  0  0  0
    1.3910    0.4980    0.2000 C   0  0  0  0  0  0  0  0  0  0  0  0
    2.2670   -0.5670   -0.3700 C   0  0  0  0  0  0  0  0  0  0  0  0
    3.8650    0.1840   -1.0340 P   0  0  0  0  0  0  0  0  0  0  0  0
    3.4940    1.5680   -1.9980 O   0  0  0  0  0  0  0  0  0  0  0  0
    4.8220    0.6780    0.3170 O   0  0  0  0  0  0  0  0  0  0  0  0
  1  2  2  0
  2  3  1  0
  2  4  1  0
  4  5  1  0
  5  6  1  6
  5  8  1  0
  5 10  1  0
  6  7  1  0
  8  9  1  0
 10 11  1  0
 11 12  1  0
 12 13  1  0
 13 14  1  0
 13 15  1  0
M  END
