
     RDKit          3D

 27 28  0  0  0  0  0  0  0  0999 V2000
    3.3710   -0.0460    2.4250 N   0  0  0  0  0  0  0  0  0  0  0  0
    3.1460   -0.8020    1.2040 C   0  0  0  0  0  0  0  0  0  0  0  0
    2.1100   -1.5070    1.1950 O   0  0  0  0  0  0  0  0  0  0  0  0
    4.0760   -0.6790    0.1800 N   0  0  0  0  0  0  0  0  0  0  0  0
    5.2600    0.1690    0.4430 C   0  0  0  0  0  0  0  0  0  0  0  0
    6.2930   -0.5790    0.9850 O   0  0  0  0  0  0  0  0  0  0  0  0
    5.9580   -1.1390    2.1140 O   0  0  0  0  0  0  0  0  0  0  0  0
    4.0540   -1.3180   -1.0630 C   0  0  0  0  0  0  0  0  0  0  0  0
    5.1270   -1.2150   -1.8290 O   0  0  0  0  0  0  0  0  0  0  0  0
    3.0140   -2.1230   -1.7100 C   0  0  0  0  0  0  0  0  0  0  0  0
    1.7010   -1.9050   -1.2880 O   0  0  0  0  0  0  0  0  0  0  0  0
    1.1310   -0.6340   -1.5540 C   0  0  0  0  0  0  0  0  0  0  0  0
    1.8280    0.2180   -2.1470 O   0  0  0  0  0  0  0  0  0  0  0  0
   -0.1940   -0.3820   -1.1400 N   0  0  0  0  0  0  0  0  0  0  0  0
   -0.7870    0.8910   -1.3970 C   0  0  0  0  0  0  0  0  0  0  0  0
   -0.2320    1.9270   -2.0060 N   0  0  0  0  0  0  0  0  0  0  0  0
   -1.0550    2.9510   -2.0800 N   0  0  0  0  0  0  0  0  0  0  0  0
   -2.2100    2.5560   -1.4850 C   0  0  0  0  0  0  0  0  0  0  0  0
   -2.0830    1.2700   -1.0430 C   0  0  0  0  0  0  0  0  0  0  0  0
   -2.9870    0.4480   -0.3810 O   0  0  0  0  0  0  0  0  0  0  0  0
   -4.2750    0.9110   -0.0630 C   0  0  2  0  0  0  0  0  0  0  0  0
   -4.5230    0.8130    1.4290 C   0  0  0  0  0  0  0  0  0  0  0  0
   -4.7300   -0.5850    1.7850 N   0  0  0  0  0  0  0  0  0  0  0  0
   -4.6790   -1.6220    0.8240 C   0  0  0  0  0  0  0  0  0  0  0  0
   -4.4270   -2.8060    1.1450 O   0  0  0  0  0  0  0  0  0  0  0  0
   -4.9150   -1.3190   -0.5230 O   0  0  0  0  0  0  0  0  0  0  0  0
   -5.2580    0.0210   -0.8260 C   0  0  0  0  0  0  0  0  0  0  0  0
  1  2  1  0
  2  3  2  0
  2  4  1  0
  4  5  1  0
  4  8  1  0
  5  6  1  0
  6  7  1  0
  8  9  2  0
  8 10  1  0
 10 11  1  0
 11 12  1  0
 12 13  2  0
 12 14  1  0
 14 15  1  0
 15 16  2  0
 15 19  1  0
 16 17  1  0
 17 18  1  0
 18 19  2  0
 19 20  1  0
 21 20  1  1
 21 22  1  0
 21 27  1  0
 22 23  1  0
 23 24  1  0
 24 25  2  0
 24 26  1  0
 26 27  1  0
M  END
