
     RDKit          3D

 15 14  0  0  0  0  0  0  0  0999 V2000
    0.8600    1.8160   -0.2350 C   0  0  0  0  0  0  0  0  0  0  0  0
    0.9380    0.3330    0.0340 C   0  0  1  0  0  0  0  0  0  0  0  0
    1.0260    0.1630    1.4190 O   0  0  0  0  0  0  0  0  0  0  0  0
   -0.1850   -0.4000   -0.4460 N   0  0  0  0  0  0  0  0  0  0  0  0
   -1.4110   -0.0170    0.1830 C   0  0  0  0  0  0  0  0  0  0  0  0
   -2.6010   -0.8030   -0.3350 C   0  0  0  0  0  0  0  0  0  0  0  0
   -4.1040   -0.1890    0.5750 P   0  0  0  0  0  0  0  0  0  0  0  0
   -5.5570   -0.8730   -0.0790 O   0  0  0  0  0  0  0  0  0  0  0  0
   -4.1740    1.5420    0.3460 O   0  0  0  0  0  0  0  0  0  0  0  0
    2.2260   -0.1300   -0.5630 C   0  0  0  0  0  0  0  0  0  0  0  0
    2.4240   -0.0850   -1.8070 O   0  0  0  0  0  0  0  0  0  0  0  0
    3.2570   -0.6270    0.2230 O   0  0  0  0  0  0  0  0  0  0  0  0
    4.4590   -1.0620   -0.2930 C   0  0  0  0  0  0  0  0  0  0  0  0
    4.6600   -1.0160   -1.5440 O   0  0  0  0  0  0  0  0  0  0  0  0
    5.5130   -1.5660    0.4610 O   0  0  0  0  0  0  0  0  0  0  0  0
  2  1  1  1
  2  3  1  0
  2  4  1  0
  2 10  1  0
  4  5  1  0
  5  6  1  0
  6  7  1  0
  7  8  1  0
  7  9  1  0
 10 11  2  0
 10 12  1  0
 12 13  1  0
 13 14  2  0
 13 15  1  0
M  END
