
     RDKit          3D

 27 28  0  0  0  0  0  0  0  0999 V2000
   -2.3270   -3.7510    0.9370 N   0  0  0  0  0  0  0  0  0  0  0  0
   -2.2460   -2.4010    0.5640 C   0  0  0  0  0  0  0  0  0  0  0  0
   -1.1630   -1.6090    0.5670 N   0  0  0  0  0  0  0  0  0  0  0  0
   -1.4850   -0.3740    0.1410 C   0  0  0  0  0  0  0  0  0  0  0  0
   -0.6130    0.7400    0.0050 N   0  0  0  0  0  0  0  0  0  0  0  0
    0.7760    0.5350    0.3540 C   0  0  0  0  0  0  0  0  0  0  0  0
    1.3970   -0.5180   -0.0910 C   0  0  0  0  0  0  0  0  0  0  0  0
    2.7340   -0.8570    0.1570 N   0  0  0  0  0  0  0  0  0  0  0  0
    3.2230   -2.0100   -0.3950 C   0  0  0  0  0  0  0  0  0  0  0  0
    2.4260   -2.7040   -1.1010 O   0  0  0  0  0  0  0  0  0  0  0  0
    4.4650   -2.4300   -0.2300 N   0  0  0  0  0  0  0  0  0  0  0  0
    5.2970   -1.6780    0.5260 C   0  0  0  0  0  0  0  0  0  0  0  0
    6.4820   -2.0500    0.7010 O   0  0  0  0  0  0  0  0  0  0  0  0
    4.8860   -0.5390    1.0950 N   0  0  0  0  0  0  0  0  0  0  0  0
    3.5960   -0.1640    0.8850 C   0  0  0  0  0  0  0  0  0  0  0  0
    3.2550    0.8970    1.4300 O   0  0  0  0  0  0  0  0  0  0  0  0
   -1.0740    2.0130   -0.4530 C   0  0  0  0  0  0  0  0  0  0  0  0
   -1.0090    3.0130    0.6740 C   0  0  0  0  0  0  0  0  0  0  0  0
   -1.4450    4.2930    0.3140 O   0  0  0  0  0  0  0  0  0  0  0  0
   -0.9030    5.0850   -0.6660 C   0  0  0  0  0  0  0  0  0  0  0  0
    0.0650    4.6620   -1.3130 O   0  0  0  0  0  0  0  0  0  0  0  0
   -1.3960    6.3550   -0.9690 O   0  0  0  0  0  0  0  0  0  0  0  0
   -2.7710   -0.4300   -0.1180 O   0  0  0  0  0  0  0  0  0  0  0  0
   -3.2840   -1.6050    0.1120 C   0  0  0  0  0  0  0  0  0  0  0  0
   -4.6890   -2.0090   -0.0710 C   0  0  0  0  0  0  0  0  0  0  0  0
   -5.5210   -1.1740   -0.4910 O   0  0  0  0  0  0  0  0  0  0  0  0
   -5.1270   -3.2890    0.2050 O   0  0  0  0  0  0  0  0  0  0  0  0
  1  2  1  0
  2  3  1  0
  2 24  2  0
  3  4  2  0
  4  5  1  0
  4 23  1  0
  5  6  1  0
  5 17  1  0
  6  7  2  3
  7  8  1  0
  8  9  1  0
  8 15  1  0
  9 10  2  0
  9 11  1  0
 11 12  1  0
 12 13  2  0
 12 14  1  0
 14 15  1  0
 15 16  2  0
 17 18  1  0
 18 19  1  0
 19 20  1  0
 20 21  2  0
 20 22  1  0
 23 24  1  0
 24 25  1  0
 25 26  2  0
 25 27  1  0
M  END
