
     RDKit          3D

 26 26  0  0  0  0  0  0  0  0999 V2000
   -3.0350    4.0770   -0.4550 C   0  0  0  0  0  0  0  0  0  0  0  0
   -3.0060    2.5920   -0.6090 C   0  0  0  0  0  0  0  0  0  0  0  0
   -4.1010    1.9240   -0.9790 N   0  0  0  0  0  0  0  0  0  0  0  0
   -4.0440    0.5680   -1.1120 C   0  0  0  0  0  0  0  0  0  0  0  0
   -2.9160   -0.1610   -0.8850 C   0  0  0  0  0  0  0  0  0  0  0  0
   -2.8120   -1.5870   -1.0950 C   0  0  0  0  0  0  0  0  0  0  0  0
   -3.9590   -2.2190   -1.3490 O   0  0  0  0  0  0  0  0  0  0  0  0
   -5.0040   -2.3200   -0.1010 P   0  0  0  0  0  0  0  0  0  0  0  0
   -6.5070   -1.6110   -0.1400 O   0  0  0  0  0  0  0  0  0  0  0  0
   -5.6120   -3.6060   -0.7160 O   0  0  0  0  0  0  0  0  0  0  0  0
   -4.6170   -3.0840    1.3090 O   0  0  0  0  0  0  0  0  0  0  0  0
   -1.7430    0.5240   -0.4930 C   0  0  0  0  0  0  0  0  0  0  0  0
   -0.5550   -0.2720   -0.2610 C   0  0  0  0  0  0  0  0  0  0  0  0
    0.5700    0.5360    0.1280 N   0  0  0  0  0  0  0  0  0  0  0  0
    1.7380   -0.3460    0.4270 C   0  0  1  0  0  0  0  0  0  0  0  0
    2.9020    0.5580    0.5000 C   0  0  0  0  0  0  0  0  0  0  0  0
    3.7030    0.6580   -0.5410 C   0  0  0  0  0  0  0  0  0  0  0  0
    4.7750    1.4980   -0.4610 O   0  0  0  0  0  0  0  0  0  0  0  0
    5.9850    1.1650    0.1020 C   0  0  0  0  0  0  0  0  0  0  0  0
    6.6490    0.0280   -0.5880 C   0  0  0  0  0  0  0  0  0  0  0  0
    5.8560   -1.1620   -0.5490 N   0  0  0  0  0  0  0  0  0  0  0  0
    1.5650   -0.9420    1.7680 C   0  0  0  0  0  0  0  0  0  0  0  0
    2.4280   -1.7320    2.2020 O   0  0  0  0  0  0  0  0  0  0  0  0
    0.4680   -0.6400    2.5440 O   0  0  0  0  0  0  0  0  0  0  0  0
   -1.8190    1.8820   -0.3650 C   0  0  0  0  0  0  0  0  0  0  0  0
   -0.7370    2.6640    0.0130 O   0  0  0  0  0  0  0  0  0  0  0  0
  1  2  1  0
  2  3  2  0
  2 25  1  0
  3  4  1  0
  4  5  2  0
  5  6  1  0
  5 12  1  0
  6  7  1  0
  7  8  1  0
  8  9  1  0
  8 10  1  0
  8 11  1  0
 12 13  1  0
 12 25  2  0
 13 14  1  0
 15 14  1  1
 15 16  1  0
 15 22  1  0
 16 17  2  3
 17 18  1  0
 18 19  1  0
 19 20  1  0
 20 21  1  0
 22 23  2  0
 22 24  1  0
 25 26  1  0
M  CHG  2  14   1  21   1
M  END
