
     RDKit          3D

  9  8  0  0  0  0  0  0  0  0999 V2000
   -2.0450    0.0040    1.4770 O   0  0  0  0  0  0  0  0  0  0  0  0
   -2.7760    0.5270    0.0080 P   0  0  0  0  0  0  0  0  0  0  0  0
   -1.7380    0.1560   -1.3910 N   0  0  0  0  0  0  0  0  0  0  0  0
   -0.4520    0.4240   -1.0670 O   0  0  0  0  0  0  0  0  0  0  0  0
    0.2690   -0.5550   -1.6090 O   0  0  0  0  0  0  0  0  0  0  0  0
    1.0370   -1.0480   -0.6500 O   0  0  0  0  0  0  0  0  0  0  0  0
    1.9300    0.2280    0.1250 P   0  0  0  0  0  0  0  0  0  0  0  0
    3.5670    0.2190   -0.4520 O   0  0  0  0  0  0  0  0  0  0  0  0
    1.8710    0.0920    1.8500 O   0  0  0  0  0  0  0  0  0  0  0  0
  1  2  1  0
  2  3  1  0
  3  4  1  0
  4  5  1  0
  5  6  1  0
  6  7  1  0
  7  8  1  0
  7  9  1  0
M  END
