
     RDKit          3D

 24 24  0  0  0  0  0  0  0  0999 V2000
   -0.5960   -0.9250    1.6360 O   0  0  0  0  0  0  0  0  0  0  0  0
    0.1150   -1.5190    0.6270 C   0  0  1  0  0  0  0  0  0  0  0  0
   -0.8290   -1.7800   -0.5440 C   0  0  1  0  0  0  0  0  0  0  0  0
   -1.7250   -2.7830   -0.2200 O   0  0  0  0  0  0  0  0  0  0  0  0
   -1.5830   -0.4820   -0.7550 C   0  0  1  0  0  0  0  0  0  0  0  0
   -2.2590   -0.2240    0.4320 O   0  0  0  0  0  0  0  0  0  0  0  0
   -3.9070   -0.2900    0.1020 P   0  0  0  0  0  0  0  0  0  0  0  0
   -4.0110    1.1980    0.4270 O   0  0  0  0  0  0  0  0  0  0  0  0
   -4.9700   -0.6640    1.3280 O   0  0  0  0  0  0  0  0  0  0  0  0
   -4.4220   -0.1790   -1.4170 O   0  0  0  0  0  0  0  0  0  0  0  0
   -0.6780    0.6650   -1.1040 C   0  0  2  0  0  0  0  0  0  0  0  0
   -0.3960    0.5940   -2.4700 O   0  0  0  0  0  0  0  0  0  0  0  0
    0.5950    0.7330   -0.3370 C   0  0  1  0  0  0  0  0  0  0  0  0
    0.3380    1.4590    0.8280 O   0  0  0  0  0  0  0  0  0  0  0  0
    1.0120    2.8160    1.1020 P   0  0  0  0  0  0  0  0  0  0  0  0
    1.6570    4.2090    1.2340 O   0  0  0  0  0  0  0  0  0  0  0  0
    2.4700    2.0640    1.0650 O   0  0  0  0  0  0  0  0  0  0  0  0
    0.2690    2.9440    2.5690 O   0  0  0  0  0  0  0  0  0  0  0  0
    1.1830   -0.5960    0.0340 C   0  0  2  0  0  0  0  0  0  0  0  0
    1.6900   -1.2460   -1.0450 O   0  0  0  0  0  0  0  0  0  0  0  0
    3.2560   -1.6850   -0.7740 P   0  0  0  0  0  0  0  0  0  0  0  0
    3.7950   -2.1810    0.6820 O   0  0  0  0  0  0  0  0  0  0  0  0
    3.6790   -0.2260   -0.6330 O   0  0  0  0  0  0  0  0  0  0  0  0
    4.2780   -1.8560   -2.0890 O   0  0  0  0  0  0  0  0  0  0  0  0
  2  1  1  1
  2  3  1  0
  2 19  1  0
  3  4  1  1
  3  5  1  0
  5  6  1  1
  5 11  1  0
  6  7  1  0
  7  8  1  0
  7  9  1  0
  7 10  1  0
 11 12  1  6
 11 13  1  0
 13 14  1  1
 13 19  1  0
 14 15  1  0
 15 16  1  0
 15 17  1  0
 15 18  1  0
 19 20  1  6
 20 21  1  0
 21 22  1  0
 21 23  1  0
 21 24  1  0
M  END
