
     RDKit          3D

  9  8  0  0  0  0  0  0  0  0999 V2000
    3.3650    0.8800   -0.2140 O   0  0  0  0  0  0  0  0  0  0  0  0
    2.6640   -0.0430   -0.8330 O   0  0  0  0  0  0  0  0  0  0  0  0
    1.6180   -0.7590    0.3590 P   0  0  0  0  0  0  0  0  0  0  0  0
    1.5650   -2.4710    0.2390 O   0  0  0  0  0  0  0  0  0  0  0  0
    0.0380    0.0120    0.3490 N   0  0  0  0  0  0  0  0  0  0  0  0
   -0.9850   -0.7930    0.0320 O   0  0  0  0  0  0  0  0  0  0  0  0
   -2.2850    0.2330   -0.5270 P   0  0  0  0  0  0  0  0  0  0  0  0
   -3.6860    0.0730    0.4930 O   0  0  0  0  0  0  0  0  0  0  0  0
   -1.8140    1.9000   -0.5400 O   0  0  0  0  0  0  0  0  0  0  0  0
  1  2  1  0
  2  3  1  0
  3  4  1  0
  3  5  1  0
  5  6  1  0
  6  7  1  0
  7  8  1  0
  7  9  1  0
M  END
