
     RDKit          3D

  9  8  0  0  0  0  0  0  0  0999 V2000
    4.1800   -0.3710   -0.0290 O   0  0  0  0  0  0  0  0  0  0  0  0
    2.6510   -0.3940    0.8080 P   0  0  0  0  0  0  0  0  0  0  0  0
    1.4410    0.0840   -0.3580 O   0  0  0  0  0  0  0  0  0  0  0  0
    0.4020    0.5730    0.2540 O   0  0  0  0  0  0  0  0  0  0  0  0
   -0.1410    1.4680   -0.5490 O   0  0  0  0  0  0  0  0  0  0  0  0
   -1.1520    0.8440   -1.1890 N   0  0  0  0  0  0  0  0  0  0  0  0
   -2.0250   -0.1520   -0.0030 P   0  0  0  0  0  0  0  0  0  0  0  0
   -2.8250   -1.4870   -0.7350 O   0  0  0  0  0  0  0  0  0  0  0  0
   -3.0300    0.7570    1.0460 O   0  0  0  0  0  0  0  0  0  0  0  0
  1  2  1  0
  2  3  1  0
  3  4  1  0
  4  5  1  0
  5  6  1  0
  6  7  1  0
  7  8  1  0
  7  9  1  0
M  END
