
     RDKit          3D

 15 15  0  0  0  0  0  0  0  0999 V2000
   -1.8590   -2.3840   -0.2800 C   0  0  0  0  0  0  0  0  0  0  0  0
   -1.6260   -1.2110    0.6410 C   0  0  0  0  0  0  0  0  0  0  0  0
   -1.3460    0.0020   -0.0780 N   0  0  0  0  0  0  0  0  0  0  0  0
   -2.4060    0.5990   -0.9120 C   0  0  0  0  0  0  0  0  0  0  0  0
   -2.7490    1.9050   -0.1940 C   0  0  0  0  0  0  0  0  0  0  0  0
   -1.5220    2.7010   -0.1130 C   0  0  0  0  0  0  0  0  0  0  0  0
   -1.5720    3.9590   -0.1470 O   0  0  0  0  0  0  0  0  0  0  0  0
   -0.2420    2.0380    0.0060 C   0  0  0  0  0  0  0  0  0  0  0  0
   -0.1040    0.6880    0.0280 C   0  0  0  0  0  0  0  0  0  0  0  0
    1.1850    0.0530    0.1850 C   0  0  0  0  0  0  0  0  0  0  0  0
    2.3540    1.0100    0.3810 C   0  0  0  0  0  0  0  0  0  0  0  0
    1.5000   -1.1950    0.2040 C   0  0  0  0  0  0  0  0  0  0  0  0
    3.2550   -1.7310    0.4270 P   0  0  0  0  0  0  0  0  0  0  0  0
    4.2540   -1.1110   -0.8250 O   0  0  0  0  0  0  0  0  0  0  0  0
    3.8520   -1.2780    1.9850 O   0  0  0  0  0  0  0  0  0  0  0  0
  1  2  1  0
  2  3  1  0
  3  4  1  0
  3  9  1  0
  4  5  1  0
  5  6  1  0
  6  7  2  0
  6  8  1  0
  8  9  2  0
  9 10  1  0
 10 11  1  0
 10 12  2  3
 12 13  1  0
 13 14  1  0
 13 15  1  0
M  END
