
     RDKit          3D

 15 15  0  0  0  0  0  0  0  0999 V2000
    0.9860   -1.0280   -1.6740 C   0  0  0  0  0  0  0  0  0  0  0  0
    1.1270   -0.5470   -0.2440 C   0  0  1  0  0  0  0  0  0  0  0  0
    0.8890   -1.7380    0.6520 C   0  0  0  0  0  0  0  0  0  0  0  0
    2.5670   -0.0900   -0.0550 C   0  0  0  0  0  0  0  0  0  0  0  0
    2.8070    0.4100    1.3470 C   0  0  0  0  0  0  0  0  0  0  0  0
    4.5740    0.9400    1.4780 P   0  0  0  0  0  0  0  0  0  0  0  0
    5.1440    1.8370    0.3400 O   0  0  0  0  0  0  0  0  0  0  0  0
    0.2890    0.5330    0.0200 O   0  0  0  0  0  0  0  0  0  0  0  0
   -1.0910    0.5140   -0.0850 C   0  0  0  0  0  0  0  0  0  0  0  0
   -1.7820    1.6770    0.2140 C   0  0  0  0  0  0  0  0  0  0  0  0
   -3.1550    1.7750    0.1450 C   0  0  0  0  0  0  0  0  0  0  0  0
   -3.8400    0.6400   -0.2440 C   0  0  0  0  0  0  0  0  0  0  0  0
   -5.2410    0.6950   -0.3270 O   0  0  0  0  0  0  0  0  0  0  0  0
   -3.1470   -0.5150   -0.5400 C   0  0  0  0  0  0  0  0  0  0  0  0
   -1.7950   -0.5670   -0.4590 N   0  0  0  0  0  0  0  0  0  0  0  0
  2  1  1  6
  2  3  1  0
  2  4  1  0
  2  8  1  0
  4  5  1  0
  5  6  1  0
  6  7  2  0
  8  9  1  0
  9 10  2  0
  9 15  1  0
 10 11  1  0
 11 12  2  0
 12 13  1  0
 12 14  1  0
 14 15  2  0
M  END
