
     RDKit          3D

 14 14  0  0  0  0  0  0  0  0999 V2000
    3.9590   -1.7040    0.0290 C   0  0  0  0  0  0  0  0  0  0  0  0
    4.1070   -0.3130   -0.0360 O   0  0  0  0  0  0  0  0  0  0  0  0
    2.7810    0.4680    0.7540 P   0  0  0  0  0  0  0  0  0  0  0  0
    1.2130   -0.3150    0.1380 C   0  0  0  0  0  0  0  0  0  0  0  0
    0.0690    0.6430    0.3720 C   0  0  0  0  0  0  0  0  0  0  0  0
   -1.2500    0.0900   -0.0990 C   0  0  2  0  0  0  0  0  0  0  0  0
   -1.2800   -0.2240   -1.5540 C   0  0  0  0  0  0  0  0  0  0  0  0
   -2.3130    1.1160    0.2240 C   0  0  0  0  0  0  0  0  0  0  0  0
   -3.7070    0.5820    0.0800 C   0  0  0  0  0  0  0  0  0  0  0  0
   -3.9120   -0.6490    0.7960 N   0  0  0  0  0  0  0  0  0  0  0  0
   -2.9420   -1.6590    0.4690 C   0  0  0  0  0  0  0  0  0  0  0  0
   -1.5330   -1.1680    0.7130 C   0  0  0  0  0  0  0  0  0  0  0  0
    2.8300    2.1550    0.4500 O   0  0  0  0  0  0  0  0  0  0  0  0
    3.9560    2.4710   -0.2710 C   0  0  0  0  0  0  0  0  0  0  0  0
  1  2  1  0
  2  3  1  0
  3  4  1  0
  3 13  1  0
  4  5  1  0
  5  6  1  0
  6  7  1  6
  6  8  1  0
  6 12  1  0
  8  9  1  0
  9 10  1  0
 10 11  1  0
 11 12  1  0
 13 14  1  0
M  END
