
     RDKit          3D

 14 15  0  0  0  0  0  0  0  0999 V2000
    4.0760   -0.8780   -1.3010 C   0  0  0  0  0  0  0  0  0  0  0  0
    3.4980   -0.3880   -0.1300 O   0  0  0  0  0  0  0  0  0  0  0  0
    2.5830    1.0230   -0.5770 P   0  0  0  0  0  0  0  0  0  0  0  0
    3.6160    2.3970   -0.7940 O   0  0  0  0  0  0  0  0  0  0  0  0
    1.3230    1.4480    0.7060 C   0  0  0  0  0  0  0  0  0  0  0  0
    0.0210    0.7430    0.4440 C   0  0  0  0  0  0  0  0  0  0  0  0
   -1.0170    1.2310   -0.3190 C   0  0  0  0  0  0  0  0  0  0  0  0
   -2.0250    0.3110   -0.3230 C   0  0  0  0  0  0  0  0  0  0  0  0
   -3.2870    0.2910   -0.9270 C   0  0  0  0  0  0  0  0  0  0  0  0
   -4.1350   -0.7650   -0.7820 C   0  0  0  0  0  0  0  0  0  0  0  0
   -3.7000   -1.8360   -0.0050 C   0  0  0  0  0  0  0  0  0  0  0  0
   -2.4580   -1.8280    0.5950 C   0  0  0  0  0  0  0  0  0  0  0  0
   -1.6000   -0.7540    0.4450 C   0  0  0  0  0  0  0  0  0  0  0  0
   -0.3660   -0.4600    0.8910 N   0  0  0  0  0  0  0  0  0  0  0  0
  1  2  1  0
  2  3  1  0
  3  4  1  0
  3  5  1  0
  5  6  1  0
  6  7  2  0
  6 14  1  0
  7  8  1  0
  8  9  2  0
  8 13  1  0
  9 10  1  0
 10 11  2  0
 11 12  1  0
 12 13  2  0
 13 14  1  0
M  END
