
     RDKit          3D

 27 27  0  0  0  0  0  0  0  0999 V2000
   -3.9740    1.9300    0.6350 O   0  0  0  0  0  0  0  0  0  0  0  0
   -5.1990    1.9720    0.4370 C   0  0  0  0  0  0  0  0  0  0  0  0
   -5.7530    3.1860   -0.0020 O   0  0  0  0  0  0  0  0  0  0  0  0
   -5.9750    0.8510    0.6470 O   0  0  0  0  0  0  0  0  0  0  0  0
   -5.4360   -0.3760    1.0880 C   0  0  0  0  0  0  0  0  0  0  0  0
   -4.4280   -0.8920    0.1300 C   0  0  0  0  0  0  0  0  0  0  0  0
   -4.1930   -0.2050   -0.9010 O   0  0  0  0  0  0  0  0  0  0  0  0
   -3.7470   -2.0790    0.3250 O   0  0  0  0  0  0  0  0  0  0  0  0
   -2.8330   -2.5620   -0.5270 O   0  0  0  0  0  0  0  0  0  0  0  0
   -1.5790   -2.0010   -0.1960 C   0  0  1  0  0  0  0  0  0  0  0  0
   -0.7670   -3.0960    0.1510 O   0  0  0  0  0  0  0  0  0  0  0  0
   -1.0200   -1.4080   -1.3260 O   0  0  0  0  0  0  0  0  0  0  0  0
   -0.7250   -0.0920   -1.0220 C   0  0  2  0  0  0  0  0  0  0  0  0
   -1.4340    0.7090   -1.9810 O   0  0  0  0  0  0  0  0  0  0  0  0
   -0.6050    0.7210   -3.1160 C   0  0  0  0  0  0  0  0  0  0  0  0
   -0.9120    1.0880   -4.2790 O   0  0  0  0  0  0  0  0  0  0  0  0
    0.6570    0.2570   -2.7870 O   0  0  0  0  0  0  0  0  0  0  0  0
    0.7030    0.2700   -1.3610 C   0  0  2  0  0  0  0  0  0  0  0  0
    1.6360   -0.6690   -0.9290 O   0  0  0  0  0  0  0  0  0  0  0  0
    2.7280   -0.3120   -0.1430 C   0  0  0  0  0  0  0  0  0  0  0  0
    2.8070    0.9300    0.1470 O   0  0  0  0  0  0  0  0  0  0  0  0
    3.7380   -1.2880    0.3330 C   0  0  0  0  0  0  0  0  0  0  0  0
    4.7670   -0.5600    1.1480 C   0  0  0  0  0  0  0  0  0  0  0  0
    5.4050    0.4220    0.3900 O   0  0  0  0  0  0  0  0  0  0  0  0
    6.3020    1.0720    1.0620 O   0  0  0  0  0  0  0  0  0  0  0  0
    6.4890    2.3020    0.6000 O   0  0  0  0  0  0  0  0  0  0  0  0
    7.2890    2.9100    1.4320 O   0  0  0  0  0  0  0  0  0  0  0  0
  1  2  2  0
  2  3  1  0
  2  4  1  0
  4  5  1  0
  5  6  1  0
  6  7  2  0
  6  8  1  0
  8  9  1  0
  9 10  1  0
 10 11  1  6
 10 12  1  0
 13 12  1  6
 13 14  1  0
 13 18  1  0
 14 15  1  0
 15 16  2  0
 15 17  1  0
 17 18  1  0
 18 19  1  1
 19 20  1  0
 20 21  2  0
 20 22  1  0
 22 23  1  0
 23 24  1  0
 24 25  1  0
 25 26  1  0
 26 27  1  0
M  END
