
     RDKit          3D

 15 15  0  0  0  0  0  0  0  0999 V2000
    4.9510   -1.2610   -0.1840 O   0  0  0  0  0  0  0  0  0  0  0  0
    5.3930   -0.1420   -0.5470 C   0  0  0  0  0  0  0  0  0  0  0  0
    4.4990    0.9160   -0.5710 O   0  0  0  0  0  0  0  0  0  0  0  0
    3.1800    0.6990   -0.2010 C   0  0  0  0  0  0  0  0  0  0  0  0
    2.2370    0.3320   -1.1390 C   0  0  0  0  0  0  0  0  0  0  0  0
    0.9180    0.1080   -0.8030 C   0  0  0  0  0  0  0  0  0  0  0  0
    0.4710    0.2420    0.4960 C   0  0  0  0  0  0  0  0  0  0  0  0
   -0.8880    0.0140    0.8550 N   0  0  0  0  0  0  0  0  0  0  0  0
   -1.8850   -0.3710   -0.1160 C   0  0  0  0  0  0  0  0  0  0  0  0
   -3.2380   -0.5450    0.5440 C   0  0  0  0  0  0  0  0  0  0  0  0
   -4.2500   -0.9510   -0.5260 C   0  0  0  0  0  0  0  0  0  0  0  0
   -4.3580    0.3610   -1.8350 P   0  0  0  0  0  0  0  0  0  0  0  0
   -4.1730    1.8530   -1.4140 O   0  0  0  0  0  0  0  0  0  0  0  0
    1.4180    0.6090    1.4290 C   0  0  0  0  0  0  0  0  0  0  0  0
    2.7400    0.8340    1.0990 C   0  0  0  0  0  0  0  0  0  0  0  0
  1  2  2  0
  2  3  1  0
  3  4  1  0
  4  5  2  0
  4 15  1  0
  5  6  1  0
  6  7  2  0
  7  8  1  0
  7 14  1  0
  8  9  1  0
  9 10  1  0
 10 11  1  0
 11 12  1  0
 12 13  2  0
 14 15  2  0
M  END
