
     RDKit          3D

 15 16  0  0  0  0  0  0  0  0999 V2000
   -2.2230    3.8760   -0.2460 O   0  0  0  0  0  0  0  0  0  0  0  0
   -1.1990    2.7640    0.1170 P   0  0  0  0  0  0  0  0  0  0  0  0
   -1.8560    1.0830    0.4030 C   0  0  0  0  0  0  0  0  0  0  0  0
   -2.8390    0.8130    1.2610 C   0  0  0  0  0  0  0  0  0  0  0  0
   -3.2640   -0.4520    1.4120 O   0  0  0  0  0  0  0  0  0  0  0  0
   -2.7900   -1.5810    0.7560 C   0  0  0  0  0  0  0  0  0  0  0  0
   -1.7100   -1.2490   -0.1800 C   0  0  0  0  0  0  0  0  0  0  0  0
   -1.2740   -0.0210   -0.3480 C   0  0  0  0  0  0  0  0  0  0  0  0
   -0.2500    0.2510   -1.2450 O   0  0  0  0  0  0  0  0  0  0  0  0
    1.0710    0.0760   -0.8030 C   0  0  0  0  0  0  0  0  0  0  0  0
    2.1390    0.3240   -1.6320 C   0  0  0  0  0  0  0  0  0  0  0  0
    3.4320    0.1660   -1.2370 C   0  0  0  0  0  0  0  0  0  0  0  0
    3.6970   -0.2620    0.0490 C   0  0  0  0  0  0  0  0  0  0  0  0
    2.6140   -0.5040    0.8610 C   0  0  0  0  0  0  0  0  0  0  0  0
    1.3410   -0.3430    0.4570 N   0  0  0  0  0  0  0  0  0  0  0  0
  1  2  2  0
  2  3  1  0
  3  4  2  0
  3  8  1  0
  4  5  1  0
  5  6  1  0
  6  7  1  0
  7  8  2  0
  8  9  1  0
  9 10  1  0
 10 11  2  0
 10 15  1  0
 11 12  1  0
 12 13  2  0
 13 14  1  0
 14 15  2  0
M  END
