
     RDKit          3D

 21 22  0  0  0  0  0  0  0  0999 V2000
    6.2670    1.3510    1.1420 N   0  0  0  0  0  0  0  0  0  0  0  0
    5.4610    0.3850    0.5050 C   0  0  0  0  0  0  0  0  0  0  0  0
    5.9740   -0.6750    0.0950 O   0  0  0  0  0  0  0  0  0  0  0  0
    4.0300    0.6140    0.3190 C   0  0  0  0  0  0  0  0  0  0  0  0
    3.3460    1.7120    0.7110 N   0  0  0  0  0  0  0  0  0  0  0  0
    2.0690    1.5210    0.3530 C   0  0  0  0  0  0  0  0  0  0  0  0
    1.9210    0.3340   -0.2560 N   0  0  0  0  0  0  0  0  0  0  0  0
    0.6760   -0.1860   -0.7670 C   0  0  2  0  0  0  0  0  0  0  0  0
   -0.4180    0.3900   -0.1210 O   0  0  0  0  0  0  0  0  0  0  0  0
   -1.4390   -0.4910   -0.4770 C   0  0  2  0  0  0  0  0  0  0  0  0
   -2.7390   -0.1680    0.2160 C   0  0  0  0  0  0  0  0  0  0  0  0
   -3.1280    1.1190   -0.1350 O   0  0  0  0  0  0  0  0  0  0  0  0
   -4.5800    1.5550    0.6030 P   0  0  2  0  0  0  0  0  0  0  0  0
   -4.4900    3.0360    0.9360 O   0  0  0  0  0  0  0  0  0  0  0  0
   -4.8100    0.7380    2.0610 O   0  0  0  0  0  0  0  0  0  0  0  0
   -5.9050    1.3020   -0.4440 O   0  0  0  0  0  0  0  0  0  0  0  0
   -0.8700   -1.8140   -0.0280 C   0  0  1  0  0  0  0  0  0  0  0  0
   -1.4930   -2.8940   -0.6420 O   0  0  0  0  0  0  0  0  0  0  0  0
    0.5840   -1.6820   -0.4410 C   0  0  1  0  0  0  0  0  0  0  0  0
    0.8560   -2.3990   -1.5990 O   0  0  0  0  0  0  0  0  0  0  0  0
    3.1270   -0.1940   -0.2620 N   0  0  0  0  0  0  0  0  0  0  0  0
  1  2  1  0
  2  3  2  0
  2  4  1  0
  4  5  1  0
  4 21  2  0
  5  6  2  0
  6  7  1  0
  8  7  1  1
  7 21  1  0
  8  9  1  0
  8 19  1  0
  9 10  1  0
 10 11  1  1
 10 17  1  0
 11 12  1  0
 12 13  1  0
 13 14  2  0
 13 15  1  1
 13 16  1  0
 17 18  1  6
 17 19  1  0
 19 20  1  6
M  END
