
     RDKit          3D

 32 35  0  0  0  0  0  0  0  0999 V2000
    1.6770   -2.9550   -2.7110 C   0  0  0  0  0  0  0  0  0  0  0  0
    1.7500   -2.6790   -1.3180 O   0  0  0  0  0  0  0  0  0  0  0  0
    1.1160   -1.5550   -0.8250 C   0  0  0  0  0  0  0  0  0  0  0  0
    0.4120   -0.6730   -1.5850 C   0  0  0  0  0  0  0  0  0  0  0  0
   -0.2560    0.4940   -1.1350 C   0  0  0  0  0  0  0  0  0  0  0  0
   -0.1660    0.7350    0.2380 C   0  0  0  0  0  0  0  0  0  0  0  0
    0.5530   -0.1730    1.0010 C   0  0  0  0  0  0  0  0  0  0  0  0
    1.1890   -1.2900    0.5330 C   0  0  0  0  0  0  0  0  0  0  0  0
    1.8860   -2.1320    1.3630 O   0  0  0  0  0  0  0  0  0  0  0  0
    2.1520   -2.0940    2.7000 C   0  0  0  0  0  0  0  0  0  0  0  0
    2.9830   -0.9760    3.2290 C   0  0  0  0  0  0  0  0  0  0  0  0
    4.3090   -0.9380    2.6290 N   0  0  0  0  0  0  0  0  0  0  0  0
    5.1010    0.0330    3.3390 C   0  0  2  0  0  0  0  0  0  0  0  0
    6.1900    0.7590    2.6310 C   0  0  0  0  0  0  0  0  0  0  0  0
    6.5450   -0.3310    3.5970 C   0  0  0  0  0  0  0  0  0  0  0  0
   -0.7070    1.8370    1.0540 C   0  0  0  0  0  0  0  0  0  0  0  0
   -2.1070    2.2410    0.9380 C   0  0  0  0  0  0  0  0  0  0  0  0
   -3.1630    1.5170    1.6760 C   0  0  0  0  0  0  0  0  0  0  0  0
   -3.3370    1.7750    2.8700 O   0  0  0  0  0  0  0  0  0  0  0  0
   -3.9970    0.5120    1.0200 N   0  0  0  0  0  0  0  0  0  0  0  0
   -3.9060    0.2110   -0.4290 C   0  0  0  0  0  0  0  0  0  0  0  0
   -3.4020   -1.1040   -0.5220 C   0  0  0  0  0  0  0  0  0  0  0  0
   -2.8240   -1.6120   -1.6440 C   0  0  0  0  0  0  0  0  0  0  0  0
   -2.3130   -2.9910   -1.7420 C   0  0  0  0  0  0  0  0  0  0  0  0
   -2.7630   -0.7230   -2.6870 C   0  0  0  0  0  0  0  0  0  0  0  0
   -3.2510    0.5750   -2.6270 C   0  0  0  0  0  0  0  0  0  0  0  0
   -3.8830    1.1150   -1.4890 C   0  0  0  0  0  0  0  0  0  0  0  0
   -4.4620    2.3990   -1.4760 O   0  0  0  0  0  0  0  0  0  0  0  0
   -4.2600    3.6630   -1.2090 C   0  0  0  0  0  0  0  0  0  0  0  0
   -2.5730    1.3530   -3.7590 C   0  0  0  0  0  0  0  0  0  0  0  0
   -1.2760    1.9570   -3.0690 C   0  0  0  0  0  0  0  0  0  0  0  0
   -0.9020    1.2560   -2.0070 O   0  0  0  0  0  0  0  0  0  0  0  0
  1  2  1  0
  2  3  1  0
  3  4  2  0
  3  8  1  0
  4  5  1  0
  5  6  2  0
  5 32  1  0
  6  7  1  0
  6 16  1  0
  7  8  2  0
  8  9  1  0
  9 10  1  0
 10 11  1  0
 11 12  1  0
 13 12  1  6
 13 14  1  0
 13 15  1  0
 14 15  1  0
 16 17  1  0
 17 18  1  0
 18 19  2  0
 18 20  1  0
 20 21  1  0
 21 22  2  0
 21 27  1  0
 22 23  1  0
 23 24  1  0
 23 25  2  0
 25 26  1  0
 26 27  2  0
 26 30  1  0
 27 28  1  0
 28 29  1  0
 30 31  1  0
 31 32  1  0
M  CHG  1  12   1
M  END
