
     RDKit          3D

 32 35  0  0  0  0  0  0  0  0999 V2000
    3.5220    3.1510   -1.7830 C   0  0  0  0  0  0  0  0  0  0  0  0
    4.5410    2.1070   -2.0430 C   0  0  0  0  0  0  0  0  0  0  0  0
    4.5680    1.0250   -1.0080 C   0  0  0  0  0  0  0  0  0  0  0  0
    3.3420    0.2190   -0.8540 C   0  0  2  0  0  0  0  0  0  0  0  0
    2.0860    0.9220   -0.4410 C   0  0  0  0  0  0  0  0  0  0  0  0
    1.3030   -0.2540    0.0230 N   0  0  0  0  0  0  0  0  0  0  0  0
   -0.0790   -0.5330   -0.2070 C   0  0  0  0  0  0  0  0  0  0  0  0
   -0.5160   -1.5970    0.2950 O   0  0  0  0  0  0  0  0  0  0  0  0
   -0.8420    0.4350   -0.9930 C   0  0  0  0  0  0  0  0  0  0  0  0
   -2.1240    0.1520   -1.3800 O   0  0  0  0  0  0  0  0  0  0  0  0
   -3.2270   -0.2180   -0.7000 C   0  0  0  0  0  0  0  0  0  0  0  0
   -3.6050   -1.5370   -0.6370 C   0  0  0  0  0  0  0  0  0  0  0  0
   -3.0170   -2.6180   -1.4060 C   0  0  0  0  0  0  0  0  0  0  0  0
   -2.0230   -2.3750   -2.4540 C   0  0  0  0  0  0  0  0  0  0  0  0
   -3.3750   -3.8320   -1.1810 O   0  0  0  0  0  0  0  0  0  0  0  0
   -4.7510   -1.9040    0.1030 C   0  0  0  0  0  0  0  0  0  0  0  0
   -5.4920   -0.9460    0.7570 C   0  0  0  0  0  0  0  0  0  0  0  0
   -5.1240    0.3580    0.6910 C   0  0  0  0  0  0  0  0  0  0  0  0
   -3.9930    0.6970   -0.0400 C   0  0  0  0  0  0  0  0  0  0  0  0
   -3.6780    2.1310   -0.0910 C   0  0  0  0  0  0  0  0  0  0  0  0
   -3.5960    2.5820    1.3760 C   0  0  0  0  0  0  0  0  0  0  0  0
   -4.8660    2.2260    2.1120 C   0  0  0  0  0  0  0  0  0  0  0  0
   -5.7940    1.4450    1.3180 N   0  0  0  0  0  0  0  0  0  0  0  0
    2.2510   -1.0200    0.7410 C   0  0  0  0  0  0  0  0  0  0  0  0
    2.0640   -1.9170    1.7900 C   0  0  0  0  0  0  0  0  0  0  0  0
    3.1690   -2.5220    2.3220 C   0  0  0  0  0  0  0  0  0  0  0  0
    4.4560   -2.2710    1.8540 C   0  0  0  0  0  0  0  0  0  0  0  0
    5.6110   -2.9300    2.4410 C   0  0  0  0  0  0  0  0  0  0  0  0
    6.7570   -2.6780    1.9930 O   0  0  0  0  0  0  0  0  0  0  0  0
    5.4550   -3.8300    3.4890 O   0  0  0  0  0  0  0  0  0  0  0  0
    4.6190   -1.3820    0.8170 C   0  0  0  0  0  0  0  0  0  0  0  0
    3.5230   -0.7670    0.2710 C   0  0  0  0  0  0  0  0  0  0  0  0
  1  2  1  0
  2  3  1  0
  4  3  1  1
  4  5  1  0
  4 32  1  0
  5  6  1  0
  6  7  1  0
  6 24  1  0
  7  8  2  0
  7  9  1  0
  9 10  1  0
 10 11  1  0
 11 12  2  0
 11 19  1  0
 12 13  1  0
 12 16  1  0
 13 14  1  0
 13 15  2  0
 16 17  2  0
 17 18  1  0
 18 19  2  0
 18 23  1  0
 19 20  1  0
 20 21  1  0
 21 22  1  0
 22 23  1  0
 24 25  2  0
 24 32  1  0
 25 26  1  0
 26 27  2  0
 27 28  1  0
 27 31  1  0
 28 29  2  0
 28 30  1  0
 31 32  2  0
M  CHG  1  23   1
M  END
