
     RDKit          3D

 32 35  0  0  0  0  0  0  0  0999 V2000
    5.7610    2.9060   -0.9590 C   0  0  0  0  0  0  0  0  0  0  0  0
    4.5100    2.5990   -0.4670 O   0  0  0  0  0  0  0  0  0  0  0  0
    4.6530    1.8030    0.6710 C   0  0  0  0  0  0  0  0  0  0  0  0
    5.3670    0.5300    0.3420 C   0  0  0  0  0  0  0  0  0  0  0  0
    4.7930   -0.2950   -0.5940 O   0  0  0  0  0  0  0  0  0  0  0  0
    3.6310   -0.9590   -0.5420 C   0  0  0  0  0  0  0  0  0  0  0  0
    2.7870   -0.9660    0.5290 C   0  0  0  0  0  0  0  0  0  0  0  0
    1.5780   -1.6770    0.5270 C   0  0  0  0  0  0  0  0  0  0  0  0
    0.6410   -1.6950    1.6740 C   0  0  0  0  0  0  0  0  0  0  0  0
   -0.3900   -0.6590    1.6080 C   0  0  0  0  0  0  0  0  0  0  0  0
   -1.6860   -0.8900    1.5340 C   0  0  0  0  0  0  0  0  0  0  0  0
   -2.1760   -2.2460    1.5150 C   0  0  0  0  0  0  0  0  0  0  0  0
   -3.4550   -2.5050    1.5180 C   0  0  0  0  0  0  0  0  0  0  0  0
   -4.4160   -1.4230    1.5300 C   0  0  0  0  0  0  0  0  0  0  0  0
   -3.9830   -0.1850    1.5270 C   0  0  0  0  0  0  0  0  0  0  0  0
   -2.6140    0.3000    1.5050 C   0  0  1  0  0  0  0  0  0  0  0  0
   -2.4890    0.9820    2.7620 O   0  0  0  0  0  0  0  0  0  0  0  0
   -2.2540    1.3190    0.4870 C   0  0  2  0  0  0  0  0  0  0  0  0
   -2.6080    2.6820    1.0070 C   0  0  0  0  0  0  0  0  0  0  0  0
   -2.8830    3.7360    1.3970 N   0  0  0  0  0  0  0  0  0  0  0  0
   -2.6520    1.1600   -0.9010 C   0  0  0  0  0  0  0  0  0  0  0  0
   -3.9250    1.0720   -1.4340 N   0  0  1  0  0  0  0  0  0  0  0  0
   -4.4030   -0.3140   -1.5970 C   0  0  0  0  0  0  0  0  0  0  0  0
   -4.9990    1.8550   -0.9670 C   0  0  0  0  0  0  0  0  0  0  0  0
   -0.7070    1.3940    0.4530 C   0  0  0  0  0  0  0  0  0  0  0  0
   -0.0460    0.8110    1.6400 C   0  0  0  0  0  0  0  0  0  0  0  0
    1.2850   -2.3730   -0.6170 C   0  0  0  0  0  0  0  0  0  0  0  0
    2.1260   -2.3840   -1.7200 C   0  0  0  0  0  0  0  0  0  0  0  0
    3.2900   -1.6900   -1.6980 C   0  0  0  0  0  0  0  0  0  0  0  0
    3.9290   -1.8770   -2.9290 O   0  0  0  0  0  0  0  0  0  0  0  0
    3.3470   -3.0350   -3.5470 C   0  0  0  0  0  0  0  0  0  0  0  0
    2.0440   -3.0060   -2.9720 O   0  0  0  0  0  0  0  0  0  0  0  0
  1  2  1  0
  2  3  1  0
  3  4  1  0
  4  5  1  0
  5  6  1  0
  6  7  2  0
  6 29  1  0
  7  8  1  0
  8  9  1  0
  8 27  2  0
  9 10  1  0
 10 11  2  0
 10 26  1  0
 11 12  1  0
 11 16  1  0
 12 13  2  0
 13 14  1  0
 14 15  2  0
 15 16  1  0
 16 17  1  1
 16 18  1  0
 18 19  1  1
 18 21  1  0
 18 25  1  0
 19 20  3  0
 21 22  1  0
 22 23  1  1
 22 24  1  0
 25 26  1  0
 27 28  1  0
 28 29  2  0
 28 32  1  0
 29 30  1  0
 30 31  1  0
 31 32  1  0
M  CHG  1  22   1
M  END
