
     RDKit          3D

 32 35  0  0  0  0  0  0  0  0999 V2000
   -4.5140    6.6500   -0.8570 C   0  0  0  0  0  0  0  0  0  0  0  0
   -5.3480    5.4940   -0.3470 C   0  0  0  0  0  0  0  0  0  0  0  0
   -4.6310    4.2960   -0.4430 O   0  0  0  0  0  0  0  0  0  0  0  0
   -5.1550    3.0930   -0.0460 C   0  0  0  0  0  0  0  0  0  0  0  0
   -6.3190    3.0490    0.4230 O   0  0  0  0  0  0  0  0  0  0  0  0
   -4.3580    1.8540   -0.1690 C   0  0  0  0  0  0  0  0  0  0  0  0
   -4.7900    0.6230    0.1950 C   0  0  0  0  0  0  0  0  0  0  0  0
   -3.7610   -0.2780   -0.0740 C   0  0  0  0  0  0  0  0  0  0  0  0
   -3.8270   -1.7510    0.1440 C   0  0  0  0  0  0  0  0  0  0  0  0
   -4.1570   -2.4080   -1.1790 C   0  0  0  0  0  0  0  0  0  0  0  0
   -4.2230   -3.8700   -0.9650 C   0  0  0  0  0  0  0  0  0  0  0  0
   -4.4620   -4.6230   -1.9300 O   0  0  0  0  0  0  0  0  0  0  0  0
   -4.0230   -4.3920    0.2900 O   0  0  0  0  0  0  0  0  0  0  0  0
   -4.0880   -5.7950    0.4930 C   0  0  0  0  0  0  0  0  0  0  0  0
   -2.7090    0.4200   -0.6000 C   0  0  0  0  0  0  0  0  0  0  0  0
   -1.3700   -0.0580   -1.0240 C   0  0  0  0  0  0  0  0  0  0  0  0
   -0.4700   -0.2510    0.1570 C   0  0  0  0  0  0  0  0  0  0  0  0
    0.8480   -0.7260   -0.2980 N   0  0  0  0  0  0  0  0  0  0  0  0
    1.6940   -0.7960    0.8530 C   0  0  1  0  0  0  0  0  0  0  0  0
    1.6110   -2.1890    1.4330 C   0  0  0  0  0  0  0  0  0  0  0  0
    2.7460   -2.8410    0.8960 O   0  0  0  0  0  0  0  0  0  0  0  0
    3.7280   -1.8830    0.5750 C   0  0  0  0  0  0  0  0  0  0  0  0
    5.0800   -1.9770    0.3120 C   0  0  0  0  0  0  0  0  0  0  0  0
    5.8660   -0.8910    0.0150 C   0  0  0  0  0  0  0  0  0  0  0  0
    5.2800    0.3550   -0.0240 C   0  0  0  0  0  0  0  0  0  0  0  0
    3.9140    0.4750    0.2390 C   0  0  0  0  0  0  0  0  0  0  0  0
    3.1460   -0.6320    0.5350 C   0  0  0  0  0  0  0  0  0  0  0  0
    6.0280    1.5910   -0.3330 C   0  0  0  0  0  0  0  0  0  0  0  0
    7.5080    1.4770   -0.2290 C   0  0  0  0  0  0  0  0  0  0  0  0
    7.9140    0.2280    0.5160 C   0  0  0  0  0  0  0  0  0  0  0  0
    7.3220   -0.9530   -0.2680 C   0  0  0  0  0  0  0  0  0  0  0  0
   -3.1240    1.7250   -0.6390 N   0  0  0  0  0  0  0  0  0  0  0  0
  1  2  1  0
  2  3  1  0
  3  4  1  0
  4  5  2  0
  4  6  1  0
  6  7  2  0
  6 32  1  0
  7  8  1  0
  8  9  1  0
  8 15  2  0
  9 10  1  0
 10 11  1  0
 11 12  2  0
 11 13  1  0
 13 14  1  0
 15 16  1  0
 15 32  1  0
 16 17  1  0
 17 18  1  0
 19 18  1  6
 19 20  1  0
 19 27  1  0
 20 21  1  0
 21 22  1  0
 22 23  2  0
 22 27  1  0
 23 24  1  0
 24 25  2  0
 24 31  1  0
 25 26  1  0
 25 28  1  0
 26 27  2  0
 28 29  1  0
 29 30  1  0
 30 31  1  0
M  CHG  1  18   1
M  END
