
     RDKit          3D

 32 35  0  0  0  0  0  0  0  0999 V2000
    9.5910    1.0340    1.6180 C   0  0  0  0  0  0  0  0  0  0  0  0
    8.0860    1.0670    1.5300 C   0  0  0  0  0  0  0  0  0  0  0  0
    7.6010    0.2600    0.3920 C   0  0  0  0  0  0  0  0  0  0  0  0
    6.7920   -0.7670    0.5840 C   0  0  0  0  0  0  0  0  0  0  0  0
    6.2700   -1.6180   -0.5180 C   0  0  0  0  0  0  0  0  0  0  0  0
    4.9080   -1.6600   -0.6410 O   0  0  0  0  0  0  0  0  0  0  0  0
    4.0540   -0.6400   -0.9250 C   0  0  0  0  0  0  0  0  0  0  0  0
    4.3880    0.6690   -1.1720 C   0  0  0  0  0  0  0  0  0  0  0  0
    3.4380    1.6590   -1.4540 C   0  0  0  0  0  0  0  0  0  0  0  0
    2.1260    1.2740   -1.4780 C   0  0  0  0  0  0  0  0  0  0  0  0
    1.7570   -0.0470   -1.2320 C   0  0  0  0  0  0  0  0  0  0  0  0
    2.6920   -0.9930   -0.9600 C   0  0  0  0  0  0  0  0  0  0  0  0
    0.3290   -0.4080   -1.2710 C   0  0  0  0  0  0  0  0  0  0  0  0
   -0.0900   -1.6800   -1.0390 C   0  0  0  0  0  0  0  0  0  0  0  0
   -1.4550   -2.0090   -1.0790 C   0  0  0  0  0  0  0  0  0  0  0  0
   -2.4090   -1.0570   -1.3530 C   0  0  0  0  0  0  0  0  0  0  0  0
   -3.8660   -1.3600   -1.4060 C   0  0  0  0  0  0  0  0  0  0  0  0
   -4.4800   -1.1880   -0.0860 N   0  0  0  0  0  0  0  0  0  0  0  0
   -5.6040   -0.2910   -0.1710 C   0  0  0  0  0  0  0  0  0  0  0  0
   -6.3120   -0.1050    1.0850 C   0  0  0  0  0  0  0  0  0  0  0  0
   -7.4120    0.7560    1.0610 C   0  0  0  0  0  0  0  0  0  0  0  0
   -7.7760    1.4040   -0.1980 C   0  0  0  0  0  0  0  0  0  0  0  0
   -8.0670    0.9440    2.1660 O   0  0  0  0  0  0  0  0  0  0  0  0
   -7.7580    0.3750    3.3000 C   0  0  0  0  0  0  0  0  0  0  0  0
   -8.4500    0.6140    4.3310 O   0  0  0  0  0  0  0  0  0  0  0  0
   -6.7220   -0.4510    3.3760 N   0  0  0  0  0  0  0  0  0  0  0  0
   -5.9680   -0.7140    2.2630 C   0  0  0  0  0  0  0  0  0  0  0  0
   -4.9940   -1.5010    2.3680 O   0  0  0  0  0  0  0  0  0  0  0  0
   -1.9710    0.2220   -1.5850 C   0  0  0  0  0  0  0  0  0  0  0  0
   -0.5970    0.5570   -1.5460 C   0  0  0  0  0  0  0  0  0  0  0  0
   -0.1840    1.9440   -1.8020 C   0  0  0  0  0  0  0  0  0  0  0  0
    1.1670    2.1930   -1.7450 O   0  0  0  0  0  0  0  0  0  0  0  0
  1  2  1  0
  2  3  1  0
  3  4  2  3
  4  5  1  0
  5  6  1  0
  6  7  1  0
  7  8  2  0
  7 12  1  0
  8  9  1  0
  9 10  2  0
 10 11  1  0
 10 32  1  0
 11 12  2  0
 11 13  1  0
 13 14  2  0
 13 30  1  0
 14 15  1  0
 15 16  2  0
 16 17  1  0
 16 29  1  0
 17 18  1  0
 18 19  1  0
 19 20  1  0
 20 21  2  0
 20 27  1  0
 21 22  1  0
 21 23  1  0
 23 24  1  0
 24 25  2  0
 24 26  1  0
 26 27  1  0
 27 28  2  0
 29 30  2  0
 30 31  1  0
 31 32  1  0
M  CHG  1  18   1
M  END
