
     RDKit          3D

 33 34  0  0  0  0  0  0  0  0999 V2000
    5.3840    0.0100   -1.1830 C   0  0  0  0  0  0  0  0  0  0  0  0
    3.9400    0.2890   -0.8080 C   0  0  1  0  0  0  0  0  0  0  0  0
    3.1270   -0.9350   -1.1070 C   0  0  0  0  0  0  0  0  0  0  0  0
    1.8230   -0.8920   -0.4840 N   0  0  0  0  0  0  0  0  0  0  0  0
    0.6770   -1.1110   -1.2350 C   0  0  0  0  0  0  0  0  0  0  0  0
    0.8400   -1.3390   -2.4840 O   0  0  0  0  0  0  0  0  0  0  0  0
   -0.7290   -1.1080   -0.7450 C   0  0  1  0  0  0  0  0  0  0  0  0
   -1.5470   -1.3350   -1.8860 O   0  0  0  0  0  0  0  0  0  0  0  0
   -0.9850   -2.1760    0.2610 C   0  0  0  0  0  0  0  0  0  0  0  0
   -1.7940   -1.8220    1.3930 N   0  0  0  0  0  0  0  0  0  0  0  0
   -3.1190   -2.3010    1.6670 C   0  0  0  0  0  0  0  0  0  0  0  0
   -3.3270   -2.9050    2.7970 O   0  0  0  0  0  0  0  0  0  0  0  0
   -4.2780   -2.1780    0.7970 C   0  0  0  0  0  0  0  0  0  0  0  0
   -5.0360   -3.4340    0.4800 C   0  0  2  0  0  0  0  0  0  0  0  0
   -4.2860   -4.3160   -0.2520 F   0  0  0  0  0  0  0  0  0  0  0  0
   -6.1920   -3.1890   -0.2100 F   0  0  0  0  0  0  0  0  0  0  0  0
   -5.4870   -4.2500    1.9980 Cl  0  0  0  0  0  0  0  0  0  0  0  0
   -4.7140   -0.9990    0.3050 C   0  0  0  0  0  0  0  0  0  0  0  0
   -4.2270    0.2510    0.4850 N   0  0  0  0  0  0  0  0  0  0  0  0
   -3.7940    1.1050    1.2400 C   0  0  0  0  0  0  0  0  0  0  0  0
   -3.4090    2.4130    0.6400 C   0  0  0  0  0  0  0  0  0  0  0  0
   -2.7600    2.5300   -0.4950 C   0  0  0  0  0  0  0  0  0  0  0  0
   -2.3810    3.7950   -1.0910 C   0  0  0  0  0  0  0  0  0  0  0  0
   -1.7360    3.9070   -2.2200 C   0  0  0  0  0  0  0  0  0  0  0  0
   -1.3950    2.7580   -2.8830 F   0  0  0  0  0  0  0  0  0  0  0  0
   -1.2940    5.4490   -2.9120 Cl  0  0  0  0  0  0  0  0  0  0  0  0
   -2.2930    1.0450   -1.3680 S   0  0  0  0  0  0  0  0  0  0  0  0
   -1.0270    0.2670   -0.2780 C   0  0  0  0  0  0  0  0  0  0  0  0
    1.7730   -0.6130    0.9250 C   0  0  0  0  0  0  0  0  0  0  0  0
    2.5100    0.7060    1.2030 C   0  0  0  0  0  0  0  0  0  0  0  0
    3.8990    0.6620    0.6580 C   0  0  2  0  0  0  0  0  0  0  0  0
    4.4900    2.0530    0.7780 C   0  0  0  0  0  0  0  0  0  0  0  0
    4.6750   -0.2060    1.4370 O   0  0  0  0  0  0  0  0  0  0  0  0
  2  1  1  1
  2  3  1  0
  2 31  1  0
  3  4  1  0
  4  5  1  0
  4 29  1  0
  5  6  2  0
  5  7  1  0
  7  8  1  6
  7  9  1  0
  7 28  1  0
  9 10  1  0
 10 11  1  0
 11 12  2  0
 11 13  1  0
 13 14  1  0
 13 18  2  0
 14 15  1  6
 14 16  1  0
 14 17  1  0
 18 19  1  0
 19 20  2  0
 20 21  1  0
 21 22  2  0
 22 23  1  0
 22 27  1  0
 23 24  2  3
 24 25  1  0
 24 26  1  0
 27 28  1  0
 29 30  1  0
 30 31  1  0
 31 32  1  6
 31 33  1  0
M  END
