
     RDKit          3D

 33 35  0  0  0  0  0  0  0  0999 V2000
   -1.4030    0.7760    0.9500 O   0  0  0  0  0  0  0  0  0  0  0  0
   -0.9580    0.3830   -0.1690 C   0  0  0  0  0  0  0  0  0  0  0  0
   -1.8030   -0.4340   -0.9610 N   0  0  0  0  0  0  0  0  0  0  0  0
   -3.1390   -0.8630   -0.6040 C   0  0  0  0  0  0  0  0  0  0  0  0
   -4.0780    0.3000   -0.4210 C   0  0  1  0  0  0  0  0  0  0  0  0
   -4.1220    1.0690   -1.6000 O   0  0  0  0  0  0  0  0  0  0  0  0
   -5.4130   -0.1090    0.0080 C   0  0  0  0  0  0  0  0  0  0  0  0
   -6.3920   -0.7570   -0.8090 C   0  0  0  0  0  0  0  0  0  0  0  0
   -6.4030   -1.0460   -2.0620 C   0  0  0  0  0  0  0  0  0  0  0  0
   -7.8740   -1.8900   -2.6850 Cl  0  0  0  0  0  0  0  0  0  0  0  0
   -5.2220   -0.6960   -3.2590 Cl  0  0  0  0  0  0  0  0  0  0  0  0
   -5.7150    0.0830    1.3180 C   0  0  0  0  0  0  0  0  0  0  0  0
   -4.7520    0.6700    2.2510 C   0  0  1  0  0  0  0  0  0  0  0  0
   -4.5570    2.0310    2.0790 F   0  0  0  0  0  0  0  0  0  0  0  0
   -5.1850    0.5330    3.5760 F   0  0  0  0  0  0  0  0  0  0  0  0
    0.3780    0.7580   -0.6220 C   0  0  1  0  0  0  0  0  0  0  0  0
    0.7600    2.0880    0.0550 C   0  0  0  0  0  0  0  0  0  0  0  0
    2.5300    2.0210   -0.5020 S   0  0  0  0  0  0  0  0  0  0  0  0
    2.6390    0.2270   -0.2340 C   0  0  0  0  0  0  0  0  0  0  0  0
    3.7460   -0.5180    0.0370 C   0  0  0  0  0  0  0  0  0  0  0  0
    5.1210   -0.0240    0.1340 C   0  0  0  0  0  0  0  0  0  0  0  0
    5.5090    1.1960   -0.3450 C   0  0  0  0  0  0  0  0  0  0  0  0
    6.8150    1.6900   -0.2030 C   0  0  0  0  0  0  0  0  0  0  0  0
    7.7690    0.9380    0.4390 C   0  0  0  0  0  0  0  0  0  0  0  0
    9.0450    1.3850    0.5930 F   0  0  0  0  0  0  0  0  0  0  0  0
    7.3680   -0.2880    0.9150 C   0  0  0  0  0  0  0  0  0  0  0  0
    6.0930   -0.7860    0.7860 C   0  0  0  0  0  0  0  0  0  0  0  0
    3.5180   -1.8420    0.2810 N   0  0  0  0  0  0  0  0  0  0  0  0
    2.2500   -2.3290    0.2440 C   0  0  0  0  0  0  0  0  0  0  0  0
    2.1110   -3.5750    0.4840 O   0  0  0  0  0  0  0  0  0  0  0  0
    1.1810   -1.5430   -0.0320 C   0  0  0  0  0  0  0  0  0  0  0  0
    0.0230   -2.0440   -0.0530 O   0  0  0  0  0  0  0  0  0  0  0  0
    1.3740   -0.2080   -0.2840 N   0  0  0  0  0  0  0  0  0  0  0  0
  1  2  2  0
  2  3  1  0
 16  2  1  1
  3  4  1  0
  4  5  1  0
  5  6  1  6
  5  7  1  0
  7  8  1  0
  7 12  2  3
  8  9  2  3
  9 10  1  0
  9 11  1  0
 12 13  1  0
 13 14  1  6
 13 15  1  0
 16 17  1  0
 16 33  1  0
 17 18  1  0
 18 19  1  0
 19 20  2  0
 19 33  1  0
 20 21  1  0
 20 28  1  0
 21 22  2  0
 21 27  1  0
 22 23  1  0
 23 24  2  0
 24 25  1  0
 24 26  1  0
 26 27  2  0
 28 29  1  0
 29 30  2  0
 29 31  1  0
 31 32  2  0
 31 33  1  0
M  END
