
     RDKit          3D

 42 46  0  0  0  0  0  0  0  0999 V2000
    0.4920    1.7210   -1.3940 O   0  0  0  0  0  0  0  0  0  0  0  0
    0.5470    0.7770   -0.5540 C   0  0  0  0  0  0  0  0  0  0  0  0
    1.7610    0.0340   -0.5520 N   0  0  0  0  0  0  0  0  0  0  0  0
    2.9630    0.8270   -0.7730 C   0  0  0  0  0  0  0  0  0  0  0  0
    3.5050    1.4290    0.4660 C   0  0  0  0  0  0  0  0  0  0  0  0
    2.7520    1.6810    1.5810 C   0  0  0  0  0  0  0  0  0  0  0  0
    3.3050    2.2530    2.7330 C   0  0  0  0  0  0  0  0  0  0  0  0
    4.6430    2.5850    2.7780 C   0  0  0  0  0  0  0  0  0  0  0  0
    5.2720    3.1980    3.9910 C   0  0  0  0  0  0  0  0  0  0  0  0
    5.9050    2.2050    4.7370 O   0  0  0  0  0  0  0  0  0  0  0  0
    5.4060    2.3330    1.6590 C   0  0  0  0  0  0  0  0  0  0  0  0
    4.8560    1.7650    0.5170 C   0  0  0  0  0  0  0  0  0  0  0  0
    1.9900   -1.3600   -0.3600 C   0  0  2  0  0  0  0  0  0  0  0  0
    2.7850   -2.0440   -1.4580 C   0  0  0  0  0  0  0  0  0  0  0  0
    2.1530   -2.0040   -2.7830 C   0  0  0  0  0  0  0  0  0  0  0  0
    2.4020   -0.9840   -3.6560 C   0  0  0  0  0  0  0  0  0  0  0  0
    1.7990   -0.9520   -4.9230 C   0  0  0  0  0  0  0  0  0  0  0  0
    0.9520   -1.9570   -5.2880 C   0  0  0  0  0  0  0  0  0  0  0  0
    0.6790   -2.9940   -4.4410 C   0  0  0  0  0  0  0  0  0  0  0  0
    1.2760   -3.0040   -3.2170 C   0  0  0  0  0  0  0  0  0  0  0  0
    0.6570   -2.0620   -0.1820 C   0  0  2  0  0  0  0  0  0  0  0  0
   -0.1710   -1.7370   -1.2790 O   0  0  0  0  0  0  0  0  0  0  0  0
    0.0310   -1.6290    1.0940 C   0  0  1  0  0  0  0  0  0  0  0  0
    1.0090   -1.1740    1.9610 O   0  0  0  0  0  0  0  0  0  0  0  0
   -1.0760   -0.6210    0.8780 C   0  0  1  0  0  0  0  0  0  0  0  0
   -1.8920   -0.3560    2.1060 C   0  0  0  0  0  0  0  0  0  0  0  0
   -2.5340   -1.6300    2.6060 C   0  0  0  0  0  0  0  0  0  0  0  0
   -3.7750   -2.0370    2.1640 C   0  0  0  0  0  0  0  0  0  0  0  0
   -4.3870   -3.1940    2.6060 C   0  0  0  0  0  0  0  0  0  0  0  0
   -3.6880   -3.9580    3.5410 C   0  0  0  0  0  0  0  0  0  0  0  0
   -2.4420   -3.5920    4.0130 C   0  0  0  0  0  0  0  0  0  0  0  0
   -1.8920   -2.4260    3.5290 C   0  0  0  0  0  0  0  0  0  0  0  0
   -0.6160    0.5810    0.2810 N   0  0  0  0  0  0  0  0  0  0  0  0
   -1.3790    1.7650    0.5130 C   0  0  0  0  0  0  0  0  0  0  0  0
   -2.5010    1.9090   -0.4520 C   0  0  0  0  0  0  0  0  0  0  0  0
   -2.6160    1.1160   -1.5570 C   0  0  0  0  0  0  0  0  0  0  0  0
   -3.6920    1.2830   -2.4360 C   0  0  0  0  0  0  0  0  0  0  0  0
   -4.6300    2.2520   -2.1750 C   0  0  0  0  0  0  0  0  0  0  0  0
   -5.7690    2.4230   -3.1140 C   0  0  0  0  0  0  0  0  0  0  0  0
   -5.4450    3.3600   -4.0900 O   0  0  0  0  0  0  0  0  0  0  0  0
   -4.5430    3.0720   -1.0670 C   0  0  0  0  0  0  0  0  0  0  0  0
   -3.4710    2.8810   -0.2220 C   0  0  0  0  0  0  0  0  0  0  0  0
  1  2  2  0
  2  3  1  0
  2 33  1  0
  3  4  1  0
  3 13  1  0
  4  5  1  0
  5  6  2  0
  5 12  1  0
  6  7  1  0
  7  8  2  0
  8  9  1  0
  8 11  1  0
  9 10  1  0
 11 12  2  0
 13 14  1  6
 13 21  1  0
 14 15  1  0
 15 16  2  0
 15 20  1  0
 16 17  1  0
 17 18  2  0
 18 19  1  0
 19 20  2  0
 21 22  1  6
 21 23  1  0
 23 24  1  1
 23 25  1  0
 25 26  1  1
 25 33  1  0
 26 27  1  0
 27 28  2  0
 27 32  1  0
 28 29  1  0
 29 30  2  0
 30 31  1  0
 31 32  2  0
 33 34  1  0
 34 35  1  0
 35 36  2  0
 35 42  1  0
 36 37  1  0
 37 38  2  0
 38 39  1  0
 38 41  1  0
 39 40  1  0
 41 42  2  0
M  END
