
     RDKit          3D

 33 35  0  0  0  0  0  0  0  0999 V2000
   -0.2520    1.4720   -0.5070 O   0  0  0  0  0  0  0  0  0  0  0  0
   -0.7360    0.4190   -0.0540 C   0  0  0  0  0  0  0  0  0  0  0  0
   -2.1160    0.0690   -0.1990 N   0  0  0  0  0  0  0  0  0  0  0  0
   -2.9170    1.0420   -0.9210 C   0  0  0  0  0  0  0  0  0  0  0  0
   -4.3490    0.6880   -1.0830 C   0  0  1  0  0  0  0  0  0  0  0  0
   -4.4540   -0.5380   -1.7410 O   0  0  0  0  0  0  0  0  0  0  0  0
   -5.2060    0.7720    0.0900 C   0  0  0  0  0  0  0  0  0  0  0  0
   -5.6200    2.0170    0.7290 C   0  0  0  0  0  0  0  0  0  0  0  0
   -5.4310    3.2470    0.4060 C   0  0  0  0  0  0  0  0  0  0  0  0
   -6.1320    4.4720    1.5230 Cl  0  0  0  0  0  0  0  0  0  0  0  0
   -4.6440    3.8340   -1.0330 Cl  0  0  0  0  0  0  0  0  0  0  0  0
   -5.6450   -0.3480    0.7010 C   0  0  0  0  0  0  0  0  0  0  0  0
   -5.3770   -1.7260    0.3400 C   0  0  1  0  0  0  0  0  0  0  0  0
   -5.6940   -2.6060    1.3810 F   0  0  0  0  0  0  0  0  0  0  0  0
   -6.1770   -2.1520   -0.7360 F   0  0  0  0  0  0  0  0  0  0  0  0
    0.2040   -0.5160    0.6790 C   0  0  1  0  0  0  0  0  0  0  0  0
    0.2700   -1.7190   -0.1770 C   0  0  0  0  0  0  0  0  0  0  0  0
    2.0380   -2.0540   -0.1910 S   0  0  0  0  0  0  0  0  0  0  0  0
    2.5490   -0.4610    0.4490 C   0  0  0  0  0  0  0  0  0  0  0  0
    3.8260    0.0500    0.5520 C   0  0  0  0  0  0  0  0  0  0  0  0
    5.0380   -0.6520    0.1370 C   0  0  0  0  0  0  0  0  0  0  0  0
    6.2780   -0.2300    0.5750 C   0  0  0  0  0  0  0  0  0  0  0  0
    7.4560   -0.8540    0.1580 C   0  0  0  0  0  0  0  0  0  0  0  0
    7.4500   -1.9170   -0.7040 C   0  0  0  0  0  0  0  0  0  0  0  0
    8.6090   -2.5230   -1.1060 F   0  0  0  0  0  0  0  0  0  0  0  0
    6.2280   -2.3500   -1.1480 C   0  0  0  0  0  0  0  0  0  0  0  0
    5.0460   -1.7180   -0.7270 C   0  0  0  0  0  0  0  0  0  0  0  0
    3.9250    1.2820    1.1330 N   0  0  0  0  0  0  0  0  0  0  0  0
    2.8270    1.9000    1.5540 C   0  0  0  0  0  0  0  0  0  0  0  0
    3.0210    3.0500    2.0870 O   0  0  0  0  0  0  0  0  0  0  0  0
    1.5910    1.3800    1.4410 C   0  0  0  0  0  0  0  0  0  0  0  0
    0.5970    2.0240    1.8640 O   0  0  0  0  0  0  0  0  0  0  0  0
    1.4350    0.1400    0.8610 N   0  0  0  0  0  0  0  0  0  0  0  0
  1  2  2  0
  2  3  1  0
 16  2  1  6
  3  4  1  0
  4  5  1  0
  5  6  1  1
  5  7  1  0
  7  8  1  0
  7 12  2  3
  8  9  2  3
  9 10  1  0
  9 11  1  0
 12 13  1  0
 13 14  1  1
 13 15  1  0
 16 17  1  0
 16 33  1  0
 17 18  1  0
 18 19  1  0
 19 20  2  0
 19 33  1  0
 20 21  1  0
 20 28  1  0
 21 22  2  0
 21 27  1  0
 22 23  1  0
 23 24  2  0
 24 25  1  0
 24 26  1  0
 26 27  2  0
 28 29  1  0
 29 30  2  0
 29 31  1  0
 31 32  2  0
 31 33  1  0
M  END
