
     RDKit          3D

 32 35  0  0  0  0  0  0  0  0999 V2000
    6.0720   -5.3320   -0.0000 C   0  0  0  0  0  0  0  0  0  0  0  0
    4.7290   -4.9960   -0.6170 C   0  0  0  0  0  0  0  0  0  0  0  0
    4.4700   -3.6120   -0.4880 O   0  0  0  0  0  0  0  0  0  0  0  0
    3.3080   -3.0090   -0.9620 C   0  0  0  0  0  0  0  0  0  0  0  0
    2.4760   -3.7510   -1.5220 O   0  0  0  0  0  0  0  0  0  0  0  0
    3.0800   -1.5650   -0.8060 C   0  0  0  0  0  0  0  0  0  0  0  0
    3.9290   -0.6650   -0.2070 C   0  0  0  0  0  0  0  0  0  0  0  0
    3.3230    0.6010   -0.2740 C   0  0  0  0  0  0  0  0  0  0  0  0
    3.8900    1.8670    0.2600 C   0  0  0  0  0  0  0  0  0  0  0  0
    3.3180    2.3130    1.5570 C   0  0  0  0  0  0  0  0  0  0  0  0
    4.0020    3.5910    1.9360 C   0  0  0  0  0  0  0  0  0  0  0  0
    3.6140    4.1120    3.0340 O   0  0  0  0  0  0  0  0  0  0  0  0
    4.9790    4.1950    1.1940 O   0  0  0  0  0  0  0  0  0  0  0  0
    5.5850    5.4000    1.6090 C   0  0  0  0  0  0  0  0  0  0  0  0
    2.1270    0.3830   -0.9180 C   0  0  0  0  0  0  0  0  0  0  0  0
    1.1190    1.4160   -1.2490 C   0  0  0  0  0  0  0  0  0  0  0  0
   -0.2230    0.7470   -1.5640 C   0  0  0  0  0  0  0  0  0  0  0  0
   -0.6030    0.0270   -0.3720 N   0  0  0  0  0  0  0  0  0  0  0  0
   -1.5140   -1.0470   -0.6040 C   0  0  1  0  0  0  0  0  0  0  0  0
   -1.2880   -2.0870    0.4730 C   0  0  0  0  0  0  0  0  0  0  0  0
   -2.1190   -1.6020    1.5110 O   0  0  0  0  0  0  0  0  0  0  0  0
   -3.2240   -0.9540    0.9650 C   0  0  0  0  0  0  0  0  0  0  0  0
   -4.4850   -0.6320    1.4500 C   0  0  0  0  0  0  0  0  0  0  0  0
   -5.4350    0.0230    0.7240 C   0  0  0  0  0  0  0  0  0  0  0  0
   -5.1190    0.3850   -0.5680 C   0  0  0  0  0  0  0  0  0  0  0  0
   -3.8740    0.0830   -1.0870 C   0  0  0  0  0  0  0  0  0  0  0  0
   -2.9210   -0.5840   -0.3320 C   0  0  0  0  0  0  0  0  0  0  0  0
   -6.1120    1.1050   -1.4200 C   0  0  0  0  0  0  0  0  0  0  0  0
   -7.4800    0.6140   -0.9680 C   0  0  0  0  0  0  0  0  0  0  0  0
   -7.6510    1.1200    0.4600 C   0  0  0  0  0  0  0  0  0  0  0  0
   -6.7610    0.3190    1.3470 C   0  0  0  0  0  0  0  0  0  0  0  0
    1.9810   -0.9350   -1.2410 N   0  0  0  0  0  0  0  0  0  0  0  0
  1  2  1  0
  2  3  1  0
  3  4  1  0
  4  5  2  0
  4  6  1  0
  6  7  2  0
  6 32  1  0
  7  8  1  0
  8  9  1  0
  8 15  2  0
  9 10  1  0
 10 11  1  0
 11 12  2  0
 11 13  1  0
 13 14  1  0
 15 16  1  0
 15 32  1  0
 16 17  1  0
 17 18  1  0
 19 18  1  1
 19 20  1  0
 19 27  1  0
 20 21  1  0
 21 22  1  0
 22 23  2  0
 22 27  1  0
 23 24  1  0
 24 25  2  0
 24 31  1  0
 25 26  1  0
 25 28  1  0
 26 27  2  0
 28 29  1  0
 29 30  1  0
 30 31  1  0
M  CHG  1  18   1
M  END
