
     RDKit          3D

 32 35  0  0  0  0  0  0  0  0999 V2000
    0.6050    4.5090    1.2680 C   0  0  0  0  0  0  0  0  0  0  0  0
    1.3720    3.3340    1.4140 O   0  0  0  0  0  0  0  0  0  0  0  0
    0.9450    2.1940    0.7400 C   0  0  0  0  0  0  0  0  0  0  0  0
   -0.1780    2.1690   -0.0530 C   0  0  0  0  0  0  0  0  0  0  0  0
   -0.6550    1.0360   -0.7610 C   0  0  0  0  0  0  0  0  0  0  0  0
    0.1150   -0.1010   -0.5950 C   0  0  0  0  0  0  0  0  0  0  0  0
    1.2570   -0.0580    0.2160 C   0  0  0  0  0  0  0  0  0  0  0  0
    1.6870    1.0490    0.8800 C   0  0  0  0  0  0  0  0  0  0  0  0
    2.8000    1.1120    1.6710 O   0  0  0  0  0  0  0  0  0  0  0  0
    3.7440    0.1560    1.9640 C   0  0  0  0  0  0  0  0  0  0  0  0
    4.5840   -0.3490    0.8350 C   0  0  0  0  0  0  0  0  0  0  0  0
    5.5390   -1.3580    1.2790 N   0  0  0  0  0  0  0  0  0  0  0  0
    6.5340   -1.6120    0.2550 C   0  0  1  0  0  0  0  0  0  0  0  0
    7.9230   -1.1140    0.4560 C   0  0  0  0  0  0  0  0  0  0  0  0
    7.6340   -2.5500    0.5150 C   0  0  0  0  0  0  0  0  0  0  0  0
   -0.0750   -1.4780   -1.1430 C   0  0  0  0  0  0  0  0  0  0  0  0
   -1.4390   -2.0090   -1.0780 C   0  0  0  0  0  0  0  0  0  0  0  0
   -1.8880   -2.8710    0.0100 C   0  0  0  0  0  0  0  0  0  0  0  0
   -1.2460   -3.8570    0.3830 O   0  0  0  0  0  0  0  0  0  0  0  0
   -3.1730   -2.4970    0.6520 N   0  0  0  0  0  0  0  0  0  0  0  0
   -3.8830   -1.2550    0.3050 C   0  0  0  0  0  0  0  0  0  0  0  0
   -3.9060   -0.4680    1.4840 C   0  0  0  0  0  0  0  0  0  0  0  0
   -4.1300    0.8820    1.4850 C   0  0  0  0  0  0  0  0  0  0  0  0
   -4.1690    1.6990    2.7140 C   0  0  0  0  0  0  0  0  0  0  0  0
   -4.3230    1.4060    0.2270 C   0  0  0  0  0  0  0  0  0  0  0  0
   -4.3090    0.6600   -0.9530 C   0  0  0  0  0  0  0  0  0  0  0  0
   -4.1130   -0.7060   -0.9560 C   0  0  0  0  0  0  0  0  0  0  0  0
   -4.1840   -1.5210   -2.1720 O   0  0  0  0  0  0  0  0  0  0  0  0
   -5.3530   -2.0980   -2.6630 C   0  0  0  0  0  0  0  0  0  0  0  0
   -4.0620    1.6480   -2.0960 C   0  0  0  0  0  0  0  0  0  0  0  0
   -2.5530    1.5350   -2.4820 C   0  0  0  0  0  0  0  0  0  0  0  0
   -1.7610    1.2540   -1.4690 O   0  0  0  0  0  0  0  0  0  0  0  0
  1  2  1  0
  2  3  1  0
  3  4  2  0
  3  8  1  0
  4  5  1  0
  5  6  2  0
  5 32  1  0
  6  7  1  0
  6 16  1  0
  7  8  2  0
  8  9  1  0
  9 10  1  0
 10 11  1  0
 11 12  1  0
 13 12  1  1
 13 14  1  0
 13 15  1  0
 14 15  1  0
 16 17  1  0
 17 18  1  0
 18 19  2  0
 18 20  1  0
 20 21  1  0
 21 22  2  0
 21 27  1  0
 22 23  1  0
 23 24  1  0
 23 25  2  0
 25 26  1  0
 26 27  2  0
 26 30  1  0
 27 28  1  0
 28 29  1  0
 30 31  1  0
 31 32  1  0
M  CHG  1  12   1
M  END
