
     RDKit          3D

 32 34  0  0  0  0  0  0  0  0999 V2000
    5.4600   -1.8830    2.7950 C   0  0  0  0  0  0  0  0  0  0  0  0
    5.4320   -1.7670    1.2770 C   0  0  2  0  0  0  0  0  0  0  0  0
    5.6490   -3.1270    0.6400 C   0  0  0  0  0  0  0  0  0  0  0  0
    6.4360   -0.7720    0.7890 C   0  0  0  0  0  0  0  0  0  0  0  0
    3.9960   -1.3470    0.9010 C   0  0  0  0  0  0  0  0  0  0  0  0
    3.9310   -1.2230   -0.5790 C   0  0  0  0  0  0  0  0  0  0  0  0
    2.7040   -0.8730   -1.0300 O   0  0  0  0  0  0  0  0  0  0  0  0
    2.3050    0.3700   -0.5480 C   0  0  0  0  0  0  0  0  0  0  0  0
    0.9760    0.6720   -1.1260 C   0  0  0  0  0  0  0  0  0  0  0  0
    0.5150   -0.1760   -1.9660 O   0  0  0  0  0  0  0  0  0  0  0  0
    0.2630    1.8200   -0.7630 N   0  0  0  0  0  0  0  0  0  0  0  0
   -1.0480    1.9460   -1.3780 C   0  0  0  0  0  0  0  0  0  0  0  0
   -1.9230    0.9930   -1.1380 C   0  0  0  0  0  0  0  0  0  0  0  0
   -3.2620    1.0160   -1.6990 C   0  0  0  0  0  0  0  0  0  0  0  0
   -4.1200    0.0700   -1.4560 C   0  0  0  0  0  0  0  0  0  0  0  0
   -3.8750   -1.0590   -0.6470 O   0  0  0  0  0  0  0  0  0  0  0  0
   -4.9990   -1.8650   -0.6000 C   0  0  0  0  0  0  0  0  0  0  0  0
   -5.9770   -1.3500   -1.3230 C   0  0  0  0  0  0  0  0  0  0  0  0
   -7.2470   -2.0640   -1.3940 C   0  0  0  0  0  0  0  0  0  0  0  0
   -7.6400   -2.7340   -0.2790 O   0  0  0  0  0  0  0  0  0  0  0  0
   -6.6900   -3.1520    0.5980 C   0  0  2  0  0  0  0  0  0  0  0  0
   -7.0070   -4.6110    0.9540 C   0  0  0  0  0  0  0  0  0  0  0  0
   -6.7200   -2.3860    1.9140 C   0  0  0  0  0  0  0  0  0  0  0  0
   -5.2780   -3.1430    0.0880 C   0  0  0  0  0  0  0  0  0  0  0  0
   -5.4980   -0.1180   -1.9010 C   0  0  0  0  0  0  0  0  0  0  0  0
   -6.1240    0.6780   -2.6570 O   0  0  0  0  0  0  0  0  0  0  0  0
    0.7670    2.8130    0.1100 C   0  0  0  0  0  0  0  0  0  0  0  0
    1.4330    3.9930   -0.4730 C   0  0  1  0  0  0  0  0  0  0  0  0
    1.8700    4.9250    0.6640 C   0  0  0  0  0  0  0  0  0  0  0  0
    3.0650    5.6690    0.0690 C   0  0  0  0  0  0  0  0  0  0  0  0
    3.1350    5.1280   -1.3460 C   0  0  0  0  0  0  0  0  0  0  0  0
    2.6980    3.7340   -1.1100 N   0  0  0  0  0  0  0  0  0  0  0  0
  2  1  1  1
  2  3  1  0
  2  4  1  0
  2  5  1  0
  5  6  1  0
  6  7  1  0
  7  8  1  0
  8  9  1  0
  9 10  2  0
  9 11  1  0
 11 12  1  0
 11 27  1  0
 12 13  2  3
 13 14  1  0
 14 15  2  3
 15 16  1  0
 15 25  1  0
 16 17  1  0
 17 18  2  0
 17 24  1  0
 18 19  1  0
 18 25  1  0
 19 20  1  0
 20 21  1  0
 21 22  1  1
 21 23  1  0
 21 24  1  0
 25 26  2  0
 28 27  1  1
 28 29  1  0
 28 32  1  0
 29 30  1  0
 30 31  1  0
 31 32  1  0
M  CHG  1  32   1
M  END
