
     RDKit          3D

 32 35  0  0  0  0  0  0  0  0999 V2000
    6.3380    2.8970   -1.1140 C   0  0  0  0  0  0  0  0  0  0  0  0
    5.3830    1.7140   -1.4090 C   0  0  0  0  0  0  0  0  0  0  0  0
    4.1490    1.9910   -0.6580 C   0  0  0  0  0  0  0  0  0  0  0  0
    3.0100    1.0490   -0.7470 C   0  0  2  0  0  0  0  0  0  0  0  0
    1.9230    1.6850    0.1460 C   0  0  0  0  0  0  0  0  0  0  0  0
    1.1100    0.5400    0.5620 N   0  0  0  0  0  0  0  0  0  0  0  0
   -0.2770    0.6670    0.8410 C   0  0  0  0  0  0  0  0  0  0  0  0
   -0.7980    1.8000    0.6080 O   0  0  0  0  0  0  0  0  0  0  0  0
   -1.1310   -0.3820    1.3630 C   0  0  0  0  0  0  0  0  0  0  0  0
   -2.4770   -0.1380    1.5950 O   0  0  0  0  0  0  0  0  0  0  0  0
   -3.4290    0.3550    0.7350 C   0  0  0  0  0  0  0  0  0  0  0  0
   -3.8490    1.6610    0.8640 C   0  0  0  0  0  0  0  0  0  0  0  0
   -3.4990    2.5540    1.9480 C   0  0  0  0  0  0  0  0  0  0  0  0
   -2.7270    2.1870    3.1240 C   0  0  0  0  0  0  0  0  0  0  0  0
   -3.8990    3.7640    1.8850 O   0  0  0  0  0  0  0  0  0  0  0  0
   -4.8100    2.1060   -0.0710 C   0  0  0  0  0  0  0  0  0  0  0  0
   -5.2910    1.2720   -1.0400 C   0  0  0  0  0  0  0  0  0  0  0  0
   -4.8550   -0.0270   -1.1360 C   0  0  0  0  0  0  0  0  0  0  0  0
   -3.9240   -0.5070   -0.2580 C   0  0  0  0  0  0  0  0  0  0  0  0
   -3.4170   -1.9000   -0.3140 C   0  0  0  0  0  0  0  0  0  0  0  0
   -4.4640   -2.7460   -1.0560 C   0  0  0  0  0  0  0  0  0  0  0  0
   -4.6700   -2.0570   -2.3910 C   0  0  0  0  0  0  0  0  0  0  0  0
   -5.4120   -0.8550   -2.1820 N   0  0  0  0  0  0  0  0  0  0  0  0
    2.0070   -0.5350    0.5970 C   0  0  0  0  0  0  0  0  0  0  0  0
    1.8790   -1.7500    1.2610 C   0  0  0  0  0  0  0  0  0  0  0  0
    2.8450   -2.7140    1.1890 C   0  0  0  0  0  0  0  0  0  0  0  0
    3.9610   -2.4910    0.4550 C   0  0  0  0  0  0  0  0  0  0  0  0
    4.9830   -3.5160    0.3810 C   0  0  0  0  0  0  0  0  0  0  0  0
    6.0080   -3.3110   -0.2940 O   0  0  0  0  0  0  0  0  0  0  0  0
    4.8200   -4.7020    1.0510 O   0  0  0  0  0  0  0  0  0  0  0  0
    4.0890   -1.2810   -0.2070 C   0  0  0  0  0  0  0  0  0  0  0  0
    3.1530   -0.2750   -0.1710 C   0  0  0  0  0  0  0  0  0  0  0  0
  1  2  1  0
  2  3  1  0
  4  3  1  1
  4  5  1  0
  4 32  1  0
  5  6  1  0
  6  7  1  0
  6 24  1  0
  7  8  2  0
  7  9  1  0
  9 10  1  0
 10 11  1  0
 11 12  2  0
 11 19  1  0
 12 13  1  0
 12 16  1  0
 13 14  1  0
 13 15  2  0
 16 17  2  0
 17 18  1  0
 18 19  2  0
 18 23  1  0
 19 20  1  0
 20 21  1  0
 21 22  1  0
 22 23  1  0
 24 25  2  0
 24 32  1  0
 25 26  1  0
 26 27  2  0
 27 28  1  0
 27 31  1  0
 28 29  2  0
 28 30  1  0
 31 32  2  0
M  CHG  1  23   1
M  END
