
     RDKit          3D

 32 35  0  0  0  0  0  0  0  0999 V2000
    8.9720   -1.5550    0.6670 C   0  0  0  0  0  0  0  0  0  0  0  0
    7.6700   -1.3180    1.3890 C   0  0  0  0  0  0  0  0  0  0  0  0
    6.5060   -1.3020    0.4380 C   0  0  0  0  0  0  0  0  0  0  0  0
    6.6920   -1.4780   -0.8460 C   0  0  0  0  0  0  0  0  0  0  0  0
    5.6710   -1.4900   -1.9120 C   0  0  0  0  0  0  0  0  0  0  0  0
    4.3660   -1.2810   -1.5130 O   0  0  0  0  0  0  0  0  0  0  0  0
    3.7980   -0.1810   -0.9340 C   0  0  0  0  0  0  0  0  0  0  0  0
    4.5330    0.9460   -0.6820 C   0  0  0  0  0  0  0  0  0  0  0  0
    3.9710    2.0510   -0.1000 C   0  0  0  0  0  0  0  0  0  0  0  0
    2.6220    2.0090    0.2360 C   0  0  0  0  0  0  0  0  0  0  0  0
    1.8720    0.8570   -0.0210 C   0  0  0  0  0  0  0  0  0  0  0  0
    2.4380   -0.2490   -0.6050 C   0  0  0  0  0  0  0  0  0  0  0  0
    0.4790    0.8160    0.3390 C   0  0  0  0  0  0  0  0  0  0  0  0
   -0.2910   -0.2780    0.0850 C   0  0  0  0  0  0  0  0  0  0  0  0
   -1.6450   -0.2860    0.4250 C   0  0  0  0  0  0  0  0  0  0  0  0
   -2.2370    0.8040    1.0230 C   0  0  0  0  0  0  0  0  0  0  0  0
   -3.7030    0.7760    1.3750 C   0  0  0  0  0  0  0  0  0  0  0  0
   -4.4830    1.3820    0.3140 N   0  0  0  0  0  0  0  0  0  0  0  0
   -5.0800    0.4150   -0.5570 C   0  0  0  0  0  0  0  0  0  0  0  0
   -6.2910   -0.2520   -0.1010 C   0  0  0  0  0  0  0  0  0  0  0  0
   -6.8400   -1.1950   -0.9860 C   0  0  0  0  0  0  0  0  0  0  0  0
   -6.2420   -1.4940   -2.2860 C   0  0  0  0  0  0  0  0  0  0  0  0
   -7.9250   -1.8170   -0.6180 O   0  0  0  0  0  0  0  0  0  0  0  0
   -8.5460   -1.6400    0.5050 C   0  0  0  0  0  0  0  0  0  0  0  0
   -9.6060   -2.2990    0.7780 O   0  0  0  0  0  0  0  0  0  0  0  0
   -8.0600   -0.7530    1.3780 N   0  0  0  0  0  0  0  0  0  0  0  0
   -6.9260   -0.0470    1.0880 C   0  0  0  0  0  0  0  0  0  0  0  0
   -6.5140    0.7800    1.9590 O   0  0  0  0  0  0  0  0  0  0  0  0
   -1.4490    1.9040    1.2750 C   0  0  0  0  0  0  0  0  0  0  0  0
   -0.0950    1.9420    0.9470 C   0  0  0  0  0  0  0  0  0  0  0  0
    0.7010    3.1480    1.2560 C   0  0  0  0  0  0  0  0  0  0  0  0
    2.0210    3.0890    0.8180 O   0  0  0  0  0  0  0  0  0  0  0  0
  1  2  1  0
  2  3  1  0
  3  4  2  3
  4  5  1  0
  5  6  1  0
  6  7  1  0
  7  8  2  0
  7 12  1  0
  8  9  1  0
  9 10  2  0
 10 11  1  0
 10 32  1  0
 11 12  2  0
 11 13  1  0
 13 14  2  0
 13 30  1  0
 14 15  1  0
 15 16  2  0
 16 17  1  0
 16 29  1  0
 17 18  1  0
 18 19  1  0
 19 20  1  0
 20 21  2  0
 20 27  1  0
 21 22  1  0
 21 23  1  0
 23 24  1  0
 24 25  2  0
 24 26  1  0
 26 27  1  0
 27 28  2  0
 29 30  2  0
 30 31  1  0
 31 32  1  0
M  CHG  1  18   1
M  END
