
     RDKit          3D

 32 35  0  0  0  0  0  0  0  0999 V2000
   -0.6520   -4.9050   -1.3900 C   0  0  0  0  0  0  0  0  0  0  0  0
   -0.6230   -3.7820   -0.5160 O   0  0  0  0  0  0  0  0  0  0  0  0
   -1.7560   -3.1970    0.0070 C   0  0  0  0  0  0  0  0  0  0  0  0
   -2.8350   -3.7810   -0.3840 O   0  0  0  0  0  0  0  0  0  0  0  0
   -1.8550   -2.0790    0.8960 C   0  0  0  0  0  0  0  0  0  0  0  0
   -0.7400   -1.3160    1.4100 C   0  0  0  0  0  0  0  0  0  0  0  0
    0.0480   -0.3890    0.5120 C   0  0  1  0  0  0  0  0  0  0  0  0
    0.6960   -1.0620   -0.6550 C   0  0  0  0  0  0  0  0  0  0  0  0
    1.5870   -0.1750   -1.5360 C   0  0  1  0  0  0  0  0  0  0  0  0
    2.5160    0.3200   -0.8450 O   0  0  0  0  0  0  0  0  0  0  0  0
    3.2980    0.8600   -0.0860 C   0  0  2  0  0  0  0  0  0  0  0  0
    4.4100    1.7910   -0.4650 C   0  0  0  0  0  0  0  0  0  0  0  0
    5.3200    1.8070    0.7410 C   0  0  0  0  0  0  0  0  0  0  0  0
    4.7720    0.7780    1.7140 C   0  0  0  0  0  0  0  0  0  0  0  0
    4.1210   -0.1770    0.7350 C   0  0  0  0  0  0  0  0  0  0  0  0
    2.2010   -1.3150   -2.4850 C   0  0  0  0  0  0  0  0  0  0  0  0
    1.1970   -1.6190   -3.5670 C   0  0  0  0  0  0  0  0  0  0  0  0
    1.1870   -0.5660   -4.4800 O   0  0  0  0  0  0  0  0  0  0  0  0
    1.4530    0.6350   -3.8380 C   0  0  0  0  0  0  0  0  0  0  0  0
    0.7110    0.5940   -2.4640 C   0  0  0  0  0  0  0  0  0  0  0  0
   -0.8170    0.7140    0.2000 N   0  0  0  0  0  0  0  0  0  0  0  0
   -0.2820    2.0230    0.5240 C   0  0  1  0  0  0  0  0  0  0  0  0
   -1.1690    3.0320   -0.2270 C   0  0  0  0  0  0  0  0  0  0  0  0
   -2.2350    3.5940    0.6660 C   0  0  0  0  0  0  0  0  0  0  0  0
   -1.7010    4.1230    1.9570 C   0  0  0  0  0  0  0  0  0  0  0  0
   -0.3900    3.7090    2.1420 O   0  0  0  0  0  0  0  0  0  0  0  0
   -0.3340    2.3240    1.9890 C   0  0  0  0  0  0  0  0  0  0  0  0
   -3.0860   -1.7360    1.3230 C   0  0  0  0  0  0  0  0  0  0  0  0
   -4.3370   -2.4200    0.9450 C   0  0  0  0  0  0  0  0  0  0  0  0
   -5.4020   -1.7350    1.8110 C   0  0  0  0  0  0  0  0  0  0  0  0
   -4.8440   -0.3270    1.9170 C   0  0  0  0  0  0  0  0  0  0  0  0
   -3.4450   -0.6930    2.2190 N   0  0  0  0  0  0  0  0  0  0  0  0
  1  2  1  0
  2  3  1  0
  3  4  2  0
  3  5  1  0
  5  6  1  0
  5 28  2  3
  7  6  1  6
  7  8  1  0
  7 21  1  0
  9  8  1  1
  9 10  1  0
  9 16  1  0
  9 20  1  0
 11 10  1  6
 11 12  1  0
 11 15  1  0
 12 13  1  0
 13 14  1  0
 14 15  1  0
 16 17  1  0
 17 18  1  0
 18 19  1  0
 19 20  1  0
 22 21  1  1
 22 23  1  0
 22 27  1  0
 23 24  1  0
 24 25  1  0
 25 26  1  0
 26 27  1  0
 28 29  1  0
 28 32  1  0
 29 30  1  0
 30 31  1  0
 31 32  1  0
M  CHG  1  21   1
M  END
