
     RDKit          3D

 32 34  0  0  0  0  0  0  0  0999 V2000
    8.3480   -0.6760    2.1290 C   0  0  0  0  0  0  0  0  0  0  0  0
    7.1750   -0.9960    1.1740 C   0  0  2  0  0  0  0  0  0  0  0  0
    7.7590   -1.6270   -0.0540 C   0  0  0  0  0  0  0  0  0  0  0  0
    6.4880    0.2890    0.9340 C   0  0  0  0  0  0  0  0  0  0  0  0
    5.3210    0.4140    0.0760 C   0  0  1  0  0  0  0  0  0  0  0  0
    5.4100    0.0640   -1.3760 C   0  0  0  0  0  0  0  0  0  0  0  0
    4.3120    0.7940   -1.9830 O   0  0  0  0  0  0  0  0  0  0  0  0
    3.1130    0.9160   -1.3040 C   0  0  0  0  0  0  0  0  0  0  0  0
    2.0300    1.5700   -1.8910 C   0  0  0  0  0  0  0  0  0  0  0  0
    0.8180    1.7200   -1.2620 C   0  0  0  0  0  0  0  0  0  0  0  0
   -0.2990    2.4200   -1.8880 C   0  0  0  0  0  0  0  0  0  0  0  0
   -1.4110    2.6190   -1.3850 O   0  0  0  0  0  0  0  0  0  0  0  0
    0.6770    1.1870    0.0270 C   0  0  0  0  0  0  0  0  0  0  0  0
   -0.5120    1.5670    0.7270 C   0  0  0  0  0  0  0  0  0  0  0  0
   -0.4340    2.6390    1.4580 O   0  0  0  0  0  0  0  0  0  0  0  0
   -1.8070    0.9140    0.7140 C   0  0  0  0  0  0  0  0  0  0  0  0
   -2.8810    1.5890    1.2920 C   0  0  0  0  0  0  0  0  0  0  0  0
   -4.1850    1.1330    1.1790 C   0  0  0  0  0  0  0  0  0  0  0  0
   -4.4750   -0.0260    0.4770 C   0  0  0  0  0  0  0  0  0  0  0  0
   -5.7710   -0.5540    0.5380 N   0  0  0  0  0  0  0  0  0  0  0  0
   -7.0510    0.0230    0.7040 C   0  0  0  0  0  0  0  0  0  0  0  0
   -7.2640    1.0520    1.7490 C   0  0  0  0  0  0  0  0  0  0  0  0
   -8.7690    1.3120    1.8200 C   0  0  0  0  0  0  0  0  0  0  0  0
   -9.5430    0.6970    1.1210 O   0  0  0  0  0  0  0  0  0  0  0  0
   -3.4320   -0.6980   -0.0990 C   0  0  0  0  0  0  0  0  0  0  0  0
   -3.6420   -1.7630   -1.0750 C   0  0  1  0  0  0  0  0  0  0  0  0
   -2.6740   -2.8890   -1.0800 C   0  0  0  0  0  0  0  0  0  0  0  0
   -4.9670   -2.0280   -1.6800 C   0  0  0  0  0  0  0  0  0  0  0  0
   -2.1060   -0.2290    0.0270 C   0  0  0  0  0  0  0  0  0  0  0  0
    1.7530    0.5400    0.6030 C   0  0  0  0  0  0  0  0  0  0  0  0
    2.9620    0.3980   -0.0220 C   0  0  0  0  0  0  0  0  0  0  0  0
    4.1070   -0.2340    0.5230 O   0  0  0  0  0  0  0  0  0  0  0  0
  2  1  1  1
  2  3  1  0
  2  4  1  0
  5  4  1  1
  5  6  1  0
  5 32  1  0
  6  7  1  0
  7  8  1  0
  8  9  2  0
  8 31  1  0
  9 10  1  0
 10 11  1  0
 10 13  2  0
 11 12  2  0
 13 14  1  0
 13 30  1  0
 14 15  2  0
 14 16  1  0
 16 17  2  0
 16 29  1  0
 17 18  1  0
 18 19  2  0
 19 20  1  0
 19 25  1  0
 20 21  1  0
 21 22  1  0
 22 23  1  0
 23 24  2  0
 25 26  1  0
 25 29  2  0
 26 27  1  1
 26 28  1  0
 30 31  2  0
 31 32  1  0
M  END
