
     RDKit          3D

 32 34  0  0  0  0  0  0  0  0999 V2000
    9.3220   -0.7450   -1.4200 C   0  0  0  0  0  0  0  0  0  0  0  0
    8.6650   -1.8610   -0.7030 C   0  0  0  0  0  0  0  0  0  0  0  0
    7.4040   -1.7370   -0.3420 C   0  0  0  0  0  0  0  0  0  0  0  0
    6.7980   -2.8600    0.3610 C   0  0  0  0  0  0  0  0  0  0  0  0
    5.5380   -2.7570    0.7320 C   0  0  0  0  0  0  0  0  0  0  0  0
    4.7530   -1.5400    0.4460 C   0  0  0  0  0  0  0  0  0  0  0  0
    5.2860   -0.5060   -0.1940 C   0  0  0  0  0  0  0  0  0  0  0  0
    4.4520    0.6640   -0.4420 C   0  0  0  0  0  0  0  0  0  0  0  0
    4.8290    1.8340   -1.0910 C   0  0  0  0  0  0  0  0  0  0  0  0
    3.7490    2.6890   -1.1170 C   0  0  0  0  0  0  0  0  0  0  0  0
    2.7360    1.9830   -0.4660 C   0  0  0  0  0  0  0  0  0  0  0  0
    1.3860    2.5510   -0.2740 C   0  0  0  0  0  0  0  0  0  0  0  0
    0.5540    1.5890    0.4320 N   0  0  0  0  0  0  0  0  0  0  0  0
    0.8690    1.1080    1.7190 C   0  0  0  0  0  0  0  0  0  0  0  0
    1.9310    1.5450    2.2580 O   0  0  0  0  0  0  0  0  0  0  0  0
    0.0370    0.1340    2.4550 C   0  0  0  0  0  0  0  0  0  0  0  0
   -1.1680   -0.2000    1.8290 O   0  0  0  0  0  0  0  0  0  0  0  0
   -2.1300    0.7710    1.6210 C   0  0  0  0  0  0  0  0  0  0  0  0
   -1.8940    1.9390    2.0130 O   0  0  0  0  0  0  0  0  0  0  0  0
   -3.4010    0.4870    0.9680 C   0  0  0  0  0  0  0  0  0  0  0  0
   -4.3240    1.4890    0.7860 C   0  0  0  0  0  0  0  0  0  0  0  0
   -5.5370    1.2260    0.1650 C   0  0  0  0  0  0  0  0  0  0  0  0
   -6.5200    2.3130   -0.0250 C   0  0  0  0  0  0  0  0  0  0  0  0
   -5.8350   -0.0490   -0.2800 C   0  0  0  0  0  0  0  0  0  0  0  0
   -7.0370   -0.3420   -0.9040 O   0  0  0  0  0  0  0  0  0  0  0  0
   -8.1880   -0.7590   -0.1960 C   0  0  0  0  0  0  0  0  0  0  0  0
   -9.3370   -1.0010   -1.1510 C   0  0  0  0  0  0  0  0  0  0  0  0
   -4.8830   -1.0220   -0.0770 C   0  0  0  0  0  0  0  0  0  0  0  0
   -5.2400   -2.3950   -0.5730 C   0  0  0  0  0  0  0  0  0  0  0  0
   -3.6700   -0.7990    0.5340 C   0  0  0  0  0  0  0  0  0  0  0  0
    3.1830    0.8210   -0.0930 O   0  0  0  0  0  0  0  0  0  0  0  0
    6.6810   -0.4970   -0.6590 C   0  0  0  0  0  0  0  0  0  0  0  0
  1  2  1  0
  2  3  2  3
  3  4  1  0
  3 32  1  0
  4  5  2  0
  5  6  1  0
  6  7  2  0
  7  8  1  0
  7 32  1  0
  8  9  2  0
  8 31  1  0
  9 10  1  0
 10 11  2  0
 11 12  1  0
 11 31  1  0
 12 13  1  0
 13 14  1  0
 14 15  2  0
 14 16  1  0
 16 17  1  0
 17 18  1  0
 18 19  2  0
 18 20  1  0
 20 21  2  0
 20 30  1  0
 21 22  1  0
 22 23  1  0
 22 24  2  0
 24 25  1  0
 24 28  1  0
 25 26  1  0
 26 27  1  0
 28 29  1  0
 28 30  2  0
M  END
