
     RDKit          3D

 32 34  0  0  0  0  0  0  0  0999 V2000
    2.1440    3.6230    0.3440 C   0  0  0  0  0  0  0  0  0  0  0  0
    1.4070    2.4550    0.8810 C   0  0  0  0  0  0  0  0  0  0  0  0
    2.0280    1.3470    1.2110 C   0  0  0  0  0  0  0  0  0  0  0  0
    3.4830    1.2720    1.0430 C   0  0  0  0  0  0  0  0  0  0  0  0
    4.1620    0.1930    1.3570 C   0  0  0  0  0  0  0  0  0  0  0  0
    5.6090    0.1490    1.1780 C   0  0  0  0  0  0  0  0  0  0  0  0
    6.2960   -1.0180    1.5300 C   0  0  0  0  0  0  0  0  0  0  0  0
    7.6410   -1.1410    1.3930 C   0  0  0  0  0  0  0  0  0  0  0  0
    8.4020   -0.0980    0.8890 C   0  0  0  0  0  0  0  0  0  0  0  0
    7.7110    1.0570    0.5420 C   0  0  0  0  0  0  0  0  0  0  0  0
    6.3540    1.1730    0.6840 C   0  0  0  0  0  0  0  0  0  0  0  0
    1.3720    0.2480    1.7110 O   0  0  0  0  0  0  0  0  0  0  0  0
    0.0920   -0.1620    1.2630 C   0  0  0  0  0  0  0  0  0  0  0  0
    0.1110   -0.4690   -0.1900 C   0  0  0  0  0  0  0  0  0  0  0  0
    1.2010   -0.3370   -0.7950 O   0  0  0  0  0  0  0  0  0  0  0  0
   -1.1100   -0.9110   -0.8890 C   0  0  0  0  0  0  0  0  0  0  0  0
   -2.2390   -1.0450   -0.2480 C   0  0  0  0  0  0  0  0  0  0  0  0
   -3.4900   -1.4720   -0.8280 C   0  0  0  0  0  0  0  0  0  0  0  0
   -4.6260   -0.7050   -0.9270 C   0  0  0  0  0  0  0  0  0  0  0  0
   -4.8530    0.6870   -0.5780 C   0  0  0  0  0  0  0  0  0  0  0  0
   -6.0910    1.1990   -0.7310 C   0  0  0  0  0  0  0  0  0  0  0  0
   -6.4450    2.5960   -0.4120 C   0  0  0  0  0  0  0  0  0  0  0  0
   -5.3720    3.3610    0.0560 O   0  0  0  0  0  0  0  0  0  0  0  0
   -4.0900    2.8840    0.2270 C   0  0  0  0  0  0  0  0  0  0  0  0
   -3.8630    1.6100   -0.0790 C   0  0  0  0  0  0  0  0  0  0  0  0
   -5.5540   -1.5500   -1.4740 N   0  0  0  0  0  0  0  0  0  0  0  0
   -5.0410   -2.6940   -1.6820 O   0  0  0  0  0  0  0  0  0  0  0  0
   -3.7710   -2.7480   -1.3160 C   0  0  0  0  0  0  0  0  0  0  0  0
   -2.8570   -3.9000   -1.4010 C   0  0  0  0  0  0  0  0  0  0  0  0
   -2.6560   -4.5220   -0.0050 C   0  0  0  0  0  0  0  0  0  0  0  0
   -0.9890   -1.1450   -2.3370 C   0  0  0  0  0  0  0  0  0  0  0  0
   -0.5590   -0.0010   -2.9730 O   0  0  0  0  0  0  0  0  0  0  0  0
  1  2  1  0
  2  3  2  3
  3  4  1  0
  3 12  1  0
  4  5  2  3
  5  6  1  0
  6  7  2  0
  6 11  1  0
  7  8  1  0
  8  9  2  0
  9 10  1  0
 10 11  2  0
 12 13  1  0
 13 14  1  0
 14 15  2  0
 14 16  1  0
 16 17  2  3
 16 31  1  0
 17 18  1  0
 18 19  1  0
 18 28  2  0
 19 20  1  0
 19 26  2  0
 20 21  2  0
 20 25  1  0
 21 22  1  0
 22 23  1  0
 23 24  1  0
 24 25  2  0
 26 27  1  0
 27 28  1  0
 28 29  1  0
 29 30  1  0
 31 32  1  0
M  END
