
     RDKit          3D

 32 34  0  0  0  0  0  0  0  0999 V2000
   -6.2230    1.8240    2.4540 C   0  0  0  0  0  0  0  0  0  0  0  0
   -6.8600    1.8980    1.3510 C   0  0  0  0  0  0  0  0  0  0  0  0
   -6.5860    1.1500    0.1530 C   0  0  0  0  0  0  0  0  0  0  0  0
   -7.3520    1.2800   -0.9490 C   0  0  0  0  0  0  0  0  0  0  0  0
   -8.4830    2.1560   -1.0200 C   0  0  0  0  0  0  0  0  0  0  0  0
   -9.1290    2.1910   -2.1210 O   0  0  0  0  0  0  0  0  0  0  0  0
   -5.4570    0.1980    0.0860 C   0  0  0  0  0  0  0  0  0  0  0  0
   -4.0910    0.7990    0.1880 C   0  0  0  0  0  0  0  0  0  0  0  0
   -3.1770   -0.3150    0.0830 O   0  0  0  0  0  0  0  0  0  0  0  0
   -1.8070   -0.0770    0.1340 C   0  0  0  0  0  0  0  0  0  0  0  0
   -1.4390    1.1130    0.2740 O   0  0  0  0  0  0  0  0  0  0  0  0
   -0.8380   -1.1710    0.0260 C   0  0  0  0  0  0  0  0  0  0  0  0
   -1.2460   -2.4820   -0.1250 C   0  0  0  0  0  0  0  0  0  0  0  0
   -0.3640   -3.5180   -0.2370 C   0  0  0  0  0  0  0  0  0  0  0  0
    0.9870   -3.2760   -0.2000 C   0  0  0  0  0  0  0  0  0  0  0  0
    1.8520   -4.3430   -0.3190 O   0  0  0  0  0  0  0  0  0  0  0  0
    1.3300   -5.6460   -0.4810 C   0  0  0  0  0  0  0  0  0  0  0  0
    2.4720   -6.6300   -0.5960 C   0  0  0  0  0  0  0  0  0  0  0  0
    1.4370   -1.9720   -0.0490 C   0  0  0  0  0  0  0  0  0  0  0  0
    2.8010   -1.7790   -0.0190 O   0  0  0  0  0  0  0  0  0  0  0  0
    3.4580   -0.5900    0.0780 C   0  0  0  0  0  0  0  0  0  0  0  0
    3.7460    0.0460    1.2570 C   0  0  0  0  0  0  0  0  0  0  0  0
    4.4210    1.2480    1.2620 C   0  0  0  0  0  0  0  0  0  0  0  0
    4.8350    1.8630    0.0960 C   0  0  0  0  0  0  0  0  0  0  0  0
    5.5460    3.1290    0.1210 C   0  0  0  0  0  0  0  0  0  0  0  0
    5.9880    3.7540   -0.9590 C   0  0  0  0  0  0  0  0  0  0  0  0
    6.6500    4.9920   -0.5180 C   0  0  0  0  0  0  0  0  0  0  0  0
    6.5060    4.9550    0.9570 C   0  0  0  0  0  0  0  0  0  0  0  0
    5.8800    3.8870    1.2480 N   0  0  0  0  0  0  0  0  0  0  0  0
    4.5550    1.2450   -1.0860 C   0  0  0  0  0  0  0  0  0  0  0  0
    3.8810    0.0440   -1.0990 C   0  0  0  0  0  0  0  0  0  0  0  0
    0.5210   -0.9500    0.0610 C   0  0  0  0  0  0  0  0  0  0  0  0
  1  2  2  0
  2  3  1  0
  3  4  2  3
  3  7  1  0
  4  5  1  0
  5  6  2  0
  7  8  1  0
  8  9  1  0
  9 10  1  0
 10 11  2  0
 10 12  1  0
 12 13  2  0
 12 32  1  0
 13 14  1  0
 14 15  2  0
 15 16  1  0
 15 19  1  0
 16 17  1  0
 17 18  1  0
 19 20  1  0
 19 32  2  0
 20 21  1  0
 21 22  2  0
 21 31  1  0
 22 23  1  0
 23 24  2  0
 24 25  1  0
 24 30  1  0
 25 26  2  0
 25 29  1  0
 26 27  1  0
 27 28  1  0
 28 29  2  0
 30 31  2  0
M  END
