
     RDKit          3D

 32 34  0  0  0  0  0  0  0  0999 V2000
    2.8350    5.8400    0.4840 C   0  0  0  0  0  0  0  0  0  0  0  0
    1.6860    5.0210    0.4020 O   0  0  0  0  0  0  0  0  0  0  0  0
    1.7910    3.6210    0.2030 C   0  0  0  0  0  0  0  0  0  0  0  0
    2.9580    3.2260    0.1130 O   0  0  0  0  0  0  0  0  0  0  0  0
    0.6030    2.7960    0.1210 C   0  0  0  0  0  0  0  0  0  0  0  0
   -0.5930    3.4800    0.2220 C   0  0  0  0  0  0  0  0  0  0  0  0
   -1.7820    2.8140    0.1540 C   0  0  0  0  0  0  0  0  0  0  0  0
   -3.0960    3.5270    0.2610 C   0  0  0  0  0  0  0  0  0  0  0  0
   -1.7980    1.4710   -0.0130 C   0  0  0  0  0  0  0  0  0  0  0  0
   -0.5840    0.7690   -0.1160 C   0  0  0  0  0  0  0  0  0  0  0  0
   -0.7430   -0.7020   -0.2930 C   0  0  0  0  0  0  0  0  0  0  0  0
   -2.2010   -1.0730   -0.2100 C   0  0  0  0  0  0  0  0  0  0  0  0
   -2.9600   -1.1260   -1.3540 C   0  0  0  0  0  0  0  0  0  0  0  0
   -4.3090   -1.4650   -1.2790 C   0  0  0  0  0  0  0  0  0  0  0  0
   -5.0960   -1.5250   -2.4200 O   0  0  0  0  0  0  0  0  0  0  0  0
   -6.4560   -1.8720   -2.2970 C   0  0  0  0  0  0  0  0  0  0  0  0
   -4.8630   -1.7420   -0.0480 C   0  0  0  0  0  0  0  0  0  0  0  0
   -4.1130   -1.6920    1.1020 C   0  0  0  0  0  0  0  0  0  0  0  0
   -4.6310   -1.9640    2.3570 O   0  0  0  0  0  0  0  0  0  0  0  0
   -5.9780   -2.3110    2.5210 C   0  0  0  0  0  0  0  0  0  0  0  0
   -2.7990   -1.3590    0.9950 C   0  0  0  0  0  0  0  0  0  0  0  0
    0.6340    1.3860   -0.0550 C   0  0  0  0  0  0  0  0  0  0  0  0
    1.9370    0.7970   -0.1310 C   0  0  0  0  0  0  0  0  0  0  0  0
    2.1890   -0.5810   -0.3220 N   0  0  0  0  0  0  0  0  0  0  0  0
    3.6170   -0.9390   -0.2970 C   0  0  0  0  0  0  0  0  0  0  0  0
    4.6200   -0.0360   -0.1310 C   0  0  0  0  0  0  0  0  0  0  0  0
    5.9650   -0.4100   -0.1090 C   0  0  0  0  0  0  0  0  0  0  0  0
    6.2980   -1.7270   -0.2610 C   0  0  0  0  0  0  0  0  0  0  0  0
    5.2870   -2.6490   -0.4300 C   0  0  0  0  0  0  0  0  0  0  0  0
    5.5970   -3.9970   -0.5870 O   0  0  0  0  0  0  0  0  0  0  0  0
    6.9550   -4.4160   -0.5700 C   0  0  0  0  0  0  0  0  0  0  0  0
    3.9680   -2.2640   -0.4490 C   0  0  0  0  0  0  0  0  0  0  0  0
  1  2  1  0
  2  3  1  0
  3  4  2  0
  3  5  1  0
  5  6  2  0
  5 22  1  0
  6  7  1  0
  7  8  1  0
  7  9  2  0
  9 10  1  0
 10 11  1  0
 10 22  2  0
 11 12  1  0
 12 13  2  0
 12 21  1  0
 13 14  1  0
 14 15  1  0
 14 17  2  0
 15 16  1  0
 17 18  1  0
 18 19  1  0
 18 21  2  0
 19 20  1  0
 22 23  1  0
 23 24  1  0
 24 25  1  0
 25 26  2  0
 25 32  1  0
 26 27  1  0
 27 28  2  0
 28 29  1  0
 29 30  1  0
 29 32  2  0
 30 31  1  0
M  END
