
     RDKit          3D

 32 34  0  0  0  0  0  0  0  0999 V2000
   -6.5020   -1.8150   -1.7520 C   0  0  0  0  0  0  0  0  0  0  0  0
   -5.6170   -1.4970   -0.6960 O   0  0  0  0  0  0  0  0  0  0  0  0
   -4.4960   -2.2900   -0.8810 C   0  0  0  0  0  0  0  0  0  0  0  0
   -3.4460   -2.0720    0.1690 C   0  0  2  0  0  0  0  0  0  0  0  0
   -3.9430   -2.3810    1.5590 C   0  0  0  0  0  0  0  0  0  0  0  0
   -3.0110   -0.7270    0.1630 O   0  0  0  0  0  0  0  0  0  0  0  0
   -1.6580   -0.4110   -0.0960 C   0  0  0  0  0  0  0  0  0  0  0  0
   -0.9330   -1.4020   -0.3070 O   0  0  0  0  0  0  0  0  0  0  0  0
   -1.2270    0.9850   -0.0980 C   0  0  0  0  0  0  0  0  0  0  0  0
   -2.1570    1.9600    0.2530 C   0  0  0  0  0  0  0  0  0  0  0  0
   -1.8140    3.3190    0.3340 C   0  0  0  0  0  0  0  0  0  0  0  0
   -2.8560    4.2350    0.7040 C   0  0  0  0  0  0  0  0  0  0  0  0
   -2.8920    5.5050    0.8670 C   0  0  0  0  0  0  0  0  0  0  0  0
   -1.9510    6.5700    0.7630 C   0  0  0  0  0  0  0  0  0  0  0  0
   -2.3460    7.7990    1.0110 O   0  0  0  0  0  0  0  0  0  0  0  0
   -0.5260    3.6280    0.0510 C   0  0  0  0  0  0  0  0  0  0  0  0
    0.4270    2.6780   -0.3030 C   0  0  0  0  0  0  0  0  0  0  0  0
    0.0550    1.3280   -0.3770 C   0  0  0  0  0  0  0  0  0  0  0  0
    1.0380    0.3400   -0.8060 C   0  0  0  0  0  0  0  0  0  0  0  0
    0.8970   -0.4200   -1.9490 C   0  0  0  0  0  0  0  0  0  0  0  0
    1.8000   -1.3570   -2.3640 C   0  0  0  0  0  0  0  0  0  0  0  0
    2.9490   -1.5700   -1.5880 C   0  0  0  0  0  0  0  0  0  0  0  0
    3.9960   -2.3710   -1.6890 N   0  0  0  0  0  0  0  0  0  0  0  0
    4.8430   -2.1670   -0.6380 C   0  0  0  0  0  0  0  0  0  0  0  0
    6.1080   -2.9180   -0.4730 C   0  0  0  0  0  0  0  0  0  0  0  0
    4.3260   -1.1940    0.1830 C   0  0  0  0  0  0  0  0  0  0  0  0
    4.8130   -0.6130    1.4060 C   0  0  0  0  0  0  0  0  0  0  0  0
    5.9260   -0.9210    2.0290 C   0  0  0  0  0  0  0  0  0  0  0  0
    6.2870   -0.2330    3.2790 C   0  0  0  0  0  0  0  0  0  0  0  0
    5.4930    0.6390    3.7030 O   0  0  0  0  0  0  0  0  0  0  0  0
    3.1180   -0.8260   -0.4410 C   0  0  0  0  0  0  0  0  0  0  0  0
    2.1830    0.1100   -0.0580 C   0  0  0  0  0  0  0  0  0  0  0  0
  1  2  1  0
  2  3  1  0
  3  4  1  0
  4  5  1  1
  4  6  1  0
  6  7  1  0
  7  8  2  0
  7  9  1  0
  9 10  2  0
  9 18  1  0
 10 11  1  0
 11 12  1  0
 11 16  2  0
 12 13  2  3
 13 14  1  0
 14 15  2  0
 16 17  1  0
 17 18  2  0
 18 19  1  0
 19 20  2  0
 19 32  1  0
 20 21  1  0
 21 22  2  0
 22 23  1  0
 22 31  1  0
 23 24  1  0
 24 25  1  0
 24 26  2  0
 26 27  1  0
 26 31  1  0
 27 28  2  3
 28 29  1  0
 29 30  2  0
 31 32  2  0
M  END
