
     RDKit          3D

 32 34  0  0  0  0  0  0  0  0999 V2000
   -3.3960   -2.2030    0.4510 C   0  0  0  0  0  0  0  0  0  0  0  0
   -4.9010   -2.1190    0.3190 C   0  0  2  0  0  0  0  0  0  0  0  0
   -5.3100   -2.3390   -1.1040 C   0  0  0  0  0  0  0  0  0  0  0  0
   -5.3780   -0.8100    0.8950 C   0  0  0  0  0  0  0  0  0  0  0  0
   -4.7850    0.3890    0.1980 C   0  0  1  0  0  0  0  0  0  0  0  0
   -5.3270    1.6300    0.8480 C   0  0  0  0  0  0  0  0  0  0  0  0
   -4.2760    2.4370    1.3370 O   0  0  0  0  0  0  0  0  0  0  0  0
   -3.0860    2.6220    0.6490 C   0  0  0  0  0  0  0  0  0  0  0  0
   -2.3790    3.7680    0.5290 C   0  0  0  0  0  0  0  0  0  0  0  0
   -1.1820    3.8720   -0.1880 C   0  0  0  0  0  0  0  0  0  0  0  0
   -0.4790    5.1190   -0.2330 C   0  0  0  0  0  0  0  0  0  0  0  0
    0.5980    5.2760   -0.7960 O   0  0  0  0  0  0  0  0  0  0  0  0
   -0.7040    2.7500   -0.8000 C   0  0  0  0  0  0  0  0  0  0  0  0
    0.4990    2.7120   -1.6160 C   0  0  0  0  0  0  0  0  0  0  0  0
    0.6990    3.5110   -2.5600 O   0  0  0  0  0  0  0  0  0  0  0  0
    1.5540    1.7080   -1.3590 C   0  0  0  0  0  0  0  0  0  0  0  0
    2.3980    1.2800   -2.3610 C   0  0  0  0  0  0  0  0  0  0  0  0
    3.3920    0.3510   -2.1390 C   0  0  0  0  0  0  0  0  0  0  0  0
    3.5700   -0.1790   -0.8890 C   0  0  0  0  0  0  0  0  0  0  0  0
    4.6080   -1.1220   -0.7150 N   0  0  0  0  0  0  0  0  0  0  0  0
    5.4360   -1.5380   -1.8130 C   0  0  0  0  0  0  0  0  0  0  0  0
    6.4860   -2.5500   -1.3400 C   0  0  0  0  0  0  0  0  0  0  0  0
    5.8390   -3.7450   -0.7640 C   0  0  0  0  0  0  0  0  0  0  0  0
    5.3910   -3.7890    0.3610 O   0  0  0  0  0  0  0  0  0  0  0  0
    2.7480    0.2210    0.1470 C   0  0  0  0  0  0  0  0  0  0  0  0
    2.9610   -0.3690    1.4900 C   0  0  1  0  0  0  0  0  0  0  0  0
    2.0010    0.2620    2.4960 C   0  0  0  0  0  0  0  0  0  0  0  0
    2.6560   -1.8650    1.5170 C   0  0  0  0  0  0  0  0  0  0  0  0
    1.7680    1.1480   -0.1170 C   0  0  0  0  0  0  0  0  0  0  0  0
   -1.4320    1.5460   -0.6810 C   0  0  0  0  0  0  0  0  0  0  0  0
   -2.5980    1.4800    0.0260 C   0  0  0  0  0  0  0  0  0  0  0  0
   -3.3720    0.3350    0.1880 O   0  0  0  0  0  0  0  0  0  0  0  0
  2  1  1  6
  2  3  1  0
  2  4  1  0
  5  4  1  1
  5  6  1  0
  5 32  1  0
  6  7  1  0
  7  8  1  0
  8  9  2  0
  8 31  1  0
  9 10  1  0
 10 11  1  0
 10 13  2  0
 11 12  2  0
 13 14  1  0
 13 30  1  0
 14 15  2  0
 14 16  1  0
 16 17  2  0
 16 29  1  0
 17 18  1  0
 18 19  2  0
 19 20  1  0
 19 25  1  0
 20 21  1  0
 21 22  1  0
 22 23  1  0
 23 24  2  0
 25 26  1  0
 25 29  2  0
 26 27  1  1
 26 28  1  0
 30 31  2  0
 31 32  1  0
M  END
