
     RDKit          3D

 32 34  0  0  0  0  0  0  0  0999 V2000
    7.6170    3.2110   -1.0850 C   0  0  0  0  0  0  0  0  0  0  0  0
    8.1310    1.8260   -1.1700 C   0  0  0  0  0  0  0  0  0  0  0  0
    7.4070    0.7770   -0.6790 C   0  0  0  0  0  0  0  0  0  0  0  0
    7.9560   -0.5570   -0.7880 C   0  0  0  0  0  0  0  0  0  0  0  0
    7.2990   -1.6040   -0.3310 C   0  0  0  0  0  0  0  0  0  0  0  0
    5.9960   -1.3810    0.2910 C   0  0  0  0  0  0  0  0  0  0  0  0
    5.4610   -0.1940    0.4100 C   0  0  0  0  0  0  0  0  0  0  0  0
    4.1330   -0.0990    1.0610 C   0  0  0  0  0  0  0  0  0  0  0  0
    3.4060    1.0560    1.2800 C   0  0  0  0  0  0  0  0  0  0  0  0
    2.2240    0.7260    1.9100 C   0  0  0  0  0  0  0  0  0  0  0  0
    2.2870   -0.6570    2.0500 C   0  0  0  0  0  0  0  0  0  0  0  0
    1.1860   -1.4330    2.6950 C   0  0  0  0  0  0  0  0  0  0  0  0
    0.2090   -1.8500    1.6890 N   0  0  0  0  0  0  0  0  0  0  0  0
    0.6100   -2.6770    0.6090 C   0  0  0  0  0  0  0  0  0  0  0  0
    1.8360   -3.0470    0.5470 O   0  0  0  0  0  0  0  0  0  0  0  0
   -0.3360   -3.1090   -0.4160 C   0  0  0  0  0  0  0  0  0  0  0  0
   -1.5730   -2.4800   -0.2480 O   0  0  0  0  0  0  0  0  0  0  0  0
   -1.7440   -1.1120   -0.3620 C   0  0  0  0  0  0  0  0  0  0  0  0
   -0.7670   -0.3960   -0.6310 O   0  0  0  0  0  0  0  0  0  0  0  0
   -3.0590   -0.5070   -0.1710 C   0  0  0  0  0  0  0  0  0  0  0  0
   -3.2750    0.8480   -0.2750 C   0  0  0  0  0  0  0  0  0  0  0  0
   -4.5140    1.4120   -0.0940 C   0  0  0  0  0  0  0  0  0  0  0  0
   -4.6860    2.8920   -0.2200 C   0  0  0  0  0  0  0  0  0  0  0  0
   -5.5970    0.5830    0.2070 C   0  0  0  0  0  0  0  0  0  0  0  0
   -6.8290    1.1860    0.3830 O   0  0  0  0  0  0  0  0  0  0  0  0
   -7.7720    1.4650   -0.5990 C   0  0  0  0  0  0  0  0  0  0  0  0
   -8.2400    0.2390   -1.3080 C   0  0  0  0  0  0  0  0  0  0  0  0
   -5.4190   -0.7760    0.3190 C   0  0  0  0  0  0  0  0  0  0  0  0
   -6.5390   -1.6960    0.6490 C   0  0  0  0  0  0  0  0  0  0  0  0
   -4.1410   -1.3010    0.1260 C   0  0  0  0  0  0  0  0  0  0  0  0
    3.4050   -1.0760    1.5450 O   0  0  0  0  0  0  0  0  0  0  0  0
    6.1010    1.0310   -0.0600 C   0  0  0  0  0  0  0  0  0  0  0  0
  1  2  1  0
  2  3  2  3
  3  4  1  0
  3 32  1  0
  4  5  2  0
  5  6  1  0
  6  7  2  0
  7  8  1  0
  7 32  1  0
  8  9  2  0
  8 31  1  0
  9 10  1  0
 10 11  2  0
 11 12  1  0
 11 31  1  0
 12 13  1  0
 13 14  1  0
 14 15  2  0
 14 16  1  0
 16 17  1  0
 17 18  1  0
 18 19  2  0
 18 20  1  0
 20 21  2  0
 20 30  1  0
 21 22  1  0
 22 23  1  0
 22 24  2  0
 24 25  1  0
 24 28  1  0
 25 26  1  0
 26 27  1  0
 28 29  1  0
 28 30  2  0
M  END
