
     RDKit          3D

 33 35  0  0  0  0  0  0  0  0999 V2000
    8.8980   -0.0790   -1.5110 C   0  0  0  0  0  0  0  0  0  0  0  0
    7.5260    0.2070   -0.9440 C   0  0  0  0  0  0  0  0  0  0  0  0
    7.4940    0.3250    0.3110 O   0  0  0  0  0  0  0  0  0  0  0  0
    6.3740    0.3270   -1.7940 C   0  0  0  0  0  0  0  0  0  0  0  0
    5.1870    0.5720   -1.3990 C   0  0  0  0  0  0  0  0  0  0  0  0
    4.7970    0.7780    0.0080 C   0  0  0  0  0  0  0  0  0  0  0  0
    3.4480    1.5120    0.0370 C   0  0  0  0  0  0  0  0  0  0  0  0
    2.3800    0.5560   -0.2630 C   0  0  0  0  0  0  0  0  0  0  0  0
    1.3380    0.1910    0.6350 C   0  0  0  0  0  0  0  0  0  0  0  0
    1.0690    0.4670    1.8720 C   0  0  0  0  0  0  0  0  0  0  0  0
    1.8630    1.3020    2.7540 C   0  0  0  0  0  0  0  0  0  0  0  0
    3.0630    1.0280    3.0050 O   0  0  0  0  0  0  0  0  0  0  0  0
    1.1890    2.5030    3.3570 C   0  0  0  0  0  0  0  0  0  0  0  0
   -0.3100    2.1910    3.4490 C   0  0  0  0  0  0  0  0  0  0  0  0
   -0.4500    0.7100    3.7530 C   0  0  0  0  0  0  0  0  0  0  0  0
   -0.2060   -0.0760    2.5050 C   0  0  1  0  0  0  0  0  0  0  0  0
   -1.3060    0.0190    1.5530 N   0  0  0  0  0  0  0  0  0  0  0  0
   -1.9040   -1.1290    1.0500 C   0  0  0  0  0  0  0  0  0  0  0  0
   -1.4220   -2.2610    1.4840 O   0  0  0  0  0  0  0  0  0  0  0  0
   -2.9970   -1.2210    0.1070 C   0  0  0  0  0  0  0  0  0  0  0  0
   -3.5230   -2.5190   -0.1140 C   0  0  0  0  0  0  0  0  0  0  0  0
   -4.5500   -2.7850   -0.9750 C   0  0  0  0  0  0  0  0  0  0  0  0
   -5.0940   -4.1470   -1.1990 C   0  0  0  0  0  0  0  0  0  0  0  0
   -5.0810   -1.7090   -1.6510 C   0  0  0  0  0  0  0  0  0  0  0  0
   -6.2000   -1.9520   -2.5990 C   0  0  0  0  0  0  0  0  0  0  0  0
   -4.5980   -0.4420   -1.4620 C   0  0  0  0  0  0  0  0  0  0  0  0
   -5.1640    0.7250   -2.1830 C   0  0  0  0  0  0  0  0  0  0  0  0
   -3.5380   -0.1720   -0.5720 C   0  0  0  0  0  0  0  0  0  0  0  0
   -3.1210    1.2230   -0.4430 C   0  0  0  0  0  0  0  0  0  0  0  0
   -2.1900    1.6990   -1.1690 O   0  0  0  0  0  0  0  0  0  0  0  0
   -3.7190    2.0980    0.4640 O   0  0  0  0  0  0  0  0  0  0  0  0
    2.4260    0.0620   -1.5320 C   0  0  0  0  0  0  0  0  0  0  0  0
    3.7810    0.6700   -2.5710 S   0  0  0  0  0  0  0  0  0  0  0  0
  1  2  1  0
  2  3  2  0
  2  4  1  0
  4  5  2  3
  5  6  1  0
  5 33  1  0
  6  7  1  0
  7  8  1  0
  8  9  1  0
  8 32  2  0
  9 10  2  3
 10 11  1  0
 10 16  1  0
 11 12  2  0
 11 13  1  0
 13 14  1  0
 14 15  1  0
 15 16  1  0
 16 17  1  6
 17 18  1  0
 18 19  2  0
 18 20  1  0
 20 21  2  0
 20 28  1  0
 21 22  1  0
 22 23  1  0
 22 24  2  0
 24 25  1  0
 24 26  1  0
 26 27  1  0
 26 28  2  0
 28 29  1  0
 29 30  2  0
 29 31  1  0
 32 33  1  0
M  END
