
     RDKit          3D

 32 34  0  0  0  0  0  0  0  0999 V2000
   -7.9990    1.7540   -0.3930 C   0  0  0  0  0  0  0  0  0  0  0  0
   -8.2330    0.9010    0.5530 C   0  0  0  0  0  0  0  0  0  0  0  0
   -7.3150   -0.1560    1.0320 C   0  0  0  0  0  0  0  0  0  0  0  0
   -7.7510   -0.9520    1.9790 C   0  0  0  0  0  0  0  0  0  0  0  0
   -7.0270   -2.0300    2.5800 C   0  0  0  0  0  0  0  0  0  0  0  0
   -5.8700   -2.4280    2.3460 O   0  0  0  0  0  0  0  0  0  0  0  0
   -6.0050   -0.2510    0.3660 C   0  0  0  0  0  0  0  0  0  0  0  0
   -5.1810    0.9500    0.7160 C   0  0  0  0  0  0  0  0  0  0  0  0
   -3.9160    0.9840    0.0900 O   0  0  0  0  0  0  0  0  0  0  0  0
   -2.9490    0.0350    0.2430 C   0  0  0  0  0  0  0  0  0  0  0  0
   -3.1520   -0.9520    0.9790 O   0  0  0  0  0  0  0  0  0  0  0  0
   -1.6810    0.1710   -0.4500 C   0  0  0  0  0  0  0  0  0  0  0  0
   -1.3940    1.2380   -1.2780 C   0  0  0  0  0  0  0  0  0  0  0  0
   -0.1930    1.3670   -1.9350 C   0  0  0  0  0  0  0  0  0  0  0  0
    0.8040    0.4340   -1.8070 C   0  0  0  0  0  0  0  0  0  0  0  0
    2.0380    0.4920   -2.4320 O   0  0  0  0  0  0  0  0  0  0  0  0
    2.3840    1.5580   -3.2650 C   0  0  0  0  0  0  0  0  0  0  0  0
    2.3950    2.8590   -2.5340 C   0  0  0  0  0  0  0  0  0  0  0  0
    0.5120   -0.6530   -0.9630 C   0  0  0  0  0  0  0  0  0  0  0  0
    1.4820   -1.6050   -0.8110 O   0  0  0  0  0  0  0  0  0  0  0  0
    2.7400   -1.4220   -0.2950 C   0  0  0  0  0  0  0  0  0  0  0  0
    3.2330   -0.2510    0.2220 C   0  0  0  0  0  0  0  0  0  0  0  0
    4.5190   -0.1780    0.7150 C   0  0  0  0  0  0  0  0  0  0  0  0
    5.3600   -1.2690    0.7100 C   0  0  0  0  0  0  0  0  0  0  0  0
    6.7350   -1.1760    1.2420 C   0  0  0  0  0  0  0  0  0  0  0  0
    7.2900   -0.1030    1.7530 C   0  0  0  0  0  0  0  0  0  0  0  0
    8.6730   -0.4580    2.1590 C   0  0  0  0  0  0  0  0  0  0  0  0
    8.7700   -1.8890    1.7840 C   0  0  0  0  0  0  0  0  0  0  0  0
    7.6550   -2.2530    1.2710 N   0  0  0  0  0  0  0  0  0  0  0  0
    4.8820   -2.4360    0.2010 C   0  0  0  0  0  0  0  0  0  0  0  0
    3.6010   -2.5180   -0.2930 C   0  0  0  0  0  0  0  0  0  0  0  0
   -0.6760   -0.7710   -0.3200 C   0  0  0  0  0  0  0  0  0  0  0  0
  1  2  2  0
  2  3  1  0
  3  4  2  3
  3  7  1  0
  4  5  1  0
  5  6  2  0
  7  8  1  0
  8  9  1  0
  9 10  1  0
 10 11  2  0
 10 12  1  0
 12 13  2  0
 12 32  1  0
 13 14  1  0
 14 15  2  0
 15 16  1  0
 15 19  1  0
 16 17  1  0
 17 18  1  0
 19 20  1  0
 19 32  2  0
 20 21  1  0
 21 22  2  0
 21 31  1  0
 22 23  1  0
 23 24  2  0
 24 25  1  0
 24 30  1  0
 25 26  2  0
 25 29  1  0
 26 27  1  0
 27 28  1  0
 28 29  2  0
 30 31  2  0
M  END
