
     RDKit          3D

 32 34  0  0  0  0  0  0  0  0999 V2000
   -0.9930    3.8610   -1.0600 C   0  0  0  0  0  0  0  0  0  0  0  0
   -2.3910    3.5570   -0.5540 C   0  0  0  0  0  0  0  0  0  0  0  0
   -2.5660    2.1630   -0.1680 C   0  0  0  0  0  0  0  0  0  0  0  0
   -1.4870    1.2890   -0.2830 C   0  0  0  0  0  0  0  0  0  0  0  0
   -1.5540   -0.0410    0.0560 C   0  0  0  0  0  0  0  0  0  0  0  0
   -0.4890   -0.9730   -0.0360 N   0  0  0  0  0  0  0  0  0  0  0  0
    0.8080   -0.7340   -0.5020 C   0  0  0  0  0  0  0  0  0  0  0  0
    1.1440    0.3940   -0.8990 O   0  0  0  0  0  0  0  0  0  0  0  0
    1.8130   -1.8410   -0.5290 C   0  0  0  0  0  0  0  0  0  0  0  0
    3.1080   -1.3730   -1.0630 C   0  0  0  0  0  0  0  0  0  0  0  0
    3.5760   -1.3930   -2.3690 C   0  0  0  0  0  0  0  0  0  0  0  0
    4.7940   -0.8680   -2.3820 O   0  0  0  0  0  0  0  0  0  0  0  0
    5.1480   -0.5110   -1.1850 C   0  0  0  0  0  0  0  0  0  0  0  0
    6.4300    0.1140   -0.7730 C   0  0  2  0  0  0  0  0  0  0  0  0
    7.0640   -0.7330    0.3000 C   0  0  0  0  0  0  0  0  0  0  0  0
    6.1290    1.5060   -0.2380 C   0  0  0  0  0  0  0  0  0  0  0  0
    7.3380    2.2190    0.2030 C   0  0  0  0  0  0  0  0  0  0  0  0
    7.6300    2.3920    1.6660 C   0  0  0  0  0  0  0  0  0  0  0  0
    8.1110    2.6740   -0.6200 O   0  0  0  0  0  0  0  0  0  0  0  0
    4.1090   -0.8130   -0.3170 C   0  0  0  0  0  0  0  0  0  0  0  0
   -2.7910   -0.5090    0.5400 C   0  0  0  0  0  0  0  0  0  0  0  0
   -2.9060   -1.8400    0.8950 O   0  0  0  0  0  0  0  0  0  0  0  0
   -4.0280   -2.5000    1.3720 C   0  0  0  0  0  0  0  0  0  0  0  0
   -5.1730   -2.5520    0.4180 C   0  0  0  0  0  0  0  0  0  0  0  0
   -5.2390   -2.0810   -0.8700 C   0  0  0  0  0  0  0  0  0  0  0  0
   -6.4180   -2.3500   -1.3690 O   0  0  0  0  0  0  0  0  0  0  0  0
   -7.1560   -2.9780   -0.4890 C   0  0  0  0  0  0  0  0  0  0  0  0
   -6.4180   -3.1340    0.6610 C   0  0  0  0  0  0  0  0  0  0  0  0
   -6.8460   -3.7840    1.9080 C   0  0  0  0  0  0  0  0  0  0  0  0
   -3.8470    0.3620    0.6490 C   0  0  0  0  0  0  0  0  0  0  0  0
   -3.7730    1.7120    0.3040 C   0  0  0  0  0  0  0  0  0  0  0  0
   -4.9640    2.5740    0.4560 C   0  0  0  0  0  0  0  0  0  0  0  0
  1  2  1  0
  2  3  1  0
  3  4  2  0
  3 31  1  0
  4  5  1  0
  5  6  1  0
  5 21  2  0
  6  7  1  0
  7  8  2  0
  7  9  1  0
  9 10  1  0
 10 11  2  0
 10 20  1  0
 11 12  1  0
 12 13  1  0
 13 14  1  0
 13 20  2  0
 14 15  1  1
 14 16  1  0
 16 17  1  0
 17 18  1  0
 17 19  2  0
 21 22  1  0
 21 30  1  0
 22 23  1  0
 23 24  1  0
 24 25  2  0
 24 28  1  0
 25 26  1  0
 26 27  1  0
 27 28  2  0
 28 29  1  0
 30 31  2  0
 31 32  1  0
M  END
