
     RDKit          3D

 33 36  0  0  0  0  0  0  0  0999 V2000
   -2.5160    5.6630    1.7370 C   0  0  0  0  0  0  0  0  0  0  0  0
   -2.6780    5.5290    0.2740 C   0  0  0  0  0  0  0  0  0  0  0  0
   -2.9450    4.3530   -0.2550 C   0  0  0  0  0  0  0  0  0  0  0  0
   -3.0840    3.1620    0.6000 C   0  0  0  0  0  0  0  0  0  0  0  0
   -2.1790    2.1490    0.3100 O   0  0  0  0  0  0  0  0  0  0  0  0
   -0.8310    2.1510    0.3230 C   0  0  0  0  0  0  0  0  0  0  0  0
   -0.2750    3.2500    0.6500 O   0  0  0  0  0  0  0  0  0  0  0  0
    0.0070    1.0230   -0.0020 C   0  0  0  0  0  0  0  0  0  0  0  0
    1.4100    1.2070    0.0090 C   0  0  0  0  0  0  0  0  0  0  0  0
    2.2920    0.2030   -0.3230 C   0  0  0  0  0  0  0  0  0  0  0  0
    1.7900   -1.0150   -0.6760 C   0  0  0  0  0  0  0  0  0  0  0  0
    0.4200   -1.1880   -0.6830 C   0  0  0  0  0  0  0  0  0  0  0  0
   -0.5010   -0.2030   -0.3550 C   0  0  0  0  0  0  0  0  0  0  0  0
   -1.8860   -0.4870   -0.3370 N   0  0  0  0  0  0  0  0  0  0  0  0
   -2.5240   -1.6340   -0.8480 C   0  0  0  0  0  0  0  0  0  0  0  0
   -1.9060   -2.5450   -1.3920 O   0  0  0  0  0  0  0  0  0  0  0  0
   -4.0260   -1.7830   -0.7380 C   0  0  2  0  0  0  0  0  0  0  0  0
   -4.3730   -1.7720    0.7220 C   0  0  0  0  0  0  0  0  0  0  0  0
   -5.5390   -2.6450    1.0740 C   0  0  0  0  0  0  0  0  0  0  0  0
   -6.5350   -2.7600   -0.0670 C   0  0  0  0  0  0  0  0  0  0  0  0
   -5.7810   -3.3180   -1.2280 C   0  0  0  0  0  0  0  0  0  0  0  0
   -6.3860   -4.0410   -2.0680 O   0  0  0  0  0  0  0  0  0  0  0  0
   -4.4370   -3.0050   -1.3160 O   0  0  0  0  0  0  0  0  0  0  0  0
    2.7310   -2.1110   -1.0710 C   0  0  0  0  0  0  0  0  0  0  0  0
    2.4000   -3.3690   -1.4160 C   0  0  0  0  0  0  0  0  0  0  0  0
    3.4460   -4.2450   -1.7240 C   0  0  0  0  0  0  0  0  0  0  0  0
    4.8770   -3.1930   -1.4960 S   0  0  0  0  0  0  0  0  0  0  0  0
    4.0300   -1.7490   -1.0360 C   0  0  0  0  0  0  0  0  0  0  0  0
    4.6500   -0.4750   -0.7270 C   0  0  2  0  0  0  0  0  0  0  0  0
    5.7610   -0.7070    0.2660 C   0  0  0  0  0  0  0  0  0  0  0  0
    6.5090    0.5170    0.6700 C   0  0  0  0  0  0  0  0  0  0  0  0
    7.6110    0.2090    1.6630 C   0  0  0  0  0  0  0  0  0  0  0  0
    3.7250    0.5530   -0.2300 C   0  0  0  0  0  0  0  0  0  0  0  0
  1  2  1  0
  2  3  2  3
  3  4  1  0
  4  5  1  0
  5  6  1  0
  6  7  2  0
  6  8  1  0
  8  9  2  0
  8 13  1  0
  9 10  1  0
 10 11  2  0
 10 33  1  0
 11 12  1  0
 11 24  1  0
 12 13  2  0
 13 14  1  0
 14 15  1  0
 15 16  2  0
 17 15  1  1
 17 18  1  0
 17 23  1  0
 18 19  1  0
 19 20  1  0
 20 21  1  0
 21 22  2  0
 21 23  1  0
 24 25  1  0
 24 28  2  0
 25 26  2  0
 26 27  1  0
 27 28  1  0
 28 29  1  0
 29 30  1  1
 29 33  1  0
 30 31  1  0
 31 32  1  0
M  END
