
     RDKit          3D

 33 35  0  0  0  0  0  0  0  0999 V2000
   -0.0520    1.3210    3.0680 C   0  0  0  0  0  0  0  0  0  0  0  0
    0.7390    1.8520    2.0780 O   0  0  0  0  0  0  0  0  0  0  0  0
   -0.0070    2.1890    0.9850 C   0  0  1  0  0  0  0  0  0  0  0  0
    0.0360    3.5420    0.6700 O   0  0  0  0  0  0  0  0  0  0  0  0
   -0.2910    3.8220   -0.6330 C   0  0  2  0  0  0  0  0  0  0  0  0
   -0.9750    5.1940   -0.6370 C   0  0  0  0  0  0  0  0  0  0  0  0
   -2.1280    5.1590    0.1600 O   0  0  0  0  0  0  0  0  0  0  0  0
   -1.2820    2.8550   -1.2350 C   0  0  1  0  0  0  0  0  0  0  0  0
   -1.5140    3.2590   -2.5470 O   0  0  0  0  0  0  0  0  0  0  0  0
   -0.7890    1.4240   -1.1630 C   0  0  2  0  0  0  0  0  0  0  0  0
   -1.7550    0.6940   -0.4640 O   0  0  0  0  0  0  0  0  0  0  0  0
   -2.2280   -0.3910   -1.1510 C   0  0  1  0  0  0  0  0  0  0  0  0
   -1.8770   -1.5400   -0.4310 O   0  0  0  0  0  0  0  0  0  0  0  0
   -2.6610   -1.6280    0.7420 C   0  0  2  0  0  0  0  0  0  0  0  0
   -2.0090   -2.5660    1.7240 C   0  0  0  0  0  0  0  0  0  0  0  0
   -4.0020   -2.2230    0.3460 C   0  0  2  0  0  0  0  0  0  0  0  0
   -3.9380   -3.6230    0.4370 O   0  0  0  0  0  0  0  0  0  0  0  0
   -4.2680   -1.8180   -1.0810 C   0  0  0  0  0  0  0  0  0  0  0  0
   -3.7400   -0.4040   -1.2720 C   0  0  1  0  0  0  0  0  0  0  0  0
   -4.3420    0.3890   -0.3040 O   0  0  0  0  0  0  0  0  0  0  0  0
    0.4470    1.4490   -0.2790 C   0  0  2  0  0  0  0  0  0  0  0  0
    0.8600    0.1680   -0.0150 O   0  0  0  0  0  0  0  0  0  0  0  0
    2.1650   -0.0770   -0.4250 C   0  0  1  0  0  0  0  0  0  0  0  0
    2.9250   -0.3500    0.6900 O   0  0  0  0  0  0  0  0  0  0  0  0
    3.3330   -1.6560    0.7940 C   0  0  2  0  0  0  0  0  0  0  0  0
    4.2100   -1.7480    2.0510 C   0  0  0  0  0  0  0  0  0  0  0  0
    4.6480   -3.0690    2.1930 O   0  0  0  0  0  0  0  0  0  0  0  0
    4.1970   -2.1070   -0.3550 C   0  0  2  0  0  0  0  0  0  0  0  0
    5.5180   -1.7080   -0.0660 O   0  0  0  0  0  0  0  0  0  0  0  0
    3.7310   -1.4790   -1.6500 C   0  0  2  0  0  0  0  0  0  0  0  0
    4.4130   -0.2570   -1.7760 O   0  0  0  0  0  0  0  0  0  0  0  0
    2.2530   -1.1530   -1.4800 C   0  0  1  0  0  0  0  0  0  0  0  0
    1.5140   -2.2800   -1.1580 O   0  0  0  0  0  0  0  0  0  0  0  0
  1  2  1  0
  3  2  1  1
  3  4  1  0
  3 21  1  0
  4  5  1  0
  5  6  1  1
  5  8  1  0
  6  7  1  0
  8  9  1  6
  8 10  1  0
 10 11  1  1
 10 21  1  0
 12 11  1  1
 12 13  1  0
 12 19  1  0
 13 14  1  0
 14 15  1  1
 14 16  1  0
 16 17  1  6
 16 18  1  0
 18 19  1  0
 19 20  1  1
 21 22  1  1
 23 22  1  1
 23 24  1  0
 23 32  1  0
 24 25  1  0
 25 26  1  1
 25 28  1  0
 26 27  1  0
 28 29  1  1
 28 30  1  0
 30 31  1  1
 30 32  1  0
 32 33  1  1
M  END
