
     RDKit          3D

 15 15  0  0  0  0  0  0  0  0999 V2000
    3.9680    1.0830    0.6880 C   0  0  0  0  0  0  0  0  0  0  0  0
    3.3290    0.6880   -0.6060 C   0  0  0  0  0  0  0  0  0  0  0  0
    2.1800   -0.1220   -0.4400 O   0  0  0  0  0  0  0  0  0  0  0  0
    1.0550    0.2490    0.2400 C   0  0  0  0  0  0  0  0  0  0  0  0
    1.0340    1.3990    0.7610 O   0  0  0  0  0  0  0  0  0  0  0  0
   -0.1440   -0.6070    0.4080 C   0  0  2  0  0  0  0  0  0  0  0  0
    0.0640   -1.8810   -0.2530 N   0  0  0  0  0  0  0  0  0  0  0  0
   -1.3940    0.0010   -0.1110 C   0  0  2  0  0  0  0  0  0  0  0  0
   -1.8510    1.1920    0.6280 C   0  0  0  0  0  0  0  0  0  0  0  0
   -2.0270    1.2610    2.0190 N   0  0  0  0  0  0  0  0  0  0  0  0
   -2.1020    2.2270   -0.0430 O   0  0  0  0  0  0  0  0  0  0  0  0
   -2.5210   -1.0280   -0.0160 C   0  0  0  0  0  0  0  0  0  0  0  0
   -3.3440   -0.6790   -1.1120 O   0  0  0  0  0  0  0  0  0  0  0  0
   -2.3870   -0.3860   -2.0780 C   0  0  0  0  0  0  0  0  0  0  0  0
   -1.3070    0.2030   -1.4650 O   0  0  0  0  0  0  0  0  0  0  0  0
  1  2  1  0
  2  3  1  0
  3  4  1  0
  4  5  2  0
  4  6  1  0
  6  7  1  6
  6  8  1  0
  8  9  1  1
  8 12  1  0
  8 15  1  0
  9 10  1  0
  9 11  2  0
 12 13  1  0
 13 14  1  0
 14 15  1  0
M  CHG  1   7   1
M  END
