
     RDKit          3D

 15 15  0  0  0  0  0  0  0  0999 V2000
   -2.2660    1.1580   -1.3030 N   0  0  0  0  0  0  0  0  0  0  0  0
   -2.5100   -0.1870   -0.8670 C   0  0  0  0  0  0  0  0  0  0  0  0
   -2.8100   -0.2460    0.6110 C   0  0  2  0  0  0  0  0  0  0  0  0
   -3.9500    0.5370    0.8220 O   0  0  0  0  0  0  0  0  0  0  0  0
   -1.7170    0.3700    1.4270 C   0  0  1  0  0  0  0  0  0  0  0  0
   -2.1930    0.5030    2.7560 O   0  0  0  0  0  0  0  0  0  0  0  0
   -0.4590   -0.2660    1.3650 N   0  0  0  0  0  0  0  0  0  0  0  0
    0.6990    0.4210    0.9370 C   0  0  0  0  0  0  0  0  0  0  0  0
    0.5580    1.6230    0.6160 O   0  0  0  0  0  0  0  0  0  0  0  0
    2.0440   -0.2380    0.8640 C   0  0  1  0  0  0  0  0  0  0  0  0
    1.9190   -1.4740    0.0280 C   0  0  0  0  0  0  0  0  0  0  0  0
    1.9800   -1.2280   -1.3370 O   0  0  0  0  0  0  0  0  0  0  0  0
    3.0030   -0.3800   -1.6920 C   0  0  0  0  0  0  0  0  0  0  0  0
    3.8400    0.0080   -0.5000 C   0  0  0  0  0  0  0  0  0  0  0  0
    3.0120    0.6370    0.4190 O   0  0  0  0  0  0  0  0  0  0  0  0
  1  2  1  0
  2  3  1  0
  3  4  1  6
  3  5  1  0
  5  6  1  1
  5  7  1  0
  7  8  1  0
  8  9  2  0
 10  8  1  6
 10 11  1  0
 10 15  1  0
 11 12  1  0
 12 13  1  0
 13 14  1  0
 14 15  1  0
M  CHG  1   1   1
M  END
