
     RDKit          3D

 13 13  0  0  0  0  0  0  0  0999 V2000
    1.5080    1.5890   -0.2450 O   0  0  0  0  0  0  0  0  0  0  0  0
    2.4430    0.7950   -0.4000 C   0  0  0  0  0  0  0  0  0  0  0  0
    3.6910    1.4060   -0.7090 O   0  0  0  0  0  0  0  0  0  0  0  0
    2.4430   -0.6390   -0.3120 C   0  0  0  0  0  0  0  0  0  0  0  0
    3.6370   -1.3210   -0.5570 F   0  0  0  0  0  0  0  0  0  0  0  0
    1.3720   -1.3030   -0.0150 C   0  0  0  0  0  0  0  0  0  0  0  0
    0.1140   -0.6730    0.2570 C   0  0  0  0  0  0  0  0  0  0  0  0
   -0.9360   -1.0320   -0.5810 C   0  0  0  0  0  0  0  0  0  0  0  0
   -2.2130   -0.5620   -0.4250 C   0  0  0  0  0  0  0  0  0  0  0  0
   -2.4870    0.3080    0.6080 C   0  0  0  0  0  0  0  0  0  0  0  0
   -3.7780    0.7910    0.7750 O   0  0  0  0  0  0  0  0  0  0  0  0
   -1.4480    0.6600    1.4350 C   0  0  0  0  0  0  0  0  0  0  0  0
   -0.1620    0.1940    1.2860 C   0  0  0  0  0  0  0  0  0  0  0  0
  1  2  2  0
  2  3  1  0
  2  4  1  0
  4  5  1  0
  4  6  2  3
  6  7  1  0
  7  8  2  0
  7 13  1  0
  8  9  1  0
  9 10  2  0
 10 11  1  0
 10 12  1  0
 12 13  2  0
M  END
