
     RDKit          3D

 15 15  0  0  0  0  0  0  0  0999 V2000
    4.3420    1.4690    0.9840 N   0  0  0  0  0  0  0  0  0  0  0  0
    3.4320    0.7340    0.4310 C   0  0  0  0  0  0  0  0  0  0  0  0
    3.3150    0.6900   -0.9410 O   0  0  0  0  0  0  0  0  0  0  0  0
    2.5320   -0.0490    1.2930 C   0  0  0  0  0  0  0  0  0  0  0  0
    1.1970    0.2830    1.2270 O   0  0  0  0  0  0  0  0  0  0  0  0
    0.6040    0.0980    0.0210 C   0  0  2  0  0  0  0  0  0  0  0  0
    0.1450    1.3950   -0.5990 C   0  0  0  0  0  0  0  0  0  0  0  0
    0.8280    2.4650   -0.4520 O   0  0  0  0  0  0  0  0  0  0  0  0
   -1.0380    1.3380   -1.3160 O   0  0  0  0  0  0  0  0  0  0  0  0
   -2.2310    0.8320   -0.7460 C   0  0  1  0  0  0  0  0  0  0  0  0
   -2.9890   -0.0710   -1.6770 C   0  0  0  0  0  0  0  0  0  0  0  0
   -4.1330   -0.4970   -1.0020 O   0  0  0  0  0  0  0  0  0  0  0  0
   -1.7900    0.0780    0.5140 C   0  0  0  0  0  0  0  0  0  0  0  0
   -0.6300   -0.7840    0.0850 C   0  0  2  0  0  0  0  0  0  0  0  0
   -0.4690   -1.8580    1.0440 N   0  0  0  0  0  0  0  0  0  0  0  0
  1  2  2  0
  2  3  1  0
  2  4  1  0
  4  5  1  0
  6  5  1  1
  6  7  1  0
  6 14  1  0
  7  8  2  0
  7  9  1  0
  9 10  1  0
 10 11  1  6
 10 13  1  0
 11 12  1  0
 13 14  1  0
 14 15  1  1
M  CHG  1  15   1
M  END
