
     RDKit          3D

 14 14  0  0  0  0  0  0  0  0999 V2000
    3.9130    1.2370    0.7800 C   0  0  0  0  0  0  0  0  0  0  0  0
    3.0800    0.1920    0.1930 N   0  0  0  0  0  0  0  0  0  0  0  0
    1.7410    0.3530    0.6890 C   0  0  0  0  0  0  0  0  0  0  0  0
    0.8880   -0.8870    0.4890 C   0  0  2  0  0  0  0  0  0  0  0  0
    0.7460   -1.2200   -0.9820 C   0  0  0  0  0  0  0  0  0  0  0  0
   -0.6800   -0.6920   -1.2290 C   0  0  0  0  0  0  0  0  0  0  0  0
   -1.2960   -1.0990    0.0920 C   0  0  2  0  0  0  0  0  0  0  0  0
   -2.6800   -0.6030    0.3090 C   0  0  1  0  0  0  0  0  0  0  0  0
   -3.0660   -1.0380    1.6620 N   0  0  0  0  0  0  0  0  0  0  0  0
   -2.8500    0.8480    0.1520 C   0  0  0  0  0  0  0  0  0  0  0  0
   -3.2460    1.5310    1.1290 O   0  0  0  0  0  0  0  0  0  0  0  0
   -2.5830    1.4620   -1.0490 O   0  0  0  0  0  0  0  0  0  0  0  0
   -2.7310    2.7910   -1.2190 O   0  0  0  0  0  0  0  0  0  0  0  0
   -0.3610   -0.6170    0.9980 O   0  0  0  0  0  0  0  0  0  0  0  0
  1  2  1  0
  2  3  1  0
  4  3  1  6
  4  5  1  0
  4 14  1  0
  5  6  1  0
  7  6  1  6
  7  8  1  0
  7 14  1  0
  8  9  1  1
  8 10  1  0
 10 11  2  0
 10 12  1  0
 12 13  1  0
M  CHG  1   2   1
M  END
