
     RDKit          3D

 15 15  0  0  0  0  0  0  0  0999 V2000
    2.6310    1.2710   -0.7700 C   0  0  0  0  0  0  0  0  0  0  0  0
    2.9760    0.0620    0.0860 C   0  0  2  0  0  0  0  0  0  0  0  0
    4.2210   -0.3780   -0.3530 O   0  0  0  0  0  0  0  0  0  0  0  0
    1.9460   -0.9840   -0.0060 C   0  0  0  0  0  0  0  0  0  0  0  0
    2.2590   -2.1100   -0.4620 O   0  0  0  0  0  0  0  0  0  0  0  0
    0.5940   -0.7830    0.4010 N   0  0  0  0  0  0  0  0  0  0  0  0
   -0.4840   -1.7050    0.3580 C   0  0  0  0  0  0  0  0  0  0  0  0
   -0.3700   -2.9370    0.1230 O   0  0  0  0  0  0  0  0  0  0  0  0
   -1.7200   -0.9640    0.6320 C   0  0  2  0  0  0  0  0  0  0  0  0
   -2.7680   -1.2400   -0.3230 N   0  0  0  0  0  0  0  0  0  0  0  0
   -1.3640    0.4660    0.7610 C   0  0  2  0  0  0  0  0  0  0  0  0
   -1.7000    1.3440   -0.3920 C   0  0  0  0  0  0  0  0  0  0  0  0
   -3.0710    1.3450   -0.6450 O   0  0  0  0  0  0  0  0  0  0  0  0
    0.1250    0.4520    0.9370 C   0  0  0  0  0  0  0  0  0  0  0  0
    0.7570    1.3990    1.4690 O   0  0  0  0  0  0  0  0  0  0  0  0
  2  1  1  6
  2  3  1  0
  2  4  1  0
  4  5  2  0
  4  6  1  0
  6  7  1  0
  6 14  1  0
  7  8  2  0
  7  9  1  0
  9 10  1  6
  9 11  1  0
 11 12  1  6
 11 14  1  0
 12 13  1  0
 14 15  2  0
M  CHG  1  10   1
M  END
