
     RDKit          3D

 14 14  0  0  0  0  0  0  0  0999 V2000
   -4.4840    1.9570   -0.9790 N   0  0  0  0  0  0  0  0  0  0  0  0
   -3.5080    1.1930   -1.5000 O   0  0  0  0  0  0  0  0  0  0  0  0
   -2.9410    0.3180   -0.6270 C   0  0  1  0  0  0  0  0  0  0  0  0
   -3.0620   -1.0160   -0.9690 O   0  0  0  0  0  0  0  0  0  0  0  0
   -1.4640    0.6670   -0.3550 C   0  0  0  0  0  0  0  0  0  0  0  0
   -0.8990   -0.3420    0.6210 C   0  0  1  0  0  0  0  0  0  0  0  0
   -0.9570   -1.6330    0.1200 O   0  0  0  0  0  0  0  0  0  0  0  0
    0.3420    0.0520    1.3010 C   0  0  2  0  0  0  0  0  0  0  0  0
    0.2110    1.3980    1.7090 O   0  0  0  0  0  0  0  0  0  0  0  0
    1.6460   -0.1440    0.7150 C   0  0  1  0  0  0  0  0  0  0  0  0
    1.9950   -1.5230    0.2220 C   0  0  0  0  0  0  0  0  0  0  0  0
    3.4480   -1.2660   -0.1530 C   0  0  0  0  0  0  0  0  0  0  0  0
    3.3030    0.0560   -0.8770 C   0  0  0  0  0  0  0  0  0  0  0  0
    2.0220    0.6350   -0.4370 N   0  0  0  0  0  0  0  0  0  0  0  0
  1  2  1  0
  2  3  1  0
  3  4  1  6
  3  5  1  0
  5  6  1  0
  6  7  1  6
  6  8  1  0
  8  9  1  6
  8 10  1  0
 10 11  1  6
 10 14  1  0
 11 12  1  0
 12 13  1  0
 13 14  1  0
M  CHG  1  14   1
M  END
