
     RDKit          3D

 15 15  0  0  0  0  0  0  0  0999 V2000
    4.2480   -0.6350   -1.7950 C   0  0  0  0  0  0  0  0  0  0  0  0
    2.9840   -1.1100   -1.3710 O   0  0  0  0  0  0  0  0  0  0  0  0
    2.0100   -0.2330   -0.8590 C   0  0  0  0  0  0  0  0  0  0  0  0
    2.2890    0.9690   -0.7880 O   0  0  0  0  0  0  0  0  0  0  0  0
    0.7480   -0.6870   -0.4330 N   0  0  0  0  0  0  0  0  0  0  0  0
   -0.2980    0.1640    0.1050 C   0  0  1  0  0  0  0  0  0  0  0  0
    0.1440    0.8680    1.3500 C   0  0  0  0  0  0  0  0  0  0  0  0
   -0.8230    1.7340    1.9540 N   0  0  0  0  0  0  0  0  0  0  0  0
   -0.7380    1.1820   -0.8680 C   0  0  0  0  0  0  0  0  0  0  0  0
   -0.0750    1.8120   -1.7380 O   0  0  0  0  0  0  0  0  0  0  0  0
   -2.0950    1.3610   -0.6720 O   0  0  0  0  0  0  0  0  0  0  0  0
   -2.6390    0.2940    0.0770 C   0  0  0  0  0  0  0  0  0  0  0  0
   -1.5330   -0.6730    0.2430 C   0  0  2  0  0  0  0  0  0  0  0  0
   -1.5900   -1.4900    1.4980 C   0  0  0  0  0  0  0  0  0  0  0  0
   -1.5520   -1.5360   -0.8640 O   0  0  0  0  0  0  0  0  0  0  0  0
  1  2  1  0
  2  3  1  0
  3  4  2  0
  3  5  1  0
  5  6  1  0
  6  7  1  1
  6  9  1  0
  6 13  1  0
  7  8  1  0
  9 10  2  0
  9 11  1  0
 11 12  1  0
 12 13  1  0
 13 14  1  1
 13 15  1  0
M  CHG  1   8   1
M  END
