
     RDKit          3D

 15 15  0  0  0  0  0  0  0  0999 V2000
    4.3100    0.0410    1.2230 N   0  0  0  0  0  0  0  0  0  0  0  0
    3.2410   -0.1630    0.3000 C   0  0  2  0  0  0  0  0  0  0  0  0
    2.6310    1.1320   -0.2080 C   0  0  0  0  0  0  0  0  0  0  0  0
    1.3230    0.6520   -0.7770 C   0  0  0  0  0  0  0  0  0  0  0  0
    0.9560   -0.6160   -0.0500 C   0  0  2  0  0  0  0  0  0  0  0  0
    1.0040   -1.7190   -0.9060 O   0  0  0  0  0  0  0  0  0  0  0  0
   -0.3370   -0.4510    0.5250 N   0  0  0  0  0  0  0  0  0  0  0  0
   -1.4330   -0.1810   -0.3340 C   0  0  0  0  0  0  0  0  0  0  0  0
   -1.2730   -0.0870   -1.5990 O   0  0  0  0  0  0  0  0  0  0  0  0
   -2.7360   -0.0030    0.1210 O   0  0  0  0  0  0  0  0  0  0  0  0
   -3.7900    0.2640   -0.7860 C   0  0  0  0  0  0  0  0  0  0  0  0
   -5.0810    0.4130   -0.0490 C   0  0  0  0  0  0  0  0  0  0  0  0
   -5.3210   -0.7970    0.6300 O   0  0  0  0  0  0  0  0  0  0  0  0
    2.0320   -0.7930    0.9500 C   0  0  0  0  0  0  0  0  0  0  0  0
    2.0130   -1.3060    2.0350 O   0  0  0  0  0  0  0  0  0  0  0  0
  2  1  1  1
  2  3  1  0
  2 14  1  0
  3  4  1  0
  4  5  1  0
  5  6  1  6
  5  7  1  0
  5 14  1  0
  7  8  1  0
  8  9  2  0
  8 10  1  0
 10 11  1  0
 11 12  1  0
 12 13  1  0
 14 15  2  0
M  CHG  1   1   1
M  END
