
     RDKit          3D

 32 33  0  0  0  0  0  0  0  0999 V2000
    5.6920    2.8800   -1.4190 N   0  0  0  0  0  0  0  0  0  0  0  0
    5.0340    2.3810   -0.1600 S   0  0  0  0  0  0  0  0  0  0  0  0
    4.1110    0.9700   -0.1750 N   0  0  0  0  0  0  0  0  0  0  0  0
    2.8050    0.8500    0.0160 C   0  0  0  0  0  0  0  0  0  0  0  0
    2.2830   -0.4160   -0.0700 N   0  0  0  0  0  0  0  0  0  0  0  0
    2.9820   -1.6600   -0.0430 C   0  0  0  0  0  0  0  0  0  0  0  0
    3.9670   -2.1200   -1.0190 C   0  0  0  0  0  0  0  0  0  0  0  0
    4.2060   -3.4890   -0.5740 O   0  0  0  0  0  0  0  0  0  0  0  0
    5.7960   -3.7240    0.0100 P   0  0  0  0  0  0  0  0  0  0  0  0
    0.8490   -0.6910    0.0450 C   0  0  0  0  0  0  0  0  0  0  0  0
    0.4170   -1.8390   -0.2560 N   0  0  0  0  0  0  0  0  0  0  0  0
   -1.3840   -2.1760   -0.1630 P   0  0  0  0  0  0  0  0  0  0  0  0
   -1.7240   -3.7370   -0.8810 O   0  0  0  0  0  0  0  0  0  0  0  0
   -2.0870   -0.9000   -1.1370 O   0  0  0  0  0  0  0  0  0  0  0  0
   -3.3980   -0.8750   -1.0680 N   0  0  0  0  0  0  0  0  0  0  0  0
   -4.0830   -0.6360   -2.2870 C   0  0  0  0  0  0  0  0  0  0  0  0
   -3.6010    0.5800   -2.8490 O   0  0  0  0  0  0  0  0  0  0  0  0
   -4.1270   -1.8610    0.1590 P   0  0  0  0  0  0  0  0  0  0  0  0
   -4.7550   -0.8410    1.5420 C   0  0  0  0  0  0  0  0  0  0  0  0
   -4.9940    0.9100    1.1300 P   0  0  0  0  0  0  0  0  0  0  0  0
   -6.1390    1.6170    2.1760 O   0  0  0  0  0  0  0  0  0  0  0  0
   -3.6340    1.8750    0.5410 C   0  0  0  0  0  0  0  0  0  0  0  0
   -2.3660    1.7670    1.1180 O   0  0  0  0  0  0  0  0  0  0  0  0
   -1.6360    3.3030    1.0040 S   0  0  0  0  0  0  0  0  0  0  0  0
    0.1230    3.2680    0.6990 C   0  0  0  0  0  0  0  0  0  0  0  0
    0.7820    4.4540    0.6400 F   0  0  0  0  0  0  0  0  0  0  0  0
    0.7680    2.1440    0.5230 C   0  0  0  0  0  0  0  0  0  0  0  0
    2.1530    2.0990    0.2740 N   0  0  0  0  0  0  0  0  0  0  0  0
    3.1910    3.6040    0.1680 P   0  0  0  0  0  0  0  0  0  0  0  0
    2.9450    5.0100    0.5060 O   0  0  0  0  0  0  0  0  0  0  0  0
   -0.2080    0.6410    0.6700 P   0  0  0  0  0  0  0  0  0  0  0  0
   -0.5310    0.3370    2.4080 O   0  0  0  0  0  0  0  0  0  0  0  0
  1  2  2  0
  2  3  1  0
  3  4  2  3
  4  5  1  0
  4 28  1  0
  5  6  1  0
  5 10  1  0
  6  7  1  0
  7  8  1  0
  8  9  1  0
 10 11  2  0
 10 31  1  0
 11 12  1  0
 12 13  1  0
 12 14  1  0
 14 15  1  0
 15 16  1  0
 15 18  1  0
 16 17  1  0
 18 19  1  0
 19 20  1  0
 20 21  1  0
 20 22  1  0
 22 23  1  0
 23 24  1  0
 24 25  1  0
 25 26  1  0
 25 27  2  0
 27 28  1  0
 27 31  1  0
 28 29  1  0
 29 30  2  0
 31 32  1  0
M  END
