
     RDKit          3D

 32 33  0  0  0  0  0  0  0  0999 V2000
   -7.2730    2.3260   -1.3230 C   0  0  0  0  0  0  0  0  0  0  0  0
   -5.9510    1.5010   -1.8720 P   0  0  0  0  0  0  0  0  0  0  0  0
   -3.9420    1.9150   -1.1190 P   0  0  0  0  0  0  0  0  0  0  0  0
   -3.9670    2.8710    0.4710 C   0  0  0  0  0  0  0  0  0  0  0  0
   -5.2570    3.3150    0.7130 O   0  0  0  0  0  0  0  0  0  0  0  0
   -2.9670    0.4660   -0.9880 O   0  0  0  0  0  0  0  0  0  0  0  0
   -2.7580   -0.2150    0.1950 C   0  0  0  0  0  0  0  0  0  0  0  0
   -4.0470   -0.4490    1.2010 P   0  0  0  0  0  0  0  0  0  0  0  0
   -5.6280    0.1380    0.7980 O   0  0  0  0  0  0  0  0  0  0  0  0
   -1.4400   -0.7090    0.5400 C   0  0  2  0  0  0  0  0  0  0  0  0
   -1.4940   -1.3510    1.7670 F   0  0  0  0  0  0  0  0  0  0  0  0
   -0.5070    0.3830    0.6900 N   0  0  0  0  0  0  0  0  0  0  0  0
    0.8260    0.0330    1.0050 C   0  0  2  0  0  0  0  0  0  0  0  0
    1.3680    1.0640    1.7970 O   0  0  0  0  0  0  0  0  0  0  0  0
    1.8650    0.0200   -0.5630 P   0  0  0  0  0  0  0  0  0  0  0  0
    3.6210   -0.0600   -0.1260 C   0  0  0  0  0  0  0  0  0  0  0  0
    4.3660    1.1030   -0.0980 O   0  0  0  0  0  0  0  0  0  0  0  0
    4.1250    2.0960   -0.9830 O   0  0  0  0  0  0  0  0  0  0  0  0
    4.3650   -1.4920    0.2420 P   0  0  0  0  0  0  0  0  0  0  0  0
    6.1240   -1.6110    0.6840 C   0  0  0  0  0  0  0  0  0  0  0  0
    6.7890   -0.5190    0.9630 C   0  0  0  0  0  0  0  0  0  0  0  0
    7.4620    0.5810    0.8880 N   0  0  0  0  0  0  0  0  0  0  0  0
    7.7810    1.0920   -0.4490 C   0  0  0  0  0  0  0  0  0  0  0  0
    1.0230   -1.1910    1.6050 O   0  0  0  0  0  0  0  0  0  0  0  0
    0.6460   -2.3800    0.3570 P   0  0  0  0  0  0  0  0  0  0  0  0
    0.3910   -4.2950    1.2980 P   0  0  0  0  0  0  0  0  0  0  0  0
   -0.8540   -1.6850   -0.4350 C   0  0  2  0  0  0  0  0  0  0  0  0
   -0.6220   -1.1380   -1.7130 O   0  0  0  0  0  0  0  0  0  0  0  0
   -0.6890   -1.9660   -2.7400 N   0  0  0  0  0  0  0  0  0  0  0  0
   -1.3680   -3.0140   -2.6710 N   0  0  0  0  0  0  0  0  0  0  0  0
   -2.0730   -2.9770   -0.9880 P   0  0  0  0  0  0  0  0  0  0  0  0
   -1.8850   -4.7890   -0.0080 Cl  0  0  0  0  0  0  0  0  0  0  0  0
  1  2  2  0
  2  3  1  0
  3  4  1  0
  3  6  1  0
  4  5  1  0
  6  7  1  0
  7  8  2  3
  7 10  1  0
  8  9  1  0
 10 11  1  1
 10 12  1  0
 10 27  1  0
 12 13  1  0
 13 14  1  1
 13 15  1  0
 13 24  1  0
 15 16  1  0
 16 17  1  0
 16 19  2  3
 17 18  1  0
 19 20  1  0
 20 21  2  0
 21 22  2  0
 22 23  1  0
 24 25  1  0
 25 26  1  0
 25 27  1  0
 27 28  1  6
 27 31  1  0
 28 29  1  0
 29 30  2  0
 30 31  1  0
 31 32  1  0
M  END
