
     RDKit          3D

 31 33  0  0  0  0  0  0  0  0999 V2000
    5.3520   -3.5490   -0.3200 N   0  0  0  0  0  0  0  0  0  0  0  0
    4.6450   -2.6950    0.3180 C   0  0  0  0  0  0  0  0  0  0  0  0
    2.9990   -2.2860   -0.3200 P   0  0  0  0  0  0  0  0  0  0  0  0
    2.4250   -0.6320    0.3610 C   0  0  0  0  0  0  0  0  0  0  0  0
    3.0390    0.3780    0.4410 N   0  0  0  0  0  0  0  0  0  0  0  0
    3.4980    1.5900    0.6340 N   0  0  0  0  0  0  0  0  0  0  0  0
    4.2240    1.9060    1.7920 O   0  0  0  0  0  0  0  0  0  0  0  0
    3.3820    2.7370   -0.2480 C   0  0  0  0  0  0  0  0  0  0  0  0
    4.5510    3.3100   -0.7280 F   0  0  0  0  0  0  0  0  0  0  0  0
    2.2460    3.2920   -0.6200 C   0  0  0  0  0  0  0  0  0  0  0  0
    2.2950    4.3850   -1.4750 F   0  0  0  0  0  0  0  0  0  0  0  0
    0.5810    2.7790   -0.0800 P   0  0  0  0  0  0  0  0  0  0  0  0
   -0.0880    4.0550    0.8850 O   0  0  0  0  0  0  0  0  0  0  0  0
   -0.5130    2.3860   -1.3510 O   0  0  0  0  0  0  0  0  0  0  0  0
   -1.8540    2.7120   -1.1560 N   0  0  0  0  0  0  0  0  0  0  0  0
   -2.5400    1.9290   -0.3620 C   0  0  0  0  0  0  0  0  0  0  0  0
   -3.8700    1.9910    0.0250 O   0  0  0  0  0  0  0  0  0  0  0  0
   -4.1370    0.9470    0.8920 C   0  0  0  0  0  0  0  0  0  0  0  0
   -5.7750    0.7140    1.6110 S   0  0  0  0  0  0  0  0  0  0  0  0
   -3.0890    0.2350    1.0750 N   0  0  0  0  0  0  0  0  0  0  0  0
   -1.9510    0.7490    0.3040 C   0  0  1  0  0  0  0  0  0  0  0  0
   -1.6740   -0.2960   -0.7390 C   0  0  2  0  0  0  0  0  0  0  0  0
   -1.9020    0.2610   -2.0020 O   0  0  0  0  0  0  0  0  0  0  0  0
   -1.6690   -0.6340   -2.9860 N   0  0  0  0  0  0  0  0  0  0  0  0
   -2.5440   -1.3910   -0.6570 O   0  0  0  0  0  0  0  0  0  0  0  0
   -2.0830   -2.3630    0.2110 C   0  0  1  0  0  0  0  0  0  0  0  0
   -3.5610   -3.3710    0.7280 P   0  0  0  0  0  0  0  0  0  0  0  0
   -1.1500   -3.2080   -0.2900 O   0  0  0  0  0  0  0  0  0  0  0  0
   -0.1900   -2.7020   -0.9730 O   0  0  0  0  0  0  0  0  0  0  0  0
    0.0170   -0.9960   -0.7350 P   0  0  0  0  0  0  0  0  0  0  0  0
    0.9780   -0.7420    0.8140 C   0  0  0  0  0  0  0  0  0  0  0  0
  1  2  2  0
  2  3  1  0
  3  4  1  0
  4  5  2  0
  4 31  1  0
  5  6  1  0
  6  7  1  0
  6  8  1  0
  8  9  1  0
  8 10  2  0
 10 11  1  0
 10 12  1  0
 12 13  1  0
 12 14  1  0
 14 15  1  0
 15 16  2  0
 16 17  1  0
 16 21  1  0
 17 18  1  0
 18 19  1  0
 18 20  2  0
 21 20  1  1
 21 22  1  0
 22 23  1  6
 22 25  1  0
 22 30  1  0
 23 24  1  0
 25 26  1  0
 26 27  1  6
 26 28  1  0
 28 29  1  0
 29 30  1  0
 30 31  1  0
M  END
