
     RDKit          3D

 32 33  0  0  0  0  0  0  0  0999 V2000
    8.1870   -0.2850    0.0670 C   0  0  0  0  0  0  0  0  0  0  0  0
    7.0830   -0.9310    1.4180 P   0  0  0  0  0  0  0  0  0  0  0  0
    5.8340    0.6980    2.1570 P   0  0  0  0  0  0  0  0  0  0  0  0
    4.1050    0.4170    1.8860 N   0  0  0  0  0  0  0  0  0  0  0  0
    3.3660    1.3390    2.4750 F   0  0  0  0  0  0  0  0  0  0  0  0
    3.6710   -0.0190    0.2490 P   0  0  0  0  0  0  0  0  0  0  0  0
    3.9190    1.1760   -0.9430 O   0  0  0  0  0  0  0  0  0  0  0  0
    4.0260    0.5130   -2.1870 C   0  0  0  0  0  0  0  0  0  0  0  0
    4.2320    1.4130   -3.2280 O   0  0  0  0  0  0  0  0  0  0  0  0
    2.0090   -0.7870    0.1680 C   0  0  0  0  0  0  0  0  0  0  0  0
    2.0310   -1.9930    0.0470 O   0  0  0  0  0  0  0  0  0  0  0  0
    0.4550    0.2110    0.2660 P   0  0  0  0  0  0  0  0  0  0  0  0
    0.5390    1.9290    0.4440 C   0  0  0  0  0  0  0  0  0  0  0  0
    1.6380    2.5040    0.2530 O   0  0  0  0  0  0  0  0  0  0  0  0
   -0.7550    3.0020    0.8700 P   0  0  0  0  0  0  0  0  0  0  0  0
   -0.6170    4.7720    1.0440 N   0  0  0  0  0  0  0  0  0  0  0  0
   -2.6790    2.2610    1.2350 P   0  0  0  0  0  0  0  0  0  0  0  0
   -2.9440    0.1680    1.0560 P   0  0  0  0  0  0  0  0  0  0  0  0
   -1.2710   -1.0130    0.5300 P   0  0  0  0  0  0  0  0  0  0  0  0
   -1.5940   -2.4110   -0.5800 N   0  0  0  0  0  0  0  0  0  0  0  0
   -0.8290   -2.2920   -1.8300 C   0  0  0  0  0  0  0  0  0  0  0  0
   -1.1500   -3.9630    0.1880 S   0  0  0  0  0  0  0  0  0  0  0  0
   -2.0420   -5.2180   -0.6820 N   0  0  0  0  0  0  0  0  0  0  0  0
   -4.6660   -0.2430    0.7210 N   0  0  0  0  0  0  0  0  0  0  0  0
   -5.0310   -1.5610    0.6510 C   0  0  0  0  0  0  0  0  0  0  0  0
   -4.2080   -2.6980    1.0640 C   0  0  0  0  0  0  0  0  0  0  0  0
   -6.1920   -1.8300    0.1930 O   0  0  0  0  0  0  0  0  0  0  0  0
   -5.5220    0.9340    0.6070 C   0  0  0  0  0  0  0  0  0  0  0  0
   -4.8860    2.1520    0.0590 C   0  0  1  0  0  0  0  0  0  0  0  0
   -5.8580    2.8690   -0.6350 O   0  0  0  0  0  0  0  0  0  0  0  0
   -5.5250    2.9990   -1.8940 O   0  0  0  0  0  0  0  0  0  0  0  0
   -4.2560    3.0200    0.9940 O   0  0  0  0  0  0  0  0  0  0  0  0
  1  2  1  0
  2  3  1  0
  3  4  1  0
  4  5  1  0
  4  6  1  0
  6  7  1  0
  6 10  1  0
  7  8  1  0
  8  9  1  0
 10 11  2  0
 10 12  1  0
 12 13  1  0
 12 19  1  0
 13 14  2  0
 13 15  1  0
 15 16  1  0
 15 17  1  0
 17 18  1  0
 17 32  1  0
 18 19  1  0
 18 24  1  0
 19 20  1  0
 20 21  1  0
 20 22  1  0
 22 23  1  0
 24 25  1  0
 24 28  1  0
 25 26  1  0
 25 27  2  0
 28 29  1  0
 29 30  1  1
 29 32  1  0
 30 31  1  0
M  END
