
     RDKit          3D

 31 33  0  0  0  0  0  0  0  0999 V2000
    4.0740    3.2920    1.8080 C   0  0  0  0  0  0  0  0  0  0  0  0
    3.8170    2.4110    0.7640 O   0  0  0  0  0  0  0  0  0  0  0  0
    3.3540    1.2490    1.2320 O   0  0  0  0  0  0  0  0  0  0  0  0
    3.3620    0.1400   -0.0760 P   0  0  0  0  0  0  0  0  0  0  0  0
    4.7460   -0.8770   -0.1110 O   0  0  0  0  0  0  0  0  0  0  0  0
    4.6840   -1.8960    0.8360 C   0  0  0  0  0  0  0  0  0  0  0  0
    1.8920   -0.8860   -0.1280 N   0  0  0  0  0  0  0  0  0  0  0  0
    1.8320   -2.6210    0.2500 S   0  0  0  0  0  0  0  0  0  0  0  0
    0.3160   -2.8570   -0.6070 N   0  0  0  0  0  0  0  0  0  0  0  0
   -0.1050   -4.0650   -1.0290 O   0  0  0  0  0  0  0  0  0  0  0  0
    0.3140   -4.6740   -2.1840 N   0  0  0  0  0  0  0  0  0  0  0  0
   -0.2980   -5.6950   -2.5520 O   0  0  0  0  0  0  0  0  0  0  0  0
   -0.2510   -1.5610   -0.7050 C   0  0  0  0  0  0  0  0  0  0  0  0
    0.5400   -0.5650   -0.4640 C   0  0  0  0  0  0  0  0  0  0  0  0
    0.0940    0.8160   -0.5320 N   0  0  0  0  0  0  0  0  0  0  0  0
   -1.3170    1.1080   -0.3570 C   0  0  1  0  0  0  0  0  0  0  0  0
   -1.6230    1.1300    1.1130 C   0  0  0  0  0  0  0  0  0  0  0  0
   -3.3420    1.4720    1.4030 Cl  0  0  0  0  0  0  0  0  0  0  0  0
   -1.6890    2.8260   -0.9910 P   0  0  0  0  0  0  0  0  0  0  0  0
   -2.5430    4.1060    0.5430 P   0  0  0  0  0  0  0  0  0  0  0  0
   -0.1680    3.5970   -1.5920 N   0  0  0  0  0  0  0  0  0  0  0  0
   -0.5240    4.6360   -2.4010 F   0  0  0  0  0  0  0  0  0  0  0  0
   -2.0280    0.1190   -1.1460 C   0  0  0  0  0  0  0  0  0  0  0  0
   -2.9750    0.1680   -2.0290 C   0  0  0  0  0  0  0  0  0  0  0  0
   -2.9640   -0.8500   -2.8820 C   0  0  0  0  0  0  0  0  0  0  0  0
   -1.9340   -1.7020   -2.4470 O   0  0  0  0  0  0  0  0  0  0  0  0
   -1.6980   -1.3270   -1.0710 C   0  0  1  0  0  0  0  0  0  0  0  0
   -2.6520   -1.9840   -0.2020 C   0  0  0  0  0  0  0  0  0  0  0  0
   -3.5210   -2.7460   -0.7640 O   0  0  0  0  0  0  0  0  0  0  0  0
   -2.7710   -1.9170    1.1560 O   0  0  0  0  0  0  0  0  0  0  0  0
   -4.0000   -2.7900    2.0620 P   0  0  0  0  0  0  0  0  0  0  0  0
  1  2  1  0
  2  3  1  0
  3  4  1  0
  4  5  1  0
  4  7  1  0
  5  6  1  0
  7  8  1  0
  7 14  1  0
  8  9  1  0
  9 10  1  0
  9 13  1  0
 10 11  1  0
 11 12  2  0
 13 14  2  0
 13 27  1  0
 14 15  1  0
 15 16  1  0
 16 17  1  1
 16 19  1  0
 16 23  1  0
 17 18  1  0
 19 20  1  0
 19 21  1  0
 21 22  1  0
 23 24  2  0
 23 27  1  0
 24 25  2  0
 25 26  1  0
 26 27  1  0
 27 28  1  1
 28 29  2  0
 28 30  1  0
 30 31  1  0
M  END
