
     RDKit          3D

 32 33  0  0  0  0  0  0  0  0999 V2000
    7.0620   -0.9790    0.1540 C   0  0  0  0  0  0  0  0  0  0  0  0
    6.1970   -2.3460   -0.7240 P   0  0  0  0  0  0  0  0  0  0  0  0
    5.0390   -1.6300   -2.4310 P   0  0  0  0  0  0  0  0  0  0  0  0
    4.3190   -0.0220   -2.1630 N   0  0  0  0  0  0  0  0  0  0  0  0
    5.2820    0.8230   -1.7340 F   0  0  0  0  0  0  0  0  0  0  0  0
    2.9640   -0.0900   -0.9970 P   0  0  0  0  0  0  0  0  0  0  0  0
    3.6440   -0.6020    0.5250 O   0  0  0  0  0  0  0  0  0  0  0  0
    3.9610    0.5660    1.2370 C   0  0  0  0  0  0  0  0  0  0  0  0
    4.4910    0.2000    2.4560 O   0  0  0  0  0  0  0  0  0  0  0  0
    2.2070    1.5760   -0.8200 C   0  0  0  0  0  0  0  0  0  0  0  0
    2.7960    2.5250   -1.2490 O   0  0  0  0  0  0  0  0  0  0  0  0
    0.5860    1.8570   -0.0130 P   0  0  0  0  0  0  0  0  0  0  0  0
   -0.0630    3.4490    0.1560 C   0  0  0  0  0  0  0  0  0  0  0  0
    0.7360    4.4120   -0.0390 O   0  0  0  0  0  0  0  0  0  0  0  0
   -1.6730    3.9710    0.5590 P   0  0  0  0  0  0  0  0  0  0  0  0
   -2.1940    5.6510    0.7600 N   0  0  0  0  0  0  0  0  0  0  0  0
   -3.1640    2.5520    0.9230 P   0  0  0  0  0  0  0  0  0  0  0  0
   -2.5760    0.5340    0.7670 P   0  0  0  0  0  0  0  0  0  0  0  0
   -0.5930    0.1090    0.2700 P   0  0  0  0  0  0  0  0  0  0  0  0
   -0.2110   -1.5380   -0.2210 N   0  0  0  0  0  0  0  0  0  0  0  0
   -0.3280   -1.9000   -1.5910 C   0  0  0  0  0  0  0  0  0  0  0  0
    0.8850   -2.4620    0.7410 S   0  0  0  0  0  0  0  0  0  0  0  0
    0.2890   -4.1170    0.8630 N   0  0  0  0  0  0  0  0  0  0  0  0
   -3.9960   -0.5630    0.7270 N   0  0  0  0  0  0  0  0  0  0  0  0
   -3.7390   -1.9150    0.6120 C   0  0  0  0  0  0  0  0  0  0  0  0
   -4.8040   -2.9590    0.4840 C   0  0  0  0  0  0  0  0  0  0  0  0
   -2.5640   -2.3480    0.6080 O   0  0  0  0  0  0  0  0  0  0  0  0
   -5.2470    0.1650    0.8430 C   0  0  0  0  0  0  0  0  0  0  0  0
   -5.2990    1.4780    0.1500 C   0  0  1  0  0  0  0  0  0  0  0  0
   -6.5750    1.7530   -0.3740 O   0  0  0  0  0  0  0  0  0  0  0  0
   -6.5810    1.8440   -1.6790 O   0  0  0  0  0  0  0  0  0  0  0  0
   -4.9000    2.6210    0.8910 O   0  0  0  0  0  0  0  0  0  0  0  0
  1  2  1  0
  2  3  1  0
  3  4  1  0
  4  5  1  0
  4  6  1  0
  6  7  1  0
  6 10  1  0
  7  8  1  0
  8  9  1  0
 10 11  2  0
 10 12  1  0
 12 13  1  0
 12 19  1  0
 13 14  2  0
 13 15  1  0
 15 16  1  0
 15 17  1  0
 17 18  1  0
 17 32  1  0
 18 19  1  0
 18 24  1  0
 19 20  1  0
 20 21  1  0
 20 22  1  0
 22 23  1  0
 24 25  1  0
 24 28  1  0
 25 26  1  0
 25 27  2  0
 28 29  1  0
 29 30  1  1
 29 32  1  0
 30 31  1  0
M  END
