
     RDKit          3D

 32 34  0  0  0  0  0  0  0  0999 V2000
   -3.5960    1.6290   -1.1660 C   0  0  0  0  0  0  0  0  0  0  0  0
   -3.4980    0.6310   -0.3150 C   0  0  0  0  0  0  0  0  0  0  0  0
   -2.3670   -0.1890   -0.3380 O   0  0  0  0  0  0  0  0  0  0  0  0
   -0.8300    0.7130   -0.3790 P   0  0  0  0  0  0  0  0  0  0  0  0
    0.7180   -0.0470   -0.3810 C   0  0  0  0  0  0  0  0  0  0  0  0
    1.9760    0.4750   -0.4170 C   0  0  0  0  0  0  0  0  0  0  0  0
    3.2860   -0.7600   -0.4010 Cl  0  0  0  0  0  0  0  0  0  0  0  0
    2.4020    1.7680   -0.4610 C   0  0  0  0  0  0  0  0  0  0  0  0
    3.6240    2.1630   -0.4920 N   0  0  0  0  0  0  0  0  0  0  0  0
    4.7190    1.2850   -0.4840 N   0  0  0  0  0  0  0  0  0  0  0  0
    5.3380    1.0530    0.7890 C   0  0  0  0  0  0  0  0  0  0  0  0
    6.2410    0.0110    0.8960 O   0  0  0  0  0  0  0  0  0  0  0  0
    7.3060   -0.1340   -0.0080 C   0  0  0  0  0  0  0  0  0  0  0  0
    8.5670   -0.5560    0.3960 N   0  0  0  0  0  0  0  0  0  0  0  0
    9.1270   -1.7940   -0.1600 C   0  0  0  0  0  0  0  0  0  0  0  0
    6.7920    0.2730   -1.5560 P   0  0  0  0  0  0  0  0  0  0  0  0
    5.1500    0.7410   -1.6320 O   0  0  0  0  0  0  0  0  0  0  0  0
    1.3700    3.2150   -0.4880 P   0  0  0  0  0  0  0  0  0  0  0  0
   -0.6650    2.7960   -0.4430 P   0  0  0  0  0  0  0  0  0  0  0  0
   -4.8600    0.3550    0.8740 P   0  0  0  0  0  0  0  0  0  0  0  0
   -4.6570   -1.3110    1.5750 N   0  0  0  0  0  0  0  0  0  0  0  0
   -6.0300   -2.1130    0.8610 S   0  0  2  0  0  0  0  0  0  0  0  0
   -6.9570   -2.5420    2.1890 O   0  0  0  0  0  0  0  0  0  0  0  0
   -5.5620   -3.5750    0.2690 O   0  0  0  0  0  0  0  0  0  0  0  0
   -4.2720   -4.1250    0.3940 C   0  0  0  0  0  0  0  0  0  0  0  0
   -3.4420   -3.3990    1.0180 O   0  0  0  0  0  0  0  0  0  0  0  0
   -6.7810   -1.2060    0.0870 N   0  0  0  0  0  0  0  0  0  0  0  0
   -6.3600    0.1100   -0.0700 N   0  0  0  0  0  0  0  0  0  0  0  0
   -7.1550    1.3730   -1.0410 P   0  0  0  0  0  0  0  0  0  0  0  0
   -8.4540    0.7820   -1.9590 F   0  0  0  0  0  0  0  0  0  0  0  0
   -7.6280    2.7380    0.0710 C   0  0  0  0  0  0  0  0  0  0  0  0
   -7.7150    3.8700   -0.3730 O   0  0  0  0  0  0  0  0  0  0  0  0
  1  2  2  0
  2  3  1  0
  2 20  1  0
  3  4  1  0
  4  5  1  0
  4 19  1  0
  5  6  2  0
  6  7  1  0
  6  8  1  0
  8  9  2  3
  8 18  1  0
  9 10  1  0
 10 11  1  0
 10 17  1  0
 11 12  1  0
 12 13  1  0
 13 14  1  0
 13 16  2  0
 14 15  1  0
 16 17  1  0
 18 19  2  0
 20 21  1  0
 20 28  1  0
 21 22  1  0
 22 23  2  0
 22 24  1  6
 22 27  2  0
 24 25  1  0
 25 26  2  0
 27 28  1  0
 28 29  1  0
 29 30  1  0
 29 31  1  0
 31 32  2  0
M  END
