
     RDKit          3D

 31 33  0  0  0  0  0  0  0  0999 V2000
    4.8810   -3.1530   -1.3920 N   0  0  0  0  0  0  0  0  0  0  0  0
    4.9060   -1.9060   -1.1160 C   0  0  0  0  0  0  0  0  0  0  0  0
    3.5250   -0.8420   -1.6070 P   0  0  0  0  0  0  0  0  0  0  0  0
    2.4390   -0.4880   -0.1320 C   0  0  0  0  0  0  0  0  0  0  0  0
    2.6100    0.3560    0.7100 N   0  0  0  0  0  0  0  0  0  0  0  0
    2.3890    1.0780    1.7870 N   0  0  0  0  0  0  0  0  0  0  0  0
    2.1530    0.6600    3.0940 O   0  0  0  0  0  0  0  0  0  0  0  0
    2.3830    2.5250    1.6970 C   0  0  0  0  0  0  0  0  0  0  0  0
    2.7100    3.2200    2.8480 F   0  0  0  0  0  0  0  0  0  0  0  0
    2.0930    3.1980    0.6040 C   0  0  0  0  0  0  0  0  0  0  0  0
    2.1270    4.5740    0.6690 F   0  0  0  0  0  0  0  0  0  0  0  0
    1.6480    2.4970   -1.0130 P   0  0  0  0  0  0  0  0  0  0  0  0
    2.1590    3.5010   -2.3030 O   0  0  0  0  0  0  0  0  0  0  0  0
   -0.0050    2.0020   -1.1530 O   0  0  0  0  0  0  0  0  0  0  0  0
   -1.0250    2.4800   -0.3810 N   0  0  0  0  0  0  0  0  0  0  0  0
   -1.6320    1.7960    0.5390 C   0  0  0  0  0  0  0  0  0  0  0  0
   -2.6700    2.1370    1.3930 O   0  0  0  0  0  0  0  0  0  0  0  0
   -2.9670    1.0500    2.2020 C   0  0  0  0  0  0  0  0  0  0  0  0
   -4.2640    1.1000    3.4510 S   0  0  0  0  0  0  0  0  0  0  0  0
   -2.1980    0.0630    1.9190 N   0  0  0  0  0  0  0  0  0  0  0  0
   -1.2790    0.3990    0.8580 C   0  0  1  0  0  0  0  0  0  0  0  0
   -1.6410   -0.4660   -0.3210 C   0  0  2  0  0  0  0  0  0  0  0  0
   -2.4580    0.2440   -1.1680 O   0  0  0  0  0  0  0  0  0  0  0  0
   -3.6030    0.6570   -0.6260 N   0  0  0  0  0  0  0  0  0  0  0  0
   -2.2870   -1.6210    0.0440 O   0  0  0  0  0  0  0  0  0  0  0  0
   -2.3870   -2.5910   -0.9040 C   0  0  1  0  0  0  0  0  0  0  0  0
   -4.1770   -3.1290   -1.0960 P   0  0  0  0  0  0  0  0  0  0  0  0
   -1.9180   -2.2590   -2.1670 O   0  0  0  0  0  0  0  0  0  0  0  0
   -0.5800   -2.3230   -2.1960 O   0  0  0  0  0  0  0  0  0  0  0  0
   -0.0860   -0.9570   -1.2410 P   0  0  0  0  0  0  0  0  0  0  0  0
    1.2620   -1.4140   -0.0900 C   0  0  0  0  0  0  0  0  0  0  0  0
  1  2  2  0
  2  3  1  0
  3  4  1  0
  4  5  2  0
  4 31  1  0
  5  6  1  0
  6  7  1  0
  6  8  1  0
  8  9  1  0
  8 10  2  0
 10 11  1  0
 10 12  1  0
 12 13  1  0
 12 14  1  0
 14 15  1  0
 15 16  2  0
 16 17  1  0
 16 21  1  0
 17 18  1  0
 18 19  1  0
 18 20  2  0
 21 20  1  1
 21 22  1  0
 22 23  1  6
 22 25  1  0
 22 30  1  0
 23 24  1  0
 25 26  1  0
 26 27  1  6
 26 28  1  0
 28 29  1  0
 29 30  1  0
 30 31  1  0
M  END
