
     RDKit          3D

 32 33  0  0  0  0  0  0  0  0999 V2000
   -5.6130   -1.5450    2.0170 N   0  0  0  0  0  0  0  0  0  0  0  0
   -5.1070   -0.7120    0.7530 S   0  0  0  0  0  0  0  0  0  0  0  0
   -4.2180   -1.6230   -0.3280 N   0  0  0  0  0  0  0  0  0  0  0  0
   -2.9640   -1.2950   -0.7190 C   0  0  0  0  0  0  0  0  0  0  0  0
   -2.3530   -0.1560   -0.2290 N   0  0  0  0  0  0  0  0  0  0  0  0
   -3.1610    0.8640    0.2550 C   0  0  0  0  0  0  0  0  0  0  0  0
   -2.9020    2.1230    0.9780 C   0  0  0  0  0  0  0  0  0  0  0  0
   -4.2690    2.4860    1.2160 O   0  0  0  0  0  0  0  0  0  0  0  0
   -4.8110    4.0210    0.7560 P   0  0  0  0  0  0  0  0  0  0  0  0
   -0.9670    0.1510   -0.3150 C   0  0  0  0  0  0  0  0  0  0  0  0
   -0.5010    1.3090   -0.0680 N   0  0  0  0  0  0  0  0  0  0  0  0
    1.2690    1.6000   -0.1500 P   0  0  0  0  0  0  0  0  0  0  0  0
    1.6960    3.1410   -0.7760 O   0  0  0  0  0  0  0  0  0  0  0  0
    1.8930    1.4720    1.4820 O   0  0  0  0  0  0  0  0  0  0  0  0
    3.2200    1.3570    1.3800 N   0  0  0  0  0  0  0  0  0  0  0  0
    3.7880    2.6540    1.7820 C   0  0  0  0  0  0  0  0  0  0  0  0
    3.3420    2.9490    3.0620 O   0  0  0  0  0  0  0  0  0  0  0  0
    3.6230    1.0230   -0.3310 P   0  0  0  0  0  0  0  0  0  0  0  0
    4.7120   -0.3990   -0.6160 C   0  0  0  0  0  0  0  0  0  0  0  0
    4.0380   -1.9010    0.2620 P   0  0  0  0  0  0  0  0  0  0  0  0
    5.0170   -2.3860    1.5820 O   0  0  0  0  0  0  0  0  0  0  0  0
    3.6130   -3.2460   -0.9230 C   0  0  0  0  0  0  0  0  0  0  0  0
    2.2700   -3.5710   -0.8310 O   0  0  0  0  0  0  0  0  0  0  0  0
    1.5210   -3.4930   -2.3790 S   0  0  0  0  0  0  0  0  0  0  0  0
   -0.2910   -3.4810   -2.1230 C   0  0  0  0  0  0  0  0  0  0  0  0
   -0.9760   -4.5090   -2.5770 F   0  0  0  0  0  0  0  0  0  0  0  0
   -0.8860   -2.4460   -1.5680 C   0  0  0  0  0  0  0  0  0  0  0  0
   -2.2890   -2.3560   -1.3550 N   0  0  0  0  0  0  0  0  0  0  0  0
   -3.2380   -3.6480   -2.2140 P   0  0  0  0  0  0  0  0  0  0  0  0
   -3.1510   -3.4440   -3.8220 O   0  0  0  0  0  0  0  0  0  0  0  0
    0.1670   -1.1640   -0.8160 P   0  0  0  0  0  0  0  0  0  0  0  0
    0.9320   -1.7820    0.6320 O   0  0  0  0  0  0  0  0  0  0  0  0
  1  2  2  0
  2  3  1  0
  3  4  2  3
  4  5  1  0
  4 28  1  0
  5  6  1  0
  5 10  1  0
  6  7  1  0
  7  8  1  0
  8  9  1  0
 10 11  2  0
 10 31  1  0
 11 12  1  0
 12 13  1  0
 12 14  1  0
 14 15  1  0
 15 16  1  0
 15 18  1  0
 16 17  1  0
 18 19  1  0
 19 20  1  0
 20 21  1  0
 20 22  1  0
 22 23  1  0
 23 24  1  0
 24 25  1  0
 25 26  1  0
 25 27  2  0
 27 28  1  0
 27 31  1  0
 28 29  1  0
 29 30  2  0
 31 32  1  0
M  END
