
     RDKit          3D

 32 33  0  0  0  0  0  0  0  0999 V2000
    5.7880   -0.0910    2.3380 C   0  0  0  0  0  0  0  0  0  0  0  0
    5.5660    1.5070    1.8880 P   0  0  0  0  0  0  0  0  0  0  0  0
    4.3330    2.0670    0.1810 P   0  0  0  0  0  0  0  0  0  0  0  0
    4.8390    1.1760   -1.3700 C   0  0  0  0  0  0  0  0  0  0  0  0
    3.9360    1.5470   -2.3730 O   0  0  0  0  0  0  0  0  0  0  0  0
    2.6210    1.8840    0.5020 O   0  0  0  0  0  0  0  0  0  0  0  0
    2.0510    0.7410    0.9980 C   0  0  0  0  0  0  0  0  0  0  0  0
    2.2410    0.3150    2.5910 P   0  0  0  0  0  0  0  0  0  0  0  0
    3.1610    1.3120    3.6400 O   0  0  0  0  0  0  0  0  0  0  0  0
    1.2600   -0.1290    0.1270 C   0  0  2  0  0  0  0  0  0  0  0  0
    2.0340   -0.6050   -0.9420 F   0  0  0  0  0  0  0  0  0  0  0  0
    0.1410    0.5620   -0.4600 N   0  0  0  0  0  0  0  0  0  0  0  0
   -0.3650   -0.0360   -1.6520 C   0  0  2  0  0  0  0  0  0  0  0  0
    0.5690   -0.0850   -2.6910 O   0  0  0  0  0  0  0  0  0  0  0  0
   -1.7650    1.1060   -2.2040 P   0  0  0  0  0  0  0  0  0  0  0  0
   -3.0650    0.8900   -0.9030 C   0  0  0  0  0  0  0  0  0  0  0  0
   -3.6570    2.0020   -0.3470 O   0  0  0  0  0  0  0  0  0  0  0  0
   -4.9690    1.9370   -0.0720 O   0  0  0  0  0  0  0  0  0  0  0  0
   -3.4460   -0.6690   -0.4780 P   0  0  0  0  0  0  0  0  0  0  0  0
   -4.6970   -1.0660    0.7790 C   0  0  0  0  0  0  0  0  0  0  0  0
   -5.9230   -1.2980    0.4100 C   0  0  0  0  0  0  0  0  0  0  0  0
   -7.1580   -1.2050    0.0340 N   0  0  0  0  0  0  0  0  0  0  0  0
   -7.6950    0.1530   -0.1380 C   0  0  0  0  0  0  0  0  0  0  0  0
   -0.9450   -1.2610   -1.5080 O   0  0  0  0  0  0  0  0  0  0  0  0
   -0.0960   -2.3480   -0.4760 P   0  0  0  0  0  0  0  0  0  0  0  0
    1.5250   -3.2680   -1.6650 P   0  0  0  0  0  0  0  0  0  0  0  0
    0.7080   -1.3350    0.8200 C   0  0  2  0  0  0  0  0  0  0  0  0
   -0.0750   -1.0680    1.9310 O   0  0  0  0  0  0  0  0  0  0  0  0
    0.0120   -1.8580    2.9820 N   0  0  0  0  0  0  0  0  0  0  0  0
    0.9990   -2.6060    3.1430 N   0  0  0  0  0  0  0  0  0  0  0  0
    2.0600   -2.2940    1.7180 P   0  0  0  0  0  0  0  0  0  0  0  0
    2.2720   -4.1490    0.6940 Cl  0  0  0  0  0  0  0  0  0  0  0  0
  1  2  2  0
  2  3  1  0
  3  4  1  0
  3  6  1  0
  4  5  1  0
  6  7  1  0
  7  8  2  3
  7 10  1  0
  8  9  1  0
 10 11  1  6
 10 12  1  0
 10 27  1  0
 12 13  1  0
 13 14  1  6
 13 15  1  0
 13 24  1  0
 15 16  1  0
 16 17  1  0
 16 19  2  3
 17 18  1  0
 19 20  1  0
 20 21  2  0
 21 22  2  0
 22 23  1  0
 24 25  1  0
 25 26  1  0
 25 27  1  0
 27 28  1  1
 27 31  1  0
 28 29  1  0
 29 30  2  0
 30 31  1  0
 31 32  1  0
M  END
