
     RDKit          3D

 32 33  0  0  0  0  0  0  0  0999 V2000
   -1.2020    5.2480   -0.3430 C   0  0  0  0  0  0  0  0  0  0  0  0
   -1.3300    4.1940    1.1650 P   0  0  0  0  0  0  0  0  0  0  0  0
   -2.9970    3.5690    1.4020 N   0  0  0  0  0  0  0  0  0  0  0  0
   -3.7950    4.6410    1.6740 O   0  0  0  0  0  0  0  0  0  0  0  0
   -0.1530    2.9280    1.1920 O   0  0  0  0  0  0  0  0  0  0  0  0
   -0.7110    1.7370    1.2240 O   0  0  0  0  0  0  0  0  0  0  0  0
   -0.6580    1.1410   -0.0360 C   0  0  1  0  0  0  0  0  0  0  0  0
   -1.3510    1.9760   -0.9110 O   0  0  0  0  0  0  0  0  0  0  0  0
   -1.3520    1.3320   -2.5220 P   0  0  0  0  0  0  0  0  0  0  0  0
    0.2510    1.2100   -3.1640 O   0  0  0  0  0  0  0  0  0  0  0  0
   -2.3140    2.3570   -3.5040 F   0  0  0  0  0  0  0  0  0  0  0  0
    0.6920    0.8950   -0.4820 N   0  0  0  0  0  0  0  0  0  0  0  0
    0.9210   -0.3560   -0.6580 C   0  0  0  0  0  0  0  0  0  0  0  0
    2.1220   -0.9080   -1.0820 O   0  0  0  0  0  0  0  0  0  0  0  0
    3.5590    0.0530   -0.9070 P   0  0  0  0  0  0  0  0  0  0  0  0
    3.8900    0.4580    0.9080 C   0  0  0  0  0  0  0  0  0  0  0  0
    5.3900    0.5690    0.9080 C   0  0  0  0  0  0  0  0  0  0  0  0
    5.9730   -0.8110    0.6720 C   0  0  2  0  0  0  0  0  0  0  0  0
    7.8080   -0.6340    0.5880 P   0  0  0  0  0  0  0  0  0  0  0  0
    8.6350   -0.9730   -0.6780 O   0  0  0  0  0  0  0  0  0  0  0  0
    5.3900   -1.2290   -1.0770 P   0  0  0  0  0  0  0  0  0  0  0  0
    4.8510   -2.8780   -1.0330 O   0  0  0  0  0  0  0  0  0  0  0  0
   -0.2630   -1.1170   -0.3490 N   0  0  0  0  0  0  0  0  0  0  0  0
   -0.3990   -2.4540   -0.4170 F   0  0  0  0  0  0  0  0  0  0  0  0
   -1.2710   -0.2050    0.0450 C   0  0  0  0  0  0  0  0  0  0  0  0
   -2.8080   -0.6300    0.4930 P   0  0  0  0  0  0  0  0  0  0  0  0
   -3.3760   -2.3170    0.5310 N   0  0  0  0  0  0  0  0  0  0  0  0
   -2.8930   -3.1980    1.5170 C   0  0  0  0  0  0  0  0  0  0  0  0
   -3.4840   -3.2090    2.6840 N   0  0  0  0  0  0  0  0  0  0  0  0
   -4.5540   -2.8970   -0.6700 P   0  0  0  0  0  0  0  0  0  0  0  0
   -3.7290   -3.7690   -2.0030 N   0  0  0  0  0  0  0  0  0  0  0  0
   -5.9230   -4.2980    0.3400 P   0  0  0  0  0  0  0  0  0  0  0  0
  1  2  1  0
  2  3  1  0
  2  5  1  0
  3  4  1  0
  5  6  1  0
  7  6  1  1
  7  8  1  0
  7 12  1  0
  7 25  1  0
  8  9  1  0
  9 10  1  0
  9 11  1  0
 12 13  2  0
 13 14  1  0
 13 23  1  0
 14 15  1  0
 15 16  1  0
 15 21  1  0
 16 17  1  0
 17 18  1  0
 18 19  1  6
 18 21  1  0
 19 20  2  0
 21 22  1  0
 23 24  1  0
 23 25  1  0
 25 26  2  3
 26 27  1  0
 27 28  1  0
 27 30  1  0
 28 29  2  0
 30 31  1  0
 30 32  1  0
M  END
