
     RDKit          3D

 23 25  0  0  0  0  0  0  0  0999 V2000
    4.6950   -1.4140   -0.5190 N   0  0  0  0  0  0  0  0  0  0  0  0
    3.9640   -0.3840   -0.2860 C   0  0  0  0  0  0  0  0  0  0  0  0
    2.9240   -0.4190   -1.1810 N   0  0  0  0  0  0  0  0  0  0  0  0
    1.6380    0.0310   -0.9980 C   0  0  0  0  0  0  0  0  0  0  0  0
    1.4790    0.4550    0.1920 O   0  0  0  0  0  0  0  0  0  0  0  0
    0.6300    0.0460   -1.8930 O   0  0  0  0  0  0  0  0  0  0  0  0
   -0.6030    0.5360   -1.4420 C   0  0  0  0  0  0  0  0  0  0  0  0
   -0.8020    1.8990   -1.5130 C   0  0  0  0  0  0  0  0  0  0  0  0
   -2.0130    2.4410   -1.0700 C   0  0  0  0  0  0  0  0  0  0  0  0
   -2.9630    1.5730   -0.5770 C   0  0  0  0  0  0  0  0  0  0  0  0
   -2.7460    0.2120   -0.5150 C   0  0  0  0  0  0  0  0  0  0  0  0
   -1.5560   -0.3230   -0.9500 C   0  0  0  0  0  0  0  0  0  0  0  0
   -3.9060   -0.3880    0.0340 N   0  0  0  0  0  0  0  0  0  0  0  0
   -4.6610   -1.5670    0.2760 C   0  0  0  0  0  0  0  0  0  0  0  0
   -4.2140   -2.7180    0.2150 O   0  0  0  0  0  0  0  0  0  0  0  0
   -6.0440   -1.0660    0.6010 C   0  0  0  0  0  0  0  0  0  0  0  0
   -5.9510    0.3160    0.3890 O   0  0  0  0  0  0  0  0  0  0  0  0
   -4.6820    0.6550    0.6090 N   0  0  0  0  0  0  0  0  0  0  0  0
   -4.2590    1.7800   -0.0600 O   0  0  0  0  0  0  0  0  0  0  0  0
    4.5820    0.6310    0.5080 N   0  0  0  0  0  0  0  0  0  0  0  0
    5.4610    0.3430    1.9880 P   0  0  0  0  0  0  0  0  0  0  0  0
    4.5190   -0.2510    3.2900 O   0  0  0  0  0  0  0  0  0  0  0  0
    6.8900   -0.5860    1.7340 O   0  0  0  0  0  0  0  0  0  0  0  0
  1  2  2  0
  2  3  1  0
  2 20  1  0
  3  4  1  0
  4  5  2  0
  4  6  1  0
  6  7  1  0
  7  8  2  0
  7 12  1  0
  8  9  1  0
  9 10  2  0
 10 11  1  0
 10 19  1  0
 11 12  2  0
 11 13  1  0
 13 14  1  0
 13 18  1  0
 14 15  2  0
 14 16  1  0
 16 17  1  0
 17 18  1  0
 18 19  1  0
 20 21  1  0
 21 22  1  0
 21 23  1  0
M  END
