
     RDKit          3D

 23 25  0  0  0  0  0  0  0  0999 V2000
   -6.7250    0.7770    0.4590 O   0  0  0  0  0  0  0  0  0  0  0  0
   -5.5060    0.6180    0.1510 C   0  0  0  0  0  0  0  0  0  0  0  0
   -4.6240    0.4480    1.2720 N   0  0  0  0  0  0  0  0  0  0  0  0
   -3.2410    0.8170    1.3640 C   0  0  0  0  0  0  0  0  0  0  0  0
   -2.3830    0.2510    0.2870 C   0  0  0  0  0  0  0  0  0  0  0  0
   -1.1560   -0.1440    0.5190 O   0  0  0  0  0  0  0  0  0  0  0  0
   -0.5590   -0.6110   -0.5460 C   0  0  0  0  0  0  0  0  0  0  0  0
    0.6050   -1.1580   -1.0660 C   0  0  0  0  0  0  0  0  0  0  0  0
    1.7800   -1.4350   -0.4120 O   0  0  0  0  0  0  0  0  0  0  0  0
    2.8220   -0.5320   -0.2950 C   0  0  0  0  0  0  0  0  0  0  0  0
    2.6510    0.6050   -0.8320 O   0  0  0  0  0  0  0  0  0  0  0  0
    4.0190   -0.8680    0.3930 N   0  0  0  0  0  0  0  0  0  0  0  0
    5.0720    0.1020    0.4890 C   0  0  0  0  0  0  0  0  0  0  0  0
    4.5410    1.6540    1.3580 P   0  0  0  0  0  0  0  0  0  0  0  0
    4.3600    1.4160    3.0600 O   0  0  0  0  0  0  0  0  0  0  0  0
    5.8170    2.8290    1.1200 O   0  0  0  0  0  0  0  0  0  0  0  0
    0.3580   -1.3710   -2.3640 N   0  0  0  0  0  0  0  0  0  0  0  0
   -0.8890   -0.9850   -2.6630 N   0  0  0  0  0  0  0  0  0  0  0  0
   -1.4890   -0.5110   -1.5750 C   0  0  0  0  0  0  0  0  0  0  0  0
   -2.6300    0.0310   -1.0390 C   0  0  0  0  0  0  0  0  0  0  0  0
   -3.8690    0.3120   -1.7650 C   0  0  0  0  0  0  0  0  0  0  0  0
   -3.7490    0.2630   -3.0120 O   0  0  0  0  0  0  0  0  0  0  0  0
   -5.1540    0.6240   -1.2270 N   0  0  0  0  0  0  0  0  0  0  0  0
  1  2  2  0
  2  3  1  0
  2 23  1  0
  3  4  1  0
  4  5  1  0
  5  6  1  0
  5 20  2  0
  6  7  1  0
  7  8  2  0
  7 19  1  0
  8  9  1  0
  8 17  1  0
  9 10  1  0
 10 11  2  0
 10 12  1  0
 12 13  1  0
 13 14  1  0
 14 15  1  0
 14 16  1  0
 17 18  1  0
 18 19  2  0
 19 20  1  0
 20 21  1  0
 21 22  2  0
 21 23  1  0
M  END
