
     RDKit          3D

 16 16  0  0  0  0  0  0  0  0999 V2000
    4.6870    1.3420    0.0690 O   0  0  0  0  0  0  0  0  0  0  0  0
    4.5730    0.1430    0.4290 O   0  0  0  0  0  0  0  0  0  0  0  0
    4.4850   -0.8270   -0.5750 C   0  0  0  0  0  0  0  0  0  0  0  0
    3.0280   -1.3480   -0.1310 C   0  0  0  0  0  0  0  0  0  0  0  0
    2.4050   -0.0960   -0.3340 O   0  0  0  0  0  0  0  0  0  0  0  0
    1.2710    0.0630   -0.0330 O   0  0  0  0  0  0  0  0  0  0  0  0
    0.1070   -0.3940    0.2620 C   0  0  0  0  0  0  0  0  0  0  0  0
   -0.7400    0.9520    0.2370 C   0  0  0  0  0  0  0  0  0  0  0  0
   -2.1220    0.7200    0.7510 C   0  0  1  0  0  0  0  0  0  0  0  0
   -1.9430    0.0560    2.5710 Br  0  0  0  0  0  0  0  0  0  0  0  0
   -2.6690    2.0220    0.8140 O   0  0  0  0  0  0  0  0  0  0  0  0
   -3.6870    2.0920    0.0420 O   0  0  0  0  0  0  0  0  0  0  0  0
   -3.5610    1.1270   -0.9630 C   0  0  0  0  0  0  0  0  0  0  0  0
   -3.0200   -0.0340   -0.1430 C   0  0  2  0  0  0  0  0  0  0  0  0
   -4.0590   -0.5360    0.6850 O   0  0  0  0  0  0  0  0  0  0  0  0
   -3.6510   -1.5710    1.3210 O   0  0  0  0  0  0  0  0  0  0  0  0
  1  2  1  0
  2  3  1  0
  3  4  1  0
  4  5  1  0
  5  6  1  0
  6  7  1  0
  7  8  1  0
  8  9  1  0
  9 10  1  1
  9 11  1  0
  9 14  1  0
 11 12  1  0
 12 13  1  0
 13 14  1  0
 14 15  1  1
 15 16  1  0
M  END
