
     RDKit          3D

 31 31  0  0  0  0  0  0  0  0999 V2000
   -2.5480   -3.1090   -2.0020 O   0  0  0  0  0  0  0  0  0  0  0  0
   -2.6560   -3.8170   -0.9710 C   0  0  0  0  0  0  0  0  0  0  0  0
   -3.1370   -5.1600   -1.1260 O   0  0  0  0  0  0  0  0  0  0  0  0
   -2.3290   -3.3150    0.2140 O   0  0  0  0  0  0  0  0  0  0  0  0
   -1.8840   -2.1690    0.7550 C   0  0  0  0  0  0  0  0  0  0  0  0
   -2.7150   -0.9410    0.8680 C   0  0  0  0  0  0  0  0  0  0  0  0
   -3.1580   -0.3170   -0.3750 C   0  0  2  0  0  0  0  0  0  0  0  0
   -2.0530    0.1280   -1.2500 C   0  0  1  0  0  0  0  0  0  0  0  0
   -2.6530    0.8000   -2.4880 C   0  0  0  0  0  0  0  0  0  0  0  0
   -3.6190    0.0100   -3.0960 O   0  0  0  0  0  0  0  0  0  0  0  0
   -1.0760    1.0000   -0.6710 N   0  0  0  0  0  0  0  0  0  0  0  0
    0.3250    0.6570   -0.8240 C   0  0  0  0  0  0  0  0  0  0  0  0
    0.6910   -0.3570   -1.4360 O   0  0  0  0  0  0  0  0  0  0  0  0
    1.3160    1.4760   -0.2760 O   0  0  0  0  0  0  0  0  0  0  0  0
    2.6940    1.2150   -0.3770 C   0  0  0  0  0  0  0  0  0  0  0  0
    3.1200   -0.0680    0.2400 C   0  0  0  0  0  0  0  0  0  0  0  0
    4.5980   -0.3300    0.1260 C   0  0  2  0  0  0  0  0  0  0  0  0
    4.9030   -1.6560    0.7860 C   0  0  2  0  0  0  0  0  0  0  0  0
    3.7270   -2.3850    1.0000 O   0  0  0  0  0  0  0  0  0  0  0  0
    5.4960   -1.3580    2.1530 C   0  0  0  0  0  0  0  0  0  0  0  0
    6.7650   -0.8360    2.0170 O   0  0  0  0  0  0  0  0  0  0  0  0
    6.8190    0.1120    1.0120 C   0  0  0  0  0  0  0  0  0  0  0  0
    5.4410    0.7160    0.7920 C   0  0  1  0  0  0  0  0  0  0  0  0
    5.5950    1.7700   -0.1210 O   0  0  0  0  0  0  0  0  0  0  0  0
   -4.2850    0.6820   -0.2220 C   0  0  1  0  0  0  0  0  0  0  0  0
   -5.4000   -0.0400    0.3420 O   0  0  0  0  0  0  0  0  0  0  0  0
   -4.0370    1.8500    0.6380 C   0  0  0  0  0  0  0  0  0  0  0  0
   -5.2630    2.6080    0.7070 O   0  0  0  0  0  0  0  0  0  0  0  0
   -5.8680    3.1900   -0.3760 C   0  0  0  0  0  0  0  0  0  0  0  0
   -5.3870    3.1060   -1.5230 O   0  0  0  0  0  0  0  0  0  0  0  0
   -7.0580    3.8900   -0.1470 O   0  0  0  0  0  0  0  0  0  0  0  0
  1  2  2  0
  2  3  1  0
  2  4  1  0
  4  5  1  0
  5  6  1  0
  7  6  1  1
  7  8  1  0
  7 25  1  0
  8  9  1  6
  8 11  1  0
  9 10  1  0
 11 12  1  0
 12 13  2  0
 12 14  1  0
 14 15  1  0
 15 16  1  0
 17 16  1  1
 17 18  1  0
 17 23  1  0
 18 19  1  1
 18 20  1  0
 20 21  1  0
 21 22  1  0
 22 23  1  0
 23 24  1  6
 25 26  1  1
 25 27  1  0
 27 28  1  0
 28 29  1  0
 29 30  2  0
 29 31  1  0
M  CHG  1   3  -1
M  END
