
     RDKit          3D

 32 35  0  0  0  0  0  0  0  0999 V2000
   -6.3810   -3.1560    1.0490 C   0  0  0  0  0  0  0  0  0  0  0  0
   -6.0690   -2.0740    0.0450 C   0  0  2  0  0  0  0  0  0  0  0  0
   -4.5760   -1.8390    0.0820 C   0  0  0  0  0  0  0  0  0  0  0  0
   -4.1420   -0.6700   -0.7880 C   0  0  2  0  0  0  0  0  0  0  0  0
   -2.8250   -0.1850   -0.2090 C   0  0  1  0  0  0  0  0  0  0  0  0
   -3.1480    0.2440    1.0980 O   0  0  0  0  0  0  0  0  0  0  0  0
   -1.8600   -1.3550   -0.1480 C   0  0  0  0  0  0  0  0  0  0  0  0
   -0.5750   -0.8870   -0.8320 C   0  0  2  0  0  0  0  0  0  0  0  0
    0.4590   -1.5730   -0.2970 O   0  0  0  0  0  0  0  0  0  0  0  0
   -0.5950    0.6000   -0.7310 C   0  0  2  0  0  0  0  0  0  0  0  0
   -0.2380    1.2950    0.4690 C   0  0  0  0  0  0  0  0  0  0  0  0
    1.0300    1.3060    1.1900 C   0  0  1  0  0  0  0  0  0  0  0  0
    1.6310    0.1050    1.7740 C   0  0  0  0  0  0  0  0  0  0  0  0
    2.4180    0.6000    3.0160 C   0  0  0  0  0  0  0  0  0  0  0  0
    2.6660    2.0690    2.9580 C   0  0  0  0  0  0  0  0  0  0  0  0
    3.0200    2.6490    1.6410 C   0  0  0  0  0  0  0  0  0  0  0  0
    2.1130    2.1550    0.5530 C   0  0  1  0  0  0  0  0  0  0  0  0
    2.9530    1.4900   -0.4410 C   0  0  0  0  0  0  0  0  0  0  0  0
    2.7690    1.5720   -1.6980 O   0  0  0  0  0  0  0  0  0  0  0  0
    4.0620    0.6800   -0.0810 N   0  0  0  0  0  0  0  0  0  0  0  0
    4.8970    0.0060   -1.0630 C   0  0  1  0  0  0  0  0  0  0  0  0
    6.3370    0.4770   -0.8340 C   0  0  0  0  0  0  0  0  0  0  0  0
    7.1800   -0.6560   -1.3770 C   0  0  0  0  0  0  0  0  0  0  0  0
    6.2350   -1.7980   -1.6890 C   0  0  0  0  0  0  0  0  0  0  0  0
    5.0460   -1.4600   -0.8050 C   0  0  1  0  0  0  0  0  0  0  0  0
    5.4330   -1.7410    0.4970 O   0  0  0  0  0  0  0  0  0  0  0  0
   -2.1140    0.8340   -0.9890 C   0  0  1  0  0  0  0  0  0  0  0  0
   -2.3040    0.6010   -2.4810 C   0  0  0  0  0  0  0  0  0  0  0  0
   -2.4470    2.2750   -0.6390 C   0  0  0  0  0  0  0  0  0  0  0  0
   -5.1270    0.4590   -0.7330 C   0  0  0  0  0  0  0  0  0  0  0  0
   -6.5640    0.0070   -0.5550 C   0  0  0  0  0  0  0  0  0  0  0  0
   -6.7010   -0.9030    0.4660 O   0  0  0  0  0  0  0  0  0  0  0  0
  2  1  1  1
  2  3  1  0
  2 32  1  0
  4  3  1  1
  4  5  1  0
  4 30  1  0
  5  6  1  1
  5  7  1  0
  5 27  1  0
  7  8  1  0
  8  9  1  1
  8 10  1  0
 10 11  1  1
 10 27  1  0
 12 11  1  6
 12 13  1  0
 12 17  1  0
 13 14  1  0
 14 15  1  0
 15 16  1  0
 16 17  1  0
 17 18  1  6
 18 19  2  0
 18 20  1  0
 21 20  1  1
 21 22  1  0
 21 25  1  0
 22 23  1  0
 23 24  1  0
 24 25  1  0
 25 26  1  1
 27 28  1  6
 27 29  1  0
 30 31  1  0
 31 32  1  0
M  END
