
     RDKit          3D

 32 34  0  0  0  0  0  0  0  0999 V2000
   -1.5860    3.0080   -2.5670 C   0  0  0  0  0  0  0  0  0  0  0  0
   -0.8500    1.8360   -1.9900 C   0  0  0  0  0  0  0  0  0  0  0  0
   -1.1530    1.3910   -0.6230 C   0  0  2  0  0  0  0  0  0  0  0  0
   -0.9530    2.2650    0.5250 C   0  0  0  0  0  0  0  0  0  0  0  0
   -1.7840    3.5170    0.4390 C   0  0  2  0  0  0  0  0  0  0  0  0
   -1.5220    4.3580    1.7300 C   0  0  0  0  0  0  0  0  0  0  0  0
   -2.7690    4.7190    2.1800 O   0  0  0  0  0  0  0  0  0  0  0  0
   -3.5550    4.5930    1.0360 C   0  0  0  0  0  0  0  0  0  0  0  0
   -3.1330    3.3420    0.5320 O   0  0  0  0  0  0  0  0  0  0  0  0
   -0.7220   -0.0860   -0.3910 C   0  0  2  0  0  0  0  0  0  0  0  0
    0.6990   -0.3750   -0.5290 C   0  0  2  0  0  0  0  0  0  0  0  0
    1.6890    0.4120    0.2930 C   0  0  0  0  0  0  0  0  0  0  0  0
    3.0130   -0.3180    0.4350 C   0  0  1  0  0  0  0  0  0  0  0  0
    4.0300    0.7000    0.6900 C   0  0  0  0  0  0  0  0  0  0  0  0
    4.8450    1.5180    0.9150 N   0  0  0  0  0  0  0  0  0  0  0  0
    2.9970   -1.2400    1.6360 C   0  0  0  0  0  0  0  0  0  0  0  0
    4.3130   -1.9710    1.7840 C   0  0  0  0  0  0  0  0  0  0  0  0
    4.2280   -2.7950    2.9000 O   0  0  0  0  0  0  0  0  0  0  0  0
    3.4250   -1.0460   -0.8050 C   0  0  2  0  0  0  0  0  0  0  0  0
    4.8010   -1.1240   -0.9760 O   0  0  0  0  0  0  0  0  0  0  0  0
    2.7750   -0.4050   -1.9880 C   0  0  2  0  0  0  0  0  0  0  0  0
    3.2460   -1.0910   -3.2550 C   0  0  0  0  0  0  0  0  0  0  0  0
    3.1320    0.9160   -2.0320 O   0  0  0  0  0  0  0  0  0  0  0  0
    1.2950   -0.6610   -1.8650 C   0  0  0  0  0  0  0  0  0  0  0  0
   -1.6050   -0.8480   -1.3770 C   0  0  0  0  0  0  0  0  0  0  0  0
   -2.1460   -2.1440   -0.9710 C   0  0  0  0  0  0  0  0  0  0  0  0
   -2.4230   -2.3810    0.4760 C   0  0  2  0  0  0  0  0  0  0  0  0
   -2.5040   -3.8950    0.7140 C   0  0  0  0  0  0  0  0  0  0  0  0
   -3.7690   -1.8230    0.8940 C   0  0  0  0  0  0  0  0  0  0  0  0
   -1.3210   -1.8550    1.3160 C   0  0  2  0  0  0  0  0  0  0  0  0
   -1.6090   -1.9350    2.8000 C   0  0  0  0  0  0  0  0  0  0  0  0
   -1.2410   -0.3640    0.9880 C   0  0  0  0  0  0  0  0  0  0  0  0
  1  2  1  0
  3  2  1  6
  3  4  1  0
  3 10  1  0
  5  4  1  1
  5  6  1  0
  5  9  1  0
  6  7  1  0
  7  8  1  0
  8  9  1  0
 10 11  1  0
 10 25  1  6
 10 32  1  0
 11 12  1  6
 11 24  1  0
 12 13  1  0
 13 14  1  1
 13 16  1  0
 13 19  1  0
 14 15  3  0
 16 17  1  0
 17 18  1  0
 19 20  1  6
 19 21  1  0
 21 22  1  6
 21 23  1  0
 21 24  1  0
 25 26  1  0
 26 27  1  0
 27 28  1  6
 27 29  1  0
 27 30  1  0
 30 31  1  1
 30 32  1  0
M  END
