
     RDKit          3D

 32 35  0  0  0  0  0  0  0  0999 V2000
   -7.2560    0.5410    1.1470 C   0  0  0  0  0  0  0  0  0  0  0  0
   -6.2770   -0.6340    1.0990 C   0  0  2  0  0  0  0  0  0  0  0  0
   -5.6880   -0.8820    2.4140 C   0  0  0  0  0  0  0  0  0  0  0  0
   -4.4020   -0.8630    2.6490 C   0  0  0  0  0  0  0  0  0  0  0  0
   -3.4270   -0.5880    1.5790 C   0  0  0  0  0  0  0  0  0  0  0  0
   -3.8210   -0.3630    0.3610 C   0  0  0  0  0  0  0  0  0  0  0  0
   -5.2690   -0.3980    0.0660 C   0  0  0  0  0  0  0  0  0  0  0  0
   -5.9570   -0.2670   -1.0580 N   0  0  0  0  0  0  0  0  0  0  0  0
   -5.6600   -0.0270   -2.4400 C   0  0  0  0  0  0  0  0  0  0  0  0
   -4.9530    1.2860   -2.6900 C   0  0  0  0  0  0  0  0  0  0  0  0
   -3.4540    1.1380   -2.6170 C   0  0  0  0  0  0  0  0  0  0  0  0
   -2.9260    1.2950   -1.2170 C   0  0  0  0  0  0  0  0  0  0  0  0
   -2.6970   -0.0880   -0.5380 C   0  0  1  0  0  0  0  0  0  0  0  0
   -1.3030   -0.2460   -0.1510 C   0  0  1  0  0  0  0  0  0  0  0  0
   -0.6600    0.6340    0.8510 C   0  0  0  0  0  0  0  0  0  0  0  0
    0.3510   -0.0940    1.7490 C   0  0  0  0  0  0  0  0  0  0  0  0
    1.3050   -0.9430    0.9690 C   0  0  2  0  0  0  0  0  0  0  0  0
    2.4050   -0.1210    0.6000 O   0  0  0  0  0  0  0  0  0  0  0  0
    3.6930   -0.3820    1.0370 C   0  0  0  0  0  0  0  0  0  0  0  0
    3.8290   -1.3940    1.7810 O   0  0  0  0  0  0  0  0  0  0  0  0
    4.8480    0.4890    0.6450 C   0  0  1  0  0  0  0  0  0  0  0  0
    6.1320    0.0050    1.2380 C   0  0  1  0  0  0  0  0  0  0  0  0
    5.8520   -0.8370    2.3080 O   0  0  0  0  0  0  0  0  0  0  0  0
    6.9950   -0.7540    0.2540 C   0  0  0  0  0  0  0  0  0  0  0  0
    7.3400    0.0900   -0.9530 C   0  0  0  0  0  0  0  0  0  0  0  0
    6.3050    1.1730   -1.1870 C   0  0  1  0  0  0  0  0  0  0  0  0
    6.3770    1.6550   -2.4860 O   0  0  0  0  0  0  0  0  0  0  0  0
    4.9440    0.5650   -0.8830 C   0  0  2  0  0  0  0  0  0  0  0  0
    3.9020    1.4890   -1.4270 C   0  0  0  0  0  0  0  0  0  0  0  0
    0.6950   -1.6290   -0.2300 C   0  0  1  0  0  0  0  0  0  0  0  0
    1.1710   -2.9400   -0.3660 O   0  0  0  0  0  0  0  0  0  0  0  0
   -0.8200   -1.6810    0.0360 C   0  0  0  0  0  0  0  0  0  0  0  0
  2  1  1  1
  2  3  1  0
  2  7  1  0
  3  4  2  0
  4  5  1  0
  5  6  2  0
  6  7  1  0
  6 13  1  0
  7  8  2  0
  8  9  1  0
  9 10  1  0
 10 11  1  0
 11 12  1  0
 13 12  1  1
 13 14  1  0
 14 15  1  1
 14 32  1  0
 15 16  1  0
 16 17  1  0
 17 18  1  6
 17 30  1  0
 18 19  1  0
 19 20  2  0
 21 19  1  6
 21 22  1  0
 21 28  1  0
 22 23  1  1
 22 24  1  0
 24 25  1  0
 25 26  1  0
 26 27  1  6
 26 28  1  0
 28 29  1  1
 30 31  1  1
 30 32  1  0
M  END
