
     RDKit          3D

 32 34  0  0  0  0  0  0  0  0999 V2000
    2.2220   -2.9720   -0.6600 C   0  0  0  0  0  0  0  0  0  0  0  0
    2.3380   -2.2430    0.6200 C   0  0  0  0  0  0  0  0  0  0  0  0
    2.1810   -0.7500    0.5330 C   0  0  1  0  0  0  0  0  0  0  0  0
    3.2300   -0.2200   -0.3410 C   0  0  2  0  0  0  0  0  0  0  0  0
    4.6490   -0.4650    0.0840 C   0  0  0  0  0  0  0  0  0  0  0  0
    5.4210    0.2680   -1.0020 C   0  0  1  0  0  0  0  0  0  0  0  0
    5.7770   -0.6150   -2.0470 O   0  0  0  0  0  0  0  0  0  0  0  0
    4.4800    1.2750   -1.6120 C   0  0  2  0  0  0  0  0  0  0  0  0
    5.0760    2.5190   -1.5310 O   0  0  0  0  0  0  0  0  0  0  0  0
    5.1910    3.1560   -2.7480 C   0  0  0  0  0  0  0  0  0  0  0  0
    3.2250    1.2130   -0.7140 C   0  0  0  0  0  0  0  0  0  0  0  0
    0.8590   -0.3300   -0.1780 C   0  0  0  0  0  0  0  0  0  0  0  0
   -0.1000   -0.9390    0.7220 C   0  0  2  0  0  0  0  0  0  0  0  0
   -1.5470   -1.0310    0.5070 C   0  0  1  0  0  0  0  0  0  0  0  0
   -1.7340   -1.8310   -0.8000 C   0  0  0  0  0  0  0  0  0  0  0  0
   -1.9220   -2.1620    1.5450 C   0  0  0  0  0  0  0  0  0  0  0  0
   -2.4560    0.0920    0.7020 C   0  0  1  0  0  0  0  0  0  0  0  0
   -2.2360    0.3990    2.1040 O   0  0  0  0  0  0  0  0  0  0  0  0
   -2.3320    1.4230    0.1210 C   0  0  1  0  0  0  0  0  0  0  0  0
   -1.2130    2.3310    0.4660 C   0  0  0  0  0  0  0  0  0  0  0  0
   -2.8370    1.6640   -1.2830 C   0  0  0  0  0  0  0  0  0  0  0  0
   -4.2830    2.0380   -1.3630 C   0  0  0  0  0  0  0  0  0  0  0  0
   -5.2430    1.5320   -0.4100 C   0  0  0  0  0  0  0  0  0  0  0  0
   -4.8660    0.8670    0.8540 C   0  0  0  0  0  0  0  0  0  0  0  0
   -3.9280   -0.2990    0.7160 C   0  0  1  0  0  0  0  0  0  0  0  0
   -4.4770   -1.1000   -0.3440 C   0  0  0  0  0  0  0  0  0  0  0  0
   -4.4100   -0.9290   -1.7210 O   0  0  0  0  0  0  0  0  0  0  0  0
   -5.1690   -2.1780   -0.0610 N   0  0  0  0  0  0  0  0  0  0  0  0
   -5.3990   -2.5840    1.2070 O   0  0  0  0  0  0  0  0  0  0  0  0
    0.4320   -0.6310    2.0860 C   0  0  0  0  0  0  0  0  0  0  0  0
    1.9210   -0.2690    1.8720 C   0  0  2  0  0  0  0  0  0  0  0  0
    2.0990    1.1400    2.2290 C   0  0  0  0  0  0  0  0  0  0  0  0
  1  2  1  0
  3  2  1  1
  3  4  1  0
  3 12  1  0
  3 31  1  0
  4  5  1  1
  4 11  1  0
  5  6  1  0
  6  7  1  6
  6  8  1  0
  8  9  1  1
  8 11  1  0
  9 10  1  0
 13 12  1  6
 13 14  1  0
 13 30  1  0
 14 15  1  6
 14 16  1  0
 14 17  1  0
 17 18  1  1
 17 19  1  0
 17 25  1  0
 19 20  1  6
 19 21  1  0
 21 22  1  0
 22 23  1  0
 23 24  1  0
 24 25  1  0
 25 26  1  6
 26 27  1  0
 26 28  2  3
 28 29  1  0
 30 31  1  0
 31 32  1  6
M  END
