
     RDKit          3D

 33 35  0  0  0  0  0  0  0  0999 V2000
    6.8450   -0.4850   -1.1760 C   0  0  0  0  0  0  0  0  0  0  0  0
    5.8320   -0.4270   -2.2400 C   0  0  1  0  0  0  0  0  0  0  0  0
    6.1890   -1.3480   -3.4220 C   0  0  0  0  0  0  0  0  0  0  0  0
    4.4320   -0.6930   -1.8530 C   0  0  0  0  0  0  0  0  0  0  0  0
    3.8360    0.2280   -0.8790 C   0  0  2  0  0  0  0  0  0  0  0  0
    4.3810    0.3420    0.4870 C   0  0  0  0  0  0  0  0  0  0  0  0
    4.3250   -0.9250    1.2620 C   0  0  0  0  0  0  0  0  0  0  0  0
    3.8420   -1.9490    0.7350 O   0  0  0  0  0  0  0  0  0  0  0  0
    4.8080   -0.9940    2.5870 N   0  0  0  0  0  0  0  0  0  0  0  0
    4.7430   -2.1720    3.2730 O   0  0  0  0  0  0  0  0  0  0  0  0
    2.3430   -0.0380   -0.8530 C   0  0  0  0  0  0  0  0  0  0  0  0
    1.8700   -0.9500   -1.5560 O   0  0  0  0  0  0  0  0  0  0  0  0
    1.4610    0.7070   -0.0630 N   0  0  0  0  0  0  0  0  0  0  0  0
    0.0420    0.4260   -0.0610 C   0  0  1  0  0  0  0  0  0  0  0  0
   -0.4660    0.1200    1.2850 C   0  0  0  0  0  0  0  0  0  0  0  0
   -1.9150   -0.1380    1.4760 C   0  0  0  0  0  0  0  0  0  0  0  0
   -2.7710   -1.0470    0.9000 C   0  0  0  0  0  0  0  0  0  0  0  0
   -3.9810   -0.8650    1.4240 N   0  0  0  0  0  0  0  0  0  0  0  0
   -3.9520    0.1590    2.3490 C   0  0  0  0  0  0  0  0  0  0  0  0
   -4.9390    0.7340    3.1640 C   0  0  0  0  0  0  0  0  0  0  0  0
   -4.5800    1.7670    3.9990 C   0  0  0  0  0  0  0  0  0  0  0  0
   -3.2990    2.2510    4.0620 C   0  0  0  0  0  0  0  0  0  0  0  0
   -2.3440    1.6820    3.2610 C   0  0  0  0  0  0  0  0  0  0  0  0
   -2.6700    0.6310    2.4000 C   0  0  0  0  0  0  0  0  0  0  0  0
   -5.2420   -1.5860    1.1380 C   0  0  0  0  0  0  0  0  0  0  0  0
   -5.7900   -1.4040   -0.2290 C   0  0  0  0  0  0  0  0  0  0  0  0
   -5.2050   -0.1530   -0.8970 C   0  0  0  0  0  0  0  0  0  0  0  0
   -4.3700   -0.4960   -2.1090 C   0  0  0  0  0  0  0  0  0  0  0  0
   -3.5090    0.6740   -2.4450 C   0  0  0  0  0  0  0  0  0  0  0  0
   -2.0390    0.3690   -2.4380 C   0  0  0  0  0  0  0  0  0  0  0  0
   -1.3370    1.5310   -1.9320 N   0  0  0  0  0  0  0  0  0  0  0  0
   -0.7290    1.5810   -0.6500 C   0  0  0  0  0  0  0  0  0  0  0  0
   -0.7920    2.6000    0.0880 O   0  0  0  0  0  0  0  0  0  0  0  0
  2  1  1  1
  2  3  1  0
  2  4  1  0
  5  4  1  1
  5  6  1  0
  5 11  1  0
  6  7  1  0
  7  8  2  0
  7  9  1  0
  9 10  1  0
 11 12  2  0
 11 13  1  0
 14 13  1  1
 14 15  1  0
 14 32  1  0
 15 16  1  0
 16 17  2  0
 16 24  1  0
 17 18  1  0
 18 19  1  0
 18 25  1  0
 19 20  2  0
 19 24  1  0
 20 21  1  0
 21 22  2  0
 22 23  1  0
 23 24  2  0
 25 26  1  0
 26 27  1  0
 27 28  1  0
 28 29  1  0
 29 30  1  0
 30 31  1  0
 31 32  1  0
 32 33  2  0
M  END
