
     RDKit          3D

 32 36  0  0  0  0  0  0  0  0999 V2000
   -0.2700   -0.4870    1.4020 C   0  0  0  0  0  0  0  0  0  0  0  0
    0.2490   -1.0880    0.1360 C   0  0  2  0  0  0  0  0  0  0  0  0
   -0.0770   -2.5850    0.3440 C   0  0  1  0  0  0  0  0  0  0  0  0
    0.5620   -3.1210    1.6070 C   0  0  0  0  0  0  0  0  0  0  0  0
    1.9940   -3.1480    1.3170 C   0  0  0  0  0  0  0  0  0  0  0  0
    2.4870   -2.2400    0.2590 C   0  0  0  0  0  0  0  0  0  0  0  0
    1.7240   -0.8890    0.1610 C   0  0  1  0  0  0  0  0  0  0  0  0
    2.3260   -0.2610   -1.0680 C   0  0  2  0  0  0  0  0  0  0  0  0
    1.7640   -0.9790   -2.1990 C   0  0  0  0  0  0  0  0  0  0  0  0
    0.3440   -0.3920   -2.3130 C   0  0  1  0  0  0  0  0  0  0  0  0
    0.5550    1.0250   -2.7210 C   0  0  0  0  0  0  0  0  0  0  0  0
   -0.1190   -1.0450   -3.4910 O   0  0  0  0  0  0  0  0  0  0  0  0
   -0.4990   -0.6810   -1.1060 C   0  0  2  0  0  0  0  0  0  0  0  0
   -1.4640    0.4770   -0.8340 C   0  0  1  0  0  0  0  0  0  0  0  0
   -2.3180    0.8650   -1.9760 C   0  0  0  0  0  0  0  0  0  0  0  0
   -2.6900    2.3470   -1.7640 C   0  0  0  0  0  0  0  0  0  0  0  0
   -3.0160    2.4720   -0.2940 C   0  0  0  0  0  0  0  0  0  0  0  0
   -3.3940    1.1200    0.2400 C   0  0  2  0  0  0  0  0  0  0  0  0
   -3.7060    1.3190    1.7300 C   0  0  0  0  0  0  0  0  0  0  0  0
   -4.7390    2.2580    1.8730 O   0  0  0  0  0  0  0  0  0  0  0  0
   -2.3740    0.1900    0.1780 O   0  0  0  0  0  0  0  0  0  0  0  0
   -1.4380   -1.7720   -1.6150 C   0  0  0  0  0  0  0  0  0  0  0  0
   -2.3060   -2.4290   -0.6360 C   0  0  0  0  0  0  0  0  0  0  0  0
   -1.5000   -2.9380    0.4880 C   0  0  0  0  0  0  0  0  0  0  0  0
    3.7240   -0.5130   -0.7450 N   0  0  0  0  0  0  0  0  0  0  0  0
    3.7970   -0.0910    0.6180 C   0  0  0  0  0  0  0  0  0  0  0  0
    4.8660    0.2190    1.2050 O   0  0  0  0  0  0  0  0  0  0  0  0
    2.3960   -0.0900    1.1880 C   0  0  1  0  0  0  0  0  0  0  0  0
    2.1500    1.2310    1.6730 C   0  0  0  0  0  0  0  0  0  0  0  0
    2.1680    2.4250    0.7620 C   0  0  0  0  0  0  0  0  0  0  0  0
    1.9320    3.7180    1.5900 C   0  0  0  0  0  0  0  0  0  0  0  0
    1.9660    4.7490    0.6730 O   0  0  0  0  0  0  0  0  0  0  0  0
  2  1  1  1
  2  3  1  0
  2  7  1  0
  2 13  1  0
  3  4  1  1
  3 24  1  0
  4  5  1  0
  5  6  1  0
  7  6  1  1
  7  8  1  0
  7 28  1  0
  8  9  1  6
  8 25  1  0
  9 10  1  0
 10 11  1  6
 10 12  1  0
 10 13  1  0
 13 14  1  0
 13 22  1  6
 14 15  1  6
 14 21  1  0
 15 16  1  0
 16 17  1  0
 17 18  1  0
 18 19  1  1
 18 21  1  0
 19 20  1  0
 22 23  1  0
 23 24  1  0
 25 26  1  0
 26 27  2  0
 26 28  1  0
 28 29  1  6
 29 30  1  0
 30 31  1  0
 31 32  1  0
M  END
