
     RDKit          3D

 32 34  0  0  0  0  0  0  0  0999 V2000
    4.7730   -2.2640   -1.4720 C   0  0  0  0  0  0  0  0  0  0  0  0
    4.8410   -0.8130   -2.0190 C   0  0  2  0  0  0  0  0  0  0  0  0
    6.2160   -0.5910   -2.4940 C   0  0  0  0  0  0  0  0  0  0  0  0
    4.3280    0.0180   -0.9150 C   0  0  2  0  0  0  0  0  0  0  0  0
    2.8980   -0.3710   -0.6440 C   0  0  0  0  0  0  0  0  0  0  0  0
    1.9230    0.5120   -1.4040 C   0  0  1  0  0  0  0  0  0  0  0  0
    0.6110   -0.0490   -1.5020 C   0  0  0  0  0  0  0  0  0  0  0  0
   -0.2320   -0.3800   -0.3120 C   0  0  2  0  0  0  0  0  0  0  0  0
   -1.4780   -1.0440   -0.9290 C   0  0  0  0  0  0  0  0  0  0  0  0
   -2.7160   -0.5540   -0.2070 C   0  0  1  0  0  0  0  0  0  0  0  0
   -3.8890   -1.4370   -0.5050 C   0  0  2  0  0  0  0  0  0  0  0  0
   -3.9280   -1.4530   -2.0870 C   0  0  0  0  0  0  0  0  0  0  0  0
   -5.2150   -0.7200   -0.2340 C   0  0  0  0  0  0  0  0  0  0  0  0
   -5.3580    0.3640   -1.1510 O   0  0  0  0  0  0  0  0  0  0  0  0
   -3.8870   -2.8160   -0.0820 C   0  0  0  0  0  0  0  0  0  0  0  0
   -5.0960   -3.4540   -0.4940 O   0  0  0  0  0  0  0  0  0  0  0  0
   -2.3290   -0.6920    1.2900 C   0  0  0  0  0  0  0  0  0  0  0  0
   -1.5610    0.5500    1.6150 C   0  0  1  0  0  0  0  0  0  0  0  0
   -0.6220    0.8500    0.4370 C   0  0  0  0  0  0  0  0  0  0  0  0
   -2.5600    1.7000    1.7470 C   0  0  2  0  0  0  0  0  0  0  0  0
   -1.9960    2.8620    1.3010 O   0  0  0  0  0  0  0  0  0  0  0  0
   -2.8170    1.6210    3.2600 C   0  0  2  0  0  0  0  0  0  0  0  0
   -2.9370    3.0450    3.6370 C   0  0  0  0  0  0  0  0  0  0  0  0
   -3.0310    4.2840    3.9850 N   0  0  0  0  0  0  0  0  0  0  0  0
   -1.9750    0.8500    3.8450 O   0  0  0  0  0  0  0  0  0  0  0  0
   -0.9100    0.5720    2.9130 C   0  0  2  0  0  0  0  0  0  0  0  0
    0.0720    1.6800    3.1980 C   0  0  0  0  0  0  0  0  0  0  0  0
   -0.3130   -0.7280    3.4370 C   0  0  0  0  0  0  0  0  0  0  0  0
    2.1450    1.9520   -1.1520 C   0  0  0  0  0  0  0  0  0  0  0  0
    3.5900    2.2480   -1.6830 C   0  0  0  0  0  0  0  0  0  0  0  0
    4.5110    1.4540   -0.8500 C   0  0  2  0  0  0  0  0  0  0  0  0
    5.8470    1.8680   -0.9580 O   0  0  0  0  0  0  0  0  0  0  0  0
  2  1  1  1
  2  3  1  0
  2  4  1  0
  4  5  1  6
  4 31  1  0
  5  6  1  0
  6  7  1  1
  6 29  1  0
  8  7  1  6
  8  9  1  0
  8 19  1  0
 10  9  1  6
 10 11  1  0
 10 17  1  0
 11 12  1  6
 11 13  1  0
 11 15  1  0
 13 14  1  0
 15 16  1  0
 18 17  1  6
 18 19  1  0
 18 20  1  0
 18 26  1  0
 20 21  1  1
 20 22  1  0
 22 23  1  1
 22 25  1  0
 23 24  3  0
 25 26  1  0
 26 27  1  6
 26 28  1  0
 29 30  1  0
 30 31  1  0
 31 32  1  6
M  END
