
     RDKit          3D

 32 34  0  0  0  0  0  0  0  0999 V2000
    1.8520    0.4230   -1.4370 C   0  0  0  0  0  0  0  0  0  0  0  0
    0.7400    0.3990   -0.7300 C   0  0  0  0  0  0  0  0  0  0  0  0
    0.7650    0.2980    0.6990 C   0  0  0  0  0  0  0  0  0  0  0  0
    1.7180    0.2210    1.4790 N   0  0  0  0  0  0  0  0  0  0  0  0
    3.0830    0.2010    1.3390 C   0  0  0  0  0  0  0  0  0  0  0  0
    3.9670    1.2960    1.3970 C   0  0  0  0  0  0  0  0  0  0  0  0
    5.2420    0.8340    1.2100 C   0  0  0  0  0  0  0  0  0  0  0  0
    6.4910    1.4650    1.1700 C   0  0  0  0  0  0  0  0  0  0  0  0
    7.6400    0.7330    0.9600 C   0  0  0  0  0  0  0  0  0  0  0  0
    8.9110    1.3890    0.9210 N   0  0  0  0  0  0  0  0  0  0  0  0
    7.5470   -0.6310    0.7870 C   0  0  0  0  0  0  0  0  0  0  0  0
    9.0110   -1.5720    0.5170 S   0  0  1  0  0  0  0  0  0  0  0  0
    9.4360   -1.3640   -0.9250 O   0  0  0  0  0  0  0  0  0  0  0  0
   10.0940   -1.1950    1.4700 O   0  0  0  0  0  0  0  0  0  0  0  0
    6.3090   -1.2270    0.8310 C   0  0  0  0  0  0  0  0  0  0  0  0
    5.1220   -0.5230    1.0420 C   0  0  0  0  0  0  0  0  0  0  0  0
    3.8770   -0.8470    1.1210 O   0  0  0  0  0  0  0  0  0  0  0  0
   -0.4460    0.4800   -1.5060 N   0  0  0  0  0  0  0  0  0  0  0  0
   -1.7800    0.4810   -1.0870 C   0  0  0  0  0  0  0  0  0  0  0  0
   -2.0510    0.4020    0.1250 O   0  0  0  0  0  0  0  0  0  0  0  0
   -2.9240    0.5750   -2.0540 C   0  0  0  0  0  0  0  0  0  0  0  0
   -4.1890    0.5540   -1.3540 N   0  0  0  0  0  0  0  0  0  0  0  0
   -4.9480   -0.6080   -1.0310 C   0  0  0  0  0  0  0  0  0  0  0  0
   -4.5980   -1.8540   -1.3290 C   0  0  0  0  0  0  0  0  0  0  0  0
   -6.1640   -0.2280   -0.3250 C   0  0  0  0  0  0  0  0  0  0  0  0
   -7.2070   -0.9760   -0.0790 C   0  0  0  0  0  0  0  0  0  0  0  0
   -8.3670   -0.4940    0.6350 C   0  0  0  0  0  0  0  0  0  0  0  0
   -9.4280   -1.2500    0.8870 C   0  0  0  0  0  0  0  0  0  0  0  0
   -9.4080   -2.5610    0.4380 O   0  0  0  0  0  0  0  0  0  0  0  0
   -5.9900    1.1910    0.0670 C   0  0  0  0  0  0  0  0  0  0  0  0
   -4.9240    1.6640   -0.8530 C   0  0  0  0  0  0  0  0  0  0  0  0
   -4.6630    2.8500   -1.1780 O   0  0  0  0  0  0  0  0  0  0  0  0
  1  2  2  0
  2  3  1  0
  2 18  1  0
  3  4  2  3
  4  5  1  0
  5  6  2  0
  5 17  1  0
  6  7  1  0
  7  8  2  0
  7 16  1  0
  8  9  1  0
  9 10  1  0
  9 11  2  0
 12 11  1  1
 11 15  1  0
 12 13  2  0
 12 14  2  0
 15 16  2  0
 16 17  1  0
 18 19  1  0
 19 20  2  0
 19 21  1  0
 21 22  1  0
 22 23  1  0
 22 31  1  0
 23 24  2  0
 23 25  1  0
 25 26  2  3
 25 30  1  0
 26 27  1  0
 27 28  2  3
 28 29  1  0
 30 31  1  0
 31 32  2  0
M  END
