
     RDKit          3D

 33 36  0  0  0  0  0  0  0  0999 V2000
   -4.4500    3.9450   -1.4970 C   0  0  0  0  0  0  0  0  0  0  0  0
   -3.2900    3.1220   -1.9610 C   0  0  0  0  0  0  0  0  0  0  0  0
   -3.0130    1.9950   -1.1760 O   0  0  0  0  0  0  0  0  0  0  0  0
   -2.5650    2.0460    0.1190 C   0  0  0  0  0  0  0  0  0  0  0  0
   -2.3240    3.2760    0.7190 C   0  0  0  0  0  0  0  0  0  0  0  0
   -1.9070    3.3280    2.0210 C   0  0  0  0  0  0  0  0  0  0  0  0
   -1.7410    2.1570    2.7220 C   0  0  0  0  0  0  0  0  0  0  0  0
   -1.9700    0.9090    2.1240 C   0  0  0  0  0  0  0  0  0  0  0  0
   -2.3710    0.8970    0.8330 C   0  0  0  0  0  0  0  0  0  0  0  0
   -2.2400   -0.4200    0.0130 C   0  0  1  0  0  0  0  0  0  0  0  0
   -0.9710   -0.2920   -0.5890 N   0  0  0  0  0  0  0  0  0  0  0  0
    0.1090    0.3500   -0.0790 C   0  0  1  0  0  0  0  0  0  0  0  0
    0.9480    0.0930    1.0940 C   0  0  0  0  0  0  0  0  0  0  0  0
    1.9490    1.2980    0.9310 C   0  0  0  0  0  0  0  0  0  0  0  0
    2.4210    0.9850   -0.4480 C   0  0  1  0  0  0  0  0  0  0  0  0
    3.5660    0.0910   -0.5030 N   0  0  1  0  0  0  0  0  0  0  0  0
    4.2070    0.4720   -1.8200 C   0  0  0  0  0  0  0  0  0  0  0  0
    4.5680    0.5410    0.4760 C   0  0  0  0  0  0  0  0  0  0  0  0
    5.8420   -0.1750    0.2280 C   0  0  0  0  0  0  0  0  0  0  0  0
    5.9140   -1.5840    0.2120 C   0  0  0  0  0  0  0  0  0  0  0  0
    7.1790   -2.1700    0.1050 C   0  0  0  0  0  0  0  0  0  0  0  0
    8.3060   -1.3950    0.0270 C   0  0  0  0  0  0  0  0  0  0  0  0
    8.2310   -0.0700    0.0560 N   0  0  0  0  0  0  0  0  0  0  0  0
    7.0030    0.4950    0.1540 C   0  0  0  0  0  0  0  0  0  0  0  0
    7.0180    1.7860    0.1960 O   0  0  0  0  0  0  0  0  0  0  0  0
    1.2230    0.4560   -1.1840 C   0  0  0  0  0  0  0  0  0  0  0  0
   -2.4420   -1.5690    0.8840 C   0  0  2  0  0  0  0  0  0  0  0  0
   -2.2000   -2.8560    0.0990 C   0  0  0  0  0  0  0  0  0  0  0  0
   -3.2720   -3.2770   -0.8150 C   0  0  0  0  0  0  0  0  0  0  0  0
   -4.3550   -3.9830   -0.0210 C   0  0  0  0  0  0  0  0  0  0  0  0
   -5.4530   -2.9700    0.1720 C   0  0  0  0  0  0  0  0  0  0  0  0
   -4.8890   -1.6270    0.3790 N   0  0  0  0  0  0  0  0  0  0  0  0
   -3.9020   -1.6110    1.4010 C   0  0  0  0  0  0  0  0  0  0  0  0
  1  2  1  0
  2  3  1  0
  3  4  1  0
  4  5  2  0
  4  9  1  0
  5  6  1  0
  6  7  2  0
  7  8  1  0
  8  9  2  0
  9 10  1  0
 10 11  1  1
 10 27  1  0
 12 11  1  6
 12 13  1  0
 12 26  1  0
 13 14  1  0
 15 14  1  1
 15 16  1  0
 15 26  1  0
 16 17  1  6
 16 18  1  0
 18 19  1  0
 19 20  2  0
 19 24  1  0
 20 21  1  0
 21 22  2  0
 22 23  1  0
 23 24  1  0
 24 25  2  0
 27 28  1  6
 27 33  1  0
 28 29  1  0
 29 30  1  0
 30 31  1  0
 31 32  1  0
 32 33  1  0
M  CHG  2  16   1  32   1
M  END
