
     RDKit          3D

 32 34  0  0  0  0  0  0  0  0999 V2000
    6.7550   -4.3140    0.2520 C   0  0  0  0  0  0  0  0  0  0  0  0
    5.2890   -3.3640   -0.2600 S   0  0  0  0  0  0  0  0  0  0  0  0
    5.7460   -2.0570   -1.4530 C   0  0  0  0  0  0  0  0  0  0  0  0
    6.6060   -1.0250   -0.8100 C   0  0  0  0  0  0  0  0  0  0  0  0
    5.9940   -0.3930    0.2400 O   0  0  0  0  0  0  0  0  0  0  0  0
    4.9050    0.4200    0.2000 C   0  0  0  0  0  0  0  0  0  0  0  0
    4.2020    0.8180   -0.9090 C   0  0  0  0  0  0  0  0  0  0  0  0
    3.0820    1.6610   -0.8280 C   0  0  0  0  0  0  0  0  0  0  0  0
    2.6300    2.1360    0.3810 C   0  0  0  0  0  0  0  0  0  0  0  0
    1.4740    3.0140    0.4440 C   0  0  0  0  0  0  0  0  0  0  0  0
    0.1550    2.6520    0.3850 C   0  0  0  0  0  0  0  0  0  0  0  0
   -0.3590    1.3330    0.2500 N   0  0  0  0  0  0  0  0  0  0  0  0
   -1.7820    1.0980    0.1950 C   0  0  0  0  0  0  0  0  0  0  0  0
   -2.5090    2.1110    0.2700 O   0  0  0  0  0  0  0  0  0  0  0  0
   -2.3440   -0.1990    0.0630 N   0  0  0  0  0  0  0  0  0  0  0  0
   -3.7580   -0.4210    0.0070 C   0  0  2  0  0  0  0  0  0  0  0  0
   -4.0680   -1.8500   -0.1240 C   0  0  0  0  0  0  0  0  0  0  0  0
   -3.1760   -2.7490   -0.1700 O   0  0  0  0  0  0  0  0  0  0  0  0
   -5.3860   -2.2740   -0.2060 O   0  0  0  0  0  0  0  0  0  0  0  0
   -5.7390   -3.6490   -0.3340 C   0  0  0  0  0  0  0  0  0  0  0  0
   -7.2600   -3.7280   -0.4000 C   0  0  0  0  0  0  0  0  0  0  0  0
   -7.8590   -3.2120    0.7280 O   0  0  0  0  0  0  0  0  0  0  0  0
   -4.4080    0.3200   -1.1510 C   0  0  0  0  0  0  0  0  0  0  0  0
   -5.5950    0.9770   -0.5190 C   0  0  0  0  0  0  0  0  0  0  0  0
   -5.8100    0.2650    0.6770 O   0  0  0  0  0  0  0  0  0  0  0  0
   -4.5080    0.1180    1.1970 C   0  0  0  0  0  0  0  0  0  0  0  0
   -0.5500    3.7710    0.4790 N   0  0  0  0  0  0  0  0  0  0  0  0
    0.2100    4.8380    0.5960 N   0  0  0  0  0  0  0  0  0  0  0  0
    1.4780    4.3990    0.5780 C   0  0  0  0  0  0  0  0  0  0  0  0
    2.6780    5.2680    0.6850 C   0  0  0  0  0  0  0  0  0  0  0  0
    3.3360    1.7370    1.4940 C   0  0  0  0  0  0  0  0  0  0  0  0
    4.4290    0.9160    1.4340 C   0  0  0  0  0  0  0  0  0  0  0  0
  1  2  1  0
  2  3  1  0
  3  4  1  0
  4  5  1  0
  5  6  1  0
  6  7  2  0
  6 32  1  0
  7  8  1  0
  8  9  2  0
  9 10  1  0
  9 31  1  0
 10 11  1  0
 10 29  2  0
 11 12  1  0
 11 27  2  0
 12 13  1  0
 13 14  2  0
 13 15  1  0
 16 15  1  1
 16 17  1  0
 16 23  1  0
 16 26  1  0
 17 18  2  0
 17 19  1  0
 19 20  1  0
 20 21  1  0
 21 22  1  0
 23 24  1  0
 24 25  1  0
 25 26  1  0
 27 28  1  0
 28 29  1  0
 29 30  1  0
 31 32  2  0
M  END
