
     RDKit          3D

 33 37  0  0  0  0  0  0  0  0999 V2000
    5.9950   -0.6510   -1.0580 O   0  0  0  0  0  0  0  0  0  0  0  0
    5.3210    0.3160   -0.6290 C   0  0  0  0  0  0  0  0  0  0  0  0
    5.7950    1.6880   -0.8840 C   0  0  0  0  0  0  0  0  0  0  0  0
    7.0170    1.6620   -1.5390 O   0  0  0  0  0  0  0  0  0  0  0  0
    8.1390    1.1210   -0.9630 C   0  0  0  0  0  0  0  0  0  0  0  0
    8.1070    0.6020    0.3060 C   0  0  0  0  0  0  0  0  0  0  0  0
    9.2780    0.0560    0.8580 C   0  0  0  0  0  0  0  0  0  0  0  0
   10.4170    0.0520    0.1230 C   0  0  0  0  0  0  0  0  0  0  0  0
   10.4740    0.5700   -1.1570 C   0  0  0  0  0  0  0  0  0  0  0  0
    9.3290    1.0970   -1.6780 C   0  0  0  0  0  0  0  0  0  0  0  0
    4.1300    0.0600    0.0870 N   0  0  0  0  0  0  0  0  0  0  0  0
    3.7550   -1.3120    0.3040 C   0  0  0  0  0  0  0  0  0  0  0  0
    2.4560   -1.4740    1.0200 C   0  0  0  0  0  0  0  0  0  0  0  0
    1.4600   -0.4040    0.6220 C   0  0  1  0  0  0  0  0  0  0  0  0
    1.3130   -0.3310   -0.8750 C   0  0  0  0  0  0  0  0  0  0  0  0
    0.7490   -1.6330   -1.4040 C   0  0  0  0  0  0  0  0  0  0  0  0
   -0.4660   -2.0250   -0.6150 C   0  0  0  0  0  0  0  0  0  0  0  0
   -0.9370   -0.8730    0.2620 C   0  0  1  0  0  0  0  0  0  0  0  0
   -2.2110   -1.2450    0.8000 N   0  0  0  0  0  0  0  0  0  0  0  0
   -3.2720   -0.2800    0.4710 C   0  0  1  0  0  0  0  0  0  0  0  0
   -3.4770   -0.1160   -0.9880 C   0  0  0  0  0  0  0  0  0  0  0  0
   -4.6300   -0.8300   -1.5910 C   0  0  0  0  0  0  0  0  0  0  0  0
   -5.5740   -1.4250   -0.5850 C   0  0  0  0  0  0  0  0  0  0  0  0
   -5.7260   -0.6190    0.5910 N   0  0  0  0  0  0  0  0  0  0  0  0
   -6.2210    0.6910    0.3820 C   0  0  0  0  0  0  0  0  0  0  0  0
   -7.6520    0.7630   -0.0760 C   0  0  2  0  0  0  0  0  0  0  0  0
   -8.1460    2.1860   -0.2930 C   0  0  0  0  0  0  0  0  0  0  0  0
   -8.7570    2.1260    1.1110 C   0  0  0  0  0  0  0  0  0  0  0  0
   -8.5930    0.6850    1.0410 N   0  0  0  0  0  0  0  0  0  0  0  0
   -4.4690   -0.5760    1.2940 C   0  0  0  0  0  0  0  0  0  0  0  0
    0.1340   -0.6830    1.3000 C   0  0  0  0  0  0  0  0  0  0  0  0
    2.0410    0.9170    1.1200 C   0  0  0  0  0  0  0  0  0  0  0  0
    3.3700    1.1870    0.5420 C   0  0  0  0  0  0  0  0  0  0  0  0
  1  2  2  0
  2  3  1  0
  2 11  1  0
  3  4  1  0
  4  5  1  0
  5  6  2  0
  5 10  1  0
  6  7  1  0
  7  8  2  0
  8  9  1  0
  9 10  2  0
 11 12  1  0
 11 33  1  0
 12 13  1  0
 14 13  1  6
 14 15  1  0
 14 31  1  0
 14 32  1  0
 15 16  1  0
 16 17  1  0
 17 18  1  0
 18 19  1  1
 18 31  1  0
 20 19  1  6
 20 21  1  0
 20 30  1  0
 21 22  1  0
 22 23  1  0
 23 24  1  0
 24 25  1  0
 24 30  1  0
 26 25  1  1
 26 27  1  0
 26 29  1  0
 27 28  1  0
 28 29  1  0
 32 33  1  0
M  CHG  2  19   1  29   1
M  END
