
     RDKit          3D

 33 35  0  0  0  0  0  0  0  0999 V2000
   -5.4940    1.1680   -1.5020 C   0  0  0  0  0  0  0  0  0  0  0  0
   -5.2670    1.5760   -0.0580 C   0  0  2  0  0  0  0  0  0  0  0  0
   -5.0620    3.1350   -0.1610 C   0  0  0  0  0  0  0  0  0  0  0  0
   -4.0160    1.0820    0.5100 C   0  0  0  0  0  0  0  0  0  0  0  0
   -3.6520   -0.3110    0.6150 C   0  0  2  0  0  0  0  0  0  0  0  0
   -4.3580   -1.3330    1.3830 C   0  0  0  0  0  0  0  0  0  0  0  0
   -6.0190   -1.7450    1.0250 S   0  0  1  0  0  0  0  0  0  0  0  0
   -6.2610   -2.2650   -0.6400 C   0  0  0  0  0  0  0  0  0  0  0  0
   -6.4010   -3.0640    1.8910 N   0  0  0  0  0  0  0  0  0  0  0  0
   -7.0340   -0.6960    1.4370 N   0  0  0  0  0  0  0  0  0  0  0  0
   -2.1870   -0.4150    1.0280 C   0  0  0  0  0  0  0  0  0  0  0  0
   -1.9090   -0.9770    2.1070 O   0  0  0  0  0  0  0  0  0  0  0  0
   -1.1380    0.0990    0.2400 N   0  0  0  0  0  0  0  0  0  0  0  0
    0.2640    0.0100    0.6180 C   0  0  1  0  0  0  0  0  0  0  0  0
    1.0700   -0.8020   -0.3010 C   0  0  0  0  0  0  0  0  0  0  0  0
    2.5150   -1.0560    0.0400 C   0  0  0  0  0  0  0  0  0  0  0  0
    3.4090   -0.2800    0.7250 C   0  0  0  0  0  0  0  0  0  0  0  0
    4.6050   -0.8910    0.6790 N   0  0  0  0  0  0  0  0  0  0  0  0
    4.4850   -2.0660   -0.0270 C   0  0  0  0  0  0  0  0  0  0  0  0
    5.3880   -3.0770   -0.3710 C   0  0  0  0  0  0  0  0  0  0  0  0
    4.9990   -4.1710   -1.0980 C   0  0  0  0  0  0  0  0  0  0  0  0
    3.6990   -4.2920   -1.5060 C   0  0  0  0  0  0  0  0  0  0  0  0
    2.7800   -3.3070   -1.1810 C   0  0  0  0  0  0  0  0  0  0  0  0
    3.1930   -2.2110   -0.4470 C   0  0  0  0  0  0  0  0  0  0  0  0
    5.8960   -0.4260    1.1860 C   0  0  0  0  0  0  0  0  0  0  0  0
    6.4360    0.7980    0.4710 C   0  0  0  0  0  0  0  0  0  0  0  0
    5.6070    2.0300    0.6500 C   0  0  0  0  0  0  0  0  0  0  0  0
    4.7460    2.3490   -0.5480 C   0  0  0  0  0  0  0  0  0  0  0  0
    3.5080    3.1250   -0.1930 C   0  0  0  0  0  0  0  0  0  0  0  0
    2.3030    2.5050   -0.8580 C   0  0  0  0  0  0  0  0  0  0  0  0
    1.1680    2.3910    0.0130 N   0  0  0  0  0  0  0  0  0  0  0  0
    0.7460    1.3860    0.8700 C   0  0  0  0  0  0  0  0  0  0  0  0
    0.7710    1.7030    2.1290 O   0  0  0  0  0  0  0  0  0  0  0  0
  2  1  1  6
  2  3  1  0
  2  4  1  0
  5  4  1  1
  5  6  1  0
  5 11  1  0
  6  7  1  0
  7  8  1  6
  7  9  2  0
  7 10  2  0
 11 12  2  0
 11 13  1  0
 14 13  1  6
 14 15  1  0
 14 32  1  0
 15 16  1  0
 16 17  2  0
 16 24  1  0
 17 18  1  0
 18 19  1  0
 18 25  1  0
 19 20  2  0
 19 24  1  0
 20 21  1  0
 21 22  2  0
 22 23  1  0
 23 24  2  0
 25 26  1  0
 26 27  1  0
 27 28  1  0
 28 29  1  0
 29 30  1  0
 30 31  1  0
 31 32  1  0
 32 33  2  0
M  END
