
     RDKit          3D

 32 34  0  0  0  0  0  0  0  0999 V2000
   -3.6270    3.2280    1.8780 C   0  0  0  0  0  0  0  0  0  0  0  0
   -2.9420    2.5940    0.7370 C   0  0  0  0  0  0  0  0  0  0  0  0
   -3.2970    1.2320    0.4050 C   0  0  0  0  0  0  0  0  0  0  0  0
   -2.5160    0.1580    0.7100 N   0  0  0  0  0  0  0  0  0  0  0  0
   -3.0900   -0.9750    0.2830 C   0  0  0  0  0  0  0  0  0  0  0  0
   -2.5630   -2.6820    0.3830 S   0  0  0  0  0  0  0  0  0  0  0  0
   -1.5710   -2.9860   -1.1270 C   0  0  0  0  0  0  0  0  0  0  0  0
   -0.3160   -2.2070   -0.9830 C   0  0  0  0  0  0  0  0  0  0  0  0
    0.4280   -2.1200   -1.9920 O   0  0  0  0  0  0  0  0  0  0  0  0
    0.0770   -1.5730    0.2070 N   0  0  0  0  0  0  0  0  0  0  0  0
    1.2610   -0.8550    0.2560 N   0  0  0  0  0  0  0  0  0  0  0  0
    2.5330   -1.3240   -0.1430 C   0  0  0  0  0  0  0  0  0  0  0  0
    2.6130   -2.5040   -0.5870 O   0  0  0  0  0  0  0  0  0  0  0  0
    3.7560   -0.4790   -0.0560 C   0  0  0  0  0  0  0  0  0  0  0  0
    4.9460   -1.1950   -0.5750 C   0  0  0  0  0  0  0  0  0  0  0  0
    4.8190   -2.3550   -1.0060 O   0  0  0  0  0  0  0  0  0  0  0  0
    6.2500   -0.5300   -0.5750 C   0  0  0  0  0  0  0  0  0  0  0  0
    7.4520   -0.9990   -1.0120 C   0  0  0  0  0  0  0  0  0  0  0  0
    8.3840   -0.0130   -0.8050 C   0  0  0  0  0  0  0  0  0  0  0  0
    7.6970    1.0490   -0.2350 C   0  0  0  0  0  0  0  0  0  0  0  0
    8.2650    2.3520    0.1760 C   0  0  2  0  0  0  0  0  0  0  0  0
    9.7680    2.2000    0.2730 C   0  0  0  0  0  0  0  0  0  0  0  0
    7.7990    2.6850    1.4520 O   0  0  0  0  0  0  0  0  0  0  0  0
    6.4490    0.6810   -0.1270 O   0  0  0  0  0  0  0  0  0  0  0  0
   -4.2530   -0.6330   -0.3030 N   0  0  0  0  0  0  0  0  0  0  0  0
   -4.3740    0.7080   -0.2260 C   0  0  0  0  0  0  0  0  0  0  0  0
   -5.5830    1.2930   -0.8110 C   0  0  0  0  0  0  0  0  0  0  0  0
   -6.6810    0.6060   -0.3500 O   0  0  0  0  0  0  0  0  0  0  0  0
   -6.6120   -0.7510   -0.3710 C   0  0  1  0  0  0  0  0  0  0  0  0
   -6.6920   -1.2430    1.0740 C   0  0  0  0  0  0  0  0  0  0  0  0
   -7.8180   -1.3070   -1.1230 C   0  0  0  0  0  0  0  0  0  0  0  0
   -5.3400   -1.3340   -0.9550 C   0  0  0  0  0  0  0  0  0  0  0  0
  1  2  1  0
  2  3  1  0
  3  4  1  0
  3 26  2  0
  4  5  2  0
  5  6  1  0
  5 25  1  0
  6  7  1  0
  7  8  1  0
  8  9  2  0
  8 10  1  0
 10 11  1  0
 11 12  1  0
 12 13  2  0
 12 14  1  0
 14 15  1  0
 15 16  2  0
 15 17  1  0
 17 18  2  0
 17 24  1  0
 18 19  1  0
 19 20  2  0
 20 21  1  0
 20 24  1  0
 21 22  1  1
 21 23  1  0
 25 26  1  0
 25 32  1  0
 26 27  1  0
 27 28  1  0
 28 29  1  0
 29 30  1  1
 29 31  1  0
 29 32  1  0
M  END
