
     RDKit          3D

 32 34  0  0  0  0  0  0  0  0999 V2000
   -3.2350    1.5600    3.8080 C   0  0  0  0  0  0  0  0  0  0  0  0
   -3.2060    0.1480    3.3380 C   0  0  0  0  0  0  0  0  0  0  0  0
   -2.7850   -0.0380    2.0180 O   0  0  0  0  0  0  0  0  0  0  0  0
   -3.4790    0.4990    0.9590 C   0  0  0  0  0  0  0  0  0  0  0  0
   -4.6260    1.2400    1.1400 C   0  0  0  0  0  0  0  0  0  0  0  0
   -5.2910    1.7610    0.0270 C   0  0  0  0  0  0  0  0  0  0  0  0
   -4.8190    1.5430   -1.2360 C   0  0  0  0  0  0  0  0  0  0  0  0
   -5.4440    2.0390   -2.3970 O   0  0  0  0  0  0  0  0  0  0  0  0
   -6.6350    2.8080   -2.2790 C   0  0  0  0  0  0  0  0  0  0  0  0
   -3.6490    0.7840   -1.3770 C   0  0  0  0  0  0  0  0  0  0  0  0
   -2.9540    0.2480   -0.3240 C   0  0  0  0  0  0  0  0  0  0  0  0
   -1.7950   -0.5390   -0.4210 N   0  0  0  0  0  0  0  0  0  0  0  0
   -1.0790   -0.8690   -1.5990 C   0  0  0  0  0  0  0  0  0  0  0  0
   -1.4950   -0.4140   -2.6890 O   0  0  0  0  0  0  0  0  0  0  0  0
    0.1290   -1.7350   -1.5230 C   0  0  2  0  0  0  0  0  0  0  0  0
   -0.2260   -3.0240   -0.8090 C   0  0  0  0  0  0  0  0  0  0  0  0
    1.1700   -4.1340   -0.6720 S   0  0  0  0  0  0  0  0  0  0  0  0
    0.6780   -5.6260    0.2010 C   0  0  0  0  0  0  0  0  0  0  0  0
    1.3230   -1.1090   -1.0880 N   0  0  0  0  0  0  0  0  0  0  0  0
    1.7850   -1.1550    0.1850 C   0  0  0  0  0  0  0  0  0  0  0  0
    1.1260   -1.7560    1.0460 O   0  0  0  0  0  0  0  0  0  0  0  0
    2.9490   -0.5550    0.5150 N   0  0  0  0  0  0  0  0  0  0  0  0
    3.7190    0.1130   -0.3550 C   0  0  0  0  0  0  0  0  0  0  0  0
    4.9180    0.7970   -0.3230 C   0  0  0  0  0  0  0  0  0  0  0  0
    5.7120    0.9490    0.9210 C   0  0  0  0  0  0  0  0  0  0  0  0
    7.1380    1.3570    0.6740 C   0  0  0  0  0  0  0  0  0  0  0  0
    7.3000    2.6060   -0.0040 N   0  0  0  0  0  0  0  0  0  0  0  0
    5.1450    1.2270   -1.5330 O   0  0  0  0  0  0  0  0  0  0  0  0
    4.2060    0.8880   -2.3540 C   0  0  0  0  0  0  0  0  0  0  0  0
    3.2390    0.1570   -1.6600 C   0  0  0  0  0  0  0  0  0  0  0  0
    2.0590   -0.4420   -2.0270 C   0  0  0  0  0  0  0  0  0  0  0  0
    1.6430   -0.3930   -3.2020 O   0  0  0  0  0  0  0  0  0  0  0  0
  1  2  1  0
  2  3  1  0
  3  4  1  0
  4  5  2  0
  4 11  1  0
  5  6  1  0
  6  7  2  0
  7  8  1  0
  7 10  1  0
  8  9  1  0
 10 11  2  0
 11 12  1  0
 12 13  1  0
 13 14  2  0
 13 15  1  0
 15 16  1  1
 15 19  1  0
 16 17  1  0
 17 18  1  0
 19 20  1  0
 19 31  1  0
 20 21  2  0
 20 22  1  0
 22 23  1  0
 23 24  2  0
 23 30  1  0
 24 25  1  0
 24 28  1  0
 25 26  1  0
 26 27  1  0
 28 29  1  0
 29 30  2  0
 30 31  1  0
 31 32  2  0
M  END
