
     RDKit          3D

 32 34  0  0  0  0  0  0  0  0999 V2000
    8.6750    3.6610    0.9800 C   0  0  0  0  0  0  0  0  0  0  0  0
    7.6760    2.9900    1.7640 O   0  0  0  0  0  0  0  0  0  0  0  0
    6.9400    1.9440    1.2290 C   0  0  0  0  0  0  0  0  0  0  0  0
    7.5330    1.1540    0.4070 N   0  0  0  0  0  0  0  0  0  0  0  0
    5.5210    1.7380    1.5880 C   0  0  0  0  0  0  0  0  0  0  0  0
    5.0360    0.6220    0.8430 O   0  0  0  0  0  0  0  0  0  0  0  0
    3.7250    0.1860    0.9690 C   0  0  0  0  0  0  0  0  0  0  0  0
    2.8670    0.8490    1.8410 C   0  0  0  0  0  0  0  0  0  0  0  0
    1.5690    0.4550    1.9960 C   0  0  0  0  0  0  0  0  0  0  0  0
    1.0700   -0.6350    1.2740 C   0  0  0  0  0  0  0  0  0  0  0  0
   -0.3040   -1.0740    1.4740 C   0  0  0  0  0  0  0  0  0  0  0  0
   -1.2220   -1.2420    0.5690 C   0  0  0  0  0  0  0  0  0  0  0  0
   -2.9280   -1.8090    0.9430 S   0  0  0  0  0  0  0  0  0  0  0  0
   -3.6480   -0.9440   -0.4730 C   0  0  0  0  0  0  0  0  0  0  0  0
   -4.8380   -0.5390   -0.5130 N   0  0  0  0  0  0  0  0  0  0  0  0
   -5.4690    0.1510   -1.5970 C   0  0  0  0  0  0  0  0  0  0  0  0
   -6.8830    0.4900   -1.1170 C   0  0  2  0  0  0  0  0  0  0  0  0
   -7.6420    1.2770   -2.1470 C   0  0  0  0  0  0  0  0  0  0  0  0
   -6.7210    1.2680    0.1660 C   0  0  0  0  0  0  0  0  0  0  0  0
   -7.3410    0.3860    1.2240 C   0  0  0  0  0  0  0  0  0  0  0  0
   -7.4730   -0.9440    0.5130 C   0  0  0  0  0  0  0  0  0  0  0  0
   -7.5320   -0.6830   -0.8300 O   0  0  0  0  0  0  0  0  0  0  0  0
   -2.5810   -0.8810   -1.3870 N   0  0  0  0  0  0  0  0  0  0  0  0
   -1.2990   -1.0340   -0.8620 C   0  0  0  0  0  0  0  0  0  0  0  0
   -0.2330   -0.9970   -1.5840 O   0  0  0  0  0  0  0  0  0  0  0  0
    1.9500   -1.2660    0.4220 C   0  0  0  0  0  0  0  0  0  0  0  0
    3.2710   -0.8890    0.2440 C   0  0  0  0  0  0  0  0  0  0  0  0
    4.1170   -1.5650   -0.6350 O   0  0  0  0  0  0  0  0  0  0  0  0
    3.5630   -2.6680   -1.3530 C   0  0  0  0  0  0  0  0  0  0  0  0
    4.5460   -3.3050   -2.2360 C   0  0  0  0  0  0  0  0  0  0  0  0
    5.8700   -2.8210   -2.2910 N   0  0  0  0  0  0  0  0  0  0  0  0
    4.2190   -4.2790   -2.9450 O   0  0  0  0  0  0  0  0  0  0  0  0
  1  2  1  0
  2  3  1  0
  3  4  2  0
  3  5  1  0
  5  6  1  0
  6  7  1  0
  7  8  2  0
  7 27  1  0
  8  9  1  0
  9 10  2  0
 10 11  1  0
 10 26  1  0
 11 12  2  3
 12 13  1  0
 12 24  1  0
 13 14  1  0
 14 15  2  3
 14 23  1  0
 15 16  1  0
 16 17  1  0
 17 18  1  6
 17 19  1  0
 17 22  1  0
 19 20  1  0
 20 21  1  0
 21 22  1  0
 23 24  1  0
 24 25  2  0
 26 27  2  0
 27 28  1  0
 28 29  1  0
 29 30  1  0
 30 31  1  0
 30 32  2  0
M  END
