
     RDKit          3D

 11 10  0  0  0  0  0  0  0  0999 V2000
   -1.1010    0.2700   -0.9750 C   0  0  0  0  0  0  0  0  0  0  0  0
   -0.7950   -0.1970    0.4450 C   0  0  2  0  0  0  0  0  0  0  0  0
   -0.2040   -1.4370    0.4280 O   0  0  0  0  0  0  0  0  0  0  0  0
    0.9880   -1.4680    0.9710 O   0  0  0  0  0  0  0  0  0  0  0  0
    1.6130   -0.2950    0.8170 O   0  0  0  0  0  0  0  0  0  0  0  0
    2.8770   -0.2080    0.2540 C   0  0  0  0  0  0  0  0  0  0  0  0
    3.4810   -1.2370   -0.1320 O   0  0  0  0  0  0  0  0  0  0  0  0
    3.4820    1.0500    0.1190 O   0  0  0  0  0  0  0  0  0  0  0  0
   -2.0900   -0.1740    1.1840 C   0  0  0  0  0  0  0  0  0  0  0  0
   -2.5770   -1.1900    1.7310 O   0  0  0  0  0  0  0  0  0  0  0  0
   -2.7640    1.0150    1.2620 O   0  0  0  0  0  0  0  0  0  0  0  0
  2  1  1  6
  2  3  1  0
  2  9  1  0
  3  4  1  0
  4  5  1  0
  5  6  1  0
  6  7  2  0
  6  8  1  0
  9 10  2  0
  9 11  1  0
M  END
