
     RDKit          3D

 24 23  0  0  0  0  0  0  0  0999 V2000
    7.5080    0.1960    0.3800 C   0  0  0  0  0  0  0  0  0  0  0  0
    6.5810    1.2610    0.0870 N   0  0  0  0  0  0  0  0  0  0  0  0
    5.3720    1.1420    0.4370 N   0  0  0  0  0  0  0  0  0  0  0  0
    4.9430    0.0120    1.0890 O   0  0  0  0  0  0  0  0  0  0  0  0
    4.5490   -1.4120    0.1270 P   0  0  0  0  0  0  0  0  0  0  0  0
    3.3360   -1.3510   -0.9990 C   0  0  0  0  0  0  0  0  0  0  0  0
    3.0580   -2.4900   -1.7320 O   0  0  0  0  0  0  0  0  0  0  0  0
    2.6160   -0.2050   -1.2090 O   0  0  0  0  0  0  0  0  0  0  0  0
    1.0900    0.1280   -0.4110 P   0  0  0  0  0  0  0  0  0  0  0  0
    1.2310   -0.0910    1.4390 C   0  0  0  0  0  0  0  0  0  0  0  0
   -0.2920   -0.8960   -1.0850 C   0  0  0  0  0  0  0  0  0  0  0  0
   -1.5670   -0.1780   -0.8730 C   0  0  0  0  0  0  0  0  0  0  0  0
   -1.5550    1.0010   -0.2800 C   0  0  0  0  0  0  0  0  0  0  0  0
   -2.8040    1.7410   -0.0540 C   0  0  0  0  0  0  0  0  0  0  0  0
   -4.0580    1.2400   -0.4530 N   0  0  0  0  0  0  0  0  0  0  0  0
   -2.7230    3.2080    0.6930 P   0  0  0  0  0  0  0  0  0  0  0  0
   -1.1110    3.8920    1.2260 C   0  0  0  0  0  0  0  0  0  0  0  0
   -2.7940   -0.7080   -1.2810 O   0  0  0  0  0  0  0  0  0  0  0  0
   -3.5520   -1.5170   -0.4470 C   0  0  0  0  0  0  0  0  0  0  0  0
   -3.0830   -1.7520    0.6950 O   0  0  0  0  0  0  0  0  0  0  0  0
   -4.8380   -2.0800   -0.8600 C   0  0  0  0  0  0  0  0  0  0  0  0
   -5.4850   -2.8210   -0.0340 N   0  0  0  0  0  0  0  0  0  0  0  0
   -5.3960   -1.8550   -2.0960 O   0  0  0  0  0  0  0  0  0  0  0  0
   -6.7410   -1.8420   -2.2920 O   0  0  0  0  0  0  0  0  0  0  0  0
  1  2  1  0
  2  3  2  3
  3  4  1  0
  4  5  1  0
  5  6  2  3
  6  7  1  0
  6  8  1  0
  8  9  1  0
  9 10  1  0
  9 11  1  0
 11 12  1  0
 12 13  2  3
 12 18  1  0
 13 14  1  0
 14 15  1  0
 14 16  2  3
 16 17  1  0
 18 19  1  0
 19 20  2  0
 19 21  1  0
 21 22  2  0
 21 23  1  0
 23 24  1  0
M  END
