
     RDKit          3D

 24 26  0  0  0  0  0  0  0  0999 V2000
    1.7590    1.2870    1.8270 C   0  0  0  0  0  0  0  0  0  0  0  0
    1.7800    0.0770    0.4010 P   0  0  0  0  0  0  0  0  0  0  0  0
    0.1230   -0.0990   -0.3790 C   0  0  0  0  0  0  0  0  0  0  0  0
   -0.9540    0.0280    0.5890 N   0  0  0  0  0  0  0  0  0  0  0  0
   -2.2070   -0.0930   -0.1220 C   0  0  2  0  0  0  0  0  0  0  0  0
   -3.4890    1.1680    0.3380 P   0  0  0  0  0  0  0  0  0  0  0  0
   -3.4600    2.5450   -0.9140 C   0  0  0  0  0  0  0  0  0  0  0  0
   -4.0750    3.6940   -0.4360 O   0  0  0  0  0  0  0  0  0  0  0  0
   -3.4560    4.0810    0.6330 O   0  0  0  0  0  0  0  0  0  0  0  0
   -4.1920   -0.3280   -0.2510 O   0  0  0  0  0  0  0  0  0  0  0  0
   -3.1420   -1.1850    0.2100 C   0  0  2  0  0  0  0  0  0  0  0  0
   -3.4170   -1.4580    1.6730 C   0  0  0  0  0  0  0  0  0  0  0  0
   -4.7810   -1.7370    1.7910 O   0  0  0  0  0  0  0  0  0  0  0  0
   -5.0690   -2.9710    1.4410 O   0  0  0  0  0  0  0  0  0  0  0  0
   -4.1410   -3.5930    0.1070 P   0  0  0  0  0  0  0  0  0  0  0  0
   -3.0530   -2.4660   -0.5200 C   0  0  0  0  0  0  0  0  0  0  0  0
   -2.1740   -2.7090   -1.6000 N   0  0  0  0  0  0  0  0  0  0  0  0
    2.8530    0.7530   -0.8120 O   0  0  0  0  0  0  0  0  0  0  0  0
    4.1240    0.4070   -0.5770 N   0  0  0  0  0  0  0  0  0  0  0  0
    5.2750    1.0410   -1.1250 C   0  0  0  0  0  0  0  0  0  0  0  0
    6.3820    0.2910   -0.7720 O   0  0  0  0  0  0  0  0  0  0  0  0
    6.0570   -0.5250    0.2690 C   0  0  0  0  0  0  0  0  0  0  0  0
    4.5750   -0.6740    0.2820 C   0  0  0  0  0  0  0  0  0  0  0  0
    3.7830   -1.4410    0.8400 N   0  0  0  0  0  0  0  0  0  0  0  0
  1  2  1  0
  2  3  1  0
  2 18  1  0
  3  4  1  0
  5  4  1  1
  5  6  1  0
  5 11  1  0
  6  7  1  0
  6 10  1  0
  7  8  1  0
  8  9  1  0
 10 11  1  0
 11 12  1  1
 11 16  1  0
 12 13  1  0
 13 14  1  0
 14 15  1  0
 15 16  2  0
 16 17  1  0
 18 19  1  0
 19 20  1  0
 19 23  1  0
 20 21  1  0
 21 22  1  0
 22 23  1  0
 23 24  2  0
M  END
