
     RDKit          3D

 24 25  0  0  0  0  0  0  0  0999 V2000
    4.5100    0.1090   -0.4100 C   0  0  0  0  0  0  0  0  0  0  0  0
    3.5260   -0.2750    0.3810 C   0  0  0  0  0  0  0  0  0  0  0  0
    3.9140   -0.8590    1.5920 O   0  0  0  0  0  0  0  0  0  0  0  0
    4.6780   -2.0670    1.4610 C   0  0  0  0  0  0  0  0  0  0  0  0
    2.1130   -0.1050    0.0230 C   0  0  0  0  0  0  0  0  0  0  0  0
    0.7420   -0.4700    0.9680 P   0  0  0  0  0  0  0  0  0  0  0  0
   -0.4860    0.5970    1.5550 C   0  0  0  0  0  0  0  0  0  0  0  0
   -0.7330    1.9160    1.2050 C   0  0  0  0  0  0  0  0  0  0  0  0
   -0.6080    2.8620    2.2530 O   0  0  0  0  0  0  0  0  0  0  0  0
   -1.0830    2.3630   -0.0630 C   0  0  0  0  0  0  0  0  0  0  0  0
   -0.3560    3.2570   -0.7580 O   0  0  0  0  0  0  0  0  0  0  0  0
   -0.9640    3.4360   -1.8670 O   0  0  0  0  0  0  0  0  0  0  0  0
   -2.0360    2.7130   -1.9270 N   0  0  0  0  0  0  0  0  0  0  0  0
   -2.1280    2.0100   -0.7630 C   0  0  0  0  0  0  0  0  0  0  0  0
   -3.1170    1.1640   -0.4320 N   0  0  0  0  0  0  0  0  0  0  0  0
   -2.9950   -0.0940    0.0250 C   0  0  0  0  0  0  0  0  0  0  0  0
   -3.6110   -0.3980    1.2310 O   0  0  0  0  0  0  0  0  0  0  0  0
   -3.5240   -1.6970    1.7670 C   0  0  0  0  0  0  0  0  0  0  0  0
   -2.3230   -1.0800   -0.5970 N   0  0  0  0  0  0  0  0  0  0  0  0
   -1.9890   -1.0910   -1.8380 O   0  0  0  0  0  0  0  0  0  0  0  0
   -0.5000   -1.4820   -2.4970 P   0  0  0  0  0  0  0  0  0  0  0  0
   -0.3070   -2.7790   -3.6820 O   0  0  0  0  0  0  0  0  0  0  0  0
    0.5160   -0.0990   -2.5990 N   0  0  0  0  0  0  0  0  0  0  0  0
    1.6670    0.5260   -1.5200 P   0  0  0  0  0  0  0  0  0  0  0  0
  1  2  2  0
  2  3  1  0
  2  5  1  0
  3  4  1  0
  5  6  2  0
  5 24  1  0
  6  7  1  0
  7  8  2  0
  8  9  1  0
  8 10  1  0
 10 11  1  0
 10 14  2  0
 11 12  1  0
 12 13  1  0
 13 14  1  0
 14 15  1  0
 15 16  1  0
 16 17  1  0
 16 19  2  0
 17 18  1  0
 19 20  1  0
 20 21  1  0
 21 22  1  0
 21 23  1  0
 23 24  2  0
M  END
