
     RDKit          3D

 16 16  0  0  0  0  0  0  0  0999 V2000
   -3.2190   -1.7270   -0.7330 N   0  0  0  0  0  0  0  0  0  0  0  0
   -2.0340   -1.1150   -0.2110 C   0  0  1  0  0  0  0  0  0  0  0  0
   -1.0000   -0.8110   -1.2910 C   0  0  1  0  0  0  0  0  0  0  0  0
   -1.3760    0.4010   -1.8820 O   0  0  0  0  0  0  0  0  0  0  0  0
    0.1660   -0.6020   -0.5880 O   0  0  0  0  0  0  0  0  0  0  0  0
    0.1980    0.5300    0.1670 C   0  0  2  0  0  0  0  0  0  0  0  0
    1.2850    0.3390    1.2320 C   0  0  0  0  0  0  0  0  0  0  0  0
    2.3070   -0.4420    0.7850 O   0  0  0  0  0  0  0  0  0  0  0  0
    3.5160    0.1470   -0.0730 P   0  0  0  0  0  0  0  0  0  0  0  0
    5.0850    0.2380    0.5700 O   0  0  0  0  0  0  0  0  0  0  0  0
    3.2980    0.7770   -1.5730 O   0  0  0  0  0  0  0  0  0  0  0  0
    3.9090   -1.2210   -0.6460 O   0  0  0  0  0  0  0  0  0  0  0  0
   -1.0550    0.9020    0.8730 C   0  0  1  0  0  0  0  0  0  0  0  0
   -1.2620    2.2800    0.6950 O   0  0  0  0  0  0  0  0  0  0  0  0
   -2.3000    0.2100    0.4480 C   0  0  2  0  0  0  0  0  0  0  0  0
   -3.1540   -0.0350    1.5330 O   0  0  0  0  0  0  0  0  0  0  0  0
  2  1  1  6
  2  3  1  0
  2 15  1  0
  3  4  1  1
  3  5  1  0
  5  6  1  0
  6  7  1  1
  6 13  1  0
  7  8  1  0
  8  9  1  0
  9 10  1  0
  9 11  1  0
  9 12  1  0
 13 14  1  6
 13 15  1  0
 15 16  1  1
M  CHG  1   1   1
M  END
