
     RDKit          3D

 24 25  0  0  0  0  0  0  0  0999 V2000
   -4.0310    1.7560   -0.1230 C   0  0  0  0  0  0  0  0  0  0  0  0
   -3.9740    0.8470   -1.1910 O   0  0  0  0  0  0  0  0  0  0  0  0
   -3.3930   -0.7090   -0.5960 P   0  0  0  0  0  0  0  0  0  0  0  0
   -4.7870   -1.5940   -0.1200 O   0  0  0  0  0  0  0  0  0  0  0  0
   -2.1200   -0.4650    0.6900 C   0  0  0  0  0  0  0  0  0  0  0  0
   -1.0470   -1.3750    0.8210 N   0  0  0  0  0  0  0  0  0  0  0  0
    0.2320   -0.7520    0.4740 C   0  0  2  0  0  0  0  0  0  0  0  0
    1.2470   -1.6850    0.6590 O   0  0  0  0  0  0  0  0  0  0  0  0
    2.1050   -1.5840    2.1330 P   0  0  0  0  0  0  0  0  0  0  0  0
    3.7710   -0.9250    1.7450 N   0  0  0  0  0  0  0  0  0  0  0  0
    3.8790    0.6280    1.3740 P   0  0  0  0  0  0  0  0  0  0  0  0
    5.3800    1.5890    0.9420 C   0  0  0  0  0  0  0  0  0  0  0  0
    1.3400   -0.2710    3.0800 O   0  0  0  0  0  0  0  0  0  0  0  0
    0.9700    0.8130    2.2960 C   0  0  0  0  0  0  0  0  0  0  0  0
    1.1020    2.1840    2.7280 N   0  0  0  0  0  0  0  0  0  0  0  0
    0.4730    0.5320    1.1120 C   0  0  0  0  0  0  0  0  0  0  0  0
    0.0680    1.5450    0.0550 C   0  0  0  0  0  0  0  0  0  0  0  0
   -0.0910    0.9460   -1.0970 C   0  0  0  0  0  0  0  0  0  0  0  0
    0.1770   -0.4740   -0.9550 N   0  0  0  0  0  0  0  0  0  0  0  0
    0.3410   -1.3520   -2.0220 N   0  0  0  0  0  0  0  0  0  0  0  0
    0.1830   -0.7890   -3.3870 C   0  0  0  0  0  0  0  0  0  0  0  0
    0.6240   -2.7150   -1.9910 C   0  0  0  0  0  0  0  0  0  0  0  0
    0.7600   -3.3630   -3.1030 O   0  0  0  0  0  0  0  0  0  0  0  0
    0.7880   -3.5400   -0.8900 O   0  0  0  0  0  0  0  0  0  0  0  0
  1  2  1  0
  2  3  1  0
  3  4  1  0
  3  5  1  0
  5  6  1  0
  7  6  1  1
  7  8  1  0
  7 16  1  0
  7 19  1  0
  8  9  1  0
  9 10  1  0
  9 13  1  0
 10 11  2  3
 11 12  1  0
 13 14  1  0
 14 15  1  0
 14 16  2  0
 16 17  1  0
 17 18  2  0
 18 19  1  0
 19 20  1  0
 20 21  1  0
 20 22  1  0
 22 23  2  0
 22 24  1  0
M  END
