
     RDKit          3D

 24 25  0  0  0  0  0  0  0  0999 V2000
    0.3000   -4.2960   -0.2550 C   0  0  0  0  0  0  0  0  0  0  0  0
   -0.1040   -3.1260    0.6780 C   0  0  0  0  0  0  0  0  0  0  0  0
   -1.0390   -2.4650   -0.1420 O   0  0  0  0  0  0  0  0  0  0  0  0
   -0.6210   -0.8890   -0.3700 P   0  0  0  0  0  0  0  0  0  0  0  0
    0.3540    0.1040    0.6710 C   0  0  0  0  0  0  0  0  0  0  0  0
    1.6020    0.6630   -0.0120 C   0  0  0  0  0  0  0  0  0  0  0  0
    2.1510   -0.1410   -0.9640 C   0  0  0  0  0  0  0  0  0  0  0  0
    3.5280   -0.0400   -1.2040 C   0  0  0  0  0  0  0  0  0  0  0  0
    4.3160    0.8630   -0.4720 C   0  0  0  0  0  0  0  0  0  0  0  0
    5.7010    0.5920   -0.3950 N   0  0  0  0  0  0  0  0  0  0  0  0
    6.8400    1.3670   -0.2530 C   0  0  0  0  0  0  0  0  0  0  0  0
    7.9490    0.4430   -0.2170 O   0  0  0  0  0  0  0  0  0  0  0  0
    3.7090    1.6760    0.4720 C   0  0  0  0  0  0  0  0  0  0  0  0
    2.3310    1.5710    0.7010 C   0  0  0  0  0  0  0  0  0  0  0  0
   -1.6550   -0.0600   -1.4630 O   0  0  0  0  0  0  0  0  0  0  0  0
   -2.5970    0.7380   -0.7360 C   0  0  0  0  0  0  0  0  0  0  0  0
   -3.8680    0.3410   -0.8090 C   0  0  0  0  0  0  0  0  0  0  0  0
   -4.8440    1.1270   -0.0960 C   0  0  0  0  0  0  0  0  0  0  0  0
   -6.0890    0.7970   -0.1070 C   0  0  0  0  0  0  0  0  0  0  0  0
   -6.7860   -0.2810   -0.6780 C   0  0  0  0  0  0  0  0  0  0  0  0
   -6.9100    1.8050    0.5900 O   0  0  0  0  0  0  0  0  0  0  0  0
   -4.3670    2.2340    0.6020 O   0  0  0  0  0  0  0  0  0  0  0  0
   -3.0050    2.6120    0.6740 C   0  0  0  0  0  0  0  0  0  0  0  0
   -2.1480    1.8590   -0.0100 C   0  0  0  0  0  0  0  0  0  0  0  0
  1  2  1  0
  2  3  1  0
  3  4  1  0
  4  5  1  0
  4 15  1  0
  5  6  1  0
  6  7  2  0
  6 14  1  0
  7  8  1  0
  8  9  2  0
  9 10  1  0
  9 13  1  0
 10 11  1  0
 11 12  1  0
 13 14  2  0
 15 16  1  0
 16 17  2  0
 16 24  1  0
 17 18  1  0
 18 19  2  3
 18 22  1  0
 19 20  1  0
 19 21  1  0
 22 23  1  0
 23 24  2  0
M  END
