
     RDKit          3D

 13 13  0  0  0  0  0  0  0  0999 V2000
   -3.3330    1.3760   -0.6940 O   0  0  0  0  0  0  0  0  0  0  0  0
   -2.4650    0.4670   -0.6760 C   0  0  0  0  0  0  0  0  0  0  0  0
   -2.8490   -0.7680   -1.1940 O   0  0  0  0  0  0  0  0  0  0  0  0
   -1.0880    0.6690   -0.1350 C   0  0  1  0  0  0  0  0  0  0  0  0
   -1.0260    2.0030    0.3020 O   0  0  0  0  0  0  0  0  0  0  0  0
   -0.9390   -0.2040    1.0640 C   0  0  0  0  0  0  0  0  0  0  0  0
    0.4010   -0.8190    1.2350 C   0  0  0  0  0  0  0  0  0  0  0  0
    1.4480    0.0360    0.8550 O   0  0  0  0  0  0  0  0  0  0  0  0
    1.8580   -0.4330   -0.4150 C   0  0  2  0  0  0  0  0  0  0  0  0
    2.6670    0.4690   -1.0560 O   0  0  0  0  0  0  0  0  0  0  0  0
    3.8470   -0.0830   -1.2420 O   0  0  0  0  0  0  0  0  0  0  0  0
    0.6590   -0.6810   -1.1120 O   0  0  0  0  0  0  0  0  0  0  0  0
   -0.0600    0.4820   -1.1880 C   0  0  0  0  0  0  0  0  0  0  0  0
  1  2  2  0
  2  3  1  0
  2  4  1  0
  4  5  1  1
  4  6  1  0
  4 13  1  0
  6  7  1  0
  7  8  1  0
  8  9  1  0
  9 10  1  6
  9 12  1  0
 10 11  1  0
 12 13  1  0
M  END
