
     RDKit          3D

 13 13  0  0  0  0  0  0  0  0999 V2000
   -3.4660   -0.6000    1.9140 O   0  0  0  0  0  0  0  0  0  0  0  0
   -2.2990   -0.5710    1.4420 C   0  0  0  0  0  0  0  0  0  0  0  0
   -1.3920    0.2700    2.0280 O   0  0  0  0  0  0  0  0  0  0  0  0
   -1.9390   -1.4220    0.2940 C   0  0  0  0  0  0  0  0  0  0  0  0
   -0.6330   -1.2590   -0.0830 O   0  0  0  0  0  0  0  0  0  0  0  0
   -0.2550   -0.0030   -0.4700 C   0  0  2  0  0  0  0  0  0  0  0  0
    0.1670    0.0190   -1.8440 O   0  0  0  0  0  0  0  0  0  0  0  0
    1.4950   -0.3730   -1.9260 C   0  0  0  0  0  0  0  0  0  0  0  0
    2.0420   -1.0910   -2.8090 O   0  0  0  0  0  0  0  0  0  0  0  0
    2.1420    0.2450   -0.7300 C   0  0  0  0  0  0  0  0  0  0  0  0
    0.9750    0.4960    0.2230 C   0  0  1  0  0  0  0  0  0  0  0  0
    0.9150    1.8430    0.5810 O   0  0  0  0  0  0  0  0  0  0  0  0
    1.1190    2.0580    1.8410 O   0  0  0  0  0  0  0  0  0  0  0  0
  1  2  2  0
  2  3  1  0
  2  4  1  0
  4  5  1  0
  6  5  1  1
  6  7  1  0
  6 11  1  0
  7  8  1  0
  8  9  2  0
  8 10  1  0
 10 11  1  0
 11 12  1  6
 12 13  1  0
M  END
