
     RDKit          3D

 13 14  0  0  0  0  0  0  0  0999 V2000
    3.7910   -0.9400   -0.3350 O   0  0  0  0  0  0  0  0  0  0  0  0
    3.3380    0.0510    0.2820 C   0  0  0  0  0  0  0  0  0  0  0  0
    4.1860    0.8850    0.9480 O   0  0  0  0  0  0  0  0  0  0  0  0
    1.9730    0.2690    0.2680 O   0  0  0  0  0  0  0  0  0  0  0  0
    1.1160   -0.6120   -0.4310 C   0  0  0  0  0  0  0  0  0  0  0  0
   -0.3080   -0.2300   -0.3410 C   0  0  2  0  0  0  0  0  0  0  0  0
   -1.2630   -1.2810   -0.8640 C   0  0  0  0  0  0  0  0  0  0  0  0
   -2.4770   -0.8090   -0.3140 O   0  0  0  0  0  0  0  0  0  0  0  0
   -2.1100    0.1590    0.6180 C   0  0  2  0  0  0  0  0  0  0  0  0
   -2.9490    0.3070    1.6610 O   0  0  0  0  0  0  0  0  0  0  0  0
   -1.7680    1.4470   -0.1110 C   0  0  0  0  0  0  0  0  0  0  0  0
   -0.6370    1.0160   -0.8410 O   0  0  0  0  0  0  0  0  0  0  0  0
   -0.7870   -0.1950    0.9950 O   0  0  0  0  0  0  0  0  0  0  0  0
  1  2  2  0
  2  3  1  0
  2  4  1  0
  4  5  1  0
  6  5  1  1
  6  7  1  0
  6 12  1  0
  6 13  1  0
  7  8  1  0
  8  9  1  0
  9 10  1  1
  9 11  1  0
  9 13  1  0
 11 12  1  0
M  END
