
     RDKit          3D

 13 14  0  0  0  0  0  0  0  0999 V2000
    4.1150    0.8950    0.0530 O   0  0  0  0  0  0  0  0  0  0  0  0
    3.0890    0.1070    0.1050 O   0  0  0  0  0  0  0  0  0  0  0  0
    2.5370    0.0490    1.3970 C   0  0  0  0  0  0  0  0  0  0  0  0
    1.4350   -0.8320    1.3320 O   0  0  0  0  0  0  0  0  0  0  0  0
    0.5350   -0.3320    0.4280 C   0  0  1  0  0  0  0  0  0  0  0  0
    0.2910   -1.2960   -0.7420 C   0  0  0  0  0  0  0  0  0  0  0  0
   -0.8580   -0.6840   -1.2790 O   0  0  0  0  0  0  0  0  0  0  0  0
   -1.5020   -0.0630   -0.2390 C   0  0  1  0  0  0  0  0  0  0  0  0
   -1.8570    1.3900   -0.5750 C   0  0  0  0  0  0  0  0  0  0  0  0
   -3.0930    1.1860   -1.2290 O   0  0  0  0  0  0  0  0  0  0  0  0
   -3.7480    0.3410   -0.4980 O   0  0  0  0  0  0  0  0  0  0  0  0
   -2.8800   -0.6670   -0.1090 C   0  0  0  0  0  0  0  0  0  0  0  0
   -0.7400   -0.1680    0.8950 O   0  0  0  0  0  0  0  0  0  0  0  0
  1  2  1  0
  2  3  1  0
  3  4  1  0
  5  4  1  1
  5  6  1  0
  5 13  1  0
  6  7  1  0
  7  8  1  0
  8  9  1  6
  8 12  1  0
  8 13  1  0
  9 10  1  0
 10 11  1  0
 11 12  1  0
M  END
