
     RDKit          3D

 22 23  0  0  0  0  0  0  0  0999 V2000
    4.8250    2.8780   -0.5360 O   0  0  0  0  0  0  0  0  0  0  0  0
    3.8760    2.0500   -0.4230 C   0  0  0  0  0  0  0  0  0  0  0  0
    2.6000    2.4740   -0.4170 N   0  0  0  0  0  0  0  0  0  0  0  0
    1.5790    1.5900   -0.2960 C   0  0  0  0  0  0  0  0  0  0  0  0
    0.3790    1.9680   -0.2880 O   0  0  0  0  0  0  0  0  0  0  0  0
    1.8020    0.2730   -0.1800 N   0  0  0  0  0  0  0  0  0  0  0  0
    0.7250   -0.6450   -0.0540 C   0  0  1  0  0  0  0  0  0  0  0  0
    0.1600   -0.7550    1.3380 C   0  0  0  0  0  0  0  0  0  0  0  0
   -1.2210   -1.3260    1.0610 C   0  0  2  0  0  0  0  0  0  0  0  0
   -1.3880   -2.5910    1.5900 O   0  0  0  0  0  0  0  0  0  0  0  0
   -1.2740   -1.3420   -0.4690 C   0  0  1  0  0  0  0  0  0  0  0  0
   -2.6900   -1.0450   -0.9060 C   0  0  0  0  0  0  0  0  0  0  0  0
   -3.1420    0.0880   -0.3000 O   0  0  0  0  0  0  0  0  0  0  0  0
   -4.6130    0.6480   -0.5740 P   0  0  0  0  0  0  0  0  0  0  0  0
   -4.8840    2.2010   -1.1570 O   0  0  0  0  0  0  0  0  0  0  0  0
   -4.8840    1.1490    0.8530 O   0  0  0  0  0  0  0  0  0  0  0  0
   -5.9750   -0.3230   -0.4300 O   0  0  0  0  0  0  0  0  0  0  0  0
   -0.4030   -0.2970   -0.8000 O   0  0  0  0  0  0  0  0  0  0  0  0
    3.0780   -0.1650   -0.1850 C   0  0  0  0  0  0  0  0  0  0  0  0
    4.1280    0.7130   -0.3060 C   0  0  0  0  0  0  0  0  0  0  0  0
    5.5340    0.2010   -0.3090 C   0  0  0  0  0  0  0  0  0  0  0  0
    5.5830   -1.1670   -0.1810 O   0  0  0  0  0  0  0  0  0  0  0  0
  1  2  2  0
  2  3  1  0
  2 20  1  0
  3  4  1  0
  4  5  2  0
  4  6  1  0
  7  6  1  1
  6 19  1  0
  7  8  1  0
  7 18  1  0
  8  9  1  0
  9 10  1  6
  9 11  1  0
 11 12  1  1
 11 18  1  0
 12 13  1  0
 13 14  1  0
 14 15  1  0
 14 16  1  0
 14 17  1  0
 19 20  2  0
 20 21  1  0
 21 22  1  0
M  END
