
     RDKit          3D

 13 13  0  0  0  0  0  0  0  0999 V2000
   -0.5890    0.2900    1.5040 C   0  0  0  0  0  0  0  0  0  0  0  0
   -0.3460   -0.4740    0.2220 C   0  0  1  0  0  0  0  0  0  0  0  0
   -1.3920   -1.3540   -0.0570 O   0  0  0  0  0  0  0  0  0  0  0  0
   -2.5880   -0.6910   -0.2890 C   0  0  0  0  0  0  0  0  0  0  0  0
   -2.5060    0.1850   -1.3720 O   0  0  0  0  0  0  0  0  0  0  0  0
   -3.6830    0.7580   -1.5050 O   0  0  0  0  0  0  0  0  0  0  0  0
   -0.1970    0.3530   -0.8670 O   0  0  0  0  0  0  0  0  0  0  0  0
    1.1530    0.4450   -1.1580 C   0  0  0  0  0  0  0  0  0  0  0  0
    1.7980   -0.6740   -0.3900 C   0  0  1  0  0  0  0  0  0  0  0  0
    2.9520   -0.2200    0.3970 C   0  0  0  0  0  0  0  0  0  0  0  0
    3.0070   -0.3330    1.6470 O   0  0  0  0  0  0  0  0  0  0  0  0
    4.0330    0.3590   -0.2430 O   0  0  0  0  0  0  0  0  0  0  0  0
    0.8000   -1.2270    0.3650 O   0  0  0  0  0  0  0  0  0  0  0  0
  2  1  1  1
  2  3  1  0
  2  7  1  0
  2 13  1  0
  3  4  1  0
  4  5  1  0
  5  6  1  0
  7  8  1  0
  8  9  1  0
  9 10  1  1
  9 13  1  0
 10 11  2  0
 10 12  1  0
M  END
