
     RDKit          3D

 14 14  0  0  0  0  0  0  0  0999 V2000
   -3.3680    2.4930   -0.1540 O   0  0  0  0  0  0  0  0  0  0  0  0
   -3.0310    1.3280   -0.3510 C   0  0  0  0  0  0  0  0  0  0  0  0
   -2.6690    0.6630    0.9700 C   0  0  0  0  0  0  0  0  0  0  0  0
   -1.3230    0.5040    0.8510 O   0  0  0  0  0  0  0  0  0  0  0  0
   -1.1320   -0.6560   -0.0640 C   0  0  2  0  0  0  0  0  0  0  0  0
    0.3280   -0.5610   -0.3490 O   0  0  0  0  0  0  0  0  0  0  0  0
    0.9930   -1.0470    0.7420 C   0  0  0  0  0  0  0  0  0  0  0  0
    2.5250   -1.0990    0.2950 C   0  0  0  0  0  0  0  0  0  0  0  0
    2.5930    0.2720   -0.1340 O   0  0  0  0  0  0  0  0  0  0  0  0
    3.5470    0.8200    0.5600 O   0  0  0  0  0  0  0  0  0  0  0  0
    4.1900    1.8390    0.1590 O   0  0  0  0  0  0  0  0  0  0  0  0
   -1.7950   -0.4560   -1.2990 C   0  0  0  0  0  0  0  0  0  0  0  0
   -1.4530   -1.1270   -2.3250 O   0  0  0  0  0  0  0  0  0  0  0  0
   -2.8630    0.5040   -1.4150 O   0  0  0  0  0  0  0  0  0  0  0  0
  1  2  2  0
  2  3  1  0
  2 14  1  0
  3  4  1  0
  4  5  1  0
  5  6  1  6
  5 12  1  0
  6  7  1  0
  7  8  1  0
  8  9  1  0
  9 10  1  0
 10 11  1  0
 12 13  2  0
 12 14  1  0
M  END
