
     RDKit          3D

 13 13  0  0  0  0  0  0  0  0999 V2000
    4.0160   -0.8420    0.0720 O   0  0  0  0  0  0  0  0  0  0  0  0
    3.6330    0.3530    0.1230 C   0  0  0  0  0  0  0  0  0  0  0  0
    4.4780    1.3580    0.5840 O   0  0  0  0  0  0  0  0  0  0  0  0
    2.3380    0.6100   -0.3010 O   0  0  0  0  0  0  0  0  0  0  0  0
    1.5580   -0.3880   -0.7370 O   0  0  0  0  0  0  0  0  0  0  0  0
    0.3270   -0.2180   -0.1620 C   0  0  2  0  0  0  0  0  0  0  0  0
   -0.2090   -1.4720    0.5050 C   0  0  0  0  0  0  0  0  0  0  0  0
   -1.6460   -1.0260    0.7090 C   0  0  0  0  0  0  0  0  0  0  0  0
   -1.8760   -0.1730   -0.4970 C   0  0  1  0  0  0  0  0  0  0  0  0
   -2.3020    1.2100   -0.1330 C   0  0  0  0  0  0  0  0  0  0  0  0
   -1.6310    2.2330   -0.4120 O   0  0  0  0  0  0  0  0  0  0  0  0
   -3.4950    1.3580    0.5440 O   0  0  0  0  0  0  0  0  0  0  0  0
   -0.6570   -0.0470   -1.1640 O   0  0  0  0  0  0  0  0  0  0  0  0
  1  2  2  0
  2  3  1  0
  2  4  1  0
  4  5  1  0
  6  5  1  6
  6  7  1  0
  6 13  1  0
  7  8  1  0
  8  9  1  0
  9 10  1  1
  9 13  1  0
 10 11  2  0
 10 12  1  0
M  END
