
     RDKit          3D

 14 14  0  0  0  0  0  0  0  0999 V2000
   -1.8200    1.8880    1.7520 O   0  0  0  0  0  0  0  0  0  0  0  0
   -1.6580    1.2960    0.6580 C   0  0  0  0  0  0  0  0  0  0  0  0
   -1.0900    2.0100   -0.3870 O   0  0  0  0  0  0  0  0  0  0  0  0
   -2.0370   -0.0800    0.4520 C   0  0  2  0  0  0  0  0  0  0  0  0
   -2.6320   -0.6920    1.5570 O   0  0  0  0  0  0  0  0  0  0  0  0
   -2.7570   -1.9750    1.1080 O   0  0  0  0  0  0  0  0  0  0  0  0
   -1.6610   -2.2980    0.3370 C   0  0  0  0  0  0  0  0  0  0  0  0
   -1.4000   -3.3900   -0.1680 O   0  0  0  0  0  0  0  0  0  0  0  0
   -0.8600   -1.0460    0.2430 C   0  0  2  0  0  0  0  0  0  0  0  0
    0.0910   -0.9590    1.2230 O   0  0  0  0  0  0  0  0  0  0  0  0
    1.3820   -0.7810    0.8520 C   0  0  0  0  0  0  0  0  0  0  0  0
    1.6950    0.4520    0.0660 C   0  0  0  0  0  0  0  0  0  0  0  0
    3.0450    0.5400   -0.2650 O   0  0  0  0  0  0  0  0  0  0  0  0
    3.2040    1.6590   -0.9520 O   0  0  0  0  0  0  0  0  0  0  0  0
  1  2  2  0
  2  3  1  0
  4  2  1  1
  4  5  1  0
  4  9  1  0
  5  6  1  0
  6  7  1  0
  7  8  2  0
  7  9  1  0
  9 10  1  1
 10 11  1  0
 11 12  1  0
 12 13  1  0
 13 14  1  0
M  END
