
     RDKit          3D

 37 40  0  0  0  0  0  0  0  0999 V2000
   -1.0370   -5.2930   -1.4040 C   0  0  0  0  0  0  0  0  0  0  0  0
   -2.2070   -4.5380   -1.3730 O   0  0  0  0  0  0  0  0  0  0  0  0
   -1.9180   -3.2100   -0.9460 C   0  0  1  0  0  0  0  0  0  0  0  0
   -2.3860   -2.3440   -2.0520 C   0  0  0  0  0  0  0  0  0  0  0  0
   -1.8220   -1.2970   -2.5750 C   0  0  0  0  0  0  0  0  0  0  0  0
   -0.5260   -0.6590   -2.2050 C   0  0  0  0  0  0  0  0  0  0  0  0
   -0.6790    0.5930   -1.3810 C   0  0  1  0  0  0  0  0  0  0  0  0
   -2.2140    0.6550   -1.1740 C   0  0  0  0  0  0  0  0  0  0  0  0
    0.0300    0.6670   -0.1050 C   0  0  0  0  0  0  0  0  0  0  0  0
    0.5580   -0.4760    0.6390 C   0  0  1  0  0  0  0  0  0  0  0  0
    2.1200   -0.4580    0.6300 C   0  0  1  0  0  0  0  0  0  0  0  0
    2.6610   -1.5050    1.2920 O   0  0  0  0  0  0  0  0  0  0  0  0
    2.8000   -2.6980    0.6710 C   0  0  0  0  0  0  0  0  0  0  0  0
    3.6180   -2.6750   -0.5880 C   0  0  0  0  0  0  0  0  0  0  0  0
    3.1630   -1.5270   -1.4200 C   0  0  0  0  0  0  0  0  0  0  0  0
    2.7480   -0.2940   -0.6830 C   0  0  2  0  0  0  0  0  0  0  0  0
    3.9130    0.6890   -0.5190 C   0  0  1  0  0  0  0  0  0  0  0  0
    4.9450    0.2340    0.4400 C   0  0  0  0  0  0  0  0  0  0  0  0
    4.5390    0.9300   -1.7480 O   0  0  0  0  0  0  0  0  0  0  0  0
    0.2180   -0.2970    2.1080 C   0  0  2  0  0  0  0  0  0  0  0  0
    0.9110   -1.2050    3.0480 C   0  0  0  0  0  0  0  0  0  0  0  0
   -1.1830   -0.2710    2.4350 N   0  0  0  0  0  0  0  0  0  0  0  0
   -1.6860    0.7070    3.4170 C   0  0  0  0  0  0  0  0  0  0  0  0
   -2.2570    1.9530    2.7920 C   0  0  0  0  0  0  0  0  0  0  0  0
   -1.2760    3.0600    2.6530 C   0  0  0  0  0  0  0  0  0  0  0  0
   -1.2260    3.9900    1.7500 C   0  0  0  0  0  0  0  0  0  0  0  0
   -2.1270    4.2270    0.5970 C   0  0  0  0  0  0  0  0  0  0  0  0
   -1.4260    4.1820   -0.7460 C   0  0  2  0  0  0  0  0  0  0  0  0
   -2.2070    3.4480   -1.7890 C   0  0  0  0  0  0  0  0  0  0  0  0
   -1.6760    2.5460   -2.5950 C   0  0  0  0  0  0  0  0  0  0  0  0
   -0.4120    1.7900   -2.2540 C   0  0  1  0  0  0  0  0  0  0  0  0
    0.4840    2.8650   -1.7500 C   0  0  0  0  0  0  0  0  0  0  0  0
    0.0010    3.7650   -0.6820 C   0  0  0  0  0  0  0  0  0  0  0  0
   -2.1770   -1.1420    1.9080 C   0  0  0  0  0  0  0  0  0  0  0  0
   -3.3750   -0.7410    1.7410 O   0  0  0  0  0  0  0  0  0  0  0  0
   -1.9920   -2.5580    1.4990 C   0  0  0  0  0  0  0  0  0  0  0  0
   -2.7850   -2.9630    0.2800 C   0  0  0  0  0  0  0  0  0  0  0  0
  1  2  1  0
  3  2  1  6
  3  4  1  0
  3 37  1  0
  4  5  2  0
  5  6  1  0
  6  7  1  0
  7  8  1  1
  7  9  1  0
  7 31  1  0
 10  9  1  6
 10 11  1  0
 10 20  1  0
 11 12  1  6
 11 16  1  0
 12 13  1  0
 13 14  1  0
 14 15  1  0
 16 15  1  1
 16 17  1  0
 17 18  1  1
 17 19  1  0
 20 21  1  1
 20 22  1  0
 22 23  1  0
 22 34  1  0
 23 24  1  0
 24 25  1  0
 25 26  2  0
 26 27  1  0
 28 27  1  1
 28 29  1  0
 28 33  1  0
 29 30  2  0
 30 31  1  0
 31 32  1  1
 32 33  1  0
 34 35  2  0
 34 36  1  0
 36 37  1  0
M  END
