
     RDKit          3D

 37 41  0  0  0  0  0  0  0  0999 V2000
    6.3930    0.6650    2.1970 C   0  0  0  0  0  0  0  0  0  0  0  0
    5.1160   -0.1410    2.2980 C   0  0  2  0  0  0  0  0  0  0  0  0
    5.4290   -1.5340    1.8070 C   0  0  0  0  0  0  0  0  0  0  0  0
    4.0770    0.5710    1.4670 C   0  0  1  0  0  0  0  0  0  0  0  0
    4.5380    0.6530    0.0610 C   0  0  0  0  0  0  0  0  0  0  0  0
    3.6160   -0.3010   -0.6690 C   0  0  2  0  0  0  0  0  0  0  0  0
    3.6860    0.0410   -2.0970 C   0  0  0  0  0  0  0  0  0  0  0  0
    2.3470   -0.1910    0.0030 N   0  0  0  0  0  0  0  0  0  0  0  0
    0.9590   -0.2100   -0.3420 C   0  0  1  0  0  0  0  0  0  0  0  0
    0.4660    1.1120   -0.7150 C   0  0  1  0  0  0  0  0  0  0  0  0
    1.1860    2.0340   -1.6410 C   0  0  0  0  0  0  0  0  0  0  0  0
    0.6430    3.4580   -1.6040 C   0  0  0  0  0  0  0  0  0  0  0  0
   -0.7010    3.6000   -0.9030 C   0  0  0  0  0  0  0  0  0  0  0  0
   -1.5300    2.5700   -1.4400 C   0  0  1  0  0  0  0  0  0  0  0  0
   -1.3700    2.6570   -2.8590 O   0  0  0  0  0  0  0  0  0  0  0  0
   -0.9750    1.2530   -0.9600 C   0  0  0  0  0  0  0  0  0  0  0  0
   -2.9950    2.4010   -1.2380 C   0  0  0  0  0  0  0  0  0  0  0  0
   -3.6110    2.3920    0.0740 C   0  0  2  0  0  0  0  0  0  0  0  0
   -5.0000    3.0800   -0.2740 C   0  0  0  0  0  0  0  0  0  0  0  0
   -3.0860    3.5290    0.9950 C   0  0  0  0  0  0  0  0  0  0  0  0
   -4.0230    1.2280    0.8390 C   0  0  0  0  0  0  0  0  0  0  0  0
   -4.0560   -0.0380    0.9430 C   0  0  0  0  0  0  0  0  0  0  0  0
   -4.6910   -0.6690    2.0780 O   0  0  0  0  0  0  0  0  0  0  0  0
   -3.5460   -1.1750    0.0940 C   0  0  0  0  0  0  0  0  0  0  0  0
   -2.8490   -2.2120    0.8900 C   0  0  1  0  0  0  0  0  0  0  0  0
   -3.5800   -3.2830    1.3220 O   0  0  0  0  0  0  0  0  0  0  0  0
   -2.9450   -3.7920    2.4480 C   0  0  0  0  0  0  0  0  0  0  0  0
   -1.5220   -4.1620    2.2890 C   0  0  0  0  0  0  0  0  0  0  0  0
   -0.6900   -3.1520    1.4880 C   0  0  0  0  0  0  0  0  0  0  0  0
   -1.5340   -2.7870    0.3170 C   0  0  2  0  0  0  0  0  0  0  0  0
   -0.9670   -1.8320   -0.6660 C   0  0  2  0  0  0  0  0  0  0  0  0
   -1.5080   -2.2500   -1.9780 C   0  0  0  0  0  0  0  0  0  0  0  0
   -0.3290   -2.8680   -2.7090 C   0  0  0  0  0  0  0  0  0  0  0  0
    0.7240   -1.8110   -2.3150 C   0  0  0  0  0  0  0  0  0  0  0  0
    0.4510   -1.5150   -0.8760 C   0  0  1  0  0  0  0  0  0  0  0  0
    2.7920   -0.1390    1.4040 C   0  0  0  0  0  0  0  0  0  0  0  0
    2.2140   -0.6050    2.4170 O   0  0  0  0  0  0  0  0  0  0  0  0
  2  1  1  6
  2  3  1  0
  2  4  1  0
  4  5  1  6
  4 36  1  0
  5  6  1  0
  6  7  1  6
  6  8  1  0
  9  8  1  6
  8 36  1  0
  9 10  1  0
  9 35  1  0
 10 11  1  6
 10 16  1  0
 11 12  1  0
 12 13  1  0
 13 14  1  0
 14 15  1  6
 14 16  1  0
 14 17  1  0
 17 18  1  0
 18 19  1  6
 18 20  1  0
 18 21  1  0
 21 22  2  0
 22 23  1  0
 22 24  1  0
 25 24  1  6
 25 26  1  0
 25 30  1  0
 26 27  1  0
 27 28  1  0
 28 29  1  0
 30 29  1  1
 30 31  1  0
 31 32  1  6
 31 35  1  0
 32 33  1  0
 33 34  1  0
 35 34  1  6
 36 37  2  0
M  END
