
     RDKit          3D

 37 41  0  0  0  0  0  0  0  0999 V2000
   -4.1760    3.5800   -0.6350 C   0  0  0  0  0  0  0  0  0  0  0  0
   -3.7690    2.6380    0.2530 O   0  0  0  0  0  0  0  0  0  0  0  0
   -3.0810    1.5320   -0.3440 C   0  0  2  0  0  0  0  0  0  0  0  0
   -4.0110    0.3990   -0.1960 C   0  0  0  0  0  0  0  0  0  0  0  0
   -4.0330   -0.7580   -1.0630 C   0  0  0  0  0  0  0  0  0  0  0  0
   -3.1700   -1.6100   -1.5390 C   0  0  0  0  0  0  0  0  0  0  0  0
   -1.6950   -1.7600   -1.3810 C   0  0  2  0  0  0  0  0  0  0  0  0
   -1.2170   -1.8960   -2.8090 C   0  0  0  0  0  0  0  0  0  0  0  0
   -0.5770   -0.9730   -3.4560 C   0  0  0  0  0  0  0  0  0  0  0  0
   -0.1150    0.3810   -3.1250 C   0  0  0  0  0  0  0  0  0  0  0  0
   -0.9070    1.1340   -2.3210 O   0  0  0  0  0  0  0  0  0  0  0  0
   -0.9510    2.3170   -1.6850 C   0  0  0  0  0  0  0  0  0  0  0  0
   -1.0530    3.4360   -2.3490 O   0  0  0  0  0  0  0  0  0  0  0  0
   -0.8980    2.5640   -0.1830 C   0  0  2  0  0  0  0  0  0  0  0  0
    0.3980    2.7410    0.3420 N   0  0  0  0  0  0  0  0  0  0  0  0
    1.4630    2.0290    0.8140 C   0  0  0  0  0  0  0  0  0  0  0  0
    1.5980    2.0460    2.1210 O   0  0  0  0  0  0  0  0  0  0  0  0
    2.5720    1.1960    0.2140 C   0  0  2  0  0  0  0  0  0  0  0  0
    3.8320    1.8720    0.8970 C   0  0  0  0  0  0  0  0  0  0  0  0
    3.9480    3.1870    0.2110 C   0  0  0  0  0  0  0  0  0  0  0  0
    3.8010    2.7870   -1.2110 C   0  0  0  0  0  0  0  0  0  0  0  0
    2.8480    1.5810   -1.1660 C   0  0  0  0  0  0  0  0  0  0  0  0
    2.5260   -0.1300    0.7450 C   0  0  0  0  0  0  0  0  0  0  0  0
    2.3280   -1.4510    0.1210 C   0  0  1  0  0  0  0  0  0  0  0  0
    3.1130   -1.6130   -1.2080 C   0  0  0  0  0  0  0  0  0  0  0  0
    3.0680   -2.5380    0.9360 C   0  0  0  0  0  0  0  0  0  0  0  0
    0.9170   -1.7340   -0.1910 C   0  0  0  0  0  0  0  0  0  0  0  0
   -0.0890   -2.4220    0.5510 C   0  0  2  0  0  0  0  0  0  0  0  0
    0.5450   -3.8690    0.7190 C   0  0  0  0  0  0  0  0  0  0  0  0
   -1.2180   -2.7550   -0.4300 C   0  0  0  0  0  0  0  0  0  0  0  0
   -0.6670   -2.2270    1.8500 C   0  0  1  0  0  0  0  0  0  0  0  0
   -0.0320   -1.7720    3.0820 C   0  0  0  0  0  0  0  0  0  0  0  0
   -0.5490   -0.3380    3.4130 C   0  0  0  0  0  0  0  0  0  0  0  0
   -1.2350   -0.0500    2.1240 C   0  0  1  0  0  0  0  0  0  0  0  0
   -1.9260   -1.3170    1.9660 C   0  0  0  0  0  0  0  0  0  0  0  0
   -1.8420    1.2630    1.8560 C   0  0  0  0  0  0  0  0  0  0  0  0
   -1.7790    1.5100    0.3780 C   0  0  1  0  0  0  0  0  0  0  0  0
  1  2  1  0
  3  2  1  1
  3  4  1  0
  3 37  1  0
  4  5  1  0
  5  6  2  0
  6  7  1  0
  7  8  1  0
  7 30  1  1
  8  9  2  0
  9 10  1  0
 10 11  1  0
 11 12  1  0
 12 13  2  0
 12 14  1  0
 14 15  1  1
 14 37  1  0
 15 16  1  0
 16 17  2  0
 16 18  1  0
 18 19  1  1
 18 22  1  0
 18 23  1  0
 19 20  1  0
 20 21  1  0
 21 22  1  0
 23 24  1  0
 24 25  1  6
 24 26  1  0
 24 27  1  0
 27 28  1  0
 28 29  1  1
 28 30  1  0
 28 31  1  0
 31 32  1  1
 31 35  1  0
 32 33  1  0
 34 33  1  1
 34 35  1  0
 34 36  1  0
 37 36  1  1
M  END
