
     RDKit          3D

 37 39  0  0  0  0  0  0  0  0999 V2000
    3.5720    1.6190   -2.0360 C   0  0  0  0  0  0  0  0  0  0  0  0
    4.7320    1.6180   -1.0810 C   0  0  0  0  0  0  0  0  0  0  0  0
    5.9290    2.1740   -1.5270 C   0  0  0  0  0  0  0  0  0  0  0  0
    6.0960    2.6450   -2.8200 O   0  0  0  0  0  0  0  0  0  0  0  0
    6.9890    2.2550   -0.6480 C   0  0  0  0  0  0  0  0  0  0  0  0
    6.8490    1.7930    0.6290 C   0  0  0  0  0  0  0  0  0  0  0  0
    5.6590    1.2480    1.0410 C   0  0  0  0  0  0  0  0  0  0  0  0
    4.5510    1.1470    0.1700 C   0  0  0  0  0  0  0  0  0  0  0  0
    3.3960    0.4790    0.7060 C   0  0  0  0  0  0  0  0  0  0  0  0
    3.2390    0.6060    1.9810 O   0  0  0  0  0  0  0  0  0  0  0  0
    2.4350   -0.2910    0.0260 N   0  0  0  0  0  0  0  0  0  0  0  0
    1.2820   -0.9360    0.5810 C   0  0  1  0  0  0  0  0  0  0  0  0
    1.5670   -2.2450    1.2520 C   0  0  0  0  0  0  0  0  0  0  0  0
    2.1550   -3.2590    0.3760 C   0  0  0  0  0  0  0  0  0  0  0  0
    1.3850   -4.1410   -0.3380 C   0  0  0  0  0  0  0  0  0  0  0  0
    1.9700   -5.0820   -1.1530 C   0  0  0  0  0  0  0  0  0  0  0  0
    3.3370   -5.1480   -1.2620 C   0  0  0  0  0  0  0  0  0  0  0  0
    4.1290   -4.2740   -0.5570 C   0  0  0  0  0  0  0  0  0  0  0  0
    3.5280   -3.3310    0.2610 C   0  0  0  0  0  0  0  0  0  0  0  0
    0.4920   -0.0800    1.5870 C   0  0  2  0  0  0  0  0  0  0  0  0
   -0.5290   -0.9550    1.9990 O   0  0  0  0  0  0  0  0  0  0  0  0
    0.0430    1.1550    0.9900 C   0  0  0  0  0  0  0  0  0  0  0  0
    0.9620    1.9720    0.6010 O   0  0  0  0  0  0  0  0  0  0  0  0
   -1.3160    1.5740    0.7840 N   0  0  0  0  0  0  0  0  0  0  0  0
   -1.5630    2.8970    0.1440 C   0  0  0  0  0  0  0  0  0  0  0  0
   -3.1190    3.3780    0.9410 S   0  0  0  0  0  0  0  0  0  0  0  0
   -3.2570    1.9130    2.0000 C   0  0  1  0  0  0  0  0  0  0  0  0
   -2.3260    2.1410    3.1840 C   0  0  0  0  0  0  0  0  0  0  0  0
   -4.6180    1.5890    2.4300 C   0  0  0  0  0  0  0  0  0  0  0  0
   -2.5630    0.9260    1.0910 C   0  0  1  0  0  0  0  0  0  0  0  0
   -3.2610    0.5970   -0.1450 C   0  0  0  0  0  0  0  0  0  0  0  0
   -2.7110    0.8400   -1.2440 O   0  0  0  0  0  0  0  0  0  0  0  0
   -4.5520    0.0040   -0.2420 N   0  0  0  0  0  0  0  0  0  0  0  0
   -5.2000   -0.2990   -1.4840 C   0  0  1  0  0  0  0  0  0  0  0  0
   -4.4350   -1.2610   -2.3520 C   0  0  0  0  0  0  0  0  0  0  0  0
   -6.5570   -0.8940   -1.2310 C   0  0  0  0  0  0  0  0  0  0  0  0
   -5.3850    0.9840   -2.2550 C   0  0  0  0  0  0  0  0  0  0  0  0
  1  2  1  0
  2  3  2  0
  2  8  1  0
  3  4  1  0
  3  5  1  0
  5  6  2  0
  6  7  1  0
  7  8  2  0
  8  9  1  0
  9 10  2  0
  9 11  1  0
 11 12  1  0
 12 13  1  1
 12 20  1  0
 13 14  1  0
 14 15  2  0
 14 19  1  0
 15 16  1  0
 16 17  2  0
 17 18  1  0
 18 19  2  0
 20 21  1  6
 20 22  1  0
 22 23  2  0
 22 24  1  0
 24 25  1  0
 24 30  1  0
 25 26  1  0
 26 27  1  0
 27 28  1  1
 27 29  1  0
 27 30  1  0
 30 31  1  6
 31 32  2  0
 31 33  1  0
 33 34  1  0
 34 35  1  6
 34 36  1  0
 34 37  1  0
M  END
