
     RDKit          3D

 37 41  0  0  0  0  0  0  0  0999 V2000
    3.5550   -4.5410   -1.1320 C   0  0  0  0  0  0  0  0  0  0  0  0
    4.1670   -3.1670   -0.8890 C   0  0  0  0  0  0  0  0  0  0  0  0
    5.3640   -3.2030   -0.6200 O   0  0  0  0  0  0  0  0  0  0  0  0
    3.3380   -1.9780   -0.9870 C   0  0  0  0  0  0  0  0  0  0  0  0
    3.7700   -0.7840   -0.7980 C   0  0  0  0  0  0  0  0  0  0  0  0
    5.2290   -0.9110   -0.4740 C   0  0  0  0  0  0  0  0  0  0  0  0
    5.8780    0.4120   -0.0850 C   0  0  0  0  0  0  0  0  0  0  0  0
    5.8360    0.5500    1.3950 C   0  0  0  0  0  0  0  0  0  0  0  0
    4.5100    1.1080    1.8700 C   0  0  1  0  0  0  0  0  0  0  0  0
    4.7730    1.7730    3.2300 C   0  0  0  0  0  0  0  0  0  0  0  0
    3.9800    2.1580    0.9540 C   0  0  0  0  0  0  0  0  0  0  0  0
    3.0780    1.6220   -0.1220 C   0  0  0  0  0  0  0  0  0  0  0  0
    3.0170    0.5050   -0.8840 C   0  0  0  0  0  0  0  0  0  0  0  0
    2.0250    0.8240   -1.9230 C   0  0  0  0  0  0  0  0  0  0  0  0
    1.0230    1.6540   -1.1060 C   0  0  1  0  0  0  0  0  0  0  0  0
    2.0280    2.4570   -0.4440 O   0  0  0  0  0  0  0  0  0  0  0  0
    0.1140    2.4470   -1.9130 C   0  0  0  0  0  0  0  0  0  0  0  0
    0.6730    3.1820   -2.8050 O   0  0  0  0  0  0  0  0  0  0  0  0
   -1.2890    2.5040   -1.8340 N   0  0  0  0  0  0  0  0  0  0  0  0
   -2.1080    2.0370   -0.7330 C   0  0  1  0  0  0  0  0  0  0  0  0
   -3.1830    3.0600   -0.4070 C   0  0  0  0  0  0  0  0  0  0  0  0
   -4.4520    2.4710    0.0980 C   0  0  1  0  0  0  0  0  0  0  0  0
   -4.9300    3.3610    1.2630 C   0  0  0  0  0  0  0  0  0  0  0  0
   -5.5810    2.5460   -0.9170 C   0  0  0  0  0  0  0  0  0  0  0  0
   -4.2910    1.1120    0.6790 C   0  0  0  0  0  0  0  0  0  0  0  0
   -3.6350    0.0890   -0.2080 C   0  0  1  0  0  0  0  0  0  0  0  0
   -4.7620   -0.5520   -1.0340 C   0  0  0  0  0  0  0  0  0  0  0  0
   -2.7120    0.7320   -1.1890 C   0  0  0  0  0  0  0  0  0  0  0  0
   -3.0380   -0.9730    0.6540 C   0  0  1  0  0  0  0  0  0  0  0  0
   -3.8670   -2.1780    0.9030 C   0  0  0  0  0  0  0  0  0  0  0  0
   -3.0830   -3.4700    0.8280 C   0  0  0  0  0  0  0  0  0  0  0  0
   -1.7620   -3.3550    1.5540 C   0  0  0  0  0  0  0  0  0  0  0  0
   -0.8820   -2.2650    0.9800 C   0  0  2  0  0  0  0  0  0  0  0  0
   -1.6510   -1.3010    0.1320 C   0  0  0  0  0  0  0  0  0  0  0  0
    0.1490   -2.8020    0.2310 O   0  0  0  0  0  0  0  0  0  0  0  0
    0.8930   -1.7890   -0.3700 C   0  0  0  0  0  0  0  0  0  0  0  0
    1.9030   -2.3190   -1.3460 C   0  0  0  0  0  0  0  0  0  0  0  0
  1  2  1  0
  2  3  2  0
  2  4  1  0
  4  5  2  0
  4 37  1  0
  5  6  1  0
  5 13  1  0
  6  7  1  0
  7  8  1  0
  8  9  1  0
  9 10  1  1
  9 11  1  0
 11 12  1  0
 12 13  2  0
 12 16  1  0
 13 14  1  0
 14 15  1  0
 15 16  1  1
 15 17  1  0
 17 18  2  0
 17 19  1  0
 19 20  1  0
 20 21  1  6
 20 28  1  0
 21 22  1  0
 22 23  1  1
 22 24  1  0
 22 25  1  0
 25 26  1  0
 26 27  1  6
 26 28  1  0
 26 29  1  0
 29 30  1  6
 29 34  1  0
 30 31  1  0
 31 32  1  0
 33 32  1  6
 33 34  1  0
 33 35  1  0
 35 36  1  0
 36 37  1  0
M  END
