
     RDKit          3D

 37 41  0  0  0  0  0  0  0  0999 V2000
   -3.0970    4.4830    1.6060 C   0  0  0  0  0  0  0  0  0  0  0  0
   -3.6110    3.8320    0.3490 C   0  0  1  0  0  0  0  0  0  0  0  0
   -2.5870    3.7090   -0.7420 C   0  0  0  0  0  0  0  0  0  0  0  0
   -1.2080    4.1340   -0.3510 C   0  0  0  0  0  0  0  0  0  0  0  0
   -0.2850    3.5460   -1.3270 N   0  0  0  0  0  0  0  0  0  0  0  0
    0.9850    3.0390   -1.0550 C   0  0  0  0  0  0  0  0  0  0  0  0
    1.9540    3.5040   -1.7550 O   0  0  0  0  0  0  0  0  0  0  0  0
    1.3440    2.0310   -0.0590 C   0  0  0  0  0  0  0  0  0  0  0  0
    1.2910    0.6070   -0.6270 C   0  0  2  0  0  0  0  0  0  0  0  0
   -0.0980    0.0660   -0.6220 C   0  0  0  0  0  0  0  0  0  0  0  0
   -0.9320   -0.3220    0.2830 C   0  0  0  0  0  0  0  0  0  0  0  0
   -2.3250   -0.8670    0.2990 C   0  0  1  0  0  0  0  0  0  0  0  0
   -2.6260   -1.5250    1.6740 C   0  0  0  0  0  0  0  0  0  0  0  0
   -3.3860    0.1880    0.1720 C   0  0  0  0  0  0  0  0  0  0  0  0
   -3.1550    1.3790    1.0410 C   0  0  0  0  0  0  0  0  0  0  0  0
   -4.0970    2.4560    0.6420 C   0  0  0  0  0  0  0  0  0  0  0  0
   -5.2910    2.1950    0.5580 O   0  0  0  0  0  0  0  0  0  0  0  0
   -2.4780   -1.9300   -0.7740 C   0  0  2  0  0  0  0  0  0  0  0  0
   -3.6470   -2.7930   -0.6910 C   0  0  0  0  0  0  0  0  0  0  0  0
   -3.4560   -4.1460   -0.1260 C   0  0  0  0  0  0  0  0  0  0  0  0
   -2.0830   -4.6800   -0.1540 C   0  0  0  0  0  0  0  0  0  0  0  0
   -1.1520   -3.8380   -1.0060 C   0  0  2  0  0  0  0  0  0  0  0  0
    0.2070   -4.3370   -1.0420 C   0  0  0  0  0  0  0  0  0  0  0  0
    1.4480   -3.9670   -1.0010 C   0  0  0  0  0  0  0  0  0  0  0  0
    2.1760   -2.6990   -0.8930 C   0  0  0  0  0  0  0  0  0  0  0  0
    1.8980   -1.7510    0.1870 C   0  0  0  0  0  0  0  0  0  0  0  0
    2.2960   -0.3190   -0.0160 C   0  0  1  0  0  0  0  0  0  0  0  0
    3.6730   -0.2130   -0.4950 C   0  0  2  0  0  0  0  0  0  0  0  0
    4.7680   -0.3050    0.5180 C   0  0  0  0  0  0  0  0  0  0  0  0
    4.8540    0.6600    1.6120 C   0  0  1  0  0  0  0  0  0  0  0  0
    3.9390    0.9300    2.7040 C   0  0  0  0  0  0  0  0  0  0  0  0
    5.2120    0.1670    2.9880 C   0  0  0  0  0  0  0  0  0  0  0  0
    3.9810    0.9050   -1.4670 C   0  0  0  0  0  0  0  0  0  0  0  0
    3.0160    0.7740   -2.6160 C   0  0  0  0  0  0  0  0  0  0  0  0
    1.6670    0.8810   -2.0840 C   0  0  0  0  0  0  0  0  0  0  0  0
    0.7630    1.2110   -2.8330 O   0  0  0  0  0  0  0  0  0  0  0  0
   -1.2300   -2.5170   -0.8220 O   0  0  0  0  0  0  0  0  0  0  0  0
  2  1  1  1
  2  3  1  0
  2 16  1  0
  3  4  1  0
  4  5  1  0
  5  6  1  0
  6  7  2  0
  6  8  1  0
  9  8  1  1
  9 10  1  0
  9 27  1  0
  9 35  1  0
 10 11  2  0
 11 12  1  0
 12 13  1  1
 12 14  1  0
 12 18  1  0
 14 15  1  0
 15 16  1  0
 16 17  2  0
 18 19  1  1
 18 37  1  0
 19 20  1  0
 20 21  1  0
 22 21  1  1
 22 23  1  0
 22 37  1  0
 23 24  2  0
 24 25  1  0
 25 26  1  0
 27 26  1  6
 27 28  1  0
 28 29  1  1
 28 33  1  0
 30 29  1  6
 30 31  1  0
 30 32  1  0
 31 32  1  0
 33 34  1  0
 34 35  1  0
 35 36  2  0
M  END
