
     RDKit          3D

 37 41  0  0  0  0  0  0  0  0999 V2000
    5.2390   -4.1390   -0.4620 C   0  0  0  0  0  0  0  0  0  0  0  0
    4.8890   -2.6980   -0.5700 C   0  0  0  0  0  0  0  0  0  0  0  0
    3.7560   -2.2190   -0.0360 C   0  0  0  0  0  0  0  0  0  0  0  0
    3.5010   -0.8310   -0.1850 C   0  0  0  0  0  0  0  0  0  0  0  0
    3.3030    0.2270   -0.3170 C   0  0  0  0  0  0  0  0  0  0  0  0
    3.0400    1.6010   -0.4760 C   0  0  0  0  0  0  0  0  0  0  0  0
    2.1080    2.0940    0.6280 C   0  0  1  0  0  0  0  0  0  0  0  0
    2.2920    3.5240    0.9520 C   0  0  0  0  0  0  0  0  0  0  0  0
    2.1430    4.5660   -0.0660 C   0  0  1  0  0  0  0  0  0  0  0  0
    0.7730    4.6450   -0.6550 C   0  0  0  0  0  0  0  0  0  0  0  0
    2.5010    5.9550    0.4820 C   0  0  0  0  0  0  0  0  0  0  0  0
    0.8720    1.3810    0.8790 C   0  0  0  0  0  0  0  0  0  0  0  0
   -0.2420    1.2840   -0.0690 C   0  0  2  0  0  0  0  0  0  0  0  0
   -1.3280    2.2280    0.4210 C   0  0  0  0  0  0  0  0  0  0  0  0
   -2.4030    1.3110    0.8010 C   0  0  0  0  0  0  0  0  0  0  0  0
   -2.3860    0.1470   -0.1760 C   0  0  1  0  0  0  0  0  0  0  0  0
   -3.2450   -0.8440    0.4530 C   0  0  2  0  0  0  0  0  0  0  0  0
   -4.6590   -0.2400    0.6800 C   0  0  0  0  0  0  0  0  0  0  0  0
   -5.3070   -1.4990    1.2860 C   0  0  0  0  0  0  0  0  0  0  0  0
   -4.1010   -2.0330    2.0590 C   0  0  0  0  0  0  0  0  0  0  0  0
   -3.0630   -1.1340    1.8060 O   0  0  0  0  0  0  0  0  0  0  0  0
   -2.7890    0.4610   -1.5640 C   0  0  1  0  0  0  0  0  0  0  0  0
   -3.7800   -0.4060   -2.2500 C   0  0  0  0  0  0  0  0  0  0  0  0
   -3.2820    1.8860   -1.8070 C   0  0  0  0  0  0  0  0  0  0  0  0
   -1.6080    0.4100   -2.3530 O   0  0  0  0  0  0  0  0  0  0  0  0
   -0.7520   -0.4480   -1.7040 C   0  0  1  0  0  0  0  0  0  0  0  0
   -1.1110   -1.8590   -2.0900 C   0  0  0  0  0  0  0  0  0  0  0  0
    0.6030   -0.2330   -2.3660 C   0  0  0  0  0  0  0  0  0  0  0  0
   -0.8750   -0.0880   -0.2800 C   0  0  1  0  0  0  0  0  0  0  0  0
   -0.3840   -0.9760    0.7220 N   0  0  0  0  0  0  0  0  0  0  0  0
    0.4810   -2.0140    0.9360 C   0  0  0  0  0  0  0  0  0  0  0  0
   -0.0770   -3.1580    0.5060 O   0  0  0  0  0  0  0  0  0  0  0  0
    1.7460   -2.4220    1.4400 C   0  0  1  0  0  0  0  0  0  0  0  0
    1.4790   -3.6870    2.3250 C   0  0  0  0  0  0  0  0  0  0  0  0
    1.7020   -4.7760    1.2820 C   0  0  0  0  0  0  0  0  0  0  0  0
    2.2420   -4.1470    0.1370 O   0  0  0  0  0  0  0  0  0  0  0  0
    2.8340   -3.0570    0.6970 C   0  0  1  0  0  0  0  0  0  0  0  0
  1  2  1  0
  2  3  2  3
  3  4  1  0
  3 37  1  0
  4  5  3  0
  5  6  1  0
  6  7  1  0
  7  8  1  6
  7 12  1  0
  8  9  1  0
  9 10  1  1
  9 11  1  0
 13 12  1  1
 13 14  1  0
 13 29  1  0
 14 15  1  0
 16 15  1  1
 16 17  1  0
 16 22  1  0
 16 29  1  0
 17 18  1  1
 17 21  1  0
 18 19  1  0
 19 20  1  0
 20 21  1  0
 22 23  1  6
 22 24  1  0
 22 25  1  0
 25 26  1  0
 26 27  1  1
 26 28  1  0
 26 29  1  0
 29 30  1  1
 30 31  1  0
 31 32  2  0
 31 33  1  0
 33 34  1  1
 33 37  1  0
 34 35  1  0
 35 36  1  0
 37 36  1  6
M  END
