
     RDKit          3D

 37 41  0  0  0  0  0  0  0  0999 V2000
   -3.8950   -4.4530   -0.0810 C   0  0  0  0  0  0  0  0  0  0  0  0
   -3.3010   -3.1470   -0.5710 C   0  0  1  0  0  0  0  0  0  0  0  0
   -2.8510   -3.3070   -1.9830 C   0  0  0  0  0  0  0  0  0  0  0  0
   -1.3670   -3.0880   -2.1910 C   0  0  0  0  0  0  0  0  0  0  0  0
   -0.6310   -3.6930   -1.1210 N   0  0  0  0  0  0  0  0  0  0  0  0
    0.3660   -3.0650   -0.3260 C   0  0  0  0  0  0  0  0  0  0  0  0
    0.4220   -3.4770    0.8860 O   0  0  0  0  0  0  0  0  0  0  0  0
    1.2810   -2.0130   -0.8380 C   0  0  0  0  0  0  0  0  0  0  0  0
    1.2940   -0.8580    0.1880 C   0  0  2  0  0  0  0  0  0  0  0  0
   -0.1040   -0.4540    0.5790 C   0  0  0  0  0  0  0  0  0  0  0  0
   -1.1530   -0.0920   -0.0710 C   0  0  0  0  0  0  0  0  0  0  0  0
   -2.5650    0.3110    0.3270 C   0  0  1  0  0  0  0  0  0  0  0  0
   -3.3660    0.3710   -0.9930 C   0  0  0  0  0  0  0  0  0  0  0  0
   -3.2910   -0.5890    1.2160 C   0  0  0  0  0  0  0  0  0  0  0  0
   -4.5290   -1.2090    0.7140 C   0  0  0  0  0  0  0  0  0  0  0  0
   -4.3940   -2.1280   -0.4290 C   0  0  0  0  0  0  0  0  0  0  0  0
   -5.2060   -2.0970   -1.3520 O   0  0  0  0  0  0  0  0  0  0  0  0
   -2.4890    1.7660    0.8260 C   0  0  2  0  0  0  0  0  0  0  0  0
   -3.7350    2.5370    0.7380 C   0  0  0  0  0  0  0  0  0  0  0  0
   -3.3990    3.9870    1.1320 C   0  0  0  0  0  0  0  0  0  0  0  0
   -2.4290    4.4490    0.0730 C   0  0  0  0  0  0  0  0  0  0  0  0
   -1.1570    3.5950    0.2890 C   0  0  2  0  0  0  0  0  0  0  0  0
   -0.0910    4.1610   -0.5470 C   0  0  0  0  0  0  0  0  0  0  0  0
    1.0280    3.7600   -1.0210 C   0  0  0  0  0  0  0  0  0  0  0  0
    1.9020    2.5950   -1.0460 C   0  0  0  0  0  0  0  0  0  0  0  0
    1.7710    1.6640    0.0960 C   0  0  0  0  0  0  0  0  0  0  0  0
    2.2090    0.2460   -0.1960 C   0  0  1  0  0  0  0  0  0  0  0  0
    3.5480    0.0700    0.4600 C   0  0  2  0  0  0  0  0  0  0  0  0
    4.5860    1.1140    0.1450 C   0  0  0  0  0  0  0  0  0  0  0  0
    5.8410    0.6700    0.9340 C   0  0  2  0  0  0  0  0  0  0  0  0
    7.0150    1.6270    0.7420 C   0  0  0  0  0  0  0  0  0  0  0  0
    7.0250    0.2090    0.2150 C   0  0  0  0  0  0  0  0  0  0  0  0
    4.1280   -1.3240    0.3420 C   0  0  0  0  0  0  0  0  0  0  0  0
    3.2170   -2.2610    1.0710 C   0  0  0  0  0  0  0  0  0  0  0  0
    1.9300   -1.5930    1.3720 C   0  0  0  0  0  0  0  0  0  0  0  0
    1.3880   -1.5970    2.4380 O   0  0  0  0  0  0  0  0  0  0  0  0
   -1.4330    2.2840    0.1060 O   0  0  0  0  0  0  0  0  0  0  0  0
  2  1  1  6
  2  3  1  0
  2 16  1  0
  3  4  1  0
  4  5  1  0
  5  6  1  0
  6  7  2  0
  6  8  1  0
  9  8  1  6
  9 10  1  0
  9 27  1  0
  9 35  1  0
 10 11  2  0
 11 12  1  0
 12 13  1  6
 12 14  1  0
 12 18  1  0
 14 15  1  0
 15 16  1  0
 16 17  2  0
 18 19  1  6
 18 37  1  0
 19 20  1  0
 20 21  1  0
 22 21  1  6
 22 23  1  0
 22 37  1  0
 23 24  2  0
 24 25  1  0
 25 26  1  0
 27 26  1  1
 27 28  1  0
 28 29  1  6
 28 33  1  0
 30 29  1  6
 30 31  1  0
 30 32  1  0
 31 32  1  0
 33 34  1  0
 34 35  1  0
 35 36  2  0
M  END
