
     RDKit          3D

 37 42  0  0  0  0  0  0  0  0999 V2000
    0.4200    3.6650    2.2560 C   0  0  0  0  0  0  0  0  0  0  0  0
   -0.5740    2.9650    1.3820 C   0  0  0  0  0  0  0  0  0  0  0  0
    0.1160    2.0440    0.3790 C   0  0  2  0  0  0  0  0  0  0  0  0
    1.0010    2.8860   -0.4560 C   0  0  0  0  0  0  0  0  0  0  0  0
    1.0050    4.1300   -0.0860 O   0  0  0  0  0  0  0  0  0  0  0  0
    1.8180    2.5020   -1.5780 C   0  0  0  0  0  0  0  0  0  0  0  0
    2.7750    1.6230   -1.7020 C   0  0  0  0  0  0  0  0  0  0  0  0
    3.3270    0.7220   -0.6740 C   0  0  2  0  0  0  0  0  0  0  0  0
    4.4580    1.3890    0.1210 C   0  0  0  0  0  0  0  0  0  0  0  0
    4.7360    0.3880    1.2510 C   0  0  0  0  0  0  0  0  0  0  0  0
    5.1660   -0.9470    0.7520 C   0  0  0  0  0  0  0  0  0  0  0  0
    4.4170   -1.4960   -0.4070 C   0  0  1  0  0  0  0  0  0  0  0  0
    5.3650   -2.4660   -1.1340 C   0  0  0  0  0  0  0  0  0  0  0  0
    3.1830   -2.2930   -0.0460 C   0  0  0  0  0  0  0  0  0  0  0  0
    2.1290   -1.9930   -0.9030 O   0  0  0  0  0  0  0  0  0  0  0  0
    0.9820   -1.9450   -0.2270 C   0  0  0  0  0  0  0  0  0  0  0  0
   -0.0750   -0.9750   -0.4560 C   0  0  0  0  0  0  0  0  0  0  0  0
   -0.1710    0.1380   -1.1360 C   0  0  0  0  0  0  0  0  0  0  0  0
   -0.8890    1.2770   -0.4340 C   0  0  2  0  0  0  0  0  0  0  0  0
   -1.4490    2.2450   -1.4500 C   0  0  0  0  0  0  0  0  0  0  0  0
   -1.0310    2.5200   -2.5980 O   0  0  0  0  0  0  0  0  0  0  0  0
   -2.6080    2.8420   -0.8710 N   0  0  0  0  0  0  0  0  0  0  0  0
   -3.1550    1.8630    0.0530 C   0  0  0  0  0  0  0  0  0  0  0  0
   -4.3230    1.9990    0.4950 O   0  0  0  0  0  0  0  0  0  0  0  0
   -2.1290    0.8640    0.2720 C   0  0  1  0  0  0  0  0  0  0  0  0
   -2.5760   -0.5740   -0.0870 C   0  0  2  0  0  0  0  0  0  0  0  0
   -2.8530   -0.7380   -1.5460 C   0  0  0  0  0  0  0  0  0  0  0  0
   -4.1460   -0.1340   -2.0390 C   0  0  0  0  0  0  0  0  0  0  0  0
   -5.2950   -0.6550   -1.2670 C   0  0  0  0  0  0  0  0  0  0  0  0
   -4.7870   -1.6470   -0.2670 C   0  0  0  0  0  0  0  0  0  0  0  0
   -3.7530   -1.0080    0.6880 C   0  0  1  0  0  0  0  0  0  0  0  0
   -3.6180   -1.9910    1.7520 C   0  0  0  0  0  0  0  0  0  0  0  0
   -4.8400   -2.3450    2.5290 C   0  0  0  0  0  0  0  0  0  0  0  0
   -2.4980   -2.5640    2.0500 C   0  0  0  0  0  0  0  0  0  0  0  0
   -1.3420   -2.1860    1.2750 C   0  0  0  0  0  0  0  0  0  0  0  0
   -1.3200   -1.3280    0.3120 C   0  0  0  0  0  0  0  0  0  0  0  0
    4.0070   -0.4500   -1.3800 C   0  0  0  0  0  0  0  0  0  0  0  0
  1  2  1  0
  3  2  1  1
  3  4  1  0
  3 19  1  0
  4  5  2  0
  4  6  1  0
  6  7  2  0
  7  8  1  0
  8  9  1  6
  8 37  1  0
  9 10  1  0
 10 11  1  0
 11 12  1  0
 12 13  1  6
 12 14  1  0
 12 37  1  0
 14 15  1  0
 15 16  1  0
 16 17  1  0
 17 18  2  0
 17 36  1  0
 18 19  1  0
 19 20  1  6
 19 25  1  0
 20 21  2  0
 20 22  1  0
 22 23  1  0
 23 24  2  0
 25 23  1  6
 25 26  1  0
 26 27  1  6
 26 31  1  0
 26 36  1  0
 27 28  1  0
 28 29  1  0
 29 30  1  0
 31 30  1  6
 31 32  1  0
 32 33  1  0
 32 34  2  0
 34 35  1  0
 35 36  2  0
M  END
