
     RDKit          3D

 37 41  0  0  0  0  0  0  0  0999 V2000
   -5.8740   -2.1910   -0.5610 C   0  0  0  0  0  0  0  0  0  0  0  0
   -4.6850   -1.3350   -0.3330 C   0  0  0  0  0  0  0  0  0  0  0  0
   -3.4020   -1.7970   -0.4350 C   0  0  0  0  0  0  0  0  0  0  0  0
   -2.2560   -0.9970   -0.2220 C   0  0  0  0  0  0  0  0  0  0  0  0
   -2.3960    0.3310    0.1090 C   0  0  0  0  0  0  0  0  0  0  0  0
   -3.6790    0.8360    0.2210 C   0  0  0  0  0  0  0  0  0  0  0  0
   -4.7880   -0.0120   -0.0030 C   0  0  0  0  0  0  0  0  0  0  0  0
   -4.1360    2.2160    0.5620 C   0  0  2  0  0  0  0  0  0  0  0  0
   -5.6400    2.3230    0.8110 C   0  0  0  0  0  0  0  0  0  0  0  0
   -3.9020    3.2100   -0.4600 N   0  0  0  0  0  0  0  0  0  0  0  0
   -2.7090    3.9820   -0.4820 C   0  0  0  0  0  0  0  0  0  0  0  0
   -2.2260    4.4330   -1.5720 O   0  0  0  0  0  0  0  0  0  0  0  0
   -2.0270    4.2580    0.7880 C   0  0  0  0  0  0  0  0  0  0  0  0
   -0.8510    4.9690    0.7130 O   0  0  0  0  0  0  0  0  0  0  0  0
    0.2080    4.9390   -0.1170 C   0  0  0  0  0  0  0  0  0  0  0  0
    0.4770    6.0020   -0.7950 O   0  0  0  0  0  0  0  0  0  0  0  0
    1.1470    3.8330   -0.3820 C   0  0  1  0  0  0  0  0  0  0  0  0
    2.5620    4.3830   -0.6150 C   0  0  0  0  0  0  0  0  0  0  0  0
    3.5370    3.3040   -0.9460 C   0  0  0  0  0  0  0  0  0  0  0  0
    3.6230    2.2990    0.2120 C   0  0  2  0  0  0  0  0  0  0  0  0
    4.3390    1.0450   -0.1260 C   0  0  0  0  0  0  0  0  0  0  0  0
    3.3700    0.0020    0.4770 C   0  0  1  0  0  0  0  0  0  0  0  0
    2.0930    0.5990   -0.0970 C   0  0  0  0  0  0  0  0  0  0  0  0
    2.1700    1.8130    0.2970 C   0  0  0  0  0  0  0  0  0  0  0  0
    1.2880    2.8620    0.7920 C   0  0  0  0  0  0  0  0  0  0  0  0
    3.7490   -1.3060   -0.0660 C   0  0  0  0  0  0  0  0  0  0  0  0
    2.6770   -2.3420   -0.2060 C   0  0  1  0  0  0  0  0  0  0  0  0
    3.3710   -3.5060   -0.9470 C   0  0  0  0  0  0  0  0  0  0  0  0
    2.1160   -2.8560    1.0760 C   0  0  2  0  0  0  0  0  0  0  0  0
    2.8990   -4.0650    1.4870 C   0  0  0  0  0  0  0  0  0  0  0  0
    2.4290   -5.2530    1.1830 C   0  0  0  0  0  0  0  0  0  0  0  0
    1.1870   -5.5630    0.4640 C   0  0  0  0  0  0  0  0  0  0  0  0
    0.3380   -4.3560    0.1520 C   0  0  0  0  0  0  0  0  0  0  0  0
    0.6590   -3.1950    1.0590 C   0  0  2  0  0  0  0  0  0  0  0  0
   -0.1560   -2.0130    0.7490 C   0  0  0  0  0  0  0  0  0  0  0  0
   -0.1160   -1.0820    1.5600 O   0  0  0  0  0  0  0  0  0  0  0  0
   -1.0210   -1.8050   -0.4180 C   0  0  0  0  0  0  0  0  0  0  0  0
  1  2  1  0
  2  3  2  0
  2  7  1  0
  3  4  1  0
  4  5  2  0
  4 37  1  0
  5  6  1  0
  6  7  2  0
  6  8  1  0
  8  9  1  6
  8 10  1  0
 10 11  1  0
 11 12  2  0
 11 13  1  0
 13 14  1  0
 14 15  1  0
 15 16  2  0
 15 17  1  0
 17 18  1  1
 17 25  1  0
 18 19  1  0
 20 19  1  6
 20 21  1  0
 20 24  1  0
 22 21  1  6
 22 23  1  0
 22 26  1  0
 23 24  2  0
 24 25  1  0
 26 27  1  0
 27 28  1  1
 27 29  1  0
 29 30  1  6
 29 34  1  0
 30 31  2  0
 31 32  1  0
 32 33  1  0
 34 33  1  6
 34 35  1  0
 35 36  2  0
 35 37  1  0
M  END
