
     RDKit          3D

 37 41  0  0  0  0  0  0  0  0999 V2000
    3.0000    3.5090    1.8930 C   0  0  0  0  0  0  0  0  0  0  0  0
    3.5290    2.3450    1.0900 C   0  0  0  0  0  0  0  0  0  0  0  0
    4.7460    2.4080    0.9160 O   0  0  0  0  0  0  0  0  0  0  0  0
    2.6470    1.3030    0.6100 C   0  0  0  0  0  0  0  0  0  0  0  0
    3.0850    0.2780   -0.0850 C   0  0  0  0  0  0  0  0  0  0  0  0
    4.5880    0.3990   -0.2510 C   0  0  0  0  0  0  0  0  0  0  0  0
    5.1360   -0.2600    0.9710 C   0  0  0  0  0  0  0  0  0  0  0  0
    5.3600   -1.7310    0.8940 C   0  0  0  0  0  0  0  0  0  0  0  0
    4.6040   -2.5380   -0.0680 C   0  0  1  0  0  0  0  0  0  0  0  0
    5.4030   -3.8450   -0.2650 C   0  0  0  0  0  0  0  0  0  0  0  0
    3.2370   -3.0440    0.4270 C   0  0  0  0  0  0  0  0  0  0  0  0
    2.2370   -2.1470   -0.2690 C   0  0  0  0  0  0  0  0  0  0  0  0
    2.2290   -0.8310   -0.5790 C   0  0  0  0  0  0  0  0  0  0  0  0
    1.1310   -0.6440   -1.6020 C   0  0  0  0  0  0  0  0  0  0  0  0
    0.7300   -2.0170   -1.9120 C   0  0  1  0  0  0  0  0  0  0  0  0
    1.0550   -2.7130   -0.7140 O   0  0  0  0  0  0  0  0  0  0  0  0
   -0.4960   -2.3970   -2.5630 C   0  0  0  0  0  0  0  0  0  0  0  0
   -0.3130   -3.5590   -3.2050 O   0  0  0  0  0  0  0  0  0  0  0  0
   -1.8040   -1.9350   -2.7340 N   0  0  0  0  0  0  0  0  0  0  0  0
   -2.9520   -1.8350   -1.8880 C   0  0  1  0  0  0  0  0  0  0  0  0
   -2.8190   -2.5650   -0.5870 C   0  0  0  0  0  0  0  0  0  0  0  0
   -2.7700   -1.5950    0.5260 C   0  0  1  0  0  0  0  0  0  0  0  0
   -4.0290   -1.6540    1.3190 C   0  0  0  0  0  0  0  0  0  0  0  0
   -1.6810   -2.1180    1.5080 C   0  0  0  0  0  0  0  0  0  0  0  0
   -2.2770   -0.2020    0.1750 C   0  0  0  0  0  0  0  0  0  0  0  0
   -2.8510    0.4980   -0.9640 C   0  0  1  0  0  0  0  0  0  0  0  0
   -1.8680    1.0000   -2.0220 C   0  0  0  0  0  0  0  0  0  0  0  0
   -3.6530   -0.4970   -1.7710 C   0  0  0  0  0  0  0  0  0  0  0  0
   -3.6640    1.7270   -0.6330 C   0  0  1  0  0  0  0  0  0  0  0  0
   -4.3560    1.8110    0.6560 C   0  0  0  0  0  0  0  0  0  0  0  0
   -4.1690    3.1670    1.3750 C   0  0  0  0  0  0  0  0  0  0  0  0
   -2.7460    3.5240    1.6110 C   0  0  0  0  0  0  0  0  0  0  0  0
   -1.8550    3.2030    0.4080 C   0  0  2  0  0  0  0  0  0  0  0  0
   -2.8000    2.9890   -0.7370 C   0  0  0  0  0  0  0  0  0  0  0  0
   -0.9270    2.2970    0.6940 O   0  0  0  0  0  0  0  0  0  0  0  0
    0.3980    2.4800    0.4510 C   0  0  0  0  0  0  0  0  0  0  0  0
    1.2100    1.3980    1.0620 C   0  0  0  0  0  0  0  0  0  0  0  0
  1  2  1  0
  2  3  2  0
  2  4  1  0
  4  5  2  0
  4 37  1  0
  5  6  1  0
  5 13  1  0
  6  7  1  0
  7  8  1  0
  8  9  1  0
  9 10  1  1
  9 11  1  0
 11 12  1  0
 12 13  2  0
 12 16  1  0
 13 14  1  0
 14 15  1  0
 15 16  1  1
 15 17  1  0
 17 18  2  0
 17 19  1  0
 19 20  1  0
 20 21  1  1
 20 28  1  0
 21 22  1  0
 22 23  1  1
 22 24  1  0
 22 25  1  0
 25 26  1  0
 26 27  1  6
 26 28  1  0
 26 29  1  0
 29 30  1  1
 29 34  1  0
 30 31  1  0
 31 32  1  0
 33 32  1  1
 33 34  1  0
 33 35  1  0
 35 36  1  0
 36 37  1  0
M  END
