
     RDKit          3D

 46 50  0  0  0  0  0  0  0  0999 V2000
    9.1130    0.0100    3.3470 C   0  0  0  0  0  0  0  0  0  0  0  0
    7.9980    0.0070    2.4560 O   0  0  0  0  0  0  0  0  0  0  0  0
    8.2190    0.3180    1.1240 C   0  0  0  0  0  0  0  0  0  0  0  0
    9.4760    0.6280    0.6450 C   0  0  0  0  0  0  0  0  0  0  0  0
    9.6840    0.9390   -0.6950 C   0  0  0  0  0  0  0  0  0  0  0  0
   10.9440    1.2510   -1.1840 C   0  0  0  0  0  0  0  0  0  0  0  0
   11.1530    1.5590   -2.5100 C   0  0  0  0  0  0  0  0  0  0  0  0
   10.0990    1.5680   -3.4110 C   0  0  0  0  0  0  0  0  0  0  0  0
    8.8510    1.2560   -2.9130 C   0  0  0  0  0  0  0  0  0  0  0  0
    8.6380    0.9470   -1.5860 C   0  0  0  0  0  0  0  0  0  0  0  0
    7.3810    0.6330   -1.0860 C   0  0  0  0  0  0  0  0  0  0  0  0
    7.1650    0.3260    0.2290 C   0  0  0  0  0  0  0  0  0  0  0  0
    5.8040   -0.0130    0.7610 C   0  0  0  0  0  0  0  0  0  0  0  0
    4.9080    0.0620   -0.3300 O   0  0  0  0  0  0  0  0  0  0  0  0
    3.5680   -0.2050   -0.1370 C   0  0  0  0  0  0  0  0  0  0  0  0
    3.1050   -0.5450    1.1140 C   0  0  0  0  0  0  0  0  0  0  0  0
    1.7900   -0.8120    1.3250 C   0  0  0  0  0  0  0  0  0  0  0  0
    0.8960   -0.7390    0.2490 C   0  0  0  0  0  0  0  0  0  0  0  0
   -0.4700   -1.0480    0.5000 N   0  0  0  0  0  0  0  0  0  0  0  0
   -1.5650   -0.6680   -0.3000 C   0  0  0  0  0  0  0  0  0  0  0  0
   -1.3770    0.0280   -1.3310 O   0  0  0  0  0  0  0  0  0  0  0  0
   -2.9360   -1.0670    0.0520 C   0  0  2  0  0  0  0  0  0  0  0  0
   -3.8030    0.0800   -0.1040 N   0  0  0  0  0  0  0  0  0  0  0  0
   -4.7590    0.2490   -1.1150 C   0  0  0  0  0  0  0  0  0  0  0  0
   -4.8730   -0.6800   -1.9620 O   0  0  0  0  0  0  0  0  0  0  0  0
   -5.6070    1.4100   -1.2400 C   0  0  0  0  0  0  0  0  0  0  0  0
   -5.4450    2.4440   -0.2570 N   0  0  0  0  0  0  0  0  0  0  0  0
   -6.2790    3.6100   -0.3580 C   0  0  0  0  0  0  0  0  0  0  0  0
   -7.2240    3.7380   -1.3680 C   0  0  0  0  0  0  0  0  0  0  0  0
   -8.0130    4.8660   -1.4460 C   0  0  0  0  0  0  0  0  0  0  0  0
   -7.8960    5.9010   -0.5340 C   0  0  0  0  0  0  0  0  0  0  0  0
   -8.7460    7.1200   -0.6150 C   0  0  0  0  0  0  0  0  0  0  0  0
   -6.9720    5.7460    0.4310 N   0  0  0  0  0  0  0  0  0  0  0  0
   -6.1850    4.6570    0.5360 C   0  0  0  0  0  0  0  0  0  0  0  0
   -3.1320   -1.8980    1.2660 C   0  0  1  0  0  0  0  0  0  0  0  0
   -4.6150   -2.1360    1.4930 C   0  0  0  0  0  0  0  0  0  0  0  0
   -4.9120   -3.3550    2.2770 C   0  0  0  0  0  0  0  0  0  0  0  0
   -4.3730   -4.5880    1.6540 C   0  0  0  0  0  0  0  0  0  0  0  0
   -3.3370   -4.2930    0.7740 N   0  0  0  0  0  0  0  0  0  0  0  0
   -3.0980   -5.2250   -0.5960 S   0  0  1  0  0  0  0  0  0  0  0  0
   -4.4230   -5.2430   -1.7420 C   0  0  0  0  0  0  0  0  0  0  0  0
   -1.8730   -4.7000   -1.3290 O   0  0  0  0  0  0  0  0  0  0  0  0
   -2.7280   -6.6380   -0.1730 O   0  0  0  0  0  0  0  0  0  0  0  0
   -2.4380   -3.2310    1.0350 C   0  0  0  0  0  0  0  0  0  0  0  0
    1.3260   -0.4030   -1.0110 C   0  0  0  0  0  0  0  0  0  0  0  0
    2.6850   -0.1340   -1.1980 C   0  0  0  0  0  0  0  0  0  0  0  0
  1  2  1  0
  2  3  1  0
  3  4  2  0
  3 12  1  0
  4  5  1  0
  5  6  2  0
  5 10  1  0
  6  7  1  0
  7  8  2  0
  8  9  1  0
  9 10  2  0
 10 11  1  0
 11 12  2  0
 12 13  1  0
 13 14  1  0
 14 15  1  0
 15 16  2  0
 15 46  1  0
 16 17  1  0
 17 18  2  0
 18 19  1  0
 18 45  1  0
 19 20  1  0
 20 21  2  0
 20 22  1  0
 22 23  1  1
 22 35  1  0
 23 24  1  0
 24 25  2  0
 24 26  1  0
 26 27  1  0
 27 28  1  0
 28 29  2  0
 28 34  1  0
 29 30  1  0
 30 31  2  0
 31 32  1  0
 31 33  1  0
 33 34  2  0
 35 36  1  6
 35 44  1  0
 36 37  1  0
 37 38  1  0
 38 39  1  0
 39 40  1  0
 39 44  1  0
 40 41  1  6
 40 42  2  0
 40 43  2  0
 45 46  2  0
M  END
