
     RDKit          3D

 47 52  0  0  0  0  0  0  0  0999 V2000
    2.7360    1.9790    3.0070 O   0  0  0  0  0  0  0  0  0  0  0  0
    2.2710    2.1940    1.8620 C   0  0  0  0  0  0  0  0  0  0  0  0
    2.6730    3.3420    1.1720 N   0  0  0  0  0  0  0  0  0  0  0  0
    3.6340    4.2370    1.8460 C   0  0  2  0  0  0  0  0  0  0  0  0
    3.1740    5.6560    1.8820 C   0  0  0  0  0  0  0  0  0  0  0  0
    3.9190    6.3430    0.7530 C   0  0  0  0  0  0  0  0  0  0  0  0
    5.2730    5.6630    0.7850 C   0  0  0  0  0  0  0  0  0  0  0  0
    4.9520    4.2280    1.0920 C   0  0  0  0  0  0  0  0  0  0  0  0
    1.2970    1.1810    1.3060 C   0  0  0  0  0  0  0  0  0  0  0  0
    0.7890    1.4030    0.1090 C   0  0  0  0  0  0  0  0  0  0  0  0
   -0.1360    0.7410   -0.7600 C   0  0  0  0  0  0  0  0  0  0  0  0
    0.2960    0.3700   -1.9500 O   0  0  0  0  0  0  0  0  0  0  0  0
   -1.5180    0.3910   -0.5710 N   0  0  0  0  0  0  0  0  0  0  0  0
   -2.5520    0.8400   -1.5200 C   0  0  0  0  0  0  0  0  0  0  0  0
   -2.7810   -0.0620   -2.6610 C   0  0  0  0  0  0  0  0  0  0  0  0
   -4.0640   -0.3390   -3.1580 C   0  0  0  0  0  0  0  0  0  0  0  0
   -3.9270   -1.2130   -4.2250 C   0  0  0  0  0  0  0  0  0  0  0  0
   -2.5900   -1.4220   -4.3240 C   0  0  0  0  0  0  0  0  0  0  0  0
   -1.9690   -0.7460   -3.4110 O   0  0  0  0  0  0  0  0  0  0  0  0
   -2.3360   -2.2530   -5.3250 C   0  0  0  0  0  0  0  0  0  0  0  0
   -3.6410   -2.6400   -5.9620 C   0  0  0  0  0  0  0  0  0  0  0  0
   -4.6050   -1.8860   -5.1260 C   0  0  0  0  0  0  0  0  0  0  0  0
   -2.0290   -0.3950    0.5370 C   0  0  1  0  0  0  0  0  0  0  0  0
   -2.5690    0.4870    1.6390 C   0  0  0  0  0  0  0  0  0  0  0  0
   -3.1180   -0.2540    2.8070 C   0  0  0  0  0  0  0  0  0  0  0  0
   -3.5890    0.7570    3.7930 C   0  0  0  0  0  0  0  0  0  0  0  0
   -4.8200    0.9370    4.2490 C   0  0  0  0  0  0  0  0  0  0  0  0
   -4.8380    1.9930    5.1630 O   0  0  0  0  0  0  0  0  0  0  0  0
   -3.4980    2.1900    5.5830 C   0  0  0  0  0  0  0  0  0  0  0  0
   -2.8030    1.7250    4.4340 O   0  0  0  0  0  0  0  0  0  0  0  0
   -3.0270   -1.4220    0.0570 C   0  0  0  0  0  0  0  0  0  0  0  0
   -2.7800   -2.7550    0.7620 C   0  0  0  0  0  0  0  0  0  0  0  0
   -1.7640   -3.5160    0.4020 C   0  0  0  0  0  0  0  0  0  0  0  0
   -0.7800   -3.1950   -0.6770 C   0  0  0  0  0  0  0  0  0  0  0  0
    0.5900   -3.6630   -0.3250 C   0  0  0  0  0  0  0  0  0  0  0  0
    1.5890   -2.6060   -0.1960 N   0  0  0  0  0  0  0  0  0  0  0  0
    2.1830   -2.2200   -1.4640 C   0  0  0  0  0  0  0  0  0  0  0  0
    3.3510   -3.1650   -1.6490 C   0  0  0  0  0  0  0  0  0  0  0  0
    3.7850   -4.1310   -0.8130 N   0  0  0  0  0  0  0  0  0  0  0  0
    4.8350   -4.7410   -1.3310 N   0  0  0  0  0  0  0  0  0  0  0  0
    5.1150   -4.1920   -2.5190 C   0  0  0  0  0  0  0  0  0  0  0  0
    6.0490   -4.4980   -3.3300 O   0  0  0  0  0  0  0  0  0  0  0  0
    4.1960   -3.2200   -2.7100 N   0  0  0  0  0  0  0  0  0  0  0  0
    2.0490   -1.9880    0.9900 C   0  0  0  0  0  0  0  0  0  0  0  0
    3.3690   -2.1350    1.1560 O   0  0  0  0  0  0  0  0  0  0  0  0
    1.3630   -1.2530    2.0220 C   0  0  0  0  0  0  0  0  0  0  0  0
    1.0530    0.0280    2.1590 C   0  0  0  0  0  0  0  0  0  0  0  0
  1  2  2  0
  2  3  1  0
  2  9  1  0
  4  3  1  6
  4  5  1  0
  4  8  1  0
  5  6  1  0
  6  7  1  0
  7  8  1  0
  9 10  2  0
  9 47  1  0
 10 11  1  0
 11 12  2  0
 11 13  1  0
 13 14  1  0
 13 23  1  0
 14 15  1  0
 15 16  2  0
 15 19  1  0
 16 17  1  0
 17 18  1  0
 17 22  2  0
 18 19  1  0
 18 20  2  0
 20 21  1  0
 21 22  1  0
 23 24  1  1
 23 31  1  0
 24 25  1  0
 25 26  1  0
 26 27  2  0
 26 30  1  0
 27 28  1  0
 28 29  1  0
 29 30  1  0
 31 32  1  0
 32 33  2  0
 33 34  1  0
 34 35  1  0
 35 36  1  0
 36 37  1  0
 36 44  1  0
 37 38  1  0
 38 39  2  0
 38 43  1  0
 39 40  1  0
 40 41  1  0
 41 42  2  0
 41 43  1  0
 44 45  2  0
 44 46  1  0
 46 47  2  0
M  END
