
     RDKit          3D

 46 50  0  0  0  0  0  0  0  0999 V2000
   -4.0810   -3.6790    0.3950 C   0  0  0  0  0  0  0  0  0  0  0  0
   -4.0310   -1.8790    0.2220 S   0  0  0  0  0  0  0  0  0  0  0  0
   -2.3480   -1.2400    0.4820 C   0  0  0  0  0  0  0  0  0  0  0  0
   -1.9080   -1.4290    1.8220 N   0  0  0  0  0  0  0  0  0  0  0  0
   -1.1850   -2.6270    2.1930 C   0  0  0  0  0  0  0  0  0  0  0  0
    0.2740   -2.3310    2.3170 C   0  0  0  0  0  0  0  0  0  0  0  0
    0.8150   -2.3580    3.5940 C   0  0  0  0  0  0  0  0  0  0  0  0
    2.1300   -2.0550    3.8450 C   0  0  0  0  0  0  0  0  0  0  0  0
    2.9490   -1.7100    2.7940 C   0  0  0  0  0  0  0  0  0  0  0  0
    2.4180   -1.6800    1.5070 C   0  0  0  0  0  0  0  0  0  0  0  0
    3.2600   -1.3270    0.4860 O   0  0  0  0  0  0  0  0  0  0  0  0
    3.0020   -1.2360   -0.8740 C   0  0  0  0  0  0  0  0  0  0  0  0
    4.2310   -0.7400   -1.5900 C   0  0  2  0  0  0  0  0  0  0  0  0
    4.1050   -0.6540   -2.9400 O   0  0  0  0  0  0  0  0  0  0  0  0
    5.4400   -1.4610   -1.0770 C   0  0  0  0  0  0  0  0  0  0  0  0
    6.6440   -0.7450   -1.5360 N   0  0  0  0  0  0  0  0  0  0  0  0
    7.2990   -1.0850   -2.7900 C   0  0  0  0  0  0  0  0  0  0  0  0
    8.2190    0.0650   -3.1670 C   0  0  0  0  0  0  0  0  0  0  0  0
    9.2290    0.3350   -2.0980 C   0  0  0  0  0  0  0  0  0  0  0  0
    8.6480    0.5330   -0.7290 C   0  0  0  0  0  0  0  0  0  0  0  0
    7.1930    0.3030   -0.7650 C   0  0  0  0  0  0  0  0  0  0  0  0
    6.3900    1.0460   -0.1010 O   0  0  0  0  0  0  0  0  0  0  0  0
    1.0810   -1.9900    1.2630 C   0  0  0  0  0  0  0  0  0  0  0  0
   -2.1780   -0.4400    2.8280 C   0  0  0  0  0  0  0  0  0  0  0  0
   -1.7420   -0.6580    3.9830 O   0  0  0  0  0  0  0  0  0  0  0  0
   -2.9060    0.7410    2.5350 N   0  0  0  0  0  0  0  0  0  0  0  0
   -3.1970    1.7710    3.4600 C   0  0  0  0  0  0  0  0  0  0  0  0
   -2.6170    1.7790    4.7180 C   0  0  0  0  0  0  0  0  0  0  0  0
   -2.8450    2.8380    5.6070 C   0  0  0  0  0  0  0  0  0  0  0  0
   -3.6550    3.8630    5.1950 C   0  0  0  0  0  0  0  0  0  0  0  0
   -4.2360    3.8630    3.9480 C   0  0  0  0  0  0  0  0  0  0  0  0
   -4.0140    2.7980    3.0460 C   0  0  0  0  0  0  0  0  0  0  0  0
   -4.7050    2.8330    1.8030 C   0  0  0  0  0  0  0  0  0  0  0  0
   -5.4150    3.9040    1.5640 O   0  0  0  0  0  0  0  0  0  0  0  0
   -4.7880    1.9420    0.7720 O   0  0  0  0  0  0  0  0  0  0  0  0
   -5.5510    2.1660   -0.4070 C   0  0  2  0  0  0  0  0  0  0  0  0
   -6.6450    1.2450   -0.6370 C   0  0  0  0  0  0  0  0  0  0  0  0
   -7.6130    0.9970    0.1060 O   0  0  0  0  0  0  0  0  0  0  0  0
   -6.4270    0.6400   -1.9110 N   0  0  0  0  0  0  0  0  0  0  0  0
   -5.1950    1.1100   -2.4760 C   0  0  0  0  0  0  0  0  0  0  0  0
   -4.5610    0.7900   -3.6660 C   0  0  0  0  0  0  0  0  0  0  0  0
   -5.2250   -0.1810   -4.6070 C   0  0  0  0  0  0  0  0  0  0  0  0
   -3.3410    1.3660   -3.9740 C   0  0  0  0  0  0  0  0  0  0  0  0
   -2.7800    2.2500   -3.0920 C   0  0  0  0  0  0  0  0  0  0  0  0
   -3.4270    2.5500   -1.9240 C   0  0  0  0  0  0  0  0  0  0  0  0
   -4.6390    2.0100   -1.5640 C   0  0  0  0  0  0  0  0  0  0  0  0
  1  2  1  0
  2  3  1  0
  3  4  1  0
  4  5  1  0
  4 24  1  0
  5  6  1  0
  6  7  2  0
  6 23  1  0
  7  8  1  0
  8  9  2  0
  9 10  1  0
 10 11  1  0
 10 23  2  0
 11 12  1  0
 12 13  1  0
 13 14  1  6
 13 15  1  0
 15 16  1  0
 16 17  1  0
 16 21  1  0
 17 18  1  0
 18 19  1  0
 19 20  1  0
 20 21  1  0
 21 22  2  0
 24 25  2  0
 24 26  1  0
 26 27  1  0
 27 28  2  0
 27 32  1  0
 28 29  1  0
 29 30  2  0
 30 31  1  0
 31 32  2  0
 32 33  1  0
 33 34  2  0
 33 35  1  0
 36 35  1  1
 36 37  1  0
 36 46  1  0
 37 38  2  0
 37 39  1  0
 39 40  1  0
 40 41  2  0
 40 46  1  0
 41 42  1  0
 41 43  1  0
 43 44  2  0
 44 45  1  0
 45 46  2  0
M  END
