
     RDKit          3D

 46 50  0  0  0  0  0  0  0  0999 V2000
    7.2270    1.0550   -2.0950 C   0  0  0  0  0  0  0  0  0  0  0  0
    6.2610    0.9520   -1.1190 O   0  0  0  0  0  0  0  0  0  0  0  0
    6.4740    0.6310    0.2430 C   0  0  0  0  0  0  0  0  0  0  0  0
    7.6610    0.3670    0.7570 C   0  0  0  0  0  0  0  0  0  0  0  0
    7.7880    0.0650    2.1350 C   0  0  0  0  0  0  0  0  0  0  0  0
    6.6370    0.0550    2.9260 C   0  0  0  0  0  0  0  0  0  0  0  0
    6.6830   -0.2320    4.2830 O   0  0  0  0  0  0  0  0  0  0  0  0
    7.8760   -0.6330    4.9350 C   0  0  0  0  0  0  0  0  0  0  0  0
    5.3810    0.3390    2.3550 C   0  0  0  0  0  0  0  0  0  0  0  0
    4.2870    0.3030    3.1630 O   0  0  0  0  0  0  0  0  0  0  0  0
    2.9870    0.3250    2.6430 C   0  0  0  0  0  0  0  0  0  0  0  0
    2.3440   -0.9200    2.5230 C   0  0  0  0  0  0  0  0  0  0  0  0
    1.0970   -1.0220    2.0370 C   0  0  0  0  0  0  0  0  0  0  0  0
    0.4070    0.1130    1.6370 C   0  0  0  0  0  0  0  0  0  0  0  0
   -0.9420   -0.0620    1.1220 C   0  0  0  0  0  0  0  0  0  0  0  0
   -1.1950   -0.1790   -0.2110 C   0  0  0  0  0  0  0  0  0  0  0  0
   -0.4620   -0.0500   -1.3790 C   0  0  0  0  0  0  0  0  0  0  0  0
    0.7800    0.2370   -1.3880 O   0  0  0  0  0  0  0  0  0  0  0  0
   -1.2970   -0.2790   -2.3940 N   0  0  0  0  0  0  0  0  0  0  0  0
   -0.8640   -0.1730   -3.8050 C   0  0  0  0  0  0  0  0  0  0  0  0
   -1.1430    1.1670   -4.3190 C   0  0  0  0  0  0  0  0  0  0  0  0
   -0.8510    1.4220   -5.5620 O   0  0  0  0  0  0  0  0  0  0  0  0
   -1.7110    2.2630   -3.6510 N   0  0  0  0  0  0  0  0  0  0  0  0
   -1.9930    3.5480   -4.2270 C   0  0  1  0  0  0  0  0  0  0  0  0
   -3.0320    3.4340   -5.3470 C   0  0  0  0  0  0  0  0  0  0  0  0
   -2.4450    4.5560   -3.2460 C   0  0  0  0  0  0  0  0  0  0  0  0
   -0.7320    4.1080   -4.9000 C   0  0  0  0  0  0  0  0  0  0  0  0
    0.1540    4.5010   -5.3530 N   0  0  0  0  0  0  0  0  0  0  0  0
   -2.5200   -0.5500   -1.9860 N   0  0  0  0  0  0  0  0  0  0  0  0
   -2.5390   -0.5010   -0.6020 C   0  0  0  0  0  0  0  0  0  0  0  0
   -3.5570   -0.6900    0.2560 N   0  0  0  0  0  0  0  0  0  0  0  0
   -4.8530   -1.0400   -0.1900 C   0  0  0  0  0  0  0  0  0  0  0  0
   -5.0250   -2.5490   -0.4310 C   0  0  1  0  0  0  0  0  0  0  0  0
   -4.0710   -2.8560   -1.4470 O   0  0  0  0  0  0  0  0  0  0  0  0
   -4.6830   -3.3960    0.7500 C   0  0  0  0  0  0  0  0  0  0  0  0
   -4.9390   -5.1740    0.3540 S   0  0  0  0  0  0  0  0  0  0  0  0
   -6.7050   -5.5320    0.1510 C   0  0  0  0  0  0  0  0  0  0  0  0
   -3.2740   -0.5580    1.5730 C   0  0  0  0  0  0  0  0  0  0  0  0
   -4.2770   -0.7160    2.4880 C   0  0  0  0  0  0  0  0  0  0  0  0
   -4.0500   -0.5870    3.8210 C   0  0  0  0  0  0  0  0  0  0  0  0
   -2.7600   -0.2820    4.2610 C   0  0  0  0  0  0  0  0  0  0  0  0
   -1.7270   -0.1070    3.4010 C   0  0  0  0  0  0  0  0  0  0  0  0
   -1.9860   -0.2470    2.0350 C   0  0  0  0  0  0  0  0  0  0  0  0
    0.9990    1.3890    1.7330 C   0  0  0  0  0  0  0  0  0  0  0  0
    2.2970    1.3950    2.2490 C   0  0  0  0  0  0  0  0  0  0  0  0
    5.3030    0.6210    1.0300 C   0  0  0  0  0  0  0  0  0  0  0  0
  1  2  1  0
  2  3  1  0
  3  4  2  0
  3 46  1  0
  4  5  1  0
  5  6  2  0
  6  7  1  0
  6  9  1  0
  7  8  1  0
  9 10  1  0
  9 46  2  0
 10 11  1  0
 11 12  2  0
 11 45  1  0
 12 13  1  0
 13 14  2  0
 14 15  1  0
 14 44  1  0
 15 16  2  0
 15 43  1  0
 16 17  1  0
 16 30  1  0
 17 18  2  0
 17 19  1  0
 19 20  1  0
 19 29  1  0
 20 21  1  0
 21 22  2  0
 21 23  1  0
 23 24  1  0
 24 25  1  6
 24 26  1  0
 24 27  1  0
 27 28  3  0
 29 30  2  0
 30 31  1  0
 31 32  1  0
 31 38  1  0
 32 33  1  0
 33 34  1  6
 33 35  1  0
 35 36  1  0
 36 37  1  0
 38 39  2  0
 38 43  1  0
 39 40  1  0
 40 41  2  0
 41 42  1  0
 42 43  2  0
 44 45  2  0
M  END
