
     RDKit          3D

 46 49  0  0  0  0  0  0  0  0999 V2000
   -3.6130    2.7070    1.6550 C   0  0  0  0  0  0  0  0  0  0  0  0
   -3.8270    1.8700    0.4560 C   0  0  0  0  0  0  0  0  0  0  0  0
   -2.7510    0.9080    0.1690 N   0  0  0  0  0  0  0  0  0  0  0  0
   -1.7460    1.2510   -0.7450 C   0  0  0  0  0  0  0  0  0  0  0  0
   -0.5110    1.9410   -0.4340 C   0  0  1  0  0  0  0  0  0  0  0  0
   -0.6790    3.2690    0.1290 N   0  0  0  0  0  0  0  0  0  0  0  0
   -0.4080    4.4760   -0.5670 C   0  0  0  0  0  0  0  0  0  0  0  0
    0.0080    4.4240   -1.7500 O   0  0  0  0  0  0  0  0  0  0  0  0
   -0.5940    5.8200    0.0480 C   0  0  0  0  0  0  0  0  0  0  0  0
    0.6790    6.5610    0.1240 C   0  0  0  0  0  0  0  0  0  0  0  0
    1.2390    7.3960   -0.8060 C   0  0  0  0  0  0  0  0  0  0  0  0
    2.4460    7.8580   -0.2790 C   0  0  0  0  0  0  0  0  0  0  0  0
    3.4180    8.7980   -0.9290 C   0  0  0  0  0  0  0  0  0  0  0  0
    2.5480    7.3000    0.8980 O   0  0  0  0  0  0  0  0  0  0  0  0
    1.5280    6.5360    1.1580 N   0  0  0  0  0  0  0  0  0  0  0  0
    0.6100    1.2340    0.2000 C   0  0  0  0  0  0  0  0  0  0  0  0
    0.9140    1.3850    1.5420 C   0  0  0  0  0  0  0  0  0  0  0  0
    1.9950    0.7270    2.0840 C   0  0  0  0  0  0  0  0  0  0  0  0
    2.7930   -0.0910    1.3160 C   0  0  0  0  0  0  0  0  0  0  0  0
    3.9040   -0.7720    1.8490 O   0  0  0  0  0  0  0  0  0  0  0  0
    4.2930   -0.6830    3.1960 C   0  0  0  0  0  0  0  0  0  0  0  0
    2.5050   -0.2540   -0.0210 C   0  0  0  0  0  0  0  0  0  0  0  0
    3.3330   -1.1000   -0.8850 C   0  0  0  0  0  0  0  0  0  0  0  0
    4.3120   -0.4950   -1.4520 O   0  0  0  0  0  0  0  0  0  0  0  0
    3.1490   -2.4580   -1.1290 N   0  0  0  0  0  0  0  0  0  0  0  0
    2.0870   -3.2600   -0.5850 C   0  0  0  0  0  0  0  0  0  0  0  0
    0.8560   -3.3080   -1.4290 C   0  0  0  0  0  0  0  0  0  0  0  0
   -0.0640   -4.1340   -0.7500 O   0  0  0  0  0  0  0  0  0  0  0  0
    4.0990   -3.0990   -1.9950 C   0  0  0  0  0  0  0  0  0  0  0  0
    5.1810   -2.9730   -2.4640 N   0  0  0  0  0  0  0  0  0  0  0  0
    5.8560   -3.7420   -3.2720 C   0  0  0  0  0  0  0  0  0  0  0  0
    5.2410   -4.8790   -3.6540 C   0  0  0  0  0  0  0  0  0  0  0  0
    3.6320   -4.7740   -2.7780 S   0  0  0  0  0  0  0  0  0  0  0  0
    1.4190    0.4140   -0.5430 C   0  0  0  0  0  0  0  0  0  0  0  0
   -2.8450   -0.3400    0.8100 C   0  0  0  0  0  0  0  0  0  0  0  0
   -3.8690   -0.4850    1.6150 O   0  0  0  0  0  0  0  0  0  0  0  0
   -1.9410   -1.4990    0.6770 C   0  0  1  0  0  0  0  0  0  0  0  0
   -1.1790   -1.7040    1.9820 C   0  0  0  0  0  0  0  0  0  0  0  0
   -2.7320   -2.7520    0.3980 C   0  0  0  0  0  0  0  0  0  0  0  0
   -2.8060   -3.7600    1.3160 C   0  0  0  0  0  0  0  0  0  0  0  0
   -3.5240   -4.9290    1.0840 C   0  0  0  0  0  0  0  0  0  0  0  0
   -3.5810   -6.0010    2.0960 C   0  0  0  0  0  0  0  0  0  0  0  0
   -4.1880   -5.0910   -0.1030 C   0  0  0  0  0  0  0  0  0  0  0  0
   -4.1190   -4.0860   -1.0240 C   0  0  0  0  0  0  0  0  0  0  0  0
   -3.4000   -2.9170   -0.7910 C   0  0  0  0  0  0  0  0  0  0  0  0
   -3.3750   -1.8800   -1.8490 C   0  0  0  0  0  0  0  0  0  0  0  0
  1  2  1  0
  2  3  1  0
  3  4  1  0
  3 35  1  0
  5  4  1  1
  5  6  1  0
  5 16  1  0
  6  7  1  0
  7  8  2  0
  7  9  1  0
  9 10  1  0
 10 11  1  0
 10 15  2  0
 11 12  2  0
 12 13  1  0
 12 14  1  0
 14 15  1  0
 16 17  2  0
 16 34  1  0
 17 18  1  0
 18 19  2  0
 19 20  1  0
 19 22  1  0
 20 21  1  0
 22 23  1  0
 22 34  2  0
 23 24  2  0
 23 25  1  0
 25 26  1  0
 25 29  1  0
 26 27  1  0
 27 28  1  0
 29 30  2  0
 29 33  1  0
 30 31  1  0
 31 32  2  0
 32 33  1  0
 35 36  2  0
 35 37  1  0
 37 38  1  1
 37 39  1  0
 39 40  2  0
 39 45  1  0
 40 41  1  0
 41 42  1  0
 41 43  2  0
 43 44  1  0
 44 45  2  0
 45 46  1  0
M  END
