
     RDKit          3D

 46 50  0  0  0  0  0  0  0  0999 V2000
    7.2580    6.1510   -0.4970 C   0  0  0  0  0  0  0  0  0  0  0  0
    7.3340    5.4270    0.8310 C   0  0  0  0  0  0  0  0  0  0  0  0
    6.4650    4.3210    0.8960 O   0  0  0  0  0  0  0  0  0  0  0  0
    5.1180    4.4660    0.8190 C   0  0  0  0  0  0  0  0  0  0  0  0
    4.4890    5.6850    0.6890 C   0  0  0  0  0  0  0  0  0  0  0  0
    3.1340    5.7320    0.6140 C   0  0  0  0  0  0  0  0  0  0  0  0
    2.3090    4.6390    0.6550 N   0  0  0  0  0  0  0  0  0  0  0  0
    2.9460    3.4130    0.7820 C   0  0  0  0  0  0  0  0  0  0  0  0
    2.0720    2.3280    0.8170 O   0  0  0  0  0  0  0  0  0  0  0  0
    1.4730    1.7350   -0.2810 C   0  0  0  0  0  0  0  0  0  0  0  0
    1.7770    2.1350   -1.4070 O   0  0  0  0  0  0  0  0  0  0  0  0
    0.4390    0.6520   -0.0740 C   0  0  0  0  0  0  0  0  0  0  0  0
    0.2020    0.2030    1.2440 C   0  0  0  0  0  0  0  0  0  0  0  0
    1.1400    0.3230    2.3070 N   0  0  0  0  0  0  0  0  0  0  0  0
    2.1540   -0.3460    2.5900 C   0  0  0  0  0  0  0  0  0  0  0  0
    2.6950   -1.4990    1.9120 C   0  0  0  0  0  0  0  0  0  0  0  0
    3.9460   -1.9740    2.2880 C   0  0  0  0  0  0  0  0  0  0  0  0
    4.4900   -3.1070    1.7230 C   0  0  0  0  0  0  0  0  0  0  0  0
    3.8420   -3.8510    0.7510 C   0  0  0  0  0  0  0  0  0  0  0  0
    4.3290   -5.1090    0.1670 C   0  0  0  0  0  0  0  0  0  0  0  0
    5.4480   -5.0770   -0.5630 O   0  0  0  0  0  0  0  0  0  0  0  0
    6.6380   -4.7330   -0.0020 C   0  0  0  0  0  0  0  0  0  0  0  0
    2.5910   -3.3350    0.4010 C   0  0  0  0  0  0  0  0  0  0  0  0
    2.0500   -2.2160    0.9570 C   0  0  0  0  0  0  0  0  0  0  0  0
   -1.3360   -0.5860    1.1550 S   0  0  0  0  0  0  0  0  0  0  0  0
   -1.6030   -0.3050   -0.6550 C   0  0  0  0  0  0  0  0  0  0  0  0
   -2.7500   -0.9090   -1.3810 C   0  0  0  0  0  0  0  0  0  0  0  0
   -3.9290   -0.1380   -1.1130 N   0  0  0  0  0  0  0  0  0  0  0  0
   -4.1280    0.8760   -2.2400 C   0  0  0  0  0  0  0  0  0  0  0  0
   -5.0000    0.3740   -3.2980 C   0  0  2  0  0  0  0  0  0  0  0  0
   -4.8610   -0.9770   -3.8490 C   0  0  0  0  0  0  0  0  0  0  0  0
   -4.3130   -0.7010   -5.2440 C   0  0  0  0  0  0  0  0  0  0  0  0
   -5.0600    0.5880   -5.5320 C   0  0  0  0  0  0  0  0  0  0  0  0
   -5.0560    1.3000   -4.3330 O   0  0  0  0  0  0  0  0  0  0  0  0
   -4.8530   -0.1580   -0.1390 C   0  0  0  0  0  0  0  0  0  0  0  0
   -5.7100    0.8800   -0.1720 O   0  0  0  0  0  0  0  0  0  0  0  0
   -5.1710   -1.0260    0.9710 C   0  0  0  0  0  0  0  0  0  0  0  0
   -4.6810   -2.2150    0.9560 O   0  0  0  0  0  0  0  0  0  0  0  0
   -5.9720   -0.6990    2.0560 N   0  0  0  0  0  0  0  0  0  0  0  0
   -6.4510   -1.3780    3.1870 C   0  0  2  0  0  0  0  0  0  0  0  0
   -5.8990   -1.2290    4.5260 C   0  0  0  0  0  0  0  0  0  0  0  0
   -6.0340   -2.6030    3.8900 C   0  0  2  0  0  0  0  0  0  0  0  0
   -4.8850   -3.4700    3.5660 C   0  0  0  0  0  0  0  0  0  0  0  0
   -0.4920    0.3610   -0.9880 C   0  0  0  0  0  0  0  0  0  0  0  0
   -0.3150    0.7550   -2.4580 C   0  0  0  0  0  0  0  0  0  0  0  0
    4.2580    3.3240    0.8630 C   0  0  0  0  0  0  0  0  0  0  0  0
  1  2  1  0
  2  3  1  0
  3  4  1  0
  4  5  2  0
  4 46  1  0
  5  6  1  0
  6  7  2  0
  7  8  1  0
  8  9  1  0
  8 46  2  0
  9 10  1  0
 10 11  2  0
 10 12  1  0
 12 13  2  0
 12 44  1  0
 13 14  1  0
 13 25  1  0
 14 15  2  3
 15 16  1  0
 16 17  2  0
 16 24  1  0
 17 18  1  0
 18 19  2  0
 19 20  1  0
 19 23  1  0
 20 21  1  0
 21 22  1  0
 23 24  2  0
 25 26  1  0
 26 27  1  0
 26 44  2  0
 27 28  1  0
 28 29  1  0
 28 35  1  0
 30 29  1  1
 30 31  1  0
 30 34  1  0
 31 32  1  0
 32 33  1  0
 33 34  1  0
 35 36  2  0
 35 37  1  0
 37 38  2  0
 37 39  1  0
 40 39  1  6
 40 41  1  0
 40 42  1  0
 41 42  1  0
 42 43  1  6
 44 45  1  0
M  END
