
     RDKit          3D

 46 51  0  0  0  0  0  0  0  0999 V2000
   -2.7860    1.3210    2.6740 C   0  0  0  0  0  0  0  0  0  0  0  0
   -3.4160    1.1030    1.3350 C   0  0  0  0  0  0  0  0  0  0  0  0
   -2.6980    0.9450    0.2530 C   0  0  0  0  0  0  0  0  0  0  0  0
   -1.2610    0.9530    0.1430 C   0  0  0  0  0  0  0  0  0  0  0  0
   -0.9100    1.0040   -1.1490 O   0  0  0  0  0  0  0  0  0  0  0  0
   -0.1230    0.9220    0.9790 C   0  0  0  0  0  0  0  0  0  0  0  0
    0.0540    0.3630    2.2160 C   0  0  0  0  0  0  0  0  0  0  0  0
    1.1350    0.4880    3.0030 N   0  0  0  0  0  0  0  0  0  0  0  0
    2.1810    1.2160    2.5940 C   0  0  0  0  0  0  0  0  0  0  0  0
    3.2190    1.3680    3.2890 O   0  0  0  0  0  0  0  0  0  0  0  0
    2.1130    1.8280    1.3480 C   0  0  0  0  0  0  0  0  0  0  0  0
    3.2300    2.5820    0.9510 O   0  0  0  0  0  0  0  0  0  0  0  0
    3.2220    3.2320   -0.3080 C   0  0  0  0  0  0  0  0  0  0  0  0
    4.4950    3.9980   -0.5320 C   0  0  0  0  0  0  0  0  0  0  0  0
    5.9090    2.9330   -0.5650 S   0  0  0  0  0  0  0  0  0  0  0  0
    6.2150    2.0590    0.9430 C   0  0  0  0  0  0  0  0  0  0  0  0
    6.9130    2.5020    2.0030 N   0  0  0  0  0  0  0  0  0  0  0  0
    6.9580    1.5690    2.9410 C   0  0  0  0  0  0  0  0  0  0  0  0
    7.6020    1.5810    4.2870 C   0  0  0  0  0  0  0  0  0  0  0  0
    6.2410    0.4950    2.4150 C   0  0  0  0  0  0  0  0  0  0  0  0
    5.7840    0.7920    1.1910 N   0  0  0  0  0  0  0  0  0  0  0  0
    5.0120   -0.0100    0.2730 C   0  0  0  0  0  0  0  0  0  0  0  0
    5.6550   -1.3520    0.1050 C   0  0  0  0  0  0  0  0  0  0  0  0
    6.8950   -1.4910    0.9080 C   0  0  0  0  0  0  0  0  0  0  0  0
    6.6760   -1.8830    2.3510 C   0  0  0  0  0  0  0  0  0  0  0  0
    6.0350   -0.7850    3.1520 C   0  0  0  0  0  0  0  0  0  0  0  0
    1.0030    1.6900    0.5630 C   0  0  0  0  0  0  0  0  0  0  0  0
   -3.4480    0.5120   -1.0310 C   0  0  1  0  0  0  0  0  0  0  0  0
   -3.4180   -0.9880   -0.9680 C   0  0  0  0  0  0  0  0  0  0  0  0
   -4.3000   -1.7220   -0.2100 C   0  0  0  0  0  0  0  0  0  0  0  0
   -4.2510   -3.0980   -0.1510 C   0  0  0  0  0  0  0  0  0  0  0  0
   -3.3010   -3.8280   -0.8590 C   0  0  0  0  0  0  0  0  0  0  0  0
   -3.2730   -5.3010   -0.7740 C   0  0  0  0  0  0  0  0  0  0  0  0
   -4.1850   -5.9080   -1.6250 O   0  0  0  0  0  0  0  0  0  0  0  0
   -2.4210   -3.1130   -1.6170 C   0  0  0  0  0  0  0  0  0  0  0  0
   -2.4770   -1.7230   -1.6710 C   0  0  0  0  0  0  0  0  0  0  0  0
   -4.7380    1.0790   -1.0990 N   0  0  0  0  0  0  0  0  0  0  0  0
   -5.3550    1.5850   -2.3120 C   0  0  0  0  0  0  0  0  0  0  0  0
   -6.1710    0.5250   -3.0190 C   0  0  2  0  0  0  0  0  0  0  0  0
   -5.3610   -0.6430   -3.4970 C   0  0  0  0  0  0  0  0  0  0  0  0
   -5.8990   -0.9350   -4.8700 C   0  0  0  0  0  0  0  0  0  0  0  0
   -7.1110   -0.0340   -4.9520 C   0  0  0  0  0  0  0  0  0  0  0  0
   -6.7850    1.0610   -4.1540 O   0  0  0  0  0  0  0  0  0  0  0  0
   -5.5430    1.2220    0.0940 C   0  0  0  0  0  0  0  0  0  0  0  0
   -6.8060    1.3270    0.0190 O   0  0  0  0  0  0  0  0  0  0  0  0
   -4.8420    1.2360    1.3080 N   0  0  0  0  0  0  0  0  0  0  0  0
  1  2  1  0
  2  3  2  0
  2 46  1  0
  3  4  1  0
  3 28  1  0
  4  5  2  0
  4  6  1  0
  6  7  2  0
  6 27  1  0
  7  8  1  0
  8  9  1  0
  9 10  2  0
  9 11  1  0
 11 12  1  0
 11 27  2  0
 12 13  1  0
 13 14  1  0
 14 15  1  0
 15 16  1  0
 16 17  2  0
 16 21  1  0
 17 18  1  0
 18 19  1  0
 18 20  2  0
 20 21  1  0
 20 26  1  0
 21 22  1  0
 22 23  1  0
 23 24  1  0
 24 25  1  0
 25 26  1  0
 28 29  1  1
 28 37  1  0
 29 30  2  0
 29 36  1  0
 30 31  1  0
 31 32  2  0
 32 33  1  0
 32 35  1  0
 33 34  1  0
 35 36  2  0
 37 38  1  0
 37 44  1  0
 39 38  1  6
 39 40  1  0
 39 43  1  0
 40 41  1  0
 41 42  1  0
 42 43  1  0
 44 45  2  0
 44 46  1  0
M  END
