
     RDKit          3D

 46 50  0  0  0  0  0  0  0  0999 V2000
   -1.6180   -6.9070    0.5080 C   0  0  0  0  0  0  0  0  0  0  0  0
    0.0350   -6.2550    0.2560 S   0  0  0  0  0  0  0  0  0  0  0  0
    0.4450   -4.9270    1.3830 C   0  0  0  0  0  0  0  0  0  0  0  0
   -0.3490   -3.7230    1.1800 N   0  0  0  0  0  0  0  0  0  0  0  0
    0.1320   -2.7450    0.2640 C   0  0  0  0  0  0  0  0  0  0  0  0
    1.0000   -1.7810    1.0090 C   0  0  0  0  0  0  0  0  0  0  0  0
    0.8540   -1.6840    2.3650 C   0  0  0  0  0  0  0  0  0  0  0  0
    1.6820   -0.7960    3.0460 C   0  0  0  0  0  0  0  0  0  0  0  0
    2.6040   -0.0600    2.3500 C   0  0  0  0  0  0  0  0  0  0  0  0
    2.7580   -0.1510    0.9920 C   0  0  0  0  0  0  0  0  0  0  0  0
    3.7180    0.6220    0.3130 O   0  0  0  0  0  0  0  0  0  0  0  0
    3.8270    0.4810   -1.0790 C   0  0  0  0  0  0  0  0  0  0  0  0
    4.9400    1.4160   -1.5490 C   0  0  2  0  0  0  0  0  0  0  0  0
    5.0660    1.2790   -2.9370 O   0  0  0  0  0  0  0  0  0  0  0  0
    6.2010    1.0060   -0.8570 C   0  0  0  0  0  0  0  0  0  0  0  0
    7.3370    1.7870   -1.2600 N   0  0  0  0  0  0  0  0  0  0  0  0
    7.6900    3.0090   -0.5600 C   0  0  0  0  0  0  0  0  0  0  0  0
    9.1820    3.1390   -0.3540 C   0  0  0  0  0  0  0  0  0  0  0  0
    9.9760    2.0340   -0.9800 C   0  0  0  0  0  0  0  0  0  0  0  0
    9.5170    1.8740   -2.4290 C   0  0  0  0  0  0  0  0  0  0  0  0
    8.1310    1.3620   -2.3550 C   0  0  0  0  0  0  0  0  0  0  0  0
    7.6680    0.5940   -3.2040 O   0  0  0  0  0  0  0  0  0  0  0  0
    1.9440   -1.0230    0.3210 C   0  0  0  0  0  0  0  0  0  0  0  0
   -1.5940   -3.5500    1.8930 C   0  0  0  0  0  0  0  0  0  0  0  0
   -1.9710   -4.4600    2.6760 O   0  0  0  0  0  0  0  0  0  0  0  0
   -2.3650   -2.3820    1.7080 N   0  0  0  0  0  0  0  0  0  0  0  0
   -3.5910   -2.1180    2.3630 C   0  0  0  0  0  0  0  0  0  0  0  0
   -4.0860   -2.8580    3.4080 C   0  0  0  0  0  0  0  0  0  0  0  0
   -5.2690   -2.5790    4.0810 C   0  0  0  0  0  0  0  0  0  0  0  0
   -6.0080   -1.5060    3.7010 C   0  0  0  0  0  0  0  0  0  0  0  0
   -5.5620   -0.7410    2.6710 C   0  0  0  0  0  0  0  0  0  0  0  0
   -4.3620   -1.0240    1.9860 C   0  0  0  0  0  0  0  0  0  0  0  0
   -4.0500   -0.1260    0.8880 C   0  0  0  0  0  0  0  0  0  0  0  0
   -3.0610   -0.2070    0.1310 O   0  0  0  0  0  0  0  0  0  0  0  0
   -4.8910    0.9610    0.5850 O   0  0  0  0  0  0  0  0  0  0  0  0
   -4.6450    1.8640   -0.4670 C   0  0  2  0  0  0  0  0  0  0  0  0
   -4.6570    3.2470    0.0660 C   0  0  0  0  0  0  0  0  0  0  0  0
   -3.8260    3.7780    0.8540 O   0  0  0  0  0  0  0  0  0  0  0  0
   -5.7860    3.9770   -0.4370 N   0  0  0  0  0  0  0  0  0  0  0  0
   -6.5000    3.0860   -1.2810 C   0  0  0  0  0  0  0  0  0  0  0  0
   -7.6650    3.3200   -1.9950 C   0  0  0  0  0  0  0  0  0  0  0  0
   -8.3510    4.6420   -1.9600 C   0  0  0  0  0  0  0  0  0  0  0  0
   -8.2200    2.3260   -2.7610 C   0  0  0  0  0  0  0  0  0  0  0  0
   -7.6070    1.1050   -2.8080 C   0  0  0  0  0  0  0  0  0  0  0  0
   -6.4370    0.8680   -2.0910 C   0  0  0  0  0  0  0  0  0  0  0  0
   -5.8740    1.8600   -1.3200 C   0  0  0  0  0  0  0  0  0  0  0  0
  1  2  1  0
  2  3  1  0
  3  4  1  0
  4  5  1  0
  4 24  1  0
  5  6  1  0
  6  7  2  0
  6 23  1  0
  7  8  1  0
  8  9  2  0
  9 10  1  0
 10 11  1  0
 10 23  2  0
 11 12  1  0
 12 13  1  0
 13 14  1  6
 13 15  1  0
 15 16  1  0
 16 17  1  0
 16 21  1  0
 17 18  1  0
 18 19  1  0
 19 20  1  0
 20 21  1  0
 21 22  2  0
 24 25  2  0
 24 26  1  0
 26 27  1  0
 27 28  2  0
 27 32  1  0
 28 29  1  0
 29 30  2  0
 30 31  1  0
 31 32  2  0
 32 33  1  0
 33 34  2  0
 33 35  1  0
 36 35  1  1
 36 37  1  0
 36 46  1  0
 37 38  2  0
 37 39  1  0
 39 40  1  0
 40 41  2  0
 40 46  1  0
 41 42  1  0
 41 43  1  0
 43 44  2  0
 44 45  1  0
 45 46  2  0
M  END
