
     RDKit          3D

 46 49  0  0  0  0  0  0  0  0999 V2000
   -8.3630    4.8710    1.4900 C   0  0  0  0  0  0  0  0  0  0  0  0
   -8.6090    3.5190    2.0430 C   0  0  0  0  0  0  0  0  0  0  0  0
   -7.9460    2.4550    1.4420 O   0  0  0  0  0  0  0  0  0  0  0  0
   -6.6100    2.5300    1.4100 C   0  0  1  0  0  0  0  0  0  0  0  0
   -6.0170    1.4390    2.4000 C   0  0  0  0  0  0  0  0  0  0  0  0
   -4.5370    1.7990    2.6290 C   0  0  0  0  0  0  0  0  0  0  0  0
   -3.9790    2.1780    1.2710 C   0  0  0  0  0  0  0  0  0  0  0  0
   -4.8250    1.4360    0.2810 N   0  0  0  0  0  0  0  0  0  0  0  0
   -4.2080    0.2850   -0.2150 C   0  0  0  0  0  0  0  0  0  0  0  0
   -2.8440    0.3360   -0.5530 C   0  0  0  0  0  0  0  0  0  0  0  0
   -2.0550   -0.7450   -0.7450 C   0  0  0  0  0  0  0  0  0  0  0  0
   -2.5940   -1.9540   -0.6190 C   0  0  0  0  0  0  0  0  0  0  0  0
   -3.9310   -2.1890   -0.3330 C   0  0  0  0  0  0  0  0  0  0  0  0
   -4.7210   -1.0230   -0.1300 C   0  0  0  0  0  0  0  0  0  0  0  0
   -4.3980   -3.5340   -0.0940 C   0  0  0  0  0  0  0  0  0  0  0  0
   -3.3690   -4.0770    0.9990 C   0  0  0  0  0  0  0  0  0  0  0  0
   -2.1150   -4.3470    0.1640 C   0  0  0  0  0  0  0  0  0  0  0  0
   -1.6500   -3.0830   -0.3100 N   0  0  0  0  0  0  0  0  0  0  0  0
   -0.3180   -2.7950   -0.4710 C   0  0  0  0  0  0  0  0  0  0  0  0
   -0.0760   -2.5360   -2.4280 S   0  0  0  0  0  0  0  0  0  0  0  0
    1.1220   -3.9550   -2.7480 C   0  0  0  0  0  0  0  0  0  0  0  0
    0.3070   -5.2000   -2.3140 C   0  0  0  0  0  0  0  0  0  0  0  0
    0.8290   -2.9330   -0.0050 C   0  0  0  0  0  0  0  0  0  0  0  0
    1.1530   -3.7370    1.2250 C   0  0  0  0  0  0  0  0  0  0  0  0
    1.3860   -4.2970    2.1000 N   0  0  0  0  0  0  0  0  0  0  0  0
    1.9530   -2.1530   -0.4240 C   0  0  0  0  0  0  0  0  0  0  0  0
    3.1050   -2.6320    0.1730 O   0  0  0  0  0  0  0  0  0  0  0  0
    2.2680   -1.0490   -1.2230 N   0  0  0  0  0  0  0  0  0  0  0  0
    3.6400   -0.6780   -1.2800 C   0  0  0  0  0  0  0  0  0  0  0  0
    4.5250   -1.7340   -1.3710 C   0  0  0  0  0  0  0  0  0  0  0  0
    5.8580   -1.6080   -1.1890 C   0  0  0  0  0  0  0  0  0  0  0  0
    6.4180   -0.3430   -0.9070 C   0  0  0  0  0  0  0  0  0  0  0  0
    7.8520   -0.3500   -0.5420 C   0  0  0  0  0  0  0  0  0  0  0  0
    8.1860   -1.6870   -0.7770 O   0  0  0  0  0  0  0  0  0  0  0  0
    8.7850    0.2930   -0.1480 O   0  0  0  0  0  0  0  0  0  0  0  0
   10.1050    0.3850    0.2130 C   0  0  0  0  0  0  0  0  0  0  0  0
    5.6330    0.7530   -0.8400 C   0  0  0  0  0  0  0  0  0  0  0  0
    5.9810    2.1520   -0.6430 C   0  0  0  0  0  0  0  0  0  0  0  0
    5.0800    2.9620   -0.8300 O   0  0  0  0  0  0  0  0  0  0  0  0
    7.3330    2.5860   -0.2560 C   0  0  0  0  0  0  0  0  0  0  0  0
    7.4460    4.1460   -0.2680 C   0  0  0  0  0  0  0  0  0  0  0  0
    6.4180    4.7800    0.5400 C   0  0  0  0  0  0  0  0  0  0  0  0
    5.6230    4.1800    1.2970 O   0  0  0  0  0  0  0  0  0  0  0  0
    6.2330    6.2130    0.4740 O   0  0  0  0  0  0  0  0  0  0  0  0
    4.1790    0.5330   -1.0240 C   0  0  0  0  0  0  0  0  0  0  0  0
   -6.1060    1.9330    0.0530 C   0  0  0  0  0  0  0  0  0  0  0  0
  1  2  1  0
  2  3  1  0
  4  3  1  6
  4  5  1  0
  4 46  1  0
  5  6  1  0
  6  7  1  0
  7  8  1  0
  8  9  1  0
  8 46  1  0
  9 10  2  0
  9 14  1  0
 10 11  1  0
 11 12  2  0
 12 13  1  0
 12 18  1  0
 13 14  2  0
 13 15  1  0
 15 16  1  0
 16 17  1  0
 17 18  1  0
 18 19  1  0
 19 20  1  0
 19 23  2  3
 20 21  1  0
 21 22  1  0
 23 24  1  0
 23 26  1  0
 24 25  3  0
 26 27  2  0
 26 28  1  0
 28 29  1  0
 29 30  2  0
 29 45  1  0
 30 31  1  0
 31 32  2  0
 32 33  1  0
 32 37  1  0
 33 34  2  0
 33 35  1  0
 35 36  1  0
 37 38  1  0
 37 45  2  0
 38 39  2  0
 38 40  1  0
 40 41  1  0
 41 42  1  0
 42 43  2  0
 42 44  1  0
M  END
