
     RDKit          3D

 46 50  0  0  0  0  0  0  0  0999 V2000
    9.2780   -2.7650   -0.0960 C   0  0  0  0  0  0  0  0  0  0  0  0
    8.2700   -1.9920    0.4760 O   0  0  0  0  0  0  0  0  0  0  0  0
    8.0530   -0.6410    0.2460 C   0  0  0  0  0  0  0  0  0  0  0  0
    8.8220    0.1450   -0.5830 C   0  0  0  0  0  0  0  0  0  0  0  0
    8.5400    1.4900   -0.7690 C   0  0  0  0  0  0  0  0  0  0  0  0
    9.3460    2.3070   -1.5700 C   0  0  0  0  0  0  0  0  0  0  0  0
    9.1000    3.6710   -1.7290 C   0  0  0  0  0  0  0  0  0  0  0  0
    8.0240    4.2250   -1.0730 C   0  0  0  0  0  0  0  0  0  0  0  0
    7.2320    3.4260   -0.2850 C   0  0  0  0  0  0  0  0  0  0  0  0
    7.4640    2.0610   -0.1140 C   0  0  0  0  0  0  0  0  0  0  0  0
    6.6840    1.2990    0.7150 C   0  0  0  0  0  0  0  0  0  0  0  0
    6.9890   -0.0750    0.8980 C   0  0  0  0  0  0  0  0  0  0  0  0
    6.3270   -0.7860    2.0390 C   0  0  0  0  0  0  0  0  0  0  0  0
    5.1290   -1.2110    1.8250 O   0  0  0  0  0  0  0  0  0  0  0  0
    3.9210   -1.1100    1.3440 C   0  0  0  0  0  0  0  0  0  0  0  0
    3.3650   -0.1260    0.5590 C   0  0  0  0  0  0  0  0  0  0  0  0
    2.0540   -0.1340    0.0860 C   0  0  0  0  0  0  0  0  0  0  0  0
    1.2190   -1.1680    0.3950 C   0  0  0  0  0  0  0  0  0  0  0  0
   -0.0930   -1.3620   -0.0590 N   0  0  0  0  0  0  0  0  0  0  0  0
   -0.9630   -0.4380   -0.6920 C   0  0  0  0  0  0  0  0  0  0  0  0
   -0.5620    0.7110   -0.8660 O   0  0  0  0  0  0  0  0  0  0  0  0
   -2.3480   -0.8810   -1.1380 C   0  0  2  0  0  0  0  0  0  0  0  0
   -3.2070    0.2750   -1.2850 N   0  0  0  0  0  0  0  0  0  0  0  0
   -3.0840    1.3160   -2.1980 C   0  0  0  0  0  0  0  0  0  0  0  0
   -2.0910    1.2750   -2.9930 O   0  0  0  0  0  0  0  0  0  0  0  0
   -3.9870    2.4690   -2.3320 C   0  0  0  0  0  0  0  0  0  0  0  0
   -5.1250    2.3400   -1.4900 N   0  0  0  0  0  0  0  0  0  0  0  0
   -5.9220    3.3320   -0.8650 C   0  0  0  0  0  0  0  0  0  0  0  0
   -7.3170    3.1460   -0.7510 C   0  0  0  0  0  0  0  0  0  0  0  0
   -8.0870    4.0360   -0.0590 C   0  0  0  0  0  0  0  0  0  0  0  0
   -7.5570    5.1710    0.5650 C   0  0  0  0  0  0  0  0  0  0  0  0
   -8.4480    6.0500    1.3410 C   0  0  0  0  0  0  0  0  0  0  0  0
   -6.2270    5.3330    0.4350 N   0  0  0  0  0  0  0  0  0  0  0  0
   -5.4470    4.4630   -0.2410 C   0  0  0  0  0  0  0  0  0  0  0  0
   -2.9410   -1.8990   -0.2460 C   0  0  1  0  0  0  0  0  0  0  0  0
   -3.0550   -1.3210    1.1350 C   0  0  0  0  0  0  0  0  0  0  0  0
   -4.0120   -2.0700    2.0050 C   0  0  0  0  0  0  0  0  0  0  0  0
   -4.0870   -3.4840    1.4570 C   0  0  0  0  0  0  0  0  0  0  0  0
   -4.7470   -3.4320    0.2000 N   0  0  0  0  0  0  0  0  0  0  0  0
   -5.3150   -4.9360   -0.3140 S   0  0  2  0  0  0  0  0  0  0  0  0
   -4.0140   -6.1390   -0.5440 C   0  0  0  0  0  0  0  0  0  0  0  0
   -6.1480   -4.8780   -1.5420 O   0  0  0  0  0  0  0  0  0  0  0  0
   -6.1850   -5.4980    0.8140 O   0  0  0  0  0  0  0  0  0  0  0  0
   -4.2010   -2.5650   -0.7670 C   0  0  0  0  0  0  0  0  0  0  0  0
    1.7540   -2.1800    1.1980 C   0  0  0  0  0  0  0  0  0  0  0  0
    3.0250   -2.1910    1.6670 C   0  0  0  0  0  0  0  0  0  0  0  0
  1  2  1  0
  2  3  1  0
  3  4  2  0
  3 12  1  0
  4  5  1  0
  5  6  2  0
  5 10  1  0
  6  7  1  0
  7  8  2  0
  8  9  1  0
  9 10  2  0
 10 11  1  0
 11 12  2  0
 12 13  1  0
 13 14  1  0
 14 15  1  0
 15 16  2  0
 15 46  1  0
 16 17  1  0
 17 18  2  0
 18 19  1  0
 18 45  1  0
 19 20  1  0
 20 21  2  0
 20 22  1  0
 22 23  1  1
 22 35  1  0
 23 24  1  0
 24 25  2  0
 24 26  1  0
 26 27  1  0
 27 28  1  0
 28 29  2  0
 28 34  1  0
 29 30  1  0
 30 31  2  0
 31 32  1  0
 31 33  1  0
 33 34  2  0
 35 36  1  1
 35 44  1  0
 36 37  1  0
 37 38  1  0
 38 39  1  0
 39 40  1  0
 39 44  1  0
 40 41  1  6
 40 42  2  0
 40 43  2  0
 45 46  2  0
M  END
