
     RDKit          3D

 46 50  0  0  0  0  0  0  0  0999 V2000
    9.1400    0.9130    2.7240 C   0  0  0  0  0  0  0  0  0  0  0  0
    9.3710    0.6000    1.3530 O   0  0  0  0  0  0  0  0  0  0  0  0
    8.3170   -0.0570    0.7490 C   0  0  0  0  0  0  0  0  0  0  0  0
    8.4270   -0.3510   -0.6390 C   0  0  0  0  0  0  0  0  0  0  0  0
    7.4160   -1.0240   -1.2610 C   0  0  0  0  0  0  0  0  0  0  0  0
    6.2860   -1.4470   -0.5940 C   0  0  0  0  0  0  0  0  0  0  0  0
    5.2900   -2.1750   -1.0980 O   0  0  0  0  0  0  0  0  0  0  0  0
    4.3590   -2.8590   -1.5790 C   0  0  0  0  0  0  0  0  0  0  0  0
    6.2210   -1.1350    0.7560 C   0  0  0  0  0  0  0  0  0  0  0  0
    5.0380   -1.5270    1.4480 O   0  0  0  0  0  0  0  0  0  0  0  0
    3.8570   -0.8910    1.0280 C   0  0  0  0  0  0  0  0  0  0  0  0
    3.7490   -0.0740   -0.1740 C   0  0  0  0  0  0  0  0  0  0  0  0
    2.4190    0.4630   -0.2730 C   0  0  0  0  0  0  0  0  0  0  0  0
    1.4300    0.2920    0.5330 C   0  0  0  0  0  0  0  0  0  0  0  0
    0.1150    0.9700    0.3490 C   0  0  0  0  0  0  0  0  0  0  0  0
   -1.1010    0.2550    0.4700 C   0  0  0  0  0  0  0  0  0  0  0  0
   -1.4240   -0.9760    0.9160 C   0  0  0  0  0  0  0  0  0  0  0  0
   -0.7320   -1.9370    1.3180 O   0  0  0  0  0  0  0  0  0  0  0  0
   -2.7960   -1.0510    0.8530 N   0  0  0  0  0  0  0  0  0  0  0  0
   -3.5440   -2.1200    1.4140 C   0  0  0  0  0  0  0  0  0  0  0  0
   -3.7450   -3.3540    0.8010 C   0  0  0  0  0  0  0  0  0  0  0  0
   -2.9710   -4.3030    0.9220 O   0  0  0  0  0  0  0  0  0  0  0  0
   -4.8900   -3.7350   -0.0670 N   0  0  0  0  0  0  0  0  0  0  0  0
   -4.9430   -5.0990   -0.4190 C   0  0  1  0  0  0  0  0  0  0  0  0
   -5.5460   -5.6840    1.0410 C   0  0  0  0  0  0  0  0  0  0  0  0
   -5.9900   -5.5770   -1.3570 C   0  0  0  0  0  0  0  0  0  0  0  0
   -3.7670   -5.7910   -0.4120 C   0  0  0  0  0  0  0  0  0  0  0  0
   -2.5210   -6.5290   -0.4270 N   0  0  0  0  0  0  0  0  0  0  0  0
   -3.3070    0.1260    0.3920 N   0  0  0  0  0  0  0  0  0  0  0  0
   -2.2810    1.0050    0.1130 C   0  0  0  0  0  0  0  0  0  0  0  0
   -2.2530    2.2590   -0.3040 N   0  0  0  0  0  0  0  0  0  0  0  0
   -3.4240    3.0840   -0.4650 C   0  0  0  0  0  0  0  0  0  0  0  0
   -4.1570    2.9850   -1.7410 C   0  0  1  0  0  0  0  0  0  0  0  0
   -4.6660    1.7260   -1.9920 O   0  0  0  0  0  0  0  0  0  0  0  0
   -5.2250    4.0120   -1.9220 C   0  0  0  0  0  0  0  0  0  0  0  0
   -4.8100    5.6910   -2.0870 S   0  0  0  0  0  0  0  0  0  0  0  0
   -4.8240    6.6840   -0.5360 C   0  0  0  0  0  0  0  0  0  0  0  0
   -1.0390    2.9150   -0.4180 C   0  0  0  0  0  0  0  0  0  0  0  0
   -1.0030    4.2120   -0.8600 C   0  0  0  0  0  0  0  0  0  0  0  0
    0.2570    4.8480   -0.9220 C   0  0  0  0  0  0  0  0  0  0  0  0
    1.4080    4.2270   -0.5550 C   0  0  0  0  0  0  0  0  0  0  0  0
    1.3690    2.9590   -0.1320 C   0  0  0  0  0  0  0  0  0  0  0  0
    0.1150    2.2710   -0.0800 C   0  0  0  0  0  0  0  0  0  0  0  0
    1.5330   -0.5500    1.7300 C   0  0  0  0  0  0  0  0  0  0  0  0
    2.7970   -1.0140    1.7560 C   0  0  0  0  0  0  0  0  0  0  0  0
    7.1750   -0.4730    1.4580 C   0  0  0  0  0  0  0  0  0  0  0  0
  1  2  1  0
  2  3  1  0
  3  4  2  0
  3 46  1  0
  4  5  1  0
  5  6  2  0
  6  7  1  0
  6  9  1  0
  7  8  1  0
  9 10  1  0
  9 46  2  0
 10 11  1  0
 11 12  2  0
 11 45  1  0
 12 13  1  0
 13 14  2  0
 14 15  1  0
 14 44  1  0
 15 16  2  0
 15 43  1  0
 16 17  1  0
 16 30  1  0
 17 18  2  0
 17 19  1  0
 19 20  1  0
 19 29  1  0
 20 21  1  0
 21 22  2  0
 21 23  1  0
 23 24  1  0
 24 25  1  1
 24 26  1  0
 24 27  1  0
 27 28  3  0
 29 30  2  0
 30 31  1  0
 31 32  1  0
 31 38  1  0
 32 33  1  0
 33 34  1  1
 33 35  1  0
 35 36  1  0
 36 37  1  0
 38 39  2  0
 38 43  1  0
 39 40  1  0
 40 41  2  0
 41 42  1  0
 42 43  2  0
 44 45  2  0
M  END
