
     RDKit          3D

 47 52  0  0  0  0  0  0  0  0999 V2000
    2.7280    3.3180   -0.5360 O   0  0  0  0  0  0  0  0  0  0  0  0
    1.6150    3.0620   -0.0180 C   0  0  0  0  0  0  0  0  0  0  0  0
    1.4520    3.5830    1.2940 N   0  0  0  0  0  0  0  0  0  0  0  0
    2.5590    4.3490    1.9220 C   0  0  2  0  0  0  0  0  0  0  0  0
    2.6680    4.0930    3.3710 C   0  0  0  0  0  0  0  0  0  0  0  0
    2.2540    5.3590    4.0950 C   0  0  0  0  0  0  0  0  0  0  0  0
    2.0600    6.4350    3.0680 C   0  0  0  0  0  0  0  0  0  0  0  0
    2.2950    5.8350    1.7250 C   0  0  0  0  0  0  0  0  0  0  0  0
    0.5590    2.2810   -0.7270 C   0  0  0  0  0  0  0  0  0  0  0  0
   -0.5930    2.0690   -0.0650 C   0  0  0  0  0  0  0  0  0  0  0  0
   -1.8070    1.3890   -0.3930 C   0  0  0  0  0  0  0  0  0  0  0  0
   -2.8200    2.1210   -0.8580 O   0  0  0  0  0  0  0  0  0  0  0  0
   -2.1730    0.0100   -0.3120 N   0  0  0  0  0  0  0  0  0  0  0  0
   -3.0370   -0.5300   -1.3300 C   0  0  0  0  0  0  0  0  0  0  0  0
   -2.3860   -1.0690   -2.5350 C   0  0  0  0  0  0  0  0  0  0  0  0
   -2.0530   -2.3660   -2.8390 C   0  0  0  0  0  0  0  0  0  0  0  0
   -1.4560   -2.4200   -4.0920 C   0  0  0  0  0  0  0  0  0  0  0  0
   -1.4500   -1.1070   -4.5090 C   0  0  0  0  0  0  0  0  0  0  0  0
   -1.9940   -0.3440   -3.5900 O   0  0  0  0  0  0  0  0  0  0  0  0
   -0.8990   -1.0030   -5.7130 C   0  0  0  0  0  0  0  0  0  0  0  0
   -0.5010   -2.3540   -6.1410 C   0  0  0  0  0  0  0  0  0  0  0  0
   -0.9120   -3.2040   -5.0030 C   0  0  0  0  0  0  0  0  0  0  0  0
   -1.8190   -0.8830    0.7750 C   0  0  1  0  0  0  0  0  0  0  0  0
   -3.0010   -1.0530    1.7330 C   0  0  0  0  0  0  0  0  0  0  0  0
   -3.3490    0.3120    2.2910 C   0  0  0  0  0  0  0  0  0  0  0  0
   -4.4820    0.2400    3.2440 C   0  0  0  0  0  0  0  0  0  0  0  0
   -5.1240   -0.8680    3.5870 C   0  0  0  0  0  0  0  0  0  0  0  0
   -6.1310   -0.5250    4.5090 O   0  0  0  0  0  0  0  0  0  0  0  0
   -5.7380    0.7230    5.0430 C   0  0  0  0  0  0  0  0  0  0  0  0
   -5.0560    1.2940    3.9270 O   0  0  0  0  0  0  0  0  0  0  0  0
   -1.2180   -2.1880    0.4210 C   0  0  0  0  0  0  0  0  0  0  0  0
   -0.4730   -2.6450    1.6610 C   0  0  0  0  0  0  0  0  0  0  0  0
    0.8320   -2.7340    1.6990 C   0  0  0  0  0  0  0  0  0  0  0  0
    1.7730   -2.4370    0.6430 C   0  0  0  0  0  0  0  0  0  0  0  0
    1.8360   -1.0440    0.1080 C   0  0  0  0  0  0  0  0  0  0  0  0
    2.3560   -1.0560   -1.2760 N   0  0  0  0  0  0  0  0  0  0  0  0
    3.6650   -1.7410   -1.4130 C   0  0  0  0  0  0  0  0  0  0  0  0
    3.5400   -3.1640   -1.7110 C   0  0  0  0  0  0  0  0  0  0  0  0
    2.8540   -3.6760   -2.7560 N   0  0  0  0  0  0  0  0  0  0  0  0
    2.9390   -4.9750   -2.7520 N   0  0  0  0  0  0  0  0  0  0  0  0
    3.6930   -5.3650   -1.6910 C   0  0  0  0  0  0  0  0  0  0  0  0
    3.9950   -6.5440   -1.3580 O   0  0  0  0  0  0  0  0  0  0  0  0
    4.0460   -4.2240   -1.0730 N   0  0  0  0  0  0  0  0  0  0  0  0
    1.7090   -0.4990   -2.4020 C   0  0  0  0  0  0  0  0  0  0  0  0
    1.5040   -1.4570   -3.3080 O   0  0  0  0  0  0  0  0  0  0  0  0
    1.2750    0.8240   -2.7080 C   0  0  0  0  0  0  0  0  0  0  0  0
    0.8440    1.8820   -2.0960 C   0  0  0  0  0  0  0  0  0  0  0  0
  1  2  2  0
  2  3  1  0
  2  9  1  0
  4  3  1  1
  4  5  1  0
  4  8  1  0
  5  6  1  0
  6  7  1  0
  7  8  1  0
  9 10  2  0
  9 47  1  0
 10 11  1  0
 11 12  2  0
 11 13  1  0
 13 14  1  0
 13 23  1  0
 14 15  1  0
 15 16  2  0
 15 19  1  0
 16 17  1  0
 17 18  1  0
 17 22  2  0
 18 19  1  0
 18 20  2  0
 20 21  1  0
 21 22  1  0
 23 24  1  6
 23 31  1  0
 24 25  1  0
 25 26  1  0
 26 27  2  0
 26 30  1  0
 27 28  1  0
 28 29  1  0
 29 30  1  0
 31 32  1  0
 32 33  2  0
 33 34  1  0
 34 35  1  0
 35 36  1  0
 36 37  1  0
 36 44  1  0
 37 38  1  0
 38 39  2  0
 38 43  1  0
 39 40  1  0
 40 41  1  0
 41 42  2  0
 41 43  1  0
 44 45  2  0
 44 46  1  0
 46 47  2  0
M  END
