
     RDKit          3D

 46 50  0  0  0  0  0  0  0  0999 V2000
  -11.0330    2.8790    0.9250 C   0  0  0  0  0  0  0  0  0  0  0  0
   -9.9570    3.6170    1.6640 C   0  0  0  0  0  0  0  0  0  0  0  0
   -8.9450    2.7860    2.1920 O   0  0  0  0  0  0  0  0  0  0  0  0
   -8.1540    1.9830    1.3930 C   0  0  0  0  0  0  0  0  0  0  0  0
   -8.2760    1.9220    0.0240 C   0  0  0  0  0  0  0  0  0  0  0  0
   -7.4330    1.0790   -0.7130 C   0  0  0  0  0  0  0  0  0  0  0  0
   -6.4670    0.2940   -0.1060 C   0  0  0  0  0  0  0  0  0  0  0  0
   -5.6270   -0.5600   -0.9700 C   0  0  1  0  0  0  0  0  0  0  0  0
   -4.2030   -0.6180   -0.5650 C   0  0  0  0  0  0  0  0  0  0  0  0
   -3.4440    0.2900   -0.1480 O   0  0  0  0  0  0  0  0  0  0  0  0
   -3.7280   -1.9650   -0.7150 N   0  0  0  0  0  0  0  0  0  0  0  0
   -2.4120   -2.4850   -0.5830 C   0  0  0  0  0  0  0  0  0  0  0  0
   -1.6490   -2.7350   -1.7180 C   0  0  0  0  0  0  0  0  0  0  0  0
   -0.3730   -3.2460   -1.6140 C   0  0  0  0  0  0  0  0  0  0  0  0
    0.2120   -3.5360   -0.3860 C   0  0  0  0  0  0  0  0  0  0  0  0
    1.5820   -4.0910   -0.2990 C   0  0  0  0  0  0  0  0  0  0  0  0
    2.5790   -3.0510   -0.0710 N   0  0  0  0  0  0  0  0  0  0  0  0
    3.0460   -2.5950    1.1910 C   0  0  0  0  0  0  0  0  0  0  0  0
    2.6570   -3.0270    2.3110 O   0  0  0  0  0  0  0  0  0  0  0  0
    4.0300   -1.5620    0.9020 C   0  0  0  0  0  0  0  0  0  0  0  0
    4.8100   -0.7780    1.7230 C   0  0  0  0  0  0  0  0  0  0  0  0
    5.6960    0.1510    1.1630 C   0  0  0  0  0  0  0  0  0  0  0  0
    5.8410    0.3330   -0.1770 C   0  0  0  0  0  0  0  0  0  0  0  0
    6.7160    1.2140   -0.8180 N   0  0  0  0  0  0  0  0  0  0  0  0
    7.8420    1.8520   -0.2320 C   0  0  0  0  0  0  0  0  0  0  0  0
    8.0900    1.6060    0.9560 O   0  0  0  0  0  0  0  0  0  0  0  0
    8.6700    2.7350   -0.9370 N   0  0  0  0  0  0  0  0  0  0  0  0
    9.8400    3.4150   -0.5150 C   0  0  0  0  0  0  0  0  0  0  0  0
   11.0210    2.5500   -0.2990 C   0  0  1  0  0  0  0  0  0  0  0  0
   12.2370    3.3590    0.1710 C   0  0  0  0  0  0  0  0  0  0  0  0
   10.8820    1.4040    0.6250 C   0  0  0  0  0  0  0  0  0  0  0  0
   12.1550    0.7220    0.7110 O   0  0  0  0  0  0  0  0  0  0  0  0
    5.0460   -0.4650   -0.9950 C   0  0  0  0  0  0  0  0  0  0  0  0
    4.1740   -1.3790   -0.4530 C   0  0  0  0  0  0  0  0  0  0  0  0
    3.2490   -2.3260   -1.0870 C   0  0  0  0  0  0  0  0  0  0  0  0
    3.0950   -2.4570   -2.3130 O   0  0  0  0  0  0  0  0  0  0  0  0
   -0.5420   -3.2900    0.7410 C   0  0  0  0  0  0  0  0  0  0  0  0
   -1.8290   -2.7740    0.6320 C   0  0  0  0  0  0  0  0  0  0  0  0
   -4.8750   -2.7680   -1.0450 C   0  0  0  0  0  0  0  0  0  0  0  0
   -4.8540   -3.9350   -1.5250 O   0  0  0  0  0  0  0  0  0  0  0  0
   -6.0750   -1.9910   -0.7230 C   0  0  2  0  0  0  0  0  0  0  0  0
   -7.5080   -2.4210   -1.7390 S   0  0  0  0  0  0  0  0  0  0  0  0
   -7.0980   -2.4400   -3.5020 C   0  0  0  0  0  0  0  0  0  0  0  0
   -6.3410    0.3520    1.2720 C   0  0  0  0  0  0  0  0  0  0  0  0
   -7.1780    1.1890    1.9970 C   0  0  0  0  0  0  0  0  0  0  0  0
   -7.0540    1.2670    3.4670 C   0  0  0  0  0  0  0  0  0  0  0  0
  1  2  1  0
  2  3  1  0
  3  4  1  0
  4  5  2  0
  4 45  1  0
  5  6  1  0
  6  7  2  0
  8  7  1  1
  7 44  1  0
  8  9  1  0
  8 41  1  0
  9 10  2  0
  9 11  1  0
 11 12  1  0
 11 39  1  0
 12 13  2  0
 12 38  1  0
 13 14  1  0
 14 15  2  0
 15 16  1  0
 15 37  1  0
 16 17  1  0
 17 18  1  0
 17 35  1  0
 18 19  2  0
 18 20  1  0
 20 21  2  0
 20 34  1  0
 21 22  1  0
 22 23  2  0
 23 24  1  0
 23 33  1  0
 24 25  1  0
 25 26  2  0
 25 27  1  0
 27 28  1  0
 28 29  1  0
 29 30  1  1
 29 31  1  0
 31 32  1  0
 33 34  2  0
 34 35  1  0
 35 36  2  0
 37 38  2  0
 39 40  2  0
 39 41  1  0
 41 42  1  6
 42 43  1  0
 44 45  2  0
 45 46  1  0
M  END
