
     RDKit          3D

 41 44  0  0  0  0  0  0  0  0999 V2000
    6.3430    1.3820    1.9890 C   0  0  0  0  0  0  0  0  0  0  0  0
    5.1450    0.5000    2.1820 C   0  0  0  0  0  0  0  0  0  0  0  0
    4.8670    0.1240    3.4920 C   0  0  0  0  0  0  0  0  0  0  0  0
    3.7710   -0.6860    3.7640 C   0  0  0  0  0  0  0  0  0  0  0  0
    2.9900   -1.0880    2.6960 C   0  0  0  0  0  0  0  0  0  0  0  0
    3.2650   -0.7150    1.3930 C   0  0  0  0  0  0  0  0  0  0  0  0
    4.3560    0.0890    1.1230 C   0  0  0  0  0  0  0  0  0  0  0  0
    4.7590    0.5040   -0.2420 C   0  0  0  0  0  0  0  0  0  0  0  0
    3.8340    0.0360   -1.2600 N   0  0  0  0  0  0  0  0  0  0  0  0
    2.5350    0.5290   -1.3530 C   0  0  0  0  0  0  0  0  0  0  0  0
    2.2230    1.4300   -0.4810 O   0  0  0  0  0  0  0  0  0  0  0  0
    1.4730    0.1750   -2.2910 C   0  0  1  0  0  0  0  0  0  0  0  0
    0.2650    0.8930   -2.0340 N   0  0  0  0  0  0  0  0  0  0  0  0
   -0.9270    0.4550   -1.4590 C   0  0  0  0  0  0  0  0  0  0  0  0
   -1.9440    1.2690   -1.3610 O   0  0  0  0  0  0  0  0  0  0  0  0
   -1.1750   -0.8840   -0.9240 C   0  0  1  0  0  0  0  0  0  0  0  0
   -0.1280   -1.7430   -0.9030 O   0  0  0  0  0  0  0  0  0  0  0  0
   -1.8550   -0.7490    0.4320 C   0  0  2  0  0  0  0  0  0  0  0  0
   -2.4950   -2.0260    0.8880 C   0  0  0  0  0  0  0  0  0  0  0  0
   -1.5030   -3.0900    1.0130 C   0  0  0  0  0  0  0  0  0  0  0  0
   -0.7840   -3.2110    2.1980 C   0  0  0  0  0  0  0  0  0  0  0  0
    0.1210   -4.2290    2.3110 C   0  0  0  0  0  0  0  0  0  0  0  0
    0.3150   -5.1200    1.2610 C   0  0  0  0  0  0  0  0  0  0  0  0
   -0.3950   -4.9940    0.1020 C   0  0  0  0  0  0  0  0  0  0  0  0
   -1.3150   -3.9710   -0.0310 C   0  0  0  0  0  0  0  0  0  0  0  0
   -2.9550    0.2250    0.3310 N   0  0  0  0  0  0  0  0  0  0  0  0
   -2.9560    1.3230    1.1760 C   0  0  0  0  0  0  0  0  0  0  0  0
   -1.9780    1.4310    2.0030 O   0  0  0  0  0  0  0  0  0  0  0  0
   -3.9790    2.3510    1.1750 C   0  0  0  0  0  0  0  0  0  0  0  0
   -3.5190    3.6670    1.4240 C   0  0  0  0  0  0  0  0  0  0  0  0
   -4.4020    4.7060    1.3500 C   0  0  0  0  0  0  0  0  0  0  0  0
   -5.7110    4.4440    1.0360 C   0  0  0  0  0  0  0  0  0  0  0  0
   -6.1700    3.1590    0.7920 C   0  0  0  0  0  0  0  0  0  0  0  0
   -7.4820    2.9180    0.4750 O   0  0  0  0  0  0  0  0  0  0  0  0
   -5.2770    2.0860    0.8670 C   0  0  0  0  0  0  0  0  0  0  0  0
   -5.7950    0.7000    0.6880 C   0  0  0  0  0  0  0  0  0  0  0  0
    0.4120    2.3020   -2.4390 C   0  0  0  0  0  0  0  0  0  0  0  0
    1.5980    2.1930   -3.8280 S   0  0  0  0  0  0  0  0  0  0  0  0
    1.7990    0.3890   -3.7590 C   0  0  1  0  0  0  0  0  0  0  0  0
    3.1140   -0.0930   -4.2030 C   0  0  0  0  0  0  0  0  0  0  0  0
    0.6610   -0.1840   -4.5880 C   0  0  0  0  0  0  0  0  0  0  0  0
  1  2  1  0
  2  3  2  0
  2  7  1  0
  3  4  1  0
  4  5  2  0
  5  6  1  0
  6  7  2  0
  7  8  1  0
  8  9  1  0
  9 10  1  0
 10 11  2  0
 12 10  1  1
 12 13  1  0
 12 39  1  0
 13 14  1  0
 13 37  1  0
 14 15  2  0
 14 16  1  0
 16 17  1  1
 16 18  1  0
 18 19  1  6
 18 26  1  0
 19 20  1  0
 20 21  2  0
 20 25  1  0
 21 22  1  0
 22 23  2  0
 23 24  1  0
 24 25  2  0
 26 27  1  0
 27 28  2  0
 27 29  1  0
 29 30  2  0
 29 35  1  0
 30 31  1  0
 31 32  2  0
 32 33  1  0
 33 34  1  0
 33 35  2  0
 35 36  1  0
 37 38  1  0
 38 39  1  0
 39 40  1  6
 39 41  1  0
M  END
