
     RDKit          3D

 46 49  0  0  0  0  0  0  0  0999 V2000
   -6.0930    2.6490    3.5800 C   0  0  0  0  0  0  0  0  0  0  0  0
   -6.0250    3.4050    2.3730 O   0  0  0  0  0  0  0  0  0  0  0  0
   -6.1740    2.7330    1.1690 C   0  0  0  0  0  0  0  0  0  0  0  0
   -6.3850    1.3730    1.0610 C   0  0  0  0  0  0  0  0  0  0  0  0
   -6.5290    0.7400   -0.1480 C   0  0  0  0  0  0  0  0  0  0  0  0
   -6.7990   -0.6600   -0.2110 C   0  0  0  0  0  0  0  0  0  0  0  0
   -7.8370   -1.1620    0.5270 N   0  0  0  0  0  0  0  0  0  0  0  0
   -8.1880   -2.4540    0.4820 C   0  0  0  0  0  0  0  0  0  0  0  0
   -7.4930   -3.3120   -0.3280 C   0  0  0  0  0  0  0  0  0  0  0  0
   -6.4470   -2.8720   -1.0860 C   0  0  0  0  0  0  0  0  0  0  0  0
   -5.7360   -3.7260   -1.9080 O   0  0  0  0  0  0  0  0  0  0  0  0
   -6.0770   -5.0780   -1.9830 C   0  0  0  0  0  0  0  0  0  0  0  0
   -6.1120   -1.5080   -1.0050 C   0  0  0  0  0  0  0  0  0  0  0  0
   -4.9300   -1.1200   -1.7240 C   0  0  0  0  0  0  0  0  0  0  0  0
   -4.6710   -1.7590   -2.8150 O   0  0  0  0  0  0  0  0  0  0  0  0
   -3.9920   -0.1210   -1.3870 N   0  0  0  0  0  0  0  0  0  0  0  0
   -2.8200    0.2210   -2.1800 C   0  0  1  0  0  0  0  0  0  0  0  0
   -3.1070    1.5880   -2.8190 C   0  0  0  0  0  0  0  0  0  0  0  0
   -1.6010    0.2700   -1.3350 C   0  0  0  0  0  0  0  0  0  0  0  0
   -1.6690   -0.0230   -0.1080 O   0  0  0  0  0  0  0  0  0  0  0  0
   -0.3250    0.6390   -1.8390 N   0  0  0  0  0  0  0  0  0  0  0  0
    0.8750    0.6920   -1.0340 C   0  0  0  0  0  0  0  0  0  0  0  0
    1.1860   -0.6810   -0.4890 C   0  0  0  0  0  0  0  0  0  0  0  0
    2.4140   -0.6530    0.3670 C   0  0  0  0  0  0  0  0  0  0  0  0
    2.3730   -0.8120    1.6150 O   0  0  0  0  0  0  0  0  0  0  0  0
    3.6660   -0.4430   -0.2030 O   0  0  0  0  0  0  0  0  0  0  0  0
    4.8460   -0.4290    0.6710 C   0  0  2  0  0  0  0  0  0  0  0  0
    5.2280    1.0250    0.6400 C   0  0  0  0  0  0  0  0  0  0  0  0
    4.5350    1.8120   -0.0660 O   0  0  0  0  0  0  0  0  0  0  0  0
    6.3080    1.5750    1.3450 N   0  0  0  0  0  0  0  0  0  0  0  0
    6.5690    3.0120    1.2280 C   0  0  2  0  0  0  0  0  0  0  0  0
    8.0440    3.3710    0.9590 C   0  0  0  0  0  0  0  0  0  0  0  0
    7.3860    3.6760    2.2760 C   0  0  0  0  0  0  0  0  0  0  0  0
    5.8960   -1.2650    0.0190 C   0  0  2  0  0  0  0  0  0  0  0  0
    5.2640   -2.5480   -0.2640 O   0  0  0  0  0  0  0  0  0  0  0  0
    6.9680   -1.6500    0.9500 C   0  0  0  0  0  0  0  0  0  0  0  0
    6.8040   -1.6660    2.2940 C   0  0  0  0  0  0  0  0  0  0  0  0
    7.8160   -2.0980    3.1670 C   0  0  0  0  0  0  0  0  0  0  0  0
    9.0190   -2.5220    2.6380 C   0  0  0  0  0  0  0  0  0  0  0  0
    9.2090   -2.5160    1.2740 C   0  0  0  0  0  0  0  0  0  0  0  0
    8.2060   -2.0910    0.4660 C   0  0  0  0  0  0  0  0  0  0  0  0
    8.3570   -2.0680   -0.9230 O   0  0  0  0  0  0  0  0  0  0  0  0
   -6.4600    1.4960   -1.2970 C   0  0  0  0  0  0  0  0  0  0  0  0
   -6.2510    2.8530   -1.2190 C   0  0  0  0  0  0  0  0  0  0  0  0
   -6.1090    3.4650    0.0110 C   0  0  0  0  0  0  0  0  0  0  0  0
   -5.8990    4.8280    0.0730 O   0  0  0  0  0  0  0  0  0  0  0  0
  1  2  1  0
  2  3  1  0
  3  4  2  0
  3 45  1  0
  4  5  1  0
  5  6  1  0
  5 43  2  0
  6  7  2  0
  6 13  1  0
  7  8  1  0
  8  9  2  0
  9 10  1  0
 10 11  1  0
 10 13  2  0
 11 12  1  0
 13 14  1  0
 14 15  2  0
 14 16  1  0
 16 17  1  0
 17 18  1  1
 17 19  1  0
 19 20  2  0
 19 21  1  0
 21 22  1  0
 22 23  1  0
 23 24  1  0
 24 25  2  0
 24 26  1  0
 27 26  1  6
 27 28  1  0
 27 34  1  0
 28 29  2  0
 28 30  1  0
 31 30  1  1
 31 32  1  0
 31 33  1  0
 32 33  1  0
 34 35  1  1
 34 36  1  0
 36 37  2  0
 36 41  1  0
 37 38  1  0
 38 39  2  0
 39 40  1  0
 40 41  2  0
 41 42  1  0
 43 44  1  0
 44 45  2  0
 45 46  1  0
M  END
