
     RDKit          3D

 46 48  0  0  0  0  0  0  0  0999 V2000
   -7.6840    3.7320   -1.9330 C   0  0  0  0  0  0  0  0  0  0  0  0
   -6.2320    3.3720   -1.5810 C   0  0  0  0  0  0  0  0  0  0  0  0
   -6.3560    2.2620   -0.5330 C   0  0  2  0  0  0  0  0  0  0  0  0
   -7.1130    2.8190    0.6360 C   0  0  0  0  0  0  0  0  0  0  0  0
   -5.0310    1.7600   -0.0980 C   0  0  2  0  0  0  0  0  0  0  0  0
   -4.3410    2.9010    0.4080 O   0  0  0  0  0  0  0  0  0  0  0  0
   -4.1570    1.2980   -1.2570 C   0  0  0  0  0  0  0  0  0  0  0  0
   -2.8010    1.0010   -0.7510 N   0  0  0  0  0  0  0  0  0  0  0  0
   -1.8030    0.5470   -1.6440 C   0  0  0  0  0  0  0  0  0  0  0  0
   -2.1970    0.4120   -2.8470 O   0  0  0  0  0  0  0  0  0  0  0  0
   -0.4320    0.2520   -1.2680 C   0  0  0  0  0  0  0  0  0  0  0  0
    0.4000   -0.1730   -2.3070 C   0  0  0  0  0  0  0  0  0  0  0  0
    1.7190   -0.4590   -2.0750 C   0  0  0  0  0  0  0  0  0  0  0  0
    2.3010   -0.3500   -0.8290 C   0  0  0  0  0  0  0  0  0  0  0  0
    3.6610   -0.6450   -0.6000 O   0  0  0  0  0  0  0  0  0  0  0  0
    4.3620   -1.0660   -1.7460 C   0  0  0  0  0  0  0  0  0  0  0  0
    5.8020   -1.3680   -1.5670 C   0  0  0  0  0  0  0  0  0  0  0  0
    6.1070   -2.4480   -0.5620 C   0  0  0  0  0  0  0  0  0  0  0  0
    7.4350   -2.7640   -0.4130 O   0  0  0  0  0  0  0  0  0  0  0  0
    8.5230   -2.0610    0.0020 C   0  0  0  0  0  0  0  0  0  0  0  0
    8.5340   -0.7660    0.4250 C   0  0  0  0  0  0  0  0  0  0  0  0
    9.6980   -0.1490    0.8180 C   0  0  0  0  0  0  0  0  0  0  0  0
   10.9220   -0.7720    0.8190 C   0  0  0  0  0  0  0  0  0  0  0  0
   12.0950   -0.1510    1.2140 O   0  0  0  0  0  0  0  0  0  0  0  0
   12.0310    1.1940    1.6360 C   0  0  0  0  0  0  0  0  0  0  0  0
   10.9250   -2.1030    0.3870 C   0  0  0  0  0  0  0  0  0  0  0  0
    9.7710   -2.7190   -0.0050 C   0  0  0  0  0  0  0  0  0  0  0  0
    9.8140   -4.0610   -0.4340 O   0  0  0  0  0  0  0  0  0  0  0  0
    1.4700    0.0670    0.1840 C   0  0  0  0  0  0  0  0  0  0  0  0
    0.1160    0.3690   -0.0210 C   0  0  0  0  0  0  0  0  0  0  0  0
   -0.6580    0.7750    1.0220 O   0  0  0  0  0  0  0  0  0  0  0  0
   -0.1720    0.9400    2.3150 C   0  0  0  0  0  0  0  0  0  0  0  0
    0.8590    1.9960    2.4450 C   0  0  0  0  0  0  0  0  0  0  0  0
    1.2920    2.8510    1.4200 N   0  0  0  0  0  0  0  0  0  0  0  0
    1.4190    2.1640    3.5830 O   0  0  0  0  0  0  0  0  0  0  0  0
   -5.0400    0.7880    0.9910 C   0  0  0  0  0  0  0  0  0  0  0  0
   -4.1670    0.9800    1.9690 O   0  0  0  0  0  0  0  0  0  0  0  0
   -5.8130   -0.3480    1.2080 N   0  0  0  0  0  0  0  0  0  0  0  0
   -6.9610   -0.8640    0.5000 C   0  0  0  0  0  0  0  0  0  0  0  0
   -6.4220   -1.9460   -0.4050 C   0  0  0  0  0  0  0  0  0  0  0  0
   -5.8630   -3.0600    0.4910 C   0  0  1  0  0  0  0  0  0  0  0  0
   -5.0730   -3.9710   -0.3520 C   0  0  0  0  0  0  0  0  0  0  0  0
   -4.4170   -4.6950   -1.0350 N   0  0  0  0  0  0  0  0  0  0  0  0
   -4.9760   -2.5600    1.5660 C   0  0  2  0  0  0  0  0  0  0  0  0
   -4.8940   -3.5870    2.5370 O   0  0  0  0  0  0  0  0  0  0  0  0
   -5.4030   -1.3210    2.2970 C   0  0  0  0  0  0  0  0  0  0  0  0
  1  2  1  0
  2  3  1  0
  3  4  1  1
  3  5  1  0
  5  6  1  1
  5  7  1  0
  5 36  1  0
  7  8  1  0
  8  9  1  0
  9 10  2  0
  9 11  1  0
 11 12  2  0
 11 30  1  0
 12 13  1  0
 13 14  2  0
 14 15  1  0
 14 29  1  0
 15 16  1  0
 16 17  1  0
 17 18  1  0
 18 19  1  0
 19 20  1  0
 20 21  2  0
 20 27  1  0
 21 22  1  0
 22 23  2  0
 23 24  1  0
 23 26  1  0
 24 25  1  0
 26 27  2  0
 27 28  1  0
 29 30  2  0
 30 31  1  0
 31 32  1  0
 32 33  1  0
 33 34  1  0
 33 35  2  0
 36 37  2  0
 36 38  1  0
 38 39  1  0
 38 46  1  0
 39 40  1  0
 40 41  1  0
 41 42  1  6
 41 44  1  0
 42 43  3  0
 44 45  1  1
 44 46  1  0
M  END
