
     RDKit          3D

 43 45  0  0  0  0  0  0  0  0999 V2000
   -3.6570   -1.7770   -3.5910 C   0  0  0  0  0  0  0  0  0  0  0  0
   -3.8720   -0.3570   -3.1230 C   0  0  0  0  0  0  0  0  0  0  0  0
   -3.0610   -0.2020   -1.8180 C   0  0  2  0  0  0  0  0  0  0  0  0
   -3.6380   -1.2000   -0.8820 C   0  0  0  0  0  0  0  0  0  0  0  0
   -3.1630    1.2320   -1.4570 C   0  0  2  0  0  0  0  0  0  0  0  0
   -2.4970    1.7040   -0.2900 N   0  0  0  0  0  0  0  0  0  0  0  0
   -1.2230    1.5620    0.2340 C   0  0  0  0  0  0  0  0  0  0  0  0
   -0.6070    2.6850    0.5080 O   0  0  0  0  0  0  0  0  0  0  0  0
   -0.3990    0.3820    0.5590 C   0  0  1  0  0  0  0  0  0  0  0  0
    0.9730    0.5260    0.1130 N   0  0  0  0  0  0  0  0  0  0  0  0
    1.1620    0.0250   -1.2450 C   0  0  0  0  0  0  0  0  0  0  0  0
    2.4000   -0.7470   -1.4170 C   0  0  1  0  0  0  0  0  0  0  0  0
    2.5640   -1.1950   -2.7100 O   0  0  0  0  0  0  0  0  0  0  0  0
    3.6740   -0.1830   -0.8890 C   0  0  2  0  0  0  0  0  0  0  0  0
    4.3360    0.8770   -1.6910 C   0  0  0  0  0  0  0  0  0  0  0  0
    3.6160    2.1090   -1.9620 C   0  0  0  0  0  0  0  0  0  0  0  0
    2.9290    2.2780   -3.1480 C   0  0  0  0  0  0  0  0  0  0  0  0
    2.2350    3.4490   -3.4280 C   0  0  0  0  0  0  0  0  0  0  0  0
    2.2280    4.4770   -2.4940 C   0  0  0  0  0  0  0  0  0  0  0  0
    2.9030    4.3420   -1.3000 C   0  0  0  0  0  0  0  0  0  0  0  0
    3.5750    3.1600   -1.0760 C   0  0  0  0  0  0  0  0  0  0  0  0
    4.5910   -1.3630   -0.8820 N   0  0  0  0  0  0  0  0  0  0  0  0
    5.0590   -1.8810    0.3230 C   0  0  0  0  0  0  0  0  0  0  0  0
    4.6920   -1.3360    1.3960 O   0  0  0  0  0  0  0  0  0  0  0  0
    5.9150   -2.9730    0.4460 O   0  0  0  0  0  0  0  0  0  0  0  0
    6.3200   -3.4180    1.7250 C   0  0  2  0  0  0  0  0  0  0  0  0
    7.0470   -2.3900    2.5210 C   0  0  0  0  0  0  0  0  0  0  0  0
    7.2000   -4.6420    1.6000 C   0  0  0  0  0  0  0  0  0  0  0  0
    5.0880   -3.8480    2.5330 C   0  0  0  0  0  0  0  0  0  0  0  0
   -0.2790    0.2780    2.1340 C   0  0  0  0  0  0  0  0  0  0  0  0
   -1.7120    0.3110    2.6520 C   0  0  0  0  0  0  0  0  0  0  0  0
   -2.2990    1.5260    2.8840 C   0  0  0  0  0  0  0  0  0  0  0  0
   -3.6940    1.5750    3.1560 C   0  0  0  0  0  0  0  0  0  0  0  0
   -4.4880    0.4580    3.1990 C   0  0  0  0  0  0  0  0  0  0  0  0
   -3.8540   -0.7230    2.9770 C   0  0  0  0  0  0  0  0  0  0  0  0
   -2.4620   -0.8400    2.6980 C   0  0  0  0  0  0  0  0  0  0  0  0
   -5.8990    0.5870    3.4420 O   0  0  0  0  0  0  0  0  0  0  0  0
   -6.8600    0.4040    2.4320 C   0  0  0  0  0  0  0  0  0  0  0  0
   -6.8670    1.4740    1.4030 C   0  0  0  0  0  0  0  0  0  0  0  0
   -5.5400    1.6910    0.7350 C   0  0  0  0  0  0  0  0  0  0  0  0
   -5.6100    1.8340   -0.7280 N   0  0  0  0  0  0  0  0  0  0  0  0
   -4.5510    1.7150   -1.6200 C   0  0  0  0  0  0  0  0  0  0  0  0
   -4.8220    2.0990   -2.8390 O   0  0  0  0  0  0  0  0  0  0  0  0
  1  2  1  0
  2  3  1  0
  3  4  1  1
  3  5  1  0
  5  6  1  1
  5 42  1  0
  6  7  1  0
  7  8  2  0
  7  9  1  0
  9 10  1  6
  9 30  1  0
 10 11  1  0
 11 12  1  0
 12 13  1  6
 12 14  1  0
 14 15  1  6
 14 22  1  0
 15 16  1  0
 16 17  2  0
 16 21  1  0
 17 18  1  0
 18 19  2  0
 19 20  1  0
 20 21  2  0
 22 23  1  0
 23 24  2  0
 23 25  1  0
 25 26  1  0
 26 27  1  1
 26 28  1  0
 26 29  1  0
 30 31  1  0
 31 32  2  0
 31 36  1  0
 32 33  1  0
 33 34  2  0
 34 35  1  0
 34 37  1  0
 35 36  2  0
 37 38  1  0
 38 39  1  0
 39 40  1  0
 40 41  1  0
 41 42  1  0
 42 43  2  0
M  CHG  1  10   1
M  END
