
     RDKit          3D

 46 49  0  0  0  0  0  0  0  0999 V2000
   -6.6290    1.4120    3.1400 C   0  0  0  0  0  0  0  0  0  0  0  0
   -7.9870    1.7350    3.1640 O   0  0  0  0  0  0  0  0  0  0  0  0
   -8.9680    1.2390    2.3380 C   0  0  0  0  0  0  0  0  0  0  0  0
  -10.2810    1.6490    2.4750 C   0  0  0  0  0  0  0  0  0  0  0  0
  -11.2690    1.1560    1.6510 C   0  0  0  0  0  0  0  0  0  0  0  0
  -10.9570    0.2380    0.6650 C   0  0  0  0  0  0  0  0  0  0  0  0
  -11.8730   -0.2970   -0.1920 O   0  0  0  0  0  0  0  0  0  0  0  0
  -13.2420   -0.0420   -0.2450 C   0  0  0  0  0  0  0  0  0  0  0  0
   -9.6340   -0.1970    0.5000 C   0  0  0  0  0  0  0  0  0  0  0  0
   -9.3440   -1.1180   -0.4900 O   0  0  0  0  0  0  0  0  0  0  0  0
   -8.0390   -1.6010   -0.7160 C   0  0  0  0  0  0  0  0  0  0  0  0
   -7.2110   -0.4840   -1.0530 O   0  0  0  0  0  0  0  0  0  0  0  0
   -5.8520   -0.6780   -1.3340 C   0  0  0  0  0  0  0  0  0  0  0  0
   -5.0500    0.3870   -1.6670 C   0  0  0  0  0  0  0  0  0  0  0  0
   -3.6860    0.1980   -1.9520 C   0  0  0  0  0  0  0  0  0  0  0  0
   -3.0950   -1.0400   -1.9110 C   0  0  0  0  0  0  0  0  0  0  0  0
   -1.7400   -1.2720   -2.2320 N   0  0  0  0  0  0  0  0  0  0  0  0
   -0.8950   -0.4690   -3.0060 C   0  0  0  0  0  0  0  0  0  0  0  0
   -1.3100    0.5820   -3.5090 O   0  0  0  0  0  0  0  0  0  0  0  0
    0.5360   -0.8300   -3.2750 C   0  0  1  0  0  0  0  0  0  0  0  0
    1.1970    0.0640   -4.1640 N   0  0  0  0  0  0  0  0  0  0  0  0
    2.3080    0.7640   -3.6740 C   0  0  0  0  0  0  0  0  0  0  0  0
    2.6910    1.8660   -4.1970 O   0  0  0  0  0  0  0  0  0  0  0  0
    2.9370    0.1370   -2.5680 C   0  0  0  0  0  0  0  0  0  0  0  0
    4.1330   -0.0980   -2.1430 C   0  0  0  0  0  0  0  0  0  0  0  0
    5.4130    0.2170   -2.7010 C   0  0  0  0  0  0  0  0  0  0  0  0
    5.4290    0.9010   -4.0770 C   0  0  0  0  0  0  0  0  0  0  0  0
    6.5690   -0.0390   -2.1910 C   0  0  0  0  0  0  0  0  0  0  0  0
    7.1230   -0.6400   -1.0430 C   0  0  0  0  0  0  0  0  0  0  0  0
    8.4640   -0.6820   -0.9770 O   0  0  0  0  0  0  0  0  0  0  0  0
    6.4690   -1.2050    0.0590 N   0  0  0  0  0  0  0  0  0  0  0  0
    7.3240   -1.7580    1.1280 C   0  0  0  0  0  0  0  0  0  0  0  0
    8.1610   -0.6420    1.6780 C   0  0  0  0  0  0  0  0  0  0  0  0
    8.0600    0.5200    1.2490 O   0  0  0  0  0  0  0  0  0  0  0  0
    9.0790   -0.9420    2.7040 N   0  0  0  0  0  0  0  0  0  0  0  0
    9.9380   -0.0350    3.3370 C   0  0  0  0  0  0  0  0  0  0  0  0
   10.9970   -0.5170    4.1340 C   0  0  0  0  0  0  0  0  0  0  0  0
   11.8700    0.2900    4.7850 C   0  0  0  0  0  0  0  0  0  0  0  0
   11.7680    1.6580    4.6980 C   0  0  0  0  0  0  0  0  0  0  0  0
   12.6490    2.5120    5.3510 O   0  0  0  0  0  0  0  0  0  0  0  0
   10.7340    2.1510    3.9180 C   0  0  0  0  0  0  0  0  0  0  0  0
    9.8370    1.3270    3.2510 C   0  0  0  0  0  0  0  0  0  0  0  0
    1.4410   -0.5080   -1.6940 S   0  0  0  0  0  0  0  0  0  0  0  0
   -3.9290   -2.1160   -1.5670 C   0  0  0  0  0  0  0  0  0  0  0  0
   -5.2620   -1.9140   -1.2930 C   0  0  0  0  0  0  0  0  0  0  0  0
   -8.6860    0.3150    1.3400 C   0  0  0  0  0  0  0  0  0  0  0  0
  1  2  1  0
  2  3  1  0
  3  4  2  0
  3 46  1  0
  4  5  1  0
  5  6  2  0
  6  7  1  0
  6  9  1  0
  7  8  1  0
  9 10  1  0
  9 46  2  0
 10 11  1  0
 11 12  1  0
 12 13  1  0
 13 14  2  0
 13 45  1  0
 14 15  1  0
 15 16  2  0
 16 17  1  0
 16 44  1  0
 17 18  1  0
 18 19  2  0
 20 18  1  1
 20 21  1  0
 20 43  1  0
 21 22  1  0
 22 23  2  0
 22 24  1  0
 24 25  2  3
 24 43  1  0
 25 26  1  0
 26 27  1  0
 26 28  2  3
 28 29  1  0
 29 30  2  0
 29 31  1  0
 31 32  1  0
 32 33  1  0
 33 34  2  0
 33 35  1  0
 35 36  1  0
 36 37  2  0
 36 42  1  0
 37 38  1  0
 38 39  2  0
 39 40  1  0
 39 41  1  0
 41 42  2  0
 44 45  2  0
M  END
