
     RDKit          3D

 46 48  0  0  0  0  0  0  0  0999 V2000
    3.1150   -4.7810    2.1090 C   0  0  0  0  0  0  0  0  0  0  0  0
    1.9400   -3.8780    2.3120 C   0  0  0  0  0  0  0  0  0  0  0  0
    1.7130   -2.9780    1.2510 O   0  0  0  0  0  0  0  0  0  0  0  0
    2.6200   -2.0250    0.8270 C   0  0  0  0  0  0  0  0  0  0  0  0
    3.8600   -1.8070    1.3690 C   0  0  0  0  0  0  0  0  0  0  0  0
    4.7110   -0.8210    0.8780 C   0  0  0  0  0  0  0  0  0  0  0  0
    4.3720   -0.0130   -0.1670 C   0  0  0  0  0  0  0  0  0  0  0  0
    5.1790    0.9950   -0.7370 N   0  0  0  0  0  0  0  0  0  0  0  0
    6.5410    1.1800   -0.4490 C   0  0  0  0  0  0  0  0  0  0  0  0
    7.1470    0.4440    0.3470 O   0  0  0  0  0  0  0  0  0  0  0  0
    7.3050    2.2280   -1.0620 N   0  0  0  0  0  0  0  0  0  0  0  0
    8.7090    2.4470   -0.7960 C   0  0  1  0  0  0  0  0  0  0  0  0
    9.4640    1.2340   -1.2400 C   0  0  0  0  0  0  0  0  0  0  0  0
   10.9500    1.2980   -1.0550 C   0  0  0  0  0  0  0  0  0  0  0  0
    9.1350    3.6710   -1.6050 C   0  0  0  0  0  0  0  0  0  0  0  0
   10.4740    3.8990   -1.3560 O   0  0  0  0  0  0  0  0  0  0  0  0
    8.8990    2.7100    0.6420 C   0  0  0  0  0  0  0  0  0  0  0  0
    7.8690    2.7010    1.3960 O   0  0  0  0  0  0  0  0  0  0  0  0
   10.0860    2.9720    1.2780 O   0  0  0  0  0  0  0  0  0  0  0  0
    3.0950   -0.2470   -0.7140 C   0  0  0  0  0  0  0  0  0  0  0  0
    2.2530   -1.2150   -0.2350 C   0  0  0  0  0  0  0  0  0  0  0  0
    0.9920   -1.3860   -0.8380 O   0  0  0  0  0  0  0  0  0  0  0  0
    0.6340   -0.5750   -1.8880 C   0  0  0  0  0  0  0  0  0  0  0  0
   -0.7040   -0.7800   -2.5220 C   0  0  0  0  0  0  0  0  0  0  0  0
   -1.8260   -0.6530   -1.8000 O   0  0  0  0  0  0  0  0  0  0  0  0
   -2.4360   -1.2720   -0.7610 C   0  0  0  0  0  0  0  0  0  0  0  0
   -1.9780   -2.3910   -0.1080 C   0  0  0  0  0  0  0  0  0  0  0  0
   -2.6870   -2.9470    0.9570 C   0  0  0  0  0  0  0  0  0  0  0  0
   -3.8600   -2.4120    1.3980 C   0  0  0  0  0  0  0  0  0  0  0  0
   -4.5540   -2.9800    2.4610 O   0  0  0  0  0  0  0  0  0  0  0  0
   -4.1240   -4.1160    3.1490 C   0  0  0  0  0  0  0  0  0  0  0  0
   -4.3490   -1.2730    0.7490 C   0  0  0  0  0  0  0  0  0  0  0  0
   -5.6300   -0.7490    1.2780 C   0  0  0  0  0  0  0  0  0  0  0  0
   -6.1340    0.4330    0.6060 N   0  0  1  0  0  0  0  0  0  0  0  0
   -7.5760    0.3590    0.7200 C   0  0  0  0  0  0  0  0  0  0  0  0
   -8.2290   -0.6180   -0.1410 C   0  0  0  0  0  0  0  0  0  0  0  0
   -9.4830   -0.7220   -0.0700 O   0  0  0  0  0  0  0  0  0  0  0  0
   -7.5460   -1.4430   -1.0360 N   0  0  0  0  0  0  0  0  0  0  0  0
   -8.2380   -2.4250   -1.8930 C   0  0  0  0  0  0  0  0  0  0  0  0
   -5.5290    1.5510    1.2420 C   0  0  0  0  0  0  0  0  0  0  0  0
   -5.8760    2.9140    0.8170 C   0  0  1  0  0  0  0  0  0  0  0  0
   -5.4300    3.2610   -0.5900 C   0  0  0  0  0  0  0  0  0  0  0  0
   -6.2680    4.5340   -0.7880 C   0  0  0  0  0  0  0  0  0  0  0  0
   -7.5510    4.0980   -0.1160 C   0  0  0  0  0  0  0  0  0  0  0  0
   -7.1680    3.3270    0.9440 O   0  0  0  0  0  0  0  0  0  0  0  0
   -3.6480   -0.7420   -0.2860 C   0  0  0  0  0  0  0  0  0  0  0  0
  1  2  1  0
  2  3  1  0
  3  4  1  0
  4  5  2  0
  4 21  1  0
  5  6  1  0
  6  7  2  0
  7  8  1  0
  7 20  1  0
  8  9  1  0
  9 10  2  0
  9 11  1  0
 11 12  1  0
 12 13  1  6
 12 15  1  0
 12 17  1  0
 13 14  1  0
 15 16  1  0
 17 18  2  0
 17 19  1  0
 20 21  2  0
 21 22  1  0
 22 23  1  0
 23 24  1  0
 24 25  1  0
 25 26  1  0
 26 27  2  0
 26 46  1  0
 27 28  1  0
 28 29  2  0
 29 30  1  0
 29 32  1  0
 30 31  1  0
 32 33  1  0
 32 46  2  0
 34 33  1  1
 34 35  1  0
 34 40  1  0
 35 36  1  0
 36 37  2  0
 36 38  1  0
 38 39  1  0
 41 40  1  6
 41 42  1  0
 41 45  1  0
 42 43  1  0
 43 44  1  0
 44 45  1  0
M  CHG  1  34   1
M  END
