
     RDKit          3D

 46 49  0  0  0  0  0  0  0  0999 V2000
   10.4280   -0.9340   -2.7180 C   0  0  0  0  0  0  0  0  0  0  0  0
    9.5040   -0.1540   -1.9780 O   0  0  0  0  0  0  0  0  0  0  0  0
    9.7690    0.2400   -0.6640 C   0  0  0  0  0  0  0  0  0  0  0  0
   10.2530    1.4210   -0.4520 C   0  0  0  0  0  0  0  0  0  0  0  0
   10.5780    1.9620    0.8840 C   0  0  0  0  0  0  0  0  0  0  0  0
   12.0400    2.2890    0.9400 C   0  0  0  0  0  0  0  0  0  0  0  0
   12.8520    2.0610   -0.1960 N   0  0  0  0  0  0  0  0  0  0  0  0
   12.5210    2.7640    2.0050 O   0  0  0  0  0  0  0  0  0  0  0  0
    9.4750   -0.7280    0.3880 C   0  0  0  0  0  0  0  0  0  0  0  0
    8.0720   -1.0670    0.3690 O   0  0  0  0  0  0  0  0  0  0  0  0
    7.1070   -0.1040    0.5560 C   0  0  0  0  0  0  0  0  0  0  0  0
    7.4500    1.0830    0.7470 O   0  0  0  0  0  0  0  0  0  0  0  0
    5.6920   -0.4300    0.5370 C   0  0  0  0  0  0  0  0  0  0  0  0
    4.7190    0.5170    0.7280 C   0  0  0  0  0  0  0  0  0  0  0  0
    3.3610    0.2560    0.7170 C   0  0  0  0  0  0  0  0  0  0  0  0
    2.9380   -1.0430    0.5020 C   0  0  0  0  0  0  0  0  0  0  0  0
    1.6120   -1.4710    0.4540 N   0  0  0  0  0  0  0  0  0  0  0  0
    0.4780   -0.6200    0.4590 C   0  0  0  0  0  0  0  0  0  0  0  0
    0.6180    0.6060    0.5040 O   0  0  0  0  0  0  0  0  0  0  0  0
   -0.8470   -1.1640    0.4120 N   0  0  0  0  0  0  0  0  0  0  0  0
   -2.0480   -0.4270    0.4090 C   0  0  0  0  0  0  0  0  0  0  0  0
   -2.1620    0.9290    0.2080 C   0  0  0  0  0  0  0  0  0  0  0  0
   -3.4070    1.5720    0.2490 C   0  0  0  0  0  0  0  0  0  0  0  0
   -4.5540    0.8520    0.4920 C   0  0  0  0  0  0  0  0  0  0  0  0
   -5.8040    1.4550    0.5450 C   0  0  0  0  0  0  0  0  0  0  0  0
   -6.9460    0.7300    0.7950 C   0  0  0  0  0  0  0  0  0  0  0  0
   -8.1640    1.3780    0.8380 O   0  0  0  0  0  0  0  0  0  0  0  0
   -8.6700    1.8990    2.0420 C   0  0  0  0  0  0  0  0  0  0  0  0
   -9.9160    2.5640    2.0990 N   0  0  0  0  0  0  0  0  0  0  0  0
   -7.9500    1.7370    3.0630 O   0  0  0  0  0  0  0  0  0  0  0  0
   -6.8280   -0.6240    0.9940 C   0  0  0  0  0  0  0  0  0  0  0  0
   -7.9080   -1.4400    1.2510 O   0  0  0  0  0  0  0  0  0  0  0  0
   -8.6980   -2.1200    0.3210 C   0  0  0  0  0  0  0  0  0  0  0  0
   -9.3440   -1.1900   -0.5920 C   0  0  0  0  0  0  0  0  0  0  0  0
  -10.4960   -0.4440   -0.4480 C   0  0  0  0  0  0  0  0  0  0  0  0
  -10.9080    0.3420   -1.4360 C   0  0  0  0  0  0  0  0  0  0  0  0
  -10.1480    0.3810   -2.5920 C   0  0  0  0  0  0  0  0  0  0  0  0
  -10.3570    1.1490   -3.8360 C   0  0  0  0  0  0  0  0  0  0  0  0
  -11.3260    1.9080   -3.9830 O   0  0  0  0  0  0  0  0  0  0  0  0
   -8.8180   -0.7410   -2.2350 S   0  0  0  0  0  0  0  0  0  0  0  0
   -5.5890   -1.2720    0.9480 C   0  0  0  0  0  0  0  0  0  0  0  0
   -5.4650   -2.7380    1.1630 C   0  0  0  0  0  0  0  0  0  0  0  0
   -4.4690   -0.5010    0.6950 C   0  0  0  0  0  0  0  0  0  0  0  0
   -3.2560   -1.0990    0.6510 C   0  0  0  0  0  0  0  0  0  0  0  0
    3.9210   -2.0230    0.3060 C   0  0  0  0  0  0  0  0  0  0  0  0
    5.2530   -1.7310    0.3220 C   0  0  0  0  0  0  0  0  0  0  0  0
  1  2  1  0
  2  3  1  0
  3  4  2  3
  3  9  1  0
  4  5  1  0
  5  6  1  0
  6  7  1  0
  6  8  2  0
  9 10  1  0
 10 11  1  0
 11 12  2  0
 11 13  1  0
 13 14  2  0
 13 46  1  0
 14 15  1  0
 15 16  2  0
 16 17  1  0
 16 45  1  0
 17 18  1  0
 18 19  2  0
 18 20  1  0
 20 21  1  0
 21 22  2  0
 21 44  1  0
 22 23  1  0
 23 24  2  0
 24 25  1  0
 24 43  1  0
 25 26  2  0
 26 27  1  0
 26 31  1  0
 27 28  1  0
 28 29  1  0
 28 30  2  0
 31 32  1  0
 31 41  2  0
 32 33  1  0
 33 34  1  0
 34 35  2  0
 34 40  1  0
 35 36  1  0
 36 37  2  0
 37 38  1  0
 37 40  1  0
 38 39  2  0
 41 42  1  0
 41 43  1  0
 43 44  2  0
 45 46  2  0
M  END
