
     RDKit          3D

 46 47  0  0  0  0  0  0  0  0999 V2000
   -2.0630    8.1550    0.1010 C   0  0  0  0  0  0  0  0  0  0  0  0
   -1.1020    7.4400   -0.1060 C   0  0  0  0  0  0  0  0  0  0  0  0
    0.0240    6.5980   -0.3290 C   0  0  0  0  0  0  0  0  0  0  0  0
    1.1650    7.1640   -0.9140 C   0  0  0  0  0  0  0  0  0  0  0  0
    2.2580    6.3830   -1.1910 C   0  0  0  0  0  0  0  0  0  0  0  0
    2.2730    5.0460   -0.9160 C   0  0  0  0  0  0  0  0  0  0  0  0
    1.1330    4.4790   -0.3320 C   0  0  0  0  0  0  0  0  0  0  0  0
    1.2190    3.0810   -0.0840 N   0  0  0  0  0  0  0  0  0  0  0  0
    0.0820    2.2720    0.0910 C   0  0  0  0  0  0  0  0  0  0  0  0
   -1.0330    2.8690   -0.0050 O   0  0  0  0  0  0  0  0  0  0  0  0
    0.0790    0.7960    0.3740 C   0  0  2  0  0  0  0  0  0  0  0  0
   -1.3570    0.5020    0.4890 C   0  0  0  0  0  0  0  0  0  0  0  0
   -2.0020    1.3770    1.1980 O   0  0  0  0  0  0  0  0  0  0  0  0
   -2.1300   -0.5080   -0.0150 O   0  0  0  0  0  0  0  0  0  0  0  0
   -3.5880   -0.2990    0.3760 C   0  0  0  0  0  0  0  0  0  0  0  0
   -4.4470   -1.3560   -0.0760 C   0  0  0  0  0  0  0  0  0  0  0  0
   -5.2110   -2.1570    0.7460 C   0  0  0  0  0  0  0  0  0  0  0  0
   -5.2570   -2.0360    2.0490 C   0  0  0  0  0  0  0  0  0  0  0  0
   -5.6530   -2.5710    3.2780 C   0  0  0  0  0  0  0  0  0  0  0  0
   -6.3480   -3.8460    3.1570 C   0  0  0  0  0  0  0  0  0  0  0  0
   -6.7480   -4.3570    4.2570 O   0  0  0  0  0  0  0  0  0  0  0  0
   -6.6130   -4.5270    2.0160 O   0  0  0  0  0  0  0  0  0  0  0  0
   -5.5690   -0.5530    2.5080 C   0  0  0  0  0  0  0  0  0  0  0  0
   -5.7270   -0.4640    3.9840 O   0  0  0  0  0  0  0  0  0  0  0  0
   -5.7300    0.6020    2.0340 C   0  0  0  0  0  0  0  0  0  0  0  0
   -5.9660    1.7340    2.7460 O   0  0  0  0  0  0  0  0  0  0  0  0
   -4.4030   -1.7270   -1.4980 C   0  0  0  0  0  0  0  0  0  0  0  0
   -4.9350   -2.7550   -1.8850 O   0  0  0  0  0  0  0  0  0  0  0  0
   -3.7300   -0.8260   -2.3890 N   0  0  0  0  0  0  0  0  0  0  0  0
   -3.6570   -1.1280   -3.7870 C   0  0  0  0  0  0  0  0  0  0  0  0
   -5.0450   -1.2600   -4.3310 C   0  0  0  0  0  0  0  0  0  0  0  0
    0.6840    0.4480    1.7020 C   0  0  0  0  0  0  0  0  0  0  0  0
    2.1840    0.3860    1.6690 C   0  0  0  0  0  0  0  0  0  0  0  0
    2.7070   -0.3580    0.5870 N   0  0  0  0  0  0  0  0  0  0  0  0
    3.9150   -1.0570    0.7660 C   0  0  0  0  0  0  0  0  0  0  0  0
    4.4740   -1.0250    1.9050 O   0  0  0  0  0  0  0  0  0  0  0  0
    4.5250   -1.7790   -0.2470 N   0  0  0  0  0  0  0  0  0  0  0  0
    5.7750   -2.5350   -0.1550 C   0  0  2  0  0  0  0  0  0  0  0  0
    5.5850   -3.6210    0.8750 C   0  0  0  0  0  0  0  0  0  0  0  0
    6.9060   -1.6560    0.3160 C   0  0  0  0  0  0  0  0  0  0  0  0
    6.0380   -3.1930   -1.4620 C   0  0  0  0  0  0  0  0  0  0  0  0
    7.0940   -3.9850   -1.6640 O   0  0  0  0  0  0  0  0  0  0  0  0
    8.3450   -3.5020   -1.5390 C   0  0  0  0  0  0  0  0  0  0  0  0
    2.0430   -0.4490   -0.6850 C   0  0  0  0  0  0  0  0  0  0  0  0
    0.6570    0.0510   -0.7740 C   0  0  0  0  0  0  0  0  0  0  0  0
    0.0240    5.2230   -0.0350 C   0  0  0  0  0  0  0  0  0  0  0  0
  1  2  3  0
  2  3  1  0
  3  4  2  0
  3 46  1  0
  4  5  1  0
  5  6  2  0
  6  7  1  0
  7  8  1  0
  7 46  2  0
  8  9  1  0
  9 10  2  0
 11  9  1  6
 11 12  1  0
 11 32  1  0
 11 45  1  0
 12 13  2  0
 12 14  1  0
 14 15  1  0
 15 16  1  0
 16 17  2  3
 16 27  1  0
 17 18  1  0
 18 19  2  3
 18 23  1  0
 19 20  1  0
 20 21  2  0
 20 22  1  0
 23 24  1  0
 23 25  2  3
 25 26  1  0
 27 28  2  0
 27 29  1  0
 29 30  1  0
 30 31  1  0
 32 33  1  0
 33 34  1  0
 34 35  1  0
 34 44  1  0
 35 36  2  0
 35 37  1  0
 37 38  1  0
 38 39  1  1
 38 40  1  0
 38 41  1  0
 41 42  1  0
 42 43  1  0
 44 45  1  0
M  END
