
     RDKit          3D

 31 34  0  0  0  0  0  0  0  0999 V2000
    2.5940   -2.7470   -2.9120 C   0  0  0  0  0  0  0  0  0  0  0  0
    1.7810   -1.9830   -1.9190 C   0  0  0  0  0  0  0  0  0  0  0  0
    2.2270   -0.9010   -1.2870 N   0  0  0  0  0  0  0  0  0  0  0  0
    1.5500   -0.1710   -0.3870 C   0  0  0  0  0  0  0  0  0  0  0  0
    2.0590    0.9860    0.2260 N   0  0  0  0  0  0  0  0  0  0  0  0
    3.3510    1.5200    0.0350 C   0  0  0  0  0  0  0  0  0  0  0  0
    3.7780    2.5650    0.8550 C   0  0  0  0  0  0  0  0  0  0  0  0
    4.9890    3.1540    0.7480 C   0  0  0  0  0  0  0  0  0  0  0  0
    5.3610    4.1680    1.5690 F   0  0  0  0  0  0  0  0  0  0  0  0
    5.8850    2.7240   -0.2160 C   0  0  0  0  0  0  0  0  0  0  0  0
    5.4990    1.7150   -1.0250 C   0  0  0  0  0  0  0  0  0  0  0  0
    6.6170    1.1450   -2.2620 Cl  0  0  0  0  0  0  0  0  0  0  0  0
    4.2550    1.1060   -0.9180 C   0  0  0  0  0  0  0  0  0  0  0  0
    0.2520   -0.6080   -0.0990 C   0  0  0  0  0  0  0  0  0  0  0  0
   -0.6460    0.0370    0.8860 C   0  0  2  0  0  0  0  0  0  0  0  0
    0.0070    0.4380    2.0620 O   0  0  0  0  0  0  0  0  0  0  0  0
   -1.5980   -1.0440    1.3600 C   0  0  0  0  0  0  0  0  0  0  0  0
   -1.2270   -2.2070    2.0020 C   0  0  0  0  0  0  0  0  0  0  0  0
   -2.3410   -2.9080    2.2660 N   0  0  0  0  0  0  0  0  0  0  0  0
   -3.3540   -2.2210    1.8120 N   0  0  0  0  0  0  0  0  0  0  0  0
   -2.9530   -1.0630    1.2440 C   0  0  0  0  0  0  0  0  0  0  0  0
   -3.7790   -0.0410    0.6360 C   0  0  0  0  0  0  0  0  0  0  0  0
   -3.5220    0.3770   -0.6460 C   0  0  0  0  0  0  0  0  0  0  0  0
   -4.3090    1.3650   -1.2580 C   0  0  0  0  0  0  0  0  0  0  0  0
   -5.3560    1.9320   -0.5760 C   0  0  0  0  0  0  0  0  0  0  0  0
   -5.6240    1.5200    0.7150 C   0  0  0  0  0  0  0  0  0  0  0  0
   -4.8300    0.5380    1.3020 C   0  0  0  0  0  0  0  0  0  0  0  0
   -5.1560    0.1730    2.6010 O   0  0  0  0  0  0  0  0  0  0  0  0
   -0.2300   -1.7470   -0.7570 C   0  0  0  0  0  0  0  0  0  0  0  0
    0.5000   -2.4630   -1.6730 C   0  0  0  0  0  0  0  0  0  0  0  0
   -0.0920   -3.8810   -2.5020 Cl  0  0  0  0  0  0  0  0  0  0  0  0
  1  2  1  0
  2  3  2  0
  2 30  1  0
  3  4  1  0
  4  5  1  0
  4 14  2  0
  5  6  1  0
  6  7  2  0
  6 13  1  0
  7  8  1  0
  8  9  1  0
  8 10  2  0
 10 11  1  0
 11 12  1  0
 11 13  2  0
 14 15  1  0
 14 29  1  0
 15 16  1  1
 15 17  1  0
 17 18  2  0
 17 21  1  0
 18 19  1  0
 19 20  1  0
 20 21  2  0
 21 22  1  0
 22 23  2  0
 22 27  1  0
 23 24  1  0
 24 25  2  0
 25 26  1  0
 26 27  2  0
 27 28  1  0
 29 30  2  0
 30 31  1  0
M  END
