
     RDKit          3D

 30 30  0  0  0  0  0  0  0  0999 V2000
    6.8290   -2.4090    1.6120 C   0  0  0  0  0  0  0  0  0  0  0  0
    5.9380   -2.1010    0.3850 C   0  0  2  0  0  0  0  0  0  0  0  0
    6.8570   -1.3880   -0.5790 C   0  0  0  0  0  0  0  0  0  0  0  0
    4.8000   -1.2480    0.7690 C   0  0  0  0  0  0  0  0  0  0  0  0
    3.8830   -0.8570   -0.1070 O   0  0  0  0  0  0  0  0  0  0  0  0
    4.1050   -0.0800   -1.1690 C   0  0  1  0  0  0  0  0  0  0  0  0
    3.5620   -0.7250   -2.2910 F   0  0  0  0  0  0  0  0  0  0  0  0
    3.2050    1.1700   -1.0300 C   0  0  0  0  0  0  0  0  0  0  0  0
    1.7800    0.7540   -0.9830 C   0  0  0  0  0  0  0  0  0  0  0  0
    1.4950   -0.4630   -1.0550 O   0  0  0  0  0  0  0  0  0  0  0  0
    0.7820    1.6960   -0.8610 O   0  0  0  0  0  0  0  0  0  0  0  0
   -0.5540    1.2730   -0.8180 C   0  0  0  0  0  0  0  0  0  0  0  0
   -1.6540    2.2590   -0.6880 C   0  0  0  0  0  0  0  0  0  0  0  0
   -1.5800    3.0410    0.4890 N   0  0  0  0  0  0  0  0  0  0  0  0
   -1.6290    2.2300    2.0180 Cl  0  0  0  0  0  0  0  0  0  0  0  0
   -1.4800    4.3030    0.4090 C   0  0  0  0  0  0  0  0  0  0  0  0
   -1.3880    5.2750    1.8960 S   0  0  0  0  0  0  0  0  0  0  0  0
   -1.4370    7.0420    1.4830 C   0  0  0  0  0  0  0  0  0  0  0  0
   -2.7470    7.4340    0.9050 C   0  0  0  0  0  0  0  0  0  0  0  0
   -2.8820    7.3650   -0.3080 O   0  0  0  0  0  0  0  0  0  0  0  0
   -0.7740    0.0120   -0.8970 N   0  0  0  0  0  0  0  0  0  0  0  0
   -2.0730   -0.5320   -0.8650 C   0  0  0  0  0  0  0  0  0  0  0  0
   -3.0090   -0.4800   -1.7720 C   0  0  0  0  0  0  0  0  0  0  0  0
   -4.1670   -1.1540   -1.3490 O   0  0  0  0  0  0  0  0  0  0  0  0
   -3.6950   -2.1140   -0.4110 C   0  0  2  0  0  0  0  0  0  0  0  0
   -3.0440   -3.2370   -1.1430 C   0  0  0  0  0  0  0  0  0  0  0  0
   -4.7750   -2.5650    0.5370 C   0  0  1  0  0  0  0  0  0  0  0  0
   -5.9280   -3.1970   -0.1720 C   0  0  0  0  0  0  0  0  0  0  0  0
   -4.1200   -3.5070    1.5350 C   0  0  0  0  0  0  0  0  0  0  0  0
   -2.6230   -1.3100    0.2950 C   0  0  0  0  0  0  0  0  0  0  0  0
  2  1  1  1
  2  3  1  0
  2  4  1  0
  4  5  1  0
  5  6  1  0
  6  7  1  6
  6  8  1  0
  8  9  1  0
  9 10  2  0
  9 11  1  0
 11 12  1  0
 12 13  1  0
 12 21  2  3
 13 14  1  0
 14 15  1  0
 14 16  2  3
 16 17  1  0
 17 18  1  0
 18 19  1  0
 19 20  2  0
 21 22  1  0
 22 23  2  0
 22 30  1  0
 23 24  1  0
 24 25  1  0
 25 26  1  6
 25 27  1  0
 25 30  1  0
 27 28  1  6
 27 29  1  0
M  CHG  1  14   1
M  END
