
     RDKit          3D

 31 33  0  0  0  0  0  0  0  0999 V2000
    9.1690   -0.8010   -1.2580 C   0  0  0  0  0  0  0  0  0  0  0  0
    8.0550   -0.1730   -1.6670 C   0  0  0  0  0  0  0  0  0  0  0  0
    6.9850    0.2260   -0.7080 C   0  0  0  0  0  0  0  0  0  0  0  0
    5.7200   -0.4000   -1.0600 N   0  0  0  0  0  0  0  0  0  0  0  0
    4.6010   -0.1120   -0.1840 C   0  0  0  0  0  0  0  0  0  0  0  0
    4.8200    0.6240    0.7940 O   0  0  0  0  0  0  0  0  0  0  0  0
    3.3290   -0.7010   -0.5200 C   0  0  0  0  0  0  0  0  0  0  0  0
    2.2700   -0.4330    0.4300 N   0  0  0  0  0  0  0  0  0  0  0  0
    2.4480   -0.0370    1.7550 N   0  0  0  0  0  0  0  0  0  0  0  0
    1.3480    0.1930    2.6530 C   0  0  0  0  0  0  0  0  0  0  0  0
    1.5160    0.5430    3.8340 O   0  0  0  0  0  0  0  0  0  0  0  0
    0.0050   -0.0060    2.1090 C   0  0  0  0  0  0  0  0  0  0  0  0
   -1.0650    0.0720    2.8780 C   0  0  0  0  0  0  0  0  0  0  0  0
   -2.3760   -0.0780    2.3780 N   0  0  0  0  0  0  0  0  0  0  0  0
   -2.6370   -0.3020    0.9980 C   0  0  0  0  0  0  0  0  0  0  0  0
   -3.8250    0.0390    0.5210 C   0  0  0  0  0  0  0  0  0  0  0  0
   -4.8310    0.6810    1.4570 C   0  0  0  0  0  0  0  0  0  0  0  0
   -5.1090    2.0070    0.7360 C   0  0  0  0  0  0  0  0  0  0  0  0
   -4.9310    3.1250    1.3260 C   0  0  0  0  0  0  0  0  0  0  0  0
   -5.6040    1.9030   -0.6510 C   0  0  0  0  0  0  0  0  0  0  0  0
   -6.4000    2.8430   -1.1330 C   0  0  0  0  0  0  0  0  0  0  0  0
   -5.1450    0.7410   -1.3920 C   0  0  0  0  0  0  0  0  0  0  0  0
   -4.2990   -0.1640   -0.8260 C   0  0  0  0  0  0  0  0  0  0  0  0
   -4.0170   -1.4040   -1.5750 C   0  0  1  0  0  0  0  0  0  0  0  0
   -5.2080   -1.6030   -2.4050 F   0  0  0  0  0  0  0  0  0  0  0  0
   -2.7470   -1.3470   -2.7630 Cl  0  0  0  0  0  0  0  0  0  0  0  0
   -3.9460   -2.8510   -0.5940 Cl  0  0  0  0  0  0  0  0  0  0  0  0
   -1.5320   -0.6690    0.1360 C   0  0  0  0  0  0  0  0  0  0  0  0
   -0.1580   -0.4230    0.7370 C   0  0  0  0  0  0  0  0  0  0  0  0
    0.9070   -0.6220   -0.0350 C   0  0  0  0  0  0  0  0  0  0  0  0
    0.6440   -1.0760   -1.4420 C   0  0  0  0  0  0  0  0  0  0  0  0
  1  2  2  0
  2  3  1  0
  3  4  1  0
  4  5  1  0
  5  6  2  0
  5  7  1  0
  7  8  1  0
  8  9  1  0
  8 30  1  0
  9 10  1  0
 10 11  2  0
 10 12  1  0
 12 13  2  0
 12 29  1  0
 13 14  1  0
 14 15  1  0
 15 16  2  3
 15 28  1  0
 16 17  1  0
 16 23  1  0
 17 18  1  0
 18 19  2  0
 18 20  1  0
 20 21  2  0
 20 22  1  0
 22 23  2  0
 23 24  1  0
 24 25  1  6
 24 26  1  0
 24 27  1  0
 28 29  1  0
 29 30  2  0
 30 31  1  0
M  END
