
     RDKit          3D

 30 31  0  0  0  0  0  0  0  0999 V2000
    5.0200   -0.4850   -0.4780 C   0  0  0  0  0  0  0  0  0  0  0  0
    4.4370   -1.1800    0.4760 C   0  0  0  0  0  0  0  0  0  0  0  0
    5.1120   -2.3880    0.9990 C   0  0  0  0  0  0  0  0  0  0  0  0
    6.4310   -2.6450    0.3190 C   0  0  0  0  0  0  0  0  0  0  0  0
    3.2120   -0.8300    1.0170 O   0  0  0  0  0  0  0  0  0  0  0  0
    2.5520    0.1800    0.4850 O   0  0  0  0  0  0  0  0  0  0  0  0
    1.1700    0.1000    0.6770 C   0  0  1  0  0  0  0  0  0  0  0  0
    0.6370    1.2650    1.4600 C   0  0  0  0  0  0  0  0  0  0  0  0
   -0.2660    2.1280    0.5800 C   0  0  2  0  0  0  0  0  0  0  0  0
   -1.2930    1.4480    0.0130 O   0  0  0  0  0  0  0  0  0  0  0  0
   -0.9280    0.2940   -0.7200 C   0  0  2  0  0  0  0  0  0  0  0  0
   -1.2690    0.6500   -2.1490 C   0  0  0  0  0  0  0  0  0  0  0  0
   -1.7190   -0.7930   -0.1190 C   0  0  2  0  0  0  0  0  0  0  0  0
   -1.2830   -0.8730    1.2230 F   0  0  0  0  0  0  0  0  0  0  0  0
   -1.5700   -2.1200   -0.6180 N   0  0  0  0  0  0  0  0  0  0  0  0
   -2.1330   -2.4340   -1.8780 C   0  0  0  0  0  0  0  0  0  0  0  0
   -3.1950   -0.5200    0.0030 C   0  0  1  0  0  0  0  0  0  0  0  0
   -3.5440    0.7770    0.6700 C   0  0  0  0  0  0  0  0  0  0  0  0
   -3.8950   -0.6130   -1.1750 O   0  0  0  0  0  0  0  0  0  0  0  0
   -3.7500   -1.5830    0.9270 C   0  0  0  0  0  0  0  0  0  0  0  0
   -4.6780   -2.4430    0.5200 C   0  0  0  0  0  0  0  0  0  0  0  0
   -3.2930   -1.7250    2.3360 C   0  0  0  0  0  0  0  0  0  0  0  0
    0.5550    0.1340   -0.7010 C   0  0  2  0  0  0  0  0  0  0  0  0
    1.1300   -1.1500   -1.7470 Cl  0  0  0  0  0  0  0  0  0  0  0  0
    1.0990    1.4120   -1.3170 C   0  0  0  0  0  0  0  0  0  0  0  0
    1.8220    1.4550   -2.3100 O   0  0  0  0  0  0  0  0  0  0  0  0
    0.6300    2.5820   -0.5490 C   0  0  0  0  0  0  0  0  0  0  0  0
    0.9300    3.7770   -0.7930 N   0  0  0  0  0  0  0  0  0  0  0  0
    0.2670    5.0380    0.2440 S   0  0  0  0  0  0  0  0  0  0  0  0
    0.9530    6.6560   -0.1540 C   0  0  0  0  0  0  0  0  0  0  0  0
  1  2  2  0
  2  3  1  0
  2  5  1  0
  3  4  1  0
  5  6  1  0
  7  6  1  6
  7  8  1  0
  7 23  1  0
  8  9  1  0
  9 10  1  6
  9 27  1  0
 10 11  1  0
 11 12  1  6
 11 13  1  0
 11 23  1  0
 13 14  1  1
 13 15  1  0
 13 17  1  0
 15 16  1  0
 17 18  1  1
 17 19  1  0
 17 20  1  0
 20 21  2  0
 20 22  1  0
 23 24  1  6
 23 25  1  0
 25 26  2  0
 25 27  1  0
 27 28  2  3
 28 29  1  0
 29 30  1  0
M  CHG  1  15   1
M  END
