
     RDKit          3D

 30 32  0  0  0  0  0  0  0  0999 V2000
   -4.7720    1.3790   -0.2220 C   0  0  0  0  0  0  0  0  0  0  0  0
   -3.4380    0.8410    0.7460 S   0  0  0  0  0  0  0  0  0  0  0  0
   -3.0580    2.3420    1.8820 C   0  0  0  0  0  0  0  0  0  0  0  0
   -1.9980    2.3410    2.3980 O   0  0  0  0  0  0  0  0  0  0  0  0
   -3.7190   -0.4560    1.8640 C   0  0  0  0  0  0  0  0  0  0  0  0
   -2.7850   -1.5710    1.7330 N   0  0  0  0  0  0  0  0  0  0  0  0
   -1.8660   -1.9700    0.6610 C   0  0  0  0  0  0  0  0  0  0  0  0
   -0.8040   -2.5670    1.1390 C   0  0  0  0  0  0  0  0  0  0  0  0
   -0.7850   -2.6900    2.5210 F   0  0  0  0  0  0  0  0  0  0  0  0
    0.3980   -3.1110    0.4890 C   0  0  0  0  0  0  0  0  0  0  0  0
    0.9250   -2.3550   -0.6800 C   0  0  0  0  0  0  0  0  0  0  0  0
    1.9720   -1.3680   -0.3290 C   0  0  1  0  0  0  0  0  0  0  0  0
    3.1960   -1.7010   -1.1610 C   0  0  2  0  0  0  0  0  0  0  0  0
    4.4950   -1.5870   -0.4560 C   0  0  0  0  0  0  0  0  0  0  0  0
    3.0980   -0.7520   -2.2990 C   0  0  0  0  0  0  0  0  0  0  0  0
    2.5910    0.4990   -1.6110 C   0  0  0  0  0  0  0  0  0  0  0  0
    1.6600    0.0910   -0.5230 C   0  0  2  0  0  0  0  0  0  0  0  0
    2.1820    0.7560    0.7350 C   0  0  0  0  0  0  0  0  0  0  0  0
    3.3780    0.6300    1.1030 O   0  0  0  0  0  0  0  0  0  0  0  0
    1.3810    1.5330    1.5460 O   0  0  0  0  0  0  0  0  0  0  0  0
    1.9020    2.1220    2.6880 C   0  0  0  0  0  0  0  0  0  0  0  0
    3.1070    1.9500    2.9910 O   0  0  0  0  0  0  0  0  0  0  0  0
    0.9520    3.1220    3.7680 Cl  0  0  0  0  0  0  0  0  0  0  0  0
    0.3810    0.4310   -0.6320 O   0  0  0  0  0  0  0  0  0  0  0  0
   -0.0530    1.5730   -1.1960 C   0  0  2  0  0  0  0  0  0  0  0  0
    0.6530    2.8410   -0.9540 C   0  0  0  0  0  0  0  0  0  0  0  0
   -1.4980    1.8770   -0.7150 C   0  0  0  0  0  0  0  0  0  0  0  0
   -1.9710    0.7240   -0.1620 N   0  0  2  0  0  0  0  0  0  0  0  0
   -2.2180   -0.3250   -1.1120 C   0  0  0  0  0  0  0  0  0  0  0  0
   -2.2050   -1.6380   -0.7170 C   0  0  0  0  0  0  0  0  0  0  0  0
  1  2  2  0
  2  3  1  0
  2  5  1  0
  2 28  1  0
  3  4  2  0
  5  6  1  0
  6  7  1  0
  7  8  2  0
  7 30  1  0
  8  9  1  0
  8 10  1  0
 10 11  1  0
 12 11  1  6
 12 13  1  0
 12 17  1  0
 13 14  1  1
 13 15  1  0
 15 16  1  0
 16 17  1  0
 17 18  1  1
 17 24  1  0
 18 19  2  0
 18 20  1  0
 20 21  1  0
 21 22  2  0
 21 23  1  0
 24 25  1  0
 25 26  1  1
 25 27  1  0
 28 27  1  6
 28 29  1  0
 29 30  2  0
M  CHG  1  28   1
M  END
