
     RDKit          3D

 32 34  0  0  0  0  0  0  0  0999 V2000
   -4.2310    1.2400    0.2760 C   0  0  0  0  0  0  0  0  0  0  0  0
   -3.0120    0.6430    0.5380 O   0  0  0  0  0  0  0  0  0  0  0  0
   -2.3460    0.3910   -0.6320 C   0  0  2  0  0  0  0  0  0  0  0  0
   -2.4030   -1.0850   -0.9960 C   0  0  0  0  0  0  0  0  0  0  0  0
   -1.1090   -1.7600   -1.2300 C   0  0  2  0  0  0  0  0  0  0  0  0
   -0.6940   -1.7700   -2.7110 C   0  0  0  0  0  0  0  0  0  0  0  0
   -1.4340   -3.2500   -0.9400 C   0  0  1  0  0  0  0  0  0  0  0  0
   -2.5130   -3.7340   -1.8760 C   0  0  0  0  0  0  0  0  0  0  0  0
   -0.2030   -4.0950   -1.1440 C   0  0  0  0  0  0  0  0  0  0  0  0
   -1.9230   -3.3580    0.3530 O   0  0  0  0  0  0  0  0  0  0  0  0
    0.0230   -1.3520   -0.3410 C   0  0  0  0  0  0  0  0  0  0  0  0
   -0.0530    0.0460    0.2460 C   0  0  1  0  0  0  0  0  0  0  0  0
   -0.6450   -0.1070    1.6170 C   0  0  0  0  0  0  0  0  0  0  0  0
    0.2240   -0.7060    2.6490 C   0  0  0  0  0  0  0  0  0  0  0  0
    1.6170   -0.1460    2.7500 C   0  0  1  0  0  0  0  0  0  0  0  0
    1.4970    1.0540    3.7120 C   0  0  0  0  0  0  0  0  0  0  0  0
    2.4900   -1.0150    3.3960 O   0  0  0  0  0  0  0  0  0  0  0  0
    2.2110    0.2640    1.4600 C   0  0  1  0  0  0  0  0  0  0  0  0
    3.0900    1.4420    1.7930 C   0  0  0  0  0  0  0  0  0  0  0  0
    3.7670    2.3540    2.0700 N   0  0  0  0  0  0  0  0  0  0  0  0
    3.2140   -0.7160    0.8860 C   0  0  1  0  0  0  0  0  0  0  0  0
    3.7290   -0.1700   -0.4460 C   0  0  0  0  0  0  0  0  0  0  0  0
    4.4800   -0.7460    1.7720 C   0  0  0  0  0  0  0  0  0  0  0  0
    2.8010   -2.0110    0.8130 O   0  0  0  0  0  0  0  0  0  0  0  0
    1.2580    0.7080    0.4060 C   0  0  0  0  0  0  0  0  0  0  0  0
   -0.9120    0.8300   -0.6940 C   0  0  2  0  0  0  0  0  0  0  0  0
   -0.7910    2.2800   -0.8380 C   0  0  1  0  0  0  0  0  0  0  0  0
   -1.5890    2.6290   -2.1190 C   0  0  0  0  0  0  0  0  0  0  0  0
   -1.2500    3.2150    0.1800 C   0  0  0  0  0  0  0  0  0  0  0  0
   -0.6830    4.5360   -0.3810 C   0  0  0  0  0  0  0  0  0  0  0  0
    0.5420    4.0620   -1.0780 C   0  0  0  0  0  0  0  0  0  0  0  0
    0.4950    2.7090   -1.2240 O   0  0  0  0  0  0  0  0  0  0  0  0
  1  2  1  0
  3  2  1  1
  3  4  1  0
  3 26  1  0
  4  5  1  0
  5  6  1  6
  5  7  1  0
  5 11  1  0
  7  8  1  6
  7  9  1  0
  7 10  1  0
 12 11  1  6
 12 13  1  0
 12 25  1  0
 12 26  1  0
 13 14  1  0
 14 15  1  0
 15 16  1  1
 15 17  1  0
 15 18  1  0
 18 19  1  1
 18 21  1  0
 18 25  1  0
 19 20  3  0
 21 22  1  6
 21 23  1  0
 21 24  1  0
 26 27  1  1
 27 28  1  6
 27 29  1  0
 27 32  1  0
 29 30  1  0
 30 31  1  0
 31 32  1  0
M  END
