
     RDKit          3D

 32 36  0  0  0  0  0  0  0  0999 V2000
   -3.6300    2.5060   -3.0250 C   0  0  0  0  0  0  0  0  0  0  0  0
   -3.4130    1.0610   -2.7550 C   0  0  0  0  0  0  0  0  0  0  0  0
   -2.3340    0.6830   -2.0850 C   0  0  0  0  0  0  0  0  0  0  0  0
   -2.0580   -0.7410   -1.7840 C   0  0  0  0  0  0  0  0  0  0  0  0
   -1.9680   -1.0820   -0.3390 C   0  0  2  0  0  0  0  0  0  0  0  0
   -3.2190   -0.7760    0.4040 C   0  0  0  0  0  0  0  0  0  0  0  0
   -4.2810   -1.6530    0.4440 C   0  0  0  0  0  0  0  0  0  0  0  0
   -5.4280   -1.3420    1.1380 C   0  0  0  0  0  0  0  0  0  0  0  0
   -6.4510   -2.2200    1.1590 F   0  0  0  0  0  0  0  0  0  0  0  0
   -5.5500   -0.1410    1.8140 C   0  0  0  0  0  0  0  0  0  0  0  0
   -4.4700    0.7140    1.7550 C   0  0  0  0  0  0  0  0  0  0  0  0
   -4.6060    1.8960    2.4280 F   0  0  0  0  0  0  0  0  0  0  0  0
   -3.3090    0.4110    1.0590 C   0  0  0  0  0  0  0  0  0  0  0  0
   -2.2230    1.4170    1.0750 C   0  0  0  0  0  0  0  0  0  0  0  0
   -0.8670    0.8690    0.8340 C   0  0  0  0  0  0  0  0  0  0  0  0
   -0.7980   -0.5680    0.4110 C   0  0  1  0  0  0  0  0  0  0  0  0
   -0.6820   -1.4310    1.6790 C   0  0  0  0  0  0  0  0  0  0  0  0
    0.7900   -1.3280    2.0040 C   0  0  0  0  0  0  0  0  0  0  0  0
    1.4510   -1.4420    0.6760 C   0  0  2  0  0  0  0  0  0  0  0  0
    1.5830   -2.8130    0.3720 O   0  0  0  0  0  0  0  0  0  0  0  0
    2.8360   -0.8850    0.7080 C   0  0  2  0  0  0  0  0  0  0  0  0
    2.9040    0.5740    1.0840 C   0  0  0  0  0  0  0  0  0  0  0  0
    4.1860    0.9840    0.4350 C   0  0  0  0  0  0  0  0  0  0  0  0
    5.0170    2.0900    0.6270 C   0  0  0  0  0  0  0  0  0  0  0  0
    6.1780    2.2860   -0.0840 C   0  0  0  0  0  0  0  0  0  0  0  0
    6.5550    1.3620   -1.0310 C   0  0  0  0  0  0  0  0  0  0  0  0
    5.7690    0.2810   -1.2380 C   0  0  0  0  0  0  0  0  0  0  0  0
    6.1130   -0.6620   -2.1750 F   0  0  0  0  0  0  0  0  0  0  0  0
    4.5810    0.0780   -0.5130 C   0  0  0  0  0  0  0  0  0  0  0  0
    3.5780   -1.0180   -0.5770 C   0  0  1  0  0  0  0  0  0  0  0  0
    4.3180   -2.2170   -0.6060 O   0  0  0  0  0  0  0  0  0  0  0  0
    0.5270   -0.7980   -0.2910 C   0  0  0  0  0  0  0  0  0  0  0  0
  1  2  1  0
  2  3  2  3
  3  4  1  0
  5  4  1  6
  5  6  1  0
  5 16  1  0
  6  7  2  0
  6 13  1  0
  7  8  1  0
  8  9  1  0
  8 10  2  0
 10 11  1  0
 11 12  1  0
 11 13  2  0
 13 14  1  0
 14 15  1  0
 16 15  1  1
 16 17  1  0
 16 32  1  0
 17 18  1  0
 18 19  1  0
 19 20  1  6
 19 21  1  0
 19 32  1  0
 21 22  1  6
 21 30  1  0
 22 23  1  0
 23 24  2  0
 23 29  1  0
 24 25  1  0
 25 26  2  0
 26 27  1  0
 27 28  1  0
 27 29  2  0
 29 30  1  0
 30 31  1  1
M  END
