
     RDKit          3D

 32 35  0  0  0  0  0  0  0  0999 V2000
    3.6880    1.8910   -1.4680 C   0  0  0  0  0  0  0  0  0  0  0  0
    4.4710    0.9430   -0.5440 C   0  0  2  0  0  0  0  0  0  0  0  0
    4.7560    1.7860    0.7100 C   0  0  0  0  0  0  0  0  0  0  0  0
    5.7880    0.6830   -1.1810 C   0  0  0  0  0  0  0  0  0  0  0  0
    5.7960   -0.3620   -2.2460 C   0  0  0  0  0  0  0  0  0  0  0  0
    4.8510   -1.4850   -2.0090 C   0  0  0  0  0  0  0  0  0  0  0  0
    4.2900   -1.5120   -0.6290 C   0  0  1  0  0  0  0  0  0  0  0  0
    5.2750   -1.8860    0.3990 C   0  0  0  0  0  0  0  0  0  0  0  0
    5.9640   -3.1140    0.2890 N   0  0  0  0  0  0  0  0  0  0  0  0
    5.5050   -1.1340    1.3590 O   0  0  0  0  0  0  0  0  0  0  0  0
    3.6240   -0.2290   -0.2150 C   0  0  2  0  0  0  0  0  0  0  0  0
    2.3480   -0.0560   -0.7330 O   0  0  0  0  0  0  0  0  0  0  0  0
    1.2570   -0.0110    0.1110 C   0  0  0  0  0  0  0  0  0  0  0  0
    1.4890   -0.1350    1.3240 O   0  0  0  0  0  0  0  0  0  0  0  0
   -0.1390    0.1720   -0.3540 C   0  0  0  0  0  0  0  0  0  0  0  0
   -1.0110    0.4770    0.8000 C   0  0  1  0  0  0  0  0  0  0  0  0
   -0.4710    1.8000    1.3020 C   0  0  0  0  0  0  0  0  0  0  0  0
   -1.1610    2.3490    2.5180 C   0  0  0  0  0  0  0  0  0  0  0  0
   -2.0260    1.2470    3.0260 C   0  0  0  0  0  0  0  0  0  0  0  0
   -3.0740    1.0830    1.9240 C   0  0  0  0  0  0  0  0  0  0  0  0
   -2.4740    0.5270    0.6210 C   0  0  1  0  0  0  0  0  0  0  0  0
   -2.8370    1.5250   -0.4580 C   0  0  0  0  0  0  0  0  0  0  0  0
   -4.2940    1.9170   -0.4670 C   0  0  0  0  0  0  0  0  0  0  0  0
   -5.2320    0.8130   -0.1240 C   0  0  2  0  0  0  0  0  0  0  0  0
   -6.0020    1.0710    1.0230 O   0  0  0  0  0  0  0  0  0  0  0  0
   -4.6100   -0.5140   -0.1880 C   0  0  2  0  0  0  0  0  0  0  0  0
   -5.5100   -1.5500    0.5060 C   0  0  0  0  0  0  0  0  0  0  0  0
   -4.7830   -2.8640    0.3570 C   0  0  0  0  0  0  0  0  0  0  0  0
   -3.7090   -2.8670   -0.6730 C   0  0  0  0  0  0  0  0  0  0  0  0
   -2.6350   -1.7920   -0.4620 C   0  0  0  0  0  0  0  0  0  0  0  0
   -3.2340   -0.7070    0.3790 C   0  0  1  0  0  0  0  0  0  0  0  0
   -3.3520   -1.3390    1.6540 O   0  0  0  0  0  0  0  0  0  0  0  0
  2  1  1  6
  2  3  1  0
  2  4  1  0
  2 11  1  0
  4  5  1  0
  5  6  1  0
  6  7  1  0
  7  8  1  1
  7 11  1  0
  8  9  1  0
  8 10  2  0
 11 12  1  6
 12 13  1  0
 13 14  2  0
 13 15  1  0
 16 15  1  6
 16 17  1  0
 16 21  1  0
 17 18  1  0
 18 19  1  0
 19 20  1  0
 21 20  1  1
 21 22  1  0
 21 31  1  0
 22 23  1  0
 23 24  1  0
 24 25  1  1
 24 26  1  0
 26 27  1  1
 26 31  1  0
 27 28  1  0
 28 29  1  0
 29 30  1  0
 30 31  1  0
 31 32  1  1
M  END
