
     RDKit          3D

 32 34  0  0  0  0  0  0  0  0999 V2000
    8.4930    1.0610   -0.1800 C   0  0  0  0  0  0  0  0  0  0  0  0
    7.5300   -0.0600   -0.1300 C   0  0  0  0  0  0  0  0  0  0  0  0
    7.8600   -1.2680    0.5350 C   0  0  0  0  0  0  0  0  0  0  0  0
    6.8810   -2.2230    0.6410 C   0  0  0  0  0  0  0  0  0  0  0  0
    5.6520   -2.0180    0.1270 N   0  0  0  0  0  0  0  0  0  0  0  0
    5.3100   -0.8680   -0.5260 C   0  0  0  0  0  0  0  0  0  0  0  0
    4.0580   -0.7060   -1.2650 C   0  0  0  0  0  0  0  0  0  0  0  0
    2.8390   -0.4610   -0.6390 N   0  0  0  0  0  0  0  0  0  0  0  0
    2.5800    0.4590    0.3450 C   0  0  0  0  0  0  0  0  0  0  0  0
    3.6410    1.1350    0.7450 O   0  0  0  0  0  0  0  0  0  0  0  0
    1.3710    0.8550    1.0420 C   0  0  0  0  0  0  0  0  0  0  0  0
    0.0770    0.4430    0.7700 N   0  0  0  0  0  0  0  0  0  0  0  0
   -0.3470   -0.7400    1.2230 C   0  0  0  0  0  0  0  0  0  0  0  0
    0.6570   -1.6410    1.8380 C   0  0  0  0  0  0  0  0  0  0  0  0
   -1.7050   -1.1040    1.1340 C   0  0  0  0  0  0  0  0  0  0  0  0
   -2.5820   -0.2840    0.6140 N   0  0  0  0  0  0  0  0  0  0  0  0
   -2.1950    0.9470    0.1420 C   0  0  0  0  0  0  0  0  0  0  0  0
   -3.1880    1.8240   -0.3340 N   0  0  0  0  0  0  0  0  0  0  0  0
   -4.5950    1.5820   -0.3400 C   0  0  0  0  0  0  0  0  0  0  0  0
   -5.0750    0.4800   -1.2050 C   0  0  1  0  0  0  0  0  0  0  0  0
   -4.8710    0.6920   -2.5300 F   0  0  0  0  0  0  0  0  0  0  0  0
   -4.4470   -0.7350   -0.9210 F   0  0  0  0  0  0  0  0  0  0  0  0
   -6.5290    0.1940   -0.8400 C   0  0  0  0  0  0  0  0  0  0  0  0
   -7.2330    1.0170    0.0080 C   0  0  0  0  0  0  0  0  0  0  0  0
   -8.5090    0.6920    0.4090 C   0  0  0  0  0  0  0  0  0  0  0  0
   -9.0980   -0.4600   -0.0320 C   0  0  0  0  0  0  0  0  0  0  0  0
   -8.3820   -1.2580   -0.8690 C   0  0  0  0  0  0  0  0  0  0  0  0
   -7.1200   -0.9510   -1.2760 N   0  0  0  0  0  0  0  0  0  0  0  0
   -0.8610    1.2780    0.2260 C   0  0  0  0  0  0  0  0  0  0  0  0
   -0.5230    2.4200   -0.2440 O   0  0  0  0  0  0  0  0  0  0  0  0
    6.3020    0.0920   -0.6240 C   0  0  0  0  0  0  0  0  0  0  0  0
    5.9100    1.2200   -1.2740 F   0  0  0  0  0  0  0  0  0  0  0  0
  1  2  1  0
  2  3  2  0
  2 31  1  0
  3  4  1  0
  4  5  2  0
  5  6  1  0
  6  7  1  0
  6 31  2  0
  7  8  1  0
  8  9  1  0
  9 10  2  0
  9 11  1  0
 11 12  1  0
 12 13  1  0
 12 29  1  0
 13 14  1  0
 13 15  2  0
 15 16  1  0
 16 17  2  0
 17 18  1  0
 17 29  1  0
 18 19  1  0
 19 20  1  0
 20 21  1  6
 20 22  1  0
 20 23  1  0
 23 24  2  0
 23 28  1  0
 24 25  1  0
 25 26  2  0
 26 27  1  0
 27 28  2  0
 29 30  2  0
 31 32  1  0
M  END
