
     RDKit          3D

 32 36  0  0  0  0  0  0  0  0999 V2000
    3.3510    3.0540    0.8880 C   0  0  0  0  0  0  0  0  0  0  0  0
    3.3950    1.6920    1.5490 C   0  0  2  0  0  0  0  0  0  0  0  0
    4.8030    1.1850    1.7020 C   0  0  0  0  0  0  0  0  0  0  0  0
    4.8930   -0.0830    0.9160 C   0  0  0  0  0  0  0  0  0  0  0  0
    5.8200   -0.9880    0.6480 C   0  0  0  0  0  0  0  0  0  0  0  0
    5.6450   -2.1790   -0.1780 C   0  0  2  0  0  0  0  0  0  0  0  0
    6.6840   -2.1220   -1.3050 C   0  0  1  0  0  0  0  0  0  0  0  0
    6.5620   -3.2340   -2.1260 F   0  0  0  0  0  0  0  0  0  0  0  0
    6.5250   -0.9830   -2.0640 F   0  0  0  0  0  0  0  0  0  0  0  0
    7.9640   -2.1240   -0.8030 F   0  0  0  0  0  0  0  0  0  0  0  0
    4.3060   -2.4010   -0.7790 C   0  0  0  0  0  0  0  0  0  0  0  0
    3.3160   -1.3700   -0.4510 C   0  0  0  0  0  0  0  0  0  0  0  0
    2.0340   -1.4540   -0.9430 C   0  0  0  0  0  0  0  0  0  0  0  0
    1.0990   -0.4540   -0.6170 C   0  0  0  0  0  0  0  0  0  0  0  0
    1.4090    0.6210    0.1820 C   0  0  0  0  0  0  0  0  0  0  0  0
    2.7030    0.7050    0.6770 C   0  0  0  0  0  0  0  0  0  0  0  0
    3.5960   -0.2840    0.3440 C   0  0  0  0  0  0  0  0  0  0  0  0
    0.4360    1.6720    0.5260 C   0  0  0  0  0  0  0  0  0  0  0  0
   -0.9860    1.3530    0.2870 C   0  0  0  0  0  0  0  0  0  0  0  0
   -1.2760   -0.0820   -0.0440 C   0  0  1  0  0  0  0  0  0  0  0  0
   -2.6470   -0.1010   -0.7210 C   0  0  1  0  0  0  0  0  0  0  0  0
   -2.5120    0.7210   -1.8380 O   0  0  0  0  0  0  0  0  0  0  0  0
   -2.8930   -1.4990   -1.2910 C   0  0  0  0  0  0  0  0  0  0  0  0
   -2.7570   -2.5330   -0.2270 C   0  0  0  0  0  0  0  0  0  0  0  0
   -3.6640   -2.1720    0.9220 C   0  0  0  0  0  0  0  0  0  0  0  0
   -4.5370   -1.0010    0.6510 C   0  0  0  0  0  0  0  0  0  0  0  0
   -3.7780    0.2260    0.1800 C   0  0  2  0  0  0  0  0  0  0  0  0
   -4.7730    1.2130   -0.3190 C   0  0  2  0  0  0  0  0  0  0  0  0
   -4.1940    2.5750   -0.6210 C   0  0  0  0  0  0  0  0  0  0  0  0
   -5.9090    1.4480    0.6700 C   0  0  0  0  0  0  0  0  0  0  0  0
   -5.4050    0.7990   -1.5050 O   0  0  0  0  0  0  0  0  0  0  0  0
   -0.2930   -0.5290   -1.1370 C   0  0  0  0  0  0  0  0  0  0  0  0
  2  1  1  6
  2  3  1  0
  2 16  1  0
  3  4  1  0
  4  5  2  0
  4 17  1  0
  5  6  1  0
  6  7  1  0
  6 11  1  6
  7  8  1  6
  7  9  1  0
  7 10  1  0
 11 12  1  0
 12 13  2  0
 12 17  1  0
 13 14  1  0
 14 15  2  0
 14 32  1  0
 15 16  1  0
 15 18  1  0
 16 17  2  0
 18 19  1  0
 20 19  1  6
 20 21  1  0
 20 32  1  0
 21 22  1  6
 21 23  1  0
 21 27  1  0
 23 24  1  0
 24 25  1  0
 25 26  1  0
 27 26  1  6
 27 28  1  0
 28 29  1  6
 28 30  1  0
 28 31  1  0
M  END
