
     RDKit          3D

 31 35  0  0  0  0  0  0  0  0999 V2000
   -3.1870    2.2570   -2.7760 C   0  0  0  0  0  0  0  0  0  0  0  0
   -2.1730    1.9440   -1.6520 C   0  0  1  0  0  0  0  0  0  0  0  0
   -2.6460    2.7290   -0.4810 C   0  0  0  0  0  0  0  0  0  0  0  0
   -3.1370    1.7680    0.5840 C   0  0  2  0  0  0  0  0  0  0  0  0
   -3.4690    2.5900    1.8090 C   0  0  0  0  0  0  0  0  0  0  0  0
   -1.8920    0.9480    0.9400 C   0  0  0  0  0  0  0  0  0  0  0  0
   -1.6220   -0.0650   -0.1640 C   0  0  2  0  0  0  0  0  0  0  0  0
   -2.5140   -1.2290    0.0790 C   0  0  2  0  0  0  0  0  0  0  0  0
   -2.4260   -1.9900    1.3260 C   0  0  0  0  0  0  0  0  0  0  0  0
   -3.6100   -2.9670    1.0860 C   0  0  0  0  0  0  0  0  0  0  0  0
   -3.2540   -3.4490   -0.3070 C   0  0  0  0  0  0  0  0  0  0  0  0
   -2.4600   -2.3150   -0.9710 C   0  0  0  0  0  0  0  0  0  0  0  0
   -0.1460   -0.3740   -0.1320 C   0  0  2  0  0  0  0  0  0  0  0  0
    0.3370   -0.8480    1.1960 C   0  0  0  0  0  0  0  0  0  0  0  0
    1.6600   -0.1580    1.6060 C   0  0  0  0  0  0  0  0  0  0  0  0
    2.5650   -0.5220    0.4600 C   0  0  2  0  0  0  0  0  0  0  0  0
    2.3550   -1.8540    0.1590 O   0  0  0  0  0  0  0  0  0  0  0  0
    3.9830   -0.3060    0.6810 C   0  0  0  0  0  0  0  0  0  0  0  0
    4.5220   -0.1080    1.9170 C   0  0  0  0  0  0  0  0  0  0  0  0
    5.8840    0.0980    2.0770 C   0  0  0  0  0  0  0  0  0  0  0  0
    6.4470    0.2990    3.3000 F   0  0  0  0  0  0  0  0  0  0  0  0
    6.6680    0.0940    0.9330 C   0  0  0  0  0  0  0  0  0  0  0  0
    6.1560   -0.1040   -0.3280 C   0  0  0  0  0  0  0  0  0  0  0  0
    6.9480   -0.1040   -1.4390 F   0  0  0  0  0  0  0  0  0  0  0  0
    4.7810   -0.3060   -0.4320 C   0  0  0  0  0  0  0  0  0  0  0  0
    4.1810   -0.5290   -1.7850 C   0  0  0  0  0  0  0  0  0  0  0  0
    2.7650   -0.1170   -1.9270 C   0  0  0  0  0  0  0  0  0  0  0  0
    2.1710    0.4120   -0.6710 C   0  0  2  0  0  0  0  0  0  0  0  0
    2.8480    1.6270   -0.3970 O   0  0  0  0  0  0  0  0  0  0  0  0
    0.7150    0.7090   -0.7330 C   0  0  0  0  0  0  0  0  0  0  0  0
   -2.0550    0.4860   -1.5110 C   0  0  0  0  0  0  0  0  0  0  0  0
  2  1  1  6
  2  3  1  0
  2 31  1  0
  3  4  1  0
  4  5  1  1
  4  6  1  0
  7  6  1  1
  7  8  1  0
  7 13  1  0
  7 31  1  0
  8  9  1  1
  8 12  1  0
  9 10  1  0
 10 11  1  0
 11 12  1  0
 13 14  1  1
 13 30  1  0
 14 15  1  0
 15 16  1  0
 16 17  1  6
 16 18  1  0
 16 28  1  0
 18 19  2  0
 18 25  1  0
 19 20  1  0
 20 21  1  0
 20 22  2  0
 22 23  1  0
 23 24  1  0
 23 25  2  0
 25 26  1  0
 26 27  1  0
 27 28  1  0
 28 29  1  1
 28 30  1  0
M  END
