
     RDKit          3D

 32 34  0  0  0  0  0  0  0  0999 V2000
    0.9730    4.2470    1.7810 C   0  0  0  0  0  0  0  0  0  0  0  0
    1.4810    2.9010    2.3170 C   0  0  0  0  0  0  0  0  0  0  0  0
    2.1910    2.3060    1.2470 O   0  0  0  0  0  0  0  0  0  0  0  0
    2.8100    1.0840    1.3100 C   0  0  0  0  0  0  0  0  0  0  0  0
    2.7450    0.4440    2.3920 O   0  0  0  0  0  0  0  0  0  0  0  0
    3.5390    0.4880    0.1910 C   0  0  1  0  0  0  0  0  0  0  0  0
    4.2520   -0.7820    0.5510 C   0  0  0  0  0  0  0  0  0  0  0  0
    4.2580   -1.6240   -0.7250 C   0  0  2  0  0  0  0  0  0  0  0  0
    3.8560   -0.6410   -1.8040 C   0  0  0  0  0  0  0  0  0  0  0  0
    2.7930    0.1770   -1.0360 C   0  0  1  0  0  0  0  0  0  0  0  0
    1.6170   -0.7640   -0.9330 C   0  0  2  0  0  0  0  0  0  0  0  0
    0.3290   -0.0900   -0.7250 C   0  0  1  0  0  0  0  0  0  0  0  0
    0.0780    0.8040   -1.8370 O   0  0  0  0  0  0  0  0  0  0  0  0
   -0.9250   -0.8550   -0.5630 C   0  0  1  0  0  0  0  0  0  0  0  0
   -1.0750   -1.7260    0.6050 C   0  0  1  0  0  0  0  0  0  0  0  0
   -1.9490   -1.1290    1.5950 O   0  0  0  0  0  0  0  0  0  0  0  0
   -1.6440   -3.0890    0.3500 C   0  0  0  0  0  0  0  0  0  0  0  0
   -2.5750   -3.1950   -0.8040 C   0  0  0  0  0  0  0  0  0  0  0  0
   -3.6270   -2.0910   -0.6560 C   0  0  0  0  0  0  0  0  0  0  0  0
   -3.2270   -0.9770   -1.5630 C   0  0  0  0  0  0  0  0  0  0  0  0
   -2.1480   -0.0670   -0.9840 C   0  0  1  0  0  0  0  0  0  0  0  0
   -2.6840    0.8500   -0.0620 N   0  0  0  0  0  0  0  0  0  0  0  0
   -2.7030    2.2610   -0.3700 C   0  0  0  0  0  0  0  0  0  0  0  0
   -2.2630    2.7410   -1.4330 O   0  0  0  0  0  0  0  0  0  0  0  0
   -3.2750    3.2300    0.6150 C   0  0  1  0  0  0  0  0  0  0  0  0
   -2.4960    3.0890    1.9290 C   0  0  0  0  0  0  0  0  0  0  0  0
   -3.1180    4.6460    0.1630 C   0  0  0  0  0  0  0  0  0  0  0  0
   -4.7030    2.8380    0.8570 C   0  0  0  0  0  0  0  0  0  0  0  0
    1.8840   -1.9800   -0.1690 C   0  0  0  0  0  0  0  0  0  0  0  0
    3.2000   -2.6600   -0.6200 C   0  0  2  0  0  0  0  0  0  0  0  0
    3.4860   -3.7090    0.4300 C   0  0  0  0  0  0  0  0  0  0  0  0
    2.9280   -3.3090   -1.9430 C   0  0  0  0  0  0  0  0  0  0  0  0
  1  2  1  0
  2  3  1  0
  3  4  1  0
  4  5  2  0
  6  4  1  1
  6  7  1  0
  6 10  1  0
  8  7  1  1
  8  9  1  0
  8 30  1  0
 10  9  1  6
 10 11  1  0
 11 12  1  0
 11 29  1  1
 12 13  1  6
 12 14  1  0
 14 15  1  1
 14 21  1  0
 15 16  1  1
 15 17  1  0
 17 18  1  0
 18 19  1  0
 19 20  1  0
 20 21  1  0
 21 22  1  1
 22 23  1  0
 23 24  2  0
 23 25  1  0
 25 26  1  1
 25 27  1  0
 25 28  1  0
 29 30  1  0
 30 31  1  1
 30 32  1  0
M  END
