
     RDKit          3D

 32 35  0  0  0  0  0  0  0  0999 V2000
    4.8470   -2.2990   -0.3530 C   0  0  0  0  0  0  0  0  0  0  0  0
    3.4540   -1.8170   -0.6350 C   0  0  0  0  0  0  0  0  0  0  0  0
    3.0580   -0.5920   -0.4120 C   0  0  0  0  0  0  0  0  0  0  0  0
    3.9060    0.4690    0.1460 C   0  0  0  0  0  0  0  0  0  0  0  0
    4.9930    0.7460    0.8390 C   0  0  0  0  0  0  0  0  0  0  0  0
    5.8600   -0.1300    1.3640 F   0  0  0  0  0  0  0  0  0  0  0  0
    5.1690    2.2180    0.9880 C   0  0  0  0  0  0  0  0  0  0  0  0
    4.0000    2.7360    0.2930 C   0  0  0  0  0  0  0  0  0  0  0  0
    3.7190    4.0560    0.1740 F   0  0  0  0  0  0  0  0  0  0  0  0
    3.2640    1.7180   -0.1980 C   0  0  0  0  0  0  0  0  0  0  0  0
    2.0150    1.4190   -0.9700 C   0  0  0  0  0  0  0  0  0  0  0  0
    1.3920    2.2980   -1.7480 C   0  0  0  0  0  0  0  0  0  0  0  0
    0.1900    2.1790   -2.5370 C   0  0  0  0  0  0  0  0  0  0  0  0
    0.2860    1.9290   -3.8710 F   0  0  0  0  0  0  0  0  0  0  0  0
   -1.0840    2.3620   -2.1230 C   0  0  0  0  0  0  0  0  0  0  0  0
   -1.4340    2.7320   -0.7320 C   0  0  0  0  0  0  0  0  0  0  0  0
   -2.9130    2.9710   -0.5610 C   0  0  1  0  0  0  0  0  0  0  0  0
   -3.6110    2.1450   -1.3890 O   0  0  0  0  0  0  0  0  0  0  0  0
   -3.3150    2.9470    0.8910 C   0  0  0  0  0  0  0  0  0  0  0  0
   -3.6260    1.6360    1.4790 C   0  0  0  0  0  0  0  0  0  0  0  0
   -3.0700    0.4070    0.8900 C   0  0  0  0  0  0  0  0  0  0  0  0
   -1.8990   -0.1880    1.6710 C   0  0  0  0  0  0  0  0  0  0  0  0
   -1.3910   -1.4380    0.9960 C   0  0  1  0  0  0  0  0  0  0  0  0
   -0.8660   -2.3550    2.0980 C   0  0  0  0  0  0  0  0  0  0  0  0
   -2.6170   -2.1750    0.4260 C   0  0  0  0  0  0  0  0  0  0  0  0
   -2.2710   -3.5260   -0.1280 C   0  0  0  0  0  0  0  0  0  0  0  0
   -1.0980   -3.4860   -1.0360 C   0  0  0  0  0  0  0  0  0  0  0  0
    0.0050   -2.5950   -0.6230 C   0  0  0  0  0  0  0  0  0  0  0  0
   -0.4240   -1.2530   -0.1090 C   0  0  1  0  0  0  0  0  0  0  0  0
   -1.0740   -0.5770   -1.1450 O   0  0  0  0  0  0  0  0  0  0  0  0
    0.7660   -0.3970    0.2920 C   0  0  0  0  0  0  0  0  0  0  0  0
    1.7000   -0.0100   -0.7620 C   0  0  2  0  0  0  0  0  0  0  0  0
  1  2  1  0
  2  3  2  3
  3  4  1  0
  3 32  1  0
  4  5  2  0
  4 10  1  0
  5  6  1  0
  5  7  1  0
  7  8  1  0
  8  9  1  0
  8 10  2  0
 10 11  1  0
 11 12  2  0
 11 32  1  0
 12 13  1  0
 13 14  1  0
 13 15  2  0
 15 16  1  0
 16 17  1  0
 17 18  1  6
 17 19  1  0
 19 20  1  0
 20 21  1  0
 21 22  1  0
 22 23  1  0
 23 24  1  1
 23 25  1  0
 23 29  1  0
 25 26  1  0
 26 27  1  0
 27 28  1  0
 28 29  1  0
 29 30  1  6
 29 31  1  0
 32 31  1  1
M  END
