
     RDKit          3D

 32 35  0  0  0  0  0  0  0  0999 V2000
    6.3540   -0.1630    2.0970 C   0  0  0  0  0  0  0  0  0  0  0  0
    5.0010   -0.8070    2.0250 C   0  0  2  0  0  0  0  0  0  0  0  0
    5.0400   -2.0110    2.9760 C   0  0  0  0  0  0  0  0  0  0  0  0
    4.7710   -1.3690    0.6450 C   0  0  0  0  0  0  0  0  0  0  0  0
    3.2420   -1.2400    0.5630 C   0  0  0  0  0  0  0  0  0  0  0  0
    3.0760    0.0850    1.3000 C   0  0  1  0  0  0  0  0  0  0  0  0
    3.5280    1.1800    0.3580 C   0  0  0  0  0  0  0  0  0  0  0  0
    1.6500    0.3120    1.7340 C   0  0  0  0  0  0  0  0  0  0  0  0
    0.7670    0.3700    0.6080 N   0  0  0  0  0  0  0  0  0  0  0  0
   -0.6570    0.5790    0.7460 C   0  0  0  0  0  0  0  0  0  0  0  0
   -1.0230    0.7020    1.9680 O   0  0  0  0  0  0  0  0  0  0  0  0
   -1.5580    0.6390   -0.3960 C   0  0  2  0  0  0  0  0  0  0  0  0
   -2.1030    2.0000   -0.7490 C   0  0  2  0  0  0  0  0  0  0  0  0
   -2.9770    1.8380   -1.8880 O   0  0  0  0  0  0  0  0  0  0  0  0
   -1.0780    2.9940   -1.2400 C   0  0  2  0  0  0  0  0  0  0  0  0
    0.0390    3.3060   -0.3300 C   0  0  0  0  0  0  0  0  0  0  0  0
    0.4030    4.7650   -0.2330 C   0  0  0  0  0  0  0  0  0  0  0  0
   -0.8010    5.6690   -0.1810 C   0  0  0  0  0  0  0  0  0  0  0  0
   -2.0660    4.9320   -0.5740 C   0  0  0  0  0  0  0  0  0  0  0  0
   -1.7640    4.1620   -1.6570 O   0  0  0  0  0  0  0  0  0  0  0  0
   -2.6440   -0.4120   -0.4020 C   0  0  2  0  0  0  0  0  0  0  0  0
   -3.4180   -0.2290   -1.5750 O   0  0  0  0  0  0  0  0  0  0  0  0
   -3.6400   -0.2520    0.7270 C   0  0  0  0  0  0  0  0  0  0  0  0
   -4.3830   -1.5570    0.9890 C   0  0  0  0  0  0  0  0  0  0  0  0
   -4.6230   -2.2730   -0.2950 C   0  0  0  0  0  0  0  0  0  0  0  0
   -3.2840   -2.7100   -0.8470 C   0  0  2  0  0  0  0  0  0  0  0  0
   -2.9890   -4.1320   -0.4150 C   0  0  0  0  0  0  0  0  0  0  0  0
   -1.5860   -4.4580   -0.8390 C   0  0  0  0  0  0  0  0  0  0  0  0
   -1.0330   -3.5100   -1.8720 C   0  0  0  0  0  0  0  0  0  0  0  0
   -0.9990   -2.0770   -1.3500 C   0  0  0  0  0  0  0  0  0  0  0  0
   -2.1480   -1.8080   -0.4110 C   0  0  1  0  0  0  0  0  0  0  0  0
    3.9630    0.0200    2.3380 O   0  0  0  0  0  0  0  0  0  0  0  0
  2  1  1  6
  2  3  1  0
  2  4  1  0
  2 32  1  0
  4  5  1  0
  5  6  1  0
  6  7  1  6
  6  8  1  0
  6 32  1  0
  8  9  1  0
  9 10  1  0
 10 11  2  0
 12 10  1  1
 12 13  1  0
 12 21  1  0
 13 14  1  6
 13 15  1  0
 15 16  1  1
 15 20  1  0
 16 17  1  0
 17 18  1  0
 18 19  1  0
 19 20  1  0
 21 22  1  6
 21 23  1  0
 21 31  1  0
 23 24  1  0
 24 25  1  0
 26 25  1  1
 26 27  1  0
 26 31  1  0
 27 28  1  0
 28 29  1  0
 29 30  1  0
 31 30  1  6
M  END
