
     RDKit          3D

 33 35  0  0  0  0  0  0  0  0999 V2000
   -6.4430    0.3460    0.3820 C   0  0  0  0  0  0  0  0  0  0  0  0
   -5.2020   -0.4400    0.7810 C   0  0  0  0  0  0  0  0  0  0  0  0
   -4.0300    0.3090    1.0530 C   0  0  0  0  0  0  0  0  0  0  0  0
   -4.1980    1.6800    0.9360 C   0  0  0  0  0  0  0  0  0  0  0  0
   -3.1510    2.6730    1.1650 C   0  0  2  0  0  0  0  0  0  0  0  0
   -2.8680    3.3380    0.0070 F   0  0  0  0  0  0  0  0  0  0  0  0
   -2.0210    2.0780    1.6490 F   0  0  0  0  0  0  0  0  0  0  0  0
   -2.7540   -0.0310    1.4640 N   0  0  0  0  0  0  0  0  0  0  0  0
   -1.5210   -0.5130    1.0690 C   0  0  1  0  0  0  0  0  0  0  0  0
   -1.3440   -2.0420    1.0460 C   0  0  0  0  0  0  0  0  0  0  0  0
    0.1180   -2.4200    1.0710 C   0  0  0  0  0  0  0  0  0  0  0  0
    1.0630   -1.2920    0.8590 C   0  0  0  0  0  0  0  0  0  0  0  0
    0.5350   -0.4470   -0.2350 C   0  0  0  0  0  0  0  0  0  0  0  0
   -0.8130   -0.0650   -0.1350 C   0  0  0  0  0  0  0  0  0  0  0  0
   -1.3220    0.7070   -1.1270 C   0  0  0  0  0  0  0  0  0  0  0  0
   -0.5160    1.1090   -2.2130 C   0  0  0  0  0  0  0  0  0  0  0  0
   -1.2490    2.1020   -3.4680 Cl  0  0  0  0  0  0  0  0  0  0  0  0
    0.7890    0.7460   -2.3190 C   0  0  0  0  0  0  0  0  0  0  0  0
    1.6300    1.1680   -3.4280 C   0  0  0  0  0  0  0  0  0  0  0  0
    1.2550    1.8880   -4.3780 O   0  0  0  0  0  0  0  0  0  0  0  0
    1.3160   -0.0590   -1.2920 C   0  0  0  0  0  0  0  0  0  0  0  0
    2.6710   -0.5160   -1.4290 C   0  0  0  0  0  0  0  0  0  0  0  0
    2.8740   -1.3750   -2.3900 O   0  0  0  0  0  0  0  0  0  0  0  0
    3.7860   -0.1220   -0.6300 C   0  0  0  0  0  0  0  0  0  0  0  0
    3.9380    0.4050    0.6310 C   0  0  0  0  0  0  0  0  0  0  0  0
    5.2760    0.5460    0.9150 C   0  0  0  0  0  0  0  0  0  0  0  0
    5.8890    1.0700    2.1700 C   0  0  0  0  0  0  0  0  0  0  0  0
    5.9450    0.1240   -0.1380 O   0  0  0  0  0  0  0  0  0  0  0  0
    5.1280   -0.2730   -1.0620 C   0  0  0  0  0  0  0  0  0  0  0  0
    5.5500   -0.8120   -2.3990 C   0  0  0  0  0  0  0  0  0  0  0  0
   -5.4110   -1.7170    0.8440 C   0  0  0  0  0  0  0  0  0  0  0  0
   -6.7430   -2.0950    0.5220 F   0  0  0  0  0  0  0  0  0  0  0  0
   -4.4130   -2.9880    1.2580 Cl  0  0  0  0  0  0  0  0  0  0  0  0
  1  2  1  0
  2  3  1  0
  2 31  2  3
  3  4  2  3
  3  8  1  0
  4  5  1  0
  5  6  1  6
  5  7  1  0
  9  8  1  6
  9 10  1  0
  9 14  1  0
 10 11  1  0
 11 12  1  0
 12 13  1  0
 13 14  2  0
 13 21  1  0
 14 15  1  0
 15 16  2  0
 16 17  1  0
 16 18  1  0
 18 19  1  0
 18 21  2  0
 19 20  2  0
 21 22  1  0
 22 23  2  0
 22 24  1  0
 24 25  1  0
 24 29  2  0
 25 26  2  0
 26 27  1  0
 26 28  1  0
 28 29  1  0
 29 30  1  0
 31 32  1  0
 31 33  1  0
M  END
