
     RDKit          3D

 32 34  0  0  0  0  0  0  0  0999 V2000
    0.5860    0.2210    1.2030 C   0  0  0  0  0  0  0  0  0  0  0  0
    1.2890   -0.4070    0.0670 C   0  0  0  0  0  0  0  0  0  0  0  0
    0.7420   -1.2610   -0.8600 C   0  0  0  0  0  0  0  0  0  0  0  0
   -0.6490   -1.7160   -0.9050 C   0  0  0  0  0  0  0  0  0  0  0  0
   -1.0590   -2.4990   -1.7950 O   0  0  0  0  0  0  0  0  0  0  0  0
   -1.5790   -1.2990    0.0370 O   0  0  0  0  0  0  0  0  0  0  0  0
   -2.9270   -1.7050    0.0400 C   0  0  1  0  0  0  0  0  0  0  0  0
   -3.1140   -2.5880    1.2780 C   0  0  0  0  0  0  0  0  0  0  0  0
   -3.8780   -0.5970   -0.0040 C   0  0  0  0  0  0  0  0  0  0  0  0
   -3.4830    0.5460   -0.0400 O   0  0  0  0  0  0  0  0  0  0  0  0
   -5.3300   -0.8690   -0.0050 C   0  0  0  0  0  0  0  0  0  0  0  0
   -6.0610    0.4080   -0.0520 C   0  0  0  0  0  0  0  0  0  0  0  0
   -6.6400    0.8140   -1.2280 C   0  0  0  0  0  0  0  0  0  0  0  0
   -7.3310    2.0260   -1.2630 C   0  0  0  0  0  0  0  0  0  0  0  0
   -7.4260    2.8020   -0.1180 C   0  0  0  0  0  0  0  0  0  0  0  0
   -8.1150    3.9710   -0.2280 F   0  0  0  0  0  0  0  0  0  0  0  0
   -6.8440    2.3870    1.0530 C   0  0  0  0  0  0  0  0  0  0  0  0
   -6.1520    1.1730    1.0860 C   0  0  0  0  0  0  0  0  0  0  0  0
   -5.4100    0.6430    2.5790 Cl  0  0  0  0  0  0  0  0  0  0  0  0
    1.7270   -1.5910   -1.7090 N   0  0  0  0  0  0  0  0  0  0  0  0
    2.8960   -0.9810   -1.3640 C   0  0  0  0  0  0  0  0  0  0  0  0
    2.6410   -0.2370   -0.2560 C   0  0  0  0  0  0  0  0  0  0  0  0
    3.8550    0.4710    0.2020 C   0  0  0  0  0  0  0  0  0  0  0  0
    4.8910    0.0370   -0.7430 C   0  0  0  0  0  0  0  0  0  0  0  0
    6.1860    0.3730   -0.7180 C   0  0  0  0  0  0  0  0  0  0  0  0
    6.6320    1.2530    0.3410 C   0  0  0  0  0  0  0  0  0  0  0  0
    7.8910    1.6230    0.4250 C   0  0  0  0  0  0  0  0  0  0  0  0
    8.8650    1.1390   -0.5700 C   0  0  2  0  0  0  0  0  0  0  0  0
   10.1030    1.7300   -0.3260 F   0  0  0  0  0  0  0  0  0  0  0  0
    8.4620    1.5470   -1.8160 F   0  0  0  0  0  0  0  0  0  0  0  0
    9.0890   -0.6260   -0.4650 Cl  0  0  0  0  0  0  0  0  0  0  0  0
    4.3170   -0.8570   -1.7790 C   0  0  0  0  0  0  0  0  0  0  0  0
  1  2  1  0
  2  3  2  0
  2 22  1  0
  3  4  1  0
  3 20  1  0
  4  5  2  0
  4  6  1  0
  6  7  1  0
  7  8  1  1
  7  9  1  0
  9 10  2  0
  9 11  1  0
 11 12  1  0
 12 13  2  0
 12 18  1  0
 13 14  1  0
 14 15  2  0
 15 16  1  0
 15 17  1  0
 17 18  2  0
 18 19  1  0
 20 21  1  0
 21 22  2  0
 21 32  1  0
 22 23  1  0
 23 24  1  0
 24 25  2  3
 24 32  1  0
 25 26  1  0
 26 27  2  3
 27 28  1  0
 28 29  1  1
 28 30  1  0
 28 31  1  0
M  END
