
     RDKit          3D

 33 35  0  0  0  0  0  0  0  0999 V2000
    0.5420    2.1580    0.0320 O   0  0  0  0  0  0  0  0  0  0  0  0
    1.0040    1.1000   -0.4490 C   0  0  0  0  0  0  0  0  0  0  0  0
    2.4530    0.8230   -0.3480 C   0  0  0  0  0  0  0  0  0  0  0  0
    2.9260   -0.2840   -0.8780 C   0  0  0  0  0  0  0  0  0  0  0  0
    4.3340   -0.6430   -0.8310 C   0  0  0  0  0  0  0  0  0  0  0  0
    5.2930    0.1520   -0.2520 C   0  0  0  0  0  0  0  0  0  0  0  0
    6.6330   -0.2520   -0.2140 C   0  0  0  0  0  0  0  0  0  0  0  0
    7.0460   -1.4490   -0.7480 C   0  0  0  0  0  0  0  0  0  0  0  0
    8.4930   -1.8640   -0.6810 C   0  0  1  0  0  0  0  0  0  0  0  0
    9.2610   -0.9770   -1.3750 F   0  0  0  0  0  0  0  0  0  0  0  0
    8.8460   -1.7460    0.6770 F   0  0  0  0  0  0  0  0  0  0  0  0
    8.6430   -3.1650   -1.0700 F   0  0  0  0  0  0  0  0  0  0  0  0
    6.0940   -2.2560   -1.3340 C   0  0  0  0  0  0  0  0  0  0  0  0
    4.7640   -1.8530   -1.3710 C   0  0  0  0  0  0  0  0  0  0  0  0
    3.5560   -2.8640   -2.1120 Cl  0  0  0  0  0  0  0  0  0  0  0  0
    0.1530    0.2120   -1.0610 O   0  0  0  0  0  0  0  0  0  0  0  0
   -1.2330    0.4000   -1.1890 C   0  0  0  0  0  0  0  0  0  0  0  0
   -1.9280    0.5100    0.1560 C   0  0  1  0  0  0  0  0  0  0  0  0
   -3.3600    0.7210    0.0040 N   0  0  0  0  0  0  0  0  0  0  0  0
   -3.9300    1.9460   -0.3710 C   0  0  0  0  0  0  0  0  0  0  0  0
   -3.1970    2.9290   -0.6090 O   0  0  0  0  0  0  0  0  0  0  0  0
   -5.3860    2.1200   -0.4930 C   0  0  0  0  0  0  0  0  0  0  0  0
   -6.0290    3.2340   -0.8540 C   0  0  0  0  0  0  0  0  0  0  0  0
   -7.4900    3.0190   -0.8590 C   0  0  0  0  0  0  0  0  0  0  0  0
   -7.6330    1.6140   -0.4280 C   0  0  0  0  0  0  0  0  0  0  0  0
   -6.4160    1.1190   -0.2280 C   0  0  0  0  0  0  0  0  0  0  0  0
   -1.5500   -0.4830    1.1470 C   0  0  0  0  0  0  0  0  0  0  0  0
   -1.9140   -0.3450    2.4610 C   0  0  0  0  0  0  0  0  0  0  0  0
   -1.5910   -1.3020    3.4240 C   0  0  0  0  0  0  0  0  0  0  0  0
   -0.8900   -2.4270    3.0800 C   0  0  0  0  0  0  0  0  0  0  0  0
   -0.4600   -3.6630    4.2600 Cl  0  0  0  0  0  0  0  0  0  0  0  0
   -0.5100   -2.5980    1.7810 C   0  0  0  0  0  0  0  0  0  0  0  0
   -0.8330   -1.6530    0.8480 C   0  0  0  0  0  0  0  0  0  0  0  0
  1  2  2  0
  2  3  1  0
  2 16  1  0
  3  4  2  3
  4  5  1  0
  5  6  2  0
  5 14  1  0
  6  7  1  0
  7  8  2  0
  8  9  1  0
  8 13  1  0
  9 10  1  6
  9 11  1  0
  9 12  1  0
 13 14  2  0
 14 15  1  0
 16 17  1  0
 18 17  1  6
 18 19  1  0
 18 27  1  0
 19 20  1  0
 20 21  2  0
 20 22  1  0
 22 23  2  0
 22 26  1  0
 23 24  1  0
 24 25  1  0
 25 26  2  0
 27 28  2  0
 27 33  1  0
 28 29  1  0
 29 30  2  0
 30 31  1  0
 30 32  1  0
 32 33  2  0
M  END
