
     RDKit          3D

 32 34  0  0  0  0  0  0  0  0999 V2000
    1.6320   -3.6430   -0.3780 C   0  0  0  0  0  0  0  0  0  0  0  0
    2.9100   -3.1680   -0.1880 O   0  0  0  0  0  0  0  0  0  0  0  0
    3.3830   -1.9160    0.0400 C   0  0  0  0  0  0  0  0  0  0  0  0
    4.6930   -1.7420    0.1490 C   0  0  0  0  0  0  0  0  0  0  0  0
    5.5860   -2.9530    0.0130 C   0  0  2  0  0  0  0  0  0  0  0  0
    5.6520   -3.2270   -1.3320 F   0  0  0  0  0  0  0  0  0  0  0  0
    5.0730   -3.9900    0.7400 F   0  0  0  0  0  0  0  0  0  0  0  0
    6.8610   -2.6320    0.4710 F   0  0  0  0  0  0  0  0  0  0  0  0
    2.4870   -0.7880    0.1630 C   0  0  0  0  0  0  0  0  0  0  0  0
    2.9540    0.4800    0.3940 C   0  0  0  0  0  0  0  0  0  0  0  0
    2.0730    1.5460    0.5080 C   0  0  0  0  0  0  0  0  0  0  0  0
    2.5230    2.7020    0.7210 O   0  0  0  0  0  0  0  0  0  0  0  0
    0.7320    1.2970    0.3830 C   0  0  0  0  0  0  0  0  0  0  0  0
   -0.2320    2.4500    0.4970 C   0  0  1  0  0  0  0  0  0  0  0  0
    0.1840    3.2530    1.6490 C   0  0  0  0  0  0  0  0  0  0  0  0
    0.0550    4.5270    1.9920 C   0  0  0  0  0  0  0  0  0  0  0  0
   -0.6130    5.5300    1.2000 C   0  0  0  0  0  0  0  0  0  0  0  0
   -0.8580    5.4910   -0.1170 C   0  0  0  0  0  0  0  0  0  0  0  0
   -0.4980    4.4170   -1.0340 C   0  0  0  0  0  0  0  0  0  0  0  0
   -0.4040    4.8980   -2.7370 Cl  0  0  0  0  0  0  0  0  0  0  0  0
   -0.2340    3.1470   -0.7980 C   0  0  0  0  0  0  0  0  0  0  0  0
    0.2920   -0.0050    0.1490 C   0  0  0  0  0  0  0  0  0  0  0  0
   -1.1670   -0.1890    0.0280 C   0  0  0  0  0  0  0  0  0  0  0  0
   -1.5420   -1.5470   -0.2250 N   0  0  0  0  0  0  0  0  0  0  0  0
   -2.9370   -1.8560   -0.3600 C   0  0  0  0  0  0  0  0  0  0  0  0
   -3.8720   -0.8490   -0.2430 C   0  0  0  0  0  0  0  0  0  0  0  0
   -5.2040   -1.1530   -0.3730 C   0  0  0  0  0  0  0  0  0  0  0  0
   -5.6600   -2.4280   -0.6170 C   0  0  0  0  0  0  0  0  0  0  0  0
   -4.6960   -3.4160   -0.7290 C   0  0  0  0  0  0  0  0  0  0  0  0
   -3.3540   -3.1480   -0.6040 C   0  0  0  0  0  0  0  0  0  0  0  0
   -2.1490   -4.4120   -0.7490 Cl  0  0  0  0  0  0  0  0  0  0  0  0
    1.1750   -0.9450    0.0550 O   0  0  0  0  0  0  0  0  0  0  0  0
  1  2  1  0
  2  3  1  0
  3  4  2  3
  3  9  1  0
  4  5  1  0
  5  6  1  6
  5  7  1  0
  5  8  1  0
  9 10  2  0
  9 32  1  0
 10 11  1  0
 11 12  2  0
 11 13  1  0
 14 13  1  6
 13 22  2  0
 14 15  1  0
 14 21  1  0
 15 16  2  0
 16 17  1  0
 17 18  2  0
 18 19  1  0
 19 20  1  0
 19 21  2  0
 22 23  1  0
 22 32  1  0
 23 24  1  0
 24 25  1  0
 25 26  2  0
 25 30  1  0
 26 27  1  0
 27 28  2  0
 28 29  1  0
 29 30  2  0
 30 31  1  0
M  END
