
     RDKit          3D

 33 35  0  0  0  0  0  0  0  0999 V2000
   -5.3590    1.8890   -2.4400 C   0  0  0  0  0  0  0  0  0  0  0  0
   -4.2920    1.2690   -1.6130 C   0  0  0  0  0  0  0  0  0  0  0  0
   -3.9580   -0.0570   -1.6910 C   0  0  0  0  0  0  0  0  0  0  0  0
   -2.9610   -0.6410   -0.9210 C   0  0  0  0  0  0  0  0  0  0  0  0
   -2.6870   -2.0770   -1.0890 C   0  0  0  0  0  0  0  0  0  0  0  0
   -2.2400    0.1380   -0.0070 C   0  0  0  0  0  0  0  0  0  0  0  0
   -2.5890    1.4640    0.0560 C   0  0  0  0  0  0  0  0  0  0  0  0
   -3.5740    2.0340   -0.7070 C   0  0  0  0  0  0  0  0  0  0  0  0
   -3.9070    3.3540   -0.6310 F   0  0  0  0  0  0  0  0  0  0  0  0
   -1.9790    2.4790    0.9480 C   0  0  0  0  0  0  0  0  0  0  0  0
   -2.0240    1.9890    2.3190 N   0  0  0  0  0  0  0  0  0  0  0  0
   -1.8760    0.6510    2.7460 C   0  0  0  0  0  0  0  0  0  0  0  0
   -2.4450    0.4400    3.8760 O   0  0  0  0  0  0  0  0  0  0  0  0
   -1.2270   -0.5220    2.1900 C   0  0  0  0  0  0  0  0  0  0  0  0
   -1.2230   -0.6730    0.7000 C   0  0  2  0  0  0  0  0  0  0  0  0
    0.1590   -0.3150    0.2510 C   0  0  0  0  0  0  0  0  0  0  0  0
    0.3650    0.7030   -0.4750 O   0  0  0  0  0  0  0  0  0  0  0  0
    1.2550   -1.1780    0.6770 C   0  0  0  0  0  0  0  0  0  0  0  0
    1.0890   -2.3420    1.3950 C   0  0  0  0  0  0  0  0  0  0  0  0
    2.1600   -3.1380    1.7510 C   0  0  0  0  0  0  0  0  0  0  0  0
    1.9440   -4.2680    2.4550 F   0  0  0  0  0  0  0  0  0  0  0  0
    3.4500   -2.8160    1.4100 C   0  0  0  0  0  0  0  0  0  0  0  0
    3.6400   -1.6550    0.6910 C   0  0  0  0  0  0  0  0  0  0  0  0
    2.5770   -0.8600    0.3360 C   0  0  0  0  0  0  0  0  0  0  0  0
    2.7710    0.3050   -0.3860 O   0  0  0  0  0  0  0  0  0  0  0  0
    4.0300    0.7280   -0.7890 C   0  0  0  0  0  0  0  0  0  0  0  0
    4.7090    1.7420   -0.0120 C   0  0  0  0  0  0  0  0  0  0  0  0
    4.1760    2.2740    1.0600 C   0  0  0  0  0  0  0  0  0  0  0  0
    4.8840    3.2250    1.7360 F   0  0  0  0  0  0  0  0  0  0  0  0
    2.6170    1.8600    1.7000 Cl  0  0  0  0  0  0  0  0  0  0  0  0
    4.6050    0.2190   -1.8640 C   0  0  0  0  0  0  0  0  0  0  0  0
    3.9650   -0.8210   -2.7030 C   0  0  0  0  0  0  0  0  0  0  0  0
    5.0240   -2.2590   -2.6980 Cl  0  0  0  0  0  0  0  0  0  0  0  0
  1  2  1  0
  2  3  2  0
  2  8  1  0
  3  4  1  0
  4  5  1  0
  4  6  2  0
  6  7  1  0
  6 15  1  0
  7  8  2  0
  7 10  1  0
  8  9  1  0
 10 11  1  0
 11 12  1  0
 12 13  2  0
 12 14  1  0
 14 15  1  0
 15 16  1  6
 16 17  2  0
 16 18  1  0
 18 19  2  0
 18 24  1  0
 19 20  1  0
 20 21  1  0
 20 22  2  0
 22 23  1  0
 23 24  2  0
 24 25  1  0
 25 26  1  0
 26 27  1  0
 26 31  2  3
 27 28  2  3
 28 29  1  0
 28 30  1  0
 31 32  1  0
 32 33  1  0
M  END
