
     RDKit          3D

 33 35  0  0  0  0  0  0  0  0999 V2000
   -4.6550    3.7730    1.2920 C   0  0  0  0  0  0  0  0  0  0  0  0
   -3.6020    2.7620    1.1170 C   0  0  0  0  0  0  0  0  0  0  0  0
   -3.6200    1.8060    0.2090 C   0  0  0  0  0  0  0  0  0  0  0  0
   -2.5070    0.8690    0.1490 C   0  0  0  0  0  0  0  0  0  0  0  0
   -1.2710    1.3260    0.6480 C   0  0  0  0  0  0  0  0  0  0  0  0
   -0.1810    0.5420    0.6720 C   0  0  0  0  0  0  0  0  0  0  0  0
   -0.1640   -0.7580    0.2180 C   0  0  0  0  0  0  0  0  0  0  0  0
    1.0450   -1.5840    0.2660 C   0  0  0  0  0  0  0  0  0  0  0  0
    0.9420   -2.7250   -0.1030 O   0  0  0  0  0  0  0  0  0  0  0  0
    2.2400   -1.0020    0.7530 C   0  0  0  0  0  0  0  0  0  0  0  0
    2.2760   -0.8350    2.1730 C   0  0  0  0  0  0  0  0  0  0  0  0
    3.3580   -0.2590    2.7560 C   0  0  0  0  0  0  0  0  0  0  0  0
    3.3880   -0.1130    4.0120 O   0  0  0  0  0  0  0  0  0  0  0  0
    4.3790    0.1530    2.0580 O   0  0  0  0  0  0  0  0  0  0  0  0
    4.4080    0.0260    0.7300 C   0  0  0  0  0  0  0  0  0  0  0  0
    5.5070    0.4890    0.0840 C   0  0  0  0  0  0  0  0  0  0  0  0
    6.6180    1.1010    0.8960 C   0  0  0  0  0  0  0  0  0  0  0  0
    5.5650    0.3830   -1.2620 C   0  0  0  0  0  0  0  0  0  0  0  0
    4.5210   -0.1860   -1.9380 C   0  0  0  0  0  0  0  0  0  0  0  0
    3.3480   -0.6910   -1.3290 C   0  0  0  0  0  0  0  0  0  0  0  0
    2.3370   -1.3670   -2.1080 C   0  0  2  0  0  0  0  0  0  0  0  0
    2.7830   -1.0340   -3.4800 F   0  0  0  0  0  0  0  0  0  0  0  0
    1.1120   -0.8970   -2.3160 F   0  0  0  0  0  0  0  0  0  0  0  0
    2.6440   -3.1150   -2.3770 Cl  0  0  0  0  0  0  0  0  0  0  0  0
    3.3110   -0.5680    0.0520 C   0  0  0  0  0  0  0  0  0  0  0  0
   -1.3580   -1.2250   -0.2730 C   0  0  0  0  0  0  0  0  0  0  0  0
   -2.5260   -0.4290   -0.3090 C   0  0  0  0  0  0  0  0  0  0  0  0
   -3.7320   -1.0300   -0.7230 N   0  0  0  0  0  0  0  0  0  0  0  0
   -3.7480   -2.3560   -1.2880 C   0  0  0  0  0  0  0  0  0  0  0  0
   -3.5390   -3.4150   -0.2330 C   0  0  0  0  0  0  0  0  0  0  0  0
   -4.7080    1.8230   -0.7720 C   0  0  1  0  0  0  0  0  0  0  0  0
   -5.2350    3.1550   -0.8720 F   0  0  0  0  0  0  0  0  0  0  0  0
   -4.1080    1.4830   -2.4380 Cl  0  0  0  0  0  0  0  0  0  0  0  0
  1  2  1  0
  2  3  2  3
  3  4  1  0
  3 31  1  0
  4  5  2  0
  4 27  1  0
  5  6  1  0
  6  7  2  0
  7  8  1  0
  7 26  1  0
  8  9  2  0
  8 10  1  0
 10 11  2  0
 10 25  1  0
 11 12  1  0
 12 13  2  0
 12 14  1  0
 14 15  1  0
 15 16  2  0
 15 25  1  0
 16 17  1  0
 16 18  1  0
 18 19  2  0
 19 20  1  0
 20 21  1  0
 20 25  2  0
 21 22  1  6
 21 23  1  0
 21 24  1  0
 26 27  2  0
 27 28  1  0
 28 29  1  0
 29 30  1  0
 31 32  1  6
 31 33  1  0
M  END
