
     RDKit          3D

 33 35  0  0  0  0  0  0  0  0999 V2000
    6.0340   -0.0690   -0.5610 C   0  0  0  0  0  0  0  0  0  0  0  0
    5.2330   -0.4470    0.5430 O   0  0  0  0  0  0  0  0  0  0  0  0
    3.9990   -1.0250    0.4370 C   0  0  0  0  0  0  0  0  0  0  0  0
    3.8690   -2.3850    0.3790 C   0  0  0  0  0  0  0  0  0  0  0  0
    5.0560   -3.3020    0.4280 C   0  0  0  0  0  0  0  0  0  0  0  0
    2.6020   -2.8930    0.2740 C   0  0  0  0  0  0  0  0  0  0  0  0
    2.4790   -4.2550    0.2140 F   0  0  0  0  0  0  0  0  0  0  0  0
    1.4740   -2.1210    0.2250 C   0  0  0  0  0  0  0  0  0  0  0  0
    1.6290   -0.7240    0.2880 C   0  0  0  0  0  0  0  0  0  0  0  0
    0.4580    0.0500    0.3910 N   0  0  0  0  0  0  0  0  0  0  0  0
   -0.8710   -0.4340   -0.0070 C   0  0  2  0  0  0  0  0  0  0  0  0
   -0.8540   -0.7310   -1.5060 C   0  0  0  0  0  0  0  0  0  0  0  0
   -1.9020    0.5970    0.2970 C   0  0  0  0  0  0  0  0  0  0  0  0
   -1.4600    1.6820    0.6770 O   0  0  0  0  0  0  0  0  0  0  0  0
   -3.2940    0.3300    0.1540 C   0  0  0  0  0  0  0  0  0  0  0  0
   -3.6210   -0.9030   -0.2600 C   0  0  0  0  0  0  0  0  0  0  0  0
   -4.8670   -1.6200   -0.5470 C   0  0  0  0  0  0  0  0  0  0  0  0
   -4.7540   -3.3690   -0.2920 Cl  0  0  0  0  0  0  0  0  0  0  0  0
   -6.0770   -1.2900   -0.9610 C   0  0  0  0  0  0  0  0  0  0  0  0
   -6.6690    0.0170   -1.3140 C   0  0  0  0  0  0  0  0  0  0  0  0
   -6.3700    1.2520   -0.8720 C   0  0  0  0  0  0  0  0  0  0  0  0
   -5.4080    1.7890    0.0740 C   0  0  0  0  0  0  0  0  0  0  0  0
   -4.1800    1.4540    0.5100 C   0  0  0  0  0  0  0  0  0  0  0  0
   -3.6450    2.3620    1.5280 C   0  0  1  0  0  0  0  0  0  0  0  0
   -4.8300    2.8650    2.1630 F   0  0  0  0  0  0  0  0  0  0  0  0
   -2.9660    1.7970    2.5630 F   0  0  0  0  0  0  0  0  0  0  0  0
   -2.9160    3.8490    0.8730 Cl  0  0  0  0  0  0  0  0  0  0  0  0
    2.8840   -0.1570    0.3900 C   0  0  0  0  0  0  0  0  0  0  0  0
    3.1360    1.2670    0.4470 C   0  0  0  0  0  0  0  0  0  0  0  0
    2.3810    2.3130    0.0480 C   0  0  0  0  0  0  0  0  0  0  0  0
    3.0810    3.5110    0.3120 C   0  0  0  0  0  0  0  0  0  0  0  0
    4.2600    3.0800    0.8730 C   0  0  0  0  0  0  0  0  0  0  0  0
    4.2520    1.7900    0.9320 O   0  0  0  0  0  0  0  0  0  0  0  0
  1  2  1  0
  2  3  1  0
  3  4  2  0
  3 28  1  0
  4  5  1  0
  4  6  1  0
  6  7  1  0
  6  8  2  0
  8  9  1  0
  9 10  1  0
  9 28  2  0
 10 11  1  0
 11 12  1  6
 11 13  1  0
 13 14  2  0
 13 15  1  0
 15 16  2  0
 15 23  1  0
 16 17  1  0
 17 18  1  0
 17 19  2  0
 19 20  1  0
 20 21  2  0
 21 22  1  0
 22 23  2  0
 23 24  1  0
 24 25  1  1
 24 26  1  0
 24 27  1  0
 28 29  1  0
 29 30  2  0
 29 33  1  0
 30 31  1  0
 31 32  2  0
 32 33  1  0
M  END
