
     RDKit          3D

 32 34  0  0  0  0  0  0  0  0999 V2000
    2.0690   -0.1880    1.7220 O   0  0  0  0  0  0  0  0  0  0  0  0
    2.4850   -0.2390    0.5590 C   0  0  0  0  0  0  0  0  0  0  0  0
    1.5500   -0.3460   -0.5940 C   0  0  0  0  0  0  0  0  0  0  0  0
    0.1820   -0.1110   -0.3070 N   0  0  0  0  0  0  0  0  0  0  0  0
   -0.3220    1.1470   -0.4810 C   0  0  0  0  0  0  0  0  0  0  0  0
    0.6990    2.4490   -1.0220 Cl  0  0  0  0  0  0  0  0  0  0  0  0
   -1.6460    1.4220   -0.2210 C   0  0  0  0  0  0  0  0  0  0  0  0
   -2.4780    0.4820    0.2050 N   0  0  0  0  0  0  0  0  0  0  0  0
   -2.0490   -0.7870    0.4010 C   0  0  0  0  0  0  0  0  0  0  0  0
   -2.8210   -1.8340    0.8860 N   0  0  0  0  0  0  0  0  0  0  0  0
   -4.1730   -1.9360    1.2380 C   0  0  0  0  0  0  0  0  0  0  0  0
   -5.1580   -1.8720    0.1580 C   0  0  1  0  0  0  0  0  0  0  0  0
   -4.9130   -2.7480   -0.8470 F   0  0  0  0  0  0  0  0  0  0  0  0
   -6.3330   -2.6650    0.7790 F   0  0  0  0  0  0  0  0  0  0  0  0
   -5.8480   -0.6290   -0.1650 C   0  0  0  0  0  0  0  0  0  0  0  0
   -6.9050   -0.2360    0.6800 C   0  0  0  0  0  0  0  0  0  0  0  0
   -7.6400    0.8960    0.4260 C   0  0  0  0  0  0  0  0  0  0  0  0
   -7.3400    1.6710   -0.6840 C   0  0  0  0  0  0  0  0  0  0  0  0
   -6.3040    1.2750   -1.5000 C   0  0  0  0  0  0  0  0  0  0  0  0
   -5.5840    0.1500   -1.2350 N   0  0  0  0  0  0  0  0  0  0  0  0
   -4.5530   -0.2450   -2.0420 O   0  0  0  0  0  0  0  0  0  0  0  0
   -0.6830   -1.0120    0.1180 C   0  0  0  0  0  0  0  0  0  0  0  0
   -0.1950   -2.1920    0.2770 O   0  0  0  0  0  0  0  0  0  0  0  0
    3.8830   -0.2040    0.2360 N   0  0  0  0  0  0  0  0  0  0  0  0
    4.8800   -0.1250    1.2660 C   0  0  0  0  0  0  0  0  0  0  0  0
    6.2170    0.2890    0.7750 C   0  0  0  0  0  0  0  0  0  0  0  0
    6.4420    0.7230   -0.5260 C   0  0  0  0  0  0  0  0  0  0  0  0
    7.6950    1.1800   -0.8770 C   0  0  0  0  0  0  0  0  0  0  0  0
    8.7380    1.2260    0.0170 C   0  0  0  0  0  0  0  0  0  0  0  0
    8.4970    0.7860    1.3310 C   0  0  0  0  0  0  0  0  0  0  0  0
    7.2430    0.3200    1.7020 C   0  0  0  0  0  0  0  0  0  0  0  0
    7.0810   -0.1070    3.0010 F   0  0  0  0  0  0  0  0  0  0  0  0
  1  2  2  0
  2  3  1  0
  2 24  1  0
  3  4  1  0
  4  5  1  0
  4 22  1  0
  5  6  1  0
  5  7  2  0
  7  8  1  0
  8  9  2  0
  9 10  1  0
  9 22  1  0
 10 11  1  0
 11 12  1  0
 12 13  1  6
 12 14  1  0
 12 15  1  0
 15 16  2  0
 15 20  1  0
 16 17  1  0
 17 18  2  0
 18 19  1  0
 19 20  2  0
 20 21  1  0
 22 23  2  0
 24 25  1  0
 25 26  1  0
 26 27  2  0
 26 31  1  0
 27 28  1  0
 28 29  2  0
 29 30  1  0
 30 31  2  0
 31 32  1  0
M  CHG  2  20   1  21  -1
M  END
