
     RDKit          3D

 16 17  0  0  0  0  0  0  0  0999 V2000
   -3.2690    2.4520    0.4510 C   0  0  0  0  0  0  0  0  0  0  0  0
   -2.0890    1.7900    0.0340 O   0  0  0  0  0  0  0  0  0  0  0  0
   -1.9030    0.4420    0.2820 C   0  0  0  0  0  0  0  0  0  0  0  0
   -2.8420   -0.3210    0.9390 C   0  0  0  0  0  0  0  0  0  0  0  0
   -2.6210   -1.6630    1.1680 C   0  0  0  0  0  0  0  0  0  0  0  0
   -1.4600   -2.2710    0.7470 C   0  0  0  0  0  0  0  0  0  0  0  0
   -0.5400   -1.4840    0.0940 C   0  0  0  0  0  0  0  0  0  0  0  0
   -0.7120   -0.1400   -0.1610 C   0  0  0  0  0  0  0  0  0  0  0  0
    0.2710    0.6320   -0.8410 N   0  0  0  0  0  0  0  0  0  0  0  0
    1.4490   -0.0400   -1.2540 C   0  0  0  0  0  0  0  0  0  0  0  0
    1.4840   -0.7820   -2.4760 N   0  0  0  0  0  0  0  0  0  0  0  0
    2.5340    0.0110   -0.5130 C   0  0  0  0  0  0  0  0  0  0  0  0
    2.6690    0.7260    0.7670 C   0  0  0  0  0  0  0  0  0  0  0  0
    3.9190    0.5010    1.1460 C   0  0  0  0  0  0  0  0  0  0  0  0
    4.5850   -0.3070    0.1940 N   0  0  0  0  0  0  0  0  0  0  0  0
    3.8120   -0.6090   -0.7780 C   0  0  0  0  0  0  0  0  0  0  0  0
  1  2  1  0
  2  3  1  0
  3  4  2  0
  3  8  1  0
  4  5  1  0
  5  6  2  0
  6  7  1  0
  7  8  2  0
  8  9  1  0
  9 10  1  0
 10 11  1  0
 10 12  2  3
 12 13  1  0
 12 16  1  0
 13 14  2  0
 14 15  1  0
 15 16  2  0
M  END
