
     RDKit          3D

 16 17  0  0  0  0  0  0  0  0999 V2000
    3.4490    0.0920    2.1680 C   0  0  0  0  0  0  0  0  0  0  0  0
    2.7990    0.0330    0.8140 C   0  0  0  0  0  0  0  0  0  0  0  0
    3.5370   -0.0210   -0.3490 C   0  0  0  0  0  0  0  0  0  0  0  0
    2.8690   -0.0710   -1.5350 C   0  0  0  0  0  0  0  0  0  0  0  0
    1.4910   -0.0690   -1.5700 C   0  0  0  0  0  0  0  0  0  0  0  0
    0.7800   -0.1210   -2.7890 N   0  0  0  0  0  0  0  0  0  0  0  0
    0.7990   -0.0140   -0.3870 C   0  0  0  0  0  0  0  0  0  0  0  0
   -0.6270   -0.0120   -0.4430 N   0  0  0  0  0  0  0  0  0  0  0  0
   -1.4230    0.0430    0.7430 C   0  0  0  0  0  0  0  0  0  0  0  0
   -0.8640    0.0910    1.8560 O   0  0  0  0  0  0  0  0  0  0  0  0
   -2.8740    0.0430    0.6410 C   0  0  0  0  0  0  0  0  0  0  0  0
   -3.6490   -0.0020   -0.4390 C   0  0  0  0  0  0  0  0  0  0  0  0
   -5.0500    0.0200   -0.0370 C   0  0  0  0  0  0  0  0  0  0  0  0
   -5.0200    0.0780    1.2620 C   0  0  0  0  0  0  0  0  0  0  0  0
   -3.7940    0.0960    1.7670 C   0  0  0  0  0  0  0  0  0  0  0  0
    1.4680    0.0360    0.7690 N   0  0  0  0  0  0  0  0  0  0  0  0
  1  2  1  0
  2  3  2  0
  2 16  1  0
  3  4  1  0
  4  5  2  0
  5  6  1  0
  5  7  1  0
  7  8  1  0
  7 16  2  0
  8  9  1  0
  9 10  2  0
  9 11  1  0
 11 12  2  0
 11 15  1  0
 12 13  1  0
 13 14  2  0
 14 15  2  0
M  END
