
     RDKit          3D

 16 16  0  0  0  0  0  0  0  0999 V2000
    3.4970    1.6160    0.0060 C   0  0  0  0  0  0  0  0  0  0  0  0
    4.0670    0.4490   -0.0950 C   0  0  0  0  0  0  0  0  0  0  0  0
    3.3420   -0.7220   -0.5650 C   0  0  0  0  0  0  0  0  0  0  0  0
    4.0520   -1.8260   -0.6530 N   0  0  0  0  0  0  0  0  0  0  0  0
    1.8930   -0.7390   -0.8850 C   0  0  0  0  0  0  0  0  0  0  0  0
    1.0980   -0.6190    0.3430 C   0  0  0  0  0  0  0  0  0  0  0  0
   -0.3170   -0.6020    0.2060 N   0  0  0  0  0  0  0  0  0  0  0  0
   -0.9640   -1.7740   -0.2170 C   0  0  0  0  0  0  0  0  0  0  0  0
   -2.3520   -1.9710    0.3620 C   0  0  0  0  0  0  0  0  0  0  0  0
   -3.3910   -1.0860   -0.2540 C   0  0  0  0  0  0  0  0  0  0  0  0
   -3.1730    0.2930    0.3190 C   0  0  0  0  0  0  0  0  0  0  0  0
   -2.0800    1.0290    0.2660 C   0  0  0  0  0  0  0  0  0  0  0  0
   -2.0960    2.3500    0.8970 C   0  0  0  0  0  0  0  0  0  0  0  0
   -0.9430    3.1810    0.8670 N   0  0  0  0  0  0  0  0  0  0  0  0
   -3.1650    2.7030    1.4570 O   0  0  0  0  0  0  0  0  0  0  0  0
   -0.7980    0.6160   -0.4000 C   0  0  0  0  0  0  0  0  0  0  0  0
  1  2  2  0
  2  3  1  0
  3  4  2  0
  3  5  1  0
  5  6  1  0
  6  7  1  0
  7  8  1  0
  7 16  1  0
  8  9  1  0
  9 10  1  0
 10 11  1  0
 11 12  2  0
 12 13  1  0
 12 16  1  0
 13 14  1  0
 13 15  2  0
M  END
