
     RDKit          3D

 16 17  0  0  0  0  0  0  0  0999 V2000
    4.0810    1.9690    0.4060 C   0  0  0  0  0  0  0  0  0  0  0  0
    3.0960    0.8600    0.2020 C   0  0  0  0  0  0  0  0  0  0  0  0
    1.7290    0.9310    0.2170 C   0  0  0  0  0  0  0  0  0  0  0  0
    1.2970   -0.3290    0.0330 C   0  0  0  0  0  0  0  0  0  0  0  0
   -0.0560   -0.7990   -0.3240 C   0  0  0  0  0  0  0  0  0  0  0  0
   -1.0130   -0.4580    0.7040 N   0  0  0  0  0  0  0  0  0  0  0  0
   -2.2440    0.0240    0.3170 C   0  0  0  0  0  0  0  0  0  0  0  0
   -2.4110    1.2930   -0.2020 C   0  0  0  0  0  0  0  0  0  0  0  0
   -3.6570    1.7380   -0.5210 C   0  0  0  0  0  0  0  0  0  0  0  0
   -4.7130    0.8910   -0.3000 C   0  0  0  0  0  0  0  0  0  0  0  0
   -4.6350   -0.3640    0.2170 N   0  0  0  0  0  0  0  0  0  0  0  0
   -3.3810   -0.7590    0.5090 C   0  0  0  0  0  0  0  0  0  0  0  0
   -3.1830   -1.8980    0.9810 O   0  0  0  0  0  0  0  0  0  0  0  0
    2.3790   -1.1810   -0.1070 C   0  0  0  0  0  0  0  0  0  0  0  0
    2.2140   -2.6880   -0.1610 C   0  0  0  0  0  0  0  0  0  0  0  0
    3.4670   -0.4270   -0.0030 N   0  0  0  0  0  0  0  0  0  0  0  0
  1  2  1  0
  2  3  2  0
  2 16  1  0
  3  4  1  0
  4  5  1  0
  4 14  2  0
  5  6  1  0
  6  7  1  0
  7  8  2  0
  7 12  1  0
  8  9  1  0
  9 10  2  0
 10 11  1  0
 11 12  1  0
 12 13  2  0
 14 15  1  0
 14 16  1  0
M  END
