
     RDKit          3D

 35 38  0  0  0  0  0  0  0  0999 V2000
   -2.5500   -2.1720    0.6320 C   0  0  0  0  0  0  0  0  0  0  0  0
   -2.6800   -0.7040    0.9650 C   0  0  0  0  0  0  0  0  0  0  0  0
   -3.0900    0.0270   -0.3020 C   0  0  1  0  0  0  0  0  0  0  0  0
   -2.1380   -0.1100   -1.4140 C   0  0  0  0  0  0  0  0  0  0  0  0
   -2.4850    0.3580   -2.6620 C   0  0  0  0  0  0  0  0  0  0  0  0
   -1.7010    0.2450   -3.7950 C   0  0  0  0  0  0  0  0  0  0  0  0
   -0.4590   -0.3980   -3.6410 C   0  0  0  0  0  0  0  0  0  0  0  0
   -0.0420   -0.8970   -2.3740 C   0  0  0  0  0  0  0  0  0  0  0  0
    1.1950   -1.5150   -2.3460 O   0  0  0  0  0  0  0  0  0  0  0  0
    1.9100   -1.7960   -1.2160 C   0  0  0  0  0  0  0  0  0  0  0  0
    3.0850   -1.0510   -0.8790 C   0  0  0  0  0  0  0  0  0  0  0  0
    3.8270   -1.2930    0.2250 C   0  0  0  0  0  0  0  0  0  0  0  0
    5.0340   -0.5230    0.6060 C   0  0  1  0  0  0  0  0  0  0  0  0
    6.0940   -1.5100    1.1360 C   0  0  0  0  0  0  0  0  0  0  0  0
    5.6900    0.0890   -0.5260 N   0  0  0  0  0  0  0  0  0  0  0  0
    4.7440    0.4060    1.7140 C   0  0  0  0  0  0  0  0  0  0  0  0
    4.6250    0.0730    3.1250 C   0  0  0  0  0  0  0  0  0  0  0  0
    4.3610    1.1760    3.7630 N   0  0  0  0  0  0  0  0  0  0  0  0
    4.3010    2.1920    2.9290 C   0  0  0  0  0  0  0  0  0  0  0  0
    4.5320    1.7350    1.6730 N   0  0  0  0  0  0  0  0  0  0  0  0
    4.5190    2.6170    0.5480 C   0  0  0  0  0  0  0  0  0  0  0  0
    3.4120   -2.3240    1.0710 C   0  0  0  0  0  0  0  0  0  0  0  0
    2.2770   -3.0480    0.7530 C   0  0  0  0  0  0  0  0  0  0  0  0
    1.5140   -2.8240   -0.3570 C   0  0  0  0  0  0  0  0  0  0  0  0
    0.3730   -3.6080   -0.6940 C   0  0  0  0  0  0  0  0  0  0  0  0
   -0.5900   -4.2670   -0.9750 N   0  0  0  0  0  0  0  0  0  0  0  0
   -0.9190   -0.7030   -1.3860 C   0  0  0  0  0  0  0  0  0  0  0  0
   -4.4280   -0.6370   -0.7060 C   0  0  0  0  0  0  0  0  0  0  0  0
   -5.5330    0.0960   -0.0170 C   0  0  0  0  0  0  0  0  0  0  0  0
   -6.2330    1.0500   -0.9770 C   0  0  0  0  0  0  0  0  0  0  0  0
   -5.4860    2.3510   -1.0920 C   0  0  0  0  0  0  0  0  0  0  0  0
   -4.4100    2.3720   -0.1140 N   0  0  0  0  0  0  0  0  0  0  0  0
   -4.4050    3.5090    0.8020 C   0  0  0  0  0  0  0  0  0  0  0  0
   -3.3990    1.4140    0.0240 C   0  0  0  0  0  0  0  0  0  0  0  0
   -2.3830    1.9900    0.6770 O   0  0  0  0  0  0  0  0  0  0  0  0
  1  2  1  0
  3  2  1  1
  3  4  1  0
  3 28  1  0
  3 34  1  0
  4  5  2  0
  4 27  1  0
  5  6  1  0
  6  7  2  0
  7  8  1  0
  8  9  1  0
  8 27  2  0
  9 10  1  0
 10 11  2  0
 10 24  1  0
 11 12  1  0
 12 13  1  0
 12 22  2  0
 13 14  1  1
 13 15  1  0
 13 16  1  0
 16 17  2  0
 16 20  1  0
 17 18  1  0
 18 19  2  0
 19 20  1  0
 20 21  1  0
 22 23  1  0
 23 24  2  0
 24 25  1  0
 25 26  3  0
 28 29  1  0
 29 30  1  0
 30 31  1  0
 31 32  1  0
 32 33  1  0
 32 34  1  0
 34 35  2  0
M  CHG  1  15   1
M  END
