
     RDKit          3D

 35 38  0  0  0  0  0  0  0  0999 V2000
    5.3270   -4.1290    0.6730 C   0  0  0  0  0  0  0  0  0  0  0  0
    4.1420   -3.2160    0.6020 C   0  0  0  0  0  0  0  0  0  0  0  0
    4.5280   -1.7460    0.7750 C   0  0  0  0  0  0  0  0  0  0  0  0
    5.5220   -1.3160    1.5700 C   0  0  0  0  0  0  0  0  0  0  0  0
    5.9020    0.0050    1.5220 C   0  0  0  0  0  0  0  0  0  0  0  0
    4.7960    0.6850    0.2830 S   0  0  0  0  0  0  0  0  0  0  0  0
    3.9300   -0.7970   -0.0650 C   0  0  0  0  0  0  0  0  0  0  0  0
    2.7500   -0.9560   -0.9220 C   0  0  2  0  0  0  0  0  0  0  0  0
    3.2820   -0.4760   -2.2990 C   0  0  0  0  0  0  0  0  0  0  0  0
    2.1440   -0.4900   -3.2520 C   0  0  0  0  0  0  0  0  0  0  0  0
    2.1980   -1.2010   -4.2660 O   0  0  0  0  0  0  0  0  0  0  0  0
    1.0540    0.3360   -2.8960 N   0  0  0  0  0  0  0  0  0  0  0  0
    0.8470    0.5390   -1.4740 C   0  0  0  0  0  0  0  0  0  0  0  0
   -0.4080    1.2800   -1.1570 C   0  0  0  0  0  0  0  0  0  0  0  0
   -0.9890    1.9070   -2.0270 O   0  0  0  0  0  0  0  0  0  0  0  0
   -0.9960    1.2580    0.1030 O   0  0  0  0  0  0  0  0  0  0  0  0
   -2.1700    1.9660    0.4380 C   0  0  2  0  0  0  0  0  0  0  0  0
   -2.3320    2.0770    1.9090 C   0  0  0  0  0  0  0  0  0  0  0  0
   -1.9320    0.7300    2.5120 C   0  0  0  0  0  0  0  0  0  0  0  0
   -2.6380   -0.3640    1.8340 N   0  0  0  0  0  0  0  0  0  0  0  0
   -2.4230   -1.7580    2.0820 C   0  0  0  0  0  0  0  0  0  0  0  0
   -3.5910   -0.0290    0.8370 C   0  0  0  0  0  0  0  0  0  0  0  0
   -4.6700   -0.8470    0.6210 C   0  0  0  0  0  0  0  0  0  0  0  0
   -4.8930   -1.9950    1.5010 C   0  0  0  0  0  0  0  0  0  0  0  0
   -5.5210   -0.4760   -0.4410 C   0  0  0  0  0  0  0  0  0  0  0  0
   -5.3240    0.6200   -1.2230 C   0  0  0  0  0  0  0  0  0  0  0  0
   -6.2350    0.9450   -2.3230 C   0  0  0  0  0  0  0  0  0  0  0  0
   -4.2300    1.4270   -0.9770 C   0  0  0  0  0  0  0  0  0  0  0  0
   -3.3870    1.1000    0.0380 C   0  0  0  0  0  0  0  0  0  0  0  0
    1.6160   -0.0070   -0.5710 C   0  0  0  0  0  0  0  0  0  0  0  0
    1.8020    0.7380    0.7220 C   0  0  0  0  0  0  0  0  0  0  0  0
    2.4030    0.2170    1.6640 O   0  0  0  0  0  0  0  0  0  0  0  0
    1.3110    2.0570    0.8320 N   0  0  0  0  0  0  0  0  0  0  0  0
    1.4650    2.8380    2.0290 N   0  0  0  0  0  0  0  0  0  0  0  0
    2.3900    3.9160    1.6520 C   0  0  0  0  0  0  0  0  0  0  0  0
  1  2  1  0
  2  3  1  0
  3  4  1  0
  3  7  2  0
  4  5  2  0
  5  6  1  0
  6  7  1  0
  8  7  1  1
  8  9  1  0
  8 30  1  0
  9 10  1  0
 10 11  2  0
 10 12  1  0
 12 13  1  0
 13 14  1  0
 13 30  2  0
 14 15  2  0
 14 16  1  0
 17 16  1  1
 17 18  1  0
 17 29  1  0
 18 19  1  0
 19 20  1  0
 20 21  1  0
 20 22  1  0
 22 23  2  0
 22 29  1  0
 23 24  1  0
 23 25  1  0
 25 26  2  0
 26 27  1  0
 26 28  1  0
 28 29  2  0
 30 31  1  0
 31 32  2  0
 31 33  1  0
 33 34  1  0
 34 35  1  0
M  END
