
     RDKit          3D

 35 37  0  0  0  0  0  0  0  0999 V2000
   -3.2740    0.9300    2.5410 C   0  0  0  0  0  0  0  0  0  0  0  0
   -4.3170    0.5190    1.8850 C   0  0  0  0  0  0  0  0  0  0  0  0
   -4.3110   -0.4680    0.8220 C   0  0  0  0  0  0  0  0  0  0  0  0
   -5.5510   -0.7990    0.3370 C   0  0  0  0  0  0  0  0  0  0  0  0
   -5.7190   -1.7870   -0.7440 C   0  0  0  0  0  0  0  0  0  0  0  0
   -3.1450   -1.1960    0.3910 C   0  0  0  0  0  0  0  0  0  0  0  0
   -2.2290   -0.5290   -0.6630 C   0  0  2  0  0  0  0  0  0  0  0  0
   -1.1130   -1.5330   -0.7760 C   0  0  0  0  0  0  0  0  0  0  0  0
   -1.2530   -2.8570   -1.3460 C   0  0  0  0  0  0  0  0  0  0  0  0
   -0.2240   -3.6090   -1.3810 O   0  0  0  0  0  0  0  0  0  0  0  0
   -2.4480   -3.3490   -1.8670 N   0  0  0  0  0  0  0  0  0  0  0  0
   -2.4620   -4.7110   -2.3700 C   0  0  0  0  0  0  0  0  0  0  0  0
   -3.7200   -5.2390   -2.9170 C   0  0  0  0  0  0  0  0  0  0  0  0
   -1.4240   -5.3920   -2.3260 O   0  0  0  0  0  0  0  0  0  0  0  0
    0.0970   -1.1430   -0.3580 C   0  0  0  0  0  0  0  0  0  0  0  0
    0.4030    0.1630    0.1430 C   0  0  0  0  0  0  0  0  0  0  0  0
    1.7310    0.5190    0.6450 N   0  0  0  0  0  0  0  0  0  0  0  0
    1.9280    0.2000    2.0220 C   0  0  0  0  0  0  0  0  0  0  0  0
    2.5670    1.1580   -0.2970 C   0  0  0  0  0  0  0  0  0  0  0  0
    3.9980    1.2840   -0.0790 C   0  0  0  0  0  0  0  0  0  0  0  0
    4.6670    1.9520   -0.9650 O   0  0  0  0  0  0  0  0  0  0  0  0
    4.7630    0.7720    0.9630 N   0  0  0  0  0  0  0  0  0  0  0  0
    6.1960    1.0060    1.0100 C   0  0  2  0  0  0  0  0  0  0  0  0
    6.9530   -0.2800    0.7520 C   0  0  0  0  0  0  0  0  0  0  0  0
    8.3920   -0.0210    1.0450 C   0  0  0  0  0  0  0  0  0  0  0  0
    8.2420    0.9280    2.6130 S   0  0  0  0  0  0  0  0  0  0  0  0
    6.5120    1.4830    2.3960 C   0  0  0  0  0  0  0  0  0  0  0  0
   -0.5340    1.0690    0.1800 C   0  0  0  0  0  0  0  0  0  0  0  0
   -0.1010    2.3120    0.6980 N   0  0  0  0  0  0  0  0  0  0  0  0
   -0.5160    3.6290    0.2730 C   0  0  0  0  0  0  0  0  0  0  0  0
   -0.3970    4.5910    1.0590 O   0  0  0  0  0  0  0  0  0  0  0  0
   -1.0950    3.9770   -1.0620 C   0  0  0  0  0  0  0  0  0  0  0  0
   -2.2660    3.1200   -1.3730 C   0  0  0  0  0  0  0  0  0  0  0  0
   -1.9040    1.6960   -1.7460 C   0  0  0  0  0  0  0  0  0  0  0  0
   -1.8840    0.8470   -0.4240 C   0  0  1  0  0  0  0  0  0  0  0  0
  1  2  2  0
  2  3  1  0
  3  4  2  3
  3  6  1  0
  4  5  1  0
  7  6  1  1
  7  8  1  0
  7 35  1  0
  8  9  1  0
  8 15  2  0
  9 10  2  0
  9 11  1  0
 11 12  1  0
 12 13  1  0
 12 14  2  0
 15 16  1  0
 16 17  1  0
 16 28  2  0
 17 18  1  0
 17 19  1  0
 19 20  1  0
 20 21  2  0
 20 22  1  0
 23 22  1  1
 23 24  1  0
 23 27  1  0
 24 25  1  0
 25 26  1  0
 26 27  1  0
 28 29  1  0
 28 35  1  0
 29 30  1  0
 30 31  2  0
 30 32  1  0
 32 33  1  0
 33 34  1  0
 35 34  1  6
M  END
