
     RDKit          3D

 35 38  0  0  0  0  0  0  0  0999 V2000
   -2.5510   -3.8490    1.8680 C   0  0  0  0  0  0  0  0  0  0  0  0
   -1.1930   -2.7970    2.1740 S   0  0  0  0  0  0  0  0  0  0  0  0
   -1.3190   -1.0600    2.1660 C   0  0  0  0  0  0  0  0  0  0  0  0
   -1.5310   -0.2750    0.9460 C   0  0  1  0  0  0  0  0  0  0  0  0
   -0.4130   -0.5310   -0.0250 C   0  0  0  0  0  0  0  0  0  0  0  0
    0.8930   -0.1810    0.4600 N   0  0  0  0  0  0  0  0  0  0  0  0
    2.0180   -0.3820   -0.3700 C   0  0  0  0  0  0  0  0  0  0  0  0
    1.9490   -0.8580   -1.5320 O   0  0  0  0  0  0  0  0  0  0  0  0
    3.3630   -0.0170    0.1410 C   0  0  0  0  0  0  0  0  0  0  0  0
    3.4640    0.4570    1.2890 O   0  0  0  0  0  0  0  0  0  0  0  0
    4.5190   -0.1920   -0.6370 N   0  0  0  0  0  0  0  0  0  0  0  0
    5.8580    0.1110   -0.2890 C   0  0  0  0  0  0  0  0  0  0  0  0
    6.1600    0.8110    0.8390 C   0  0  0  0  0  0  0  0  0  0  0  0
    7.4910    1.0730    1.1430 C   0  0  0  0  0  0  0  0  0  0  0  0
    8.5180    0.6430    0.3310 C   0  0  0  0  0  0  0  0  0  0  0  0
    8.2130   -0.0560   -0.7990 C   0  0  0  0  0  0  0  0  0  0  0  0
    6.9050   -0.3160   -1.1010 C   0  0  0  0  0  0  0  0  0  0  0  0
    9.4720   -0.3830   -1.4600 C   0  0  0  0  0  0  0  0  0  0  0  0
    9.5740   -1.2610   -2.3620 O   0  0  0  0  0  0  0  0  0  0  0  0
   10.5270    0.4900   -0.8750 C   0  0  0  0  0  0  0  0  0  0  0  0
    9.9860    0.8220    0.4860 C   0  0  0  0  0  0  0  0  0  0  0  0
   -2.7790   -0.0520    0.3480 N   0  0  0  0  0  0  0  0  0  0  0  0
   -3.3270   -1.1620   -0.3860 C   0  0  0  0  0  0  0  0  0  0  0  0
   -4.7560   -1.4360   -0.1450 C   0  0  0  0  0  0  0  0  0  0  0  0
   -5.2820   -2.6540   -0.0190 C   0  0  0  0  0  0  0  0  0  0  0  0
   -6.7380   -2.5970    0.2150 C   0  0  0  0  0  0  0  0  0  0  0  0
   -7.0040   -1.1510    0.2020 C   0  0  0  0  0  0  0  0  0  0  0  0
   -5.8470   -0.4900   -0.0070 C   0  0  0  0  0  0  0  0  0  0  0  0
   -5.7750    0.9200   -0.0810 N   0  0  0  0  0  0  0  0  0  0  0  0
   -4.7010    1.8210    0.1030 C   0  0  2  0  0  0  0  0  0  0  0  0
   -4.5680    2.8530   -1.0230 C   0  0  1  0  0  0  0  0  0  0  0  0
   -4.3400    2.2160   -2.3600 C   0  0  0  0  0  0  0  0  0  0  0  0
   -5.8260    3.6830   -1.0950 C   0  0  0  0  0  0  0  0  0  0  0  0
   -3.4090    1.2290    0.4190 C   0  0  0  0  0  0  0  0  0  0  0  0
   -2.6160    2.1040    0.8920 O   0  0  0  0  0  0  0  0  0  0  0  0
  1  2  1  0
  2  3  1  0
  4  3  1  1
  4  5  1  0
  4 22  1  0
  5  6  1  0
  6  7  1  0
  7  8  2  0
  7  9  1  0
  9 10  2  0
  9 11  1  0
 11 12  1  0
 12 13  2  0
 12 17  1  0
 13 14  1  0
 14 15  2  0
 15 16  1  0
 15 21  1  0
 16 17  2  0
 16 18  1  0
 18 19  2  0
 18 20  1  0
 20 21  1  0
 22 23  1  0
 22 34  1  0
 23 24  1  0
 24 25  2  0
 24 28  1  0
 25 26  1  0
 26 27  1  0
 27 28  2  0
 28 29  1  0
 30 29  1  6
 30 31  1  0
 30 34  1  0
 31 32  1  6
 31 33  1  0
 34 35  2  0
M  END
