
     RDKit          3D

 34 38  0  0  0  0  0  0  0  0999 V2000
   -1.5720   -5.2310   -0.2410 C   0  0  0  0  0  0  0  0  0  0  0  0
   -2.3780   -4.0740   -0.2710 O   0  0  0  0  0  0  0  0  0  0  0  0
   -1.8360   -2.7890   -0.2100 C   0  0  0  0  0  0  0  0  0  0  0  0
   -2.6800   -1.6950   -0.2440 C   0  0  0  0  0  0  0  0  0  0  0  0
   -2.1740   -0.4210   -0.1860 C   0  0  0  0  0  0  0  0  0  0  0  0
   -2.9740    0.8140   -0.2130 C   0  0  0  0  0  0  0  0  0  0  0  0
   -4.3790    0.6530   -0.3080 N   0  0  0  0  0  0  0  0  0  0  0  0
   -5.2510    1.7740   -0.3430 C   0  0  0  0  0  0  0  0  0  0  0  0
   -4.6990    2.9130   -0.2840 O   0  0  0  0  0  0  0  0  0  0  0  0
   -6.6430    1.6880   -0.4350 N   0  0  0  0  0  0  0  0  0  0  0  0
   -7.5870    2.7810   -0.4750 C   0  0  0  0  0  0  0  0  0  0  0  0
   -8.6500    2.2990    0.5000 C   0  0  0  0  0  0  0  0  0  0  0  0
   -8.6640    0.8180    0.2680 C   0  0  0  0  0  0  0  0  0  0  0  0
   -7.4260    0.4760   -0.5100 C   0  0  0  0  0  0  0  0  0  0  0  0
   -0.8060   -0.2680   -0.0940 C   0  0  0  0  0  0  0  0  0  0  0  0
   -0.2450    1.0220   -0.0320 O   0  0  0  0  0  0  0  0  0  0  0  0
    0.0870   -1.3170   -0.0560 C   0  0  0  0  0  0  0  0  0  0  0  0
    1.5290   -1.0970    0.0420 C   0  0  0  0  0  0  0  0  0  0  0  0
    2.4570   -2.0850    0.0830 C   0  0  0  0  0  0  0  0  0  0  0  0
    3.8180   -1.7550    0.1780 C   0  0  0  0  0  0  0  0  0  0  0  0
    4.2320   -0.4410    0.2300 C   0  0  0  0  0  0  0  0  0  0  0  0
    5.6440   -0.1020    0.3290 C   0  0  0  0  0  0  0  0  0  0  0  0
    6.5660   -1.0790    0.3690 N   0  0  0  0  0  0  0  0  0  0  0  0
    7.8820   -0.8470    0.4600 C   0  0  0  0  0  0  0  0  0  0  0  0
    8.3390    0.4620    0.5150 C   0  0  0  0  0  0  0  0  0  0  0  0
    7.4060    1.4720    0.4740 C   0  0  0  0  0  0  0  0  0  0  0  0
    6.0990    1.1520    0.3830 N   0  0  0  0  0  0  0  0  0  0  0  0
    8.0840    2.7700    0.5380 C   0  0  0  0  0  0  0  0  0  0  0  0
    7.5990    3.8370    0.9260 O   0  0  0  0  0  0  0  0  0  0  0  0
    9.4640    2.4580    0.0280 C   0  0  0  0  0  0  0  0  0  0  0  0
    9.6690    1.0850    0.6200 C   0  0  0  0  0  0  0  0  0  0  0  0
    3.2520    0.5230    0.1860 C   0  0  0  0  0  0  0  0  0  0  0  0
    1.9580    0.1750    0.0950 N   0  0  0  0  0  0  0  0  0  0  0  0
   -0.4540   -2.5880   -0.1160 C   0  0  0  0  0  0  0  0  0  0  0  0
  1  2  1  0
  2  3  1  0
  3  4  2  0
  3 34  1  0
  4  5  1  0
  5  6  1  0
  5 15  2  0
  6  7  1  0
  7  8  1  0
  8  9  2  0
  8 10  1  0
 10 11  1  0
 10 14  1  0
 11 12  1  0
 12 13  1  0
 13 14  1  0
 15 16  1  0
 15 17  1  0
 17 18  1  0
 17 34  2  0
 18 19  2  0
 18 33  1  0
 19 20  1  0
 20 21  2  0
 21 22  1  0
 21 32  1  0
 22 23  2  0
 22 27  1  0
 23 24  1  0
 24 25  2  0
 25 26  1  0
 25 31  1  0
 26 27  2  0
 26 28  1  0
 28 29  2  0
 28 30  1  0
 30 31  1  0
 32 33  2  0
M  END
