
     RDKit          3D

 35 38  0  0  0  0  0  0  0  0999 V2000
    0.1690   -1.5790    0.7240 C   0  0  0  0  0  0  0  0  0  0  0  0
   -0.8430   -0.4350    0.5890 C   0  0  1  0  0  0  0  0  0  0  0  0
   -1.4820   -0.1590    1.9090 C   0  0  0  0  0  0  0  0  0  0  0  0
   -2.5750    0.8360    1.9620 C   0  0  0  0  0  0  0  0  0  0  0  0
   -3.8790    0.3700    1.3650 C   0  0  0  0  0  0  0  0  0  0  0  0
   -3.9810   -0.8450    0.8840 C   0  0  0  0  0  0  0  0  0  0  0  0
   -5.2210   -1.3340    0.2870 C   0  0  0  0  0  0  0  0  0  0  0  0
   -5.1460   -2.2370   -0.5870 O   0  0  0  0  0  0  0  0  0  0  0  0
   -6.4570   -0.7130    0.7790 C   0  0  0  0  0  0  0  0  0  0  0  0
   -6.2940    0.8140    0.7770 C   0  0  1  0  0  0  0  0  0  0  0  0
   -6.4390    1.2230   -0.6760 C   0  0  0  0  0  0  0  0  0  0  0  0
   -7.4900    1.3710    1.5800 C   0  0  0  0  0  0  0  0  0  0  0  0
   -5.0590    1.2670    1.4180 C   0  0  0  0  0  0  0  0  0  0  0  0
   -0.0350    0.7440    0.1520 N   0  0  0  0  0  0  0  0  0  0  0  0
    1.3870    0.6850    0.3230 C   0  0  0  0  0  0  0  0  0  0  0  0
    2.1360    0.5120   -0.7800 C   0  0  0  0  0  0  0  0  0  0  0  0
    1.4500    0.3930   -2.0720 C   0  0  0  0  0  0  0  0  0  0  0  0
    0.4870    1.1700   -2.3420 O   0  0  0  0  0  0  0  0  0  0  0  0
    1.9210   -0.6180   -2.9600 N   0  0  0  0  0  0  0  0  0  0  0  0
    3.0030   -1.3970   -2.4840 C   0  0  0  0  0  0  0  0  0  0  0  0
    3.0900   -2.6400   -2.8020 O   0  0  0  0  0  0  0  0  0  0  0  0
    4.0360   -0.8000   -1.6240 C   0  0  0  0  0  0  0  0  0  0  0  0
    3.6060    0.4040   -0.8060 C   0  0  2  0  0  0  0  0  0  0  0  0
    4.2070    0.3330    0.5530 C   0  0  0  0  0  0  0  0  0  0  0  0
    5.4710    0.1040    0.7480 C   0  0  0  0  0  0  0  0  0  0  0  0
    6.4390   -0.0980   -0.3240 C   0  0  0  0  0  0  0  0  0  0  0  0
    7.1870   -1.1570   -0.6350 C   0  0  0  0  0  0  0  0  0  0  0  0
    8.0400   -1.1200   -1.6430 C   0  0  0  0  0  0  0  0  0  0  0  0
    8.1840    0.0260   -2.4100 C   0  0  0  0  0  0  0  0  0  0  0  0
    8.8200    0.3750   -3.5140 C   0  0  0  0  0  0  0  0  0  0  0  0
    9.4280    0.7110   -4.5730 N   0  0  0  0  0  0  0  0  0  0  0  0
    6.9340    1.1090   -1.5150 S   0  0  0  0  0  0  0  0  0  0  0  0
    3.3750    0.5480    1.7270 C   0  0  0  0  0  0  0  0  0  0  0  0
    3.9160    0.5830    2.8710 O   0  0  0  0  0  0  0  0  0  0  0  0
    1.9760    0.7190    1.5990 N   0  0  0  0  0  0  0  0  0  0  0  0
  2  1  1  1
  2  3  1  0
  2 14  1  0
  3  4  1  0
  4  5  1  0
  5  6  2  0
  5 13  1  0
  6  7  1  0
  7  8  2  0
  7  9  1  0
  9 10  1  0
 10 11  1  6
 10 12  1  0
 10 13  1  0
 14 15  1  0
 15 16  2  0
 15 35  1  0
 16 17  1  0
 16 23  1  0
 17 18  2  0
 17 19  1  0
 19 20  1  0
 20 21  2  0
 20 22  1  0
 23 22  1  6
 23 24  1  0
 24 25  2  3
 24 33  1  0
 25 26  1  0
 26 27  2  0
 26 32  1  0
 27 28  1  0
 28 29  2  0
 29 30  1  0
 29 32  1  0
 30 31  3  0
 33 34  2  0
 33 35  1  0
M  END
