
     RDKit          3D

 35 38  0  0  0  0  0  0  0  0999 V2000
   -2.7830   -0.8000    6.1040 C   0  0  0  0  0  0  0  0  0  0  0  0
   -2.0400   -0.7940    5.0170 C   0  0  0  0  0  0  0  0  0  0  0  0
   -2.6190   -1.1560    3.7190 C   0  0  0  0  0  0  0  0  0  0  0  0
   -2.5150   -0.0600    2.7510 N   0  0  0  0  0  0  0  0  0  0  0  0
   -3.0020   -0.1690    1.4340 C   0  0  0  0  0  0  0  0  0  0  0  0
   -3.5410   -1.3050    1.1650 O   0  0  0  0  0  0  0  0  0  0  0  0
   -2.9560    0.8270    0.4320 N   0  0  0  0  0  0  0  0  0  0  0  0
   -2.2900    2.0730    0.6670 C   0  0  0  0  0  0  0  0  0  0  0  0
   -0.9350    2.2660    0.1690 C   0  0  0  0  0  0  0  0  0  0  0  0
    0.1570    1.3950    0.5720 C   0  0  0  0  0  0  0  0  0  0  0  0
   -0.0020    0.4080    1.3030 O   0  0  0  0  0  0  0  0  0  0  0  0
    1.4920    1.6460    0.1330 N   0  0  0  0  0  0  0  0  0  0  0  0
    2.6430    0.9060    0.4370 C   0  0  0  0  0  0  0  0  0  0  0  0
    2.7630   -0.0650    1.3910 C   0  0  0  0  0  0  0  0  0  0  0  0
    3.9530   -0.7710    1.6150 C   0  0  0  0  0  0  0  0  0  0  0  0
    5.0660   -0.5050    0.8650 C   0  0  0  0  0  0  0  0  0  0  0  0
    4.9760    0.4610   -0.0950 C   0  0  0  0  0  0  0  0  0  0  0  0
    3.8120    1.1470   -0.3100 C   0  0  0  0  0  0  0  0  0  0  0  0
    6.0100    0.8700   -0.9600 O   0  0  0  0  0  0  0  0  0  0  0  0
    7.0810    0.1330   -1.5200 C   0  0  0  0  0  0  0  0  0  0  0  0
    8.1380   -0.1370   -0.5110 C   0  0  0  0  0  0  0  0  0  0  0  0
    9.4040    0.2220   -0.6000 C   0  0  0  0  0  0  0  0  0  0  0  0
   10.0930   -0.2470    0.6150 C   0  0  0  0  0  0  0  0  0  0  0  0
    9.0580   -0.9030    1.3760 N   0  0  0  0  0  0  0  0  0  0  0  0
    7.9310   -0.8570    0.7610 C   0  0  0  0  0  0  0  0  0  0  0  0
    6.4020   -1.5690    1.3970 S   0  0  0  0  0  0  0  0  0  0  0  0
   -3.6040    0.5490   -0.8640 C   0  0  2  0  0  0  0  0  0  0  0  0
   -5.0710    0.3280   -0.5890 C   0  0  0  0  0  0  0  0  0  0  0  0
   -5.6210   -0.7320   -1.5360 C   0  0  1  0  0  0  0  0  0  0  0  0
   -7.0090   -0.6980   -1.4920 O   0  0  0  0  0  0  0  0  0  0  0  0
   -5.1140   -0.4000   -2.9190 C   0  0  0  0  0  0  0  0  0  0  0  0
   -3.6200   -0.6210   -2.9790 C   0  0  2  0  0  0  0  0  0  0  0  0
   -3.0230    0.5650   -3.7270 C   0  0  0  0  0  0  0  0  0  0  0  0
   -3.3560   -1.9210   -3.6900 C   0  0  0  0  0  0  0  0  0  0  0  0
   -2.9920   -0.6090   -1.5870 C   0  0  0  0  0  0  0  0  0  0  0  0
  1  2  2  0
  2  3  1  0
  3  4  1  0
  4  5  1  0
  5  6  2  0
  5  7  1  0
  7  8  1  0
 27  7  1  1
  8  9  1  0
  9 10  1  0
 10 11  2  0
 10 12  1  0
 12 13  1  0
 13 14  2  0
 13 18  1  0
 14 15  1  0
 15 16  2  0
 16 17  1  0
 16 26  1  0
 17 18  2  0
 17 19  1  0
 19 20  1  0
 20 21  1  0
 21 22  2  0
 21 25  1  0
 22 23  1  0
 23 24  1  0
 24 25  2  0
 25 26  1  0
 27 28  1  0
 27 35  1  0
 28 29  1  0
 29 30  1  6
 29 31  1  0
 31 32  1  0
 32 33  1  6
 32 34  1  0
 32 35  1  0
M  END
