
     RDKit          3D

 35 38  0  0  0  0  0  0  0  0999 V2000
   -3.3180    4.8740   -2.1260 C   0  0  0  0  0  0  0  0  0  0  0  0
   -2.4850    4.4920   -0.9060 C   0  0  0  0  0  0  0  0  0  0  0  0
   -2.9780    3.2070   -0.3250 C   0  0  0  0  0  0  0  0  0  0  0  0
   -3.9620    3.2060    0.6440 C   0  0  0  0  0  0  0  0  0  0  0  0
   -4.4290    2.0280    1.1870 C   0  0  0  0  0  0  0  0  0  0  0  0
   -3.9390    0.7990    0.7910 C   0  0  0  0  0  0  0  0  0  0  0  0
   -4.4600   -0.4690    1.3870 C   0  0  0  0  0  0  0  0  0  0  0  0
   -2.9520    0.7930   -0.1810 C   0  0  0  0  0  0  0  0  0  0  0  0
   -2.3320   -0.7580   -0.7110 S   0  0  0  0  0  0  0  0  0  0  0  0
   -3.3830   -1.6510   -1.3130 O   0  0  0  0  0  0  0  0  0  0  0  0
   -1.1760   -1.4670    0.2450 N   0  0  0  0  0  0  0  0  0  0  0  0
   -1.5170   -2.5150    1.1400 C   0  0  0  0  0  0  0  0  0  0  0  0
   -0.9260   -3.8580    0.8550 C   0  0  2  0  0  0  0  0  0  0  0  0
   -0.5340   -3.8850   -0.4930 O   0  0  0  0  0  0  0  0  0  0  0  0
   -1.9340   -4.9790    1.1090 C   0  0  2  0  0  0  0  0  0  0  0  0
   -1.5600   -6.3810    0.8870 C   0  0  0  0  0  0  0  0  0  0  0  0
   -2.4730   -5.6700   -0.0740 C   0  0  0  0  0  0  0  0  0  0  0  0
    0.3060   -4.0440    1.6990 C   0  0  0  0  0  0  0  0  0  0  0  0
    0.9880   -2.8050    1.9660 N   0  0  0  0  0  0  0  0  0  0  0  0
    0.9740   -1.5370    1.3200 C   0  0  0  0  0  0  0  0  0  0  0  0
    1.6600   -0.6420    1.8630 O   0  0  0  0  0  0  0  0  0  0  0  0
    0.2090   -1.2260    0.0700 C   0  0  2  0  0  0  0  0  0  0  0  0
    0.4490    0.1660   -0.4330 C   0  0  0  0  0  0  0  0  0  0  0  0
    1.8900    0.4560   -0.6390 C   0  0  0  0  0  0  0  0  0  0  0  0
    2.7200   -0.4650   -0.4870 O   0  0  0  0  0  0  0  0  0  0  0  0
    2.3760    1.7350   -1.0000 N   0  0  0  0  0  0  0  0  0  0  0  0
    3.7860    1.9600   -1.1880 C   0  0  0  0  0  0  0  0  0  0  0  0
    4.6750    0.9570   -1.0310 N   0  0  0  0  0  0  0  0  0  0  0  0
    6.0010    1.2000   -1.2180 C   0  0  0  0  0  0  0  0  0  0  0  0
    7.0060    0.1020   -1.0500 C   0  0  0  0  0  0  0  0  0  0  0  0
    6.4290    2.4620   -1.5640 C   0  0  0  0  0  0  0  0  0  0  0  0
    5.5500    3.5190   -1.7350 C   0  0  0  0  0  0  0  0  0  0  0  0
    4.2080    3.2210   -1.5330 C   0  0  0  0  0  0  0  0  0  0  0  0
    3.2260    4.2960   -1.6990 C   0  0  0  0  0  0  0  0  0  0  0  0
   -2.4840    1.9800   -0.7260 C   0  0  0  0  0  0  0  0  0  0  0  0
  1  2  1  0
  2  3  1  0
  3  4  2  0
  3 35  1  0
  4  5  1  0
  5  6  2  0
  6  7  1  0
  6  8  1  0
  8  9  1  0
  8 35  2  0
  9 10  2  0
  9 11  1  1
 11 12  1  0
 11 22  1  0
 12 13  1  0
 13 14  1  6
 13 15  1  0
 13 18  1  0
 15 16  1  1
 15 17  1  0
 16 17  1  0
 18 19  1  0
 19 20  1  0
 20 21  2  0
 20 22  1  0
 22 23  1  1
 23 24  1  0
 24 25  2  0
 24 26  1  0
 26 27  1  0
 27 28  2  0
 27 33  1  0
 28 29  1  0
 29 30  1  0
 29 31  2  0
 31 32  1  0
 32 33  2  0
 33 34  1  0
M  END
