
     RDKit          3D

 35 38  0  0  0  0  0  0  0  0999 V2000
   -5.1400   -2.4220    4.2460 C   0  0  0  0  0  0  0  0  0  0  0  0
   -5.8970   -2.7850    3.0010 C   0  0  0  0  0  0  0  0  0  0  0  0
   -5.0000   -2.6920    1.8730 O   0  0  0  0  0  0  0  0  0  0  0  0
   -3.9570   -3.4820    1.7520 C   0  0  0  0  0  0  0  0  0  0  0  0
   -3.8480   -4.3460    2.7920 O   0  0  0  0  0  0  0  0  0  0  0  0
   -2.8790   -3.7310    0.8410 C   0  0  0  0  0  0  0  0  0  0  0  0
   -2.7380   -2.9050   -0.2560 C   0  0  0  0  0  0  0  0  0  0  0  0
   -3.4590   -1.7570   -0.6980 N   0  0  0  0  0  0  0  0  0  0  0  0
   -2.6040   -0.7060   -1.2690 C   0  0  1  0  0  0  0  0  0  0  0  0
   -1.5040   -0.5050   -0.2950 C   0  0  0  0  0  0  0  0  0  0  0  0
   -0.4030    0.3780   -0.4570 C   0  0  0  0  0  0  0  0  0  0  0  0
   -0.3980    1.8300   -0.3320 C   0  0  0  0  0  0  0  0  0  0  0  0
   -1.3430    2.5690    0.0070 O   0  0  0  0  0  0  0  0  0  0  0  0
    0.8700    2.4190   -0.6260 N   0  0  0  0  0  0  0  0  0  0  0  0
    1.2870    3.7780   -0.5480 C   0  0  2  0  0  0  0  0  0  0  0  0
    1.2470    4.5610   -1.8190 C   0  0  0  0  0  0  0  0  0  0  0  0
    1.9640    3.8240   -2.9190 C   0  0  0  0  0  0  0  0  0  0  0  0
    3.3560    3.4320   -2.5530 C   0  0  0  0  0  0  0  0  0  0  0  0
    3.7210    3.5560   -1.1250 C   0  0  0  0  0  0  0  0  0  0  0  0
    5.0670    3.4650   -0.7540 C   0  0  0  0  0  0  0  0  0  0  0  0
    5.4630    3.5000    0.5490 C   0  0  0  0  0  0  0  0  0  0  0  0
    4.4640    3.6310    1.5230 C   0  0  0  0  0  0  0  0  0  0  0  0
    4.8790    3.4710    3.2630 S   0  0  0  0  0  0  0  0  0  0  0  0
    6.6510    3.0120    3.3580 C   0  0  0  0  0  0  0  0  0  0  0  0
    6.7760    1.7370    2.4960 C   0  0  0  0  0  0  0  0  0  0  0  0
    6.8520    0.8740    1.9320 N   0  0  0  0  0  0  0  0  0  0  0  0
    3.1580    3.7240    1.1510 C   0  0  0  0  0  0  0  0  0  0  0  0
    2.7580    3.6920   -0.1580 C   0  0  0  0  0  0  0  0  0  0  0  0
   -1.9940   -1.4130   -2.5070 C   0  0  0  0  0  0  0  0  0  0  0  0
   -1.1530   -2.6030   -2.1120 C   0  0  0  0  0  0  0  0  0  0  0  0
   -1.7680   -3.5520   -1.1610 C   0  0  2  0  0  0  0  0  0  0  0  0
   -2.6100   -4.6050   -1.9320 C   0  0  0  0  0  0  0  0  0  0  0  0
   -0.9510   -4.3270   -0.2690 C   0  0  0  0  0  0  0  0  0  0  0  0
    0.2600   -4.7320   -0.3220 O   0  0  0  0  0  0  0  0  0  0  0  0
   -1.8070   -4.6380    0.8950 N   0  0  0  0  0  0  0  0  0  0  0  0
  1  2  1  0
  2  3  1  0
  3  4  1  0
  4  5  2  0
  4  6  1  0
  6  7  2  0
  6 35  1  0
  7  8  1  0
  7 31  1  0
  8  9  1  0
  9 10  1  1
  9 29  1  0
 10 11  1  0
 11 12  1  0
 12 13  2  0
 12 14  1  0
 15 14  1  6
 15 16  1  0
 15 28  1  0
 16 17  1  0
 17 18  1  0
 18 19  1  0
 19 20  2  0
 19 28  1  0
 20 21  1  0
 21 22  2  0
 22 23  1  0
 22 27  1  0
 23 24  1  0
 24 25  1  0
 25 26  3  0
 27 28  2  0
 29 30  1  0
 30 31  1  0
 31 32  1  6
 31 33  1  0
 33 34  2  0
 33 35  1  0
M  END
