
     RDKit          3D

 33 37  0  0  0  0  0  0  0  0999 V2000
   -5.1580   -1.5280   -3.2660 C   0  0  0  0  0  0  0  0  0  0  0  0
   -4.7860   -2.0480   -1.9290 C   0  0  0  0  0  0  0  0  0  0  0  0
   -4.9680   -3.2660   -1.6900 O   0  0  0  0  0  0  0  0  0  0  0  0
   -4.2180   -1.1830   -0.8930 C   0  0  0  0  0  0  0  0  0  0  0  0
   -4.0090    0.1630   -1.1340 C   0  0  0  0  0  0  0  0  0  0  0  0
   -3.4730    1.0170   -0.1780 C   0  0  0  0  0  0  0  0  0  0  0  0
   -3.1340    0.5210    1.0550 C   0  0  0  0  0  0  0  0  0  0  0  0
   -2.5820    1.4560    2.0720 C   0  0  2  0  0  0  0  0  0  0  0  0
   -3.5660    2.5080    2.4200 C   0  0  0  0  0  0  0  0  0  0  0  0
   -3.0340    3.8630    2.5280 C   0  0  0  0  0  0  0  0  0  0  0  0
   -3.9790    4.8520    2.9190 O   0  0  0  0  0  0  0  0  0  0  0  0
   -1.8240    4.2170    2.3030 N   0  0  0  0  0  0  0  0  0  0  0  0
   -0.8730    3.2340    1.9130 C   0  0  0  0  0  0  0  0  0  0  0  0
    0.4640    3.3810    1.5990 N   0  0  0  0  0  0  0  0  0  0  0  0
    0.8720    2.1760    1.2860 N   0  0  0  0  0  0  0  0  0  0  0  0
   -0.0840    1.2720    1.3730 C   0  0  0  0  0  0  0  0  0  0  0  0
   -0.0240   -0.1600    1.1260 C   0  0  0  0  0  0  0  0  0  0  0  0
    1.2880   -0.5750    0.7050 N   0  0  0  0  0  0  0  0  0  0  0  0
    1.4100   -2.0170    0.6740 C   0  0  0  0  0  0  0  0  0  0  0  0
    2.4050   -2.5910   -0.2400 C   0  0  0  0  0  0  0  0  0  0  0  0
    3.4750   -1.6680   -0.6240 N   0  0  0  0  0  0  0  0  0  0  0  0
    4.7450   -2.2200   -0.8240 C   0  0  0  0  0  0  0  0  0  0  0  0
    4.8850   -3.5120   -0.6460 O   0  0  0  0  0  0  0  0  0  0  0  0
    5.9860   -1.5720   -1.2110 C   0  0  0  0  0  0  0  0  0  0  0  0
    6.2340   -0.2650   -1.4900 C   0  0  0  0  0  0  0  0  0  0  0  0
    7.5880   -0.1530   -1.8110 C   0  0  0  0  0  0  0  0  0  0  0  0
    8.0820   -1.4230   -1.7030 C   0  0  0  0  0  0  0  0  0  0  0  0
    7.1300   -2.2300   -1.3530 O   0  0  0  0  0  0  0  0  0  0  0  0
    3.2050   -0.2740   -0.7820 C   0  0  0  0  0  0  0  0  0  0  0  0
    1.7280    0.0230   -0.5200 C   0  0  0  0  0  0  0  0  0  0  0  0
   -1.2530    1.9340    1.7860 C   0  0  0  0  0  0  0  0  0  0  0  0
   -3.3320   -0.8130    1.3190 C   0  0  0  0  0  0  0  0  0  0  0  0
   -3.8720   -1.6680    0.3500 C   0  0  0  0  0  0  0  0  0  0  0  0
  1  2  1  0
  2  3  2  0
  2  4  1  0
  4  5  2  0
  4 33  1  0
  5  6  1  0
  6  7  2  0
  8  7  1  6
  7 32  1  0
  8  9  1  0
  8 31  1  0
  9 10  1  0
 10 11  1  0
 10 12  2  0
 12 13  1  0
 13 14  1  0
 13 31  2  0
 14 15  1  0
 15 16  2  0
 16 17  1  0
 16 31  1  0
 17 18  1  0
 18 19  1  0
 18 30  1  0
 19 20  1  0
 20 21  1  0
 21 22  1  0
 21 29  1  0
 22 23  2  0
 22 24  1  0
 24 25  2  0
 24 28  1  0
 25 26  1  0
 26 27  2  0
 27 28  1  0
 29 30  1  0
 32 33  2  0
M  END
