
     RDKit          3D

 25 27  0  0  0  0  0  0  0  0999 V2000
   -3.2580   -2.3200   -1.2720 C   0  0  0  0  0  0  0  0  0  0  0  0
   -2.7690   -2.2370    0.2090 C   0  0  0  0  0  0  0  0  0  0  0  0
   -1.5640   -1.4550    0.2130 C   0  0  0  0  0  0  0  0  0  0  0  0
   -0.3550   -2.1760    0.2420 C   0  0  0  0  0  0  0  0  0  0  0  0
    0.8890   -1.6210    0.1400 C   0  0  0  0  0  0  0  0  0  0  0  0
    0.9450   -0.2550   -0.0060 C   0  0  0  0  0  0  0  0  0  0  0  0
   -0.2350    0.4730   -0.0320 C   0  0  0  0  0  0  0  0  0  0  0  0
   -1.5100   -0.1110    0.0790 C   0  0  0  0  0  0  0  0  0  0  0  0
   -2.6890    0.7670    0.1900 C   0  0  1  0  0  0  0  0  0  0  0  0
   -2.6460    2.0140   -0.6100 C   0  0  0  0  0  0  0  0  0  0  0  0
   -3.7010    2.9710   -0.1240 C   0  0  0  0  0  0  0  0  0  0  0  0
   -4.9230    2.3530    0.1550 O   0  0  0  0  0  0  0  0  0  0  0  0
   -4.7930    1.4720    1.2110 C   0  0  0  0  0  0  0  0  0  0  0  0
   -3.9440    0.2540    0.7290 C   0  0  0  0  0  0  0  0  0  0  0  0
    2.1300    0.4310   -0.1400 O   0  0  0  0  0  0  0  0  0  0  0  0
    3.4100   -0.2170   -0.1560 C   0  0  0  0  0  0  0  0  0  0  0  0
    4.4120    0.5860   -0.2800 C   0  0  0  0  0  0  0  0  0  0  0  0
    5.8250    0.6140   -0.3540 C   0  0  0  0  0  0  0  0  0  0  0  0
    6.8320   -0.3740   -0.1800 C   0  0  0  0  0  0  0  0  0  0  0  0
    6.8020   -1.5500    0.1190 O   0  0  0  0  0  0  0  0  0  0  0  0
    6.3260    1.9120   -0.5540 C   0  0  0  0  0  0  0  0  0  0  0  0
    5.4490    2.9440   -0.6520 O   0  0  0  0  0  0  0  0  0  0  0  0
    3.3340   -1.6380   -0.0370 C   0  0  0  0  0  0  0  0  0  0  0  0
    4.3700   -2.3150   -0.2100 O   0  0  0  0  0  0  0  0  0  0  0  0
    2.1170   -2.4400    0.2730 C   0  0  0  0  0  0  0  0  0  0  0  0
  1  2  1  0
  2  3  1  0
  3  4  2  0
  3  8  1  0
  4  5  1  0
  5  6  2  0
  5 25  1  0
  6  7  1  0
  6 15  1  0
  7  8  2  0
  9  8  1  6
  9 10  1  0
  9 14  1  0
 10 11  1  0
 11 12  1  0
 12 13  1  0
 13 14  1  0
 15 16  1  0
 16 17  2  3
 16 23  1  0
 17 18  1  0
 18 19  1  0
 18 21  2  3
 19 20  2  0
 21 22  1  0
 23 24  2  0
 23 25  1  0
M  END
