
     RDKit          3D

 25 28  0  0  0  0  0  0  0  0999 V2000
    6.0390    1.4010    2.4660 O   0  0  0  0  0  0  0  0  0  0  0  0
    4.9300    1.4500    1.8800 C   0  0  0  0  0  0  0  0  0  0  0  0
    4.0870    2.5110    2.1530 O   0  0  0  0  0  0  0  0  0  0  0  0
    4.5680    0.3840    0.9300 C   0  0  0  0  0  0  0  0  0  0  0  0
    5.4410   -0.6550    0.6900 C   0  0  0  0  0  0  0  0  0  0  0  0
    5.1050   -1.6470   -0.1930 C   0  0  0  0  0  0  0  0  0  0  0  0
    3.8770   -1.6090   -0.8520 C   0  0  0  0  0  0  0  0  0  0  0  0
    2.9780   -0.5920   -0.6430 C   0  0  0  0  0  0  0  0  0  0  0  0
    3.3660    0.3920    0.2640 C   0  0  0  0  0  0  0  0  0  0  0  0
    1.8050   -0.8270   -1.4760 C   0  0  2  0  0  0  0  0  0  0  0  0
    0.5280   -0.4780   -0.8120 C   0  0  0  0  0  0  0  0  0  0  0  0
    0.5400   -0.0280    0.3630 O   0  0  0  0  0  0  0  0  0  0  0  0
   -0.7080   -0.6210   -1.4180 O   0  0  0  0  0  0  0  0  0  0  0  0
   -1.9030   -0.2830   -0.7660 C   0  0  0  0  0  0  0  0  0  0  0  0
   -2.5000   -1.2980   -0.0420 C   0  0  0  0  0  0  0  0  0  0  0  0
   -3.6780   -1.1080    0.6480 C   0  0  0  0  0  0  0  0  0  0  0  0
   -4.2460    0.1680    0.5810 C   0  0  0  0  0  0  0  0  0  0  0  0
   -3.6600    1.1710   -0.1320 C   0  0  0  0  0  0  0  0  0  0  0  0
   -2.4650    0.9460   -0.8210 C   0  0  0  0  0  0  0  0  0  0  0  0
   -4.5110    2.3960   -0.0010 C   0  0  0  0  0  0  0  0  0  0  0  0
   -5.8070    1.8920    0.5450 C   0  0  0  0  0  0  0  0  0  0  0  0
   -5.5030    0.5940    1.2420 C   0  0  0  0  0  0  0  0  0  0  0  0
    1.8130   -2.3100   -1.7480 C   0  0  0  0  0  0  0  0  0  0  0  0
    3.2880   -2.5520   -1.8280 C   0  0  0  0  0  0  0  0  0  0  0  0
    3.9450   -3.3420   -2.5240 O   0  0  0  0  0  0  0  0  0  0  0  0
  1  2  2  0
  2  3  1  0
  2  4  1  0
  4  5  2  0
  4  9  1  0
  5  6  1  0
  6  7  2  0
  7  8  1  0
  7 24  1  0
  8  9  2  0
  8 10  1  0
 10 11  1  1
 10 23  1  0
 11 12  2  0
 11 13  1  0
 13 14  1  0
 14 15  2  0
 14 19  1  0
 15 16  1  0
 16 17  2  0
 17 18  1  0
 17 22  1  0
 18 19  2  0
 18 20  1  0
 20 21  1  0
 21 22  1  0
 23 24  1  0
 24 25  2  0
M  END
