
     RDKit          3D

 25 27  0  0  0  0  0  0  0  0999 V2000
   -3.1350   -2.5730    1.3840 C   0  0  0  0  0  0  0  0  0  0  0  0
   -3.4650   -1.3090    0.6870 C   0  0  0  0  0  0  0  0  0  0  0  0
   -4.7010   -0.8280    0.5610 C   0  0  0  0  0  0  0  0  0  0  0  0
   -4.9340    0.4680   -0.1430 C   0  0  1  0  0  0  0  0  0  0  0  0
   -6.3260    0.6530   -0.6840 C   0  0  0  0  0  0  0  0  0  0  0  0
   -4.5420    1.6340    0.8020 C   0  0  0  0  0  0  0  0  0  0  0  0
   -4.0700    0.6700   -1.2330 O   0  0  0  0  0  0  0  0  0  0  0  0
   -2.7670    0.2680   -1.0840 C   0  0  0  0  0  0  0  0  0  0  0  0
   -1.8010    0.8970   -1.8720 C   0  0  0  0  0  0  0  0  0  0  0  0
   -0.5490    0.4930   -1.6540 C   0  0  0  0  0  0  0  0  0  0  0  0
   -0.1550   -0.5080   -0.6970 C   0  0  0  0  0  0  0  0  0  0  0  0
    1.3180   -0.5230   -0.5320 C   0  0  0  0  0  0  0  0  0  0  0  0
    2.0850   -1.4570   -0.5540 O   0  0  0  0  0  0  0  0  0  0  0  0
    1.8610    0.8040   -0.3370 O   0  0  0  0  0  0  0  0  0  0  0  0
    3.1340    1.1160   -0.3400 C   0  0  0  0  0  0  0  0  0  0  0  0
    4.2950    0.6050    0.2990 C   0  0  0  0  0  0  0  0  0  0  0  0
    4.7600    0.6880    1.5570 C   0  0  0  0  0  0  0  0  0  0  0  0
    6.0660    0.2580    1.8720 C   0  0  0  0  0  0  0  0  0  0  0  0
    6.8960   -0.2610    0.9060 C   0  0  0  0  0  0  0  0  0  0  0  0
    6.4520   -0.3610   -0.3920 C   0  0  0  0  0  0  0  0  0  0  0  0
    7.2000   -0.8680   -1.4480 O   0  0  0  0  0  0  0  0  0  0  0  0
    5.1880    0.0580   -0.6800 C   0  0  0  0  0  0  0  0  0  0  0  0
    4.7260   -0.0560   -1.9800 O   0  0  0  0  0  0  0  0  0  0  0  0
   -1.1140   -1.0830    0.0160 C   0  0  0  0  0  0  0  0  0  0  0  0
   -2.4380   -0.7040   -0.1670 C   0  0  0  0  0  0  0  0  0  0  0  0
  1  2  1  0
  2  3  2  0
  2 25  1  0
  3  4  1  0
  4  5  1  6
  4  6  1  0
  4  7  1  0
  7  8  1  0
  8  9  2  0
  8 25  1  0
  9 10  1  0
 10 11  2  0
 11 12  1  0
 11 24  1  0
 12 13  2  0
 12 14  1  0
 14 15  1  0
 15 16  1  0
 16 17  2  0
 16 22  1  0
 17 18  1  0
 18 19  2  0
 19 20  1  0
 20 21  1  0
 20 22  2  0
 22 23  1  0
 24 25  2  0
M  END
