
     RDKit          3D

 24 27  0  0  0  0  0  0  0  0999 V2000
   -0.9320   -1.2160   -0.2870 O   0  0  0  0  0  0  0  0  0  0  0  0
   -0.6050   -0.1810    0.3130 C   0  0  0  0  0  0  0  0  0  0  0  0
   -1.6010    0.6260    0.8370 O   0  0  0  0  0  0  0  0  0  0  0  0
   -2.9270    0.2710    0.6850 C   0  0  0  0  0  0  0  0  0  0  0  0
   -3.5440   -0.5140    1.6320 C   0  0  0  0  0  0  0  0  0  0  0  0
   -4.8800   -0.8900    1.5100 C   0  0  0  0  0  0  0  0  0  0  0  0
   -5.5860   -0.4630    0.4170 C   0  0  0  0  0  0  0  0  0  0  0  0
   -4.9900    0.3160   -0.5330 C   0  0  0  0  0  0  0  0  0  0  0  0
   -3.6590    0.6880   -0.4060 C   0  0  0  0  0  0  0  0  0  0  0  0
   -5.9040    0.6170   -1.5350 O   0  0  0  0  0  0  0  0  0  0  0  0
   -7.2050    0.5060   -0.9590 C   0  0  0  0  0  0  0  0  0  0  0  0
   -6.9820   -0.6760   -0.0090 C   0  0  0  0  0  0  0  0  0  0  0  0
    0.8080    0.1790    0.4650 C   0  0  0  0  0  0  0  0  0  0  0  0
    1.1970    1.3230    1.1260 C   0  0  0  0  0  0  0  0  0  0  0  0
    2.5160    1.6320    1.2510 C   0  0  0  0  0  0  0  0  0  0  0  0
    3.5030    0.8110    0.7210 C   0  0  0  0  0  0  0  0  0  0  0  0
    3.1210   -0.3210    0.0650 C   0  0  0  0  0  0  0  0  0  0  0  0
    1.7760   -0.6380   -0.0630 C   0  0  0  0  0  0  0  0  0  0  0  0
    4.0920   -1.2710   -0.5410 C   0  0  1  0  0  0  0  0  0  0  0  0
    3.9080   -1.2210   -1.9380 O   0  0  0  0  0  0  0  0  0  0  0  0
    5.5110   -0.9640   -0.1720 C   0  0  1  0  0  0  0  0  0  0  0  0
    6.3840   -1.5980   -1.0360 O   0  0  0  0  0  0  0  0  0  0  0  0
    5.6980    0.5460   -0.2710 C   0  0  0  0  0  0  0  0  0  0  0  0
    4.9380    1.1630    0.8660 C   0  0  0  0  0  0  0  0  0  0  0  0
  1  2  2  0
  2  3  1  0
  2 13  1  0
  3  4  1  0
  4  5  2  0
  4  9  1  0
  5  6  1  0
  6  7  2  0
  7  8  1  0
  7 12  1  0
  8  9  2  0
  8 10  1  0
 10 11  1  0
 11 12  1  0
 13 14  2  0
 13 18  1  0
 14 15  1  0
 15 16  2  0
 16 17  1  0
 16 24  1  0
 17 18  2  0
 17 19  1  0
 19 20  1  6
 19 21  1  0
 21 22  1  6
 21 23  1  0
 23 24  1  0
M  END
