
     RDKit          3D

 25 27  0  0  0  0  0  0  0  0999 V2000
    5.3420    0.9020   -0.9800 C   0  0  0  0  0  0  0  0  0  0  0  0
    4.3030    0.0920   -0.2430 C   0  0  0  0  0  0  0  0  0  0  0  0
    3.0130    0.1760   -1.0040 C   0  0  0  0  0  0  0  0  0  0  0  0
    1.9110   -0.5790   -0.3820 C   0  0  0  0  0  0  0  0  0  0  0  0
    1.8990   -1.9500   -0.5160 C   0  0  0  0  0  0  0  0  0  0  0  0
    2.9400   -2.6940   -1.2510 C   0  0  0  0  0  0  0  0  0  0  0  0
    0.8530   -2.6250    0.0770 C   0  0  0  0  0  0  0  0  0  0  0  0
   -0.1640   -1.9800    0.7880 C   0  0  0  0  0  0  0  0  0  0  0  0
   -0.1250   -0.6080    0.9040 C   0  0  0  0  0  0  0  0  0  0  0  0
    0.9130    0.0940    0.3200 C   0  0  0  0  0  0  0  0  0  0  0  0
    0.9080    1.5610    0.4870 C   0  0  0  0  0  0  0  0  0  0  0  0
   -1.2970   -0.1920    1.6740 C   0  0  1  0  0  0  0  0  0  0  0  0
   -0.9690    0.4770    2.8500 O   0  0  0  0  0  0  0  0  0  0  0  0
   -2.2520    0.6490    0.8670 C   0  0  0  0  0  0  0  0  0  0  0  0
   -2.4170    2.0000    1.0730 C   0  0  0  0  0  0  0  0  0  0  0  0
   -3.2780    2.7820    0.3510 C   0  0  0  0  0  0  0  0  0  0  0  0
   -3.4340    4.1450    0.5700 O   0  0  0  0  0  0  0  0  0  0  0  0
   -4.0370    2.2030   -0.6460 C   0  0  0  0  0  0  0  0  0  0  0  0
   -3.8980    0.8540   -0.8800 C   0  0  0  0  0  0  0  0  0  0  0  0
   -4.6590    0.2790   -1.8790 O   0  0  0  0  0  0  0  0  0  0  0  0
   -4.5380   -1.1040   -2.1410 C   0  0  0  0  0  0  0  0  0  0  0  0
   -3.0250    0.0860   -0.1420 C   0  0  0  0  0  0  0  0  0  0  0  0
   -1.9970   -1.3570    2.0360 O   0  0  0  0  0  0  0  0  0  0  0  0
   -1.3380   -2.4390    1.4980 C   0  0  0  0  0  0  0  0  0  0  0  0
   -1.6570   -3.6620    1.5760 O   0  0  0  0  0  0  0  0  0  0  0  0
  1  2  1  0
  2  3  1  0
  3  4  1  0
  4  5  2  0
  4 10  1  0
  5  6  1  0
  5  7  1  0
  7  8  2  0
  8  9  1  0
  8 24  1  0
  9 10  2  0
  9 12  1  0
 10 11  1  0
 12 13  1  1
 12 14  1  0
 12 23  1  0
 14 15  2  0
 14 22  1  0
 15 16  1  0
 16 17  1  0
 16 18  2  0
 18 19  1  0
 19 20  1  0
 19 22  2  0
 20 21  1  0
 23 24  1  0
 24 25  2  0
M  END
