
     RDKit          3D

 25 27  0  0  0  0  0  0  0  0999 V2000
   -2.0370   -2.9420   -0.0180 C   0  0  0  0  0  0  0  0  0  0  0  0
   -3.1970   -2.0990   -0.3120 C   0  0  0  0  0  0  0  0  0  0  0  0
   -3.3850   -0.8190   -0.2690 C   0  0  0  0  0  0  0  0  0  0  0  0
   -4.7900   -0.3860   -0.6710 C   0  0  0  0  0  0  0  0  0  0  0  0
   -5.3640    0.7750   -0.4360 C   0  0  0  0  0  0  0  0  0  0  0  0
   -4.7750    1.9280    0.2740 C   0  0  0  0  0  0  0  0  0  0  0  0
   -3.5190    2.4370   -0.3150 C   0  0  0  0  0  0  0  0  0  0  0  0
   -2.5360    1.4290   -0.7880 C   0  0  0  0  0  0  0  0  0  0  0  0
   -2.4140    0.2090    0.1220 C   0  0  2  0  0  0  0  0  0  0  0  0
   -0.9890   -0.2230    0.0640 C   0  0  0  0  0  0  0  0  0  0  0  0
   -0.1500    0.9170    0.4410 O   0  0  0  0  0  0  0  0  0  0  0  0
    1.2060    0.7240    0.4550 C   0  0  0  0  0  0  0  0  0  0  0  0
    2.0010    1.7860    0.8050 C   0  0  0  0  0  0  0  0  0  0  0  0
    3.3580    1.6150    0.8250 C   0  0  0  0  0  0  0  0  0  0  0  0
    3.9200    0.3980    0.5000 C   0  0  0  0  0  0  0  0  0  0  0  0
    5.2900    0.2050    0.5150 C   0  0  0  0  0  0  0  0  0  0  0  0
    6.2060    1.1770    0.8450 O   0  0  0  0  0  0  0  0  0  0  0  0
    5.7610   -1.0560    0.1720 C   0  0  0  0  0  0  0  0  0  0  0  0
    7.1740   -1.2940    0.1760 C   0  0  0  0  0  0  0  0  0  0  0  0
    7.9730   -0.3880    0.4810 O   0  0  0  0  0  0  0  0  0  0  0  0
    4.9380   -2.0340   -0.1540 O   0  0  0  0  0  0  0  0  0  0  0  0
    3.6430   -1.8800   -0.1770 C   0  0  0  0  0  0  0  0  0  0  0  0
    2.8540   -2.8220   -0.4910 O   0  0  0  0  0  0  0  0  0  0  0  0
    3.0870   -0.6550    0.1510 C   0  0  0  0  0  0  0  0  0  0  0  0
    1.7250   -0.5110    0.1220 C   0  0  0  0  0  0  0  0  0  0  0  0
  1  2  1  0
  2  3  2  3
  3  4  1  0
  3  9  1  0
  4  5  2  0
  5  6  1  0
  6  7  1  0
  7  8  1  0
  8  9  1  0
  9 10  1  6
 10 11  1  0
 11 12  1  0
 12 13  2  0
 12 25  1  0
 13 14  1  0
 14 15  2  0
 15 16  1  0
 15 24  1  0
 16 17  1  0
 16 18  2  0
 18 19  1  0
 18 21  1  0
 19 20  2  0
 21 22  1  0
 22 23  2  0
 22 24  1  0
 24 25  2  0
M  END
