
     RDKit          3D

 25 28  0  0  0  0  0  0  0  0999 V2000
   -0.4000   -0.4850   -2.0950 O   0  0  0  0  0  0  0  0  0  0  0  0
   -1.5640   -0.8970   -1.8830 C   0  0  0  0  0  0  0  0  0  0  0  0
   -2.2880   -1.4010   -2.9360 O   0  0  0  0  0  0  0  0  0  0  0  0
   -2.0720   -0.8120   -0.5260 C   0  0  0  0  0  0  0  0  0  0  0  0
   -3.3380   -1.2490   -0.2410 C   0  0  0  0  0  0  0  0  0  0  0  0
   -3.8880   -1.1980    1.0340 C   0  0  0  0  0  0  0  0  0  0  0  0
   -3.1110   -0.6790    2.0580 C   0  0  0  0  0  0  0  0  0  0  0  0
   -1.8230   -0.2300    1.7920 C   0  0  0  0  0  0  0  0  0  0  0  0
   -1.3200   -0.3010    0.5090 C   0  0  0  0  0  0  0  0  0  0  0  0
    0.0330    0.1760    0.2520 C   0  0  0  0  0  0  0  0  0  0  0  0
    0.1940    1.4950   -0.0930 C   0  0  0  0  0  0  0  0  0  0  0  0
   -0.8370    2.3910   -0.2120 C   0  0  0  0  0  0  0  0  0  0  0  0
   -0.6360    3.7150   -0.5620 C   0  0  0  0  0  0  0  0  0  0  0  0
    0.6390    4.1940   -0.8110 C   0  0  0  0  0  0  0  0  0  0  0  0
    0.7510    5.4010   -1.1240 O   0  0  0  0  0  0  0  0  0  0  0  0
    1.6880    3.3230   -0.7010 C   0  0  0  0  0  0  0  0  0  0  0  0
    1.5480    1.9960   -0.3560 C   0  0  0  0  0  0  0  0  0  0  0  0
    2.5560    1.1630   -0.2510 O   0  0  0  0  0  0  0  0  0  0  0  0
    2.3980   -0.1100    0.0820 C   0  0  0  0  0  0  0  0  0  0  0  0
    3.5260   -0.9050    0.1660 C   0  0  0  0  0  0  0  0  0  0  0  0
    3.3740   -2.2370    0.5130 C   0  0  0  0  0  0  0  0  0  0  0  0
    4.4730   -3.0660    0.6080 O   0  0  0  0  0  0  0  0  0  0  0  0
    2.1190   -2.7490    0.7690 C   0  0  0  0  0  0  0  0  0  0  0  0
    0.9920   -1.9630    0.6870 C   0  0  0  0  0  0  0  0  0  0  0  0
    1.1450   -0.6390    0.3420 C   0  0  0  0  0  0  0  0  0  0  0  0
  1  2  2  0
  2  3  1  0
  2  4  1  0
  4  5  2  0
  4  9  1  0
  5  6  1  0
  6  7  2  0
  7  8  1  0
  8  9  2  0
  9 10  1  0
 10 11  2  0
 10 25  1  0
 11 12  1  0
 11 17  1  0
 12 13  2  0
 13 14  1  0
 14 15  2  0
 14 16  1  0
 16 17  2  0
 17 18  1  0
 18 19  1  0
 19 20  2  0
 19 25  1  0
 20 21  1  0
 21 22  1  0
 21 23  2  0
 23 24  1  0
 24 25  2  0
M  END
