
     RDKit          3D

 25 28  0  0  0  0  0  0  0  0999 V2000
    7.7380   -1.2880    1.6210 O   0  0  0  0  0  0  0  0  0  0  0  0
    6.9560   -1.2120    0.5000 C   0  0  0  0  0  0  0  0  0  0  0  0
    7.2760   -1.9330   -0.6090 C   0  0  0  0  0  0  0  0  0  0  0  0
    6.4800   -1.8440   -1.7200 C   0  0  0  0  0  0  0  0  0  0  0  0
    5.3710   -1.0300   -1.7040 C   0  0  0  0  0  0  0  0  0  0  0  0
    5.0350   -0.3000   -0.6000 C   0  0  0  0  0  0  0  0  0  0  0  0
    3.8260    0.5770   -0.6040 C   0  0  0  0  0  0  0  0  0  0  0  0
    2.7470   -0.2040   -0.1550 O   0  0  0  0  0  0  0  0  0  0  0  0
    1.4560    0.3020   -0.0340 C   0  0  0  0  0  0  0  0  0  0  0  0
    1.2480    1.6140   -0.3710 C   0  0  0  0  0  0  0  0  0  0  0  0
   -0.0040    2.1780   -0.2760 C   0  0  0  0  0  0  0  0  0  0  0  0
   -0.2450    3.4900   -0.6060 O   0  0  0  0  0  0  0  0  0  0  0  0
   -1.0400    1.3930    0.1660 C   0  0  0  0  0  0  0  0  0  0  0  0
   -0.8320    0.0750    0.5040 C   0  0  0  0  0  0  0  0  0  0  0  0
    0.4220   -0.4930    0.4090 C   0  0  0  0  0  0  0  0  0  0  0  0
   -2.0380   -0.4760    0.9130 O   0  0  0  0  0  0  0  0  0  0  0  0
   -3.0350    0.4070    0.4360 C   0  0  1  0  0  0  0  0  0  0  0  0
   -3.5110   -0.0850   -0.8940 C   0  0  0  0  0  0  0  0  0  0  0  0
   -4.2460   -1.3890   -0.6690 C   0  0  0  0  0  0  0  0  0  0  0  0
   -5.6610   -1.2050   -0.2420 C   0  0  0  0  0  0  0  0  0  0  0  0
   -6.1050    0.2370   -0.2140 C   0  0  0  0  0  0  0  0  0  0  0  0
   -5.3670    1.0780    0.7640 C   0  0  0  0  0  0  0  0  0  0  0  0
   -4.1830    0.4000    1.3970 C   0  0  0  0  0  0  0  0  0  0  0  0
   -2.3880    1.6620    0.3670 O   0  0  0  0  0  0  0  0  0  0  0  0
    5.8440   -0.3960    0.5170 C   0  0  0  0  0  0  0  0  0  0  0  0
  1  2  1  0
  2  3  2  0
  2 25  1  0
  3  4  1  0
  4  5  2  0
  5  6  1  0
  6  7  1  0
  6 25  2  0
  7  8  1  0
  8  9  1  0
  9 10  2  0
  9 15  1  0
 10 11  1  0
 11 12  1  0
 11 13  2  0
 13 14  1  0
 13 24  1  0
 14 15  2  0
 14 16  1  0
 16 17  1  0
 17 18  1  6
 17 23  1  0
 17 24  1  0
 18 19  1  0
 19 20  1  0
 20 21  1  0
 21 22  1  0
 22 23  1  0
M  END
