
     RDKit          3D

 25 28  0  0  0  0  0  0  0  0999 V2000
    1.2910    2.0690   -1.1240 O   0  0  0  0  0  0  0  0  0  0  0  0
    1.8160    1.0350   -0.6930 C   0  0  0  0  0  0  0  0  0  0  0  0
    1.0350   -0.0850   -0.4750 O   0  0  0  0  0  0  0  0  0  0  0  0
   -0.3300   -0.1140   -0.7180 C   0  0  0  0  0  0  0  0  0  0  0  0
   -0.8160   -0.4890   -1.9530 C   0  0  0  0  0  0  0  0  0  0  0  0
   -2.1790   -0.5190   -2.1950 C   0  0  0  0  0  0  0  0  0  0  0  0
   -3.1040   -0.1810   -1.2290 C   0  0  0  0  0  0  0  0  0  0  0  0
   -2.6150    0.1930    0.0030 C   0  0  0  0  0  0  0  0  0  0  0  0
   -1.2580    0.2240    0.2490 C   0  0  0  0  0  0  0  0  0  0  0  0
   -3.3590    0.5970    1.2000 C   0  0  2  0  0  0  0  0  0  0  0  0
   -2.5590    0.4070    2.3200 O   0  0  0  0  0  0  0  0  0  0  0  0
   -4.6270   -0.1920    1.4190 C   0  0  1  0  0  0  0  0  0  0  0  0
   -5.6990    0.6890    1.2860 O   0  0  0  0  0  0  0  0  0  0  0  0
   -4.7620   -1.3270    0.4280 C   0  0  0  0  0  0  0  0  0  0  0  0
   -5.4820   -0.7760   -0.7820 C   0  0  0  0  0  0  0  0  0  0  0  0
   -4.4670   -0.3050   -1.7700 C   0  0  0  0  0  0  0  0  0  0  0  0
    3.2580    0.9470   -0.3980 C   0  0  0  0  0  0  0  0  0  0  0  0
    4.1010    2.0220   -0.5900 C   0  0  0  0  0  0  0  0  0  0  0  0
    5.4450    1.9050   -0.3030 C   0  0  0  0  0  0  0  0  0  0  0  0
    6.0050    0.7380    0.1770 C   0  0  0  0  0  0  0  0  0  0  0  0
    5.1610   -0.3350    0.3680 C   0  0  0  0  0  0  0  0  0  0  0  0
    3.8160   -0.2190    0.0820 C   0  0  0  0  0  0  0  0  0  0  0  0
    6.0100   -1.4390    0.8800 C   0  0  0  0  0  0  0  0  0  0  0  0
    7.1660   -0.6960    1.4940 C   0  0  0  0  0  0  0  0  0  0  0  0
    7.3160    0.3690    0.5390 O   0  0  0  0  0  0  0  0  0  0  0  0
  1  2  2  0
  2  3  1  0
  2 17  1  0
  3  4  1  0
  4  5  2  0
  4  9  1  0
  5  6  1  0
  6  7  2  0
  7  8  1  0
  7 16  1  0
  8  9  2  0
  8 10  1  0
 10 11  1  1
 10 12  1  0
 12 13  1  6
 12 14  1  0
 14 15  1  0
 15 16  1  0
 17 18  2  0
 17 22  1  0
 18 19  1  0
 19 20  2  0
 20 21  1  0
 20 25  1  0
 21 22  2  0
 21 23  1  0
 23 24  1  0
 24 25  1  0
M  END
