
     RDKit          3D

 15 16  0  0  0  0  0  0  0  0999 V2000
   -2.6210    1.9690   -0.2150 N   0  0  0  0  0  0  0  0  0  0  0  0
   -2.2300    1.0950    0.8750 C   0  0  0  0  0  0  0  0  0  0  0  0
   -1.8470   -0.2290    0.3340 C   0  0  2  0  0  0  0  0  0  0  0  0
   -1.4520   -1.1540    1.2880 O   0  0  0  0  0  0  0  0  0  0  0  0
   -1.2170   -2.2700    0.4840 C   0  0  0  0  0  0  0  0  0  0  0  0
   -0.4720   -1.7600   -0.7430 C   0  0  0  0  0  0  0  0  0  0  0  0
   -0.7580   -0.2720   -0.6550 C   0  0  1  0  0  0  0  0  0  0  0  0
   -1.2580    0.1890   -1.8860 O   0  0  0  0  0  0  0  0  0  0  0  0
    0.4890    0.4430   -0.3670 C   0  0  1  0  0  0  0  0  0  0  0  0
    1.2450    0.0490    0.8430 C   0  0  0  0  0  0  0  0  0  0  0  0
    2.5110    0.9210    0.8960 C   0  0  0  0  0  0  0  0  0  0  0  0
    3.6780    0.1580    0.2630 C   0  0  0  0  0  0  0  0  0  0  0  0
    3.0340   -0.4830   -1.3240 S   0  0  0  0  0  0  0  0  0  0  0  0
    1.4100    0.2580   -1.5420 C   0  0  0  0  0  0  0  0  0  0  0  0
    1.0990    0.5960   -2.6610 O   0  0  0  0  0  0  0  0  0  0  0  0
  1  2  1  0
  3  2  1  1
  3  4  1  0
  3  7  1  0
  4  5  1  0
  5  6  1  0
  6  7  1  0
  7  8  1  6
  7  9  1  0
  9 10  1  1
  9 14  1  0
 10 11  1  0
 11 12  1  0
 12 13  1  0
 13 14  1  0
 14 15  2  0
M  END
