
     RDKit          3D

 16 17  0  0  0  0  0  0  0  0999 V2000
    0.4630    0.8850    0.8750 O   0  0  0  0  0  0  0  0  0  0  0  0
    0.7480    0.1450   -0.0920 C   0  0  0  0  0  0  0  0  0  0  0  0
   -0.0470   -0.9700   -0.3770 N   0  0  0  0  0  0  0  0  0  0  0  0
   -1.2140   -1.4080    0.2850 C   0  0  0  0  0  0  0  0  0  0  0  0
   -2.4710   -0.6470    0.2190 C   0  0  1  0  0  0  0  0  0  0  0  0
   -3.4180   -1.3410    1.0200 O   0  0  0  0  0  0  0  0  0  0  0  0
   -2.4150    0.7700    0.5530 C   0  0  0  0  0  0  0  0  0  0  0  0
   -3.8760    1.2760    0.4730 C   0  0  0  0  0  0  0  0  0  0  0  0
   -4.4760    0.3820   -1.0150 S   0  0  0  0  0  0  0  0  0  0  0  0
   -3.0320   -0.7430   -1.2060 C   0  0  0  0  0  0  0  0  0  0  0  0
    1.9590    0.4650   -0.9510 C   0  0  2  0  0  0  0  0  0  0  0  0
    2.9080   -0.6850   -0.7850 C   0  0  0  0  0  0  0  0  0  0  0  0
    3.8100   -0.1750    0.3210 C   0  0  0  0  0  0  0  0  0  0  0  0
    3.7900    1.3100    0.0190 C   0  0  2  0  0  0  0  0  0  0  0  0
    4.1540    2.0530    1.1390 O   0  0  0  0  0  0  0  0  0  0  0  0
    2.5340    1.5920   -0.4440 O   0  0  0  0  0  0  0  0  0  0  0  0
  1  2  2  0
  2  3  1  0
 11  2  1  1
  3  4  1  0
  4  5  1  0
  5  6  1  1
  5  7  1  0
  5 10  1  0
  7  8  1  0
  8  9  1  0
  9 10  1  0
 11 12  1  0
 11 16  1  0
 12 13  1  0
 13 14  1  0
 14 15  1  1
 14 16  1  0
M  END
