
     RDKit          3D

 16 17  0  0  0  0  0  0  0  0999 V2000
   -3.4140    1.0030    0.0130 C   0  0  0  0  0  0  0  0  0  0  0  0
   -2.2460    0.2590    0.6240 C   0  0  1  0  0  0  0  0  0  0  0  0
   -2.4250   -1.2210    0.4540 C   0  0  0  0  0  0  0  0  0  0  0  0
   -1.1740   -1.9740    0.7600 C   0  0  0  0  0  0  0  0  0  0  0  0
   -0.0100   -1.3370    0.3340 O   0  0  0  0  0  0  0  0  0  0  0  0
   -0.2820   -0.4170   -0.6390 C   0  0  2  0  0  0  0  0  0  0  0  0
    0.8230   -0.0730   -1.5530 C   0  0  0  0  0  0  0  0  0  0  0  0
    2.0420    0.4980   -1.0110 C   0  0  1  0  0  0  0  0  0  0  0  0
    1.8350    2.0700   -0.1260 S   0  0  0  0  0  0  0  0  0  0  0  0
    3.2080    1.8180    0.9910 C   0  0  0  0  0  0  0  0  0  0  0  0
    3.5700    2.5660    1.9000 O   0  0  0  0  0  0  0  0  0  0  0  0
    3.7760    0.5840    0.6030 N   0  0  0  0  0  0  0  0  0  0  0  0
    2.7680   -0.3110    0.0240 C   0  0  2  0  0  0  0  0  0  0  0  0
    3.3790   -1.3670   -0.5970 O   0  0  0  0  0  0  0  0  0  0  0  0
   -0.9540    0.7690    0.0120 C   0  0  1  0  0  0  0  0  0  0  0  0
   -1.2440    1.6820   -0.9970 O   0  0  0  0  0  0  0  0  0  0  0  0
  2  1  1  6
  2  3  1  0
  2 15  1  0
  3  4  1  0
  4  5  1  0
  5  6  1  0
  6  7  1  1
  6 15  1  0
  8  7  1  1
  8  9  1  0
  8 13  1  0
  9 10  1  0
 10 11  2  0
 10 12  1  0
 12 13  1  0
 13 14  1  6
 15 16  1  6
M  END
