
     RDKit          3D

 16 17  0  0  0  0  0  0  0  0999 V2000
   -2.4240   -0.2580   -1.4670 C   0  0  0  0  0  0  0  0  0  0  0  0
   -2.5400   -0.1760    0.0320 C   0  0  1  0  0  0  0  0  0  0  0  0
   -1.1790   -0.0480    0.6950 C   0  0  1  0  0  0  0  0  0  0  0  0
   -0.4660   -1.2290    0.4230 O   0  0  0  0  0  0  0  0  0  0  0  0
   -0.4600    1.1470    0.1320 C   0  0  0  0  0  0  0  0  0  0  0  0
    1.1630    1.3980    0.8420 S   0  0  0  0  0  0  0  0  0  0  0  0
    2.2430    0.0200    0.3590 C   0  0  1  0  0  0  0  0  0  0  0  0
    2.4980    0.0250   -1.1340 C   0  0  0  0  0  0  0  0  0  0  0  0
    3.8600   -0.3440   -1.3610 N   0  0  0  0  0  0  0  0  0  0  0  0
    4.4500   -0.6400   -0.0710 C   0  0  0  0  0  0  0  0  0  0  0  0
    3.6470    0.2130    0.8930 C   0  0  1  0  0  0  0  0  0  0  0  0
    4.0390    1.5310    0.7080 O   0  0  0  0  0  0  0  0  0  0  0  0
   -3.3530    1.0170    0.4760 C   0  0  0  0  0  0  0  0  0  0  0  0
   -4.6450    0.5080    0.4430 O   0  0  0  0  0  0  0  0  0  0  0  0
   -4.5050   -0.7890    0.9120 C   0  0  0  0  0  0  0  0  0  0  0  0
   -3.2650   -1.2430    0.4920 O   0  0  0  0  0  0  0  0  0  0  0  0
  2  1  1  6
  2  3  1  0
  2 13  1  0
  2 16  1  0
  3  4  1  6
  3  5  1  0
  5  6  1  0
  7  6  1  6
  7  8  1  0
  7 11  1  0
  8  9  1  0
  9 10  1  0
 10 11  1  0
 11 12  1  6
 13 14  1  0
 14 15  1  0
 15 16  1  0
M  END
