
     RDKit          3D

 15 16  0  0  0  0  0  0  0  0999 V2000
    1.1270   -2.1150    1.9600 N   0  0  0  0  0  0  0  0  0  0  0  0
    0.8520   -1.2270    1.2710 C   0  0  0  0  0  0  0  0  0  0  0  0
    0.5120   -0.1190    0.3820 C   0  0  2  0  0  0  0  0  0  0  0  0
    1.5150    0.0860   -0.6930 C   0  0  1  0  0  0  0  0  0  0  0  0
    2.7280    0.3710    0.0060 O   0  0  0  0  0  0  0  0  0  0  0  0
    1.8550   -1.1220   -1.5230 C   0  0  0  0  0  0  0  0  0  0  0  0
    2.9320   -0.7730   -2.3790 O   0  0  0  0  0  0  0  0  0  0  0  0
    0.6820    1.1470    1.2670 C   0  0  0  0  0  0  0  0  0  0  0  0
   -0.2870    2.0740    0.5910 C   0  0  0  0  0  0  0  0  0  0  0  0
   -1.0030    1.3460   -0.3560 O   0  0  0  0  0  0  0  0  0  0  0  0
   -0.9130    0.0300    0.0680 C   0  0  1  0  0  0  0  0  0  0  0  0
   -1.6120   -0.9650   -0.7300 C   0  0  0  0  0  0  0  0  0  0  0  0
   -2.9940   -0.3310   -0.9820 C   0  0  0  0  0  0  0  0  0  0  0  0
   -3.3840    0.1450    0.7510 S   0  0  0  0  0  0  0  0  0  0  0  0
   -1.6710   -0.0200    1.4100 C   0  0  0  0  0  0  0  0  0  0  0  0
  1  2  3  0
  3  2  1  1
  3  4  1  0
  3  8  1  0
  3 11  1  0
  4  5  1  1
  4  6  1  0
  6  7  1  0
  8  9  1  0
  9 10  1  0
 10 11  1  0
 11 12  1  6
 11 15  1  0
 12 13  1  0
 13 14  1  0
 14 15  1  0
M  END
