
     RDKit          3D

 16 17  0  0  0  0  0  0  0  0999 V2000
   -2.5900   -2.2440    0.7590 C   0  0  0  0  0  0  0  0  0  0  0  0
   -1.7120   -1.4480   -0.1860 C   0  0  1  0  0  0  0  0  0  0  0  0
   -1.6710   -0.0380    0.2320 C   0  0  0  0  0  0  0  0  0  0  0  0
   -0.6130    0.8290   -0.3270 C   0  0  2  0  0  0  0  0  0  0  0  0
   -0.7050    2.1610    0.3940 C   0  0  0  0  0  0  0  0  0  0  0  0
    0.0370    2.9960   -0.4660 O   0  0  0  0  0  0  0  0  0  0  0  0
   -0.2870    2.5780   -1.7520 C   0  0  0  0  0  0  0  0  0  0  0  0
   -0.0640    3.2970   -2.7710 O   0  0  0  0  0  0  0  0  0  0  0  0
   -0.8730    1.2760   -1.6880 N   0  0  0  0  0  0  0  0  0  0  0  0
    0.7820    0.3060   -0.2930 C   0  0  1  0  0  0  0  0  0  0  0  0
    1.6120    1.2910   -0.8330 O   0  0  0  0  0  0  0  0  0  0  0  0
    1.2900    0.0010    1.0860 C   0  0  0  0  0  0  0  0  0  0  0  0
    2.7050   -0.5210    1.0240 C   0  0  0  0  0  0  0  0  0  0  0  0
    3.1670   -0.8000    2.3210 O   0  0  0  0  0  0  0  0  0  0  0  0
    0.9190   -0.9140   -1.1590 C   0  0  0  0  0  0  0  0  0  0  0  0
   -0.0720   -2.2210   -0.3460 S   0  0  0  0  0  0  0  0  0  0  0  0
  2  1  1  1
  2  3  1  0
  2 16  1  0
  4  3  1  1
  4  5  1  0
  4  9  1  0
  4 10  1  0
  5  6  1  0
  6  7  1  0
  7  8  2  0
  7  9  1  0
 10 11  1  6
 10 12  1  0
 10 15  1  0
 12 13  1  0
 13 14  1  0
 15 16  1  0
M  END
