
     RDKit          3D

 20 20  0  0  0  0  0  0  0  0999 V2000
    0.6040    4.2090   -0.4780 C   0  0  0  0  0  0  0  0  0  0  0  0
    0.1630    2.9790    0.0440 O   0  0  0  0  0  0  0  0  0  0  0  0
    0.5390    1.7460   -0.4430 C   0  0  0  0  0  0  0  0  0  0  0  0
    1.3300    1.7170   -1.4210 O   0  0  0  0  0  0  0  0  0  0  0  0
    0.0400    0.4550    0.1490 C   0  0  2  0  0  0  0  0  0  0  0  0
    1.1990   -0.3170    0.6790 C   0  0  0  0  0  0  0  0  0  0  0  0
    1.2920   -0.6180    1.9150 O   0  0  0  0  0  0  0  0  0  0  0  0
    2.2570   -0.7600   -0.1500 N   0  0  0  0  0  0  0  0  0  0  0  0
    3.3770   -1.5170    0.4130 C   0  0  0  0  0  0  0  0  0  0  0  0
    4.3520   -1.8580   -0.6880 C   0  0  0  0  0  0  0  0  0  0  0  0
    5.4120   -2.5780   -0.1380 O   0  0  0  0  0  0  0  0  0  0  0  0
   -0.5700   -0.3610   -0.9570 C   0  0  0  0  0  0  0  0  0  0  0  0
   -1.6320   -1.2640   -0.3510 C   0  0  0  0  0  0  0  0  0  0  0  0
   -2.7070   -0.3460    0.1830 C   0  0  1  0  0  0  0  0  0  0  0  0
   -3.4570    0.0660   -0.9420 O   0  0  0  0  0  0  0  0  0  0  0  0
   -3.6840   -1.1040    1.0680 C   0  0  0  0  0  0  0  0  0  0  0  0
   -3.0620   -1.5660    2.2200 O   0  0  0  0  0  0  0  0  0  0  0  0
   -2.1260    0.8420    0.8780 C   0  0  2  0  0  0  0  0  0  0  0  0
   -2.4080    2.0230    0.1590 O   0  0  0  0  0  0  0  0  0  0  0  0
   -0.7960    0.7290    1.1880 O   0  0  0  0  0  0  0  0  0  0  0  0
  1  2  1  0
  2  3  1  0
  3  4  2  0
  5  3  1  6
  5  6  1  0
  5 12  1  0
  5 20  1  0
  6  7  2  0
  6  8  1  0
  8  9  1  0
  9 10  1  0
 10 11  1  0
 12 13  1  0
 13 14  1  0
 14 15  1  6
 14 16  1  0
 14 18  1  0
 16 17  1  0
 18 19  1  6
 18 20  1  0
M  END
