
     RDKit          3D

 19 19  0  0  0  0  0  0  0  0999 V2000
    0.3330   -1.1720   -0.6640 C   0  0  0  0  0  0  0  0  0  0  0  0
    0.1440   -0.1570    0.4110 C   0  0  1  0  0  0  0  0  0  0  0  0
   -0.3520   -0.8760    1.5410 O   0  0  0  0  0  0  0  0  0  0  0  0
    1.4910    0.3550    0.9460 C   0  0  2  0  0  0  0  0  0  0  0  0
    2.2110    1.2790    0.0430 C   0  0  0  0  0  0  0  0  0  0  0  0
    2.8870    0.5860   -0.9930 O   0  0  0  0  0  0  0  0  0  0  0  0
    3.9050   -0.0900   -0.3280 C   0  0  2  0  0  0  0  0  0  0  0  0
    4.7710   -0.7370   -1.2880 N   0  0  0  0  0  0  0  0  0  0  0  0
    3.3150   -1.0700    0.6030 C   0  0  0  0  0  0  0  0  0  0  0  0
    2.2120   -0.7650    1.2950 O   0  0  0  0  0  0  0  0  0  0  0  0
   -0.8390    0.9150    0.1440 C   0  0  1  0  0  0  0  0  0  0  0  0
   -0.4630    1.7460   -0.9280 O   0  0  0  0  0  0  0  0  0  0  0  0
   -2.2000    0.3970   -0.2390 C   0  0  2  0  0  0  0  0  0  0  0  0
   -3.1650    1.5450   -0.4860 C   0  0  0  0  0  0  0  0  0  0  0  0
   -3.3160    2.3210    0.6480 O   0  0  0  0  0  0  0  0  0  0  0  0
   -2.8160   -0.5890    0.6850 C   0  0  0  0  0  0  0  0  0  0  0  0
   -4.1680   -0.9390    0.1320 C   0  0  0  0  0  0  0  0  0  0  0  0
   -5.2170   -0.3510    0.4580 O   0  0  0  0  0  0  0  0  0  0  0  0
   -4.2570   -1.9650   -0.7830 O   0  0  0  0  0  0  0  0  0  0  0  0
  2  1  1  6
  2  3  1  0
  2  4  1  0
  2 11  1  0
  4  5  1  6
  4 10  1  0
  5  6  1  0
  6  7  1  0
  7  8  1  6
  7  9  1  0
  9 10  1  0
 11 12  1  6
 11 13  1  0
 13 14  1  1
 13 16  1  0
 14 15  1  0
 16 17  1  0
 17 18  2  0
 17 19  1  0
M  END
