
     RDKit          3D

 20 20  0  0  0  0  0  0  0  0999 V2000
   -0.3370   -1.9660   -0.6970 C   0  0  0  0  0  0  0  0  0  0  0  0
   -0.6470   -0.5080   -0.4980 C   0  0  2  0  0  0  0  0  0  0  0  0
    0.0620    0.3370   -1.3450 O   0  0  0  0  0  0  0  0  0  0  0  0
   -0.3640   -0.1300    0.9190 C   0  0  0  0  0  0  0  0  0  0  0  0
    1.0510   -0.3530    1.3130 C   0  0  2  0  0  0  0  0  0  0  0  0
    1.1580    0.0470    2.6670 O   0  0  0  0  0  0  0  0  0  0  0  0
    2.0710    0.4510    0.5690 C   0  0  0  0  0  0  0  0  0  0  0  0
    3.3250    0.1350    1.1480 O   0  0  0  0  0  0  0  0  0  0  0  0
    4.3430    0.8450    0.5120 C   0  0  1  0  0  0  0  0  0  0  0  0
    4.1660    2.2150    0.6120 O   0  0  0  0  0  0  0  0  0  0  0  0
    5.5590    0.4570    1.0710 O   0  0  0  0  0  0  0  0  0  0  0  0
    4.3850    0.5120   -0.9170 N   0  0  0  0  0  0  0  0  0  0  0  0
    4.6110   -0.7960   -1.1220 O   0  0  0  0  0  0  0  0  0  0  0  0
   -2.1300   -0.2260   -0.8070 C   0  0  1  0  0  0  0  0  0  0  0  0
   -2.3100   -0.5140   -2.2830 C   0  0  0  0  0  0  0  0  0  0  0  0
   -3.0130   -1.1450   -0.0200 C   0  0  0  0  0  0  0  0  0  0  0  0
   -3.8640   -0.4350    0.8420 O   0  0  0  0  0  0  0  0  0  0  0  0
   -4.5780    0.4520    0.0100 C   0  0  0  0  0  0  0  0  0  0  0  0
   -3.6330    1.5020   -0.4630 C   0  0  0  0  0  0  0  0  0  0  0  0
   -2.3210    1.1110   -0.5300 O   0  0  0  0  0  0  0  0  0  0  0  0
  2  1  1  1
  2  3  1  0
  2  4  1  0
  2 14  1  0
  4  5  1  0
  5  6  1  1
  5  7  1  0
  7  8  1  0
  8  9  1  0
  9 10  1  6
  9 11  1  0
  9 12  1  0
 12 13  1  0
 14 15  1  6
 14 16  1  0
 14 20  1  0
 16 17  1  0
 17 18  1  0
 18 19  1  0
 19 20  1  0
M  END
