
     RDKit          3D

 20 20  0  0  0  0  0  0  0  0999 V2000
    2.0840   -0.5700   -1.4470 O   0  0  0  0  0  0  0  0  0  0  0  0
    2.0990   -0.5140   -0.1980 C   0  0  0  0  0  0  0  0  0  0  0  0
    1.0030   -0.8410    0.6400 N   0  0  0  0  0  0  0  0  0  0  0  0
   -0.2510   -1.2660    0.1450 C   0  0  0  0  0  0  0  0  0  0  0  0
   -1.0390   -0.3390   -0.6980 C   0  0  1  0  0  0  0  0  0  0  0  0
   -0.3170   -0.0210   -1.8460 O   0  0  0  0  0  0  0  0  0  0  0  0
   -2.2760   -1.0530   -1.1770 C   0  0  0  0  0  0  0  0  0  0  0  0
   -3.3610   -1.2070   -0.1610 C   0  0  1  0  0  0  0  0  0  0  0  0
   -3.1010   -2.1490    0.8170 O   0  0  0  0  0  0  0  0  0  0  0  0
   -3.8000    0.1150    0.4290 C   0  0  0  0  0  0  0  0  0  0  0  0
   -2.9410    1.2250   -0.1270 C   0  0  0  0  0  0  0  0  0  0  0  0
   -1.4640    0.9260   -0.0100 C   0  0  2  0  0  0  0  0  0  0  0  0
   -0.8340    1.9830   -0.6730 O   0  0  0  0  0  0  0  0  0  0  0  0
   -1.0470    0.9940    1.4000 C   0  0  0  0  0  0  0  0  0  0  0  0
   -0.2710    1.8750    1.7930 O   0  0  0  0  0  0  0  0  0  0  0  0
   -1.5250    0.0670    2.2950 O   0  0  0  0  0  0  0  0  0  0  0  0
    3.2950   -0.0960    0.3880 O   0  0  0  0  0  0  0  0  0  0  0  0
    4.4170    0.2400   -0.4370 C   0  0  0  0  0  0  0  0  0  0  0  0
    5.5350    0.6470    0.4880 C   0  0  0  0  0  0  0  0  0  0  0  0
    6.6530    0.9840   -0.2710 O   0  0  0  0  0  0  0  0  0  0  0  0
  1  2  2  0
  2  3  1  0
  2 17  1  0
  3  4  1  0
  4  5  1  0
  5  6  1  6
  5  7  1  0
  5 12  1  0
  7  8  1  0
  8  9  1  1
  8 10  1  0
 10 11  1  0
 11 12  1  0
 12 13  1  6
 12 14  1  0
 14 15  2  0
 14 16  1  0
 17 18  1  0
 18 19  1  0
 19 20  1  0
M  END
