
     RDKit          3D

 19 19  0  0  0  0  0  0  0  0999 V2000
    1.2500    1.3040    1.4910 O   0  0  0  0  0  0  0  0  0  0  0  0
    1.3300    0.9480    0.2980 C   0  0  0  0  0  0  0  0  0  0  0  0
    0.2450    0.4600   -0.3870 O   0  0  0  0  0  0  0  0  0  0  0  0
   -1.0070    0.3360    0.2030 C   0  0  1  0  0  0  0  0  0  0  0  0
   -1.5370    1.6870    0.6730 C   0  0  0  0  0  0  0  0  0  0  0  0
   -1.6480    2.5650   -0.4070 O   0  0  0  0  0  0  0  0  0  0  0  0
   -2.0610   -0.1550   -0.8020 C   0  0  0  0  0  0  0  0  0  0  0  0
   -3.1610   -0.7780    0.0250 C   0  0  1  0  0  0  0  0  0  0  0  0
   -4.3860   -0.7620   -0.6080 O   0  0  0  0  0  0  0  0  0  0  0  0
   -2.6910   -2.2180    0.3000 C   0  0  0  0  0  0  0  0  0  0  0  0
   -1.4940   -1.9770    1.1280 N   0  0  0  0  0  0  0  0  0  0  0  0
   -1.0180   -0.6490    1.3250 C   0  0  0  0  0  0  0  0  0  0  0  0
   -0.5920   -0.2850    2.4760 O   0  0  0  0  0  0  0  0  0  0  0  0
    2.6700    1.0800   -0.3440 C   0  0  2  0  0  0  0  0  0  0  0  0
    2.6610    0.6630   -1.6610 O   0  0  0  0  0  0  0  0  0  0  0  0
    3.6930    0.3370    0.3920 C   0  0  0  0  0  0  0  0  0  0  0  0
    4.0100    0.6060    1.7320 O   0  0  0  0  0  0  0  0  0  0  0  0
    4.3710   -0.6340   -0.1840 C   0  0  0  0  0  0  0  0  0  0  0  0
    4.1000   -0.9430   -1.5050 O   0  0  0  0  0  0  0  0  0  0  0  0
  1  2  2  0
  2  3  1  0
  2 14  1  0
  3  4  1  0
  4  5  1  1
  4  7  1  0
  4 12  1  0
  5  6  1  0
  7  8  1  0
  8  9  1  6
  8 10  1  0
 10 11  1  0
 11 12  1  0
 12 13  2  0
 14 15  1  6
 14 16  1  0
 16 17  1  0
 16 18  2  3
 18 19  1  0
M  END
