
     RDKit          3D

 19 19  0  0  0  0  0  0  0  0999 V2000
   -1.7780   -0.1990   -0.9740 C   0  0  0  0  0  0  0  0  0  0  0  0
   -1.2080    0.0640    0.4100 C   0  0  2  0  0  0  0  0  0  0  0  0
   -1.2470   -1.2470    1.1760 C   0  0  1  0  0  0  0  0  0  0  0  0
   -0.9050   -1.0920    2.5100 O   0  0  0  0  0  0  0  0  0  0  0  0
   -2.7110   -1.7210    1.2040 C   0  0  0  0  0  0  0  0  0  0  0  0
   -3.5360   -0.7950    1.8170 O   0  0  0  0  0  0  0  0  0  0  0  0
   -2.1410    0.8740    1.0560 O   0  0  0  0  0  0  0  0  0  0  0  0
   -2.1750    2.1720    0.6310 C   0  0  0  0  0  0  0  0  0  0  0  0
   -0.9270    2.7780    0.6400 O   0  0  0  0  0  0  0  0  0  0  0  0
    0.0110    2.1120   -0.1030 C   0  0  0  0  0  0  0  0  0  0  0  0
    0.1610    0.6790    0.3400 C   0  0  1  0  0  0  0  0  0  0  0  0
    0.7870    0.7100    1.7040 C   0  0  0  0  0  0  0  0  0  0  0  0
    1.0270   -0.0160   -0.6880 C   0  0  2  0  0  0  0  0  0  0  0  0
    1.2050   -1.3520   -0.4100 O   0  0  0  0  0  0  0  0  0  0  0  0
    2.3140    0.6570   -0.9490 C   0  0  0  0  0  0  0  0  0  0  0  0
    3.0840    0.1400   -2.0470 N   0  0  0  0  0  0  0  0  0  0  0  0
    3.6410   -1.1450   -2.1320 C   0  0  0  0  0  0  0  0  0  0  0  0
    3.5070   -1.9670   -1.2020 O   0  0  0  0  0  0  0  0  0  0  0  0
    4.3710   -1.5800   -3.2460 O   0  0  0  0  0  0  0  0  0  0  0  0
  2  1  1  6
  2  3  1  0
  2  7  1  0
  2 11  1  0
  3  4  1  1
  3  5  1  0
  5  6  1  0
  7  8  1  0
  8  9  1  0
  9 10  1  0
 10 11  1  0
 11 12  1  1
 11 13  1  0
 13 14  1  1
 13 15  1  0
 15 16  1  0
 16 17  1  0
 17 18  2  0
 17 19  1  0
M  END
