
     RDKit          3D

 20 20  0  0  0  0  0  0  0  0999 V2000
    3.5670    2.4930    0.1300 C   0  0  0  0  0  0  0  0  0  0  0  0
    2.6830    1.3670    0.4840 C   0  0  0  0  0  0  0  0  0  0  0  0
    2.6420    1.0460    1.7190 O   0  0  0  0  0  0  0  0  0  0  0  0
    1.8990    0.6420   -0.4480 N   0  0  0  0  0  0  0  0  0  0  0  0
    1.0490   -0.4490   -0.0700 C   0  0  2  0  0  0  0  0  0  0  0  0
    1.4840   -1.7550   -0.7480 C   0  0  1  0  0  0  0  0  0  0  0  0
    2.8370   -1.9410   -0.6970 O   0  0  0  0  0  0  0  0  0  0  0  0
    0.6960   -2.8320   -0.1100 C   0  0  0  0  0  0  0  0  0  0  0  0
   -0.5340   -2.5860    0.2840 C   0  0  0  0  0  0  0  0  0  0  0  0
   -1.2870   -3.6590    0.9070 C   0  0  0  0  0  0  0  0  0  0  0  0
   -2.4600   -3.4420    1.2890 O   0  0  0  0  0  0  0  0  0  0  0  0
   -0.7370   -4.9140    1.0890 O   0  0  0  0  0  0  0  0  0  0  0  0
   -1.1250   -1.3190    0.1150 O   0  0  0  0  0  0  0  0  0  0  0  0
   -0.3910   -0.2500   -0.4560 C   0  0  1  0  0  0  0  0  0  0  0  0
   -0.9290    1.0910   -0.0190 C   0  0  2  0  0  0  0  0  0  0  0  0
   -0.8910    1.2900    1.3380 O   0  0  0  0  0  0  0  0  0  0  0  0
   -2.4040    1.1160   -0.4410 C   0  0  2  0  0  0  0  0  0  0  0  0
   -2.4690    0.9150   -1.8190 O   0  0  0  0  0  0  0  0  0  0  0  0
   -2.9980    2.4750   -0.1460 C   0  0  0  0  0  0  0  0  0  0  0  0
   -2.9290    2.6680    1.2320 O   0  0  0  0  0  0  0  0  0  0  0  0
  1  2  1  0
  2  3  2  0
  2  4  1  0
  5  4  1  6
  5  6  1  0
  5 14  1  0
  6  7  1  1
  6  8  1  0
  8  9  2  0
  9 10  1  0
  9 13  1  0
 10 11  2  0
 10 12  1  0
 14 13  1  1
 14 15  1  0
 15 16  1  1
 15 17  1  0
 17 18  1  6
 17 19  1  0
 19 20  1  0
M  END
