
     RDKit          3D

 19 19  0  0  0  0  0  0  0  0999 V2000
    5.0870    0.3350    0.1990 N   0  0  0  0  0  0  0  0  0  0  0  0
    4.2840   -0.4820    1.0700 C   0  0  0  0  0  0  0  0  0  0  0  0
    3.0040   -0.9110    0.4270 C   0  0  2  0  0  0  0  0  0  0  0  0
    3.2850   -1.6430   -0.7080 O   0  0  0  0  0  0  0  0  0  0  0  0
    2.1050    0.2330    0.0620 C   0  0  2  0  0  0  0  0  0  0  0  0
    2.6460    1.0980   -0.8620 O   0  0  0  0  0  0  0  0  0  0  0  0
    1.6690    1.0390    1.2580 C   0  0  0  0  0  0  0  0  0  0  0  0
    0.7210    1.9690    0.8550 O   0  0  0  0  0  0  0  0  0  0  0  0
    0.8230   -0.4090   -0.5270 C   0  0  0  0  0  0  0  0  0  0  0  0
   -0.0650    0.5780   -0.8130 O   0  0  0  0  0  0  0  0  0  0  0  0
   -1.2510    0.2790   -1.3830 C   0  0  0  0  0  0  0  0  0  0  0  0
   -2.1340   -0.6320   -0.6080 C   0  0  2  0  0  0  0  0  0  0  0  0
   -1.5570   -1.8760   -0.4150 O   0  0  0  0  0  0  0  0  0  0  0  0
   -3.4280   -0.8030   -1.3890 C   0  0  0  0  0  0  0  0  0  0  0  0
   -4.0210    0.5480   -1.6530 C   0  0  0  0  0  0  0  0  0  0  0  0
   -3.8680    1.4520   -0.6280 O   0  0  0  0  0  0  0  0  0  0  0  0
   -3.7600    0.8380    0.6190 C   0  0  0  0  0  0  0  0  0  0  0  0
   -2.5190   -0.0040    0.7190 C   0  0  1  0  0  0  0  0  0  0  0  0
   -2.7270   -0.9920    1.6690 O   0  0  0  0  0  0  0  0  0  0  0  0
  1  2  1  0
  2  3  1  0
  3  4  1  6
  3  5  1  0
  5  6  1  6
  5  7  1  0
  5  9  1  0
  7  8  1  0
  9 10  1  0
 10 11  1  0
 11 12  1  0
 12 13  1  1
 12 14  1  0
 12 18  1  0
 14 15  1  0
 15 16  1  0
 16 17  1  0
 17 18  1  0
 18 19  1  1
M  END
