
     RDKit          3D

 22 23  0  0  0  0  0  0  0  0999 V2000
   -1.9980    2.5320   -0.3730 C   0  0  0  0  0  0  0  0  0  0  0  0
   -1.6680    1.3440    0.5080 C   0  0  1  0  0  0  0  0  0  0  0  0
   -1.8440    1.6790    1.8310 O   0  0  0  0  0  0  0  0  0  0  0  0
   -2.6060    0.2260    0.0680 C   0  0  2  0  0  0  0  0  0  0  0  0
   -2.5860   -0.9390    0.9800 C   0  0  0  0  0  0  0  0  0  0  0  0
   -3.5080   -2.0170    0.4990 C   0  0  0  0  0  0  0  0  0  0  0  0
   -4.9450   -1.6770    0.3890 C   0  0  0  0  0  0  0  0  0  0  0  0
   -5.2950   -0.6780   -0.4730 O   0  0  0  0  0  0  0  0  0  0  0  0
   -2.0340   -0.1300   -1.1510 O   0  0  0  0  0  0  0  0  0  0  0  0
   -0.6630   -0.2120   -0.9070 C   0  0  0  0  0  0  0  0  0  0  0  0
   -0.3310    0.7410    0.1960 C   0  0  2  0  0  0  0  0  0  0  0  0
    0.2230    0.0980    1.3240 O   0  0  0  0  0  0  0  0  0  0  0  0
    0.7040    1.7560   -0.2390 C   0  0  0  0  0  0  0  0  0  0  0  0
    1.9600    1.0090   -0.5070 C   0  0  0  0  0  0  0  0  0  0  0  0
    2.1400    0.4350   -1.6050 O   0  0  0  0  0  0  0  0  0  0  0  0
    2.9780    0.9130    0.4320 O   0  0  0  0  0  0  0  0  0  0  0  0
    4.1420    0.2250    0.1960 C   0  0  0  0  0  0  0  0  0  0  0  0
    5.2370    0.7170   -0.3220 C   0  0  0  0  0  0  0  0  0  0  0  0
    6.2370   -0.3780   -0.3950 C   0  0  0  0  0  0  0  0  0  0  0  0
    5.5440   -1.5550    0.1560 C   0  0  0  0  0  0  0  0  0  0  0  0
    4.3240   -1.2020    0.5000 C   0  0  0  0  0  0  0  0  0  0  0  0
    3.3660   -2.0290    1.0550 O   0  0  0  0  0  0  0  0  0  0  0  0
  2  1  1  6
  2  3  1  0
  2  4  1  0
  2 11  1  0
  4  5  1  1
  4  9  1  0
  5  6  1  0
  6  7  1  0
  7  8  1  0
  9 10  1  0
 10 11  1  0
 11 12  1  1
 11 13  1  0
 13 14  1  0
 14 15  2  0
 14 16  1  0
 16 17  1  0
 17 18  2  0
 17 21  1  0
 18 19  1  0
 19 20  1  0
 20 21  2  0
 21 22  1  0
M  END
