
     RDKit          3D

 24 26  0  0  0  0  0  0  0  0999 V2000
   -6.1890   -1.2460   -1.3630 C   0  0  0  0  0  0  0  0  0  0  0  0
   -5.3450   -0.3470   -0.8900 C   0  0  0  0  0  0  0  0  0  0  0  0
   -4.9560    0.9090   -1.5820 C   0  0  0  0  0  0  0  0  0  0  0  0
   -4.3220    1.7350   -0.5090 C   0  0  1  0  0  0  0  0  0  0  0  0
   -5.2940    2.4410    0.1700 O   0  0  0  0  0  0  0  0  0  0  0  0
   -3.6350    0.7000    0.3620 C   0  0  2  0  0  0  0  0  0  0  0  0
   -2.4470    0.2850   -0.3400 N   0  0  0  0  0  0  0  0  0  0  0  0
   -1.1410    0.3800    0.2360 C   0  0  0  0  0  0  0  0  0  0  0  0
   -1.0910    0.8430    1.3830 O   0  0  0  0  0  0  0  0  0  0  0  0
    0.0180   -0.0150   -0.4230 N   0  0  0  0  0  0  0  0  0  0  0  0
    1.3390    0.0480    0.0760 C   0  0  0  0  0  0  0  0  0  0  0  0
    1.7020    0.5380    1.3090 C   0  0  0  0  0  0  0  0  0  0  0  0
    3.0250    0.5730    1.7490 C   0  0  0  0  0  0  0  0  0  0  0  0
    4.0550    0.0990    0.9320 C   0  0  0  0  0  0  0  0  0  0  0  0
    3.7230   -0.3940   -0.3010 C   0  0  0  0  0  0  0  0  0  0  0  0
    2.4080   -0.4130   -0.7000 C   0  0  0  0  0  0  0  0  0  0  0  0
    4.8010   -0.9000   -1.1860 C   0  0  0  0  0  0  0  0  0  0  0  0
    6.0120   -1.2930   -0.4120 C   0  0  0  0  0  0  0  0  0  0  0  0
    6.4140   -0.0900    0.3390 N   0  0  0  0  0  0  0  0  0  0  0  0
    5.4580    0.1270    1.3820 C   0  0  0  0  0  0  0  0  0  0  0  0
   -4.6340   -0.3950    0.3750 C   0  0  0  0  0  0  0  0  0  0  0  0
   -4.8180   -1.2410    1.3710 C   0  0  0  0  0  0  0  0  0  0  0  0
   -5.7500   -2.2200    1.3190 F   0  0  0  0  0  0  0  0  0  0  0  0
   -3.8530   -1.1380    2.8280 Cl  0  0  0  0  0  0  0  0  0  0  0  0
  1  2  2  0
  2  3  1  0
  2 21  1  0
  3  4  1  0
  4  5  1  1
  4  6  1  0
  6  7  1  6
  6 21  1  0
  7  8  1  0
  8  9  2  0
  8 10  1  0
 10 11  1  0
 11 12  2  0
 11 16  1  0
 12 13  1  0
 13 14  2  0
 14 15  1  0
 14 20  1  0
 15 16  2  0
 15 17  1  0
 17 18  1  0
 18 19  1  0
 19 20  1  0
 21 22  2  3
 22 23  1  0
 22 24  1  0
M  CHG  1  19   1
M  END
