
     RDKit          3D

 23 25  0  0  0  0  0  0  0  0999 V2000
   -4.2490    3.0540   -1.0020 C   0  0  0  0  0  0  0  0  0  0  0  0
   -3.8580    2.4790    0.3290 C   0  0  0  0  0  0  0  0  0  0  0  0
   -3.2630    1.1310    0.2210 C   0  0  0  0  0  0  0  0  0  0  0  0
   -4.0050    0.0020   -0.0100 C   0  0  0  0  0  0  0  0  0  0  0  0
   -5.4250    0.1410   -0.1510 N   0  0  0  0  0  0  0  0  0  0  0  0
   -3.4290   -1.1770   -0.0980 O   0  0  0  0  0  0  0  0  0  0  0  0
   -2.1360   -1.3430    0.0250 C   0  0  0  0  0  0  0  0  0  0  0  0
   -1.6050   -2.6190   -0.0840 C   0  0  0  0  0  0  0  0  0  0  0  0
   -2.6770   -3.9760   -0.3820 Cl  0  0  0  0  0  0  0  0  0  0  0  0
   -0.2600   -2.8720    0.0320 C   0  0  0  0  0  0  0  0  0  0  0  0
    0.3090   -4.2520   -0.0870 C   0  0  0  0  0  0  0  0  0  0  0  0
    0.5490   -1.7750    0.2670 C   0  0  0  0  0  0  0  0  0  0  0  0
    0.0890   -0.4820    0.3870 C   0  0  0  0  0  0  0  0  0  0  0  0
    0.9610    0.5860    0.6860 N   0  0  0  0  0  0  0  0  0  0  0  0
    2.3910    0.4360    0.5650 C   0  0  0  0  0  0  0  0  0  0  0  0
    2.9530   -0.1700   -0.4110 N   0  0  0  0  0  0  0  0  0  0  0  0
    4.4070   -0.1670   -0.2670 C   0  0  1  0  0  0  0  0  0  0  0  0
    5.0170    0.9990   -1.0170 C   0  0  0  0  0  0  0  0  0  0  0  0
    4.6080    0.0970    1.2110 C   0  0  0  0  0  0  0  0  0  0  0  0
    3.4070    0.9660    1.5090 C   0  0  0  0  0  0  0  0  0  0  0  0
   -1.2650   -0.2680    0.2640 C   0  0  0  0  0  0  0  0  0  0  0  0
   -1.8790    0.9600    0.3540 C   0  0  0  0  0  0  0  0  0  0  0  0
   -1.1980    1.9810    0.5610 O   0  0  0  0  0  0  0  0  0  0  0  0
  1  2  1  0
  2  3  1  0
  3  4  2  0
  3 22  1  0
  4  5  1  0
  4  6  1  0
  6  7  1  0
  7  8  2  0
  7 21  1  0
  8  9  1  0
  8 10  1  0
 10 11  1  0
 10 12  2  0
 12 13  1  0
 13 14  1  0
 13 21  2  0
 14 15  1  0
 15 16  2  0
 15 20  1  0
 16 17  1  0
 17 18  1  6
 17 19  1  0
 19 20  1  0
 21 22  1  0
 22 23  2  0
M  CHG  1  16   1
M  END
