
     RDKit          3D

 22 23  0  0  0  0  0  0  0  0999 V2000
    4.4270    0.8950    0.8520 C   0  0  0  0  0  0  0  0  0  0  0  0
    4.3070    0.9830   -0.4430 C   0  0  0  0  0  0  0  0  0  0  0  0
    5.3630    0.5170   -1.2700 O   0  0  0  0  0  0  0  0  0  0  0  0
    4.9870    0.0380   -2.4760 O   0  0  0  0  0  0  0  0  0  0  0  0
    4.3370    1.0530   -3.1820 C   0  0  0  0  0  0  0  0  0  0  0  0
    3.1730    1.5590   -2.4390 C   0  0  0  0  0  0  0  0  0  0  0  0
    3.1450    1.5320   -1.0790 C   0  0  0  0  0  0  0  0  0  0  0  0
    2.0130    2.0300   -0.5030 O   0  0  0  0  0  0  0  0  0  0  0  0
    0.8090    1.3250   -0.2650 C   0  0  0  0  0  0  0  0  0  0  0  0
    0.9000    0.2250    0.7430 C   0  0  1  0  0  0  0  0  0  0  0  0
    1.1660    0.8210    1.9710 O   0  0  0  0  0  0  0  0  0  0  0  0
   -0.1570   -0.7900    0.7510 C   0  0  1  0  0  0  0  0  0  0  0  0
    0.1320   -1.8270    1.6610 O   0  0  0  0  0  0  0  0  0  0  0  0
   -1.5750   -0.4230    0.8620 C   0  0  2  0  0  0  0  0  0  0  0  0
   -1.9640    0.3530    2.0990 C   0  0  0  0  0  0  0  0  0  0  0  0
   -1.3200    1.5620    2.2550 O   0  0  0  0  0  0  0  0  0  0  0  0
   -2.3100   -1.7820    1.0570 C   0  0  0  0  0  0  0  0  0  0  0  0
   -2.5170   -2.3900   -0.3040 C   0  0  0  0  0  0  0  0  0  0  0  0
   -3.7630   -1.7170   -0.8950 C   0  0  2  0  0  0  0  0  0  0  0  0
   -3.8160   -1.8330   -2.2660 O   0  0  0  0  0  0  0  0  0  0  0  0
   -3.6650   -0.2520   -0.4640 C   0  0  0  0  0  0  0  0  0  0  0  0
   -2.2180    0.1970   -0.3310 C   0  0  0  0  0  0  0  0  0  0  0  0
  1  2  2  0
  2  3  1  0
  2  7  1  0
  3  4  1  0
  4  5  1  0
  5  6  1  0
  6  7  2  0
  7  8  1  0
  8  9  1  0
  9 10  1  0
 10 11  1  1
 10 12  1  0
 12 13  1  1
 12 14  1  0
 14 15  1  1
 14 17  1  0
 14 22  1  0
 15 16  1  0
 17 18  1  0
 18 19  1  0
 19 20  1  6
 19 21  1  0
 21 22  1  0
M  END
