
     RDKit          3D

 14 14  0  0  0  0  0  0  0  0999 V2000
   -5.0070    0.5570   -0.3080 O   0  0  0  0  0  0  0  0  0  0  0  0
   -3.7990    0.7020   -0.9550 C   0  0  0  0  0  0  0  0  0  0  0  0
   -2.7210    0.2180   -0.1130 N   0  0  0  0  0  0  0  0  0  0  0  0
   -1.4270    0.3550   -0.7640 C   0  0  0  0  0  0  0  0  0  0  0  0
   -0.3850   -0.1590    0.1500 C   0  0  1  0  0  0  0  0  0  0  0  0
   -0.4290    0.5980    1.3240 O   0  0  0  0  0  0  0  0  0  0  0  0
   -0.7900   -1.5780    0.5640 C   0  0  0  0  0  0  0  0  0  0  0  0
   -2.0510   -1.6110    1.1070 O   0  0  0  0  0  0  0  0  0  0  0  0
    1.0020   -0.2260   -0.3640 C   0  0  1  0  0  0  0  0  0  0  0  0
    1.6520    1.0220   -0.7860 C   0  0  0  0  0  0  0  0  0  0  0  0
    2.9700    1.2240   -0.1620 N   0  0  0  0  0  0  0  0  0  0  0  0
    3.7850    0.0390   -0.2440 C   0  0  0  0  0  0  0  0  0  0  0  0
    2.9810   -1.2250   -0.0230 C   0  0  0  0  0  0  0  0  0  0  0  0
    1.7980   -0.8290    0.6230 O   0  0  0  0  0  0  0  0  0  0  0  0
  1  2  1  0
  2  3  1  0
  3  4  1  0
  4  5  1  0
  5  6  1  1
  5  7  1  0
  5  9  1  0
  7  8  1  0
  9 10  1  1
  9 14  1  0
 10 11  1  0
 11 12  1  0
 12 13  1  0
 13 14  1  0
M  CHG  1  11   1
M  END
