
     RDKit          3D

 23 24  0  0  0  0  0  0  0  0999 V2000
   -2.6790   -4.7310   -0.2960 C   0  0  0  0  0  0  0  0  0  0  0  0
   -1.7040   -3.6430   -0.0080 C   0  0  0  0  0  0  0  0  0  0  0  0
   -2.0820   -2.4010   -0.1430 C   0  0  0  0  0  0  0  0  0  0  0  0
   -3.3860   -1.8950   -0.5540 C   0  0  0  0  0  0  0  0  0  0  0  0
   -3.3440   -0.5100   -0.5600 O   0  0  0  0  0  0  0  0  0  0  0  0
   -2.0750   -0.1200   -0.1710 C   0  0  0  0  0  0  0  0  0  0  0  0
   -1.5830    1.1780   -0.0360 C   0  0  0  0  0  0  0  0  0  0  0  0
   -2.4390    2.3150   -0.3180 C   0  0  0  0  0  0  0  0  0  0  0  0
   -3.6420    2.1040   -0.6880 O   0  0  0  0  0  0  0  0  0  0  0  0
   -2.0650    3.6200   -0.2190 O   0  0  0  0  0  0  0  0  0  0  0  0
   -2.9480    4.6780   -0.5080 C   0  0  0  0  0  0  0  0  0  0  0  0
   -0.2810    1.3330    0.3660 C   0  0  0  0  0  0  0  0  0  0  0  0
    0.3170    2.5490    0.5350 O   0  0  0  0  0  0  0  0  0  0  0  0
    0.5170    0.2060    0.6290 C   0  0  0  0  0  0  0  0  0  0  0  0
    1.8310    0.3590    1.0350 O   0  0  0  0  0  0  0  0  0  0  0  0
    2.8180    0.4150    0.0240 C   0  0  0  0  0  0  0  0  0  0  0  0
    4.2060    0.5840    0.6050 C   0  0  1  0  0  0  0  0  0  0  0  0
    4.4960   -0.4870    1.4370 O   0  0  0  0  0  0  0  0  0  0  0  0
    5.1750    0.6660   -0.5600 C   0  0  0  0  0  0  0  0  0  0  0  0
    4.8930    1.7290   -1.3940 O   0  0  0  0  0  0  0  0  0  0  0  0
    0.0220   -1.0650    0.4930 C   0  0  0  0  0  0  0  0  0  0  0  0
    0.8040   -2.1940    0.7510 O   0  0  0  0  0  0  0  0  0  0  0  0
   -1.2870   -1.1950    0.0880 C   0  0  0  0  0  0  0  0  0  0  0  0
  1  2  1  0
  2  3  2  3
  3  4  1  0
  3 23  1  0
  4  5  1  0
  5  6  1  0
  6  7  2  0
  6 23  1  0
  7  8  1  0
  7 12  1  0
  8  9  2  0
  8 10  1  0
 10 11  1  0
 12 13  1  0
 12 14  2  0
 14 15  1  0
 14 21  1  0
 15 16  1  0
 16 17  1  0
 17 18  1  1
 17 19  1  0
 19 20  1  0
 21 22  1  0
 21 23  2  0
M  END
