
     RDKit          3D

 14 14  0  0  0  0  0  0  0  0999 V2000
    4.9470    0.5080    0.2300 C   0  0  0  0  0  0  0  0  0  0  0  0
    3.7010    0.6480   -0.4300 O   0  0  0  0  0  0  0  0  0  0  0  0
    2.5690   -0.0040    0.0530 C   0  0  0  0  0  0  0  0  0  0  0  0
    2.7370   -0.7100    1.0970 O   0  0  0  0  0  0  0  0  0  0  0  0
    1.2980    0.1080   -0.5780 N   0  0  0  0  0  0  0  0  0  0  0  0
    0.1850   -0.5850   -0.0290 C   0  0  2  0  0  0  0  0  0  0  0  0
   -0.2460   -1.6390   -1.0520 C   0  0  0  0  0  0  0  0  0  0  0  0
   -1.2530   -2.4470   -0.5820 O   0  0  0  0  0  0  0  0  0  0  0  0
   -2.2290   -1.8020    0.1350 C   0  0  0  0  0  0  0  0  0  0  0  0
   -2.2260   -0.3350   -0.2880 C   0  0  1  0  0  0  0  0  0  0  0  0
   -3.4280    0.3410    0.1680 N   0  0  0  0  0  0  0  0  0  0  0  0
   -0.9810    0.2760    0.3320 C   0  0  2  0  0  0  0  0  0  0  0  0
   -0.8550    1.6970   -0.1450 C   0  0  0  0  0  0  0  0  0  0  0  0
    0.2760    2.2940    0.4100 O   0  0  0  0  0  0  0  0  0  0  0  0
  1  2  1  0
  2  3  1  0
  3  4  2  0
  3  5  1  0
  6  5  1  6
  6  7  1  0
  6 12  1  0
  7  8  1  0
  8  9  1  0
  9 10  1  0
 10 11  1  1
 10 12  1  0
 12 13  1  6
 13 14  1  0
M  CHG  1  11   1
M  END
