
     RDKit          3D

 23 24  0  0  0  0  0  0  0  0999 V2000
   -6.4530   -2.0270   -0.3550 O   0  0  0  0  0  0  0  0  0  0  0  0
   -5.9760   -0.7280   -0.4130 C   0  0  0  0  0  0  0  0  0  0  0  0
   -4.5270   -0.6960    0.0440 C   0  0  0  0  0  0  0  0  0  0  0  0
   -4.0160    0.6220   -0.0060 O   0  0  0  0  0  0  0  0  0  0  0  0
   -2.6890    0.7890    0.3900 C   0  0  0  0  0  0  0  0  0  0  0  0
   -2.4150    1.0550    1.7220 C   0  0  0  0  0  0  0  0  0  0  0  0
   -3.4530    1.1520    2.6430 O   0  0  0  0  0  0  0  0  0  0  0  0
   -1.1290    1.2280    2.1650 C   0  0  0  0  0  0  0  0  0  0  0  0
   -0.8680    1.4940    3.5020 O   0  0  0  0  0  0  0  0  0  0  0  0
   -0.0710    1.1360    1.2560 C   0  0  0  0  0  0  0  0  0  0  0  0
   -0.3380    0.8720   -0.0650 C   0  0  0  0  0  0  0  0  0  0  0  0
    0.6070    0.7570   -1.0310 O   0  0  0  0  0  0  0  0  0  0  0  0
    1.9790    0.8160   -1.0570 C   0  0  0  0  0  0  0  0  0  0  0  0
    2.6000   -0.2800   -0.2610 C   0  0  1  0  0  0  0  0  0  0  0  0
    2.1910   -1.5130   -0.7930 O   0  0  0  0  0  0  0  0  0  0  0  0
    4.0880   -0.2010   -0.4870 C   0  0  0  0  0  0  0  0  0  0  0  0
    4.8700   -1.1290   -1.0000 C   0  0  0  0  0  0  0  0  0  0  0  0
    6.2630   -0.6450   -1.0450 C   0  0  0  0  0  0  0  0  0  0  0  0
    7.3930   -1.3040   -1.5090 O   0  0  0  0  0  0  0  0  0  0  0  0
    6.1740    0.5740   -0.5350 C   0  0  0  0  0  0  0  0  0  0  0  0
    4.9690    0.9180   -0.1860 C   0  0  0  0  0  0  0  0  0  0  0  0
   -1.6640    0.6960   -0.5090 C   0  0  0  0  0  0  0  0  0  0  0  0
   -1.9650    0.4290   -1.8360 O   0  0  0  0  0  0  0  0  0  0  0  0
  1  2  1  0
  2  3  1  0
  3  4  1  0
  4  5  1  0
  5  6  2  0
  5 22  1  0
  6  7  1  0
  6  8  1  0
  8  9  1  0
  8 10  2  0
 10 11  1  0
 11 12  1  0
 11 22  2  0
 12 13  1  0
 13 14  1  0
 14 15  1  6
 14 16  1  0
 16 17  2  0
 16 21  1  0
 17 18  1  0
 18 19  1  0
 18 20  2  0
 20 21  2  0
 22 23  1  0
M  END
