
     RDKit          3D

 23 24  0  0  0  0  0  0  0  0999 V2000
    5.6190    2.8510   -1.5900 O   0  0  0  0  0  0  0  0  0  0  0  0
    5.5860    1.7680   -0.7210 C   0  0  0  0  0  0  0  0  0  0  0  0
    4.2310    1.0590   -0.9170 C   0  0  1  0  0  0  0  0  0  0  0  0
    4.2090    0.6620   -2.2790 O   0  0  0  0  0  0  0  0  0  0  0  0
    4.1960   -0.1320   -0.0170 C   0  0  0  0  0  0  0  0  0  0  0  0
    3.0860   -0.9140   -0.1900 O   0  0  0  0  0  0  0  0  0  0  0  0
    1.7690   -0.7260   -0.0120 C   0  0  0  0  0  0  0  0  0  0  0  0
    1.2340    0.4390    0.4770 C   0  0  0  0  0  0  0  0  0  0  0  0
   -0.1410    0.5260    0.6190 C   0  0  0  0  0  0  0  0  0  0  0  0
   -1.0300   -0.4680    0.3080 C   0  0  0  0  0  0  0  0  0  0  0  0
   -2.4660   -0.4150    0.4540 C   0  0  0  0  0  0  0  0  0  0  0  0
   -3.3470   -0.8370   -0.5200 C   0  0  0  0  0  0  0  0  0  0  0  0
   -4.7100   -0.7970   -0.3720 C   0  0  0  0  0  0  0  0  0  0  0  0
   -5.5290   -1.2350   -1.3790 O   0  0  0  0  0  0  0  0  0  0  0  0
   -5.2420   -0.3100    0.8110 C   0  0  0  0  0  0  0  0  0  0  0  0
   -6.6070   -0.2640    0.9720 O   0  0  0  0  0  0  0  0  0  0  0  0
   -4.3820    0.1300    1.8280 C   0  0  0  0  0  0  0  0  0  0  0  0
   -4.9110    0.6150    3.0030 O   0  0  0  0  0  0  0  0  0  0  0  0
   -3.0160    0.0780    1.6500 C   0  0  0  0  0  0  0  0  0  0  0  0
   -2.1140    0.4910    2.5990 O   0  0  0  0  0  0  0  0  0  0  0  0
   -0.4630   -1.6330   -0.1830 C   0  0  0  0  0  0  0  0  0  0  0  0
   -1.3100   -2.6880   -0.5200 O   0  0  0  0  0  0  0  0  0  0  0  0
    0.8900   -1.7750   -0.3440 C   0  0  0  0  0  0  0  0  0  0  0  0
  1  2  1  0
  2  3  1  0
  3  4  1  6
  3  5  1  0
  5  6  1  0
  6  7  1  0
  7  8  2  0
  7 23  1  0
  8  9  1  0
  9 10  2  0
 10 11  1  0
 10 21  1  0
 11 12  2  0
 11 19  1  0
 12 13  1  0
 13 14  1  0
 13 15  2  0
 15 16  1  0
 15 17  1  0
 17 18  1  0
 17 19  2  0
 19 20  1  0
 21 22  1  0
 21 23  2  0
M  END
