
     RDKit          3D

 15 14  0  0  0  0  0  0  0  0999 V2000
   -3.2470   -0.3100    1.9860 N   0  0  0  0  0  0  0  0  0  0  0  0
   -3.6920    0.5330    0.9690 N   0  0  0  0  0  0  0  0  0  0  0  0
   -2.8700    0.8890    0.0550 C   0  0  0  0  0  0  0  0  0  0  0  0
   -3.3680    1.7500   -0.9620 N   0  0  0  0  0  0  0  0  0  0  0  0
   -1.5060    0.4220    0.0800 C   0  0  0  0  0  0  0  0  0  0  0  0
   -1.1220   -0.4220    1.1280 O   0  0  0  0  0  0  0  0  0  0  0  0
   -0.6090    0.7540   -0.8350 C   0  0  0  0  0  0  0  0  0  0  0  0
    0.7480    0.2320   -0.7250 C   0  0  0  0  0  0  0  0  0  0  0  0
    1.1000   -0.6360    0.3730 N   0  0  0  0  0  0  0  0  0  0  0  0
    1.6670    0.5100   -1.5730 N   0  0  0  0  0  0  0  0  0  0  0  0
    2.9740   -0.0000   -1.4560 C   0  0  0  0  0  0  0  0  0  0  0  0
    3.6300   -0.2760   -2.4790 O   0  0  0  0  0  0  0  0  0  0  0  0
    3.5480   -0.2020   -0.1840 N   0  0  0  0  0  0  0  0  0  0  0  0
    4.8020   -0.2020    0.0020 N   0  0  0  0  0  0  0  0  0  0  0  0
    5.4640   -0.4560    1.5870 Cl  0  0  0  0  0  0  0  0  0  0  0  0
  1  2  1  0
  2  3  2  3
  3  4  1  0
  3  5  1  0
  5  6  1  0
  5  7  2  3
  7  8  1  0
  8  9  1  0
  8 10  2  3
 10 11  1  0
 11 12  2  0
 11 13  1  0
 13 14  2  3
 14 15  1  0
M  CHG  1  14   1
M  END
