
     RDKit          3D

 15 15  0  0  0  0  0  0  0  0999 V2000
    4.3070   -1.1160   -0.4900 N   0  0  0  0  0  0  0  0  0  0  0  0
    3.3120   -0.9070    0.5780 C   0  0  0  0  0  0  0  0  0  0  0  0
    3.7790   -1.0900    1.7370 N   0  0  0  0  0  0  0  0  0  0  0  0
    3.0010   -0.9630    3.2710 Cl  0  0  0  0  0  0  0  0  0  0  0  0
    1.9750   -0.5320    0.1650 C   0  0  0  0  0  0  0  0  0  0  0  0
    1.6980   -0.3950   -1.0760 O   0  0  0  0  0  0  0  0  0  0  0  0
    0.9320   -0.3010    1.0540 N   0  0  0  0  0  0  0  0  0  0  0  0
   -0.3910    0.0720    0.6070 C   0  0  0  0  0  0  0  0  0  0  0  0
   -1.3480    0.2790    1.5170 N   0  0  0  0  0  0  0  0  0  0  0  0
   -2.6160    0.6340    1.1560 C   0  0  0  0  0  0  0  0  0  0  0  0
   -2.9370    0.7870   -0.1790 C   0  0  0  0  0  0  0  0  0  0  0  0
   -4.2620    1.1580   -0.5620 N   0  0  0  0  0  0  0  0  0  0  0  0
   -1.9390    0.5700   -1.1060 C   0  0  0  0  0  0  0  0  0  0  0  0
   -2.2770    0.7300   -2.4760 N   0  0  0  0  0  0  0  0  0  0  0  0
   -0.6990    0.2200   -0.6900 N   0  0  0  0  0  0  0  0  0  0  0  0
  1  2  1  0
  2  3  2  3
  2  5  1  0
  3  4  1  0
  5  6  2  0
  5  7  1  0
  7  8  1  0
  8  9  2  0
  8 15  1  0
  9 10  1  0
 10 11  2  0
 11 12  1  0
 11 13  1  0
 13 14  1  0
 13 15  2  0
M  CHG  1   3   1
M  END
