
     RDKit          3D

 22 21  0  0  0  0  0  0  0  0999 V2000
    5.5260   -0.1710    1.5450 C   0  0  0  0  0  0  0  0  0  0  0  0
    4.2020   -0.4440    1.8420 O   0  0  0  0  0  0  0  0  0  0  0  0
    3.4470   -0.4700    0.6830 C   0  0  0  0  0  0  0  0  0  0  0  0
    1.9730   -0.7730    1.0080 C   0  0  0  0  0  0  0  0  0  0  0  0
    1.2710   -0.7820   -0.2010 N   0  0  0  0  0  0  0  0  0  0  0  0
    0.1260    0.0660   -0.4340 C   0  0  2  0  0  0  0  0  0  0  0  0
    0.4120    0.5380   -1.8470 C   0  0  0  0  0  0  0  0  0  0  0  0
    0.5760   -0.4980   -2.7710 O   0  0  0  0  0  0  0  0  0  0  0  0
    0.0750    1.2770    0.3940 C   0  0  0  0  0  0  0  0  0  0  0  0
    1.0740    2.3340    0.4060 C   0  0  1  0  0  0  0  0  0  0  0  0
    1.3840    3.1280   -0.7370 N   0  0  0  0  0  0  0  0  0  0  0  0
    0.6490    3.3970    1.4890 C   0  0  0  0  0  0  0  0  0  0  0  0
   -0.4470    4.0440    0.9220 O   0  0  0  0  0  0  0  0  0  0  0  0
   -1.2050   -0.7460   -0.3550 C   0  0  2  0  0  0  0  0  0  0  0  0
   -2.4080    0.1410   -0.5340 C   0  0  0  0  0  0  0  0  0  0  0  0
   -2.6200    0.8750   -1.7030 N   0  0  0  0  0  0  0  0  0  0  0  0
   -1.2190   -1.2550    1.0410 C   0  0  0  0  0  0  0  0  0  0  0  0
   -2.2370   -2.1210    1.6280 C   0  0  0  0  0  0  0  0  0  0  0  0
   -3.5980   -1.6760    1.6990 N   0  0  0  0  0  0  0  0  0  0  0  0
   -1.2390   -1.7830   -1.4440 C   0  0  0  0  0  0  0  0  0  0  0  0
   -2.4440   -2.6530   -1.5290 C   0  0  0  0  0  0  0  0  0  0  0  0
   -2.3090   -3.5690   -2.6230 O   0  0  0  0  0  0  0  0  0  0  0  0
  1  2  1  0
  2  3  1  0
  3  4  1  0
  4  5  1  0
  5  6  1  0
  6  7  1  6
  6  9  1  0
  6 14  1  0
  7  8  1  0
  9 10  1  0
 10 11  1  6
 10 12  1  0
 12 13  1  0
 14 15  1  1
 14 17  1  0
 14 20  1  0
 15 16  1  0
 17 18  1  0
 18 19  1  0
 20 21  1  0
 21 22  1  0
M  CHG  4   5   1  11   1  16   1  19   1
M  END
