
     RDKit          3D

 14 14  0  0  0  0  0  0  0  0999 V2000
   -3.1400    0.3530    0.3320 N   0  0  0  0  0  0  0  0  0  0  0  0
   -2.1120    1.2690   -0.0490 C   0  0  0  0  0  0  0  0  0  0  0  0
   -2.5200    2.5740   -0.4070 N   0  0  0  0  0  0  0  0  0  0  0  0
   -0.8440    0.8960   -0.0600 C   0  0  0  0  0  0  0  0  0  0  0  0
   -0.4210   -0.4460    0.3080 C   0  0  0  0  0  0  0  0  0  0  0  0
   -1.4200   -1.3670    0.6880 N   0  0  0  0  0  0  0  0  0  0  0  0
    0.8550   -0.7990    0.2910 C   0  0  0  0  0  0  0  0  0  0  0  0
    1.8740    0.0920   -0.0820 N   0  0  0  0  0  0  0  0  0  0  0  0
    3.1080   -0.2820   -0.0890 C   0  0  0  0  0  0  0  0  0  0  0  0
    4.1400    0.6530   -0.4760 N   0  0  0  0  0  0  0  0  0  0  0  0
    3.4150   -1.6080    0.2860 N   0  0  0  0  0  0  0  0  0  0  0  0
    2.5890   -2.4950    0.6380 N   0  0  0  0  0  0  0  0  0  0  0  0
    1.2150   -2.1610    0.6710 C   0  0  0  0  0  0  0  0  0  0  0  0
    0.3350   -3.0150    1.0180 O   0  0  0  0  0  0  0  0  0  0  0  0
  1  2  1  0
  2  3  1  0
  2  4  2  3
  4  5  1  0
  5  6  1  0
  5  7  2  3
  7  8  1  0
  7 13  1  0
  8  9  2  0
  9 10  1  0
  9 11  1  0
 11 12  2  0
 12 13  1  0
 13 14  2  0
M  END
