
     RDKit          3D

 15 14  0  0  0  0  0  0  0  0999 V2000
    0.0630   -2.1400   -0.6630 N   0  0  0  0  0  0  0  0  0  0  0  0
    0.1880   -0.7510   -0.6100 C   0  0  0  0  0  0  0  0  0  0  0  0
    1.2120   -0.0970   -1.1090 C   0  0  0  0  0  0  0  0  0  0  0  0
    2.2560    0.2720   -1.7820 N   0  0  0  0  0  0  0  0  0  0  0  0
    3.2980    0.4100   -0.8960 C   0  0  0  0  0  0  0  0  0  0  0  0
    4.4780   -0.3590   -1.0430 N   0  0  0  0  0  0  0  0  0  0  0  0
    3.2390    1.2310    0.0860 N   0  0  0  0  0  0  0  0  0  0  0  0
    2.1120    1.9940    0.2630 O   0  0  0  0  0  0  0  0  0  0  0  0
   -0.7370    0.1400   -0.0260 C   0  0  0  0  0  0  0  0  0  0  0  0
   -1.8360   -0.3050    0.5360 C   0  0  0  0  0  0  0  0  0  0  0  0
   -2.0800   -1.6930    0.5480 N   0  0  0  0  0  0  0  0  0  0  0  0
   -2.7850    0.5990    1.1340 C   0  0  0  0  0  0  0  0  0  0  0  0
   -2.5200    1.9870    1.1100 N   0  0  0  0  0  0  0  0  0  0  0  0
   -3.8490    0.1610    1.6780 N   0  0  0  0  0  0  0  0  0  0  0  0
   -5.0520    1.1430    2.4220 Cl  0  0  0  0  0  0  0  0  0  0  0  0
  1  2  1  0
  2  3  2  0
  2  9  1  0
  3  4  2  0
  4  5  1  0
  5  6  1  0
  5  7  2  3
  7  8  1  0
  9 10  2  3
 10 11  1  0
 10 12  1  0
 12 13  1  0
 12 14  2  3
 14 15  1  0
M  END
