
     RDKit          3D

 14 13  0  0  0  0  0  0  0  0999 V2000
    2.6290    2.0820   -1.2100 N   0  0  0  0  0  0  0  0  0  0  0  0
    3.0870    1.2200   -0.4270 C   0  0  0  0  0  0  0  0  0  0  0  0
    4.8160    1.3730    0.0190 Cl  0  0  0  0  0  0  0  0  0  0  0  0
    2.3720    0.1070    0.1600 C   0  0  0  0  0  0  0  0  0  0  0  0
    3.1360   -0.7560    1.0420 N   0  0  0  0  0  0  0  0  0  0  0  0
    1.0880   -0.1710   -0.0510 C   0  0  0  0  0  0  0  0  0  0  0  0
    0.5670   -1.3040    0.6140 N   0  0  0  0  0  0  0  0  0  0  0  0
    0.3630    0.6340   -0.8780 O   0  0  0  0  0  0  0  0  0  0  0  0
   -0.9290    0.9900   -0.7690 C   0  0  0  0  0  0  0  0  0  0  0  0
   -1.6150    2.1350   -1.1360 N   0  0  0  0  0  0  0  0  0  0  0  0
   -1.6290    0.0890   -0.2230 N   0  0  0  0  0  0  0  0  0  0  0  0
   -2.3910   -0.7730    0.3050 C   0  0  0  0  0  0  0  0  0  0  0  0
   -2.9600   -1.6550   -0.5990 N   0  0  0  0  0  0  0  0  0  0  0  0
   -2.4980   -0.6530    1.6770 N   0  0  0  0  0  0  0  0  0  0  0  0
  1  2  2  0
  2  3  1  0
  2  4  1  0
  4  5  1  0
  4  6  2  3
  6  7  1  0
  6  8  1  0
  8  9  1  0
  9 10  1  0
  9 11  2  0
 11 12  2  0
 12 13  1  0
 12 14  1  0
M  CHG  1  11   1
M  END
