
     RDKit          3D

 14 14  0  0  0  0  0  0  0  0999 V2000
   -3.6290    0.6930   -1.5660 N   0  0  0  0  0  0  0  0  0  0  0  0
   -2.9710   -0.5900   -1.4170 C   0  0  0  0  0  0  0  0  0  0  0  0
   -2.0570   -0.6220   -0.2600 C   0  0  0  0  0  0  0  0  0  0  0  0
   -2.2550   -1.4640    0.6800 N   0  0  0  0  0  0  0  0  0  0  0  0
   -0.9700    0.2710   -0.1930 N   0  0  0  0  0  0  0  0  0  0  0  0
    0.0610    0.1740    0.7260 N   0  0  0  0  0  0  0  0  0  0  0  0
    1.4200   -0.0200    0.3320 C   0  0  0  0  0  0  0  0  0  0  0  0
    2.2710    1.0440    0.0600 C   0  0  0  0  0  0  0  0  0  0  0  0
    1.7730    2.3520    0.1750 N   0  0  0  0  0  0  0  0  0  0  0  0
    3.5820    0.8300   -0.3180 C   0  0  0  0  0  0  0  0  0  0  0  0
    4.0260   -0.4360   -0.4190 N   0  0  0  0  0  0  0  0  0  0  0  0
    3.2440   -1.4800   -0.1670 N   0  0  0  0  0  0  0  0  0  0  0  0
    1.9520   -1.2870    0.2060 C   0  0  0  0  0  0  0  0  0  0  0  0
    1.1990   -2.2700    0.4480 O   0  0  0  0  0  0  0  0  0  0  0  0
  1  2  1  0
  2  3  1  0
  3  4  2  0
  3  5  1  0
  5  6  1  0
  6  7  1  0
  7  8  2  0
  7 13  1  0
  8  9  1  0
  8 10  1  0
 10 11  2  0
 11 12  1  0
 12 13  1  0
 13 14  2  0
M  CHG  1   4   1
M  END
