
     RDKit          3D

 14 14  0  0  0  0  0  0  0  0999 V2000
    4.0310   -0.2080    0.6580 N   0  0  0  0  0  0  0  0  0  0  0  0
    3.0100   -0.1060   -0.1510 C   0  0  0  0  0  0  0  0  0  0  0  0
    3.1290    0.7370   -1.2800 N   0  0  0  0  0  0  0  0  0  0  0  0
    1.8670   -0.8480    0.1650 N   0  0  0  0  0  0  0  0  0  0  0  0
    0.6810   -0.4160    0.2410 C   0  0  0  0  0  0  0  0  0  0  0  0
    0.4050    0.9490   -0.0070 N   0  0  0  0  0  0  0  0  0  0  0  0
   -0.9110    1.4480    0.0730 C   0  0  0  0  0  0  0  0  0  0  0  0
   -1.1050    2.6990   -0.1620 O   0  0  0  0  0  0  0  0  0  0  0  0
   -2.0580    0.5970    0.4130 C   0  0  1  0  0  0  0  0  0  0  0  0
   -3.0980    0.7160   -0.6080 N   0  0  0  0  0  0  0  0  0  0  0  0
   -1.6980   -0.7990    0.6560 C   0  0  0  0  0  0  0  0  0  0  0  0
   -3.0220   -1.9220    1.0780 Cl  0  0  0  0  0  0  0  0  0  0  0  0
   -0.4680   -1.2390    0.5760 C   0  0  0  0  0  0  0  0  0  0  0  0
   -0.2850   -2.6490    0.8470 N   0  0  0  0  0  0  0  0  0  0  0  0
  1  2  2  0
  2  3  1  0
  2  4  1  0
  4  5  2  3
  5  6  1  0
  5 13  1  0
  6  7  1  0
  7  8  2  0
  7  9  1  0
  9 10  1  6
  9 11  1  0
 11 12  1  0
 11 13  2  0
 13 14  1  0
M  CHG  1  10   1
M  END
