
     RDKit          3D

 22 23  0  0  0  0  0  0  0  0999 V2000
   -4.4060   -2.0900    1.5400 C   0  0  0  0  0  0  0  0  0  0  0  0
   -3.0340   -2.0930    0.8530 C   0  0  0  0  0  0  0  0  0  0  0  0
   -1.9790   -1.7210    1.8440 C   0  0  0  0  0  0  0  0  0  0  0  0
   -0.6230   -1.6500    1.2140 C   0  0  0  0  0  0  0  0  0  0  0  0
   -0.4930   -0.4700    0.2310 C   0  0  0  0  0  0  0  0  0  0  0  0
   -1.4610    0.3320    0.1330 C   0  0  0  0  0  0  0  0  0  0  0  0
   -1.7210    1.4950   -0.6970 C   0  0  0  0  0  0  0  0  0  0  0  0
   -2.8050    2.2810   -0.5880 C   0  0  0  0  0  0  0  0  0  0  0  0
   -2.7890    3.3610   -1.5760 C   0  0  0  0  0  0  0  0  0  0  0  0
   -1.5940    3.0910   -2.3640 C   0  0  0  0  0  0  0  0  0  0  0  0
   -1.0090    2.0530   -1.8500 C   0  0  0  0  0  0  0  0  0  0  0  0
    0.9510   -0.2190   -0.0910 C   0  0  0  0  0  0  0  0  0  0  0  0
    1.7800   -1.2220   -0.1240 C   0  0  0  0  0  0  0  0  0  0  0  0
    3.1840   -1.3870   -0.4050 C   0  0  0  0  0  0  0  0  0  0  0  0
    3.7860   -2.6050   -0.2730 C   0  0  0  0  0  0  0  0  0  0  0  0
    5.2040   -2.5190   -0.6230 C   0  0  0  0  0  0  0  0  0  0  0  0
    5.3920   -1.1410   -1.0360 C   0  0  0  0  0  0  0  0  0  0  0  0
    4.2150   -0.4940   -0.9000 C   0  0  0  0  0  0  0  0  0  0  0  0
    1.4340    1.1310    0.1250 C   0  0  0  0  0  0  0  0  0  0  0  0
    2.6740    1.4250    0.2460 O   0  0  0  0  0  0  0  0  0  0  0  0
    0.6170    2.2200    0.2420 O   0  0  0  0  0  0  0  0  0  0  0  0
    1.0660    3.5430    0.4730 C   0  0  0  0  0  0  0  0  0  0  0  0
  1  2  1  0
  2  3  1  0
  3  4  1  0
  4  5  1  0
  5  6  2  3
  5 12  1  0
  6  7  1  0
  7  8  2  0
  7 11  1  0
  8  9  1  0
  9 10  1  0
 10 11  2  0
 12 13  2  3
 12 19  1  0
 13 14  1  0
 14 15  2  0
 14 18  1  0
 15 16  1  0
 16 17  1  0
 17 18  2  0
 19 20  2  0
 19 21  1  0
 21 22  1  0
M  END
