
     RDKit          3D

 22 23  0  0  0  0  0  0  0  0999 V2000
   -4.1820    1.4230   -1.1340 C   0  0  0  0  0  0  0  0  0  0  0  0
   -4.0190    0.0820   -0.6060 C   0  0  0  0  0  0  0  0  0  0  0  0
   -5.0310   -0.8000   -0.6810 C   0  0  0  0  0  0  0  0  0  0  0  0
   -4.6460   -2.0740   -0.0980 C   0  0  0  0  0  0  0  0  0  0  0  0
   -3.2660   -1.8410    0.3240 C   0  0  0  0  0  0  0  0  0  0  0  0
   -2.8980   -0.5610    0.0250 C   0  0  0  0  0  0  0  0  0  0  0  0
   -1.5140   -0.1270    0.3240 C   0  0  0  0  0  0  0  0  0  0  0  0
   -1.0250    1.0890    0.1580 C   0  0  0  0  0  0  0  0  0  0  0  0
   -1.9340    2.0760   -0.3480 O   0  0  0  0  0  0  0  0  0  0  0  0
    0.2820    1.6930    0.3840 C   0  0  0  0  0  0  0  0  0  0  0  0
    0.3640    2.6660    1.5740 C   0  0  0  0  0  0  0  0  0  0  0  0
    1.4210    1.6690   -0.2730 C   0  0  0  0  0  0  0  0  0  0  0  0
    2.6140    2.4530    0.3040 C   0  0  0  0  0  0  0  0  0  0  0  0
    1.6690    1.0130   -1.5810 C   0  0  0  0  0  0  0  0  0  0  0  0
    2.9640    0.3800   -1.8000 C   0  0  0  0  0  0  0  0  0  0  0  0
    3.3650   -0.8140   -1.0210 C   0  0  0  0  0  0  0  0  0  0  0  0
    3.1540   -0.8440    0.4290 C   0  0  0  0  0  0  0  0  0  0  0  0
    2.8810   -2.2710    0.9450 C   0  0  0  0  0  0  0  0  0  0  0  0
    1.4390   -2.2870    1.5200 C   0  0  0  0  0  0  0  0  0  0  0  0
    0.5490   -1.8270    0.3740 C   0  0  0  0  0  0  0  0  0  0  0  0
   -0.6710   -1.2060    0.9090 C   0  0  0  0  0  0  0  0  0  0  0  0
   -1.0320   -1.6930    2.0520 O   0  0  0  0  0  0  0  0  0  0  0  0
  1  2  1  0
  2  3  2  0
  2  6  1  0
  3  4  1  0
  4  5  1  0
  5  6  2  0
  6  7  1  0
  7  8  2  0
  7 21  1  0
  8  9  1  0
  8 10  1  0
 10 11  1  0
 10 12  2  0
 12 13  1  0
 12 14  1  0
 14 15  1  0
 15 16  1  0
 16 17  1  0
 17 18  1  0
 18 19  1  0
 19 20  1  0
 20 21  1  0
 21 22  2  0
M  END
