
     RDKit          3D

 20 21  0  0  0  0  0  0  0  0999 V2000
   -3.9340   -0.5750   -0.8730 C   0  0  0  0  0  0  0  0  0  0  0  0
   -3.5580    0.1190    0.3760 C   0  0  0  0  0  0  0  0  0  0  0  0
   -4.4290    0.8360    0.9810 O   0  0  0  0  0  0  0  0  0  0  0  0
   -2.2870    0.0480    0.9600 N   0  0  0  0  0  0  0  0  0  0  0  0
   -1.9350    0.7060    2.1600 C   0  0  0  0  0  0  0  0  0  0  0  0
   -2.8170    0.9550    3.0500 O   0  0  0  0  0  0  0  0  0  0  0  0
   -0.5620    1.0660    2.3060 N   0  0  0  0  0  0  0  0  0  0  0  0
    0.3100    0.7980    1.3710 C   0  0  0  0  0  0  0  0  0  0  0  0
    1.6510    1.1980    1.6200 N   0  0  0  0  0  0  0  0  0  0  0  0
   -0.0390    0.1400    0.1060 C   0  0  1  0  0  0  0  0  0  0  0  0
    1.0630   -0.5750   -0.5840 C   0  0  1  0  0  0  0  0  0  0  0  0
    0.4900   -1.1400   -1.7550 O   0  0  0  0  0  0  0  0  0  0  0  0
    2.1630    0.3520   -0.9960 C   0  0  0  0  0  0  0  0  0  0  0  0
    2.1260    1.2870   -1.9960 C   0  0  0  0  0  0  0  0  0  0  0  0
    3.3250    1.9260   -2.0580 N   0  0  0  0  0  0  0  0  0  0  0  0
    4.0930    1.3800   -1.0970 C   0  0  0  0  0  0  0  0  0  0  0  0
    3.3730    0.4160   -0.4500 N   0  0  0  0  0  0  0  0  0  0  0  0
   -1.2270   -0.7590    0.3180 C   0  0  1  0  0  0  0  0  0  0  0  0
   -0.9570   -1.8880    1.2810 C   0  0  0  0  0  0  0  0  0  0  0  0
   -0.0180   -2.7980    0.8660 O   0  0  0  0  0  0  0  0  0  0  0  0
  1  2  1  0
  2  3  2  0
  2  4  1  0
  4  5  1  0
  4 18  1  0
  5  6  2  0
  5  7  1  0
  7  8  2  0
  8  9  1  0
 10  8  1  1
 10 11  1  0
 10 18  1  0
 11 12  1  6
 11 13  1  0
 13 14  2  0
 13 17  1  0
 14 15  1  0
 15 16  1  0
 16 17  2  0
 18 19  1  1
 19 20  1  0
M  CHG  1  17   1
M  END
