
     RDKit          3D

 22 22  0  0  0  0  0  0  0  0999 V2000
   -2.6830    0.3710    4.2310 C   0  0  0  0  0  0  0  0  0  0  0  0
   -2.6440    0.2680    2.7500 C   0  0  0  0  0  0  0  0  0  0  0  0
   -3.6440   -0.3310    2.0360 C   0  0  0  0  0  0  0  0  0  0  0  0
   -3.6090   -0.4230    0.6600 C   0  0  0  0  0  0  0  0  0  0  0  0
   -4.6830   -1.0440   -0.0920 C   0  0  0  0  0  0  0  0  0  0  0  0
   -2.5150    0.1110   -0.0710 C   0  0  0  0  0  0  0  0  0  0  0  0
   -2.5190    0.0690   -1.4970 C   0  0  1  0  0  0  0  0  0  0  0  0
   -3.7070    0.6770   -2.2130 C   0  0  0  0  0  0  0  0  0  0  0  0
   -1.3910    0.9980   -2.0250 C   0  0  0  0  0  0  0  0  0  0  0  0
   -2.2880   -1.2820   -2.0550 C   0  0  0  0  0  0  0  0  0  0  0  0
   -1.5340    0.6930    0.6640 C   0  0  0  0  0  0  0  0  0  0  0  0
   -0.3490    1.2470    0.1760 O   0  0  0  0  0  0  0  0  0  0  0  0
    0.9320    0.6560    0.2730 C   0  0  2  0  0  0  0  0  0  0  0  0
    0.9480   -0.7250   -0.3130 C   0  0  0  0  0  0  0  0  0  0  0  0
    1.4510    0.5370    1.6900 C   0  0  0  0  0  0  0  0  0  0  0  0
    1.8270    1.6110   -0.4790 C   0  0  0  0  0  0  0  0  0  0  0  0
    3.2620    1.3310   -0.5570 C   0  0  0  0  0  0  0  0  0  0  0  0
    3.7270    0.0720   -1.1860 C   0  0  0  0  0  0  0  0  0  0  0  0
    5.2650   -0.0060   -1.2190 C   0  0  0  0  0  0  0  0  0  0  0  0
    5.8630    0.0430    0.1590 C   0  0  0  0  0  0  0  0  0  0  0  0
    5.4190   -1.0080    0.9540 O   0  0  0  0  0  0  0  0  0  0  0  0
   -1.5860    0.7830    2.0720 C   0  0  0  0  0  0  0  0  0  0  0  0
  1  2  1  0
  2  3  2  0
  2 22  1  0
  3  4  1  0
  4  5  1  0
  4  6  2  0
  6  7  1  0
  6 11  1  0
  7  8  1  6
  7  9  1  0
  7 10  1  0
 11 12  1  0
 11 22  2  0
 12 13  1  0
 13 14  1  6
 13 15  1  0
 13 16  1  0
 16 17  1  0
 17 18  1  0
 18 19  1  0
 19 20  1  0
 20 21  1  0
M  END
