
     RDKit          3D

 22 23  0  0  0  0  0  0  0  0999 V2000
   -2.7880    3.9420    1.6550 C   0  0  0  0  0  0  0  0  0  0  0  0
   -2.5340    3.2230    0.3160 C   0  0  0  0  0  0  0  0  0  0  0  0
   -2.0580    1.7950    0.5780 C   0  0  0  0  0  0  0  0  0  0  0  0
   -1.9950    1.0680   -0.7300 C   0  0  1  0  0  0  0  0  0  0  0  0
   -0.9990    1.7720   -1.4850 O   0  0  0  0  0  0  0  0  0  0  0  0
   -1.6490   -0.3420   -0.7330 C   0  0  0  0  0  0  0  0  0  0  0  0
   -2.7650   -1.2100   -0.8640 C   0  0  0  0  0  0  0  0  0  0  0  0
   -4.1670   -0.6970   -0.7080 C   0  0  0  0  0  0  0  0  0  0  0  0
   -2.5150   -2.5340   -1.0790 C   0  0  0  0  0  0  0  0  0  0  0  0
   -1.2450   -3.0510   -1.1730 C   0  0  0  0  0  0  0  0  0  0  0  0
   -1.0210   -4.5140   -1.3490 C   0  0  0  0  0  0  0  0  0  0  0  0
   -0.2030   -2.1780   -1.0420 C   0  0  0  0  0  0  0  0  0  0  0  0
   -0.3770   -0.7890   -0.8160 C   0  0  0  0  0  0  0  0  0  0  0  0
    0.8950   -0.0860   -0.5870 C   0  0  0  0  0  0  0  0  0  0  0  0
    1.5920   -0.6810    0.6050 C   0  0  0  0  0  0  0  0  0  0  0  0
    2.9110   -0.1380    0.9660 C   0  0  0  0  0  0  0  0  0  0  0  0
    3.0560    0.3620    2.1960 C   0  0  0  0  0  0  0  0  0  0  0  0
    4.3170    0.9290    2.6710 C   0  0  0  0  0  0  0  0  0  0  0  0
    5.3250    0.8490    1.7110 O   0  0  0  0  0  0  0  0  0  0  0  0
    5.1800    0.3440    0.4470 C   0  0  0  0  0  0  0  0  0  0  0  0
    4.0150   -0.1560    0.0260 C   0  0  0  0  0  0  0  0  0  0  0  0
    3.9430   -0.6710   -1.3530 C   0  0  0  0  0  0  0  0  0  0  0  0
  1  2  1  0
  2  3  1  0
  3  4  1  0
  4  5  1  6
  4  6  1  0
  6  7  2  0
  6 13  1  0
  7  8  1  0
  7  9  1  0
  9 10  2  0
 10 11  1  0
 10 12  1  0
 12 13  2  0
 13 14  1  0
 14 15  1  0
 15 16  1  0
 16 17  2  0
 16 21  1  0
 17 18  1  0
 18 19  1  0
 19 20  1  0
 20 21  2  0
 21 22  1  0
M  END
