
     RDKit          3D

 22 22  0  0  0  0  0  0  0  0999 V2000
    4.4480    1.3580   -2.4890 C   0  0  0  0  0  0  0  0  0  0  0  0
    4.4670    0.9280   -1.2610 C   0  0  0  0  0  0  0  0  0  0  0  0
    3.4080    0.1740   -0.6510 C   0  0  0  0  0  0  0  0  0  0  0  0
    3.5780   -0.1810    0.6030 C   0  0  0  0  0  0  0  0  0  0  0  0
    2.6210   -0.9560    1.3990 C   0  0  0  0  0  0  0  0  0  0  0  0
    2.1020   -0.1140   -1.3370 C   0  0  2  0  0  0  0  0  0  0  0  0
    0.9320    0.0710   -0.5270 C   0  0  0  0  0  0  0  0  0  0  0  0
   -0.2460   -0.5680   -0.6110 C   0  0  0  0  0  0  0  0  0  0  0  0
   -0.4470   -1.5380   -1.5760 O   0  0  0  0  0  0  0  0  0  0  0  0
   -1.3030   -0.2550    0.2820 C   0  0  0  0  0  0  0  0  0  0  0  0
   -2.4770   -0.6210    0.5230 C   0  0  0  0  0  0  0  0  0  0  0  0
   -3.3400   -1.6320   -0.0540 C   0  0  0  0  0  0  0  0  0  0  0  0
   -3.0640   -2.6130   -1.0960 C   0  0  0  0  0  0  0  0  0  0  0  0
   -4.5890   -1.7190    0.4740 C   0  0  0  0  0  0  0  0  0  0  0  0
   -4.9700   -0.8200    1.5610 C   0  0  0  0  0  0  0  0  0  0  0  0
   -0.9250    0.8590    1.2360 O   0  0  0  0  0  0  0  0  0  0  0  0
   -1.3840    2.0740    0.6460 C   0  0  0  0  0  0  0  0  0  0  0  0
   -1.1320    3.2830    1.4910 C   0  0  1  0  0  0  0  0  0  0  0  0
   -1.7280    3.3870    2.8530 C   0  0  0  0  0  0  0  0  0  0  0  0
   -0.2190    3.2460    2.6610 C   0  0  0  0  0  0  0  0  0  0  0  0
    2.1770   -1.1500   -2.3910 C   0  0  0  0  0  0  0  0  0  0  0  0
    2.6260   -2.5060   -1.8550 C   0  0  0  0  0  0  0  0  0  0  0  0
  1  2  2  0
  2  3  1  0
  3  4  2  3
  3  6  1  0
  4  5  1  0
  6  7  1  0
  6 21  1  1
  7  8  2  3
  8  9  1  0
  8 10  1  0
 10 11  2  3
 10 16  1  0
 11 12  1  0
 12 13  1  0
 12 14  2  3
 14 15  1  0
 16 17  1  0
 18 17  1  1
 18 19  1  0
 18 20  1  0
 19 20  1  0
 21 22  1  0
M  END
