
     RDKit          3D

 22 22  0  0  0  0  0  0  0  0999 V2000
    6.1430    0.7450    0.2190 C   0  0  0  0  0  0  0  0  0  0  0  0
    5.4210   -0.0640    1.1940 C   0  0  0  0  0  0  0  0  0  0  0  0
    3.9900   -0.2600    1.1720 C   0  0  0  0  0  0  0  0  0  0  0  0
    3.1790    0.2630    0.2790 C   0  0  0  0  0  0  0  0  0  0  0  0
    1.7470   -0.0140    0.3690 C   0  0  0  0  0  0  0  0  0  0  0  0
    0.8400    0.4490   -0.4590 C   0  0  0  0  0  0  0  0  0  0  0  0
    1.1660    1.3160   -1.5950 C   0  0  0  0  0  0  0  0  0  0  0  0
   -0.5730    0.0870   -0.2500 C   0  0  0  0  0  0  0  0  0  0  0  0
   -1.5280    0.5050   -1.0300 C   0  0  0  0  0  0  0  0  0  0  0  0
   -2.9680    0.1620   -0.8500 C   0  0  0  0  0  0  0  0  0  0  0  0
   -3.8340    0.6470   -1.7140 C   0  0  0  0  0  0  0  0  0  0  0  0
   -3.3040    1.5190   -2.8240 C   0  0  0  0  0  0  0  0  0  0  0  0
   -5.2850    0.4060   -1.6980 C   0  0  0  0  0  0  0  0  0  0  0  0
   -5.4730   -0.9720   -1.0480 C   0  0  0  0  0  0  0  0  0  0  0  0
   -4.8710   -0.8700    0.3240 C   0  0  0  0  0  0  0  0  0  0  0  0
   -3.3880   -0.6940    0.2740 C   0  0  1  0  0  0  0  0  0  0  0  0
   -2.7560   -2.0700    0.2050 C   0  0  0  0  0  0  0  0  0  0  0  0
   -3.0070    0.0250    1.5700 C   0  0  0  0  0  0  0  0  0  0  0  0
    6.1010   -0.6640    2.1700 C   0  0  0  0  0  0  0  0  0  0  0  0
    7.5140   -0.5370    2.2850 C   0  0  0  0  0  0  0  0  0  0  0  0
    8.0870   -1.1540    3.2600 O   0  0  0  0  0  0  0  0  0  0  0  0
    8.3550    0.1900    1.4500 O   0  0  0  0  0  0  0  0  0  0  0  0
  1  2  1  0
  2  3  1  0
  2 19  2  3
  3  4  2  3
  4  5  1  0
  5  6  2  3
  6  7  1  0
  6  8  1  0
  8  9  2  3
  9 10  1  0
 10 11  2  0
 10 16  1  0
 11 12  1  0
 11 13  1  0
 13 14  1  0
 14 15  1  0
 15 16  1  0
 16 17  1  6
 16 18  1  0
 19 20  1  0
 20 21  2  0
 20 22  1  0
M  END
