
     RDKit          3D

 22 22  0  0  0  0  0  0  0  0999 V2000
   -1.8560   -2.9060    2.5700 C   0  0  0  0  0  0  0  0  0  0  0  0
   -1.6080   -1.7370    1.9370 C   0  0  0  0  0  0  0  0  0  0  0  0
   -2.3930   -1.3040    0.8330 C   0  0  0  0  0  0  0  0  0  0  0  0
   -2.4380   -0.3060    0.0120 C   0  0  0  0  0  0  0  0  0  0  0  0
   -1.5480    0.8200   -0.0160 C   0  0  0  0  0  0  0  0  0  0  0  0
   -0.0850    0.6550    0.0870 C   0  0  0  0  0  0  0  0  0  0  0  0
    0.4850    0.2050    1.1970 O   0  0  0  0  0  0  0  0  0  0  0  0
    1.8490    0.1050    1.1960 C   0  0  0  0  0  0  0  0  0  0  0  0
    2.4460   -0.8080    0.1790 C   0  0  0  0  0  0  0  0  0  0  0  0
    3.9590   -0.8500    0.2880 C   0  0  0  0  0  0  0  0  0  0  0  0
    4.6170    0.4780    0.0870 C   0  0  0  0  0  0  0  0  0  0  0  0
    6.1340    0.2840    0.2180 C   0  0  1  0  0  0  0  0  0  0  0  0
    6.6610   -0.6810   -0.7990 C   0  0  0  0  0  0  0  0  0  0  0  0
    6.7600    1.5170    0.0770 O   0  0  0  0  0  0  0  0  0  0  0  0
   -2.0490    2.0630   -0.2580 C   0  0  0  0  0  0  0  0  0  0  0  0
   -3.4660    2.2110   -0.4940 C   0  0  0  0  0  0  0  0  0  0  0  0
   -4.0290    3.4140   -0.7080 C   0  0  0  0  0  0  0  0  0  0  0  0
   -4.3210    1.0230   -0.4800 C   0  0  0  0  0  0  0  0  0  0  0  0
   -5.5610    1.0310   -0.0950 C   0  0  0  0  0  0  0  0  0  0  0  0
   -3.6130   -0.2220   -0.9660 C   0  0  1  0  0  0  0  0  0  0  0  0
   -3.1440   -0.0020   -2.3590 C   0  0  0  0  0  0  0  0  0  0  0  0
   -4.4950   -1.4110   -0.9170 C   0  0  0  0  0  0  0  0  0  0  0  0
  1  2  2  0
  2  3  1  0
  3  4  2  3
  4  5  1  0
  4 20  1  0
  5  6  1  0
  5 15  2  0
  6  7  1  0
  7  8  1  0
  8  9  1  0
  9 10  1  0
 10 11  1  0
 11 12  1  0
 12 13  1  6
 12 14  1  0
 15 16  1  0
 16 17  2  0
 16 18  1  0
 18 19  2  0
 18 20  1  0
 20 21  1  6
 20 22  1  0
M  END
