
     RDKit          3D

 22 22  0  0  0  0  0  0  0  0999 V2000
   -2.1060   -2.0920   -1.2930 C   0  0  0  0  0  0  0  0  0  0  0  0
   -2.7010   -1.4700   -0.2450 C   0  0  0  0  0  0  0  0  0  0  0  0
   -3.7200   -2.2960    0.4100 C   0  0  0  0  0  0  0  0  0  0  0  0
   -2.2770   -0.1750    0.1830 C   0  0  0  0  0  0  0  0  0  0  0  0
   -1.1000    0.5590   -0.3570 C   0  0  0  0  0  0  0  0  0  0  0  0
    0.2740    0.2710    0.0580 C   0  0  1  0  0  0  0  0  0  0  0  0
    0.3730    0.4380    1.4550 O   0  0  0  0  0  0  0  0  0  0  0  0
    0.9530   -1.0020   -0.2160 C   0  0  1  0  0  0  0  0  0  0  0  0
    1.2520   -1.3900   -1.6110 C   0  0  0  0  0  0  0  0  0  0  0  0
    2.0140   -1.4100    0.7660 C   0  0  0  0  0  0  0  0  0  0  0  0
    2.6030   -2.7770    0.3620 C   0  0  0  0  0  0  0  0  0  0  0  0
    3.6720   -3.1800    1.3770 C   0  0  0  0  0  0  0  0  0  0  0  0
    1.0600    1.4850   -0.4520 C   0  0  1  0  0  0  0  0  0  0  0  0
    2.5330    1.4410   -0.2120 C   0  0  0  0  0  0  0  0  0  0  0  0
    0.7110    2.0020   -1.7870 C   0  0  0  0  0  0  0  0  0  0  0  0
    1.3280    3.4230   -1.7350 C   0  0  0  0  0  0  0  0  0  0  0  0
    1.5590    3.6890   -0.2950 C   0  0  0  0  0  0  0  0  0  0  0  0
    2.2770    4.4510    0.2370 O   0  0  0  0  0  0  0  0  0  0  0  0
    0.6130    2.7090    0.3870 C   0  0  0  0  0  0  0  0  0  0  0  0
   -2.9460    0.4230    1.1490 C   0  0  0  0  0  0  0  0  0  0  0  0
   -4.1150   -0.0500    1.9100 C   0  0  0  0  0  0  0  0  0  0  0  0
   -2.5870    1.8640    1.5170 C   0  0  0  0  0  0  0  0  0  0  0  0
  1  2  2  0
  2  3  1  0
  2  4  1  0
  4  5  1  0
  4 20  2  3
  5  6  1  0
  6  7  1  1
  6  8  1  0
  6 13  1  0
  8  9  1  6
  8 10  1  0
 10 11  1  0
 11 12  1  0
 13 14  1  6
 13 15  1  0
 13 19  1  0
 15 16  1  0
 16 17  1  0
 17 18  2  0
 17 19  1  0
 20 21  1  0
 20 22  1  0
M  END
