
     RDKit          3D

  9  8  0  0  0  0  0  0  0  0999 V2000
    3.5880    0.4550   -1.1010 O   0  0  0  0  0  0  0  0  0  0  0  0
    2.5740    1.3270    0.0110 P   0  0  0  0  0  0  0  0  0  0  0  0
    0.9440    0.7980   -0.2650 O   0  0  0  0  0  0  0  0  0  0  0  0
    0.3700    0.3540    0.8200 O   0  0  0  0  0  0  0  0  0  0  0  0
    0.2100   -0.9360    0.7390 O   0  0  0  0  0  0  0  0  0  0  0  0
   -0.8420   -1.3410    0.0560 N   0  0  0  0  0  0  0  0  0  0  0  0
   -2.0410   -0.1650   -0.3780 P   0  0  0  0  0  0  0  0  0  0  0  0
   -3.6600   -0.5670   -0.0050 O   0  0  0  0  0  0  0  0  0  0  0  0
   -1.6380    1.4660   -0.1930 O   0  0  0  0  0  0  0  0  0  0  0  0
  1  2  1  0
  2  3  1  0
  3  4  1  0
  4  5  1  0
  5  6  1  0
  6  7  1  0
  7  8  1  0
  7  9  1  0
M  END
