
     RDKit          3D

  9  9  0  0  0  0  0  0  0  0999 V2000
    3.1560   -0.2110    0.6470 O   0  0  0  0  0  0  0  0  0  0  0  0
    1.8730   -0.6290    0.5570 N   0  0  0  0  0  0  0  0  0  0  0  0
    1.4090   -0.3630   -0.6830 O   0  0  0  0  0  0  0  0  0  0  0  0
    0.1680    0.5380   -0.7620 P   0  0  0  0  0  0  0  0  0  0  0  0
   -0.4610    2.1840   -0.6840 O   0  0  0  0  0  0  0  0  0  0  0  0
   -1.6370    2.2270   -0.6330 O   0  0  0  0  0  0  0  0  0  0  0  0
   -2.5140    1.4760   -0.6200 O   0  0  0  0  0  0  0  0  0  0  0  0
   -1.9890   -0.1970   -0.6950 P   0  0  0  0  0  0  0  0  0  0  0  0
   -2.6080   -1.6300   -0.1440 O   0  0  0  0  0  0  0  0  0  0  0  0
  1  2  1  0
  2  3  1  0
  3  4  1  0
  4  5  1  0
  4  8  1  0
  5  6  1  0
  6  7  1  0
  7  8  1  0
  8  9  1  0
M  END
