
     RDKit          3D

  9  8  0  0  0  0  0  0  0  0999 V2000
   -3.0360   -0.3910   -0.3110 N   0  0  0  0  0  0  0  0  0  0  0  0
   -2.8570   -0.4490    1.0180 O   0  0  0  0  0  0  0  0  0  0  0  0
   -1.6680   -1.0000    1.2220 O   0  0  0  0  0  0  0  0  0  0  0  0
   -0.3710    0.0310    0.7910 P   0  0  0  0  0  0  0  0  0  0  0  0
   -0.8450    1.6520    0.5020 O   0  0  0  0  0  0  0  0  0  0  0  0
    0.6360   -0.6190   -0.4420 O   0  0  0  0  0  0  0  0  0  0  0  0
    1.7410   -1.1430    0.0660 O   0  0  0  0  0  0  0  0  0  0  0  0
    2.7590    0.1540    0.6410 P   0  0  0  0  0  0  0  0  0  0  0  0
    4.4060   -0.3280    0.3190 O   0  0  0  0  0  0  0  0  0  0  0  0
  1  2  1  0
  2  3  1  0
  3  4  1  0
  4  5  1  0
  4  6  1  0
  6  7  1  0
  7  8  1  0
  8  9  1  0
M  END
