
     RDKit          3D

  9  9  0  0  0  0  0  0  0  0999 V2000
    2.2000   -1.6870   -0.2500 O   0  0  0  0  0  0  0  0  0  0  0  0
    0.7150   -0.8480   -0.1530 P   0  0  0  0  0  0  0  0  0  0  0  0
   -0.8080   -1.6050   -0.2010 O   0  0  0  0  0  0  0  0  0  0  0  0
   -1.9640   -1.0190    0.1170 N   0  0  0  0  0  0  0  0  0  0  0  0
   -2.2660    0.1750   -0.0590 O   0  0  0  0  0  0  0  0  0  0  0  0
   -1.9500    1.3600   -0.1730 O   0  0  0  0  0  0  0  0  0  0  0  0
   -0.7850    1.9570   -0.0110 O   0  0  0  0  0  0  0  0  0  0  0  0
    0.6540    1.2450   -0.5690 P   0  0  0  0  0  0  0  0  0  0  0  0
    2.2000    2.0350   -0.3550 O   0  0  0  0  0  0  0  0  0  0  0  0
  1  2  1  0
  2  3  1  0
  2  8  1  0
  3  4  1  0
  4  5  1  0
  5  6  1  0
  6  7  1  0
  7  8  1  0
  8  9  1  0
M  END
