
     RDKit          3D

  9  8  0  0  0  0  0  0  0  0999 V2000
   -3.3630    0.1460   -0.0800 O   0  0  0  0  0  0  0  0  0  0  0  0
   -3.2240   -0.8620   -0.9120 O   0  0  0  0  0  0  0  0  0  0  0  0
   -2.0450   -0.8950   -1.4850 O   0  0  0  0  0  0  0  0  0  0  0  0
   -0.9250   -0.1100   -0.4450 P   0  0  0  0  0  0  0  0  0  0  0  0
   -1.1350   -0.4780    1.2070 O   0  0  0  0  0  0  0  0  0  0  0  0
    0.7490   -0.1890   -1.0080 N   0  0  0  0  0  0  0  0  0  0  0  0
    1.3010    1.0500   -0.8560 O   0  0  0  0  0  0  0  0  0  0  0  0
    2.3040    1.0710    0.5560 P   0  0  0  0  0  0  0  0  0  0  0  0
    3.6880    0.0740    0.2270 O   0  0  0  0  0  0  0  0  0  0  0  0
  1  2  1  0
  2  3  1  0
  3  4  1  0
  4  5  1  0
  4  6  1  0
  6  7  1  0
  7  8  1  0
  8  9  1  0
M  END
