
     RDKit          3D

 24 24  0  0  0  0  0  0  0  0999 V2000
    0.9010   -2.8130   -1.4140 O   0  0  0  0  0  0  0  0  0  0  0  0
    0.1610   -1.6200   -1.4630 C   0  0  1  0  0  0  0  0  0  0  0  0
   -1.1130   -1.8610   -0.7030 C   0  0  1  0  0  0  0  0  0  0  0  0
   -0.7810   -2.5750    0.4540 O   0  0  0  0  0  0  0  0  0  0  0  0
   -1.8210   -0.6070   -0.2950 C   0  0  1  0  0  0  0  0  0  0  0  0
   -1.9730   -0.5240    1.0710 O   0  0  0  0  0  0  0  0  0  0  0  0
   -3.5490   -0.5310    1.5550 P   0  0  0  0  0  0  0  0  0  0  0  0
   -4.6740    0.4100    0.9020 O   0  0  0  0  0  0  0  0  0  0  0  0
   -3.8940   -1.4080    2.9900 O   0  0  0  0  0  0  0  0  0  0  0  0
   -3.8390   -1.8250    0.7950 O   0  0  0  0  0  0  0  0  0  0  0  0
   -1.2140    0.6570   -0.8190 C   0  0  2  0  0  0  0  0  0  0  0  0
   -1.5980    0.8860   -2.1430 O   0  0  0  0  0  0  0  0  0  0  0  0
    0.2780    0.7450   -0.6780 C   0  0  1  0  0  0  0  0  0  0  0  0
    0.6660    1.4070    0.4410 O   0  0  0  0  0  0  0  0  0  0  0  0
    1.3910    2.8270    0.3710 P   0  0  0  0  0  0  0  0  0  0  0  0
    2.8410    3.0290   -0.4810 O   0  0  0  0  0  0  0  0  0  0  0  0
    0.6400    3.3590   -0.8380 O   0  0  0  0  0  0  0  0  0  0  0  0
    0.8940    4.0550    1.3880 O   0  0  0  0  0  0  0  0  0  0  0  0
    0.9710   -0.5780   -0.7330 C   0  0  2  0  0  0  0  0  0  0  0  0
    2.2330   -0.4250   -1.2150 O   0  0  0  0  0  0  0  0  0  0  0  0
    3.4840   -0.9410   -0.2940 P   0  0  0  0  0  0  0  0  0  0  0  0
    3.5900   -2.4400    0.2880 O   0  0  0  0  0  0  0  0  0  0  0  0
    2.8980   -0.2640    0.9460 O   0  0  0  0  0  0  0  0  0  0  0  0
    4.8470    0.0870   -0.1350 O   0  0  0  0  0  0  0  0  0  0  0  0
  2  1  1  1
  2  3  1  0
  2 19  1  0
  3  4  1  1
  3  5  1  0
  5  6  1  1
  5 11  1  0
  6  7  1  0
  7  8  1  0
  7  9  1  0
  7 10  1  0
 11 12  1  6
 11 13  1  0
 13 14  1  1
 13 19  1  0
 14 15  1  0
 15 16  1  0
 15 17  1  0
 15 18  1  0
 19 20  1  6
 20 21  1  0
 21 22  1  0
 21 23  1  0
 21 24  1  0
M  END
