
     RDKit          3D

  9  8  0  0  0  0  0  0  0  0999 V2000
    3.0390    0.8640    0.9090 O   0  0  0  0  0  0  0  0  0  0  0  0
    2.9600    0.9030   -0.4100 O   0  0  0  0  0  0  0  0  0  0  0  0
    1.6290    0.0000   -1.0190 P   0  0  0  0  0  0  0  0  0  0  0  0
    1.7430   -1.6160   -0.3800 O   0  0  0  0  0  0  0  0  0  0  0  0
    0.1000    0.7280   -0.6240 O   0  0  0  0  0  0  0  0  0  0  0  0
   -0.5590   -0.1370    0.1650 N   0  0  0  0  0  0  0  0  0  0  0  0
   -2.2440    0.3020    0.4730 P   0  0  0  0  0  0  0  0  0  0  0  0
   -3.2980   -1.0820    0.4990 O   0  0  0  0  0  0  0  0  0  0  0  0
   -2.8380    1.5160   -0.5940 O   0  0  0  0  0  0  0  0  0  0  0  0
  1  2  1  0
  2  3  1  0
  3  4  1  0
  3  5  1  0
  5  6  1  0
  6  7  1  0
  7  8  1  0
  7  9  1  0
M  END
