
     RDKit          3D

 31 34  0  0  0  0  0  0  0  0999 V2000
   -3.6180   -0.7990    2.0490 C   0  0  0  0  0  0  0  0  0  0  0  0
   -3.3800    0.6370    1.6420 C   0  0  0  0  0  0  0  0  0  0  0  0
   -3.2380    0.7760    0.2030 N   0  0  2  0  0  0  0  0  0  0  0  0
   -2.9510    2.1870   -0.0420 C   0  0  0  0  0  0  0  0  0  0  0  0
   -4.5100    0.3920   -0.3680 C   0  0  0  0  0  0  0  0  0  0  0  0
   -4.5270    0.4510   -1.8640 C   0  0  0  0  0  0  0  0  0  0  0  0
   -2.1430   -0.0510   -0.2660 C   0  0  0  0  0  0  0  0  0  0  0  0
   -1.2340    0.6520   -1.2050 C   0  0  0  0  0  0  0  0  0  0  0  0
   -0.0610   -0.0910   -1.7300 C   0  0  0  0  0  0  0  0  0  0  0  0
    0.8790   -0.5740   -0.7470 N   0  0  0  0  0  0  0  0  0  0  0  0
    1.8720    0.2420   -0.3630 C   0  0  0  0  0  0  0  0  0  0  0  0
    2.0750    1.5970   -0.9180 C   0  0  0  0  0  0  0  0  0  0  0  0
    1.5960    2.7420   -0.3350 C   0  0  0  0  0  0  0  0  0  0  0  0
    1.8080    3.9970   -0.8890 C   0  0  0  0  0  0  0  0  0  0  0  0
    2.5210    4.1080   -2.0600 C   0  0  0  0  0  0  0  0  0  0  0  0
    3.0140    2.9730   -2.6680 C   0  0  0  0  0  0  0  0  0  0  0  0
    2.7860    1.7330   -2.0900 C   0  0  0  0  0  0  0  0  0  0  0  0
    2.8110   -0.1610    0.5860 C   0  0  0  0  0  0  0  0  0  0  0  0
    3.8290    0.6810    0.9800 C   0  0  0  0  0  0  0  0  0  0  0  0
    4.7720    0.3140    1.9150 C   0  0  0  0  0  0  0  0  0  0  0  0
    5.8190    1.2080    2.3050 N   0  0  0  0  0  0  0  0  0  0  0  0
    4.6730   -0.9400    2.4590 C   0  0  0  0  0  0  0  0  0  0  0  0
    3.6340   -1.7980    2.0560 C   0  0  0  0  0  0  0  0  0  0  0  0
    2.6920   -1.4210    1.1180 C   0  0  0  0  0  0  0  0  0  0  0  0
    1.6720   -2.2790    0.7300 C   0  0  0  0  0  0  0  0  0  0  0  0
    1.5950   -3.5420    1.2760 C   0  0  0  0  0  0  0  0  0  0  0  0
    0.5740   -4.3590    0.8440 C   0  0  0  0  0  0  0  0  0  0  0  0
   -0.3460   -3.9530   -0.0950 C   0  0  0  0  0  0  0  0  0  0  0  0
   -1.4030   -4.8270   -0.5300 N   0  0  0  0  0  0  0  0  0  0  0  0
   -0.2230   -2.6820   -0.6070 C   0  0  0  0  0  0  0  0  0  0  0  0
    0.7780   -1.8100   -0.2160 C   0  0  0  0  0  0  0  0  0  0  0  0
  1  2  1  0
  2  3  1  0
  3  4  1  1
  3  5  1  0
  3  7  1  0
  5  6  1  0
  7  8  1  0
  8  9  1  0
  9 10  1  0
 10 11  2  0
 10 31  1  0
 11 12  1  0
 11 18  1  0
 12 13  2  0
 12 17  1  0
 13 14  1  0
 14 15  2  0
 15 16  1  0
 16 17  2  0
 18 19  2  0
 18 24  1  0
 19 20  1  0
 20 21  1  0
 20 22  2  0
 22 23  1  0
 23 24  2  0
 24 25  1  0
 25 26  2  0
 25 31  1  0
 26 27  1  0
 27 28  2  0
 28 29  1  0
 28 30  1  0
 30 31  2  0
M  CHG  2   3   1  10   1
M  END
