
     RDKit          3D

 31 34  0  0  0  0  0  0  0  0999 V2000
    7.2620    0.1580    1.4860 O   0  0  0  0  0  0  0  0  0  0  0  0
    6.8610   -0.2710    0.4760 C   0  0  0  0  0  0  0  0  0  0  0  0
    7.6960   -1.3570   -0.1450 N   0  0  0  0  0  0  0  0  0  0  0  0
    8.8770   -1.8150    0.4580 C   0  0  0  0  0  0  0  0  0  0  0  0
    9.3980   -2.8330   -0.3560 O   0  0  0  0  0  0  0  0  0  0  0  0
    5.7500   -0.0560   -0.3950 N   0  0  0  0  0  0  0  0  0  0  0  0
    4.9110    1.0530    0.6870 C   0  0  0  0  0  0  0  0  0  0  0  0
    5.4710    1.2730    1.6640 O   0  0  0  0  0  0  0  0  0  0  0  0
    3.6710    1.3990    0.0170 C   0  0  2  0  0  0  0  0  0  0  0  0
    2.8550    2.3790    0.8480 C   0  0  0  0  0  0  0  0  0  0  0  0
    1.7290    2.8800    0.0030 C   0  0  0  0  0  0  0  0  0  0  0  0
    1.4100    2.0750   -1.1930 C   0  0  0  0  0  0  0  0  0  0  0  0
    1.5210    0.5930   -0.8980 C   0  0  2  0  0  0  0  0  0  0  0  0
    0.3210    0.2370   -0.1290 N   0  0  0  0  0  0  0  0  0  0  0  0
   -0.8860    0.0190   -0.8350 C   0  0  0  0  0  0  0  0  0  0  0  0
   -0.8720    0.1430   -2.0810 O   0  0  0  0  0  0  0  0  0  0  0  0
   -2.1180   -0.3390   -0.1120 C   0  0  0  0  0  0  0  0  0  0  0  0
   -2.1400   -0.8790    1.1460 C   0  0  0  0  0  0  0  0  0  0  0  0
   -3.4710   -1.0470    1.4420 C   0  0  0  0  0  0  0  0  0  0  0  0
   -4.1560   -0.6020    0.3550 C   0  0  0  0  0  0  0  0  0  0  0  0
   -5.6150   -0.5590    0.1780 C   0  0  0  0  0  0  0  0  0  0  0  0
   -6.1590   -0.0040   -0.9900 C   0  0  0  0  0  0  0  0  0  0  0  0
   -7.5290    0.0660   -1.1280 C   0  0  0  0  0  0  0  0  0  0  0  0
   -8.3690   -0.4040   -0.1280 C   0  0  0  0  0  0  0  0  0  0  0  0
   -7.8050   -0.9390    0.9960 C   0  0  0  0  0  0  0  0  0  0  0  0
   -6.4320   -1.0170    1.1480 C   0  0  0  0  0  0  0  0  0  0  0  0
   -8.8240   -1.3330    1.8340 O   0  0  0  0  0  0  0  0  0  0  0  0
  -10.0320   -1.3420    1.0680 C   0  0  0  0  0  0  0  0  0  0  0  0
   -9.7590   -0.4500   -0.0120 O   0  0  0  0  0  0  0  0  0  0  0  0
   -3.3140   -0.1960   -0.5350 O   0  0  0  0  0  0  0  0  0  0  0  0
    2.7600    0.1930   -0.1850 C   0  0  0  0  0  0  0  0  0  0  0  0
  1  2  2  0
  2  3  1  0
  2  6  1  0
  3  4  1  0
  4  5  1  0
  6  7  1  0
  7  8  2  0
  9  7  1  1
  9 10  1  0
  9 31  1  0
 10 11  1  0
 11 12  1  0
 12 13  1  0
 13 14  1  1
 13 31  1  0
 14 15  1  0
 15 16  2  0
 15 17  1  0
 17 18  2  0
 17 30  1  0
 18 19  1  0
 19 20  2  0
 20 21  1  0
 20 30  1  0
 21 22  2  0
 21 26  1  0
 22 23  1  0
 23 24  2  0
 24 25  1  0
 24 29  1  0
 25 26  2  0
 25 27  1  0
 27 28  1  0
 28 29  1  0
M  END
