
     RDKit          3D

 31 34  0  0  0  0  0  0  0  0999 V2000
   -0.0670    6.3510    0.4140 N   0  0  0  0  0  0  0  0  0  0  0  0
    0.2020    4.9690    0.2690 C   0  0  0  0  0  0  0  0  0  0  0  0
   -0.0900    4.3800   -0.8010 O   0  0  0  0  0  0  0  0  0  0  0  0
    0.8220    4.2370    1.3750 C   0  0  0  0  0  0  0  0  0  0  0  0
    1.0380    2.8420    1.0900 N   0  0  0  0  0  0  0  0  0  0  0  0
    2.2840    2.4720    0.4950 C   0  0  0  0  0  0  0  0  0  0  0  0
    3.2010    3.2770    0.2050 O   0  0  0  0  0  0  0  0  0  0  0  0
    2.4980    1.0810    0.2110 C   0  0  0  0  0  0  0  0  0  0  0  0
    3.5320    0.2740    0.0520 C   0  0  0  0  0  0  0  0  0  0  0  0
    3.0900   -1.0790   -0.2270 C   0  0  0  0  0  0  0  0  0  0  0  0
    3.9660   -2.2480   -0.4600 C   0  0  0  0  0  0  0  0  0  0  0  0
    5.2750   -2.1340   -0.4270 C   0  0  0  0  0  0  0  0  0  0  0  0
    6.2160   -3.2460   -0.6480 C   0  0  0  0  0  0  0  0  0  0  0  0
    5.5530   -4.4390   -0.8960 O   0  0  0  0  0  0  0  0  0  0  0  0
    4.1710   -4.5760   -0.9330 C   0  0  0  0  0  0  0  0  0  0  0  0
    3.3750   -3.5360   -0.7260 C   0  0  0  0  0  0  0  0  0  0  0  0
    1.8060   -1.0610   -0.2320 N   0  0  0  0  0  0  0  0  0  0  0  0
    1.2750    0.2340    0.0270 C   0  0  1  0  0  0  0  0  0  0  0  0
    0.4790    0.3960    1.2750 C   0  0  2  0  0  0  0  0  0  0  0  0
   -0.7260   -0.4720    1.3150 C   0  0  0  0  0  0  0  0  0  0  0  0
   -0.9090   -1.3350    2.2090 O   0  0  0  0  0  0  0  0  0  0  0  0
   -1.6680   -0.3160    0.3350 O   0  0  0  0  0  0  0  0  0  0  0  0
   -2.8670   -1.0680    0.2410 C   0  0  2  0  0  0  0  0  0  0  0  0
   -3.0180   -1.7680   -1.0750 C   0  0  0  0  0  0  0  0  0  0  0  0
   -4.2500   -1.3580   -1.8370 C   0  0  0  0  0  0  0  0  0  0  0  0
   -5.5020   -1.4010   -1.0230 C   0  0  0  0  0  0  0  0  0  0  0  0
   -5.3200   -0.8300    0.3690 C   0  0  0  0  0  0  0  0  0  0  0  0
   -4.0100   -0.0830    0.3970 C   0  0  1  0  0  0  0  0  0  0  0  0
   -3.9300    0.5800    1.6200 O   0  0  0  0  0  0  0  0  0  0  0  0
    0.0850    1.8300    1.3680 C   0  0  0  0  0  0  0  0  0  0  0  0
   -1.0970    2.1730    1.6930 O   0  0  0  0  0  0  0  0  0  0  0  0
  1  2  1  0
  2  3  2  0
  2  4  1  0
  4  5  1  0
  5  6  1  0
  5 30  1  0
  6  7  2  0
  6  8  1  0
  8  9  2  0
  8 18  1  0
  9 10  1  0
 10 11  1  0
 10 17  2  0
 11 12  2  0
 11 16  1  0
 12 13  1  0
 13 14  1  0
 14 15  1  0
 15 16  2  0
 18 17  1  1
 18 19  1  0
 19 20  1  6
 19 30  1  0
 20 21  2  0
 20 22  1  0
 23 22  1  6
 23 24  1  0
 23 28  1  0
 24 25  1  0
 25 26  1  0
 26 27  1  0
 27 28  1  0
 28 29  1  1
 30 31  2  0
M  END
