
     RDKit          3D

 31 34  0  0  0  0  0  0  0  0999 V2000
   -4.8310    1.9370   -0.4240 C   0  0  0  0  0  0  0  0  0  0  0  0
   -4.8550    0.4360   -0.2310 C   0  0  1  0  0  0  0  0  0  0  0  0
   -6.1860   -0.1160   -0.6150 C   0  0  0  0  0  0  0  0  0  0  0  0
   -6.2020   -0.6510   -1.9410 O   0  0  0  0  0  0  0  0  0  0  0  0
   -5.2200   -1.6240   -2.2090 C   0  0  0  0  0  0  0  0  0  0  0  0
   -5.4120   -2.5520   -3.0360 O   0  0  0  0  0  0  0  0  0  0  0  0
   -3.9990   -1.4980   -1.4890 N   0  0  0  0  0  0  0  0  0  0  0  0
   -3.6920   -0.2030   -0.9230 C   0  0  2  0  0  0  0  0  0  0  0  0
   -2.6510   -0.2960    0.1730 C   0  0  1  0  0  0  0  0  0  0  0  0
   -2.3350   -1.7470    0.5020 C   0  0  0  0  0  0  0  0  0  0  0  0
   -1.4030    0.4550   -0.1890 C   0  0  0  0  0  0  0  0  0  0  0  0
   -0.3530    0.4470    0.7760 N   0  0  0  0  0  0  0  0  0  0  0  0
   -0.3860    0.9800    2.0830 C   0  0  0  0  0  0  0  0  0  0  0  0
   -1.4630    1.5430    2.4850 O   0  0  0  0  0  0  0  0  0  0  0  0
    0.7750    0.9070    2.9980 C   0  0  0  0  0  0  0  0  0  0  0  0
    1.9070    0.4270    2.3670 O   0  0  0  0  0  0  0  0  0  0  0  0
    2.5700    1.0590    1.3190 C   0  0  0  0  0  0  0  0  0  0  0  0
    2.1420    2.1450    0.8930 O   0  0  0  0  0  0  0  0  0  0  0  0
    3.7490    0.4340    0.7460 C   0  0  0  0  0  0  0  0  0  0  0  0
    4.4490    1.0040   -0.2880 C   0  0  0  0  0  0  0  0  0  0  0  0
    5.5680    0.4250   -0.8420 C   0  0  0  0  0  0  0  0  0  0  0  0
    6.2700    1.0140   -1.8920 C   0  0  0  0  0  0  0  0  0  0  0  0
    7.3830    0.4360   -2.4420 C   0  0  0  0  0  0  0  0  0  0  0  0
    7.8090   -0.7720   -1.9240 C   0  0  0  0  0  0  0  0  0  0  0  0
    7.1200   -1.3780   -0.8730 C   0  0  0  0  0  0  0  0  0  0  0  0
    5.9980   -0.7660   -0.3410 C   0  0  0  0  0  0  0  0  0  0  0  0
    5.3030   -1.3490    0.6990 C   0  0  0  0  0  0  0  0  0  0  0  0
    5.7000   -2.4430    1.1580 O   0  0  0  0  0  0  0  0  0  0  0  0
    4.2050   -0.7450    1.2160 N   0  0  0  0  0  0  0  0  0  0  0  0
   -3.2270    0.2320    1.3090 O   0  0  0  0  0  0  0  0  0  0  0  0
   -4.5890    0.0790    1.2230 C   0  0  0  0  0  0  0  0  0  0  0  0
  2  1  1  1
  2  3  1  0
  2  8  1  0
  2 31  1  0
  3  4  1  0
  4  5  1  0
  5  6  2  0
  5  7  1  0
  8  7  1  1
  8  9  1  0
  9 10  1  1
  9 11  1  0
  9 30  1  0
 11 12  1  0
 12 13  1  0
 13 14  2  0
 13 15  1  0
 15 16  1  0
 16 17  1  0
 17 18  2  0
 17 19  1  0
 19 20  2  0
 19 29  1  0
 20 21  1  0
 21 22  2  0
 21 26  1  0
 22 23  1  0
 23 24  2  0
 24 25  1  0
 25 26  2  0
 26 27  1  0
 27 28  2  0
 27 29  1  0
 30 31  1  0
M  END
