
     RDKit          3D

 31 33  0  0  0  0  0  0  0  0999 V2000
    2.2730    0.6800    3.4790 C   0  0  0  0  0  0  0  0  0  0  0  0
    1.9510   -0.4980    2.5840 C   0  0  2  0  0  0  0  0  0  0  0  0
    3.0330   -0.7740    1.6200 C   0  0  0  0  0  0  0  0  0  0  0  0
    3.9480    0.1360    1.3960 C   0  0  0  0  0  0  0  0  0  0  0  0
    5.0500   -0.0520    0.4640 C   0  0  0  0  0  0  0  0  0  0  0  0
    5.9410    0.9190    0.2890 C   0  0  0  0  0  0  0  0  0  0  0  0
    7.0510    0.8180   -0.6010 C   0  0  0  0  0  0  0  0  0  0  0  0
    8.0020    1.7810   -0.7350 C   0  0  0  0  0  0  0  0  0  0  0  0
    8.9860    1.4390   -1.6730 O   0  0  0  0  0  0  0  0  0  0  0  0
    9.5720    0.1660   -1.6000 C   0  0  0  0  0  0  0  0  0  0  0  0
    8.6070   -0.8590   -1.3850 N   0  0  0  0  0  0  0  0  0  0  0  0
    7.2710   -0.3860   -1.4750 C   0  0  1  0  0  0  0  0  0  0  0  0
    6.2290   -1.3880   -1.1880 C   0  0  0  0  0  0  0  0  0  0  0  0
    5.2410   -1.2540   -0.3370 C   0  0  0  0  0  0  0  0  0  0  0  0
    0.7770   -0.1980    1.8550 O   0  0  0  0  0  0  0  0  0  0  0  0
   -0.3790   -0.9370    1.9710 C   0  0  0  0  0  0  0  0  0  0  0  0
   -0.4010   -1.9150    2.7470 O   0  0  0  0  0  0  0  0  0  0  0  0
   -1.5720   -0.6120    1.2170 C   0  0  0  0  0  0  0  0  0  0  0  0
   -1.5930    0.3720    0.4220 O   0  0  0  0  0  0  0  0  0  0  0  0
   -2.7630   -1.3820    1.3400 N   0  0  0  0  0  0  0  0  0  0  0  0
   -3.9440   -1.1030    0.6290 N   0  0  0  0  0  0  0  0  0  0  0  0
   -4.5550    0.1900    0.6910 C   0  0  0  0  0  0  0  0  0  0  0  0
   -3.9820    1.0460    1.4050 O   0  0  0  0  0  0  0  0  0  0  0  0
   -5.7620    0.5440   -0.0070 C   0  0  0  0  0  0  0  0  0  0  0  0
   -6.2510    1.7660    0.1110 C   0  0  0  0  0  0  0  0  0  0  0  0
   -7.4900    2.1920   -0.5830 C   0  0  0  0  0  0  0  0  0  0  0  0
   -8.4630    1.1060   -0.8690 C   0  0  0  0  0  0  0  0  0  0  0  0
   -7.9130   -0.2700   -0.7810 C   0  0  1  0  0  0  0  0  0  0  0  0
   -8.4220   -1.1420   -1.9110 C   0  0  0  0  0  0  0  0  0  0  0  0
   -9.8260   -1.1370   -1.9180 O   0  0  0  0  0  0  0  0  0  0  0  0
   -6.4870   -0.3130   -0.8220 O   0  0  0  0  0  0  0  0  0  0  0  0
  2  1  1  1
  2  3  1  0
  2 15  1  0
  3  4  2  3
  4  5  1  0
  5  6  2  0
  5 14  1  0
  6  7  1  0
  7  8  2  0
  7 12  1  0
  8  9  1  0
  9 10  1  0
 10 11  1  0
 12 11  1  1
 12 13  1  0
 13 14  2  0
 15 16  1  0
 16 17  2  0
 16 18  1  0
 18 19  2  0
 18 20  1  0
 20 21  1  0
 21 22  1  0
 22 23  2  0
 22 24  1  0
 24 25  2  0
 24 31  1  0
 25 26  1  0
 26 27  1  0
 27 28  1  0
 28 29  1  6
 28 31  1  0
 29 30  1  0
M  END
