
     RDKit          3D

 31 34  0  0  0  0  0  0  0  0999 V2000
    0.1930    4.5260    0.4710 C   0  0  0  0  0  0  0  0  0  0  0  0
    0.8490    3.5720   -0.4750 C   0  0  0  0  0  0  0  0  0  0  0  0
    1.5390    4.0940   -1.6650 C   0  0  0  0  0  0  0  0  0  0  0  0
    0.8130    2.2760   -0.2480 C   0  0  0  0  0  0  0  0  0  0  0  0
    0.1290    1.7380    0.9350 C   0  0  0  0  0  0  0  0  0  0  0  0
   -0.9780    0.8030    0.5720 C   0  0  0  0  0  0  0  0  0  0  0  0
   -1.0650   -0.4450    0.9130 C   0  0  0  0  0  0  0  0  0  0  0  0
   -0.0500   -1.1080    1.7210 C   0  0  0  0  0  0  0  0  0  0  0  0
    0.5470   -2.3240    1.0070 C   0  0  0  0  0  0  0  0  0  0  0  0
    1.2080   -1.9990   -0.2850 C   0  0  0  0  0  0  0  0  0  0  0  0
    2.3560   -1.0640   -0.1520 C   0  0  0  0  0  0  0  0  0  0  0  0
    3.1430   -0.6010   -1.2150 C   0  0  0  0  0  0  0  0  0  0  0  0
    4.0830    0.2180   -0.7160 N   0  0  0  0  0  0  0  0  0  0  0  0
    5.0800    0.9210   -1.2920 C   0  0  0  0  0  0  0  0  0  0  0  0
    5.9470    1.7140   -0.5720 C   0  0  0  0  0  0  0  0  0  0  0  0
    5.7730    1.7800    0.7930 C   0  0  0  0  0  0  0  0  0  0  0  0
    4.7830    1.0810    1.3540 N   0  0  0  0  0  0  0  0  0  0  0  0
    3.9380    0.3020    0.6180 C   0  0  0  0  0  0  0  0  0  0  0  0
    2.8910   -0.4790    0.9310 N   0  0  0  0  0  0  0  0  0  0  0  0
   -2.1970   -1.2420    0.4950 N   0  0  0  0  0  0  0  0  0  0  0  0
   -3.2510   -0.7250   -0.2900 C   0  0  0  0  0  0  0  0  0  0  0  0
   -4.2570   -1.4030   -0.6960 N   0  0  0  0  0  0  0  0  0  0  0  0
   -4.4120   -2.7630   -0.3980 C   0  0  0  0  0  0  0  0  0  0  0  0
   -3.4640   -3.7090   -0.6600 C   0  0  0  0  0  0  0  0  0  0  0  0
   -3.6610   -5.0170   -0.3280 N   0  0  0  0  0  0  0  0  0  0  0  0
   -4.7840   -5.4350    0.2650 C   0  0  0  0  0  0  0  0  0  0  0  0
   -5.7410   -4.4790    0.5280 C   0  0  0  0  0  0  0  0  0  0  0  0
   -6.8220   -4.8430    1.0920 O   0  0  0  0  0  0  0  0  0  0  0  0
   -5.5600   -3.1910    0.2080 N   0  0  0  0  0  0  0  0  0  0  0  0
   -3.1190    0.6650   -0.6450 N   0  0  0  0  0  0  0  0  0  0  0  0
   -2.0290    1.4600   -0.2580 C   0  0  0  0  0  0  0  0  0  0  0  0
  1  2  1  0
  2  3  1  0
  2  4  2  3
  4  5  1  0
  5  6  1  0
  6  7  2  0
  6 31  1  0
  7  8  1  0
  7 20  1  0
  8  9  1  0
  9 10  1  0
 10 11  1  0
 11 12  2  0
 11 19  1  0
 12 13  1  0
 13 14  1  0
 13 18  1  0
 14 15  2  0
 15 16  1  0
 16 17  2  0
 17 18  1  0
 18 19  2  0
 20 21  1  0
 21 22  2  3
 21 30  1  0
 22 23  1  0
 23 24  2  0
 23 29  1  0
 24 25  1  0
 25 26  2  0
 26 27  1  0
 27 28  2  0
 27 29  1  0
 30 31  1  0
M  END
