
     RDKit          3D

 31 34  0  0  0  0  0  0  0  0999 V2000
    1.5830   -0.8950    4.1380 C   0  0  0  0  0  0  0  0  0  0  0  0
    0.9850   -1.2450    2.7990 C   0  0  0  0  0  0  0  0  0  0  0  0
    0.7570   -0.0260    2.0590 N   0  0  0  0  0  0  0  0  0  0  0  0
   -0.5150    0.6750    2.1440 C   0  0  0  0  0  0  0  0  0  0  0  0
   -1.5050    0.2390    1.1420 C   0  0  0  0  0  0  0  0  0  0  0  0
   -1.6210    0.8980   -0.0590 C   0  0  0  0  0  0  0  0  0  0  0  0
   -2.5560    0.5030   -1.0260 C   0  0  0  0  0  0  0  0  0  0  0  0
   -2.6770    1.2410   -2.3040 C   0  0  0  0  0  0  0  0  0  0  0  0
   -3.7920    2.2090   -2.2430 C   0  0  1  0  0  0  0  0  0  0  0  0
   -3.9700    2.9970   -3.5280 C   0  0  0  0  0  0  0  0  0  0  0  0
   -5.1180    1.7040   -1.7950 C   0  0  0  0  0  0  0  0  0  0  0  0
   -3.3410   -0.5790   -0.6930 C   0  0  0  0  0  0  0  0  0  0  0  0
   -4.3070   -1.2280   -1.3510 N   0  0  0  0  0  0  0  0  0  0  0  0
   -4.7480   -2.2310   -0.5750 C   0  0  0  0  0  0  0  0  0  0  0  0
   -5.7830   -3.1560   -0.9290 N   0  0  0  0  0  0  0  0  0  0  0  0
   -6.1840   -4.1950   -0.0310 C   0  0  0  0  0  0  0  0  0  0  0  0
   -4.0730   -2.2380    0.5850 N   0  0  0  0  0  0  0  0  0  0  0  0
   -3.1850   -1.2090    0.5320 C   0  0  0  0  0  0  0  0  0  0  0  0
   -2.2820   -0.8150    1.4470 N   0  0  0  0  0  0  0  0  0  0  0  0
    1.7730    0.5020    1.2410 C   0  0  0  0  0  0  0  0  0  0  0  0
    1.5190    1.5720    0.5980 O   0  0  0  0  0  0  0  0  0  0  0  0
    3.0440   -0.1130    1.1190 N   0  0  0  0  0  0  0  0  0  0  0  0
    4.0560    0.4960    0.2430 C   0  0  2  0  0  0  0  0  0  0  0  0
    4.3880   -0.4700   -0.8850 C   0  0  0  0  0  0  0  0  0  0  0  0
    5.8740   -0.8500   -0.8420 C   0  0  0  0  0  0  0  0  0  0  0  0
    6.6140    0.4360   -0.8250 C   0  0  0  0  0  0  0  0  0  0  0  0
    7.5980    1.0000   -1.6250 C   0  0  0  0  0  0  0  0  0  0  0  0
    7.8480    2.2280   -1.0500 C   0  0  0  0  0  0  0  0  0  0  0  0
    7.0490    2.3450    0.0090 N   0  0  0  0  0  0  0  0  0  0  0  0
    6.2970    1.2940    0.1770 N   0  0  0  0  0  0  0  0  0  0  0  0
    5.2730    0.8220    1.0900 C   0  0  0  0  0  0  0  0  0  0  0  0
  1  2  1  0
  2  3  1  0
  3  4  1  0
  3 20  1  0
  4  5  1  0
  5  6  2  0
  5 19  1  0
  6  7  1  0
  7  8  1  0
  7 12  2  0
  8  9  1  0
  9 10  1  6
  9 11  1  0
 12 13  1  0
 12 18  1  0
 13 14  2  0
 14 15  1  0
 14 17  1  0
 15 16  1  0
 17 18  1  0
 18 19  2  0
 20 21  2  0
 20 22  1  0
 23 22  1  1
 23 24  1  0
 23 31  1  0
 24 25  1  0
 25 26  1  0
 26 27  2  0
 26 30  1  0
 27 28  1  0
 28 29  2  0
 29 30  1  0
 30 31  1  0
M  CHG  1  19   1
M  END
