
     RDKit          3D

 20 21  0  0  0  0  0  0  0  0999 V2000
    5.4840   -1.0970   -0.5890 C   0  0  0  0  0  0  0  0  0  0  0  0
    4.5740    0.1180   -0.8770 C   0  0  1  0  0  0  0  0  0  0  0  0
    3.1650   -0.2910   -0.8070 C   0  0  0  0  0  0  0  0  0  0  0  0
    2.2160    0.0560    0.0040 C   0  0  0  0  0  0  0  0  0  0  0  0
    0.9180   -0.5350   -0.1960 N   0  0  0  0  0  0  0  0  0  0  0  0
   -0.2510    0.2220    0.1290 C   0  0  0  0  0  0  0  0  0  0  0  0
   -1.4860   -0.5700   -0.1980 C   0  0  0  0  0  0  0  0  0  0  0  0
   -1.3700   -1.7300   -0.6910 O   0  0  0  0  0  0  0  0  0  0  0  0
   -2.7900   -0.0150    0.0470 C   0  0  0  0  0  0  0  0  0  0  0  0
   -3.9010   -0.7830   -0.2750 C   0  0  0  0  0  0  0  0  0  0  0  0
   -3.7520   -2.0920   -0.8360 N   0  0  0  0  0  0  0  0  0  0  0  0
   -5.1200   -0.2800   -0.0520 N   0  0  0  0  0  0  0  0  0  0  0  0
   -5.2710    0.9440    0.4740 C   0  0  0  0  0  0  0  0  0  0  0  0
   -6.4460    1.3980    0.6760 O   0  0  0  0  0  0  0  0  0  0  0  0
   -4.2390    1.7140    0.7970 N   0  0  0  0  0  0  0  0  0  0  0  0
   -2.9820    1.2380    0.5850 C   0  0  0  0  0  0  0  0  0  0  0  0
   -2.0040    1.9780    0.8960 O   0  0  0  0  0  0  0  0  0  0  0  0
    2.3610    1.0000    1.0950 C   0  0  0  0  0  0  0  0  0  0  0  0
    3.4880    1.5940    1.3560 C   0  0  0  0  0  0  0  0  0  0  0  0
    4.9370    1.3090    0.4120 S   0  0  0  0  0  0  0  0  0  0  0  0
  2  1  1  1
  2  3  1  0
  2 20  1  0
  3  4  2  0
  4  5  1  0
  4 18  1  0
  5  6  1  0
  6  7  1  0
  7  8  2  0
  7  9  1  0
  9 10  2  0
  9 16  1  0
 10 11  1  0
 10 12  1  0
 12 13  1  0
 13 14  2  0
 13 15  1  0
 15 16  1  0
 16 17  2  0
 18 19  2  0
 19 20  1  0
M  END
