
     RDKit          3D

 20 22  0  0  0  0  0  0  0  0999 V2000
   -2.7320   -2.1450    0.3270 N   0  0  0  0  0  0  0  0  0  0  0  0
   -3.2090   -0.7750    0.1930 C   0  0  0  0  0  0  0  0  0  0  0  0
   -4.1940   -0.4570    1.0190 C   0  0  0  0  0  0  0  0  0  0  0  0
   -4.8810    1.1350    1.0030 S   0  0  0  0  0  0  0  0  0  0  0  0
   -4.3830    1.9390    2.2020 O   0  0  0  0  0  0  0  0  0  0  0  0
   -4.3740    1.9690   -0.4760 C   0  0  0  0  0  0  0  0  0  0  0  0
   -3.2820    1.2750   -1.1260 C   0  0  0  0  0  0  0  0  0  0  0  0
   -2.7350    0.0800   -0.8770 C   0  0  0  0  0  0  0  0  0  0  0  0
   -1.6850   -0.4230   -1.8120 C   0  0  0  0  0  0  0  0  0  0  0  0
   -0.3560   -0.2990   -1.3490 N   0  0  0  0  0  0  0  0  0  0  0  0
    0.3610   -0.7720   -0.2640 C   0  0  0  0  0  0  0  0  0  0  0  0
   -0.1330   -1.4890    0.6010 O   0  0  0  0  0  0  0  0  0  0  0  0
    1.8000   -0.4360   -0.0730 C   0  0  0  0  0  0  0  0  0  0  0  0
    2.5710    0.3420   -0.8950 C   0  0  0  0  0  0  0  0  0  0  0  0
    3.8430    0.3920   -0.3440 C   0  0  0  0  0  0  0  0  0  0  0  0
    3.8250   -0.3320    0.7660 N   0  0  0  0  0  0  0  0  0  0  0  0
    2.6100   -0.8220    0.9230 N   0  0  0  0  0  0  0  0  0  0  0  0
    5.1450   -0.3310    1.4150 C   0  0  0  0  0  0  0  0  0  0  0  0
    5.9960    0.3800    0.4150 C   0  0  0  0  0  0  0  0  0  0  0  0
    5.1040    0.9230   -0.5420 O   0  0  0  0  0  0  0  0  0  0  0  0
  1  2  1  0
  2  3  2  0
  2  8  1  0
  3  4  1  0
  4  5  2  0
  4  6  1  6
  6  7  1  0
  7  8  2  0
  8  9  1  0
  9 10  1  0
 10 11  1  0
 11 12  2  0
 11 13  1  0
 13 14  1  0
 13 17  2  0
 14 15  2  0
 15 16  1  0
 15 20  1  0
 16 17  1  0
 16 18  1  0
 18 19  1  0
 19 20  1  0
M  END
