
     RDKit          3D

 20 21  0  0  0  0  0  0  0  0999 V2000
    6.0270    1.5550   -0.4840 C   0  0  0  0  0  0  0  0  0  0  0  0
    6.6510    0.2270   -0.7760 C   0  0  0  0  0  0  0  0  0  0  0  0
    7.8790    0.1350   -0.9550 O   0  0  0  0  0  0  0  0  0  0  0  0
    5.8120   -0.9540   -0.8480 C   0  0  0  0  0  0  0  0  0  0  0  0
    4.5180   -0.9390   -0.6720 C   0  0  0  0  0  0  0  0  0  0  0  0
    3.5780   -2.0000   -0.7120 N   0  0  0  0  0  0  0  0  0  0  0  0
    2.3080   -1.6970   -0.5490 N   0  0  0  0  0  0  0  0  0  0  0  0
    1.8870   -0.5580   -0.3660 C   0  0  0  0  0  0  0  0  0  0  0  0
    0.4790   -0.4480   -0.2190 N   0  0  0  0  0  0  0  0  0  0  0  0
   -0.0990    0.7880   -0.1090 C   0  0  0  0  0  0  0  0  0  0  0  0
    0.7060    1.7060   -0.1700 O   0  0  0  0  0  0  0  0  0  0  0  0
   -1.5460    0.9850    0.0630 C   0  0  0  0  0  0  0  0  0  0  0  0
   -2.2520   -0.2440    0.1020 O   0  0  0  0  0  0  0  0  0  0  0  0
   -3.6170   -0.2210    0.2610 C   0  0  0  0  0  0  0  0  0  0  0  0
   -4.2700    0.9190    0.1860 C   0  0  0  0  0  0  0  0  0  0  0  0
   -5.7450    1.0180    0.3480 C   0  0  0  0  0  0  0  0  0  0  0  0
   -6.3710   -0.2480    0.5900 N   0  0  0  0  0  0  0  0  0  0  0  0
   -5.6510   -1.4630    0.6670 C   0  0  0  0  0  0  0  0  0  0  0  0
   -4.3220   -1.4670    0.5100 C   0  0  0  0  0  0  0  0  0  0  0  0
    3.4090    0.3980   -0.3140 S   0  0  0  0  0  0  0  0  0  0  0  0
  1  2  1  0
  2  3  2  0
  2  4  1  0
  4  5  2  3
  5  6  1  0
  5 20  1  0
  6  7  1  0
  7  8  2  0
  8  9  1  0
  8 20  1  0
  9 10  1  0
 10 11  2  0
 10 12  1  0
 12 13  1  0
 13 14  1  0
 14 15  2  0
 14 19  1  0
 15 16  1  0
 16 17  1  0
 17 18  1  0
 18 19  2  0
M  END
