
     RDKit          3D

 20 22  0  0  0  0  0  0  0  0999 V2000
   -3.9490    1.8360    0.2560 C   0  0  0  0  0  0  0  0  0  0  0  0
   -3.2690    1.2510   -1.3090 S   0  0  0  0  0  0  0  0  0  0  0  0
   -3.0940   -0.5120   -1.4390 C   0  0  0  0  0  0  0  0  0  0  0  0
   -2.0700   -1.1620   -0.5890 C   0  0  1  0  0  0  0  0  0  0  0  0
   -0.7690   -0.7110   -0.8020 O   0  0  0  0  0  0  0  0  0  0  0  0
   -0.1240   -1.0040    0.3990 C   0  0  1  0  0  0  0  0  0  0  0  0
    1.1830   -0.4500    0.5050 N   0  0  0  0  0  0  0  0  0  0  0  0
    1.8190   -0.2920    1.6880 C   0  0  0  0  0  0  0  0  0  0  0  0
    3.0550    0.2630    1.4650 C   0  0  0  0  0  0  0  0  0  0  0  0
    3.1630    0.4440    0.1000 C   0  0  0  0  0  0  0  0  0  0  0  0
    4.1900    0.9630   -0.6770 C   0  0  0  0  0  0  0  0  0  0  0  0
    5.3490    1.3990   -0.0220 N   0  0  0  0  0  0  0  0  0  0  0  0
    4.0140    1.0190   -2.0130 N   0  0  0  0  0  0  0  0  0  0  0  0
    2.8680    0.5790   -2.5580 C   0  0  0  0  0  0  0  0  0  0  0  0
    1.8600    0.0700   -1.8040 N   0  0  0  0  0  0  0  0  0  0  0  0
    2.0000    0.0000   -0.4850 C   0  0  0  0  0  0  0  0  0  0  0  0
   -1.1190   -0.3700    1.3840 C   0  0  2  0  0  0  0  0  0  0  0  0
   -0.8560   -0.6940    2.6820 O   0  0  0  0  0  0  0  0  0  0  0  0
   -2.3930   -1.0500    0.8590 C   0  0  2  0  0  0  0  0  0  0  0  0
   -2.4080   -2.3720    1.3790 O   0  0  0  0  0  0  0  0  0  0  0  0
  1  2  1  0
  2  3  1  0
  4  3  1  6
  4  5  1  0
  4 19  1  0
  5  6  1  0
  6  7  1  6
  6 17  1  0
  7  8  1  0
  7 16  1  0
  8  9  2  0
  9 10  1  0
 10 11  2  0
 10 16  1  0
 11 12  1  0
 11 13  1  0
 13 14  2  0
 14 15  1  0
 15 16  2  0
 17 18  1  1
 17 19  1  0
 19 20  1  1
M  END
