
     RDKit          3D

 20 22  0  0  0  0  0  0  0  0999 V2000
    2.4980    0.4240    0.2920 O   0  0  0  0  0  0  0  0  0  0  0  0
    2.3560    0.1660   -0.9190 C   0  0  0  0  0  0  0  0  0  0  0  0
    3.4610    0.0590   -1.7730 N   0  0  0  0  0  0  0  0  0  0  0  0
    4.8230    0.1890   -1.4860 C   0  0  0  0  0  0  0  0  0  0  0  0
    5.5200   -0.7490   -0.5950 C   0  0  2  0  0  0  0  0  0  0  0  0
    5.2590   -0.9930    0.8200 C   0  0  0  0  0  0  0  0  0  0  0  0
    6.5150   -0.2440    0.3900 C   0  0  0  0  0  0  0  0  0  0  0  0
    1.0230   -0.0120   -1.3730 N   0  0  0  0  0  0  0  0  0  0  0  0
   -0.1110    0.0920   -0.5250 C   0  0  0  0  0  0  0  0  0  0  0  0
   -0.1720    0.3660    0.8220 C   0  0  0  0  0  0  0  0  0  0  0  0
   -1.4850    0.3560    1.1760 N   0  0  0  0  0  0  0  0  0  0  0  0
   -2.2460    0.0900    0.1160 C   0  0  0  0  0  0  0  0  0  0  0  0
   -3.7420   -0.0110    0.0820 C   0  0  2  0  0  0  0  0  0  0  0  0
   -4.2760    1.3320    0.4880 C   0  0  0  0  0  0  0  0  0  0  0  0
   -5.7980    1.1590    0.4760 C   0  0  0  0  0  0  0  0  0  0  0  0
   -5.9170   -0.3970    1.3710 S   0  0  2  0  0  0  0  0  0  0  0  0
   -6.9450   -1.2840    0.7760 O   0  0  0  0  0  0  0  0  0  0  0  0
   -6.1040   -0.1420    2.8270 O   0  0  0  0  0  0  0  0  0  0  0  0
   -4.2570   -1.0220    1.0740 C   0  0  0  0  0  0  0  0  0  0  0  0
   -1.4080   -0.0690   -0.9130 N   0  0  0  0  0  0  0  0  0  0  0  0
  1  2  2  0
  2  3  1  0
  2  8  1  0
  3  4  1  0
  5  4  1  1
  5  6  1  0
  5  7  1  0
  6  7  1  0
  8  9  1  0
  9 10  2  0
  9 20  1  0
 10 11  1  0
 11 12  2  0
 13 12  1  1
 12 20  1  0
 13 14  1  0
 13 19  1  0
 14 15  1  0
 16 15  1  6
 16 17  2  0
 16 18  2  0
 16 19  1  0
M  END
