
     RDKit          3D

 20 21  0  0  0  0  0  0  0  0999 V2000
    7.4440   -1.2010   -1.1150 C   0  0  0  0  0  0  0  0  0  0  0  0
    6.4430   -0.2240   -0.6620 C   0  0  0  0  0  0  0  0  0  0  0  0
    6.6020    0.9910   -0.9320 O   0  0  0  0  0  0  0  0  0  0  0  0
    5.2740   -0.5580    0.0810 N   0  0  0  0  0  0  0  0  0  0  0  0
    4.3610    0.4170    0.4840 N   0  0  0  0  0  0  0  0  0  0  0  0
    2.9730    0.3930    0.1280 C   0  0  0  0  0  0  0  0  0  0  0  0
    2.6100   -0.5710   -0.5800 O   0  0  0  0  0  0  0  0  0  0  0  0
    2.1050    1.4210    0.5750 N   0  0  0  0  0  0  0  0  0  0  0  0
    0.6990    1.3950    0.2130 C   0  0  0  0  0  0  0  0  0  0  0  0
    0.0640    0.1530    0.7480 C   0  0  1  0  0  0  0  0  0  0  0  0
    0.2310    0.1650    2.1480 O   0  0  0  0  0  0  0  0  0  0  0  0
   -1.3800    0.1280    0.4060 C   0  0  0  0  0  0  0  0  0  0  0  0
   -1.9460    1.1100   -0.2510 C   0  0  0  0  0  0  0  0  0  0  0  0
   -3.3110    1.1790   -0.6220 N   0  0  0  0  0  0  0  0  0  0  0  0
   -4.2830    0.1820   -0.3350 C   0  0  0  0  0  0  0  0  0  0  0  0
   -4.0380   -0.9260    0.3100 C   0  0  0  0  0  0  0  0  0  0  0  0
   -5.2640   -1.7180    0.4280 C   0  0  0  0  0  0  0  0  0  0  0  0
   -6.1870   -1.1620   -0.6010 C   0  0  0  0  0  0  0  0  0  0  0  0
   -5.7420    0.2560   -0.7270 C   0  0  0  0  0  0  0  0  0  0  0  0
   -2.3980   -1.2670    0.8920 S   0  0  0  0  0  0  0  0  0  0  0  0
  1  2  1  0
  2  3  2  0
  2  4  1  0
  4  5  1  0
  5  6  1  0
  6  7  2  0
  6  8  1  0
  8  9  1  0
  9 10  1  0
 10 11  1  1
 10 12  1  0
 12 13  2  0
 12 20  1  0
 13 14  1  0
 14 15  1  0
 15 16  2  0
 15 19  1  0
 16 17  1  0
 16 20  1  0
 17 18  1  0
 18 19  1  0
M  END
