
     RDKit          3D

 20 21  0  0  0  0  0  0  0  0999 V2000
    6.4300   -0.9390   -1.1790 C   0  0  0  0  0  0  0  0  0  0  0  0
    5.1390   -0.2950   -0.7440 C   0  0  0  0  0  0  0  0  0  0  0  0
    5.0000   -0.3580    0.7460 C   0  0  0  0  0  0  0  0  0  0  0  0
    3.7590    0.2450    1.1890 N   0  0  0  0  0  0  0  0  0  0  0  0
    2.5240   -0.2970    0.7580 C   0  0  0  0  0  0  0  0  0  0  0  0
    2.4470   -1.2970    0.0010 O   0  0  0  0  0  0  0  0  0  0  0  0
    1.3070    0.3000    1.1870 N   0  0  0  0  0  0  0  0  0  0  0  0
    0.0960   -0.2460    0.7540 N   0  0  0  0  0  0  0  0  0  0  0  0
   -0.8780    1.0610    0.2320 S   0  0  1  0  0  0  0  0  0  0  0  0
   -1.2100    1.9560    1.3820 O   0  0  0  0  0  0  0  0  0  0  0  0
   -0.0360    1.9270   -0.7180 O   0  0  0  0  0  0  0  0  0  0  0  0
   -2.2850    0.5870   -0.6280 C   0  0  0  0  0  0  0  0  0  0  0  0
   -2.2830    0.1320   -1.9020 C   0  0  0  0  0  0  0  0  0  0  0  0
   -3.5680   -0.1880   -2.4860 C   0  0  0  0  0  0  0  0  0  0  0  0
   -4.7600   -0.0280   -1.8910 C   0  0  0  0  0  0  0  0  0  0  0  0
   -4.8120    0.5450   -0.5570 C   0  0  1  0  0  0  0  0  0  0  0  0
   -5.5590    0.0450    0.5900 C   0  0  0  0  0  0  0  0  0  0  0  0
   -4.1760    0.0360    1.2380 C   0  0  0  0  0  0  0  0  0  0  0  0
   -3.7880   -0.2090    2.5820 N   0  0  0  0  0  0  0  0  0  0  0  0
   -3.5230    0.3280    0.1280 C   0  0  0  0  0  0  0  0  0  0  0  0
  1  2  1  0
  2  3  1  0
  3  4  1  0
  4  5  1  0
  5  6  2  0
  5  7  1  0
  7  8  1  0
  9  8  1  1
  9 10  2  0
  9 11  2  0
  9 12  1  0
 12 13  2  0
 12 20  1  0
 13 14  1  0
 14 15  2  0
 15 16  1  0
 16 17  1  1
 16 20  1  0
 17 18  1  0
 18 19  1  0
 18 20  2  0
M  END
