
     RDKit          3D

 13 14  0  0  0  0  0  0  0  0999 V2000
   -3.7590    0.3970    0.2020 C   0  0  0  0  0  0  0  0  0  0  0  0
   -2.4430    0.9790    0.5150 C   0  0  0  0  0  0  0  0  0  0  0  0
   -1.3610    0.2920    0.1670 C   0  0  0  0  0  0  0  0  0  0  0  0
   -1.5480   -0.9900   -0.5000 C   0  0  0  0  0  0  0  0  0  0  0  0
   -0.6140   -1.8250   -0.9260 C   0  0  0  0  0  0  0  0  0  0  0  0
    0.8400   -1.7120   -0.8540 C   0  0  0  0  0  0  0  0  0  0  0  0
    1.5630   -0.7290   -0.3380 C   0  0  0  0  0  0  0  0  0  0  0  0
    2.9120   -0.6730   -0.2970 N   0  0  0  0  0  0  0  0  0  0  0  0
    3.3060    0.4630    0.2960 C   0  0  0  0  0  0  0  0  0  0  0  0
    4.6240    0.9350    0.5520 N   0  0  0  0  0  0  0  0  0  0  0  0
    2.2320    1.1340    0.6350 O   0  0  0  0  0  0  0  0  0  0  0  0
    1.1460    0.4530    0.2730 C   0  0  0  0  0  0  0  0  0  0  0  0
   -0.0730    0.9110    0.5000 C   0  0  0  0  0  0  0  0  0  0  0  0
  1  2  1  0
  2  3  2  3
  3  4  1  0
  3 13  1  0
  4  5  2  0
  5  6  1  0
  6  7  2  0
  7  8  1  0
  7 12  1  0
  8  9  2  0
  9 10  1  0
  9 11  1  0
 11 12  1  0
 12 13  2  0
M  END
