
     RDKit          3D

 13 14  0  0  0  0  0  0  0  0999 V2000
    2.7270   -1.9790   -0.1830 C   0  0  0  0  0  0  0  0  0  0  0  0
    2.2020   -0.6520   -0.2120 N   0  0  0  0  0  0  0  0  0  0  0  0
    0.9660   -0.3420   -0.0860 C   0  0  0  0  0  0  0  0  0  0  0  0
   -0.1180   -1.2740    0.1090 C   0  0  0  0  0  0  0  0  0  0  0  0
   -1.3750   -0.8390    0.2300 C   0  0  0  0  0  0  0  0  0  0  0  0
   -2.4490   -1.8420    0.4280 C   0  0  0  0  0  0  0  0  0  0  0  0
   -1.7310    0.5650    0.1750 C   0  0  0  0  0  0  0  0  0  0  0  0
   -0.7990    1.4710    0.0000 C   0  0  0  0  0  0  0  0  0  0  0  0
   -0.8680    2.9430   -0.0940 C   0  0  0  0  0  0  0  0  0  0  0  0
   -1.9050    3.6540   -0.0190 O   0  0  0  0  0  0  0  0  0  0  0  0
    0.4830    3.3440   -0.2830 N   0  0  0  0  0  0  0  0  0  0  0  0
    1.3180    2.1940   -0.3040 C   0  0  0  0  0  0  0  0  0  0  0  0
    0.5950    1.0920   -0.1410 C   0  0  0  0  0  0  0  0  0  0  0  0
  1  2  1  0
  2  3  2  3
  3  4  1  0
  3 13  1  0
  4  5  2  0
  5  6  1  0
  5  7  1  0
  7  8  2  0
  8  9  1  0
  8 13  1  0
  9 10  2  0
  9 11  1  0
 11 12  1  0
 12 13  2  0
M  END
