
     RDKit          3D

 13 13  0  0  0  0  0  0  0  0999 V2000
   -1.8470   -0.3830    1.8370 C   0  0  0  0  0  0  0  0  0  0  0  0
   -1.3090    0.2390    0.8290 C   0  0  0  0  0  0  0  0  0  0  0  0
   -1.5880    1.6360    0.7180 N   0  0  0  0  0  0  0  0  0  0  0  0
   -0.7000    2.6220    0.1110 C   0  0  0  0  0  0  0  0  0  0  0  0
   -0.1560    2.0530   -1.1660 C   0  0  0  0  0  0  0  0  0  0  0  0
    1.1090    1.2650   -0.9730 C   0  0  0  0  0  0  0  0  0  0  0  0
    0.7920   -0.1120   -0.6110 N   0  0  0  0  0  0  0  0  0  0  0  0
    1.8160   -1.0960   -0.7780 C   0  0  0  0  0  0  0  0  0  0  0  0
    2.9440   -0.7730    0.2330 C   0  0  0  0  0  0  0  0  0  0  0  0
    2.4580   -0.8120    1.5230 O   0  0  0  0  0  0  0  0  0  0  0  0
   -0.4670   -0.5640   -0.0980 C   0  0  0  0  0  0  0  0  0  0  0  0
   -0.9090   -1.7130   -0.5010 C   0  0  0  0  0  0  0  0  0  0  0  0
   -2.1930   -2.3440   -0.1450 C   0  0  0  0  0  0  0  0  0  0  0  0
  1  2  2  0
  2  3  1  0
  2 11  1  0
  3  4  1  0
  4  5  1  0
  5  6  1  0
  6  7  1  0
  7  8  1  0
  7 11  1  0
  8  9  1  0
  9 10  1  0
 11 12  2  3
 12 13  1  0
M  END
