
     RDKit          3D

 13 13  0  0  0  0  0  0  0  0999 V2000
    1.6080   -3.2770   -0.7450 O   0  0  0  0  0  0  0  0  0  0  0  0
    1.1820   -2.0810   -0.4470 C   0  0  0  0  0  0  0  0  0  0  0  0
    0.0810   -1.6190   -1.2870 C   0  0  0  0  0  0  0  0  0  0  0  0
   -1.0810   -1.1650   -0.8400 C   0  0  0  0  0  0  0  0  0  0  0  0
   -1.4000   -1.0730    0.6160 C   0  0  0  0  0  0  0  0  0  0  0  0
   -2.1780    0.0720    0.9390 N   0  0  0  0  0  0  0  0  0  0  0  0
   -1.8010    1.4250    1.0650 C   0  0  0  0  0  0  0  0  0  0  0  0
   -0.9970    2.1330    0.2990 C   0  0  0  0  0  0  0  0  0  0  0  0
   -0.2330    1.8350   -0.8850 C   0  0  0  0  0  0  0  0  0  0  0  0
    1.0190    1.3800   -0.9880 C   0  0  0  0  0  0  0  0  0  0  0  0
    2.0130    1.0390   -0.0160 C   0  0  0  0  0  0  0  0  0  0  0  0
    2.3180   -0.0530    0.6300 C   0  0  0  0  0  0  0  0  0  0  0  0
    1.7650   -1.3370    0.6040 N   0  0  0  0  0  0  0  0  0  0  0  0
  1  2  2  0
  2  3  1  0
  2 13  1  0
  3  4  2  0
  4  5  1  0
  5  6  1  0
  6  7  1  0
  7  8  2  0
  8  9  1  0
  9 10  2  0
 10 11  1  0
 11 12  2  0
 12 13  1  0
M  END
