
     RDKit          3D

 13 14  0  0  0  0  0  0  0  0999 V2000
   -3.6390   -0.8940   -0.2990 C   0  0  0  0  0  0  0  0  0  0  0  0
   -2.3430   -1.0180   -0.3040 C   0  0  0  0  0  0  0  0  0  0  0  0
   -1.4810    0.1500   -0.3750 C   0  0  0  0  0  0  0  0  0  0  0  0
   -0.0350    0.0110   -0.3800 N   0  0  0  0  0  0  0  0  0  0  0  0
    0.5780    1.0390   -1.1310 C   0  0  0  0  0  0  0  0  0  0  0  0
    1.9120    0.8030   -1.6980 C   0  0  0  0  0  0  0  0  0  0  0  0
    2.7880   -0.1720   -1.0160 C   0  0  0  0  0  0  0  0  0  0  0  0
    2.5940   -0.0090    0.4850 C   0  0  0  0  0  0  0  0  0  0  0  0
    1.7280   -1.1470    0.9210 C   0  0  0  0  0  0  0  0  0  0  0  0
    0.3500   -1.1340    0.3820 C   0  0  0  0  0  0  0  0  0  0  0  0
   -2.0370    1.3050   -0.4320 N   0  0  0  0  0  0  0  0  0  0  0  0
   -3.4660    1.5360   -0.4320 C   0  0  0  0  0  0  0  0  0  0  0  0
   -4.2050    0.3530   -0.3620 O   0  0  0  0  0  0  0  0  0  0  0  0
  1  2  2  0
  1 13  1  0
  2  3  1  0
  3  4  1  0
  3 11  2  0
  4  5  1  0
  4 10  1  0
  5  6  1  0
  6  7  1  0
  7  8  1  0
  8  9  1  0
  9 10  1  0
 11 12  1  0
 12 13  1  0
M  END
