
     RDKit          3D

 13 14  0  0  0  0  0  0  0  0999 V2000
   -2.2020    2.1140    0.5920 O   0  0  0  0  0  0  0  0  0  0  0  0
   -2.6860    0.8490    0.3610 C   0  0  0  0  0  0  0  0  0  0  0  0
   -1.5780   -0.2020    0.4910 C   0  0  1  0  0  0  0  0  0  0  0  0
   -2.2190   -1.5470    0.1480 C   0  0  0  0  0  0  0  0  0  0  0  0
   -1.2510   -2.1620   -0.8300 C   0  0  0  0  0  0  0  0  0  0  0  0
   -0.6320   -0.9040   -1.4790 C   0  0  0  0  0  0  0  0  0  0  0  0
   -0.5390    0.0140   -0.4220 N   0  0  0  0  0  0  0  0  0  0  0  0
    0.3430    1.0540   -0.3740 C   0  0  0  0  0  0  0  0  0  0  0  0
    1.7860    0.7030   -0.2450 C   0  0  0  0  0  0  0  0  0  0  0  0
    2.5470    1.0790    0.7470 C   0  0  0  0  0  0  0  0  0  0  0  0
    3.9040    0.5340    0.5140 C   0  0  0  0  0  0  0  0  0  0  0  0
    3.7360   -0.1890   -0.7600 C   0  0  0  0  0  0  0  0  0  0  0  0
    2.5250   -0.0640   -1.1470 N   0  0  0  0  0  0  0  0  0  0  0  0
  1  2  1  0
  3  2  1  6
  3  4  1  0
  3  7  1  0
  4  5  1  0
  5  6  1  0
  6  7  1  0
  7  8  1  0
  8  9  1  0
  9 10  2  0
  9 13  1  0
 10 11  1  0
 11 12  1  0
 12 13  2  0
M  END
