
     RDKit          3D

 13 14  0  0  0  0  0  0  0  0999 V2000
   -2.6170    1.7930    0.7910 C   0  0  0  0  0  0  0  0  0  0  0  0
   -2.5370    0.5280    0.0490 C   0  0  0  0  0  0  0  0  0  0  0  0
   -3.6110    0.0050   -0.4210 O   0  0  0  0  0  0  0  0  0  0  0  0
   -1.3130   -0.2140   -0.2120 C   0  0  0  0  0  0  0  0  0  0  0  0
   -1.2160   -1.3610   -0.8740 C   0  0  0  0  0  0  0  0  0  0  0  0
   -2.2890   -2.0880   -1.4580 N   0  0  0  0  0  0  0  0  0  0  0  0
    0.1450   -1.7690   -0.9060 N   0  0  0  0  0  0  0  0  0  0  0  0
    0.8730   -1.0520    0.1560 C   0  0  1  0  0  0  0  0  0  0  0  0
    2.2920   -0.8630   -0.1990 C   0  0  0  0  0  0  0  0  0  0  0  0
    2.8880    0.4590    0.0830 C   0  0  0  0  0  0  0  0  0  0  0  0
    2.0730    1.3640    0.9430 C   0  0  0  0  0  0  0  0  0  0  0  0
    0.6170    1.3100    0.5680 C   0  0  0  0  0  0  0  0  0  0  0  0
    0.0480    0.1820    0.2050 C   0  0  0  0  0  0  0  0  0  0  0  0
  1  2  1  0
  2  3  2  0
  2  4  1  0
  4  5  2  0
  4 13  1  0
  5  6  1  0
  5  7  1  0
  7  8  1  0
  8  9  1  6
  8 13  1  0
  9 10  1  0
 10 11  1  0
 11 12  1  0
 12 13  2  0
M  END
