
     RDKit          3D

 25 28  0  0  0  0  0  0  0  0999 V2000
   -3.6660   -2.6120   -0.7420 C   0  0  0  0  0  0  0  0  0  0  0  0
   -3.9520   -1.5460    0.2710 C   0  0  0  0  0  0  0  0  0  0  0  0
   -3.8600   -0.2070   -0.2470 N   0  0  0  0  0  0  0  0  0  0  0  0
   -4.8580    0.2570   -1.1970 C   0  0  0  0  0  0  0  0  0  0  0  0
   -5.4080    1.5120   -0.5510 C   0  0  0  0  0  0  0  0  0  0  0  0
   -6.6220    1.6960   -0.3730 O   0  0  0  0  0  0  0  0  0  0  0  0
   -4.4000    2.4490   -0.1750 N   0  0  0  0  0  0  0  0  0  0  0  0
   -3.0520    2.0260    0.1790 C   0  0  0  0  0  0  0  0  0  0  0  0
   -2.0520    2.8740    0.5370 C   0  0  0  0  0  0  0  0  0  0  0  0
   -0.7230    1.8310    0.8240 S   0  0  0  0  0  0  0  0  0  0  0  0
   -1.5340    0.2900    0.4600 C   0  0  0  0  0  0  0  0  0  0  0  0
   -0.8830   -1.0220    0.5360 C   0  0  0  0  0  0  0  0  0  0  0  0
    0.5270   -0.8170    0.9300 N   0  0  0  0  0  0  0  0  0  0  0  0
    1.3290   -0.3510   -0.1550 C   0  0  2  0  0  0  0  0  0  0  0  0
    2.1730   -1.4320   -0.7670 C   0  0  0  0  0  0  0  0  0  0  0  0
    3.4290   -1.2860   -0.4040 C   0  0  0  0  0  0  0  0  0  0  0  0
    4.4620   -2.1630   -0.8300 N   0  0  0  0  0  0  0  0  0  0  0  0
    3.6330   -0.1320    0.4740 C   0  0  1  0  0  0  0  0  0  0  0  0
    4.7440    0.7430    0.1050 C   0  0  0  0  0  0  0  0  0  0  0  0
    5.7430    1.1140    0.9070 N   0  0  0  0  0  0  0  0  0  0  0  0
    6.5960    1.9270    0.2350 C   0  0  0  0  0  0  0  0  0  0  0  0
    6.0910    2.0430   -1.0000 N   0  0  0  0  0  0  0  0  0  0  0  0
    4.9740    1.3340   -1.0910 N   0  0  0  0  0  0  0  0  0  0  0  0
    2.3230    0.6460    0.3770 C   0  0  0  0  0  0  0  0  0  0  0  0
   -2.8040    0.7160    0.1370 C   0  0  0  0  0  0  0  0  0  0  0  0
  1  2  1  0
  2  3  1  0
  3  4  1  0
  3 25  1  0
  4  5  1  0
  5  6  2  0
  5  7  1  0
  7  8  1  0
  8  9  2  0
  8 25  1  0
  9 10  1  0
 10 11  1  0
 11 12  1  0
 11 25  2  0
 12 13  1  0
 14 13  1  1
 14 15  1  0
 14 24  1  0
 15 16  2  0
 16 17  1  0
 16 18  1  0
 18 19  1  6
 18 24  1  0
 19 20  1  0
 19 23  2  0
 20 21  2  0
 21 22  1  0
 22 23  1  0
M  CHG  1  13   1
M  END
