
     RDKit          3D

 25 28  0  0  0  0  0  0  0  0999 V2000
   -3.7510    1.3520    1.9900 C   0  0  0  0  0  0  0  0  0  0  0  0
   -2.3940    1.0950    1.6050 N   0  0  0  0  0  0  0  0  0  0  0  0
   -1.3680    1.2820    2.4280 N   0  0  0  0  0  0  0  0  0  0  0  0
   -0.2820    0.9720    1.7810 N   0  0  0  0  0  0  0  0  0  0  0  0
   -0.5770    0.5800    0.5320 C   0  0  0  0  0  0  0  0  0  0  0  0
    0.3710    0.1570   -0.4940 C   0  0  1  0  0  0  0  0  0  0  0  0
    1.5430    0.9900   -0.6240 N   0  0  0  0  0  0  0  0  0  0  0  0
    2.3890    0.8170    0.5070 C   0  0  0  0  0  0  0  0  0  0  0  0
    2.7230   -0.6480    0.6340 C   0  0  2  0  0  0  0  0  0  0  0  0
    3.8530   -1.0660   -0.1470 N   0  0  0  0  0  0  0  0  0  0  0  0
    5.1830   -0.6220    0.0270 C   0  0  0  0  0  0  0  0  0  0  0  0
    5.5790    0.1810    1.0910 C   0  0  0  0  0  0  0  0  0  0  0  0
    6.9000    0.5840    1.1880 C   0  0  0  0  0  0  0  0  0  0  0  0
    7.7870    0.1990    0.2580 N   0  0  0  0  0  0  0  0  0  0  0  0
    7.4250   -0.5870   -0.7930 C   0  0  0  0  0  0  0  0  0  0  0  0
    6.1280   -0.9940   -0.9040 C   0  0  0  0  0  0  0  0  0  0  0  0
    1.1750   -1.3970    0.0500 S   0  0  0  0  0  0  0  0  0  0  0  0
   -1.9520    0.6600    0.4210 C   0  0  0  0  0  0  0  0  0  0  0  0
   -2.6620    0.3020   -0.7890 C   0  0  0  0  0  0  0  0  0  0  0  0
   -3.7820   -0.3920   -0.8280 C   0  0  0  0  0  0  0  0  0  0  0  0
   -4.4540   -0.7190   -2.1390 C   0  0  0  0  0  0  0  0  0  0  0  0
   -5.7830   -0.1930   -2.1000 N   0  0  0  0  0  0  0  0  0  0  0  0
   -6.4560   -0.3950   -0.8550 C   0  0  0  0  0  0  0  0  0  0  0  0
   -5.7620   -1.3930    0.0330 C   0  0  0  0  0  0  0  0  0  0  0  0
   -4.4480   -0.8850    0.2890 O   0  0  0  0  0  0  0  0  0  0  0  0
  1  2  1  0
  2  3  1  0
  2 18  1  0
  3  4  2  0
  4  5  1  0
  6  5  1  1
  5 18  2  0
  6  7  1  0
  6 17  1  0
  7  8  1  0
  8  9  1  0
  9 10  1  6
  9 17  1  0
 10 11  1  0
 11 12  2  0
 11 16  1  0
 12 13  1  0
 13 14  2  0
 14 15  1  0
 15 16  2  0
 18 19  1  0
 19 20  2  3
 20 21  1  0
 20 25  1  0
 21 22  1  0
 22 23  1  0
 23 24  1  0
 24 25  1  0
M  CHG  1  14   1
M  END
