
     RDKit          3D

 25 28  0  0  0  0  0  0  0  0999 V2000
   -4.1220    1.7200    1.2590 O   0  0  0  0  0  0  0  0  0  0  0  0
   -3.1880    1.5270    0.4230 C   0  0  0  0  0  0  0  0  0  0  0  0
   -2.3810    2.4910   -0.1100 N   0  0  0  0  0  0  0  0  0  0  0  0
   -1.5310    1.9100   -0.9380 N   0  0  0  0  0  0  0  0  0  0  0  0
   -1.7540    0.6000   -0.9660 C   0  0  0  0  0  0  0  0  0  0  0  0
   -1.0490   -0.4450   -1.7460 C   0  0  0  0  0  0  0  0  0  0  0  0
    0.1270   -1.0100   -0.9580 C   0  0  0  0  0  0  0  0  0  0  0  0
    1.0390    0.0540   -0.6690 N   0  0  0  0  0  0  0  0  0  0  0  0
    1.9650   -0.3140    0.4120 C   0  0  1  0  0  0  0  0  0  0  0  0
    2.9750   -1.3230   -0.0270 C   0  0  0  0  0  0  0  0  0  0  0  0
    4.2600   -1.2710    0.7340 C   0  0  0  0  0  0  0  0  0  0  0  0
    4.8730    0.0800    0.8390 C   0  0  1  0  0  0  0  0  0  0  0  0
    6.0860    0.2400   -0.0640 C   0  0  0  0  0  0  0  0  0  0  0  0
    5.5740    0.1210   -1.4860 C   0  0  0  0  0  0  0  0  0  0  0  0
    4.0130    1.0830   -1.3640 S   0  0  0  0  0  0  0  0  0  0  0  0
    3.9240    1.2070    0.4650 C   0  0  1  0  0  0  0  0  0  0  0  0
    2.5450    0.9390    0.9650 C   0  0  0  0  0  0  0  0  0  0  0  0
   -2.7870    0.3620   -0.1180 N   0  0  0  0  0  0  0  0  0  0  0  0
   -3.3150   -0.9020    0.1130 N   0  0  0  0  0  0  0  0  0  0  0  0
   -4.4370   -1.0580    0.9880 C   0  0  0  0  0  0  0  0  0  0  0  0
   -5.6570   -0.4040    0.4200 C   0  0  0  0  0  0  0  0  0  0  0  0
   -5.8100    0.0230   -0.8860 C   0  0  0  0  0  0  0  0  0  0  0  0
   -7.0370    0.5460   -0.9720 N   0  0  0  0  0  0  0  0  0  0  0  0
   -7.6390    0.4630    0.2020 N   0  0  0  0  0  0  0  0  0  0  0  0
   -6.8120   -0.1210    1.0880 C   0  0  0  0  0  0  0  0  0  0  0  0
  1  2  2  0
  2  3  1  0
  2 18  1  0
  3  4  1  0
  4  5  2  0
  5  6  1  0
  5 18  1  0
  6  7  1  0
  7  8  1  0
  9  8  1  6
  9 10  1  0
  9 17  1  0
 10 11  1  0
 12 11  1  6
 12 13  1  0
 12 16  1  0
 13 14  1  0
 14 15  1  0
 15 16  1  0
 16 17  1  1
 18 19  1  0
 19 20  1  0
 20 21  1  0
 21 22  1  0
 21 25  2  0
 22 23  2  0
 23 24  1  0
 24 25  1  0
M  CHG  1   8   1
M  END
