
     RDKit          3D

 25 27  0  0  0  0  0  0  0  0999 V2000
    5.8380    1.4250   -1.6420 C   0  0  0  0  0  0  0  0  0  0  0  0
    6.9650    0.4790   -1.3130 C   0  0  0  0  0  0  0  0  0  0  0  0
    6.6610   -0.4740   -0.2370 C   0  0  0  0  0  0  0  0  0  0  0  0
    5.5210   -0.5290    0.3970 C   0  0  0  0  0  0  0  0  0  0  0  0
    5.2040   -1.4760    1.4740 C   0  0  0  0  0  0  0  0  0  0  0  0
    3.8090   -1.7830    1.4440 N   0  0  0  0  0  0  0  0  0  0  0  0
    3.2820    0.0450    1.0930 S   0  0  2  0  0  0  0  0  0  0  0  0
    3.5970    0.5840    2.5200 O   0  0  0  0  0  0  0  0  0  0  0  0
    1.7030    0.0400    0.8520 N   0  0  0  0  0  0  0  0  0  0  0  0
    1.1750   -0.3340   -0.4120 C   0  0  2  0  0  0  0  0  0  0  0  0
    1.6390    0.6080   -1.4810 C   0  0  0  0  0  0  0  0  0  0  0  0
   -0.3300   -0.3260   -0.4170 C   0  0  0  0  0  0  0  0  0  0  0  0
   -1.0030   -1.3710   -0.7320 N   0  0  0  0  0  0  0  0  0  0  0  0
   -2.4040   -1.3730   -0.7390 C   0  0  0  0  0  0  0  0  0  0  0  0
   -3.1860   -0.3240   -0.4300 C   0  0  0  0  0  0  0  0  0  0  0  0
   -4.5320   -0.3340   -0.4410 N   0  0  0  0  0  0  0  0  0  0  0  0
   -5.8890   -0.3430   -0.4550 C   0  0  0  0  0  0  0  0  0  0  0  0
   -6.7060   -1.3120   -0.9210 C   0  0  0  0  0  0  0  0  0  0  0  0
   -8.0800   -0.8790   -0.7320 C   0  0  0  0  0  0  0  0  0  0  0  0
   -7.9700    0.4230   -0.1250 N   0  0  0  0  0  0  0  0  0  0  0  0
   -6.7410    0.7560    0.0470 C   0  0  0  0  0  0  0  0  0  0  0  0
   -2.4850    0.9560   -0.0470 C   0  0  1  0  0  0  0  0  0  0  0  0
   -2.8870    1.3760    1.3560 C   0  0  0  0  0  0  0  0  0  0  0  0
   -1.0560    0.8440   -0.0750 N   0  0  0  0  0  0  0  0  0  0  0  0
    4.3350    0.3410    0.1590 N   0  0  0  0  0  0  0  0  0  0  0  0
  1  2  1  0
  2  3  1  0
  3  4  2  3
  4  5  1  0
  4 25  1  0
  5  6  1  0
  6  7  1  0
  7  8  2  0
  7  9  1  6
  7 25  2  0
  9 10  1  0
 10 11  1  6
 10 12  1  0
 12 13  2  0
 12 24  1  0
 13 14  1  0
 14 15  2  0
 15 16  1  0
 15 22  1  0
 16 17  1  0
 17 18  2  0
 17 21  1  0
 18 19  1  0
 19 20  1  0
 20 21  2  0
 22 23  1  1
 22 24  1  0
M  CHG  1  20   1
M  END
