
     RDKit          3D

  9  8  0  0  0  0  0  0  0  0999 V2000
   -3.5830    1.0070    0.9730 C   0  0  0  0  0  0  0  0  0  0  0  0
   -2.7950    0.0090    0.6140 C   0  0  0  0  0  0  0  0  0  0  0  0
   -1.4510    0.2660    0.1200 C   0  0  0  0  0  0  0  0  0  0  0  0
   -0.6450   -0.7060   -0.2440 C   0  0  0  0  0  0  0  0  0  0  0  0
   -1.0740   -2.0530   -0.1630 N   0  0  0  0  0  0  0  0  0  0  0  0
    0.6550   -0.4420   -0.7210 N   0  0  0  0  0  0  0  0  0  0  0  0
    1.4820    0.4970   -0.0030 C   0  0  0  0  0  0  0  0  0  0  0  0
    2.8090    0.6760   -0.6100 C   0  0  0  0  0  0  0  0  0  0  0  0
    3.9060    0.3950    0.0740 C   0  0  0  0  0  0  0  0  0  0  0  0
  1  2  2  0
  2  3  1  0
  3  4  2  3
  4  5  1  0
  4  6  1  0
  6  7  1  0
  7  8  1  0
  8  9  2  0
M  END
