
     RDKit          3D

 25 28  0  0  0  0  0  0  0  0999 V2000
    5.4040    2.5070    0.1370 C   0  0  0  0  0  0  0  0  0  0  0  0
    5.1690    1.1390    0.6680 C   0  0  0  0  0  0  0  0  0  0  0  0
    6.2220    0.3560    1.0950 C   0  0  0  0  0  0  0  0  0  0  0  0
    5.9460   -0.8740    1.5640 N   0  0  0  0  0  0  0  0  0  0  0  0
    4.6790   -1.3520    1.6250 C   0  0  0  0  0  0  0  0  0  0  0  0
    3.6280   -0.5650    1.1970 C   0  0  0  0  0  0  0  0  0  0  0  0
    2.2750   -1.0270    1.2410 N   0  0  0  0  0  0  0  0  0  0  0  0
    1.7870   -2.3060    1.6980 C   0  0  0  0  0  0  0  0  0  0  0  0
    0.7370   -2.6160    0.6410 C   0  0  0  0  0  0  0  0  0  0  0  0
    0.0700   -1.2520    0.5340 C   0  0  2  0  0  0  0  0  0  0  0  0
   -0.4870   -1.0300   -0.7700 N   0  0  0  0  0  0  0  0  0  0  0  0
   -1.2520    0.1360   -1.0370 C   0  0  0  0  0  0  0  0  0  0  0  0
   -0.7280    1.1800   -1.6470 C   0  0  0  0  0  0  0  0  0  0  0  0
   -1.4290    2.4400   -1.9710 C   0  0  0  0  0  0  0  0  0  0  0  0
   -2.7780    2.4410   -1.5560 N   0  0  0  0  0  0  0  0  0  0  0  0
   -3.4230    1.3390   -0.8870 C   0  0  0  0  0  0  0  0  0  0  0  0
   -4.6420    1.5120   -0.5880 N   0  0  0  0  0  0  0  0  0  0  0  0
   -5.5470    0.3020    0.2060 S   0  0  2  0  0  0  0  0  0  0  0  0
   -6.8670   -0.0280   -0.5680 N   0  0  0  0  0  0  0  0  0  0  0  0
   -6.1020    0.8670    1.4950 O   0  0  0  0  0  0  0  0  0  0  0  0
   -4.5480   -1.1020    0.4620 C   0  0  0  0  0  0  0  0  0  0  0  0
   -3.1660   -0.9310   -0.0300 C   0  0  0  0  0  0  0  0  0  0  0  0
   -2.6680    0.1370   -0.6040 C   0  0  0  0  0  0  0  0  0  0  0  0
    1.1400   -0.2470    0.8160 C   0  0  0  0  0  0  0  0  0  0  0  0
    3.9290    0.6600    0.7320 N   0  0  0  0  0  0  0  0  0  0  0  0
  1  2  1  0
  2  3  2  0
  2 25  1  0
  3  4  1  0
  4  5  2  0
  5  6  1  0
  6  7  1  0
  6 25  2  0
  7  8  1  0
  7 24  1  0
  8  9  1  0
  9 10  1  0
 10 11  1  6
 10 24  1  0
 11 12  1  0
 12 13  2  0
 12 23  1  0
 13 14  1  0
 14 15  1  0
 15 16  1  0
 16 17  2  0
 16 23  1  0
 17 18  1  0
 18 19  2  0
 18 20  2  0
 18 21  1  1
 21 22  1  0
 22 23  2  0
M  CHG  1  19   1
M  END
