
     RDKit          3D

  9  9  0  0  0  0  0  0  0  0999 V2000
    0.2730    2.6260   -0.1430 C   0  0  0  0  0  0  0  0  0  0  0  0
   -0.0350    1.5470    0.7230 N   0  0  0  0  0  0  0  0  0  0  0  0
    0.1210    0.2260    0.2140 C   0  0  1  0  0  0  0  0  0  0  0  0
    1.5520   -0.0250   -0.1230 C   0  0  0  0  0  0  0  0  0  0  0  0
    1.8300   -1.3410   -0.6380 N   0  0  0  0  0  0  0  0  0  0  0  0
   -0.3920   -0.7390    1.2760 C   0  0  0  0  0  0  0  0  0  0  0  0
   -1.5450   -1.4880    0.6780 C   0  0  0  0  0  0  0  0  0  0  0  0
   -2.0230   -0.5190   -0.3990 C   0  0  0  0  0  0  0  0  0  0  0  0
   -0.7220   -0.0750   -0.9950 C   0  0  0  0  0  0  0  0  0  0  0  0
  1  2  1  0
  2  3  1  0
  3  4  1  6
  3  6  1  0
  3  9  1  0
  4  5  1  0
  6  7  1  0
  7  8  1  0
  8  9  1  0
M  CHG  1   5   1
M  END
