
     RDKit          3D

 15 15  0  0  0  0  0  0  0  0999 V2000
   -2.9130    1.2630   -1.6140 C   0  0  0  0  0  0  0  0  0  0  0  0
   -2.4600    0.2440   -0.5900 C   0  0  2  0  0  0  0  0  0  0  0  0
   -3.7000   -0.4520   -0.0830 C   0  0  0  0  0  0  0  0  0  0  0  0
   -1.8040    0.8110    0.4690 O   0  0  0  0  0  0  0  0  0  0  0  0
   -0.5240    0.4660    0.6310 N   0  0  0  0  0  0  0  0  0  0  0  0
   -0.0560   -0.8580    0.7740 C   0  0  0  0  0  0  0  0  0  0  0  0
   -0.9290   -1.7830    0.7440 O   0  0  0  0  0  0  0  0  0  0  0  0
    1.3120   -1.2850    0.9500 C   0  0  0  0  0  0  0  0  0  0  0  0
    2.3860   -0.5490    1.0150 C   0  0  0  0  0  0  0  0  0  0  0  0
    2.5710    1.2550    0.9120 S   0  0  0  0  0  0  0  0  0  0  0  0
    4.2660    1.1760    0.2700 C   0  0  0  0  0  0  0  0  0  0  0  0
    4.8430    2.0250   -0.4520 O   0  0  0  0  0  0  0  0  0  0  0  0
    4.7360   -0.0530    0.7870 N   0  0  0  0  0  0  0  0  0  0  0  0
    3.7680   -0.9730    1.1840 C   0  0  0  0  0  0  0  0  0  0  0  0
    4.0490   -2.1270    1.6710 O   0  0  0  0  0  0  0  0  0  0  0  0
  2  1  1  6
  2  3  1  0
  2  4  1  0
  4  5  1  0
  5  6  1  0
  6  7  2  0
  6  8  1  0
  8  9  2  3
  9 10  1  0
  9 14  1  0
 10 11  1  0
 11 12  2  0
 11 13  1  0
 13 14  1  0
 14 15  2  0
M  END
