
     RDKit          3D

 18 18  0  0  0  0  0  0  0  0999 V2000
    6.1750   -1.9560    0.6990 C   0  0  0  0  0  0  0  0  0  0  0  0
    5.0010   -1.3980    0.5450 C   0  0  0  0  0  0  0  0  0  0  0  0
    3.7500   -0.8130    0.3600 C   0  0  0  0  0  0  0  0  0  0  0  0
    3.4410    0.4710    0.0810 C   0  0  0  0  0  0  0  0  0  0  0  0
    2.1730    0.8690   -0.0140 C   0  0  0  0  0  0  0  0  0  0  0  0
    1.2030   -0.0680    0.1770 C   0  0  0  0  0  0  0  0  0  0  0  0
   -0.2540    0.0860    0.1570 C   0  0  0  0  0  0  0  0  0  0  0  0
   -1.0200   -0.9710    0.3910 C   0  0  0  0  0  0  0  0  0  0  0  0
   -2.8120   -0.8390    0.3860 S   0  0  0  0  0  0  0  0  0  0  0  0
   -3.4870   -2.4880    0.7870 C   0  0  0  0  0  0  0  0  0  0  0  0
   -3.1060   -3.3980   -0.3550 C   0  0  0  0  0  0  0  0  0  0  0  0
   -0.8030    1.3810   -0.1220 C   0  0  0  0  0  0  0  0  0  0  0  0
   -2.0860    1.4620   -0.1300 O   0  0  0  0  0  0  0  0  0  0  0  0
   -0.1350    2.5210   -0.3780 O   0  0  0  0  0  0  0  0  0  0  0  0
   -0.5590    3.8030   -0.6530 C   0  0  0  0  0  0  0  0  0  0  0  0
   -1.4390    3.8260   -1.8740 C   0  0  0  0  0  0  0  0  0  0  0  0
   -1.7980    4.9280   -2.2370 O   0  0  0  0  0  0  0  0  0  0  0  0
    2.1490   -1.5400    0.4990 S   0  0  0  0  0  0  0  0  0  0  0  0
  1  2  3  0
  2  3  1  0
  3  4  2  0
  3 18  1  0
  4  5  1  0
  5  6  2  0
  6  7  1  0
  6 18  1  0
  7  8  2  3
  7 12  1  0
  8  9  1  0
  9 10  1  0
 10 11  1  0
 12 13  2  0
 12 14  1  0
 14 15  1  0
 15 16  1  0
 16 17  2  0
M  END
