
     RDKit          3D

 18 18  0  0  0  0  0  0  0  0999 V2000
    4.0760   -2.0810    1.0860 C   0  0  0  0  0  0  0  0  0  0  0  0
    3.4530   -1.0370    0.4130 O   0  0  0  0  0  0  0  0  0  0  0  0
    3.8560   -1.0370   -0.9220 C   0  0  0  0  0  0  0  0  0  0  0  0
    3.1250    0.1370   -1.5840 C   0  0  0  0  0  0  0  0  0  0  0  0
    1.6940   -0.0770   -1.4580 C   0  0  0  0  0  0  0  0  0  0  0  0
    0.8330    0.7100   -0.8700 C   0  0  0  0  0  0  0  0  0  0  0  0
   -0.6020    0.2310   -0.8900 C   0  0  0  0  0  0  0  0  0  0  0  0
   -1.2210    0.0160    0.7910 S   0  0  0  0  0  0  0  0  0  0  0  0
   -2.9430   -0.5570    0.6790 C   0  0  0  0  0  0  0  0  0  0  0  0
   -3.5080   -0.7390   -0.4870 C   0  0  0  0  0  0  0  0  0  0  0  0
   -4.8780   -1.1940   -0.7880 C   0  0  0  0  0  0  0  0  0  0  0  0
   -5.8270   -1.5190    0.6850 S   0  0  0  0  0  0  0  0  0  0  0  0
   -4.8190   -1.1900    2.1170 C   0  0  0  0  0  0  0  0  0  0  0  0
   -3.5890   -0.7800    1.9640 C   0  0  0  0  0  0  0  0  0  0  0  0
    1.0610    1.9630   -0.2170 C   0  0  0  0  0  0  0  0  0  0  0  0
    2.1750    2.4870   -0.1250 O   0  0  0  0  0  0  0  0  0  0  0  0
   -0.0000    2.6500    0.3520 O   0  0  0  0  0  0  0  0  0  0  0  0
    0.2000    3.8920    1.0040 C   0  0  0  0  0  0  0  0  0  0  0  0
  1  2  1  0
  2  3  1  0
  3  4  1  0
  4  5  1  0
  5  6  2  3
  6  7  1  0
  6 15  1  0
  7  8  1  0
  8  9  1  0
  9 10  2  0
  9 14  1  0
 10 11  1  0
 11 12  1  0
 12 13  1  0
 13 14  2  0
 15 16  2  0
 15 17  1  0
 17 18  1  0
M  END
