
     RDKit          3D

 16 16  0  0  0  0  0  0  0  0999 V2000
    5.2630   -0.0870    0.1960 C   0  0  0  0  0  0  0  0  0  0  0  0
    4.4620   -1.6670   -0.2570 S   0  0  0  0  0  0  0  0  0  0  0  0
    2.7550   -1.7020    0.2800 C   0  0  0  0  0  0  0  0  0  0  0  0
    1.9110   -0.7170   -0.4260 C   0  0  0  0  0  0  0  0  0  0  0  0
    2.4900    0.0080   -1.3000 O   0  0  0  0  0  0  0  0  0  0  0  0
    0.5230   -0.5730   -0.1560 N   0  0  0  0  0  0  0  0  0  0  0  0
   -0.2760    0.3750   -0.8400 C   0  0  0  0  0  0  0  0  0  0  0  0
    0.2770    1.0980   -1.7050 O   0  0  0  0  0  0  0  0  0  0  0  0
   -1.7080    0.5350   -0.5700 C   0  0  0  0  0  0  0  0  0  0  0  0
   -2.5530    1.4340   -1.1930 C   0  0  0  0  0  0  0  0  0  0  0  0
   -3.8310    1.3090   -0.6910 C   0  0  0  0  0  0  0  0  0  0  0  0
   -4.9760    2.0330   -1.0550 O   0  0  0  0  0  0  0  0  0  0  0  0
   -3.7510    0.3120    0.2560 C   0  0  0  0  0  0  0  0  0  0  0  0
   -4.8130   -0.1550    1.0260 O   0  0  0  0  0  0  0  0  0  0  0  0
   -5.4760   -1.2480    0.6000 F   0  0  0  0  0  0  0  0  0  0  0  0
   -2.4690   -0.1370    0.3110 N   0  0  0  0  0  0  0  0  0  0  0  0
  1  2  1  0
  2  3  1  0
  3  4  1  0
  4  5  2  0
  4  6  1  0
  6  7  1  0
  7  8  2  0
  7  9  1  0
  9 10  2  0
  9 16  1  0
 10 11  1  0
 11 12  1  0
 11 13  2  0
 13 14  1  0
 13 16  1  0
 14 15  1  0
M  END
