
     RDKit          3D

 15 15  0  0  0  0  0  0  0  0999 V2000
    2.7470    0.0320   -1.3910 C   0  0  0  0  0  0  0  0  0  0  0  0
    3.1760    0.6140   -0.3050 C   0  0  0  0  0  0  0  0  0  0  0  0
    4.9350    0.8350   -0.0800 S   0  0  0  0  0  0  0  0  0  0  0  0
    2.2660    1.0770    0.7520 C   0  0  0  0  0  0  0  0  0  0  0  0
    0.9100    0.8570    0.5530 O   0  0  0  0  0  0  0  0  0  0  0  0
    0.2600   -0.3430    0.4790 C   0  0  0  0  0  0  0  0  0  0  0  0
    0.9230   -1.4000    0.6080 O   0  0  0  0  0  0  0  0  0  0  0  0
   -1.1850   -0.4650    0.2530 C   0  0  0  0  0  0  0  0  0  0  0  0
   -1.9720    0.6700    0.1010 C   0  0  0  0  0  0  0  0  0  0  0  0
   -3.3320    0.5490   -0.1110 C   0  0  0  0  0  0  0  0  0  0  0  0
   -4.0510    1.5730   -0.2490 O   0  0  0  0  0  0  0  0  0  0  0  0
   -3.9150   -0.6760   -0.1740 N   0  0  0  0  0  0  0  0  0  0  0  0
   -3.1220   -1.7310   -0.0240 C   0  0  0  0  0  0  0  0  0  0  0  0
   -3.6170   -2.8910   -0.0750 O   0  0  0  0  0  0  0  0  0  0  0  0
   -1.7870   -1.6500    0.1850 N   0  0  0  0  0  0  0  0  0  0  0  0
  1  2  2  0
  2  3  1  0
  2  4  1  0
  4  5  1  0
  5  6  1  0
  6  7  2  0
  6  8  1  0
  8  9  2  0
  8 15  1  0
  9 10  1  0
 10 11  2  0
 10 12  1  0
 12 13  1  0
 13 14  2  0
 13 15  1  0
M  END
