
     RDKit          3D

 16 16  0  0  0  0  0  0  0  0999 V2000
    3.9370    1.8570   -0.3650 O   0  0  0  0  0  0  0  0  0  0  0  0
    4.3070    0.7660   -0.8810 C   0  0  0  0  0  0  0  0  0  0  0  0
    5.6340    0.6730   -1.2620 O   0  0  0  0  0  0  0  0  0  0  0  0
    3.3580   -0.3710   -1.0730 C   0  0  0  0  0  0  0  0  0  0  0  0
    2.0570    0.0380   -0.5770 N   0  0  0  0  0  0  0  0  0  0  0  0
    0.9210   -0.7990   -0.6040 C   0  0  0  0  0  0  0  0  0  0  0  0
    1.0310   -1.9580   -1.0800 O   0  0  0  0  0  0  0  0  0  0  0  0
   -0.3750   -0.3150   -0.0810 C   0  0  0  0  0  0  0  0  0  0  0  0
   -1.4180   -1.0870   -0.1080 C   0  0  0  0  0  0  0  0  0  0  0  0
   -1.3610   -2.3340   -0.6030 F   0  0  0  0  0  0  0  0  0  0  0  0
   -2.6830   -0.5810    0.4160 C   0  0  0  0  0  0  0  0  0  0  0  0
   -3.0650    0.6260    0.9800 C   0  0  0  0  0  0  0  0  0  0  0  0
   -4.2670    0.8280    1.3700 N   0  0  0  0  0  0  0  0  0  0  0  0
   -5.2110   -0.1480    1.2390 C   0  0  0  0  0  0  0  0  0  0  0  0
   -6.4600   -0.1970    1.5450 O   0  0  0  0  0  0  0  0  0  0  0  0
   -4.2320   -1.4810    0.4720 S   0  0  0  0  0  0  0  0  0  0  0  0
  1  2  2  0
  2  3  1  0
  2  4  1  0
  4  5  1  0
  5  6  1  0
  6  7  2  0
  6  8  1  0
  8  9  2  3
  9 10  1  0
  9 11  1  0
 11 12  2  0
 11 16  1  0
 12 13  1  0
 13 14  1  0
 14 15  2  0
 14 16  1  0
M  END
