
     RDKit          3D

 15 15  0  0  0  0  0  0  0  0999 V2000
   -5.5600    0.3380    0.3550 C   0  0  0  0  0  0  0  0  0  0  0  0
   -4.2250    0.2040   -0.1310 O   0  0  0  0  0  0  0  0  0  0  0  0
   -3.1310    0.2000    0.7370 C   0  0  0  0  0  0  0  0  0  0  0  0
   -3.3930    0.3200    1.9580 O   0  0  0  0  0  0  0  0  0  0  0  0
   -1.7680    0.0630    0.2380 C   0  0  0  0  0  0  0  0  0  0  0  0
   -0.7270    0.0640    1.1300 C   0  0  0  0  0  0  0  0  0  0  0  0
    0.5320   -0.0620    0.6760 N   0  0  0  0  0  0  0  0  0  0  0  0
    0.8150   -0.1910   -0.6330 C   0  0  0  0  0  0  0  0  0  0  0  0
    2.4940   -0.3560   -1.2020 S   0  0  0  0  0  0  0  0  0  0  0  0
    3.6660   -0.3230    0.1760 C   0  0  0  0  0  0  0  0  0  0  0  0
    5.0960   -0.4640   -0.3140 C   0  0  0  0  0  0  0  0  0  0  0  0
    5.4220    0.5900   -1.1890 O   0  0  0  0  0  0  0  0  0  0  0  0
   -0.2200   -0.1940   -1.5400 C   0  0  0  0  0  0  0  0  0  0  0  0
   -0.0010   -0.3120   -2.7750 O   0  0  0  0  0  0  0  0  0  0  0  0
   -1.4950   -0.0660   -1.0720 N   0  0  0  0  0  0  0  0  0  0  0  0
  1  2  1  0
  2  3  1  0
  3  4  2  0
  3  5  1  0
  5  6  2  0
  5 15  1  0
  6  7  1  0
  7  8  2  0
  8  9  1  0
  8 13  1  0
  9 10  1  0
 10 11  1  0
 11 12  1  0
 13 14  2  0
 13 15  1  0
M  END
