
     RDKit          3D

 18 18  0  0  0  0  0  0  0  0999 V2000
    5.2510   -1.3390    1.4880 C   0  0  0  0  0  0  0  0  0  0  0  0
    5.3950   -0.7070    0.3520 C   0  0  0  0  0  0  0  0  0  0  0  0
    4.2750   -0.2650   -0.4640 C   0  0  0  0  0  0  0  0  0  0  0  0
    4.6210    0.3680   -1.5830 C   0  0  0  0  0  0  0  0  0  0  0  0
    3.8560    0.9720   -2.6840 C   0  0  0  0  0  0  0  0  0  0  0  0
    2.4850    2.0200   -2.1850 S   0  0  0  0  0  0  0  0  0  0  0  0
    1.5640    1.3320   -0.8290 C   0  0  0  0  0  0  0  0  0  0  0  0
    0.5830    2.0010   -0.3820 O   0  0  0  0  0  0  0  0  0  0  0  0
    1.8030    0.0750   -0.1520 C   0  0  0  0  0  0  0  0  0  0  0  0
    0.3720   -0.8080    0.4460 S   0  0  0  0  0  0  0  0  0  0  0  0
   -1.1300   -0.3740   -0.4330 C   0  0  0  0  0  0  0  0  0  0  0  0
   -2.2600   -0.1730    0.5280 C   0  0  0  0  0  0  0  0  0  0  0  0
   -2.1180   -0.1660    1.7480 O   0  0  0  0  0  0  0  0  0  0  0  0
   -3.5470    0.0110    0.0120 O   0  0  0  0  0  0  0  0  0  0  0  0
   -4.7150    0.1900    0.7130 C   0  0  2  0  0  0  0  0  0  0  0  0
   -5.5620   -1.0920    0.4930 C   0  0  0  0  0  0  0  0  0  0  0  0
   -5.5590    1.3460    0.3070 C   0  0  0  0  0  0  0  0  0  0  0  0
    2.9540   -0.5770   -0.0080 C   0  0  0  0  0  0  0  0  0  0  0  0
  1  2  2  0
  2  3  1  0
  3  4  2  0
  3 18  1  0
  4  5  1  0
  5  6  1  0
  6  7  1  0
  7  8  2  0
  7  9  1  0
  9 10  1  0
  9 18  2  0
 10 11  1  0
 11 12  1  0
 12 13  2  0
 12 14  1  0
 14 15  1  0
 15 16  1  6
 15 17  1  0
M  END
