
     RDKit          3D

 16 15  0  0  0  0  0  0  0  0999 V2000
    3.2600   -0.6230    1.9830 O   0  0  0  0  0  0  0  0  0  0  0  0
    3.2380   -1.1840    0.9850 C   0  0  0  0  0  0  0  0  0  0  0  0
    4.2690   -1.7710    0.1370 C   0  0  0  0  0  0  0  0  0  0  0  0
    5.5310   -1.4910    0.7190 O   0  0  0  0  0  0  0  0  0  0  0  0
    1.6680   -1.4090    0.2780 N   0  0  0  0  0  0  0  0  0  0  0  0
    0.9150   -0.6470    1.3850 C   0  0  0  0  0  0  0  0  0  0  0  0
    1.3070   -0.1350    2.3190 O   0  0  0  0  0  0  0  0  0  0  0  0
   -0.5160   -0.6990    0.9870 N   0  0  0  0  0  0  0  0  0  0  0  0
   -1.4480   -0.0350    1.7610 C   0  0  0  0  0  0  0  0  0  0  0  0
   -1.0840    0.8340    3.1070 S   0  0  0  0  0  0  0  0  0  0  0  0
   -2.8100   -0.0940    1.3820 O   0  0  0  0  0  0  0  0  0  0  0  0
   -3.1050   -0.2780   -0.0180 C   0  0  0  0  0  0  0  0  0  0  0  0
   -2.4610    0.8570   -0.7090 C   0  0  0  0  0  0  0  0  0  0  0  0
   -3.0180    1.7920   -1.4530 C   0  0  0  0  0  0  0  0  0  0  0  0
   -2.3510    2.8850   -2.1070 C   0  0  0  0  0  0  0  0  0  0  0  0
   -0.9590    2.8570   -1.9640 F   0  0  0  0  0  0  0  0  0  0  0  0
  1  2  2  0
  2  3  1  0
  2  5  1  0
  3  4  1  0
  5  6  1  0
  6  7  2  0
  6  8  1  0
  8  9  1  0
  9 10  2  0
  9 11  1  0
 11 12  1  0
 12 13  1  0
 13 14  2  3
 14 15  1  0
 15 16  1  0
M  END
