
     RDKit          3D

 37 41  0  0  0  0  0  0  0  0999 V2000
   -6.6260    1.5440   -2.3190 C   0  0  0  0  0  0  0  0  0  0  0  0
   -6.5720    0.8960   -1.0480 N   0  0  0  0  0  0  0  0  0  0  0  0
   -5.8680    1.3320    0.0220 C   0  0  0  0  0  0  0  0  0  0  0  0
   -5.0290    2.5280    0.1190 C   0  0  0  0  0  0  0  0  0  0  0  0
   -3.6030    2.3470   -0.2520 C   0  0  0  0  0  0  0  0  0  0  0  0
   -2.9090    1.3370    0.6110 C   0  0  0  0  0  0  0  0  0  0  0  0
   -3.4920    0.7390    1.5240 O   0  0  0  0  0  0  0  0  0  0  0  0
   -1.5440    1.0730    0.3560 N   0  0  0  0  0  0  0  0  0  0  0  0
   -0.7200    0.1600    1.0560 C   0  0  0  0  0  0  0  0  0  0  0  0
   -1.0860   -0.6300    2.1050 C   0  0  0  0  0  0  0  0  0  0  0  0
   -0.1790   -1.5010    2.7220 C   0  0  0  0  0  0  0  0  0  0  0  0
    1.1270   -1.5960    2.2910 C   0  0  0  0  0  0  0  0  0  0  0  0
    2.2200   -2.3580    2.7070 C   0  0  0  0  0  0  0  0  0  0  0  0
    3.2450   -2.0020    1.8790 C   0  0  0  0  0  0  0  0  0  0  0  0
    2.8010   -1.0810    1.0150 N   0  0  0  0  0  0  0  0  0  0  0  0
    3.6050   -0.4610   -0.0210 C   0  0  0  0  0  0  0  0  0  0  0  0
    4.2570    0.7850    0.5310 C   0  0  0  0  0  0  0  0  0  0  0  0
    5.1030    1.4530   -0.5030 C   0  0  2  0  0  0  0  0  0  0  0  0
    4.2780    1.8620   -1.6970 C   0  0  0  0  0  0  0  0  0  0  0  0
    3.2810    2.7430   -1.3020 O   0  0  0  0  0  0  0  0  0  0  0  0
    6.1820    0.5940   -0.9280 N   0  0  0  0  0  0  0  0  0  0  0  0
    6.7530    0.4900   -2.1430 C   0  0  0  0  0  0  0  0  0  0  0  0
    7.7320   -0.4320   -2.1210 N   0  0  0  0  0  0  0  0  0  0  0  0
    7.7960   -0.9340   -0.8720 C   0  0  0  0  0  0  0  0  0  0  0  0
    8.6910   -1.9530   -0.3560 C   0  0  0  0  0  0  0  0  0  0  0  0
    8.6170   -2.3640    0.9850 N   0  0  0  0  0  0  0  0  0  0  0  0
    9.5470   -2.4820   -1.1110 O   0  0  0  0  0  0  0  0  0  0  0  0
    6.8280   -0.2850   -0.1510 C   0  0  0  0  0  0  0  0  0  0  0  0
    1.5050   -0.8010    1.2300 C   0  0  0  0  0  0  0  0  0  0  0  0
    0.5940    0.0500    0.6390 C   0  0  0  0  0  0  0  0  0  0  0  0
   -6.0930    0.4360    0.9970 N   0  0  0  0  0  0  0  0  0  0  0  0
   -6.9230   -0.5470    0.5580 C   0  0  0  0  0  0  0  0  0  0  0  0
   -7.4600   -1.6730    1.1250 C   0  0  0  0  0  0  0  0  0  0  0  0
   -8.2880   -2.5000    0.4170 C   0  0  0  0  0  0  0  0  0  0  0  0
   -8.5800   -2.1860   -0.8870 C   0  0  0  0  0  0  0  0  0  0  0  0
   -8.0550   -1.0660   -1.4750 C   0  0  0  0  0  0  0  0  0  0  0  0
   -7.2170   -0.2440   -0.7340 C   0  0  0  0  0  0  0  0  0  0  0  0
  1  2  1  0
  2  3  1  0
  2 37  1  0
  3  4  1  0
  3 31  2  0
  4  5  1  0
  5  6  1  0
  6  7  2  0
  6  8  1  0
  8  9  1  0
  9 10  2  0
  9 30  1  0
 10 11  1  0
 11 12  2  0
 12 13  1  0
 12 29  1  0
 13 14  2  0
 14 15  1  0
 15 16  1  0
 15 29  1  0
 16 17  1  0
 18 17  1  1
 18 19  1  0
 18 21  1  0
 19 20  1  0
 21 22  1  0
 21 28  1  0
 22 23  2  0
 23 24  1  0
 24 25  1  0
 24 28  2  0
 25 26  1  0
 25 27  2  0
 29 30  2  0
 31 32  1  0
 32 33  2  0
 32 37  1  0
 33 34  1  0
 34 35  2  0
 35 36  1  0
 36 37  2  0
M  END
