
     RDKit          3D

 36 36  0  0  0  0  0  0  0  0999 V2000
    1.3140   -0.0870   -4.0730 C   0  0  0  0  0  0  0  0  0  0  0  0
    1.1580    0.5500   -2.7130 C   0  0  2  0  0  0  0  0  0  0  0  0
    2.4790    0.4070   -1.9200 C   0  0  0  0  0  0  0  0  0  0  0  0
    2.2490    1.0470   -0.6160 C   0  0  2  0  0  0  0  0  0  0  0  0
    1.9180    2.4000   -0.8230 O   0  0  0  0  0  0  0  0  0  0  0  0
    3.2420    0.9130    0.4670 C   0  0  2  0  0  0  0  0  0  0  0  0
    2.6280    1.7970    1.6280 C   0  0  0  0  0  0  0  0  0  0  0  0
    1.4110    1.2210    1.9000 O   0  0  0  0  0  0  0  0  0  0  0  0
    4.5240    1.5960    0.1880 C   0  0  0  0  0  0  0  0  0  0  0  0
    5.5620    1.5520    1.1300 N   0  0  0  0  0  0  0  0  0  0  0  0
    4.6690    2.2020   -0.8820 O   0  0  0  0  0  0  0  0  0  0  0  0
    3.4040   -0.4020    1.1310 C   0  0  2  0  0  0  0  0  0  0  0  0
    4.4040   -0.2940    2.1370 O   0  0  0  0  0  0  0  0  0  0  0  0
    3.7440   -1.5980    0.3300 C   0  0  1  0  0  0  0  0  0  0  0  0
    5.0580   -1.4340   -0.4340 C   0  0  0  0  0  0  0  0  0  0  0  0
    5.3190   -2.5880   -1.1640 O   0  0  0  0  0  0  0  0  0  0  0  0
    4.0700   -2.6800    1.3690 C   0  0  0  0  0  0  0  0  0  0  0  0
    3.4340   -3.7440    1.4440 O   0  0  0  0  0  0  0  0  0  0  0  0
    5.1130   -2.4440    2.2440 O   0  0  0  0  0  0  0  0  0  0  0  0
    0.0930    0.0010   -1.9730 O   0  0  0  0  0  0  0  0  0  0  0  0
   -1.0160    0.7200   -1.5770 C   0  0  0  0  0  0  0  0  0  0  0  0
   -1.0620    1.9340   -1.9030 O   0  0  0  0  0  0  0  0  0  0  0  0
   -2.1450    0.1530   -0.7980 C   0  0  1  0  0  0  0  0  0  0  0  0
   -1.9480   -1.1960   -0.5110 O   0  0  0  0  0  0  0  0  0  0  0  0
   -2.4310   -2.0420   -1.4840 C   0  0  0  0  0  0  0  0  0  0  0  0
   -3.8160   -2.5570   -1.2190 C   0  0  0  0  0  0  0  0  0  0  0  0
   -4.1510   -2.5840    0.1210 O   0  0  0  0  0  0  0  0  0  0  0  0
   -5.3900   -2.0120    0.3930 C   0  0  0  0  0  0  0  0  0  0  0  0
   -5.4120   -0.7560   -0.1570 O   0  0  0  0  0  0  0  0  0  0  0  0
   -6.1100    0.1820    0.5840 C   0  0  0  0  0  0  0  0  0  0  0  0
   -5.3910    0.6470    1.8090 C   0  0  2  0  0  0  0  0  0  0  0  0
   -6.3780    1.0750    2.7270 O   0  0  0  0  0  0  0  0  0  0  0  0
   -4.4920    1.8380    1.5630 C   0  0  0  0  0  0  0  0  0  0  0  0
   -3.6890    1.7030    0.2900 C   0  0  0  0  0  0  0  0  0  0  0  0
   -2.4300    0.9110    0.4670 C   0  0  2  0  0  0  0  0  0  0  0  0
   -1.3710    1.8040    0.6660 O   0  0  0  0  0  0  0  0  0  0  0  0
  2  1  1  6
  2  3  1  0
  2 20  1  0
  3  4  1  0
  4  5  1  6
  4  6  1  0
  6  7  1  1
  6  9  1  0
  6 12  1  0
  7  8  1  0
  9 10  1  0
  9 11  2  0
 12 13  1  1
 12 14  1  0
 14 15  1  6
 14 17  1  0
 15 16  1  0
 17 18  2  0
 17 19  1  0
 20 21  1  0
 21 22  2  0
 23 21  1  1
 23 24  1  0
 23 35  1  0
 24 25  1  0
 25 26  1  0
 26 27  1  0
 27 28  1  0
 28 29  1  0
 29 30  1  0
 30 31  1  0
 31 32  1  1
 31 33  1  0
 33 34  1  0
 34 35  1  0
 35 36  1  6
M  END
