
     RDKit          3D

 36 37  0  0  0  0  0  0  0  0999 V2000
    5.5270   -2.5110   -0.8500 C   0  0  0  0  0  0  0  0  0  0  0  0
    4.8030   -1.7950   -1.7120 O   0  0  0  0  0  0  0  0  0  0  0  0
    3.4830   -1.5490   -1.5680 C   0  0  0  0  0  0  0  0  0  0  0  0
    3.0230   -0.8180   -0.3310 C   0  0  2  0  0  0  0  0  0  0  0  0
    3.7970    0.3700   -0.3330 O   0  0  0  0  0  0  0  0  0  0  0  0
    3.2340   -1.5320    0.9330 C   0  0  0  0  0  0  0  0  0  0  0  0
    2.0500   -1.5820    1.8400 C   0  0  0  0  0  0  0  0  0  0  0  0
    2.2610   -1.8110    3.0520 O   0  0  0  0  0  0  0  0  0  0  0  0
    0.7250   -1.3880    1.4190 N   0  0  0  0  0  0  0  0  0  0  0  0
    0.5290   -1.1790   -0.0060 C   0  0  2  0  0  0  0  0  0  0  0  0
    0.2400   -2.3910   -0.7580 C   0  0  0  0  0  0  0  0  0  0  0  0
    0.1640   -2.3810   -2.0090 O   0  0  0  0  0  0  0  0  0  0  0  0
    0.0450   -3.5790   -0.1030 O   0  0  0  0  0  0  0  0  0  0  0  0
   -0.7950   -3.8560    0.9690 C   0  0  0  0  0  0  0  0  0  0  0  0
   -2.1550   -3.1760    0.8840 C   0  0  2  0  0  0  0  0  0  0  0  0
   -3.1010   -3.8940    1.6520 O   0  0  0  0  0  0  0  0  0  0  0  0
   -2.6680   -3.1170   -0.5160 C   0  0  0  0  0  0  0  0  0  0  0  0
   -2.7120   -1.8270   -1.0080 O   0  0  0  0  0  0  0  0  0  0  0  0
   -3.9960   -1.4550   -1.4060 C   0  0  0  0  0  0  0  0  0  0  0  0
   -4.0780   -0.0840   -1.6320 O   0  0  0  0  0  0  0  0  0  0  0  0
   -4.3520    0.6380   -0.4760 C   0  0  0  0  0  0  0  0  0  0  0  0
   -3.7530    2.0280   -0.5480 C   0  0  1  0  0  0  0  0  0  0  0  0
   -4.7500    2.9850   -0.4680 O   0  0  0  0  0  0  0  0  0  0  0  0
   -2.7760    2.1600    0.6060 C   0  0  2  0  0  0  0  0  0  0  0  0
   -3.5710    2.2270    1.7720 O   0  0  0  0  0  0  0  0  0  0  0  0
   -1.9260    3.3520    0.5120 C   0  0  0  0  0  0  0  0  0  0  0  0
   -2.3930    4.4770    0.8570 O   0  0  0  0  0  0  0  0  0  0  0  0
   -0.6140    3.3330    0.0610 O   0  0  0  0  0  0  0  0  0  0  0  0
   -0.1450    2.5090   -0.9870 C   0  0  0  0  0  0  0  0  0  0  0  0
    1.3080    2.1860   -0.7500 C   0  0  1  0  0  0  0  0  0  0  0  0
    1.9950    3.4020   -0.1760 C   0  0  0  0  0  0  0  0  0  0  0  0
    1.9600    4.6090   -1.0470 C   0  0  0  0  0  0  0  0  0  0  0  0
    0.7090    5.0870   -1.3600 O   0  0  0  0  0  0  0  0  0  0  0  0
    1.5150    1.0250    0.2000 C   0  0  1  0  0  0  0  0  0  0  0  0
    0.4840    1.0460    1.1400 O   0  0  0  0  0  0  0  0  0  0  0  0
    1.6020   -0.3040   -0.5210 C   0  0  1  0  0  0  0  0  0  0  0  0
  1  2  1  0
  2  3  1  0
  3  4  1  0
  4  5  1  1
  4  6  1  0
 36  4  1  1
  6  7  1  0
  7  8  2  0
  7  9  1  0
 10  9  1  1
 10 11  1  0
 10 36  1  0
 11 12  2  0
 11 13  1  0
 13 14  1  0
 14 15  1  0
 15 16  1  1
 15 17  1  0
 17 18  1  0
 18 19  1  0
 19 20  1  0
 20 21  1  0
 21 22  1  0
 22 23  1  1
 22 24  1  0
 24 25  1  1
 24 26  1  0
 26 27  2  0
 26 28  1  0
 28 29  1  0
 29 30  1  0
 30 31  1  1
 30 34  1  0
 31 32  1  0
 32 33  1  0
 34 35  1  1
 34 36  1  0
M  END
