
     RDKit          3D

 36 37  0  0  0  0  0  0  0  0999 V2000
   -4.7280    1.7120    2.2540 C   0  0  0  0  0  0  0  0  0  0  0  0
   -4.4230    0.3920    2.4290 O   0  0  0  0  0  0  0  0  0  0  0  0
   -3.7460   -0.1980    1.3300 C   0  0  0  0  0  0  0  0  0  0  0  0
   -2.4430    0.4710    1.0440 C   0  0  0  0  0  0  0  0  0  0  0  0
   -1.7280   -0.1430   -0.0990 C   0  0  1  0  0  0  0  0  0  0  0  0
   -2.5720   -0.0780   -1.2110 O   0  0  0  0  0  0  0  0  0  0  0  0
   -0.5190    0.7160   -0.5080 C   0  0  0  0  0  0  0  0  0  0  0  0
   -0.7970    2.1840   -0.5530 C   0  0  1  0  0  0  0  0  0  0  0  0
   -2.0250    2.3610   -1.1810 O   0  0  0  0  0  0  0  0  0  0  0  0
   -0.6230    2.8470    0.6180 O   0  0  0  0  0  0  0  0  0  0  0  0
   -0.5360    4.1840    0.2460 C   0  0  0  0  0  0  0  0  0  0  0  0
    0.3230    4.2040   -0.9850 C   0  0  0  0  0  0  0  0  0  0  0  0
    0.2300    2.8030   -1.4700 C   0  0  2  0  0  0  0  0  0  0  0  0
   -0.2460    2.8610   -2.7900 O   0  0  0  0  0  0  0  0  0  0  0  0
    1.5400    2.0960   -1.5350 C   0  0  0  0  0  0  0  0  0  0  0  0
    2.2490    1.9170   -0.2610 C   0  0  0  0  0  0  0  0  0  0  0  0
    1.9960    2.7410    0.6420 O   0  0  0  0  0  0  0  0  0  0  0  0
    3.1260    0.9170   -0.0800 O   0  0  0  0  0  0  0  0  0  0  0  0
    3.0790   -0.4540   -0.1500 C   0  0  2  0  0  0  0  0  0  0  0  0
    4.5140   -0.9350   -0.4300 C   0  0  2  0  0  0  0  0  0  0  0  0
    4.4860   -2.3160   -0.5040 O   0  0  0  0  0  0  0  0  0  0  0  0
    5.4130   -0.5760    0.7490 C   0  0  0  0  0  0  0  0  0  0  0  0
    6.6720   -1.0990    0.4960 O   0  0  0  0  0  0  0  0  0  0  0  0
    7.5740   -0.8250    1.5170 C   0  0  0  0  0  0  0  0  0  0  0  0
    2.2320   -1.0530   -1.1820 C   0  0  0  0  0  0  0  0  0  0  0  0
    2.7110   -1.2720   -2.3210 O   0  0  0  0  0  0  0  0  0  0  0  0
    0.9110   -1.3950   -0.9610 O   0  0  0  0  0  0  0  0  0  0  0  0
    0.3150   -1.6060    0.2620 C   0  0  0  0  0  0  0  0  0  0  0  0
   -1.2390   -1.5020    0.1480 C   0  0  1  0  0  0  0  0  0  0  0  0
   -1.6310   -1.9220    1.4710 O   0  0  0  0  0  0  0  0  0  0  0  0
   -1.6660   -2.6080   -0.7310 C   0  0  0  0  0  0  0  0  0  0  0  0
   -3.0490   -3.0470   -0.8610 C   0  0  2  0  0  0  0  0  0  0  0  0
   -3.9660   -2.0870   -1.3310 N   0  0  0  0  0  0  0  0  0  0  0  0
   -3.5730   -3.8240    0.2980 C   0  0  0  0  0  0  0  0  0  0  0  0
   -4.7450   -3.5950    0.6710 O   0  0  0  0  0  0  0  0  0  0  0  0
   -2.8350   -4.7690    0.9700 O   0  0  0  0  0  0  0  0  0  0  0  0
  1  2  1  0
  2  3  1  0
  3  4  1  0
  4  5  1  0
  5  6  1  6
  5  7  1  0
  5 29  1  0
  7  8  1  0
  8  9  1  6
  8 10  1  0
  8 13  1  0
 10 11  1  0
 11 12  1  0
 12 13  1  0
 13 14  1  6
 13 15  1  0
 15 16  1  0
 16 17  2  0
 16 18  1  0
 19 18  1  6
 19 20  1  0
 19 25  1  0
 20 21  1  1
 20 22  1  0
 22 23  1  0
 23 24  1  0
 25 26  2  0
 25 27  1  0
 27 28  1  0
 28 29  1  0
 29 30  1  1
 29 31  1  0
 31 32  1  0
 32 33  1  1
 32 34  1  0
 34 35  2  0
 34 36  1  0
M  END
