
     RDKit          3D

 36 37  0  0  0  0  0  0  0  0999 V2000
   -1.0870   -2.5520    1.3910 C   0  0  0  0  0  0  0  0  0  0  0  0
   -1.0630   -1.4300    0.6000 O   0  0  0  0  0  0  0  0  0  0  0  0
    0.1760   -0.8610    0.4470 C   0  0  2  0  0  0  0  0  0  0  0  0
    1.1490   -1.6690   -0.1270 O   0  0  0  0  0  0  0  0  0  0  0  0
    0.6670   -0.1320    1.6810 C   0  0  0  0  0  0  0  0  0  0  0  0
   -0.0940    1.0710    1.1500 C   0  0  2  0  0  0  0  0  0  0  0  0
    0.4070    2.4080    1.5030 C   0  0  0  0  0  0  0  0  0  0  0  0
   -1.4410    0.9180    1.5810 O   0  0  0  0  0  0  0  0  0  0  0  0
    0.0580    0.5230   -0.2100 C   0  0  1  0  0  0  0  0  0  0  0  0
    1.1970    0.7990   -1.0810 C   0  0  0  0  0  0  0  0  0  0  0  0
    2.5400    0.8180   -0.5370 C   0  0  0  0  0  0  0  0  0  0  0  0
    2.9470    1.8010    0.1230 O   0  0  0  0  0  0  0  0  0  0  0  0
    3.4540   -0.2070   -0.6950 O   0  0  0  0  0  0  0  0  0  0  0  0
    4.7450   -0.1500   -0.1500 C   0  0  1  0  0  0  0  0  0  0  0  0
    4.8650   -1.2480    0.8850 C   0  0  0  0  0  0  0  0  0  0  0  0
    5.8050   -0.2150   -1.1800 C   0  0  0  0  0  0  0  0  0  0  0  0
    5.5470   -0.3110   -2.4010 O   0  0  0  0  0  0  0  0  0  0  0  0
    7.1700   -0.1680   -0.7870 N   0  0  0  0  0  0  0  0  0  0  0  0
    8.2450   -0.2210   -1.7000 C   0  0  0  0  0  0  0  0  0  0  0  0
    7.9620   -0.3110   -2.9210 O   0  0  0  0  0  0  0  0  0  0  0  0
    9.6410   -0.1690   -1.2110 C   0  0  0  0  0  0  0  0  0  0  0  0
    9.7090   -0.0850    0.1610 O   0  0  0  0  0  0  0  0  0  0  0  0
   -1.2480    0.6340   -0.9500 C   0  0  0  0  0  0  0  0  0  0  0  0
   -1.2280    0.7890   -2.1910 O   0  0  0  0  0  0  0  0  0  0  0  0
   -2.4580    0.5680   -0.3060 O   0  0  0  0  0  0  0  0  0  0  0  0
   -3.6960    0.6700   -1.0050 C   0  0  2  0  0  0  0  0  0  0  0  0
   -4.5020    1.8500   -0.5070 C   0  0  0  0  0  0  0  0  0  0  0  0
   -5.6500    1.4420    0.3880 C   0  0  0  0  0  0  0  0  0  0  0  0
   -6.6320    0.5950   -0.3960 C   0  0  2  0  0  0  0  0  0  0  0  0
   -7.5490   -0.0420    0.5840 C   0  0  0  0  0  0  0  0  0  0  0  0
   -7.4660    0.1480    1.8170 O   0  0  0  0  0  0  0  0  0  0  0  0
   -8.5360   -0.8800    0.1200 O   0  0  0  0  0  0  0  0  0  0  0  0
   -5.9150   -0.4580   -1.1840 C   0  0  2  0  0  0  0  0  0  0  0  0
   -6.5320   -1.6990   -0.9830 O   0  0  0  0  0  0  0  0  0  0  0  0
   -4.4750   -0.5870   -0.8150 C   0  0  1  0  0  0  0  0  0  0  0  0
   -3.9290   -1.6440   -1.5680 O   0  0  0  0  0  0  0  0  0  0  0  0
  1  2  1  0
  2  3  1  0
  3  4  1  6
  3  5  1  0
  3  9  1  0
  5  6  1  0
  6  7  1  6
  6  8  1  0
  6  9  1  0
  9 10  1  6
  9 23  1  0
 10 11  1  0
 11 12  2  0
 11 13  1  0
 13 14  1  0
 14 15  1  1
 14 16  1  0
 16 17  2  0
 16 18  1  0
 18 19  1  0
 19 20  2  0
 19 21  1  0
 21 22  1  0
 23 24  2  0
 23 25  1  0
 26 25  1  1
 26 27  1  0
 26 35  1  0
 27 28  1  0
 28 29  1  0
 29 30  1  1
 29 33  1  0
 30 31  2  0
 30 32  1  0
 33 34  1  1
 33 35  1  0
 35 36  1  6
M  END
