
     RDKit          3D

 37 37  0  0  0  0  0  0  0  0999 V2000
    6.4980   -1.1750    0.3950 C   0  0  0  0  0  0  0  0  0  0  0  0
    5.2880   -1.8260    0.6600 O   0  0  0  0  0  0  0  0  0  0  0  0
    4.5150   -1.1670    1.5800 C   0  0  0  0  0  0  0  0  0  0  0  0
    4.0830    0.2130    1.2290 C   0  0  0  0  0  0  0  0  0  0  0  0
    3.2990    0.3110    0.0730 O   0  0  0  0  0  0  0  0  0  0  0  0
    2.0930   -0.3120   -0.1100 C   0  0  0  0  0  0  0  0  0  0  0  0
    1.7010   -1.0530    0.8510 O   0  0  0  0  0  0  0  0  0  0  0  0
    1.2770   -0.1440   -1.3220 C   0  0  1  0  0  0  0  0  0  0  0  0
    2.0240   -0.3720   -2.5890 C   0  0  0  0  0  0  0  0  0  0  0  0
    2.4300   -1.6240   -2.9040 O   0  0  0  0  0  0  0  0  0  0  0  0
    3.4100   -2.1520   -2.1250 C   0  0  0  0  0  0  0  0  0  0  0  0
    4.5840   -1.3600   -2.1950 O   0  0  0  0  0  0  0  0  0  0  0  0
    0.1400   -0.9130   -1.3460 O   0  0  0  0  0  0  0  0  0  0  0  0
   -1.1560   -0.8790   -1.5510 C   0  0  0  0  0  0  0  0  0  0  0  0
   -1.8140   -0.7590   -2.6540 O   0  0  0  0  0  0  0  0  0  0  0  0
   -2.1150   -0.9920   -0.3790 C   0  0  2  0  0  0  0  0  0  0  0  0
   -3.0960   -2.0970   -0.5760 C   0  0  2  0  0  0  0  0  0  0  0  0
   -3.9750   -2.2080    0.4920 O   0  0  0  0  0  0  0  0  0  0  0  0
   -2.5310   -3.4450   -0.8330 C   0  0  2  0  0  0  0  0  0  0  0  0
   -3.6400   -4.2800   -1.1390 O   0  0  0  0  0  0  0  0  0  0  0  0
   -1.8640   -4.0970    0.3450 C   0  0  0  0  0  0  0  0  0  0  0  0
   -2.7870   -4.1690    1.4280 N   0  0  0  0  0  0  0  0  0  0  0  0
   -2.8580    0.3240   -0.3450 C   0  0  1  0  0  0  0  0  0  0  0  0
   -4.2010    0.0920   -0.7450 O   0  0  0  0  0  0  0  0  0  0  0  0
   -2.8570    1.0280    0.9600 C   0  0  2  0  0  0  0  0  0  0  0  0
   -1.8920    0.5290    1.9850 C   0  0  0  0  0  0  0  0  0  0  0  0
   -4.2770    1.1020    1.4950 C   0  0  0  0  0  0  0  0  0  0  0  0
   -4.2600    1.7750    2.7360 O   0  0  0  0  0  0  0  0  0  0  0  0
   -2.4760    2.5020    0.7270 C   0  0  0  0  0  0  0  0  0  0  0  0
   -1.0990    2.6390    0.7680 O   0  0  0  0  0  0  0  0  0  0  0  0
   -0.8210    4.0130    0.8030 C   0  0  0  0  0  0  0  0  0  0  0  0
    0.4200    4.2510   -0.0120 C   0  0  1  0  0  0  0  0  0  0  0  0
    1.0490    5.3790    0.5160 O   0  0  0  0  0  0  0  0  0  0  0  0
    1.3940    3.0930    0.0880 C   0  0  0  0  0  0  0  0  0  0  0  0
    0.7400    1.8730   -0.0820 O   0  0  0  0  0  0  0  0  0  0  0  0
    0.9570    1.3710   -1.3390 C   0  0  2  0  0  0  0  0  0  0  0  0
   -0.0550    1.6390   -2.2550 O   0  0  0  0  0  0  0  0  0  0  0  0
  1  2  1  0
  2  3  1  0
  3  4  1  0
  4  5  1  0
  5  6  1  0
  6  7  2  0
  6  8  1  0
  8  9  1  6
  8 13  1  0
  8 36  1  0
  9 10  1  0
 10 11  1  0
 11 12  1  0
 13 14  1  0
 14 15  2  0
 16 14  1  6
 16 17  1  0
 16 23  1  0
 17 18  1  1
 17 19  1  0
 19 20  1  1
 19 21  1  0
 21 22  1  0
 23 24  1  1
 23 25  1  0
 25 26  1  1
 25 27  1  0
 25 29  1  0
 27 28  1  0
 29 30  1  0
 30 31  1  0
 31 32  1  0
 32 33  1  1
 32 34  1  0
 34 35  1  0
 35 36  1  0
 36 37  1  6
M  END
