
     RDKit          3D

 33 34  0  0  0  0  0  0  0  0999 V2000
    0.3460   -0.8350   -3.0340 C   0  0  0  0  0  0  0  0  0  0  0  0
    0.3810   -1.8390   -2.0850 O   0  0  0  0  0  0  0  0  0  0  0  0
    0.5130   -1.2770   -0.8100 C   0  0  2  0  0  0  0  0  0  0  0  0
   -0.6470   -0.3810   -0.5310 C   0  0  0  0  0  0  0  0  0  0  0  0
   -1.9710   -1.0770   -0.5990 C   0  0  0  0  0  0  0  0  0  0  0  0
   -3.1030   -0.1750   -0.3180 N   0  0  0  0  0  0  0  0  0  0  0  0
   -3.7780    0.4840   -1.3970 C   0  0  0  0  0  0  0  0  0  0  0  0
   -3.2400    1.8560   -1.7390 C   0  0  0  0  0  0  0  0  0  0  0  0
   -4.0550    2.3120   -2.8130 O   0  0  0  0  0  0  0  0  0  0  0  0
   -3.4830   -0.0210    1.0330 C   0  0  0  0  0  0  0  0  0  0  0  0
   -2.8250   -0.6320    1.9180 O   0  0  0  0  0  0  0  0  0  0  0  0
   -4.6050    0.8070    1.5050 C   0  0  2  0  0  0  0  0  0  0  0  0
   -4.3730    1.2040    2.9870 C   0  0  0  0  0  0  0  0  0  0  0  0
   -5.9470    0.0630    1.4560 C   0  0  0  0  0  0  0  0  0  0  0  0
   -5.9060   -1.0750    2.2590 O   0  0  0  0  0  0  0  0  0  0  0  0
    1.7410   -0.5550   -0.8680 O   0  0  0  0  0  0  0  0  0  0  0  0
    2.2740    0.1450    0.1800 C   0  0  0  0  0  0  0  0  0  0  0  0
    1.6420    0.1540    1.2770 O   0  0  0  0  0  0  0  0  0  0  0  0
    3.5290    0.8450    0.0050 C   0  0  0  0  0  0  0  0  0  0  0  0
    4.0910    1.5600    1.0400 C   0  0  0  0  0  0  0  0  0  0  0  0
    5.2870    2.2250    0.8710 C   0  0  0  0  0  0  0  0  0  0  0  0
    5.9610    2.2010   -0.3310 C   0  0  0  0  0  0  0  0  0  0  0  0
    7.5560    3.0890   -0.5570 P   0  0  0  0  0  0  0  0  0  0  0  0
    8.8420    2.0700   -0.0300 O   0  0  0  0  0  0  0  0  0  0  0  0
    7.5050    4.4750    0.4870 O   0  0  0  0  0  0  0  0  0  0  0  0
    5.3760    1.4730   -1.3650 C   0  0  0  0  0  0  0  0  0  0  0  0
    4.1820    0.8070   -1.1990 C   0  0  0  0  0  0  0  0  0  0  0  0
    0.6630   -2.3220    0.2300 C   0  0  0  0  0  0  0  0  0  0  0  0
    1.6950   -3.2560    0.1240 C   0  0  0  0  0  0  0  0  0  0  0  0
    1.9120   -4.2540    1.0410 C   0  0  0  0  0  0  0  0  0  0  0  0
    1.0750   -4.3590    2.1370 C   0  0  0  0  0  0  0  0  0  0  0  0
    0.0440   -3.4160    2.2290 C   0  0  0  0  0  0  0  0  0  0  0  0
   -0.1240   -2.4580    1.3030 N   0  0  0  0  0  0  0  0  0  0  0  0
  1  2  1  0
  2  3  1  0
  3  4  1  1
  3 16  1  0
  3 28  1  0
  4  5  1  0
  5  6  1  0
  6  7  1  0
  6 10  1  0
  7  8  1  0
  8  9  1  0
 10 11  2  0
 10 12  1  0
 12 13  1  1
 12 14  1  0
 14 15  1  0
 16 17  1  0
 17 18  2  0
 17 19  1  0
 19 20  2  0
 19 27  1  0
 20 21  1  0
 21 22  2  0
 22 23  1  0
 22 26  1  0
 23 24  1  0
 23 25  1  0
 26 27  2  0
 28 29  2  0
 28 33  1  0
 29 30  1  0
 30 31  2  0
 31 32  1  0
 32 33  2  0
M  END
