
     RDKit          3D

 32 33  0  0  0  0  0  0  0  0999 V2000
    5.6140   -2.9610    1.0420 C   0  0  0  0  0  0  0  0  0  0  0  0
    5.6320   -1.4580    1.0450 C   0  0  1  0  0  0  0  0  0  0  0  0
    6.5960   -0.9150   -0.0140 C   0  0  0  0  0  0  0  0  0  0  0  0
    6.2170   -1.3520   -1.3770 C   0  0  0  0  0  0  0  0  0  0  0  0
    7.1290   -0.9310   -2.4650 C   0  0  0  0  0  0  0  0  0  0  0  0
    7.3520    0.5110   -2.6860 C   0  0  0  0  0  0  0  0  0  0  0  0
    8.1610    1.3910   -1.2930 P   0  0  0  0  0  0  0  0  0  0  0  0
    9.6330    0.6030   -0.8200 O   0  0  0  0  0  0  0  0  0  0  0  0
    8.4800    3.0340   -1.6720 O   0  0  0  0  0  0  0  0  0  0  0  0
    4.3550   -0.9790    0.8240 O   0  0  0  0  0  0  0  0  0  0  0  0
    3.9200   -0.1890    1.9050 C   0  0  0  0  0  0  0  0  0  0  0  0
    2.5490    0.3020    1.6230 C   0  0  0  0  0  0  0  0  0  0  0  0
    1.9550    1.0320    2.4560 O   0  0  0  0  0  0  0  0  0  0  0  0
    1.8600   -0.0260    0.4250 N   0  0  0  0  0  0  0  0  0  0  0  0
    0.5220    0.4580    0.1580 C   0  0  0  0  0  0  0  0  0  0  0  0
   -0.4360   -0.0060    1.1970 C   0  0  0  0  0  0  0  0  0  0  0  0
    0.0100   -0.7190    2.1230 O   0  0  0  0  0  0  0  0  0  0  0  0
   -1.8120    0.3280    1.1710 N   0  0  0  0  0  0  0  0  0  0  0  0
   -2.6620   -0.1600    2.2090 C   0  0  0  0  0  0  0  0  0  0  0  0
   -3.8270    0.7100    2.5380 C   0  0  0  0  0  0  0  0  0  0  0  0
   -4.0130    1.8730    1.5850 C   0  0  0  0  0  0  0  0  0  0  0  0
   -3.7600    1.3030    0.1860 C   0  0  2  0  0  0  0  0  0  0  0  0
   -4.3090    2.1720   -0.8920 C   0  0  0  0  0  0  0  0  0  0  0  0
   -5.4120    1.4910   -1.3430 O   0  0  0  0  0  0  0  0  0  0  0  0
   -5.3680    0.1980   -0.8880 C   0  0  2  0  0  0  0  0  0  0  0  0
   -4.9640   -0.7970   -1.9740 C   0  0  0  0  0  0  0  0  0  0  0  0
   -6.7620   -0.1890   -0.4460 C   0  0  2  0  0  0  0  0  0  0  0  0
   -7.6930   -0.0730   -1.6320 C   0  0  0  0  0  0  0  0  0  0  0  0
   -7.2880    0.7580    0.6180 C   0  0  0  0  0  0  0  0  0  0  0  0
   -6.8380   -1.5840    0.1040 C   0  0  0  0  0  0  0  0  0  0  0  0
   -4.4340    0.1110    0.1110 O   0  0  0  0  0  0  0  0  0  0  0  0
   -2.2600    1.1570    0.0680 C   0  0  0  0  0  0  0  0  0  0  0  0
  2  1  1  6
  2  3  1  0
  2 10  1  0
  3  4  1  0
  4  5  1  0
  5  6  1  0
  6  7  1  0
  7  8  1  0
  7  9  1  0
 10 11  1  0
 11 12  1  0
 12 13  2  0
 12 14  1  0
 14 15  1  0
 15 16  1  0
 16 17  2  0
 16 18  1  0
 18 19  1  0
 18 32  1  0
 19 20  1  0
 20 21  1  0
 22 21  1  1
 22 23  1  0
 22 31  1  0
 22 32  1  0
 23 24  1  0
 24 25  1  0
 25 26  1  6
 25 27  1  0
 25 31  1  0
 27 28  1  6
 27 29  1  0
 27 30  1  0
M  END
