
     RDKit          3D

 33 35  0  0  0  0  0  0  0  0999 V2000
    7.8070   -2.3270   -1.0790 C   0  0  0  0  0  0  0  0  0  0  0  0
    6.3780   -2.7600   -0.8320 C   0  0  0  0  0  0  0  0  0  0  0  0
    5.5800   -1.7410   -1.5390 O   0  0  0  0  0  0  0  0  0  0  0  0
    5.0420   -0.7990   -0.2220 P   0  0  0  0  0  0  0  0  0  0  0  0
    6.3750   -0.1250    0.5710 O   0  0  0  0  0  0  0  0  0  0  0  0
    5.9200    0.9010    1.4190 C   0  0  0  0  0  0  0  0  0  0  0  0
    6.7160    2.0750    0.7980 C   0  0  0  0  0  0  0  0  0  0  0  0
    3.4520   -0.1720   -0.0340 C   0  0  0  0  0  0  0  0  0  0  0  0
    2.4950   -1.0240    0.6100 C   0  0  0  0  0  0  0  0  0  0  0  0
    1.2170   -0.6630    0.7420 C   0  0  0  0  0  0  0  0  0  0  0  0
    0.7810    0.5410    0.2700 C   0  0  0  0  0  0  0  0  0  0  0  0
   -0.6340    0.7690    0.3660 N   0  0  0  0  0  0  0  0  0  0  0  0
   -1.5460   -0.2480   -0.1890 C   0  0  0  0  0  0  0  0  0  0  0  0
   -1.0950   -1.2840   -0.9500 C   0  0  0  0  0  0  0  0  0  0  0  0
   -1.8850   -2.1910   -1.5700 C   0  0  0  0  0  0  0  0  0  0  0  0
   -3.3440   -1.9540   -1.3720 C   0  0  0  0  0  0  0  0  0  0  0  0
   -4.3040   -2.7890   -2.1980 C   0  0  0  0  0  0  0  0  0  0  0  0
   -5.5750   -2.5660   -1.4090 O   0  0  0  0  0  0  0  0  0  0  0  0
   -5.5640   -3.1550   -0.1370 C   0  0  0  0  0  0  0  0  0  0  0  0
   -4.4810   -3.8180    0.1350 O   0  0  0  0  0  0  0  0  0  0  0  0
   -6.5340   -3.1120    0.8270 O   0  0  0  0  0  0  0  0  0  0  0  0
   -3.6830   -0.9540   -0.6070 C   0  0  0  0  0  0  0  0  0  0  0  0
   -2.8490   -0.0350    0.0360 C   0  0  0  0  0  0  0  0  0  0  0  0
   -3.4390    1.0740    0.8120 C   0  0  1  0  0  0  0  0  0  0  0  0
   -4.8630    0.8700    0.9010 O   0  0  0  0  0  0  0  0  0  0  0  0
   -2.9700    1.3830    2.0370 O   0  0  0  0  0  0  0  0  0  0  0  0
   -3.8080    2.2840    2.6580 C   0  0  0  0  0  0  0  0  0  0  0  0
   -4.4600    3.2910    1.7660 C   0  0  0  0  0  0  0  0  0  0  0  0
   -4.4910    2.9430    0.3320 C   0  0  1  0  0  0  0  0  0  0  0  0
   -4.5370    4.0480   -0.5900 N   0  0  0  0  0  0  0  0  0  0  0  0
   -3.3190    2.2310    0.0080 O   0  0  0  0  0  0  0  0  0  0  0  0
    1.6540    1.4020   -0.3460 C   0  0  0  0  0  0  0  0  0  0  0  0
    2.9960    1.0580   -0.5150 C   0  0  0  0  0  0  0  0  0  0  0  0
  1  2  1  0
  2  3  1  0
  3  4  1  0
  4  5  1  0
  4  8  1  0
  5  6  1  0
  6  7  1  0
  8  9  2  0
  8 33  1  0
  9 10  1  0
 10 11  2  0
 11 12  1  0
 11 32  1  0
 12 13  1  0
 13 14  2  0
 13 23  1  0
 14 15  1  0
 15 16  2  0
 16 17  1  0
 16 22  1  0
 17 18  1  0
 18 19  1  0
 19 20  2  0
 19 21  1  0
 22 23  2  0
 23 24  1  0
 24 25  1  1
 24 26  1  0
 24 31  1  0
 26 27  1  0
 27 28  1  0
 28 29  1  0
 29 30  1  6
 29 31  1  0
 32 33  2  0
M  END
