
     RDKit          3D

 33 35  0  0  0  0  0  0  0  0999 V2000
    6.9760    0.5730    0.5700 C   0  0  0  0  0  0  0  0  0  0  0  0
    6.8920   -0.4950   -0.1460 C   0  0  0  0  0  0  0  0  0  0  0  0
    8.1720   -1.1640   -0.3830 O   0  0  0  0  0  0  0  0  0  0  0  0
    9.1960   -1.4650    1.0060 P   0  0  0  0  0  0  0  0  0  0  0  0
    8.2480   -1.6780    2.4430 O   0  0  0  0  0  0  0  0  0  0  0  0
   10.3830   -0.2320    1.2160 O   0  0  0  0  0  0  0  0  0  0  0  0
    5.7870   -1.1650   -0.7610 C   0  0  0  0  0  0  0  0  0  0  0  0
    6.0530   -2.3130   -1.4730 C   0  0  0  0  0  0  0  0  0  0  0  0
    4.4200   -0.8170   -0.7580 C   0  0  0  0  0  0  0  0  0  0  0  0
    3.5930   -1.6130   -1.4060 O   0  0  0  0  0  0  0  0  0  0  0  0
    3.7550    0.2440   -0.1870 N   0  0  0  0  0  0  0  0  0  0  0  0
    2.3510    0.3170   -0.3140 C   0  0  0  0  0  0  0  0  0  0  0  0
    1.9000    1.4860   -0.0350 N   0  0  0  0  0  0  0  0  0  0  0  0
    0.4850    1.4140   -0.2410 C   0  0  0  0  0  0  0  0  0  0  0  0
   -0.6380    1.8940   -0.6520 C   0  0  0  0  0  0  0  0  0  0  0  0
   -0.7810    3.1370   -1.2370 O   0  0  0  0  0  0  0  0  0  0  0  0
   -1.0980    3.1780   -2.6360 C   0  0  0  0  0  0  0  0  0  0  0  0
   -1.6890    0.9160   -0.4220 C   0  0  0  0  0  0  0  0  0  0  0  0
   -1.1280   -0.1850    0.1430 C   0  0  0  0  0  0  0  0  0  0  0  0
   -1.9840   -1.3770    0.4950 C   0  0  1  0  0  0  0  0  0  0  0  0
   -1.9430   -1.6320    1.8650 O   0  0  0  0  0  0  0  0  0  0  0  0
   -3.3700   -1.1510    0.1060 C   0  0  0  0  0  0  0  0  0  0  0  0
   -3.8940   -1.7380   -1.0200 C   0  0  0  0  0  0  0  0  0  0  0  0
   -5.2090   -1.5230   -1.3870 C   0  0  0  0  0  0  0  0  0  0  0  0
   -6.0260   -0.7000   -0.6090 C   0  0  0  0  0  0  0  0  0  0  0  0
   -7.3160   -0.5210   -1.0170 O   0  0  0  0  0  0  0  0  0  0  0  0
   -8.2360    0.2720   -0.3170 C   0  0  0  0  0  0  0  0  0  0  0  0
   -8.4610   -0.2680    1.0660 C   0  0  0  0  0  0  0  0  0  0  0  0
   -5.5110   -0.1100    0.5160 C   0  0  0  0  0  0  0  0  0  0  0  0
   -4.1850   -0.3450    0.8600 C   0  0  0  0  0  0  0  0  0  0  0  0
    0.2520    0.0110    0.3310 C   0  0  2  0  0  0  0  0  0  0  0  0
    0.7810   -0.1190    1.7160 C   0  0  0  0  0  0  0  0  0  0  0  0
    1.2100   -0.4810   -0.6270 O   0  0  0  0  0  0  0  0  0  0  0  0
  1  2  2  0
  2  3  1  0
  2  7  1  0
  3  4  1  0
  4  5  1  0
  4  6  1  0
  7  8  2  0
  7  9  1  0
  9 10  2  0
  9 11  1  0
 11 12  1  0
 12 13  2  0
 12 33  1  0
 13 14  1  0
 14 15  2  0
 14 31  1  0
 15 16  1  0
 15 18  1  0
 16 17  1  0
 18 19  2  0
 19 20  1  0
 19 31  1  0
 20 21  1  1
 20 22  1  0
 22 23  2  0
 22 30  1  0
 23 24  1  0
 24 25  2  0
 25 26  1  0
 25 29  1  0
 26 27  1  0
 27 28  1  0
 29 30  2  0
 31 32  1  1
 31 33  1  0
M  END
