
     RDKit          3D

 33 34  0  0  0  0  0  0  0  0999 V2000
   -0.7620   -3.7330    2.2770 C   0  0  0  0  0  0  0  0  0  0  0  0
   -0.6220   -2.8140    1.2250 O   0  0  0  0  0  0  0  0  0  0  0  0
   -1.5510   -1.8090    1.0080 C   0  0  0  0  0  0  0  0  0  0  0  0
   -2.5270   -1.7620    1.8010 O   0  0  0  0  0  0  0  0  0  0  0  0
   -1.4090   -0.8630   -0.0910 C   0  0  2  0  0  0  0  0  0  0  0  0
   -0.4420    0.2540    0.0680 C   0  0  0  0  0  0  0  0  0  0  0  0
    0.9800   -0.0470    0.3310 C   0  0  1  0  0  0  0  0  0  0  0  0
    1.1790   -0.7420    1.6250 C   0  0  0  0  0  0  0  0  0  0  0  0
    0.3580   -0.4190    2.5460 O   0  0  0  0  0  0  0  0  0  0  0  0
    2.1440   -1.6700    1.9040 O   0  0  0  0  0  0  0  0  0  0  0  0
    1.6450   -0.7580   -0.7770 C   0  0  0  0  0  0  0  0  0  0  0  0
    2.9070   -0.8250   -1.0980 N   0  0  0  0  0  0  0  0  0  0  0  0
    4.0150   -0.1730   -0.3920 C   0  0  0  0  0  0  0  0  0  0  0  0
    5.1470   -0.1020   -1.0200 C   0  0  0  0  0  0  0  0  0  0  0  0
    6.3400    0.4960   -0.5080 C   0  0  0  0  0  0  0  0  0  0  0  0
    7.4660    0.5130   -1.2380 C   0  0  0  0  0  0  0  0  0  0  0  0
    8.6900    1.1110   -0.7470 C   0  0  0  0  0  0  0  0  0  0  0  0
    9.7220    1.1090   -1.4520 O   0  0  0  0  0  0  0  0  0  0  0  0
    3.9250    0.3730    0.9410 C   0  0  0  0  0  0  0  0  0  0  0  0
    4.8710    0.0950    1.7020 O   0  0  0  0  0  0  0  0  0  0  0  0
    2.8180    1.2290    1.4990 C   0  0  0  0  0  0  0  0  0  0  0  0
    1.6800    1.3150    0.5180 C   0  0  0  0  0  0  0  0  0  0  0  0
   -2.7290   -0.1460   -0.1900 N   0  0  0  0  0  0  0  0  0  0  0  0
   -3.5970   -0.3410   -1.2650 C   0  0  0  0  0  0  0  0  0  0  0  0
   -3.3000   -1.1320   -2.1850 O   0  0  0  0  0  0  0  0  0  0  0  0
   -4.8630    0.3980   -1.2900 C   0  0  0  0  0  0  0  0  0  0  0  0
   -5.8900   -0.1220   -2.0560 C   0  0  0  0  0  0  0  0  0  0  0  0
   -7.0840    0.5420   -2.1120 C   0  0  0  0  0  0  0  0  0  0  0  0
   -7.2600    1.7190   -1.4100 C   0  0  0  0  0  0  0  0  0  0  0  0
   -8.8590    2.5600   -1.5170 P   0  0  0  0  0  0  0  0  0  0  0  0
   -9.1950    3.7530   -0.5970 O   0  0  0  0  0  0  0  0  0  0  0  0
   -6.2370    2.2340   -0.6500 C   0  0  0  0  0  0  0  0  0  0  0  0
   -5.0280    1.5740   -0.5850 C   0  0  0  0  0  0  0  0  0  0  0  0
  1  2  1  0
  2  3  1  0
  3  4  2  0
  3  5  1  0
  5  6  1  1
  5 23  1  0
  7  6  1  6
  7  8  1  0
  7 11  1  0
  7 22  1  0
  8  9  2  0
  8 10  1  0
 11 12  2  0
 12 13  1  0
 13 14  2  3
 13 19  1  0
 14 15  1  0
 15 16  2  3
 16 17  1  0
 17 18  2  0
 19 20  2  0
 19 21  1  0
 21 22  1  0
 23 24  1  0
 24 25  2  0
 24 26  1  0
 26 27  2  0
 26 33  1  0
 27 28  1  0
 28 29  2  0
 29 30  1  0
 29 32  1  0
 30 31  2  0
 32 33  2  0
M  END
