
     RDKit          3D

 32 33  0  0  0  0  0  0  0  0999 V2000
   -3.7830   -1.1420   -2.5760 C   0  0  0  0  0  0  0  0  0  0  0  0
   -3.2180    0.1560   -2.4500 O   0  0  0  0  0  0  0  0  0  0  0  0
   -3.7090    0.9820   -1.4760 C   0  0  0  0  0  0  0  0  0  0  0  0
   -4.7690    1.8150   -1.7920 C   0  0  0  0  0  0  0  0  0  0  0  0
   -5.3690    1.8220   -3.1470 C   0  0  0  0  0  0  0  0  0  0  0  0
   -6.4170    2.7370   -3.2270 O   0  0  0  0  0  0  0  0  0  0  0  0
   -5.2840    2.6660   -0.8100 C   0  0  0  0  0  0  0  0  0  0  0  0
   -4.7170    2.6460    0.4420 C   0  0  0  0  0  0  0  0  0  0  0  0
   -3.6560    1.8000    0.7240 C   0  0  0  0  0  0  0  0  0  0  0  0
   -3.1360    0.9550   -0.2310 C   0  0  0  0  0  0  0  0  0  0  0  0
   -2.0300    0.0600    0.0290 C   0  0  0  0  0  0  0  0  0  0  0  0
   -0.9860   -0.0180   -0.8770 C   0  0  0  0  0  0  0  0  0  0  0  0
    0.1060   -0.8420   -0.7060 C   0  0  0  0  0  0  0  0  0  0  0  0
    1.1600   -0.9040   -1.6680 N   0  0  0  0  0  0  0  0  0  0  0  0
    2.3180   -1.7160   -1.4290 C   0  0  0  0  0  0  0  0  0  0  0  0
    3.2060   -1.2210   -0.3400 C   0  0  0  0  0  0  0  0  0  0  0  0
    4.2310   -1.8730   -0.0200 O   0  0  0  0  0  0  0  0  0  0  0  0
    2.8910   -0.0190    0.3280 N   0  0  0  0  0  0  0  0  0  0  0  0
    3.6460    0.5910    1.3640 C   0  0  0  0  0  0  0  0  0  0  0  0
    4.9590    1.1670    1.0100 C   0  0  0  0  0  0  0  0  0  0  0  0
    6.0200    0.3280    0.4140 C   0  0  0  0  0  0  0  0  0  0  0  0
    7.2640    1.2630    0.2510 C   0  0  0  0  0  0  0  0  0  0  0  0
    8.6430    0.2690   -0.4960 P   0  0  0  0  0  0  0  0  0  0  0  0
    8.0150   -0.5030   -1.9180 O   0  0  0  0  0  0  0  0  0  0  0  0
    9.0010   -1.0170    0.6450 O   0  0  0  0  0  0  0  0  0  0  0  0
    0.1290   -1.6160    0.4340 C   0  0  0  0  0  0  0  0  0  0  0  0
   -0.9230   -1.5440    1.3570 C   0  0  0  0  0  0  0  0  0  0  0  0
   -2.0090   -0.7270    1.1900 C   0  0  0  0  0  0  0  0  0  0  0  0
   -3.0770   -0.5960    2.0400 O   0  0  0  0  0  0  0  0  0  0  0  0
   -3.2040   -1.2990    3.2330 C   0  0  2  0  0  0  0  0  0  0  0  0
   -4.4810   -2.1180    3.1570 C   0  0  0  0  0  0  0  0  0  0  0  0
   -3.3560   -0.4050    4.3130 O   0  0  0  0  0  0  0  0  0  0  0  0
  1  2  1  0
  2  3  1  0
  3  4  2  0
  3 10  1  0
  4  5  1  0
  4  7  1  0
  5  6  1  0
  7  8  2  0
  8  9  1  0
  9 10  2  0
 10 11  1  0
 11 12  2  0
 11 28  1  0
 12 13  1  0
 13 14  1  0
 13 26  2  0
 14 15  1  0
 15 16  1  0
 16 17  2  0
 16 18  1  0
 18 19  1  0
 19 20  1  0
 20 21  1  0
 21 22  1  0
 22 23  1  0
 23 24  1  0
 23 25  1  0
 26 27  1  0
 27 28  2  0
 28 29  1  0
 29 30  1  0
 30 31  1  6
 30 32  1  0
M  END
