
     RDKit          3D

 33 34  0  0  0  0  0  0  0  0999 V2000
    9.6970    1.1820   -1.2480 C   0  0  0  0  0  0  0  0  0  0  0  0
    8.2110    1.2870   -1.0240 C   0  0  0  0  0  0  0  0  0  0  0  0
    7.8530    0.3100   -0.1120 O   0  0  0  0  0  0  0  0  0  0  0  0
    6.1300    0.3550    0.2140 P   0  0  0  0  0  0  0  0  0  0  0  0
    5.8640    0.5110    2.0480 C   0  0  0  0  0  0  0  0  0  0  0  0
    5.3520   -1.2120   -0.4130 C   0  0  0  0  0  0  0  0  0  0  0  0
    4.0140   -0.9310   -0.9660 N   0  0  0  0  0  0  0  0  0  0  0  0
    4.0010   -0.5870   -2.3710 C   0  0  0  0  0  0  0  0  0  0  0  0
    2.8620   -0.9800   -0.1660 C   0  0  0  0  0  0  0  0  0  0  0  0
    3.0360   -1.2540    1.0700 O   0  0  0  0  0  0  0  0  0  0  0  0
    1.5360   -0.7260   -0.7330 C   0  0  1  0  0  0  0  0  0  0  0  0
    1.1190   -1.8470   -1.6880 C   0  0  0  0  0  0  0  0  0  0  0  0
    1.0710   -3.0630   -1.0390 O   0  0  0  0  0  0  0  0  0  0  0  0
    0.5070   -0.7190    0.3170 N   0  0  0  0  0  0  0  0  0  0  0  0
   -0.3030    0.4200    0.5780 C   0  0  0  0  0  0  0  0  0  0  0  0
   -0.1300    1.4640   -0.1200 O   0  0  0  0  0  0  0  0  0  0  0  0
   -1.2740    0.4570    1.5530 O   0  0  0  0  0  0  0  0  0  0  0  0
   -2.0420    1.6630    1.7370 C   0  0  2  0  0  0  0  0  0  0  0  0
   -1.7800    2.0770    3.1250 C   0  0  0  0  0  0  0  0  0  0  0  0
   -2.9150    2.0420    3.7900 C   0  0  0  0  0  0  0  0  0  0  0  0
   -3.9630    1.6090    2.8840 C   0  0  0  0  0  0  0  0  0  0  0  0
   -3.4670    1.3850    1.6820 C   0  0  0  0  0  0  0  0  0  0  0  0
   -4.3310    0.9290    0.5580 C   0  0  2  0  0  0  0  0  0  0  0  0
   -5.7480    0.7760    0.9600 C   0  0  0  0  0  0  0  0  0  0  0  0
   -6.6240    1.4620    0.3800 O   0  0  0  0  0  0  0  0  0  0  0  0
   -6.1560   -0.0950    1.9510 O   0  0  0  0  0  0  0  0  0  0  0  0
   -7.4720   -0.2820    2.3720 C   0  0  0  0  0  0  0  0  0  0  0  0
   -3.8800   -0.4710    0.1160 C   0  0  0  0  0  0  0  0  0  0  0  0
   -4.9710   -0.9420   -0.8530 C   0  0  0  0  0  0  0  0  0  0  0  0
   -5.0100   -0.0640   -2.0640 C   0  0  2  0  0  0  0  0  0  0  0  0
   -4.7990   -0.7720   -3.2440 O   0  0  0  0  0  0  0  0  0  0  0  0
   -4.0010    1.0320   -1.9200 C   0  0  0  0  0  0  0  0  0  0  0  0
   -4.2480    1.8040   -0.6410 C   0  0  0  0  0  0  0  0  0  0  0  0
  1  2  1  0
  2  3  1  0
  3  4  1  0
  4  5  1  0
  4  6  1  0
  6  7  1  0
  7  8  1  0
  7  9  1  0
  9 10  2  0
  9 11  1  0
 11 12  1  6
 11 14  1  0
 12 13  1  0
 14 15  1  0
 15 16  2  0
 15 17  1  0
 18 17  1  1
 18 19  1  0
 18 22  1  0
 19 20  2  0
 20 21  1  0
 21 22  2  0
 22 23  1  0
 23 24  1  1
 23 28  1  0
 23 33  1  0
 24 25  2  0
 24 26  1  0
 26 27  1  0
 28 29  1  0
 29 30  1  0
 30 31  1  6
 30 32  1  0
 32 33  1  0
M  END
