
     RDKit          3D

 32 34  0  0  0  0  0  0  0  0999 V2000
   -4.5820    3.5040    0.8670 N   0  0  0  0  0  0  0  0  0  0  0  0
   -4.9400    2.1350    0.5560 C   0  0  0  0  0  0  0  0  0  0  0  0
   -3.9820    1.1850    0.3820 N   0  0  0  0  0  0  0  0  0  0  0  0
   -4.3250   -0.0670    0.1370 C   0  0  0  0  0  0  0  0  0  0  0  0
   -5.6360   -0.3990    0.0560 C   0  0  0  0  0  0  0  0  0  0  0  0
   -5.6870   -1.7080   -0.1840 N   0  0  0  0  0  0  0  0  0  0  0  0
   -4.4220   -2.1370   -0.2420 C   0  0  0  0  0  0  0  0  0  0  0  0
   -3.5610   -1.1560   -0.0580 N   0  0  0  0  0  0  0  0  0  0  0  0
   -2.1530   -1.2430   -0.1760 C   0  0  2  0  0  0  0  0  0  0  0  0
   -1.2590   -1.4140    0.8080 O   0  0  0  0  0  0  0  0  0  0  0  0
   -0.0720   -1.2780    0.1150 C   0  0  2  0  0  0  0  0  0  0  0  0
    1.1290   -1.1240    0.9420 C   0  0  0  0  0  0  0  0  0  0  0  0
    2.1980   -0.6770    0.1370 O   0  0  0  0  0  0  0  0  0  0  0  0
    3.0320   -1.7580   -0.7230 P   0  0  2  0  0  0  0  0  0  0  0  0
    3.0960   -1.1300   -2.1900 O   0  0  0  0  0  0  0  0  0  0  0  0
    2.3320   -3.3010   -0.8860 O   0  0  0  0  0  0  0  0  0  0  0  0
    4.6170   -1.9490   -0.3200 O   0  0  0  0  0  0  0  0  0  0  0  0
    5.2320   -0.7900    0.7050 P   0  0  2  0  0  0  0  0  0  0  0  0
    6.6770   -1.1210    0.9490 O   0  0  0  0  0  0  0  0  0  0  0  0
    4.3760   -0.9040    2.1580 O   0  0  0  0  0  0  0  0  0  0  0  0
    5.0220    0.8230    0.0380 N   0  0  0  0  0  0  0  0  0  0  0  0
    6.3100    1.8320    0.6660 P   0  0  1  0  0  0  0  0  0  0  0  0
    7.2290    1.0090    1.5740 O   0  0  0  0  0  0  0  0  0  0  0  0
    7.1610    2.4920   -0.6130 O   0  0  0  0  0  0  0  0  0  0  0  0
    5.6080    3.0540    1.5940 O   0  0  0  0  0  0  0  0  0  0  0  0
   -0.2570   -0.3060   -1.0090 C   0  0  1  0  0  0  0  0  0  0  0  0
   -0.2780   -0.9180   -2.2930 O   0  0  0  0  0  0  0  0  0  0  0  0
   -1.6650    0.1590   -0.7520 C   0  0  1  0  0  0  0  0  0  0  0  0
   -2.3510    0.3940   -1.9030 O   0  0  0  0  0  0  0  0  0  0  0  0
   -6.6240    0.5530    0.2210 C   0  0  0  0  0  0  0  0  0  0  0  0
   -7.7950    0.2300    0.1380 O   0  0  0  0  0  0  0  0  0  0  0  0
   -6.2420    1.8450    0.4770 N   0  0  0  0  0  0  0  0  0  0  0  0
  1  2  1  0
  2  3  2  0
  2 32  1  0
  3  4  1  0
  4  5  2  0
  4  8  1  0
  5  6  1  0
  5 30  1  0
  6  7  2  0
  7  8  1  0
  9  8  1  1
  9 10  1  0
  9 28  1  0
 10 11  1  0
 11 12  1  1
 11 26  1  0
 12 13  1  0
 13 14  1  0
 14 15  2  0
 14 16  1  6
 14 17  1  0
 17 18  1  0
 18 19  2  0
 18 20  1  1
 18 21  1  0
 21 22  1  0
 22 23  2  0
 22 24  1  6
 22 25  1  0
 26 27  1  6
 26 28  1  0
 28 29  1  6
 30 31  2  0
 30 32  1  0
M  END
