
     RDKit          3D

 22 23  0  0  0  0  0  0  0  0999 V2000
    2.7550   -2.7320    0.0240 C   0  0  0  0  0  0  0  0  0  0  0  0
    3.3130   -1.3570    0.0970 C   0  0  0  0  0  0  0  0  0  0  0  0
    4.5310   -1.1650    0.7620 C   0  0  0  0  0  0  0  0  0  0  0  0
    5.1080    0.0810    0.8280 C   0  0  0  0  0  0  0  0  0  0  0  0
    6.3310    0.2230    1.5060 O   0  0  0  0  0  0  0  0  0  0  0  0
    4.5320    1.1970    0.2530 C   0  0  0  0  0  0  0  0  0  0  0  0
    5.2200    2.5060    0.3700 C   0  0  0  0  0  0  0  0  0  0  0  0
    4.4640    3.4800   -0.2780 O   0  0  0  0  0  0  0  0  0  0  0  0
    3.3360    1.0110   -0.3990 C   0  0  0  0  0  0  0  0  0  0  0  0
    2.7340   -0.2570   -0.4730 C   0  0  0  0  0  0  0  0  0  0  0  0
    1.4550   -0.3610   -1.1460 C   0  0  0  0  0  0  0  0  0  0  0  0
    0.3540   -0.8790   -0.6900 C   0  0  0  0  0  0  0  0  0  0  0  0
   -0.0140   -1.5180    0.6000 C   0  0  0  0  0  0  0  0  0  0  0  0
   -1.3830   -0.8880    0.8640 C   0  0  0  0  0  0  0  0  0  0  0  0
   -2.0580   -0.8230   -0.4800 C   0  0  1  0  0  0  0  0  0  0  0  0
   -2.9420   -2.0280   -0.7240 C   0  0  0  0  0  0  0  0  0  0  0  0
   -2.7170    0.4680   -0.7200 C   0  0  0  0  0  0  0  0  0  0  0  0
   -3.7920    0.9450    0.1600 C   0  0  2  0  0  0  0  0  0  0  0  0
   -3.4860    1.1500    1.5970 C   0  0  0  0  0  0  0  0  0  0  0  0
   -5.0650    0.0980   -0.0110 C   0  0  0  0  0  0  0  0  0  0  0  0
   -4.1960    2.3340   -0.3800 C   0  0  0  0  0  0  0  0  0  0  0  0
   -0.9260   -0.9500   -1.4830 C   0  0  0  0  0  0  0  0  0  0  0  0
  1  2  1  0
  2  3  2  0
  2 10  1  0
  3  4  1  0
  4  5  1  0
  4  6  2  0
  6  7  1  0
  6  9  1  0
  7  8  1  0
  9 10  2  0
 10 11  1  0
 11 12  2  3
 12 13  1  0
 12 22  1  0
 13 14  1  0
 14 15  1  0
 15 16  1  1
 15 17  1  0
 15 22  1  0
 17 18  1  0
 18 19  1  1
 18 20  1  0
 18 21  1  0
M  END
