
     RDKit          3D

 22 23  0  0  0  0  0  0  0  0999 V2000
    3.4930   -0.0200    3.6610 C   0  0  0  0  0  0  0  0  0  0  0  0
    3.1600    0.0240    2.3800 C   0  0  0  0  0  0  0  0  0  0  0  0
    1.8100    0.4330    1.9620 C   0  0  0  0  0  0  0  0  0  0  0  0
    1.2660   -0.2520    0.9230 C   0  0  0  0  0  0  0  0  0  0  0  0
   -0.0550    0.1290    0.4910 C   0  0  0  0  0  0  0  0  0  0  0  0
   -0.5460    1.3930    0.8860 C   0  0  0  0  0  0  0  0  0  0  0  0
   -1.8040    1.8430    0.5800 C   0  0  0  0  0  0  0  0  0  0  0  0
   -2.3130    3.1720    0.9990 C   0  0  0  0  0  0  0  0  0  0  0  0
   -1.9570    4.1510   -0.1090 C   0  0  0  0  0  0  0  0  0  0  0  0
   -2.6500    1.0440   -0.1460 C   0  0  0  0  0  0  0  0  0  0  0  0
   -2.2090   -0.1810   -0.5420 C   0  0  0  0  0  0  0  0  0  0  0  0
   -3.0480   -1.0030   -1.2770 O   0  0  0  0  0  0  0  0  0  0  0  0
   -4.3480   -0.5860   -1.6170 C   0  0  0  0  0  0  0  0  0  0  0  0
   -5.0840   -1.6430   -2.4200 C   0  0  0  0  0  0  0  0  0  0  0  0
   -6.3580   -1.2510   -2.7600 O   0  0  0  0  0  0  0  0  0  0  0  0
   -0.9200   -0.6420   -0.2270 C   0  0  0  0  0  0  0  0  0  0  0  0
   -0.6310   -2.0150   -0.6770 C   0  0  0  0  0  0  0  0  0  0  0  0
    2.0560   -1.2670    0.2400 C   0  0  0  0  0  0  0  0  0  0  0  0
    3.5300   -0.9080    0.1120 C   0  0  2  0  0  0  0  0  0  0  0  0
    3.6850    0.0470   -1.0460 C   0  0  0  0  0  0  0  0  0  0  0  0
    4.2610   -2.1820   -0.2520 C   0  0  0  0  0  0  0  0  0  0  0  0
    4.1280   -0.3340    1.3260 C   0  0  0  0  0  0  0  0  0  0  0  0
  1  2  2  0
  2  3  1  0
  2 22  1  0
  3  4  2  0
  4  5  1  0
  4 18  1  0
  5  6  2  0
  5 16  1  0
  6  7  1  0
  7  8  1  0
  7 10  2  0
  8  9  1  0
 10 11  1  0
 11 12  1  0
 11 16  2  0
 12 13  1  0
 13 14  1  0
 14 15  1  0
 16 17  1  0
 18 19  1  0
 19 20  1  6
 19 21  1  0
 19 22  1  0
M  END
