
     RDKit          3D

 16 16  0  0  0  0  0  0  0  0999 V2000
    2.1290    1.6660   -0.9560 C   0  0  0  0  0  0  0  0  0  0  0  0
    2.2300    0.5260   -0.3280 C   0  0  0  0  0  0  0  0  0  0  0  0
    1.4200   -0.5300   -0.6720 O   0  0  0  0  0  0  0  0  0  0  0  0
    0.0730   -0.3700   -1.1240 C   0  0  1  0  0  0  0  0  0  0  0  0
   -0.4510   -1.7170   -1.3890 C   0  0  0  0  0  0  0  0  0  0  0  0
   -1.4640   -2.2930   -0.7910 C   0  0  0  0  0  0  0  0  0  0  0  0
   -2.1590   -1.5470    0.2410 C   0  0  0  0  0  0  0  0  0  0  0  0
   -1.8020   -0.3430    0.5750 C   0  0  0  0  0  0  0  0  0  0  0  0
   -2.5440    0.3720    1.6340 C   0  0  0  0  0  0  0  0  0  0  0  0
   -3.5000   -0.1930    2.1880 O   0  0  0  0  0  0  0  0  0  0  0  0
   -2.1740    1.6540    1.9980 O   0  0  0  0  0  0  0  0  0  0  0  0
   -0.6840    0.3420   -0.0670 C   0  0  2  0  0  0  0  0  0  0  0  0
   -1.1200    1.5660   -0.6560 O   0  0  0  0  0  0  0  0  0  0  0  0
    3.1930    0.3540    0.7370 C   0  0  0  0  0  0  0  0  0  0  0  0
    3.9450    1.3000    1.0730 O   0  0  0  0  0  0  0  0  0  0  0  0
    3.3280   -0.8400    1.4260 O   0  0  0  0  0  0  0  0  0  0  0  0
  1  2  2  0
  2  3  1  0
  2 14  1  0
  4  3  1  1
  4  5  1  0
  4 12  1  0
  5  6  2  0
  6  7  1  0
  7  8  2  0
  8  9  1  0
  8 12  1  0
  9 10  2  0
  9 11  1  0
 12 13  1  6
 14 15  2  0
 14 16  1  0
M  END
