
     RDKit          3D

 22 23  0  0  0  0  0  0  0  0999 V2000
   -1.9240   -4.0360    1.5180 C   0  0  0  0  0  0  0  0  0  0  0  0
   -1.9500   -2.6200    1.0420 C   0  0  0  0  0  0  0  0  0  0  0  0
   -0.9930   -1.7560    1.4800 C   0  0  0  0  0  0  0  0  0  0  0  0
   -0.9370   -0.4270    1.0940 C   0  0  0  0  0  0  0  0  0  0  0  0
    0.1830    0.4100    1.5710 C   0  0  0  0  0  0  0  0  0  0  0  0
    1.3930    0.3700    0.7160 C   0  0  0  0  0  0  0  0  0  0  0  0
    1.4590    0.7900   -0.5760 C   0  0  0  0  0  0  0  0  0  0  0  0
    2.6490    0.7570   -1.3340 C   0  0  0  0  0  0  0  0  0  0  0  0
    2.6260    1.2380   -2.7430 C   0  0  0  0  0  0  0  0  0  0  0  0
    3.7890    0.2740   -0.7240 C   0  0  0  0  0  0  0  0  0  0  0  0
    4.9440    0.2590   -1.5070 O   0  0  0  0  0  0  0  0  0  0  0  0
    3.7750   -0.1650    0.5860 C   0  0  0  0  0  0  0  0  0  0  0  0
    5.0440   -0.6660    1.1740 C   0  0  0  0  0  0  0  0  0  0  0  0
    2.6030   -0.1070    1.2560 C   0  0  0  0  0  0  0  0  0  0  0  0
   -1.8990    0.0440    0.2270 C   0  0  0  0  0  0  0  0  0  0  0  0
   -2.0300    1.2750   -0.2510 O   0  0  0  0  0  0  0  0  0  0  0  0
   -1.6930    2.5320   -0.3910 C   0  0  2  0  0  0  0  0  0  0  0  0
   -2.7160    3.5310    0.2210 C   0  0  0  0  0  0  0  0  0  0  0  0
   -1.5370    3.0080   -1.8580 C   0  0  0  0  0  0  0  0  0  0  0  0
   -2.8860   -0.8760   -0.2170 C   0  0  0  0  0  0  0  0  0  0  0  0
   -2.9070   -2.1680    0.1810 C   0  0  0  0  0  0  0  0  0  0  0  0
   -3.9370   -3.1490   -0.2750 C   0  0  0  0  0  0  0  0  0  0  0  0
  1  2  1  0
  2  3  2  0
  2 21  1  0
  3  4  1  0
  4  5  1  0
  4 15  2  0
  5  6  1  0
  6  7  2  0
  6 14  1  0
  7  8  1  0
  8  9  1  0
  8 10  2  0
 10 11  1  0
 10 12  1  0
 12 13  1  0
 12 14  2  0
 15 16  1  0
 15 20  1  0
 16 17  1  0
 17 18  1  6
 17 19  1  0
 20 21  2  0
 21 22  1  0
M  END
