
     RDKit          3D

 22 23  0  0  0  0  0  0  0  0999 V2000
   -3.7200    2.4210    0.9890 C   0  0  0  0  0  0  0  0  0  0  0  0
   -4.4980    1.5580    0.6840 C   0  0  0  0  0  0  0  0  0  0  0  0
   -4.4990    0.3080   -0.0510 C   0  0  0  0  0  0  0  0  0  0  0  0
   -5.5380   -0.4520   -0.3110 C   0  0  0  0  0  0  0  0  0  0  0  0
   -5.1860   -1.6610   -1.0900 C   0  0  0  0  0  0  0  0  0  0  0  0
   -3.7610   -1.3820   -1.5230 C   0  0  0  0  0  0  0  0  0  0  0  0
   -3.2740   -0.4260   -0.5290 C   0  0  0  0  0  0  0  0  0  0  0  0
   -2.0770   -0.1570   -0.0380 C   0  0  0  0  0  0  0  0  0  0  0  0
   -0.8120   -0.7590   -0.3740 C   0  0  0  0  0  0  0  0  0  0  0  0
   -0.8210   -1.6600   -1.2480 O   0  0  0  0  0  0  0  0  0  0  0  0
    0.4820   -0.4020    0.2160 C   0  0  0  0  0  0  0  0  0  0  0  0
    1.5940   -0.4020   -0.6700 C   0  0  0  0  0  0  0  0  0  0  0  0
    2.8340   -0.0240   -0.2520 C   0  0  0  0  0  0  0  0  0  0  0  0
    4.0170    0.0350   -1.1770 C   0  0  2  0  0  0  0  0  0  0  0  0
    3.7180   -0.6470   -2.4810 C   0  0  0  0  0  0  0  0  0  0  0  0
    5.2400   -0.5910   -0.5600 C   0  0  0  0  0  0  0  0  0  0  0  0
    4.3510    1.5170   -1.4080 C   0  0  0  0  0  0  0  0  0  0  0  0
    2.9550    0.3510    1.0610 C   0  0  0  0  0  0  0  0  0  0  0  0
    1.9110    0.3600    1.9410 C   0  0  0  0  0  0  0  0  0  0  0  0
    0.6100   -0.0310    1.5160 C   0  0  0  0  0  0  0  0  0  0  0  0
   -0.4740    0.0190    2.5240 C   0  0  0  0  0  0  0  0  0  0  0  0
    0.0850    0.3810    3.7940 O   0  0  0  0  0  0  0  0  0  0  0  0
  1  2  2  0
  2  3  1  0
  3  4  2  0
  3  7  1  0
  4  5  1  0
  5  6  1  0
  6  7  1  0
  7  8  2  3
  8  9  1  0
  9 10  2  0
  9 11  1  0
 11 12  2  0
 11 20  1  0
 12 13  1  0
 13 14  1  0
 13 18  2  0
 14 15  1  6
 14 16  1  0
 14 17  1  0
 18 19  1  0
 19 20  2  0
 20 21  1  0
 21 22  1  0
M  END
