
     RDKit          3D

 17 17  0  0  0  0  0  0  0  0999 V2000
    5.8800    0.9600   -0.5770 C   0  0  0  0  0  0  0  0  0  0  0  0
    5.2550   -0.3720   -0.1370 C   0  0  0  0  0  0  0  0  0  0  0  0
    4.2510    0.0800    0.7480 O   0  0  0  0  0  0  0  0  0  0  0  0
    3.0880   -0.2950    0.1140 O   0  0  0  0  0  0  0  0  0  0  0  0
    2.0450    0.4060    0.6240 O   0  0  0  0  0  0  0  0  0  0  0  0
    0.8410   -0.0700    0.4680 N   0  0  0  0  0  0  0  0  0  0  0  0
   -0.2380    0.7130    0.3370 C   0  0  0  0  0  0  0  0  0  0  0  0
   -0.2200    2.0690    0.0870 N   0  0  0  0  0  0  0  0  0  0  0  0
   -1.5620    0.0810    0.2070 C   0  0  0  0  0  0  0  0  0  0  0  0
   -2.7060    1.1240    0.0500 C   0  0  0  0  0  0  0  0  0  0  0  0
   -4.3320    0.3990    0.4690 P   0  0  0  0  0  0  0  0  0  0  0  0
   -4.6570   -1.1680   -0.4450 C   0  0  0  0  0  0  0  0  0  0  0  0
   -5.5870    1.6530    0.0130 C   0  0  0  0  0  0  0  0  0  0  0  0
   -1.7690   -1.1670    0.2070 O   0  0  0  0  0  0  0  0  0  0  0  0
   -1.0440   -2.1860    0.2710 O   0  0  0  0  0  0  0  0  0  0  0  0
    0.6100   -1.7370    0.4300 P   0  0  0  0  0  0  0  0  0  0  0  0
    2.0040   -2.9140   -0.1140 C   0  0  0  0  0  0  0  0  0  0  0  0
  1  2  1  0
  2  3  1  0
  3  4  1  0
  4  5  1  0
  5  6  1  0
  6  7  1  0
  6 16  1  0
  7  8  1  0
  7  9  2  0
  9 10  1  0
  9 14  1  0
 10 11  1  0
 11 12  1  0
 11 13  1  0
 14 15  1  0
 15 16  1  0
 16 17  1  0
M  END
