
     RDKit          3D

 17 18  0  0  0  0  0  0  0  0999 V2000
    4.4640    0.6230    0.4960 C   0  0  0  0  0  0  0  0  0  0  0  0
    4.0230    1.0450   -1.2370 P   0  0  0  0  0  0  0  0  0  0  0  0
    2.8010    2.8990   -1.3990 P   0  0  0  0  0  0  0  0  0  0  0  0
    0.9660    2.0570   -1.3770 P   0  0  0  0  0  0  0  0  0  0  0  0
    0.9620    0.2420   -1.2440 C   0  0  0  0  0  0  0  0  0  0  0  0
    0.0570   -0.5540   -0.6980 C   0  0  0  0  0  0  0  0  0  0  0  0
   -0.0150   -1.9340   -0.5590 O   0  0  0  0  0  0  0  0  0  0  0  0
   -1.2050   -1.8580    0.0780 C   0  0  0  0  0  0  0  0  0  0  0  0
   -1.9440   -2.7850    0.5430 O   0  0  0  0  0  0  0  0  0  0  0  0
   -1.1960   -0.4440   -0.0290 N   0  0  0  0  0  0  0  0  0  0  0  0
   -2.0640    0.6040    0.3640 C   0  0  0  0  0  0  0  0  0  0  0  0
   -1.7290    1.9810    0.0840 N   0  0  0  0  0  0  0  0  0  0  0  0
   -3.1970    0.4200    0.9890 C   0  0  0  0  0  0  0  0  0  0  0  0
   -3.6470   -0.8800    1.3260 N   0  0  0  0  0  0  0  0  0  0  0  0
   -4.0140    1.5110    1.3510 O   0  0  0  0  0  0  0  0  0  0  0  0
    2.5200   -0.3880   -2.0380 P   0  0  0  0  0  0  0  0  0  0  0  0
    2.8700   -1.9910   -1.4670 O   0  0  0  0  0  0  0  0  0  0  0  0
  1  2  1  0
  2  3  1  0
  2 16  1  0
  3  4  2  0
  4  5  1  0
  5  6  2  3
  5 16  1  0
  6  7  1  0
  6 10  1  0
  7  8  1  0
  8  9  2  0
  8 10  1  0
 10 11  1  0
 11 12  1  0
 11 13  2  3
 13 14  1  0
 13 15  1  0
 16 17  1  0
M  END
