
     RDKit          3D

 17 17  0  0  0  0  0  0  0  0999 V2000
   -1.5400    0.6000   -1.7070 C   0  0  0  0  0  0  0  0  0  0  0  0
   -1.3650    1.5150   -0.4900 C   0  0  0  0  0  0  0  0  0  0  0  0
   -1.6830    0.7210    0.6710 N   0  0  0  0  0  0  0  0  0  0  0  0
   -0.9140   -0.3780    1.1080 C   0  0  0  0  0  0  0  0  0  0  0  0
    0.3890   -0.3610    1.0050 C   0  0  0  0  0  0  0  0  0  0  0  0
    1.1560    0.6550    0.4920 O   0  0  0  0  0  0  0  0  0  0  0  0
    2.0760    0.5040   -0.5120 C   0  0  0  0  0  0  0  0  0  0  0  0
    2.9710   -0.4560   -0.4930 C   0  0  0  0  0  0  0  0  0  0  0  0
    3.0270   -1.3650    0.5480 O   0  0  0  0  0  0  0  0  0  0  0  0
    3.9790   -0.6300   -1.5810 C   0  0  0  0  0  0  0  0  0  0  0  0
    5.7140   -0.5000   -0.8830 P   0  0  0  0  0  0  0  0  0  0  0  0
   -1.5560   -1.5450    1.6750 N   0  0  0  0  0  0  0  0  0  0  0  0
   -0.9080   -2.7090    1.7100 O   0  0  0  0  0  0  0  0  0  0  0  0
   -3.2230   -1.4860    2.3510 P   0  0  0  0  0  0  0  0  0  0  0  0
   -3.5530    0.1440    2.8670 O   0  0  0  0  0  0  0  0  0  0  0  0
   -3.1570    1.1890    1.5880 P   0  0  0  0  0  0  0  0  0  0  0  0
   -4.7840    1.4260    0.1350 P   0  0  0  0  0  0  0  0  0  0  0  0
  1  2  1  0
  2  3  1  0
  3  4  1  0
  3 16  1  0
  4  5  2  3
  4 12  1  0
  5  6  1  0
  6  7  1  0
  7  8  2  3
  8  9  1  0
  8 10  1  0
 10 11  1  0
 12 13  1  0
 12 14  1  0
 14 15  1  0
 15 16  1  0
 16 17  1  0
M  END
