
     RDKit          3D

 17 17  0  0  0  0  0  0  0  0999 V2000
    5.7020   -0.1000   -0.6210 C   0  0  0  0  0  0  0  0  0  0  0  0
    5.3600    0.5640    0.5590 O   0  0  0  0  0  0  0  0  0  0  0  0
    4.0950    0.2790    0.8760 O   0  0  0  0  0  0  0  0  0  0  0  0
    3.6560   -1.0230    1.0160 C   0  0  0  0  0  0  0  0  0  0  0  0
    4.4770   -1.9890    1.5640 O   0  0  0  0  0  0  0  0  0  0  0  0
    2.1420   -1.4170    0.5230 P   0  0  0  0  0  0  0  0  0  0  0  0
    0.9890   -0.2810   -0.1950 N   0  0  0  0  0  0  0  0  0  0  0  0
    0.1060   -0.7150   -1.2450 C   0  0  0  0  0  0  0  0  0  0  0  0
   -1.3020   -0.3930   -0.8220 C   0  0  0  0  0  0  0  0  0  0  0  0
   -1.4040    1.0100   -0.4150 C   0  0  0  0  0  0  0  0  0  0  0  0
   -3.0830    1.7760   -0.6230 P   0  0  0  0  0  0  0  0  0  0  0  0
   -4.3900    0.6930    0.8110 P   0  0  0  0  0  0  0  0  0  0  0  0
   -5.5060    1.8110    1.6320 N   0  0  0  0  0  0  0  0  0  0  0  0
   -5.4190   -0.9620   -0.1640 P   0  0  0  0  0  0  0  0  0  0  0  0
   -0.4310    1.6910    0.0520 N   0  0  0  0  0  0  0  0  0  0  0  0
    0.8720    1.0780    0.2030 C   0  0  0  0  0  0  0  0  0  0  0  0
    1.8690    1.6710    0.6540 O   0  0  0  0  0  0  0  0  0  0  0  0
  1  2  1  0
  2  3  1  0
  3  4  1  0
  4  5  1  0
  4  6  2  3
  6  7  1  0
  7  8  1  0
  7 16  1  0
  8  9  1  0
  9 10  1  0
 10 11  1  0
 10 15  2  0
 11 12  1  0
 12 13  1  0
 12 14  1  0
 15 16  1  0
 16 17  2  0
M  END
