
     RDKit          3D

 17 17  0  0  0  0  0  0  0  0999 V2000
    2.8090   -1.7690   -0.5030 C   0  0  0  0  0  0  0  0  0  0  0  0
    2.6760   -0.4800   -0.3790 C   0  0  0  0  0  0  0  0  0  0  0  0
    1.4370    0.1020   -0.4520 O   0  0  0  0  0  0  0  0  0  0  0  0
    0.3010    0.2540    0.8420 P   0  0  0  0  0  0  0  0  0  0  0  0
   -0.4410   -1.4160    1.3100 C   0  0  0  0  0  0  0  0  0  0  0  0
   -1.8920   -1.0810    0.9200 C   0  0  0  0  0  0  0  0  0  0  0  0
   -1.7780   -0.2260   -0.2600 N   0  0  0  0  0  0  0  0  0  0  0  0
   -3.0560    0.0360   -0.7030 N   0  0  0  0  0  0  0  0  0  0  0  0
   -3.0770    1.3340   -1.3860 C   0  0  0  0  0  0  0  0  0  0  0  0
   -3.9490    0.1020    0.3110 O   0  0  0  0  0  0  0  0  0  0  0  0
   -5.2160    0.2860   -0.2850 C   0  0  0  0  0  0  0  0  0  0  0  0
   -1.1790    0.9330    0.1690 O   0  0  0  0  0  0  0  0  0  0  0  0
    3.8620    0.3680   -0.1590 C   0  0  1  0  0  0  0  0  0  0  0  0
    4.0120    1.2750   -1.2350 O   0  0  0  0  0  0  0  0  0  0  0  0
    3.6330    1.3870    1.4080 P   0  0  0  0  0  0  0  0  0  0  0  0
    5.1290   -0.3930   -0.0510 C   0  0  0  0  0  0  0  0  0  0  0  0
    5.3450   -1.2440    0.7960 O   0  0  0  0  0  0  0  0  0  0  0  0
  1  2  2  0
  2  3  1  0
  2 13  1  0
  3  4  1  0
  4  5  1  0
  4 12  1  0
  5  6  1  0
  6  7  1  0
  7  8  1  0
  7 12  1  0
  8  9  1  0
  8 10  1  0
 10 11  1  0
 13 14  1  6
 13 15  1  0
 13 16  1  0
 16 17  2  0
M  END
