
     RDKit          3D

 14 13  0  0  0  0  0  0  0  0999 V2000
   -2.9740   -0.2810    1.3900 C   0  0  0  0  0  0  0  0  0  0  0  0
   -2.8510    0.4310    0.1300 N   0  0  0  0  0  0  0  0  0  0  0  0
   -4.1030    0.6290   -0.5440 C   0  0  0  0  0  0  0  0  0  0  0  0
   -1.8060   -0.0530   -0.6780 C   0  0  0  0  0  0  0  0  0  0  0  0
   -0.4740   -0.0130    0.0290 C   0  0  0  0  0  0  0  0  0  0  0  0
    0.3860   -0.6570   -0.8800 O   0  0  0  0  0  0  0  0  0  0  0  0
    1.7790    0.2660   -1.0850 P   0  0  1  0  0  0  0  0  0  0  0  0
    1.5040    1.2290   -2.2750 O   0  0  0  0  0  0  0  0  0  0  0  0
    1.9990    1.2370    0.2750 O   0  0  0  0  0  0  0  0  0  0  0  0
    3.0850   -0.7220   -1.4270 O   0  0  0  0  0  0  0  0  0  0  0  0
    4.0330   -0.7330    0.0050 P   0  0  2  0  0  0  0  0  0  0  0  0
    3.2670   -1.4580    1.0710 O   0  0  0  0  0  0  0  0  0  0  0  0
    4.2400    0.9020    0.4440 O   0  0  0  0  0  0  0  0  0  0  0  0
    5.4930   -1.4630   -0.3870 O   0  0  0  0  0  0  0  0  0  0  0  0
  1  2  1  0
  2  3  1  0
  2  4  1  0
  4  5  1  0
  5  6  1  0
  6  7  1  0
  7  8  2  0
  7  9  1  1
  7 10  1  0
 10 11  1  0
 11 12  2  0
 11 13  1  1
 11 14  1  0
M  END
