
     RDKit          3D

 17 17  0  0  0  0  0  0  0  0999 V2000
    1.4830   -2.9170   -0.2440 O   0  0  0  0  0  0  0  0  0  0  0  0
    0.9260   -1.6000   -0.8620 P   0  0  0  0  0  0  0  0  0  0  0  0
    1.4790    0.0280   -0.2380 C   0  0  0  0  0  0  0  0  0  0  0  0
    2.8630    0.1500    0.1870 C   0  0  0  0  0  0  0  0  0  0  0  0
    3.6900   -0.8410    0.1350 N   0  0  0  0  0  0  0  0  0  0  0  0
    4.9890   -0.6860    0.5450 O   0  0  0  0  0  0  0  0  0  0  0  0
    5.8690    0.8010    0.2220 P   0  0  0  0  0  0  0  0  0  0  0  0
    0.6630    1.0680   -0.1690 C   0  0  0  0  0  0  0  0  0  0  0  0
   -0.6320    0.9650   -0.5630 O   0  0  0  0  0  0  0  0  0  0  0  0
   -1.5670    0.1010    0.1000 C   0  0  0  0  0  0  0  0  0  0  0  0
   -1.0640   -0.6460    1.1960 N   0  0  0  0  0  0  0  0  0  0  0  0
   -2.5450   -1.6080    1.7580 P   0  0  0  0  0  0  0  0  0  0  0  0
   -3.6030   -0.8860    0.4700 C   0  0  0  0  0  0  0  0  0  0  0  0
   -2.8040   -0.0600   -0.2020 N   0  0  0  0  0  0  0  0  0  0  0  0
   -3.4000    0.6830   -1.3310 C   0  0  0  0  0  0  0  0  0  0  0  0
   -2.7290    1.4830   -2.0210 O   0  0  0  0  0  0  0  0  0  0  0  0
   -5.1500    0.4790   -1.7840 P   0  0  0  0  0  0  0  0  0  0  0  0
  1  2  2  0
  2  3  1  0
  3  4  1  0
  3  8  2  3
  4  5  2  3
  5  6  1  0
  6  7  1  0
  8  9  1  0
  9 10  1  0
 10 11  2  0
 10 14  1  0
 11 12  1  0
 12 13  2  0
 13 14  1  0
 14 15  1  0
 15 16  2  0
 15 17  1  0
M  END
