
     RDKit          3D

 29 33  0  0  0  0  0  0  0  0999 V2000
    7.8700   -0.0920   -1.7170 C   0  0  0  0  0  0  0  0  0  0  0  0
    7.3670   -1.0650   -0.7210 C   0  0  0  0  0  0  0  0  0  0  0  0
    8.1260   -2.0120   -0.1280 N   0  0  0  0  0  0  0  0  0  0  0  0
    7.3170   -2.6690    0.6850 N   0  0  0  0  0  0  0  0  0  0  0  0
    6.0740   -2.1600    0.6180 C   0  0  0  0  0  0  0  0  0  0  0  0
    4.7960   -2.2100    1.0460 N   0  0  0  0  0  0  0  0  0  0  0  0
    4.0460   -1.2660    0.4530 C   0  0  0  0  0  0  0  0  0  0  0  0
    2.5920   -1.0150    0.6720 C   0  0  0  0  0  0  0  0  0  0  0  0
    2.0920    0.0560   -0.1080 N   0  0  0  0  0  0  0  0  0  0  0  0
    2.6760    1.3230    0.0920 C   0  0  0  0  0  0  0  0  0  0  0  0
    1.7560    2.2920    0.7720 C   0  0  0  0  0  0  0  0  0  0  0  0
    0.6100    1.5780    1.4620 C   0  0  0  0  0  0  0  0  0  0  0  0
   -0.1930    0.7250    0.5260 C   0  0  1  0  0  0  0  0  0  0  0  0
   -0.9320   -0.3450    1.2940 C   0  0  0  0  0  0  0  0  0  0  0  0
   -1.9770    0.1770    2.2170 C   0  0  0  0  0  0  0  0  0  0  0  0
   -2.8250    1.2400    1.5390 C   0  0  0  0  0  0  0  0  0  0  0  0
   -2.5780    1.1350    0.1310 N   0  0  0  0  0  0  0  0  0  0  0  0
   -3.4490    0.6990   -0.8690 C   0  0  0  0  0  0  0  0  0  0  0  0
   -3.0420    0.6780   -2.0880 O   0  0  0  0  0  0  0  0  0  0  0  0
   -4.8300    0.2370   -0.7330 C   0  0  1  0  0  0  0  0  0  0  0  0
   -5.6900    1.1500   -1.6190 C   0  0  0  0  0  0  0  0  0  0  0  0
   -4.9230   -1.1400   -1.3560 C   0  0  0  0  0  0  0  0  0  0  0  0
   -6.0500   -1.7640   -0.5590 C   0  0  0  0  0  0  0  0  0  0  0  0
   -5.8980   -1.0360    0.7700 C   0  0  0  0  0  0  0  0  0  0  0  0
   -5.3880    0.2020    0.4900 O   0  0  0  0  0  0  0  0  0  0  0  0
   -1.2200    1.5500   -0.2500 C   0  0  0  0  0  0  0  0  0  0  0  0
    0.7240    0.0200   -0.4470 C   0  0  0  0  0  0  0  0  0  0  0  0
    4.8990   -0.6080   -0.3750 N   0  0  0  0  0  0  0  0  0  0  0  0
    6.1030   -1.1370   -0.2790 N   0  0  0  0  0  0  0  0  0  0  0  0
  1  2  1  0
  2  3  2  0
  2 29  1  0
  3  4  1  0
  4  5  1  0
  5  6  2  0
  5 29  1  0
  6  7  1  0
  7  8  1  0
  7 28  2  0
  8  9  1  0
  9 10  1  0
  9 27  1  0
 10 11  1  0
 11 12  1  0
 13 12  1  1
 13 14  1  0
 13 26  1  0
 13 27  1  0
 14 15  1  0
 15 16  1  0
 16 17  1  0
 17 18  1  0
 17 26  1  0
 18 19  2  0
 18 20  1  0
 20 21  1  6
 20 22  1  0
 20 25  1  0
 22 23  1  0
 23 24  1  0
 24 25  1  0
 28 29  1  0
M  END
