
     RDKit          3D

 29 31  0  0  0  0  0  0  0  0999 V2000
    5.3540   -1.2530    0.7370 C   0  0  0  0  0  0  0  0  0  0  0  0
    5.7860    0.2040    0.7060 C   0  0  0  0  0  0  0  0  0  0  0  0
    4.8900    1.0270    1.3460 O   0  0  0  0  0  0  0  0  0  0  0  0
    3.6070    0.9740    0.8170 C   0  0  0  0  0  0  0  0  0  0  0  0
    3.4960    1.3860   -0.6060 C   0  0  0  0  0  0  0  0  0  0  0  0
    2.1640    1.4100   -1.2320 C   0  0  0  0  0  0  0  0  0  0  0  0
    1.3380    0.2170   -1.3740 C   0  0  1  0  0  0  0  0  0  0  0  0
    1.9260   -0.9050   -2.1490 C   0  0  0  0  0  0  0  0  0  0  0  0
    0.8100   -0.3570   -0.0630 C   0  0  0  0  0  0  0  0  0  0  0  0
   -0.4830   -0.7760   -0.4360 O   0  0  0  0  0  0  0  0  0  0  0  0
   -1.0450   -1.9010   -0.8540 C   0  0  0  0  0  0  0  0  0  0  0  0
   -0.8320   -2.6210   -1.9150 O   0  0  0  0  0  0  0  0  0  0  0  0
   -2.1170   -2.4890    0.0060 C   0  0  0  0  0  0  0  0  0  0  0  0
   -2.0540   -3.7180    0.5020 C   0  0  0  0  0  0  0  0  0  0  0  0
   -3.2710   -3.9520    1.2950 C   0  0  0  0  0  0  0  0  0  0  0  0
   -3.9770   -2.7360    1.1540 C   0  0  0  0  0  0  0  0  0  0  0  0
   -3.3400   -1.7910    0.3840 C   0  0  0  0  0  0  0  0  0  0  0  0
   -3.5920   -0.5200   -0.0370 O   0  0  0  0  0  0  0  0  0  0  0  0
   -3.8330    0.7880    0.2230 C   0  0  0  0  0  0  0  0  0  0  0  0
   -5.1500    1.1140    0.6860 C   0  0  0  0  0  0  0  0  0  0  0  0
   -5.6210    2.3400    1.0270 C   0  0  0  0  0  0  0  0  0  0  0  0
   -4.7620    3.3860    0.9230 C   0  0  0  0  0  0  0  0  0  0  0  0
   -3.5050    3.1260    0.4830 C   0  0  0  0  0  0  0  0  0  0  0  0
   -2.9720    1.8630    0.1110 C   0  0  0  0  0  0  0  0  0  0  0  0
   -1.5950    1.9990   -0.4390 C   0  0  0  0  0  0  0  0  0  0  0  0
   -0.8610    2.7310    0.4160 O   0  0  0  0  0  0  0  0  0  0  0  0
   -0.8800    1.6130   -1.5390 N   0  0  0  0  0  0  0  0  0  0  0  0
    0.0280    0.6690   -2.0440 C   0  0  0  0  0  0  0  0  0  0  0  0
   -0.2010    0.1040   -3.1540 O   0  0  0  0  0  0  0  0  0  0  0  0
  1  2  1  0
  2  3  1  0
  3  4  1  0
  4  5  1  0
  5  6  1  0
  6  7  1  0
  7  8  1  6
  7  9  1  0
  7 28  1  0
  9 10  1  0
 10 11  1  0
 11 12  2  0
 11 13  1  0
 13 14  2  0
 13 17  1  0
 14 15  1  0
 15 16  1  0
 16 17  2  0
 17 18  1  0
 18 19  1  0
 19 20  2  0
 19 24  1  0
 20 21  1  0
 21 22  2  0
 22 23  1  0
 23 24  2  0
 24 25  1  0
 25 26  2  0
 25 27  1  0
 27 28  1  0
 28 29  2  0
M  END
