
     RDKit          3D

 29 33  0  0  0  0  0  0  0  0999 V2000
    8.1770    0.3910    0.6660 C   0  0  0  0  0  0  0  0  0  0  0  0
    6.7730    0.2790    0.1200 C   0  0  1  0  0  0  0  0  0  0  0  0
    5.9360   -0.7100    0.8800 C   0  0  0  0  0  0  0  0  0  0  0  0
    4.5650   -0.5460    0.4450 N   0  0  0  0  0  0  0  0  0  0  0  0
    3.4830   -1.0840    1.1870 C   0  0  0  0  0  0  0  0  0  0  0  0
    3.6660   -1.7320    2.2580 O   0  0  0  0  0  0  0  0  0  0  0  0
    2.1060   -0.8940    0.7150 C   0  0  0  0  0  0  0  0  0  0  0  0
    1.1370   -1.6000    1.6520 C   0  0  0  0  0  0  0  0  0  0  0  0
   -0.2250   -1.3620    1.1110 C   0  0  0  0  0  0  0  0  0  0  0  0
   -0.7330   -2.2580    0.2120 N   0  0  0  0  0  0  0  0  0  0  0  0
   -1.9600   -2.0740   -0.2980 C   0  0  0  0  0  0  0  0  0  0  0  0
   -2.6890   -0.9830    0.0950 C   0  0  0  0  0  0  0  0  0  0  0  0
   -2.1910   -0.0600    1.0090 C   0  0  0  0  0  0  0  0  0  0  0  0
   -0.9590   -0.2980    1.4820 N   0  0  0  0  0  0  0  0  0  0  0  0
   -3.1730    0.8410    1.1380 N   0  0  0  0  0  0  0  0  0  0  0  0
   -4.2280    0.4930    0.3430 C   0  0  0  0  0  0  0  0  0  0  0  0
   -5.4530    1.2200    0.2250 N   0  0  0  0  0  0  0  0  0  0  0  0
   -6.5700    0.8580   -0.5950 C   0  0  0  0  0  0  0  0  0  0  0  0
   -7.7150    1.6990   -0.0740 C   0  0  0  0  0  0  0  0  0  0  0  0
   -7.0990    2.8880    0.5920 C   0  0  0  0  0  0  0  0  0  0  0  0
   -5.7270    2.4470    0.9410 C   0  0  0  0  0  0  0  0  0  0  0  0
   -3.9100   -0.6590   -0.3090 N   0  0  0  0  0  0  0  0  0  0  0  0
   -4.5880   -1.5000   -1.2560 C   0  0  0  0  0  0  0  0  0  0  0  0
   -3.6210   -2.3470   -2.0450 C   0  0  0  0  0  0  0  0  0  0  0  0
   -2.5790   -2.9470   -1.2450 N   0  0  0  0  0  0  0  0  0  0  0  0
    4.3070    0.1770   -0.7680 C   0  0  0  0  0  0  0  0  0  0  0  0
    5.1370    1.4390   -0.8760 C   0  0  2  0  0  0  0  0  0  0  0  0
    5.8370    1.4650   -2.2180 C   0  0  0  0  0  0  0  0  0  0  0  0
    6.1190    1.4940    0.1110 O   0  0  0  0  0  0  0  0  0  0  0  0
  2  1  1  1
  2  3  1  0
  2 29  1  0
  3  4  1  0
  4  5  1  0
  4 26  1  0
  5  6  2  0
  5  7  1  0
  7  8  1  0
  8  9  1  0
  9 10  2  0
  9 14  1  0
 10 11  1  0
 11 12  2  0
 11 25  1  0
 12 13  1  0
 12 22  1  0
 13 14  2  0
 13 15  1  0
 15 16  2  0
 16 17  1  0
 16 22  1  0
 17 18  1  0
 17 21  1  0
 18 19  1  0
 19 20  1  0
 20 21  1  0
 22 23  1  0
 23 24  1  0
 24 25  1  0
 26 27  1  0
 27 28  1  6
 27 29  1  0
M  END
