
     RDKit          3D

 30 33  0  0  0  0  0  0  0  0999 V2000
   -6.5930    3.4380   -0.1270 N   0  0  0  0  0  0  0  0  0  0  0  0
   -5.3520    2.8230   -0.5390 C   0  0  0  0  0  0  0  0  0  0  0  0
   -5.3390    2.1390   -1.6110 N   0  0  0  0  0  0  0  0  0  0  0  0
   -4.1700    3.0160    0.2970 C   0  0  0  0  0  0  0  0  0  0  0  0
   -4.2790    3.7830    1.4420 C   0  0  0  0  0  0  0  0  0  0  0  0
   -3.1690    3.9690    2.2350 C   0  0  0  0  0  0  0  0  0  0  0  0
   -1.9530    3.3850    1.8790 C   0  0  0  0  0  0  0  0  0  0  0  0
   -1.8300    2.6170    0.7410 C   0  0  0  0  0  0  0  0  0  0  0  0
   -0.5370    1.9780    0.3540 C   0  0  0  0  0  0  0  0  0  0  0  0
   -0.5480    0.5590    0.7070 N   0  0  0  0  0  0  0  0  0  0  0  0
   -1.0590   -0.4290   -0.2180 C   0  0  0  0  0  0  0  0  0  0  0  0
   -0.2090   -1.6450   -0.2040 C   0  0  0  0  0  0  0  0  0  0  0  0
    0.1840   -2.1570    1.0490 N   0  0  0  0  0  0  0  0  0  0  0  0
    1.2580   -3.4760    0.9310 S   0  0  1  0  0  0  0  0  0  0  0  0
    1.5760   -3.9110    2.3530 O   0  0  0  0  0  0  0  0  0  0  0  0
    0.6460   -4.5960    0.1580 O   0  0  0  0  0  0  0  0  0  0  0  0
    2.7040   -3.0020    0.1380 C   0  0  0  0  0  0  0  0  0  0  0  0
    3.3160   -3.4510   -0.9980 C   0  0  0  0  0  0  0  0  0  0  0  0
    4.4620   -2.8830   -1.3890 C   0  0  0  0  0  0  0  0  0  0  0  0
    5.2100   -3.2430   -2.5500 C   0  0  0  0  0  0  0  0  0  0  0  0
    6.3670   -2.5700   -2.8250 C   0  0  0  0  0  0  0  0  0  0  0  0
    6.8920   -1.5580   -2.0760 C   0  0  0  0  0  0  0  0  0  0  0  0
    8.3600   -0.7120   -2.4340 Cl  0  0  0  0  0  0  0  0  0  0  0  0
    6.1620   -1.1990   -0.9330 C   0  0  0  0  0  0  0  0  0  0  0  0
    5.0170   -1.8660   -0.6620 C   0  0  0  0  0  0  0  0  0  0  0  0
    3.7930   -1.7080    0.7000 S   0  0  0  0  0  0  0  0  0  0  0  0
    0.3390   -1.2980    2.1490 C   0  0  0  0  0  0  0  0  0  0  0  0
   -0.0740    0.1000    1.9640 C   0  0  0  0  0  0  0  0  0  0  0  0
   -0.0040    0.8890    2.9330 O   0  0  0  0  0  0  0  0  0  0  0  0
   -2.9620    2.4490   -0.0350 C   0  0  0  0  0  0  0  0  0  0  0  0
  1  2  1  0
  2  3  2  0
  2  4  1  0
  4  5  2  0
  4 30  1  0
  5  6  1  0
  6  7  2  0
  7  8  1  0
  8  9  1  0
  8 30  2  0
  9 10  1  0
 10 11  1  0
 10 28  1  0
 11 12  1  0
 12 13  1  0
 14 13  1  1
 13 27  1  0
 14 15  2  0
 14 16  2  0
 14 17  1  0
 17 18  2  0
 17 26  1  0
 18 19  1  0
 19 20  2  0
 19 25  1  0
 20 21  1  0
 21 22  2  0
 22 23  1  0
 22 24  1  0
 24 25  2  0
 25 26  1  0
 27 28  1  0
 28 29  2  0
M  CHG  1   3   1
M  END
