
     RDKit          3D

 29 31  0  0  0  0  0  0  0  0999 V2000
    2.4900    2.4520   -3.1350 C   0  0  0  0  0  0  0  0  0  0  0  0
    3.2200    1.6890   -2.2030 O   0  0  0  0  0  0  0  0  0  0  0  0
    2.6030    1.3650   -0.9210 C   0  0  0  0  0  0  0  0  0  0  0  0
    2.2290    2.4350   -0.2430 C   0  0  0  0  0  0  0  0  0  0  0  0
    1.5680    2.5020    1.0640 C   0  0  0  0  0  0  0  0  0  0  0  0
    2.0080    2.7830    2.2560 O   0  0  0  0  0  0  0  0  0  0  0  0
    1.0770    2.7280    3.1590 C   0  0  0  0  0  0  0  0  0  0  0  0
   -0.0590    2.3870    2.5080 N   0  0  0  0  0  0  0  0  0  0  0  0
    0.2080    2.2400    1.2140 C   0  0  0  0  0  0  0  0  0  0  0  0
   -0.6270    1.8970    0.0300 C   0  0  0  0  0  0  0  0  0  0  0  0
   -1.9010    1.2550    0.3360 C   0  0  0  0  0  0  0  0  0  0  0  0
   -2.5000    0.4660   -0.7580 C   0  0  0  0  0  0  0  0  0  0  0  0
   -3.4000    1.1700   -1.5380 O   0  0  0  0  0  0  0  0  0  0  0  0
   -4.6760    1.4260   -0.9700 C   0  0  0  0  0  0  0  0  0  0  0  0
   -2.2550   -0.8090   -1.0410 C   0  0  0  0  0  0  0  0  0  0  0  0
   -3.0040   -1.3820   -2.2000 C   0  0  0  0  0  0  0  0  0  0  0  0
   -3.7220   -0.5700   -2.8830 O   0  0  0  0  0  0  0  0  0  0  0  0
   -2.9420   -2.7840   -2.5600 C   0  0  0  0  0  0  0  0  0  0  0  0
   -2.1790   -3.5350   -1.7990 C   0  0  0  0  0  0  0  0  0  0  0  0
   -1.4430   -3.0250   -0.6840 C   0  0  0  0  0  0  0  0  0  0  0  0
   -1.4240   -1.7220   -0.2620 C   0  0  0  0  0  0  0  0  0  0  0  0
   -0.5310   -1.4190    0.8510 C   0  0  0  0  0  0  0  0  0  0  0  0
    0.7490   -1.0860    1.0040 C   0  0  0  0  0  0  0  0  0  0  0  0
    1.1510   -0.8740    2.4080 O   0  0  0  0  0  0  0  0  0  0  0  0
    1.1280   -1.9210    3.3050 C   0  0  0  0  0  0  0  0  0  0  0  0
    1.8530   -0.8980    0.1040 C   0  0  0  0  0  0  0  0  0  0  0  0
    2.4930   -2.2760   -0.0870 O   0  0  0  0  0  0  0  0  0  0  0  0
    3.7330   -2.4080    0.5800 C   0  0  0  0  0  0  0  0  0  0  0  0
    2.5020   -0.0330   -0.5760 C   0  0  0  0  0  0  0  0  0  0  0  0
  1  2  1  0
  2  3  1  0
  3  4  2  0
  3 29  1  0
  4  5  1  0
  5  6  1  0
  5  9  2  0
  6  7  1  0
  7  8  2  0
  8  9  1  0
  9 10  1  0
 10 11  1  0
 11 12  1  0
 12 13  1  0
 12 15  2  0
 13 14  1  0
 15 16  1  0
 15 21  1  0
 16 17  2  0
 16 18  1  0
 18 19  2  0
 19 20  1  0
 20 21  2  0
 21 22  1  0
 22 23  2  0
 23 24  1  0
 23 26  1  0
 24 25  1  0
 26 27  1  0
 26 29  2  0
 27 28  1  0
M  END
