
     RDKit          3D

 28 31  0  0  0  0  0  0  0  0999 V2000
   -0.7000    2.1130    1.0410 O   0  0  0  0  0  0  0  0  0  0  0  0
   -0.3220    0.9320    0.8370 C   0  0  0  0  0  0  0  0  0  0  0  0
    0.9320    0.7250    0.1000 C   0  0  0  0  0  0  0  0  0  0  0  0
    1.0880   -0.5820   -0.4370 N   0  0  0  0  0  0  0  0  0  0  0  0
    2.4980   -1.3580    0.1810 S   0  0  1  0  0  0  0  0  0  0  0  0
    2.3910   -1.3090    1.6950 O   0  0  0  0  0  0  0  0  0  0  0  0
    2.5800   -2.7860   -0.2110 O   0  0  0  0  0  0  0  0  0  0  0  0
    3.9480   -0.4780   -0.2490 C   0  0  0  0  0  0  0  0  0  0  0  0
    4.9750   -1.0750   -0.8030 C   0  0  0  0  0  0  0  0  0  0  0  0
    6.1780   -0.3500   -1.1610 C   0  0  0  0  0  0  0  0  0  0  0  0
    6.4670    1.0050   -1.0060 C   0  0  0  0  0  0  0  0  0  0  0  0
    7.6400    1.4640   -1.4060 C   0  0  0  0  0  0  0  0  0  0  0  0
    8.5430    0.5920   -1.9640 C   0  0  0  0  0  0  0  0  0  0  0  0
   10.1680    0.8020   -2.6040 Cl  0  0  0  0  0  0  0  0  0  0  0  0
    7.6130   -0.9790   -1.8930 S   0  0  0  0  0  0  0  0  0  0  0  0
   -0.0700   -1.4090   -0.3860 C   0  0  0  0  0  0  0  0  0  0  0  0
   -0.7280   -1.4800    0.9680 C   0  0  0  0  0  0  0  0  0  0  0  0
   -1.1270   -0.1330    1.3300 N   0  0  0  0  0  0  0  0  0  0  0  0
   -2.2880    0.1130    2.1530 C   0  0  0  0  0  0  0  0  0  0  0  0
   -3.5250    0.2800    1.3400 C   0  0  0  0  0  0  0  0  0  0  0  0
   -4.7570    0.5180    1.9120 C   0  0  0  0  0  0  0  0  0  0  0  0
   -5.6610    0.6170    0.8760 C   0  0  0  0  0  0  0  0  0  0  0  0
   -7.0100    0.8420    0.8180 C   0  0  0  0  0  0  0  0  0  0  0  0
   -7.6480    0.8880   -0.3760 N   0  0  0  0  0  0  0  0  0  0  0  0
   -7.0090    0.7210   -1.5480 C   0  0  0  0  0  0  0  0  0  0  0  0
   -5.6480    0.4920   -1.5360 C   0  0  0  0  0  0  0  0  0  0  0  0
   -4.9900    0.4430   -0.3170 C   0  0  0  0  0  0  0  0  0  0  0  0
   -3.6880    0.2400    0.0080 N   0  0  0  0  0  0  0  0  0  0  0  0
  1  2  2  0
  2  3  1  0
  2 18  1  0
  3  4  1  0
  5  4  1  6
  4 16  1  0
  5  6  2  0
  5  7  2  0
  5  8  1  0
  8  9  2  3
  9 10  1  0
 10 11  2  0
 10 15  1  0
 11 12  1  0
 12 13  2  0
 13 14  1  0
 13 15  1  0
 16 17  1  0
 17 18  1  0
 18 19  1  0
 19 20  1  0
 20 21  2  0
 20 28  1  0
 21 22  1  0
 22 23  2  0
 22 27  1  0
 23 24  1  0
 24 25  2  0
 25 26  1  0
 26 27  2  0
 27 28  1  0
M  END
