
     RDKit          3D

 28 30  0  0  0  0  0  0  0  0999 V2000
   -5.3920    2.6720    0.5190 C   0  0  0  0  0  0  0  0  0  0  0  0
   -5.7490    1.4250    0.7830 C   0  0  0  0  0  0  0  0  0  0  0  0
   -7.0380    1.1890    1.2010 O   0  0  0  0  0  0  0  0  0  0  0  0
   -4.7740    0.3600    0.6230 C   0  0  0  0  0  0  0  0  0  0  0  0
   -5.1360   -0.8790    0.8870 C   0  0  0  0  0  0  0  0  0  0  0  0
   -6.4680   -1.2970    1.3400 C   0  0  0  0  0  0  0  0  0  0  0  0
   -3.4390    0.6680    0.1840 N   0  0  0  0  0  0  0  0  0  0  0  0
   -2.5390    1.4930    0.9610 C   0  0  0  0  0  0  0  0  0  0  0  0
   -1.3160    0.6170    1.2750 C   0  0  0  0  0  0  0  0  0  0  0  0
   -0.8190    0.1770   -0.0050 N   0  0  0  0  0  0  0  0  0  0  0  0
    0.5530    0.4630   -0.4260 C   0  0  0  0  0  0  0  0  0  0  0  0
    1.2210    0.2190   -1.4250 N   0  0  0  0  0  0  0  0  0  0  0  0
    2.4540    0.5640   -1.6240 C   0  0  0  0  0  0  0  0  0  0  0  0
    3.2850    0.2560   -2.8740 C   0  0  0  0  0  0  0  0  0  0  0  0
    3.9680   -0.9370   -2.6000 O   0  0  0  0  0  0  0  0  0  0  0  0
    4.8530   -0.9660   -1.5080 C   0  0  0  0  0  0  0  0  0  0  0  0
    5.7580   -0.0110   -1.4440 C   0  0  0  0  0  0  0  0  0  0  0  0
    6.7480    0.0690   -0.3420 C   0  0  0  0  0  0  0  0  0  0  0  0
    6.0750   -0.0370    1.0110 C   0  0  0  0  0  0  0  0  0  0  0  0
    5.4350   -1.7410    1.0960 S   0  0  0  0  0  0  0  0  0  0  0  0
    6.6680   -2.6490    1.2060 O   0  0  0  0  0  0  0  0  0  0  0  0
    4.7280   -2.0190   -0.5300 C   0  0  0  0  0  0  0  0  0  0  0  0
    4.1250   -3.1560   -0.7840 C   0  0  0  0  0  0  0  0  0  0  0  0
    3.4430   -3.4060   -2.3730 Cl  0  0  0  0  0  0  0  0  0  0  0  0
    3.0650    1.2570   -0.6420 N   0  0  0  0  0  0  0  0  0  0  0  0
    1.6940    1.3680    0.6010 S   0  0  0  0  0  0  0  0  0  0  0  0
   -1.6750   -0.5550   -0.8930 C   0  0  0  0  0  0  0  0  0  0  0  0
   -3.0200    0.1120   -1.0810 C   0  0  0  0  0  0  0  0  0  0  0  0
  1  2  2  0
  2  3  1  0
  2  4  1  0
  4  5  2  3
  4  7  1  0
  5  6  1  0
  7  8  1  0
  7 28  1  0
  8  9  1  0
  9 10  1  0
 10 11  1  0
 10 27  1  0
 11 12  2  0
 11 26  1  0
 12 13  1  0
 13 14  1  0
 13 25  2  0
 14 15  1  0
 15 16  1  0
 16 17  2  0
 16 22  1  0
 17 18  1  0
 18 19  1  0
 20 19  1  6
 20 21  2  0
 20 22  1  0
 22 23  2  3
 23 24  1  0
 25 26  1  0
 27 28  1  0
M  END
