
     RDKit          3D

 27 30  0  0  0  0  0  0  0  0999 V2000
    0.0710   -3.0270    0.3810 C   0  0  0  0  0  0  0  0  0  0  0  0
    0.1550   -2.0950   -0.8280 C   0  0  0  0  0  0  0  0  0  0  0  0
    0.9780   -0.9010   -0.3330 C   0  0  1  0  0  0  0  0  0  0  0  0
    0.3410   -0.2610    0.8120 C   0  0  0  0  0  0  0  0  0  0  0  0
   -0.8030    0.3800    0.9410 C   0  0  0  0  0  0  0  0  0  0  0  0
   -1.1480    0.9210    2.2950 C   0  0  0  0  0  0  0  0  0  0  0  0
   -2.3590    1.2890    2.6120 C   0  0  0  0  0  0  0  0  0  0  0  0
   -3.4150    1.1910    1.6200 C   0  0  0  0  0  0  0  0  0  0  0  0
   -4.7700    1.3450    1.7440 N   0  0  0  0  0  0  0  0  0  0  0  0
   -5.3670    0.9970    0.5920 C   0  0  0  0  0  0  0  0  0  0  0  0
   -6.6790    0.9580    0.1750 C   0  0  0  0  0  0  0  0  0  0  0  0
   -6.9720    0.5350   -1.1290 C   0  0  0  0  0  0  0  0  0  0  0  0
   -5.9550    0.1630   -1.9690 C   0  0  0  0  0  0  0  0  0  0  0  0
   -4.6310    0.2010   -1.5470 C   0  0  0  0  0  0  0  0  0  0  0  0
   -4.3420    0.6190   -0.2680 C   0  0  0  0  0  0  0  0  0  0  0  0
   -3.1600    0.7510    0.3850 N   0  0  0  0  0  0  0  0  0  0  0  0
   -1.7880    0.5990   -0.1200 C   0  0  0  0  0  0  0  0  0  0  0  0
    2.2410   -1.5150    0.0310 N   0  0  0  0  0  0  0  0  0  0  0  0
    3.4250   -1.0340   -0.5720 C   0  0  0  0  0  0  0  0  0  0  0  0
    3.8070    0.3020    0.0340 C   0  0  0  0  0  0  0  0  0  0  0  0
    4.9830    0.8540   -0.4690 N   0  0  0  0  0  0  0  0  0  0  0  0
    5.0110    2.0110   -1.2170 C   0  0  0  0  0  0  0  0  0  0  0  0
    6.5920    2.8050   -0.8180 S   0  0  0  0  0  0  0  0  0  0  0  0
    7.4830    1.6130    0.0290 O   0  0  0  0  0  0  0  0  0  0  0  0
    6.4670    0.2820    0.0160 S   0  0  1  0  0  0  0  0  0  0  0  0
    6.3690   -0.3290    1.3940 O   0  0  0  0  0  0  0  0  0  0  0  0
    7.0930   -0.7140   -0.9480 O   0  0  0  0  0  0  0  0  0  0  0  0
  1  2  1  0
  3  2  1  1
  3  4  1  0
  3 18  1  0
  4  5  2  3
  5  6  1  0
  5 17  1  0
  6  7  2  0
  7  8  1  0
  8  9  2  0
  8 16  1  0
  9 10  1  0
 10 11  2  0
 10 15  1  0
 11 12  1  0
 12 13  2  0
 13 14  1  0
 14 15  2  0
 15 16  1  0
 16 17  1  0
 18 19  1  0
 19 20  1  0
 20 21  1  0
 21 22  1  0
 21 25  1  0
 22 23  1  0
 23 24  1  0
 25 24  1  1
 25 26  2  0
 25 27  2  0
M  END
