
     RDKit          3D

 28 31  0  0  0  0  0  0  0  0999 V2000
   -4.8680   -2.8150    0.8730 C   0  0  0  0  0  0  0  0  0  0  0  0
   -4.4850   -2.8170   -0.5960 C   0  0  0  0  0  0  0  0  0  0  0  0
   -4.1850   -1.5410   -1.0910 O   0  0  0  0  0  0  0  0  0  0  0  0
   -3.1680   -0.7310   -0.6160 C   0  0  0  0  0  0  0  0  0  0  0  0
   -2.3180   -1.0810    0.4040 C   0  0  0  0  0  0  0  0  0  0  0  0
   -1.3090   -0.2200    0.8420 C   0  0  0  0  0  0  0  0  0  0  0  0
   -0.2930   -0.7820    2.1480 Cl  0  0  0  0  0  0  0  0  0  0  0  0
   -1.1290    1.0180    0.2640 C   0  0  0  0  0  0  0  0  0  0  0  0
   -0.1000    1.8780    0.7220 N   0  0  0  0  0  0  0  0  0  0  0  0
    1.1480    1.5720    0.6830 C   0  0  0  0  0  0  0  0  0  0  0  0
    1.8010    0.1150    0.0900 S   0  0  0  0  0  0  0  0  0  0  0  0
    3.5300    0.0020    0.1720 C   0  0  0  0  0  0  0  0  0  0  0  0
    4.0420    1.1450    0.7160 C   0  0  0  0  0  0  0  0  0  0  0  0
    5.7970    0.8320    0.7110 S   0  0  0  0  0  0  0  0  0  0  0  0
    5.7110   -0.8460   -0.0350 C   0  0  0  0  0  0  0  0  0  0  0  0
    6.6810   -1.7070   -0.3410 N   0  0  0  0  0  0  0  0  0  0  0  0
    6.2950   -2.8790   -0.8870 C   0  0  0  0  0  0  0  0  0  0  0  0
    5.0000   -3.0770   -1.0730 N   0  0  0  0  0  0  0  0  0  0  0  0
    4.0260   -2.2390   -0.7780 C   0  0  0  0  0  0  0  0  0  0  0  0
    4.3700   -0.9740   -0.1940 C   0  0  0  0  0  0  0  0  0  0  0  0
    3.3540    2.2680    1.1580 C   0  0  0  0  0  0  0  0  0  0  0  0
    4.0410    3.2490    1.6430 O   0  0  0  0  0  0  0  0  0  0  0  0
    2.0500    2.4530    1.1400 N   0  0  0  0  0  0  0  0  0  0  0  0
    1.4870    3.7150    1.6530 C   0  0  0  0  0  0  0  0  0  0  0  0
   -1.9860    1.3590   -0.7570 C   0  0  0  0  0  0  0  0  0  0  0  0
   -2.9820    0.5230   -1.1980 C   0  0  0  0  0  0  0  0  0  0  0  0
   -3.8400    0.8760   -2.2280 O   0  0  0  0  0  0  0  0  0  0  0  0
   -3.6680    2.1450   -2.8320 C   0  0  0  0  0  0  0  0  0  0  0  0
  1  2  1  0
  2  3  1  0
  3  4  1  0
  4  5  2  0
  4 26  1  0
  5  6  1  0
  6  7  1  0
  6  8  2  0
  8  9  1  0
  8 25  1  0
  9 10  2  3
 10 11  1  0
 10 23  1  0
 11 12  1  0
 12 13  2  0
 12 20  1  0
 13 14  1  0
 13 21  1  0
 14 15  1  0
 15 16  2  0
 15 20  1  0
 16 17  1  0
 17 18  2  0
 18 19  1  0
 19 20  2  0
 21 22  2  0
 21 23  1  0
 23 24  1  0
 25 26  2  0
 26 27  1  0
 27 28  1  0
M  END
