
     RDKit          3D

 28 31  0  0  0  0  0  0  0  0999 V2000
    7.4380    0.4870    1.5860 C   0  0  0  0  0  0  0  0  0  0  0  0
    7.0280   -0.9600    1.6560 C   0  0  0  0  0  0  0  0  0  0  0  0
    6.4820   -1.4750    0.0050 S   0  0  0  0  0  0  0  0  0  0  0  0
    4.9920   -0.5700   -0.3790 C   0  0  0  0  0  0  0  0  0  0  0  0
    3.7500   -1.0630   -0.0460 C   0  0  0  0  0  0  0  0  0  0  0  0
    3.6190   -2.6080    0.7720 Cl  0  0  0  0  0  0  0  0  0  0  0  0
    2.6220   -0.3130   -0.3710 C   0  0  0  0  0  0  0  0  0  0  0  0
    1.3820   -0.7890   -0.0470 C   0  0  0  0  0  0  0  0  0  0  0  0
    0.2610   -0.0800   -0.3520 C   0  0  0  0  0  0  0  0  0  0  0  0
   -1.0520   -0.6360    0.0170 C   0  0  0  0  0  0  0  0  0  0  0  0
   -1.1420   -1.8190    0.6470 N   0  0  0  0  0  0  0  0  0  0  0  0
   -2.3170   -2.3680    1.0030 C   0  0  0  0  0  0  0  0  0  0  0  0
   -3.4960   -1.7150    0.7230 C   0  0  0  0  0  0  0  0  0  0  0  0
   -3.4090   -0.4880    0.0690 C   0  0  0  0  0  0  0  0  0  0  0  0
   -4.6080    0.1800   -0.2200 N   0  0  0  0  0  0  0  0  0  0  0  0
   -5.3200    1.1260    0.5850 C   0  0  0  0  0  0  0  0  0  0  0  0
   -6.7800    0.8860    0.4670 C   0  0  0  0  0  0  0  0  0  0  0  0
   -7.1410    0.4720   -0.9150 C   0  0  0  0  0  0  0  0  0  0  0  0
   -5.5530    0.0330   -1.6400 S   0  0  2  0  0  0  0  0  0  0  0  0
   -5.5580   -1.3410   -2.2020 O   0  0  0  0  0  0  0  0  0  0  0  0
   -5.1800    1.0740   -2.6550 O   0  0  0  0  0  0  0  0  0  0  0  0
   -2.1910    0.0160   -0.2650 N   0  0  0  0  0  0  0  0  0  0  0  0
    0.3230    1.1300   -0.9900 C   0  0  0  0  0  0  0  0  0  0  0  0
    1.5770    1.6180   -1.3210 C   0  0  0  0  0  0  0  0  0  0  0  0
    2.7240    0.8950   -1.0110 C   0  0  0  0  0  0  0  0  0  0  0  0
    3.9470    1.3530   -1.3250 N   0  0  0  0  0  0  0  0  0  0  0  0
    5.0580    0.6490   -1.0220 C   0  0  0  0  0  0  0  0  0  0  0  0
    6.2120    1.0790   -1.3180 O   0  0  0  0  0  0  0  0  0  0  0  0
  1  2  1  0
  2  3  1  0
  3  4  1  0
  4  5  2  0
  4 27  1  0
  5  6  1  0
  5  7  1  0
  7  8  2  0
  7 25  1  0
  8  9  1  0
  9 10  1  0
  9 23  2  0
 10 11  2  0
 10 22  1  0
 11 12  1  0
 12 13  2  0
 13 14  1  0
 14 15  1  0
 14 22  2  0
 15 16  1  0
 15 19  1  0
 16 17  1  0
 17 18  1  0
 19 18  1  1
 19 20  2  0
 19 21  2  0
 23 24  1  0
 24 25  2  0
 25 26  1  0
 26 27  1  0
 27 28  2  0
M  END
