
     RDKit          3D

 28 31  0  0  0  0  0  0  0  0999 V2000
   -1.1630   -0.8080   -2.1590 O   0  0  0  0  0  0  0  0  0  0  0  0
   -0.9740    0.1880   -1.4270 C   0  0  0  0  0  0  0  0  0  0  0  0
    0.3880    0.8010   -1.2250 C   0  0  0  0  0  0  0  0  0  0  0  0
    1.1360   -0.0380    0.1730 S   0  0  0  0  0  0  0  0  0  0  0  0
    2.7500    0.5610    0.5820 C   0  0  0  0  0  0  0  0  0  0  0  0
    3.1030    1.5530    1.4230 N   0  0  0  0  0  0  0  0  0  0  0  0
    4.4200    1.6370    1.4040 N   0  0  0  0  0  0  0  0  0  0  0  0
    4.9130    0.7140    0.5630 C   0  0  0  0  0  0  0  0  0  0  0  0
    6.3220    0.4540    0.2370 C   0  0  0  0  0  0  0  0  0  0  0  0
    7.3330    1.1230    0.7540 C   0  0  0  0  0  0  0  0  0  0  0  0
    8.5690    0.5670    0.1800 C   0  0  0  0  0  0  0  0  0  0  0  0
    8.1220   -0.5040   -0.7290 C   0  0  0  0  0  0  0  0  0  0  0  0
    6.8110   -0.5570   -0.6850 C   0  0  0  0  0  0  0  0  0  0  0  0
    3.8700    0.0890    0.0910 O   0  0  0  0  0  0  0  0  0  0  0  0
   -2.0770    0.7530   -0.7700 N   0  0  0  0  0  0  0  0  0  0  0  0
   -3.4000    0.3050   -0.8520 N   0  0  0  0  0  0  0  0  0  0  0  0
   -4.0610    0.7000   -2.0540 C   0  0  0  0  0  0  0  0  0  0  0  0
   -3.3290    0.6610   -3.1050 O   0  0  0  0  0  0  0  0  0  0  0  0
   -5.4620    1.1460   -2.2480 C   0  0  0  0  0  0  0  0  0  0  0  0
   -6.6620    0.3400   -1.2050 S   0  0  0  0  0  0  0  0  0  0  0  0
   -6.1190   -1.2670   -0.5850 C   0  0  0  0  0  0  0  0  0  0  0  0
   -5.0340   -1.1510    0.4030 C   0  0  0  0  0  0  0  0  0  0  0  0
   -5.2940   -1.8350    1.5690 C   0  0  0  0  0  0  0  0  0  0  0  0
   -4.4080   -1.8590    2.6300 C   0  0  0  0  0  0  0  0  0  0  0  0
   -4.7730   -2.7460    4.1150 Cl  0  0  0  0  0  0  0  0  0  0  0  0
   -3.2270   -1.1620    2.4860 C   0  0  0  0  0  0  0  0  0  0  0  0
   -2.9380   -0.4630    1.3200 C   0  0  0  0  0  0  0  0  0  0  0  0
   -3.8540   -0.4540    0.2560 C   0  0  0  0  0  0  0  0  0  0  0  0
  1  2  2  0
  2  3  1  0
  2 15  1  0
  3  4  1  0
  4  5  1  0
  5  6  2  0
  5 14  1  0
  6  7  1  0
  7  8  2  0
  8  9  1  0
  8 14  1  0
  9 10  2  0
  9 13  1  0
 10 11  1  0
 11 12  1  0
 12 13  2  0
 15 16  1  0
 16 17  1  0
 16 28  1  0
 17 18  2  0
 17 19  1  0
 19 20  1  0
 20 21  1  0
 21 22  1  0
 22 23  2  0
 22 28  1  0
 23 24  1  0
 24 25  1  0
 24 26  2  0
 26 27  1  0
 27 28  2  0
M  END
