
     RDKit          3D

 28 31  0  0  0  0  0  0  0  0999 V2000
   -5.5970   -2.5150   -0.8900 C   0  0  0  0  0  0  0  0  0  0  0  0
   -4.3330   -1.9380   -0.6420 O   0  0  0  0  0  0  0  0  0  0  0  0
   -4.1960   -0.6710   -0.0820 C   0  0  0  0  0  0  0  0  0  0  0  0
   -5.3400    0.0280    0.2330 C   0  0  0  0  0  0  0  0  0  0  0  0
   -5.2910    1.2860    0.7890 C   0  0  0  0  0  0  0  0  0  0  0  0
   -6.5090    2.0640    1.1400 C   0  0  0  0  0  0  0  0  0  0  0  0
   -4.0530    1.8400    1.0280 C   0  0  0  0  0  0  0  0  0  0  0  0
   -3.8700    3.4450    1.7370 Cl  0  0  0  0  0  0  0  0  0  0  0  0
   -2.8970    1.1210    0.7040 C   0  0  0  0  0  0  0  0  0  0  0  0
   -2.9320   -0.1260    0.1530 C   0  0  0  0  0  0  0  0  0  0  0  0
   -1.7980   -0.9570   -0.2210 C   0  0  0  0  0  0  0  0  0  0  0  0
   -0.5080   -0.4140    0.0120 N   0  0  0  0  0  0  0  0  0  0  0  0
    0.6060   -1.2500   -0.3630 C   0  0  0  0  0  0  0  0  0  0  0  0
    0.4330   -2.3790   -0.8620 O   0  0  0  0  0  0  0  0  0  0  0  0
    1.9820   -0.7840   -0.1650 C   0  0  0  0  0  0  0  0  0  0  0  0
    2.3620    0.4310    0.3710 C   0  0  0  0  0  0  0  0  0  0  0  0
    3.7390    0.4550    0.3740 C   0  0  0  0  0  0  0  0  0  0  0  0
    4.6200    1.3540    0.7670 N   0  0  0  0  0  0  0  0  0  0  0  0
    5.9820    1.1910    0.6870 C   0  0  0  0  0  0  0  0  0  0  0  0
    6.4590    0.0540    0.1810 C   0  0  0  0  0  0  0  0  0  0  0  0
    5.5160   -0.9030   -0.2370 C   0  0  0  0  0  0  0  0  0  0  0  0
    6.0880   -2.4500   -0.9220 S   0  0  0  0  0  0  0  0  0  0  0  0
    4.1880   -0.7000   -0.1400 N   0  0  0  0  0  0  0  0  0  0  0  0
    3.1190   -1.4310   -0.4570 N   0  0  0  0  0  0  0  0  0  0  0  0
    7.9150   -0.0710    0.1160 C   0  0  0  0  0  0  0  0  0  0  0  0
    8.6290   -1.0810   -0.0610 O   0  0  0  0  0  0  0  0  0  0  0  0
    8.4830    1.6350    0.3580 S   0  0  0  0  0  0  0  0  0  0  0  0
    6.9480    2.2110    1.1370 C   0  0  0  0  0  0  0  0  0  0  0  0
  1  2  1  0
  2  3  1  0
  3  4  2  0
  3 10  1  0
  4  5  1  0
  5  6  1  0
  5  7  2  0
  7  8  1  0
  7  9  1  0
  9 10  2  0
 10 11  1  0
 11 12  1  0
 12 13  1  0
 13 14  2  0
 13 15  1  0
 15 16  1  0
 15 24  2  0
 16 17  2  0
 17 18  1  0
 17 23  1  0
 18 19  2  0
 19 20  1  0
 19 28  1  0
 20 21  2  0
 20 25  1  0
 21 22  1  0
 21 23  1  0
 23 24  1  0
 25 26  2  0
 25 27  1  0
 27 28  1  0
M  END
