
     RDKit          3D

 28 30  0  0  0  0  0  0  0  0999 V2000
    7.2050    2.8580    0.4150 C   0  0  0  0  0  0  0  0  0  0  0  0
    5.7470    2.6430    0.3600 C   0  0  0  0  0  0  0  0  0  0  0  0
    5.2760    1.4140    0.2240 C   0  0  0  0  0  0  0  0  0  0  0  0
    3.8410    1.1770    0.1670 C   0  0  0  0  0  0  0  0  0  0  0  0
    3.3380   -0.0380    0.0520 C   0  0  0  0  0  0  0  0  0  0  0  0
    1.9240   -0.1580    0.0080 N   0  0  0  0  0  0  0  0  0  0  0  0
    1.1720   -0.5060   -1.1780 C   0  0  0  0  0  0  0  0  0  0  0  0
   -0.2900   -0.5440   -0.8500 C   0  0  0  0  0  0  0  0  0  0  0  0
   -1.1620   -1.2430   -0.4730 N   0  0  0  0  0  0  0  0  0  0  0  0
   -2.4230   -0.9540   -0.2760 C   0  0  0  0  0  0  0  0  0  0  0  0
   -3.4090   -1.9490    0.2040 C   0  0  0  0  0  0  0  0  0  0  0  0
   -3.0740   -3.1430    0.4510 O   0  0  0  0  0  0  0  0  0  0  0  0
   -4.7300   -1.6390    0.4080 O   0  0  0  0  0  0  0  0  0  0  0  0
   -5.7030   -2.5610    0.8650 C   0  0  0  0  0  0  0  0  0  0  0  0
   -2.7880    0.3300   -0.5410 C   0  0  0  0  0  0  0  0  0  0  0  0
   -3.9780    1.0640   -0.4750 N   0  0  0  0  0  0  0  0  0  0  0  0
   -4.8420    1.0750   -1.6190 C   0  0  0  0  0  0  0  0  0  0  0  0
   -6.2350    0.6140   -1.3520 C   0  0  0  0  0  0  0  0  0  0  0  0
   -6.8320    0.9670    0.3070 S   0  0  0  0  0  0  0  0  0  0  0  0
   -5.5040    1.3290    1.4530 C   0  0  0  0  0  0  0  0  0  0  0  0
   -4.2840    1.7890    0.7120 C   0  0  0  0  0  0  0  0  0  0  0  0
   -1.1860    1.0700   -1.0880 S   0  0  0  0  0  0  0  0  0  0  0  0
    4.2350   -1.1710   -0.0300 C   0  0  0  0  0  0  0  0  0  0  0  0
    3.6490   -2.4480   -0.1510 O   0  0  0  0  0  0  0  0  0  0  0  0
    4.4540   -3.5060   -0.6650 C   0  0  0  0  0  0  0  0  0  0  0  0
    5.4800   -0.9840    0.0080 N   0  0  0  0  0  0  0  0  0  0  0  0
    6.1900    0.2610    0.1270 C   0  0  2  0  0  0  0  0  0  0  0  0
    7.0580    0.1810    1.7030 Cl  0  0  0  0  0  0  0  0  0  0  0  0
  1  2  1  0
  2  3  2  3
  3  4  1  0
  3 27  1  0
  4  5  2  0
  5  6  1  0
  5 23  1  0
  6  7  1  0
  7  8  1  0
  8  9  2  0
  8 22  1  0
  9 10  1  0
 10 11  1  0
 10 15  2  0
 11 12  2  0
 11 13  1  0
 13 14  1  0
 15 16  1  0
 15 22  1  0
 16 17  1  0
 16 21  1  0
 17 18  1  0
 18 19  1  0
 19 20  1  0
 20 21  1  0
 23 24  1  0
 23 26  2  0
 24 25  1  0
 26 27  1  0
 27 28  1  1
M  END
