
     RDKit          3D

 32 33  0  0  0  0  0  0  0  0999 V2000
   -1.8750    3.3930   -1.2750 C   0  0  0  0  0  0  0  0  0  0  0  0
   -0.9550    2.2570   -0.9070 C   0  0  0  0  0  0  0  0  0  0  0  0
   -1.7300    1.1560   -0.5020 O   0  0  0  0  0  0  0  0  0  0  0  0
   -2.6630    0.5200   -1.2980 C   0  0  0  0  0  0  0  0  0  0  0  0
   -2.8480    0.9370   -2.4690 O   0  0  0  0  0  0  0  0  0  0  0  0
   -3.3900   -0.6100   -0.7380 C   0  0  0  0  0  0  0  0  0  0  0  0
   -4.3440   -1.3060   -1.4670 C   0  0  0  0  0  0  0  0  0  0  0  0
   -5.0220   -2.3810   -0.9050 C   0  0  0  0  0  0  0  0  0  0  0  0
   -6.0340   -3.1240   -1.6700 C   0  0  0  0  0  0  0  0  0  0  0  0
   -4.7440   -2.7630    0.3960 C   0  0  0  0  0  0  0  0  0  0  0  0
   -3.8090   -2.0910    1.1320 C   0  0  0  0  0  0  0  0  0  0  0  0
   -3.5470   -2.5360    2.5170 C   0  0  0  0  0  0  0  0  0  0  0  0
   -3.1530   -1.0280    0.5430 C   0  0  0  0  0  0  0  0  0  0  0  0
   -2.1810   -0.3490    1.3440 N   0  0  0  0  0  0  0  0  0  0  0  0
   -0.8070   -0.8120    1.3060 C   0  0  0  0  0  0  0  0  0  0  0  0
   -0.5030   -1.7830    0.5850 O   0  0  0  0  0  0  0  0  0  0  0  0
    0.2120   -0.1980    2.0660 N   0  0  0  0  0  0  0  0  0  0  0  0
    1.5820   -0.4970    2.1430 C   0  0  0  0  0  0  0  0  0  0  0  0
    2.4700   -0.3510    0.9720 C   0  0  2  0  0  0  0  0  0  0  0  0
    2.2010   -1.1530   -0.2430 C   0  0  0  0  0  0  0  0  0  0  0  0
    3.8660   -0.7240    1.5150 C   0  0  0  0  0  0  0  0  0  0  0  0
    4.9590   -0.5190    0.5450 C   0  0  0  0  0  0  0  0  0  0  0  0
    4.9670    0.7920   -0.1560 C   0  0  1  0  0  0  0  0  0  0  0  0
    6.1600    1.4310    0.1710 F   0  0  0  0  0  0  0  0  0  0  0  0
    5.0390    0.6250   -1.5460 F   0  0  0  0  0  0  0  0  0  0  0  0
    3.7950    1.6440    0.0990 C   0  0  0  0  0  0  0  0  0  0  0  0
    3.8270    2.9510   -0.0800 C   0  0  0  0  0  0  0  0  0  0  0  0
    5.0030    3.6990   -0.5450 C   0  0  2  0  0  0  0  0  0  0  0  0
    5.6110    3.1050   -1.6590 F   0  0  0  0  0  0  0  0  0  0  0  0
    5.9260    3.9470    0.4590 F   0  0  0  0  0  0  0  0  0  0  0  0
    4.6280    4.9650   -1.0110 F   0  0  0  0  0  0  0  0  0  0  0  0
    2.6040    1.0350    0.5480 N   0  0  0  0  0  0  0  0  0  0  0  0
  1  2  1  0
  2  3  1  0
  3  4  1  0
  4  5  2  0
  4  6  1  0
  6  7  2  0
  6 13  1  0
  7  8  1  0
  8  9  1  0
  8 10  2  0
 10 11  1  0
 11 12  1  0
 11 13  2  0
 13 14  1  0
 14 15  1  0
 15 16  2  0
 15 17  1  0
 17 18  1  0
 18 19  1  0
 19 20  1  6
 19 21  1  0
 19 32  1  0
 21 22  1  0
 22 23  1  0
 23 24  1  1
 23 25  1  0
 23 26  1  0
 26 27  2  3
 26 32  1  0
 27 28  1  0
 28 29  1  6
 28 30  1  0
 28 31  1  0
M  END
