
     RDKit          3D

 33 34  0  0  0  0  0  0  0  0999 V2000
    6.9450   -0.1190   -1.0920 C   0  0  0  0  0  0  0  0  0  0  0  0
    5.7110    0.2220   -0.3510 C   0  0  0  0  0  0  0  0  0  0  0  0
    5.7380    1.3700    0.5770 C   0  0  0  0  0  0  0  0  0  0  0  0
    4.6210   -0.4750   -0.5150 C   0  0  0  0  0  0  0  0  0  0  0  0
    3.3670   -0.1500    0.2200 C   0  0  0  0  0  0  0  0  0  0  0  0
    3.3330    0.7960    1.0130 O   0  0  0  0  0  0  0  0  0  0  0  0
    2.2310   -0.9340   -0.0030 N   0  0  0  0  0  0  0  0  0  0  0  0
    0.9150   -0.7150    0.6640 C   0  0  2  0  0  0  0  0  0  0  0  0
    0.0710   -1.8090    0.1170 C   0  0  0  0  0  0  0  0  0  0  0  0
   -1.2770   -2.0090    0.5530 C   0  0  0  0  0  0  0  0  0  0  0  0
   -1.9490   -1.5130    1.4830 O   0  0  0  0  0  0  0  0  0  0  0  0
   -2.0480   -2.9790   -0.2170 N   0  0  0  0  0  0  0  0  0  0  0  0
   -3.4200   -3.2590    0.1370 C   0  0  0  0  0  0  0  0  0  0  0  0
   -3.9510   -4.2980   -0.8180 C   0  0  1  0  0  0  0  0  0  0  0  0
   -5.3490   -4.7840   -0.6950 C   0  0  0  0  0  0  0  0  0  0  0  0
   -5.0170   -3.8340   -1.8130 C   0  0  0  0  0  0  0  0  0  0  0  0
    0.4340    0.6430    0.3410 C   0  0  0  0  0  0  0  0  0  0  0  0
    1.1960    1.6790    0.4220 O   0  0  0  0  0  0  0  0  0  0  0  0
   -0.8860    0.9830   -0.0940 N   0  0  0  0  0  0  0  0  0  0  0  0
   -1.2250    2.3670   -0.3670 C   0  0  0  0  0  0  0  0  0  0  0  0
   -1.7490    3.1670    0.6230 C   0  0  0  0  0  0  0  0  0  0  0  0
   -1.9490    2.6280    1.8610 F   0  0  0  0  0  0  0  0  0  0  0  0
   -2.0730    4.5040    0.3740 C   0  0  0  0  0  0  0  0  0  0  0  0
   -2.6420    5.3340    1.4680 C   0  0  0  0  0  0  0  0  0  0  0  0
   -1.8750    5.0490   -0.8640 C   0  0  0  0  0  0  0  0  0  0  0  0
   -1.3420    4.2510   -1.8850 C   0  0  0  0  0  0  0  0  0  0  0  0
   -1.1680    4.8270   -3.0810 F   0  0  0  0  0  0  0  0  0  0  0  0
   -1.0300    2.9260   -1.6080 C   0  0  0  0  0  0  0  0  0  0  0  0
   -0.5160    2.1780   -2.6060 F   0  0  0  0  0  0  0  0  0  0  0  0
    1.0490   -0.9450    2.1420 C   0  0  2  0  0  0  0  0  0  0  0  0
    1.4510   -2.2710    2.3970 F   0  0  0  0  0  0  0  0  0  0  0  0
   -0.1260   -0.6900    2.7950 F   0  0  0  0  0  0  0  0  0  0  0  0
    2.0360   -0.1930    2.7590 F   0  0  0  0  0  0  0  0  0  0  0  0
  1  2  1  0
  2  3  1  0
  2  4  2  3
  4  5  1  0
  5  6  2  0
  5  7  1  0
  7  8  1  0
  8  9  1  6
  8 17  1  0
  8 30  1  0
  9 10  1  0
 10 11  2  0
 10 12  1  0
 12 13  1  0
 14 13  1  1
 14 15  1  0
 14 16  1  0
 15 16  1  0
 17 18  2  0
 17 19  1  0
 19 20  1  0
 20 21  2  0
 20 28  1  0
 21 22  1  0
 21 23  1  0
 23 24  1  0
 23 25  2  0
 25 26  1  0
 26 27  1  0
 26 28  2  0
 28 29  1  0
 30 31  1  6
 30 32  1  0
 30 33  1  0
M  END
