
     RDKit          3D

 32 34  0  0  0  0  0  0  0  0999 V2000
   -0.7440    3.2930   -2.5860 C   0  0  0  0  0  0  0  0  0  0  0  0
   -2.0530    2.5840   -2.5100 C   0  0  0  0  0  0  0  0  0  0  0  0
   -2.0340    1.1140   -2.6590 C   0  0  0  0  0  0  0  0  0  0  0  0
   -1.2600    0.3720   -1.7010 N   0  0  0  0  0  0  0  0  0  0  0  0
    0.1920    0.4110   -1.8200 C   0  0  0  0  0  0  0  0  0  0  0  0
    0.9920   -0.2620   -1.0400 C   0  0  0  0  0  0  0  0  0  0  0  0
    2.3980   -0.1420   -1.2540 N   0  0  0  0  0  0  0  0  0  0  0  0
    3.2510    0.3670   -0.2160 C   0  0  0  0  0  0  0  0  0  0  0  0
    2.7080    0.6900    0.8690 O   0  0  0  0  0  0  0  0  0  0  0  0
    4.6500    0.5160   -0.3660 N   0  0  0  0  0  0  0  0  0  0  0  0
    5.4540    1.0440    0.7310 C   0  0  0  0  0  0  0  0  0  0  0  0
    6.8960    1.0900    0.2720 C   0  0  2  0  0  0  0  0  0  0  0  0
    7.3440   -0.2310   -0.2520 C   0  0  0  0  0  0  0  0  0  0  0  0
    8.8190   -0.5190   -0.0120 C   0  0  0  0  0  0  0  0  0  0  0  0
    9.1580   -0.3320    1.4590 C   0  0  0  0  0  0  0  0  0  0  0  0
    8.1440    0.5960    2.1100 C   0  0  0  0  0  0  0  0  0  0  0  0
    7.7240    1.5790    1.2440 O   0  0  0  0  0  0  0  0  0  0  0  0
    0.4100   -1.0830   -0.0170 C   0  0  0  0  0  0  0  0  0  0  0  0
   -0.9120   -1.1860    0.1720 C   0  0  0  0  0  0  0  0  0  0  0  0
   -1.4250   -2.0590    1.2520 C   0  0  1  0  0  0  0  0  0  0  0  0
   -2.0280   -1.2810    2.4060 C   0  0  0  0  0  0  0  0  0  0  0  0
   -2.2730   -3.1940    0.7620 C   0  0  0  0  0  0  0  0  0  0  0  0
   -1.8550   -0.4260   -0.6950 C   0  0  0  0  0  0  0  0  0  0  0  0
   -3.1160   -0.4410   -0.3570 C   0  0  0  0  0  0  0  0  0  0  0  0
   -4.2450    0.3000   -0.8430 C   0  0  0  0  0  0  0  0  0  0  0  0
   -5.4940    0.1190   -0.3640 C   0  0  0  0  0  0  0  0  0  0  0  0
   -6.5940    0.9080   -0.9060 C   0  0  0  0  0  0  0  0  0  0  0  0
   -7.8200    0.7770   -0.4750 C   0  0  0  0  0  0  0  0  0  0  0  0
   -8.1740   -0.1700    0.5810 C   0  0  0  0  0  0  0  0  0  0  0  0
   -7.0590   -0.9540    1.1130 C   0  0  0  0  0  0  0  0  0  0  0  0
   -7.3100   -1.9560    2.2070 C   0  0  0  0  0  0  0  0  0  0  0  0
   -5.8070   -0.8240    0.6770 C   0  0  0  0  0  0  0  0  0  0  0  0
  1  2  1  0
  2  3  1  0
  3  4  1  0
  4  5  1  0
  4 23  1  0
  5  6  2  0
  6  7  1  0
  6 18  1  0
  7  8  1  0
  8  9  2  0
  8 10  1  0
 10 11  1  0
 12 11  1  1
 12 13  1  0
 12 17  1  0
 13 14  1  0
 14 15  1  0
 15 16  1  0
 16 17  1  0
 18 19  2  0
 19 20  1  0
 19 23  1  0
 20 21  1  1
 20 22  1  0
 23 24  2  3
 24 25  1  0
 25 26  2  3
 26 27  1  0
 26 32  1  0
 27 28  2  0
 28 29  1  0
 29 30  1  0
 30 31  1  0
 30 32  2  0
M  END
