
     RDKit          3D

 32 33  0  0  0  0  0  0  0  0999 V2000
    8.0720    1.6900    0.4970 C   0  0  0  0  0  0  0  0  0  0  0  0
    7.3440    0.4520    0.4750 N   0  0  0  0  0  0  0  0  0  0  0  0
    5.9430    0.3870    0.6630 C   0  0  0  0  0  0  0  0  0  0  0  0
    5.2130    1.5550    0.8820 C   0  0  0  0  0  0  0  0  0  0  0  0
    3.8480    1.5570    1.0710 C   0  0  0  0  0  0  0  0  0  0  0  0
    3.1930    0.3470    1.0400 C   0  0  0  0  0  0  0  0  0  0  0  0
    1.7310    0.2380    1.2310 C   0  0  0  0  0  0  0  0  0  0  0  0
    0.9820    0.3300   -0.0580 C   0  0  0  0  0  0  0  0  0  0  0  0
   -0.5160    0.2200    0.1290 C   0  0  0  0  0  0  0  0  0  0  0  0
   -0.8420    0.0700    1.3280 O   0  0  0  0  0  0  0  0  0  0  0  0
   -1.3770    0.2860   -0.9600 N   0  0  0  0  0  0  0  0  0  0  0  0
   -0.8860    0.4620   -2.3470 C   0  0  0  0  0  0  0  0  0  0  0  0
   -1.7020   -0.5920   -3.0670 C   0  0  2  0  0  0  0  0  0  0  0  0
   -2.3110   -0.0200   -4.1990 O   0  0  0  0  0  0  0  0  0  0  0  0
   -2.8580   -0.9570   -2.1260 C   0  0  0  0  0  0  0  0  0  0  0  0
   -2.7710    0.2240   -1.1530 C   0  0  1  0  0  0  0  0  0  0  0  0
   -3.6730    0.1000   -0.0370 C   0  0  0  0  0  0  0  0  0  0  0  0
   -3.3320    0.0440    1.1560 O   0  0  0  0  0  0  0  0  0  0  0  0
   -5.0990    0.0320   -0.2820 N   0  0  0  0  0  0  0  0  0  0  0  0
   -6.0320   -0.0750    0.7670 C   0  0  0  0  0  0  0  0  0  0  0  0
   -6.2490    1.0170    1.6860 C   0  0  0  0  0  0  0  0  0  0  0  0
   -5.6670    2.1870    1.6720 C   0  0  0  0  0  0  0  0  0  0  0  0
   -6.0160    3.0950    2.6480 F   0  0  0  0  0  0  0  0  0  0  0  0
   -4.7600    2.5650    0.7370 F   0  0  0  0  0  0  0  0  0  0  0  0
   -6.7170   -1.1940    0.8980 C   0  0  0  0  0  0  0  0  0  0  0  0
   -6.5680   -2.3580    0.0040 C   0  0  2  0  0  0  0  0  0  0  0  0
   -5.6100   -3.2460    0.4660 F   0  0  0  0  0  0  0  0  0  0  0  0
   -6.2940   -2.0350   -1.2960 F   0  0  0  0  0  0  0  0  0  0  0  0
   -7.7650   -3.0780   -0.0140 F   0  0  0  0  0  0  0  0  0  0  0  0
    3.9070   -0.8130    0.8250 C   0  0  0  0  0  0  0  0  0  0  0  0
    5.2710   -0.8080    0.6360 C   0  0  0  0  0  0  0  0  0  0  0  0
    6.0050   -2.0660    0.4070 C   0  0  0  0  0  0  0  0  0  0  0  0
  1  2  1  0
  2  3  1  0
  3  4  2  0
  3 31  1  0
  4  5  1  0
  5  6  2  0
  6  7  1  0
  6 30  1  0
  7  8  1  0
  8  9  1  0
  9 10  2  0
  9 11  1  0
 11 12  1  0
 11 16  1  0
 12 13  1  0
 13 14  1  6
 13 15  1  0
 15 16  1  0
 16 17  1  1
 17 18  2  0
 17 19  1  0
 19 20  1  0
 20 21  1  0
 20 25  2  3
 21 22  2  3
 22 23  1  0
 22 24  1  0
 25 26  1  0
 26 27  1  1
 26 28  1  0
 26 29  1  0
 30 31  2  0
 31 32  1  0
M  END
