
     RDKit          3D

 32 35  0  0  0  0  0  0  0  0999 V2000
   -5.6650   -3.0340    1.3380 C   0  0  0  0  0  0  0  0  0  0  0  0
   -5.0860   -1.8900    1.5900 C   0  0  0  0  0  0  0  0  0  0  0  0
   -5.7020   -0.9590    2.5630 C   0  0  0  0  0  0  0  0  0  0  0  0
   -5.1480    0.2030    2.8440 C   0  0  0  0  0  0  0  0  0  0  0  0
   -3.9010    0.6440    2.2190 C   0  0  0  0  0  0  0  0  0  0  0  0
   -3.3070   -0.1410    1.3450 C   0  0  0  0  0  0  0  0  0  0  0  0
   -2.0390    0.2600    0.6830 C   0  0  2  0  0  0  0  0  0  0  0  0
   -1.5750    1.6240    1.1570 C   0  0  0  0  0  0  0  0  0  0  0  0
   -0.2840    1.9620    0.4480 C   0  0  0  0  0  0  0  0  0  0  0  0
    0.7090    0.9690    0.7810 N   0  0  0  0  0  0  0  0  0  0  0  0
    2.0470    1.0400    0.2330 C   0  0  0  0  0  0  0  0  0  0  0  0
    2.2580    2.0010   -0.5240 O   0  0  0  0  0  0  0  0  0  0  0  0
    3.0220    0.0890    0.5440 N   0  0  0  0  0  0  0  0  0  0  0  0
    4.3380    0.0920    0.0420 C   0  0  0  0  0  0  0  0  0  0  0  0
    4.8060    0.8790   -0.9610 C   0  0  0  0  0  0  0  0  0  0  0  0
    6.1530    0.7630   -1.3250 C   0  0  0  0  0  0  0  0  0  0  0  0
    7.0150   -0.1130   -0.7060 C   0  0  0  0  0  0  0  0  0  0  0  0
    8.3380   -0.2330   -1.0550 C   0  0  0  0  0  0  0  0  0  0  0  0
    9.1500   -1.1230   -0.4040 C   0  0  0  0  0  0  0  0  0  0  0  0
    8.6780   -1.9200    0.6120 C   0  0  0  0  0  0  0  0  0  0  0  0
    7.3600   -1.8150    0.9760 C   0  0  0  0  0  0  0  0  0  0  0  0
    6.5350   -0.9160    0.3190 C   0  0  0  0  0  0  0  0  0  0  0  0
    5.2270   -0.7940    0.6610 C   0  0  0  0  0  0  0  0  0  0  0  0
   -2.3040    0.3630   -0.7050 O   0  0  0  0  0  0  0  0  0  0  0  0
   -3.2240    1.2270   -1.2720 C   0  0  0  0  0  0  0  0  0  0  0  0
   -2.9090    2.1490   -2.1610 C   0  0  0  0  0  0  0  0  0  0  0  0
   -4.1290    2.8850   -2.5490 C   0  0  0  0  0  0  0  0  0  0  0  0
   -5.1770    2.2430   -1.7500 C   0  0  0  0  0  0  0  0  0  0  0  0
   -4.6470    1.2920   -1.0190 C   0  0  0  0  0  0  0  0  0  0  0  0
   -3.8560   -1.4730    0.9630 C   0  0  0  0  0  0  0  0  0  0  0  0
   -3.2220   -2.1200    0.1420 N   0  0  0  0  0  0  0  0  0  0  0  0
   -3.1850   -3.3030   -0.5680 C   0  0  0  0  0  0  0  0  0  0  0  0
  1  2  2  0
  2  3  1  0
  2 30  1  0
  3  4  2  0
  4  5  1  0
  5  6  2  0
  6  7  1  0
  6 30  1  0
  7  8  1  1
  7 24  1  0
  8  9  1  0
  9 10  1  0
 10 11  1  0
 11 12  2  0
 11 13  1  0
 13 14  1  0
 14 15  2  0
 14 23  1  0
 15 16  1  0
 16 17  2  0
 17 18  1  0
 17 22  1  0
 18 19  2  0
 19 20  1  0
 20 21  2  0
 21 22  1  0
 22 23  2  0
 24 25  1  0
 25 26  2  0
 25 29  1  0
 26 27  1  0
 27 28  1  0
 28 29  2  0
 30 31  2  3
 31 32  1  0
M  END
