
     RDKit          3D

 32 35  0  0  0  0  0  0  0  0999 V2000
    8.2400    0.9460   -2.4990 C   0  0  0  0  0  0  0  0  0  0  0  0
    8.7080    0.0370   -1.7160 C   0  0  0  0  0  0  0  0  0  0  0  0
    8.2650   -0.7170   -0.6140 C   0  0  0  0  0  0  0  0  0  0  0  0
    9.2780   -1.5960   -0.1620 C   0  0  0  0  0  0  0  0  0  0  0  0
    7.1060   -0.8420    0.1590 C   0  0  0  0  0  0  0  0  0  0  0  0
    5.9000   -0.3740    0.2810 C   0  0  0  0  0  0  0  0  0  0  0  0
    5.0270   -0.9150    1.3730 C   0  0  0  0  0  0  0  0  0  0  0  0
    3.7970   -0.4830    1.5500 C   0  0  0  0  0  0  0  0  0  0  0  0
    2.9400   -1.0420    2.6550 C   0  0  0  0  0  0  0  0  0  0  0  0
    3.1930    0.5290    0.7260 C   0  0  0  0  0  0  0  0  0  0  0  0
    1.8570    0.9860    0.9340 N   0  0  0  0  0  0  0  0  0  0  0  0
    0.7890    0.1980    0.3880 C   0  0  0  0  0  0  0  0  0  0  0  0
   -0.5540    0.8420    0.7180 C   0  0  0  0  0  0  0  0  0  0  0  0
   -0.5740    1.9020    1.3740 O   0  0  0  0  0  0  0  0  0  0  0  0
   -1.7430    0.2300    0.2770 N   0  0  0  0  0  0  0  0  0  0  0  0
   -3.0540    0.7080    0.5160 C   0  0  0  0  0  0  0  0  0  0  0  0
   -3.3600    1.5700    1.5590 C   0  0  0  0  0  0  0  0  0  0  0  0
   -4.6710    1.9460    1.8600 C   0  0  0  0  0  0  0  0  0  0  0  0
   -5.6920    1.4410    1.0930 C   0  0  0  0  0  0  0  0  0  0  0  0
   -5.4630    0.5780    0.0360 C   0  0  0  0  0  0  0  0  0  0  0  0
   -4.1250    0.2480   -0.2060 C   0  0  0  0  0  0  0  0  0  0  0  0
   -3.4760   -0.5600   -1.2710 C   0  0  0  0  0  0  0  0  0  0  0  0
   -3.8590   -1.6410   -1.9580 C   0  0  0  0  0  0  0  0  0  0  0  0
   -5.0620   -2.4700   -1.9530 C   0  0  0  0  0  0  0  0  0  0  0  0
   -6.3270   -2.1610   -1.7040 C   0  0  0  0  0  0  0  0  0  0  0  0
   -7.0770   -0.9500   -1.3440 C   0  0  0  0  0  0  0  0  0  0  0  0
   -6.7030    0.1250   -0.6480 C   0  0  0  0  0  0  0  0  0  0  0  0
   -7.9050    0.9800   -0.6470 C   0  0  0  0  0  0  0  0  0  0  0  0
   -8.1440    1.5150    0.7360 C   0  0  0  0  0  0  0  0  0  0  0  0
   -6.9810    1.8340    1.4210 O   0  0  0  0  0  0  0  0  0  0  0  0
    3.9110    1.0390   -0.2470 C   0  0  0  0  0  0  0  0  0  0  0  0
    5.2730    0.6100   -0.4990 N   0  0  0  0  0  0  0  0  0  0  0  0
  1  2  2  0
  2  3  1  0
  3  4  2  0
  3  5  1  0
  5  6  2  3
  6  7  1  0
  6 32  1  0
  7  8  2  0
  8  9  1  0
  8 10  1  0
 10 11  1  0
 10 31  2  0
 11 12  1  0
 12 13  1  0
 13 14  2  0
 13 15  1  0
 15 16  1  0
 16 17  2  0
 16 21  1  0
 17 18  1  0
 18 19  2  0
 19 20  1  0
 19 30  1  0
 20 21  2  0
 20 27  1  0
 21 22  1  0
 22 23  2  0
 23 24  1  0
 24 25  2  0
 25 26  1  0
 26 27  2  0
 27 28  1  0
 28 29  1  0
 29 30  1  0
 31 32  1  0
M  END
