
     RDKit          3D

 46 49  0  0  0  0  0  0  0  0999 V2000
   -0.6360    1.0130   -4.4100 C   0  0  0  0  0  0  0  0  0  0  0  0
   -1.0730   -0.3100   -3.8210 C   0  0  0  0  0  0  0  0  0  0  0  0
   -0.0350   -0.7220   -2.8130 C   0  0  0  0  0  0  0  0  0  0  0  0
    1.1210   -1.3560   -3.2190 N   0  0  0  0  0  0  0  0  0  0  0  0
    1.9150   -1.4860   -2.2110 N   0  0  0  0  0  0  0  0  0  0  0  0
    1.3920   -0.9800   -1.0950 C   0  0  0  0  0  0  0  0  0  0  0  0
    1.9920   -0.9760    0.2290 C   0  0  0  0  0  0  0  0  0  0  0  0
    1.4550   -0.4150    1.2130 O   0  0  0  0  0  0  0  0  0  0  0  0
    3.2440   -1.6320    0.4520 N   0  0  0  0  0  0  0  0  0  0  0  0
    3.9080   -1.6780    1.7280 C   0  0  0  0  0  0  0  0  0  0  0  0
    4.2710   -0.2580    2.2080 C   0  0  1  0  0  0  0  0  0  0  0  0
    4.9340   -0.4280    3.5360 C   0  0  0  0  0  0  0  0  0  0  0  0
    5.7090    0.7360    4.0380 C   0  0  0  0  0  0  0  0  0  0  0  0
    6.2790    1.6410    2.9950 C   0  0  0  0  0  0  0  0  0  0  0  0
    6.4070    0.9780    1.6560 C   0  0  1  0  0  0  0  0  0  0  0  0
    7.5520    0.0010    1.7140 C   0  0  0  0  0  0  0  0  0  0  0  0
    7.8000   -0.7430    0.4420 C   0  0  0  0  0  0  0  0  0  0  0  0
    8.8830   -1.5960    0.6830 O   0  0  0  0  0  0  0  0  0  0  0  0
    5.1210    0.4210    1.1660 C   0  0  0  0  0  0  0  0  0  0  0  0
    0.1080   -0.4790   -1.4840 C   0  0  0  0  0  0  0  0  0  0  0  0
   -0.7840   -0.0110   -0.4480 C   0  0  0  0  0  0  0  0  0  0  0  0
   -1.9920    0.6480   -0.6050 N   0  0  0  0  0  0  0  0  0  0  0  0
   -2.1760    2.0820   -0.5990 C   0  0  0  0  0  0  0  0  0  0  0  0
   -2.2810    2.6910   -1.9250 C   0  0  1  0  0  0  0  0  0  0  0  0
   -3.3380    2.1510   -2.6490 O   0  0  0  0  0  0  0  0  0  0  0  0
   -2.6350    4.1640   -1.8350 C   0  0  0  0  0  0  0  0  0  0  0  0
   -3.0180    4.7590   -3.0140 C   0  0  0  0  0  0  0  0  0  0  0  0
   -3.3760    6.1140   -3.0500 C   0  0  0  0  0  0  0  0  0  0  0  0
   -3.3420    6.8510   -1.8890 C   0  0  0  0  0  0  0  0  0  0  0  0
   -2.9510    6.2130   -0.7230 C   0  0  0  0  0  0  0  0  0  0  0  0
   -2.9250    7.0080    0.5150 C   0  0  0  0  0  0  0  0  0  0  0  0
   -2.5960    4.8720   -0.6810 C   0  0  0  0  0  0  0  0  0  0  0  0
   -3.2320   -0.1070   -0.5900 C   0  0  0  0  0  0  0  0  0  0  0  0
   -4.3350    0.4990   -0.8500 O   0  0  0  0  0  0  0  0  0  0  0  0
   -3.3770   -1.5050   -0.2740 C   0  0  0  0  0  0  0  0  0  0  0  0
   -3.2890   -1.8170    1.1130 C   0  0  0  0  0  0  0  0  0  0  0  0
   -3.4050   -3.0750    1.6140 C   0  0  0  0  0  0  0  0  0  0  0  0
   -3.3080   -3.3820    3.0850 C   0  0  1  0  0  0  0  0  0  0  0  0
   -4.6270   -3.9900    3.5680 C   0  0  0  0  0  0  0  0  0  0  0  0
   -2.2270   -4.3900    3.3530 C   0  0  0  0  0  0  0  0  0  0  0  0
   -3.6200   -4.0910    0.7110 C   0  0  0  0  0  0  0  0  0  0  0  0
   -3.7080   -3.8120   -0.6340 C   0  0  0  0  0  0  0  0  0  0  0  0
   -3.5890   -2.5120   -1.1480 C   0  0  0  0  0  0  0  0  0  0  0  0
   -3.6170   -2.3330   -2.6300 C   0  0  0  0  0  0  0  0  0  0  0  0
   -4.0620   -3.4590   -3.3180 O   0  0  0  0  0  0  0  0  0  0  0  0
   -5.4130   -3.6330   -3.1250 C   0  0  0  0  0  0  0  0  0  0  0  0
  1  2  1  0
  2  3  1  0
  3  4  2  0
  3 20  1  0
  4  5  1  0
  5  6  1  0
  6  7  1  0
  6 20  2  0
  7  8  2  0
  7  9  1  0
  9 10  1  0
 11 10  1  6
 11 12  1  0
 11 19  1  0
 12 13  1  0
 13 14  1  0
 14 15  1  0
 15 16  1  1
 15 19  1  0
 16 17  1  0
 17 18  1  0
 20 21  1  0
 21 22  1  0
 22 23  1  0
 22 33  1  0
 23 24  1  0
 24 25  1  6
 24 26  1  0
 26 27  2  0
 26 32  1  0
 27 28  1  0
 28 29  2  0
 29 30  1  0
 30 31  1  0
 30 32  2  0
 33 34  2  0
 33 35  1  0
 35 36  2  0
 35 43  1  0
 36 37  1  0
 37 38  1  0
 37 41  2  0
 38 39  1  6
 38 40  1  0
 41 42  1  0
 42 43  2  0
 43 44  1  0
 44 45  1  0
 45 46  1  0
M  END
