
     RDKit          3D

 46 49  0  0  0  0  0  0  0  0999 V2000
    6.6690    1.1250   -2.8520 C   0  0  0  0  0  0  0  0  0  0  0  0
    6.2330    0.0020   -3.2970 C   0  0  0  0  0  0  0  0  0  0  0  0
    5.1000   -0.7360   -2.7940 C   0  0  0  0  0  0  0  0  0  0  0  0
    4.7990   -1.9090   -3.4160 C   0  0  0  0  0  0  0  0  0  0  0  0
    4.2140   -0.3430   -1.6750 C   0  0  0  0  0  0  0  0  0  0  0  0
    4.9100   -0.3770   -0.3300 C   0  0  2  0  0  0  0  0  0  0  0  0
    5.3470   -1.7250   -0.1950 O   0  0  0  0  0  0  0  0  0  0  0  0
    3.9080   -0.1310    0.7620 C   0  0  0  0  0  0  0  0  0  0  0  0
    2.6080    0.1180    0.4530 C   0  0  0  0  0  0  0  0  0  0  0  0
    1.6390    0.2870    1.4480 C   0  0  0  0  0  0  0  0  0  0  0  0
    0.2300    0.5560    1.0140 C   0  0  1  0  0  0  0  0  0  0  0  0
   -0.6980    0.8420    2.1250 C   0  0  0  0  0  0  0  0  0  0  0  0
    0.2910    1.7650    0.1090 C   0  0  0  0  0  0  0  0  0  0  0  0
    0.9470    2.8100    0.3350 O   0  0  0  0  0  0  0  0  0  0  0  0
   -0.5000    1.5170   -1.0120 N   0  0  0  0  0  0  0  0  0  0  0  0
   -0.9630    2.3880   -2.0450 C   0  0  0  0  0  0  0  0  0  0  0  0
   -2.3210    3.0640   -1.7320 C   0  0  2  0  0  0  0  0  0  0  0  0
   -3.1710    1.9780   -1.5290 O   0  0  0  0  0  0  0  0  0  0  0  0
   -2.7330    3.6530   -3.0640 C   0  0  0  0  0  0  0  0  0  0  0  0
   -4.0730    4.0260   -3.1160 O   0  0  0  0  0  0  0  0  0  0  0  0
   -2.0900    3.9730   -0.6260 C   0  0  0  0  0  0  0  0  0  0  0  0
   -3.1450    4.8230   -0.0500 C   0  0  2  0  0  0  0  0  0  0  0  0
   -2.4400    5.5930    1.0960 C   0  0  0  0  0  0  0  0  0  0  0  0
   -4.2710    4.0900    0.6320 C   0  0  0  0  0  0  0  0  0  0  0  0
   -3.6760    5.9180   -0.9410 C   0  0  0  0  0  0  0  0  0  0  0  0
   -0.7860    0.1180   -1.0100 C   0  0  0  0  0  0  0  0  0  0  0  0
   -1.4920   -0.4930   -1.8870 O   0  0  0  0  0  0  0  0  0  0  0  0
   -0.1760   -0.4970    0.1030 N   0  0  0  0  0  0  0  0  0  0  0  0
    0.0610   -1.9040    0.1970 C   0  0  0  0  0  0  0  0  0  0  0  0
   -1.1970   -2.7120    0.2990 C   0  0  0  0  0  0  0  0  0  0  0  0
   -2.1430   -2.5770    1.2650 C   0  0  0  0  0  0  0  0  0  0  0  0
   -3.2940   -3.3830    1.2340 C   0  0  0  0  0  0  0  0  0  0  0  0
   -3.4950   -4.3120    0.2480 C   0  0  0  0  0  0  0  0  0  0  0  0
   -4.7050   -5.1520    0.1810 C   0  0  1  0  0  0  0  0  0  0  0  0
   -4.5860   -6.2110   -0.8970 C   0  0  0  0  0  0  0  0  0  0  0  0
   -4.9980   -5.8030    1.5110 C   0  0  0  0  0  0  0  0  0  0  0  0
   -5.8860   -4.2350   -0.1300 C   0  0  0  0  0  0  0  0  0  0  0  0
   -2.5240   -4.4490   -0.7400 C   0  0  0  0  0  0  0  0  0  0  0  0
   -1.4050   -3.6570   -0.7010 C   0  0  0  0  0  0  0  0  0  0  0  0
    1.9990    0.2060    2.7460 C   0  0  0  0  0  0  0  0  0  0  0  0
    3.3260   -0.0450    3.0670 C   0  0  0  0  0  0  0  0  0  0  0  0
    4.3100   -0.2190    2.0840 C   0  0  0  0  0  0  0  0  0  0  0  0
    5.6570   -0.4910    2.3690 N   0  0  0  0  0  0  0  0  0  0  0  0
    6.1840   -0.5300    3.7040 C   0  0  1  0  0  0  0  0  0  0  0  0
    7.5390   -1.0360    3.9470 C   0  0  0  0  0  0  0  0  0  0  0  0
    7.4060    0.3760    3.7620 N   0  0  0  0  0  0  0  0  0  0  0  0
  1  2  2  0
  2  3  1  0
  3  4  2  0
  3  5  1  0
  5  6  1  0
  6  7  1  1
  6  8  1  0
  8  9  2  0
  8 42  1  0
  9 10  1  0
 10 11  1  0
 10 40  2  0
 11 12  1  1
 11 13  1  0
 11 28  1  0
 13 14  2  0
 13 15  1  0
 15 16  1  0
 15 26  1  0
 16 17  1  0
 17 18  1  1
 17 19  1  0
 17 21  1  0
 19 20  1  0
 21 22  1  0
 22 23  1  1
 22 24  1  0
 22 25  1  0
 26 27  2  0
 26 28  1  0
 28 29  1  0
 29 30  1  0
 30 31  2  0
 30 39  1  0
 31 32  1  0
 32 33  2  0
 33 34  1  0
 33 38  1  0
 34 35  1  6
 34 36  1  0
 34 37  1  0
 38 39  2  0
 40 41  1  0
 41 42  2  0
 42 43  1  0
 44 43  1  6
 44 45  1  0
 44 46  1  0
 45 46  1  0
M  END
