
     RDKit          3D

 33 35  0  0  0  0  0  0  0  0999 V2000
    1.3920   -0.7280   -2.8240 O   0  0  0  0  0  0  0  0  0  0  0  0
    0.1670   -0.7810   -2.5430 C   0  0  0  0  0  0  0  0  0  0  0  0
   -0.6640   -0.5770   -3.6610 O   0  0  0  0  0  0  0  0  0  0  0  0
   -0.3860   -1.0170   -1.1830 C   0  0  2  0  0  0  0  0  0  0  0  0
   -1.7690   -1.4830   -1.4080 C   0  0  0  0  0  0  0  0  0  0  0  0
   -2.6580   -1.8530   -0.3430 C   0  0  0  0  0  0  0  0  0  0  0  0
   -3.6750   -1.0260    0.1280 C   0  0  0  0  0  0  0  0  0  0  0  0
   -4.5750   -1.3990    1.1150 C   0  0  0  0  0  0  0  0  0  0  0  0
   -4.4880   -2.6520    1.6900 C   0  0  0  0  0  0  0  0  0  0  0  0
   -3.4950   -3.5010    1.2500 C   0  0  0  0  0  0  0  0  0  0  0  0
   -2.6200   -3.1200    0.2810 C   0  0  0  0  0  0  0  0  0  0  0  0
   -0.1520    0.1890   -0.4210 N   0  0  0  0  0  0  0  0  0  0  0  0
    0.5870    0.0840    0.8370 C   0  0  0  0  0  0  0  0  0  0  0  0
    1.9020   -0.5220    0.7690 C   0  0  0  0  0  0  0  0  0  0  0  0
    2.2070   -1.5670    1.6540 C   0  0  0  0  0  0  0  0  0  0  0  0
    3.4090   -2.2390    1.5920 C   0  0  0  0  0  0  0  0  0  0  0  0
    4.3610   -1.9090    0.6500 C   0  0  0  0  0  0  0  0  0  0  0  0
    4.0880   -0.8960   -0.2350 C   0  0  0  0  0  0  0  0  0  0  0  0
    5.1130   -0.5910   -1.2620 C   0  0  1  0  0  0  0  0  0  0  0  0
    5.7380    0.5850   -0.9300 F   0  0  0  0  0  0  0  0  0  0  0  0
    6.0030   -1.6590   -1.3410 F   0  0  0  0  0  0  0  0  0  0  0  0
    4.4820   -0.4670   -2.5050 F   0  0  0  0  0  0  0  0  0  0  0  0
    2.8850   -0.2560   -0.1370 C   0  0  0  0  0  0  0  0  0  0  0  0
   -0.6040    1.4430   -0.8530 C   0  0  0  0  0  0  0  0  0  0  0  0
   -1.3010    1.4160   -2.0080 O   0  0  0  0  0  0  0  0  0  0  0  0
   -0.5150    2.7650   -0.3350 C   0  0  0  0  0  0  0  0  0  0  0  0
    0.4860    3.6910   -0.6390 C   0  0  0  0  0  0  0  0  0  0  0  0
    0.5380    4.9750   -0.1610 C   0  0  0  0  0  0  0  0  0  0  0  0
   -0.4350    5.4100    0.6710 C   0  0  0  0  0  0  0  0  0  0  0  0
   -0.4290    7.0650    1.2380 Cl  0  0  0  0  0  0  0  0  0  0  0  0
   -1.4460    4.5550    1.0160 C   0  0  0  0  0  0  0  0  0  0  0  0
   -1.4780    3.2630    0.5250 C   0  0  0  0  0  0  0  0  0  0  0  0
   -2.8040    2.2650    1.0380 Cl  0  0  0  0  0  0  0  0  0  0  0  0
  1  2  2  0
  2  3  1  0
  2  4  1  0
  4  5  1  6
  4 12  1  0
  5  6  1  0
  6  7  2  0
  6 11  1  0
  7  8  1  0
  8  9  2  0
  9 10  1  0
 10 11  2  0
 12 13  1  0
 12 24  1  0
 13 14  1  0
 14 15  2  0
 14 23  1  0
 15 16  1  0
 16 17  2  0
 17 18  1  0
 18 19  1  0
 18 23  2  0
 19 20  1  1
 19 21  1  0
 19 22  1  0
 24 25  2  0
 24 26  1  0
 26 27  2  0
 26 32  1  0
 27 28  1  0
 28 29  2  0
 29 30  1  0
 29 31  1  0
 31 32  2  0
 32 33  1  0
M  END
