
     RDKit          3D

 46 49  0  0  0  0  0  0  0  0999 V2000
    6.6240    0.2550   -1.9250 C   0  0  0  0  0  0  0  0  0  0  0  0
    6.4590    0.9710   -0.6160 C   0  0  0  0  0  0  0  0  0  0  0  0
    5.8100    0.1210    0.3990 N   0  0  0  0  0  0  0  0  0  0  0  0
    5.5620    0.7200    1.6490 C   0  0  0  0  0  0  0  0  0  0  0  0
    4.8780    0.0970    2.6670 C   0  0  0  0  0  0  0  0  0  0  0  0
    4.6650    0.7520    3.8800 C   0  0  0  0  0  0  0  0  0  0  0  0
    5.1300    2.0390    4.0980 C   0  0  0  0  0  0  0  0  0  0  0  0
    4.8930    2.7210    5.3740 C   0  0  0  0  0  0  0  0  0  0  0  0
    4.2640    2.1160    6.2710 O   0  0  0  0  0  0  0  0  0  0  0  0
    5.8170    2.6740    3.0870 C   0  0  0  0  0  0  0  0  0  0  0  0
    6.0080    1.9930    1.9010 C   0  0  0  0  0  0  0  0  0  0  0  0
    5.5170   -1.1930    0.0250 C   0  0  0  0  0  0  0  0  0  0  0  0
    6.5100   -2.1620    0.2620 C   0  0  0  0  0  0  0  0  0  0  0  0
    6.3380   -3.4630   -0.1600 C   0  0  0  0  0  0  0  0  0  0  0  0
    5.1980   -3.8420   -0.8190 C   0  0  0  0  0  0  0  0  0  0  0  0
    4.9520   -5.2280   -1.2950 C   0  0  0  0  0  0  0  0  0  0  0  0
    4.2200   -2.8790   -1.0480 C   0  0  0  0  0  0  0  0  0  0  0  0
    4.3780   -1.5490   -0.6230 C   0  0  0  0  0  0  0  0  0  0  0  0
    3.2770   -0.5960   -0.7860 C   0  0  1  0  0  0  0  0  0  0  0  0
    3.6380    0.7360   -0.7640 O   0  0  0  0  0  0  0  0  0  0  0  0
    2.2380   -0.9140   -1.7990 C   0  0  2  0  0  0  0  0  0  0  0  0
    2.6530   -1.0480   -3.2040 C   0  0  0  0  0  0  0  0  0  0  0  0
    1.0230   -0.0130   -1.5690 C   0  0  1  0  0  0  0  0  0  0  0  0
   -0.0200   -0.2720   -2.6320 C   0  0  0  0  0  0  0  0  0  0  0  0
   -1.0770   -1.2310   -2.1470 C   0  0  0  0  0  0  0  0  0  0  0  0
   -1.8470   -0.5580   -1.0630 N   0  0  0  0  0  0  0  0  0  0  0  0
   -3.2230   -0.5190   -1.2060 C   0  0  0  0  0  0  0  0  0  0  0  0
   -3.6750   -1.1040   -2.3210 O   0  0  0  0  0  0  0  0  0  0  0  0
   -4.2760   -0.0100   -0.4500 N   0  0  0  0  0  0  0  0  0  0  0  0
   -5.6600   -0.2480   -0.9520 C   0  0  0  0  0  0  0  0  0  0  0  0
   -6.2360   -1.5400   -0.5500 C   0  0  1  0  0  0  0  0  0  0  0  0
   -6.3530   -1.7840    0.9530 C   0  0  0  0  0  0  0  0  0  0  0  0
   -7.3140   -2.9860    0.8920 C   0  0  0  0  0  0  0  0  0  0  0  0
   -8.1690   -2.7150   -0.2570 N   0  0  0  0  0  0  0  0  0  0  0  0
   -7.7580   -1.4500   -0.8290 C   0  0  0  0  0  0  0  0  0  0  0  0
   -4.1570    0.7990    0.7250 C   0  0  0  0  0  0  0  0  0  0  0  0
   -4.2700    2.2660    0.5830 C   0  0  1  0  0  0  0  0  0  0  0  0
   -5.5090    2.6440   -0.0030 O   0  0  0  0  0  0  0  0  0  0  0  0
   -4.3670    2.8140    2.0380 C   0  0  0  0  0  0  0  0  0  0  0  0
   -5.5410    2.3310    2.7480 C   0  0  0  0  0  0  0  0  0  0  0  0
   -6.4780    1.6860    2.3140 O   0  0  0  0  0  0  0  0  0  0  0  0
   -3.2270    3.0350   -0.1280 C   0  0  2  0  0  0  0  0  0  0  0  0
   -3.6900    4.5210   -0.0710 C   0  0  0  0  0  0  0  0  0  0  0  0
   -3.2120    2.6910   -1.5950 C   0  0  0  0  0  0  0  0  0  0  0  0
   -1.0270   -0.0550   -0.0160 C   0  0  0  0  0  0  0  0  0  0  0  0
    0.4240   -0.3530   -0.2370 C   0  0  0  0  0  0  0  0  0  0  0  0
  1  2  1  0
  2  3  1  0
  3  4  1  0
  3 12  1  0
  4  5  2  0
  4 11  1  0
  5  6  1  0
  6  7  2  0
  7  8  1  0
  7 10  1  0
  8  9  2  0
 10 11  2  0
 12 13  2  0
 12 18  1  0
 13 14  1  0
 14 15  2  0
 15 16  1  0
 15 17  1  0
 17 18  2  0
 18 19  1  0
 19 20  1  6
 19 21  1  0
 21 22  1  6
 21 23  1  0
 23 24  1  6
 23 46  1  0
 24 25  1  0
 25 26  1  0
 26 27  1  0
 26 45  1  0
 27 28  2  0
 27 29  1  0
 29 30  1  0
 29 36  1  0
 31 30  1  1
 31 32  1  0
 31 35  1  0
 32 33  1  0
 33 34  1  0
 34 35  1  0
 36 37  1  0
 37 38  1  6
 37 39  1  0
 37 42  1  0
 39 40  1  0
 40 41  2  0
 42 43  1  6
 42 44  1  0
 45 46  1  0
M  END
