
     RDKit          3D

 35 39  0  0  0  0  0  0  0  0999 V2000
   10.5870    0.8390    1.0700 C   0  0  0  0  0  0  0  0  0  0  0  0
   11.0550    0.8250   -0.3480 C   0  0  0  0  0  0  0  0  0  0  0  0
   10.1220    1.6220   -1.2240 C   0  0  0  0  0  0  0  0  0  0  0  0
    8.7380    1.0680   -1.1950 C   0  0  0  0  0  0  0  0  0  0  0  0
    8.1930    0.1070   -2.0210 C   0  0  0  0  0  0  0  0  0  0  0  0
    6.9080   -0.0970   -1.6440 N   0  0  0  0  0  0  0  0  0  0  0  0
    6.6120    0.6840   -0.6220 N   0  0  0  0  0  0  0  0  0  0  0  0
    5.3670    0.7640    0.0580 C   0  0  0  0  0  0  0  0  0  0  0  0
    5.2620    1.5640    1.0100 O   0  0  0  0  0  0  0  0  0  0  0  0
    4.2550   -0.0320   -0.3140 N   0  0  0  0  0  0  0  0  0  0  0  0
    2.9770   -0.0380    0.2850 C   0  0  0  0  0  0  0  0  0  0  0  0
    2.5550    0.7450    1.3210 C   0  0  0  0  0  0  0  0  0  0  0  0
    1.2760    0.6660    1.8460 C   0  0  0  0  0  0  0  0  0  0  0  0
    0.3550   -0.2450    1.3130 C   0  0  0  0  0  0  0  0  0  0  0  0
    0.7390   -1.0330    0.2900 C   0  0  0  0  0  0  0  0  0  0  0  0
    2.0520   -0.9270   -0.2220 C   0  0  0  0  0  0  0  0  0  0  0  0
   -0.1740   -2.0340   -0.3400 C   0  0  0  0  0  0  0  0  0  0  0  0
   -1.5420   -1.6750    0.1450 N   0  0  0  0  0  0  0  0  0  0  0  0
   -2.5280   -1.5290   -0.8010 C   0  0  0  0  0  0  0  0  0  0  0  0
   -2.1810   -1.8010   -2.0240 O   0  0  0  0  0  0  0  0  0  0  0  0
   -3.8970   -1.1160   -0.6280 C   0  0  0  0  0  0  0  0  0  0  0  0
   -4.8080   -1.2990   -1.6880 C   0  0  0  0  0  0  0  0  0  0  0  0
   -6.1130   -0.8910   -1.6470 C   0  0  0  0  0  0  0  0  0  0  0  0
   -7.0090   -1.1300   -2.8260 C   0  0  0  0  0  0  0  0  0  0  0  0
   -6.5990   -0.2660   -0.5290 C   0  0  0  0  0  0  0  0  0  0  0  0
   -5.7400   -0.0690    0.5250 C   0  0  0  0  0  0  0  0  0  0  0  0
   -4.4040   -0.4850    0.4840 C   0  0  0  0  0  0  0  0  0  0  0  0
   -6.5330    0.6220    1.5830 C   0  0  0  0  0  0  0  0  0  0  0  0
   -7.7740    1.0170    0.9900 N   0  0  0  0  0  0  0  0  0  0  0  0
   -8.8690    0.6210    1.8860 C   0  0  0  0  0  0  0  0  0  0  0  0
   -7.9420    0.2680   -0.2220 C   0  0  1  0  0  0  0  0  0  0  0  0
   -8.3680    1.1850   -1.3330 C   0  0  0  0  0  0  0  0  0  0  0  0
   -1.6330   -1.5790    1.5980 C   0  0  0  0  0  0  0  0  0  0  0  0
   -0.9760   -0.2630    1.9280 C   0  0  0  0  0  0  0  0  0  0  0  0
    7.6990    1.4070   -0.3210 C   0  0  0  0  0  0  0  0  0  0  0  0
  1  2  1  0
  2  3  1  0
  3  4  1  0
  4  5  1  0
  4 35  2  0
  5  6  2  0
  6  7  1  0
  7  8  1  0
  7 35  1  0
  8  9  2  0
  8 10  1  0
 10 11  1  0
 11 12  2  0
 11 16  1  0
 12 13  1  0
 13 14  2  0
 14 15  1  0
 14 34  1  0
 15 16  2  0
 15 17  1  0
 17 18  1  0
 18 19  1  0
 18 33  1  0
 19 20  2  0
 19 21  1  0
 21 22  2  0
 21 27  1  0
 22 23  1  0
 23 24  1  0
 23 25  2  0
 25 26  1  0
 25 31  1  0
 26 27  2  0
 26 28  1  0
 28 29  1  0
 29 30  1  0
 29 31  1  0
 31 32  1  6
 33 34  1  0
M  END
