
     RDKit          3D

 35 39  0  0  0  0  0  0  0  0999 V2000
    0.5760    5.9160   -1.4310 C   0  0  0  0  0  0  0  0  0  0  0  0
   -0.5760    5.1120   -0.9040 C   0  0  0  0  0  0  0  0  0  0  0  0
   -1.6850    5.7460   -0.4650 C   0  0  0  0  0  0  0  0  0  0  0  0
   -2.7440    5.0150    0.0190 C   0  0  0  0  0  0  0  0  0  0  0  0
   -2.6440    3.6540    0.0450 C   0  0  0  0  0  0  0  0  0  0  0  0
   -1.5160    2.9410   -0.3970 C   0  0  0  0  0  0  0  0  0  0  0  0
   -1.5580    1.5040   -0.4110 C   0  0  0  0  0  0  0  0  0  0  0  0
   -2.7130    0.8580   -0.4050 N   0  0  0  0  0  0  0  0  0  0  0  0
   -2.5820   -0.4830   -0.4170 N   0  0  0  0  0  0  0  0  0  0  0  0
   -3.6250   -1.4620   -0.4200 C   0  0  0  0  0  0  0  0  0  0  0  0
   -3.8110   -2.3730   -1.4110 C   0  0  0  0  0  0  0  0  0  0  0  0
   -4.8420   -3.3080   -1.3670 C   0  0  0  0  0  0  0  0  0  0  0  0
   -5.6900   -3.2860   -0.2630 C   0  0  0  0  0  0  0  0  0  0  0  0
   -5.5200   -2.3810    0.7400 C   0  0  0  0  0  0  0  0  0  0  0  0
   -6.4380   -2.3840    1.8980 C   0  0  0  0  0  0  0  0  0  0  0  0
   -4.4950   -1.4820    0.6560 C   0  0  0  0  0  0  0  0  0  0  0  0
   -1.1480   -0.7590   -0.4260 C   0  0  0  0  0  0  0  0  0  0  0  0
   -0.7440   -1.9260   -0.4370 O   0  0  0  0  0  0  0  0  0  0  0  0
   -0.4630    0.5050   -0.4180 C   0  0  0  0  0  0  0  0  0  0  0  0
    0.7950    0.7620   -0.2660 C   0  0  0  0  0  0  0  0  0  0  0  0
    1.9860    0.0380   -0.2470 N   0  0  0  0  0  0  0  0  0  0  0  0
    2.0250   -1.3550   -0.6050 C   0  0  0  0  0  0  0  0  0  0  0  0
    3.4020   -1.8300   -1.0840 C   0  0  0  0  0  0  0  0  0  0  0  0
    4.3790   -1.9690   -0.0020 C   0  0  0  0  0  0  0  0  0  0  0  0
    4.9250   -3.2110    0.1980 C   0  0  0  0  0  0  0  0  0  0  0  0
    5.8670   -3.3850    1.2200 C   0  0  0  0  0  0  0  0  0  0  0  0
    6.4030   -4.7260    1.3690 C   0  0  0  0  0  0  0  0  0  0  0  0
    6.8280   -5.7770    1.5010 N   0  0  0  0  0  0  0  0  0  0  0  0
    6.2800   -2.3670    2.0440 C   0  0  0  0  0  0  0  0  0  0  0  0
    5.7320   -1.1200    1.8440 C   0  0  0  0  0  0  0  0  0  0  0  0
    4.8040   -0.9350    0.8420 C   0  0  0  0  0  0  0  0  0  0  0  0
    4.3340    0.4080    0.7780 N   0  0  0  0  0  0  0  0  0  0  0  0
    3.1410    0.8700    0.1110 C   0  0  0  0  0  0  0  0  0  0  0  0
    3.1010    2.0730   -0.1780 O   0  0  0  0  0  0  0  0  0  0  0  0
   -0.5010    3.7060   -0.8670 C   0  0  0  0  0  0  0  0  0  0  0  0
  1  2  1  0
  2  3  2  0
  2 35  1  0
  3  4  1  0
  4  5  2  0
  5  6  1  0
  6  7  1  0
  6 35  2  0
  7  8  2  0
  7 19  1  0
  8  9  1  0
  9 10  1  0
  9 17  1  0
 10 11  2  0
 10 16  1  0
 11 12  1  0
 12 13  2  0
 13 14  1  0
 14 15  1  0
 14 16  2  0
 17 18  2  0
 17 19  1  0
 19 20  2  3
 20 21  1  0
 21 22  1  0
 21 33  1  0
 22 23  1  0
 23 24  1  0
 24 25  2  0
 24 31  1  0
 25 26  1  0
 26 27  1  0
 26 29  2  0
 27 28  3  0
 29 30  1  0
 30 31  2  0
 31 32  1  0
 32 33  1  0
 33 34  2  0
M  END
