
     RDKit          3D

 35 39  0  0  0  0  0  0  0  0999 V2000
   -5.9500   -2.5830    0.5280 C   0  0  0  0  0  0  0  0  0  0  0  0
   -6.7830   -1.5610   -0.2010 C   0  0  2  0  0  0  0  0  0  0  0  0
   -7.7510   -0.9210    0.7700 C   0  0  0  0  0  0  0  0  0  0  0  0
   -7.5140   -2.1950   -1.3290 C   0  0  0  0  0  0  0  0  0  0  0  0
   -5.8180   -0.4980   -0.7540 C   0  0  0  0  0  0  0  0  0  0  0  0
   -5.0870    0.1300    0.3590 C   0  0  0  0  0  0  0  0  0  0  0  0
   -4.1830    1.2100    0.0440 C   0  0  0  0  0  0  0  0  0  0  0  0
   -4.6200    2.5170   -0.0950 C   0  0  0  0  0  0  0  0  0  0  0  0
   -6.0940    2.7790   -0.0990 C   0  0  1  0  0  0  0  0  0  0  0  0
   -6.6390    4.1220    0.3170 C   0  0  0  0  0  0  0  0  0  0  0  0
   -6.4110    3.9140   -1.1390 C   0  0  0  0  0  0  0  0  0  0  0  0
   -3.7510    3.5420   -0.2750 N   0  0  0  0  0  0  0  0  0  0  0  0
   -2.4340    3.3530   -0.3320 C   0  0  0  0  0  0  0  0  0  0  0  0
   -1.9800    2.0580   -0.1990 C   0  0  0  0  0  0  0  0  0  0  0  0
   -0.6830    1.5220   -0.2170 C   0  0  0  0  0  0  0  0  0  0  0  0
   -0.7480    0.1610   -0.0500 C   0  0  0  0  0  0  0  0  0  0  0  0
    0.3060   -0.8150   -0.0830 C   0  0  0  0  0  0  0  0  0  0  0  0
   -0.1300   -2.0680   -0.0810 O   0  0  0  0  0  0  0  0  0  0  0  0
    1.6930   -0.7450   -0.1210 N   0  0  0  0  0  0  0  0  0  0  0  0
    2.4680   -2.0180   -0.2680 C   0  0  0  0  0  0  0  0  0  0  0  0
    3.5210   -2.1730    0.7080 C   0  0  0  0  0  0  0  0  0  0  0  0
    4.3040   -0.9920    1.1550 C   0  0  1  0  0  0  0  0  0  0  0  0
    5.4870   -0.7850    0.2690 C   0  0  0  0  0  0  0  0  0  0  0  0
    6.7730   -0.7250    0.6570 N   0  0  0  0  0  0  0  0  0  0  0  0
    7.5890   -0.5280   -0.4130 C   0  0  0  0  0  0  0  0  0  0  0  0
    9.0650   -0.3970   -0.4490 C   0  0  2  0  0  0  0  0  0  0  0  0
    9.6800   -0.6280    0.9330 C   0  0  0  0  0  0  0  0  0  0  0  0
    9.4040    1.0270   -0.8620 C   0  0  0  0  0  0  0  0  0  0  0  0
    9.7240   -1.3130   -1.4300 C   0  0  0  0  0  0  0  0  0  0  0  0
    6.7250   -0.4750   -1.4500 N   0  0  0  0  0  0  0  0  0  0  0  0
    5.5020   -0.6260   -1.0310 O   0  0  0  0  0  0  0  0  0  0  0  0
    3.4720    0.2570    1.2210 C   0  0  0  0  0  0  0  0  0  0  0  0
    2.5680    0.3920    0.0020 C   0  0  0  0  0  0  0  0  0  0  0  0
   -2.0890   -0.1440    0.0720 N   0  0  0  0  0  0  0  0  0  0  0  0
   -2.7940    0.9790   -0.0150 C   0  0  0  0  0  0  0  0  0  0  0  0
  2  1  1  1
  2  3  1  0
  2  4  1  0
  2  5  1  0
  5  6  1  0
  6  7  1  0
  7  8  2  0
  7 35  1  0
  9  8  1  1
  8 12  1  0
  9 10  1  0
  9 11  1  0
 10 11  1  0
 12 13  2  0
 13 14  1  0
 14 15  1  0
 14 35  2  0
 15 16  2  0
 16 17  1  0
 16 34  1  0
 17 18  2  0
 17 19  1  0
 19 20  1  0
 19 33  1  0
 20 21  1  0
 21 22  1  0
 22 23  1  6
 22 32  1  0
 23 24  2  0
 23 31  1  0
 24 25  1  0
 25 26  1  0
 25 30  2  0
 26 27  1  1
 26 28  1  0
 26 29  1  0
 30 31  1  0
 32 33  1  0
 34 35  1  0
M  END
