
     RDKit          3D

 34 36  0  0  0  0  0  0  0  0999 V2000
   -1.6640    2.9280    2.2700 C   0  0  0  0  0  0  0  0  0  0  0  0
   -1.7490    2.9200    0.7890 C   0  0  0  0  0  0  0  0  0  0  0  0
   -2.5440    1.8520    0.1700 C   0  0  0  0  0  0  0  0  0  0  0  0
   -2.0640    0.4540    0.1860 C   0  0  2  0  0  0  0  0  0  0  0  0
   -1.8820   -0.2110    1.5110 C   0  0  0  0  0  0  0  0  0  0  0  0
   -2.3150   -1.6060    1.3710 O   0  0  0  0  0  0  0  0  0  0  0  0
   -3.7700   -1.7160    1.1100 C   0  0  0  0  0  0  0  0  0  0  0  0
   -4.1020   -3.2820    1.4200 C   0  0  2  0  0  0  0  0  0  0  0  0
   -3.0200   -3.9920    1.2630 F   0  0  0  0  0  0  0  0  0  0  0  0
   -4.8690   -3.5260    0.1500 F   0  0  0  0  0  0  0  0  0  0  0  0
   -4.9510   -3.3530    2.3910 F   0  0  0  0  0  0  0  0  0  0  0  0
   -4.6190   -1.0700    0.7460 C   0  0  0  0  0  0  0  0  0  0  0  0
   -5.6270   -0.0240    0.2260 C   0  0  0  0  0  0  0  0  0  0  0  0
   -6.3040    0.6220    1.2590 F   0  0  0  0  0  0  0  0  0  0  0  0
   -5.7100    0.4850   -0.9050 C   0  0  0  0  0  0  0  0  0  0  0  0
   -4.4870    0.0900   -1.9440 C   0  0  0  0  0  0  0  0  0  0  0  0
   -3.8340   -0.1080   -2.4840 C   0  0  0  0  0  0  0  0  0  0  0  0
   -2.7840   -0.4450   -3.3500 C   0  0  0  0  0  0  0  0  0  0  0  0
   -1.5890    0.5420   -3.1750 C   0  0  0  0  0  0  0  0  0  0  0  0
   -0.7450    0.3490   -2.0170 N   0  0  0  0  0  0  0  0  0  0  0  0
    0.5890    0.1960   -2.1740 N   0  0  0  0  0  0  0  0  0  0  0  0
    1.3080    0.0750   -1.1930 C   0  0  0  0  0  0  0  0  0  0  0  0
    2.7000   -0.0080   -0.8880 C   0  0  0  0  0  0  0  0  0  0  0  0
    2.8200   -0.6530    0.3730 O   0  0  0  0  0  0  0  0  0  0  0  0
    3.8590    0.3240   -1.4510 N   0  0  0  0  0  0  0  0  0  0  0  0
    5.1330    0.1150   -0.8080 C   0  0  0  0  0  0  0  0  0  0  0  0
    6.3550    0.4840   -1.3860 N   0  0  0  0  0  0  0  0  0  0  0  0
    7.3230    0.2100   -0.5670 N   0  0  0  0  0  0  0  0  0  0  0  0
    6.7200   -0.3880    0.6530 C   0  0  0  0  0  0  0  0  0  0  0  0
    7.5530   -0.7600    1.7770 C   0  0  0  0  0  0  0  0  0  0  0  0
    8.1210   -2.1710    1.5000 C   0  0  0  0  0  0  0  0  0  0  0  0
    5.4880   -0.3410    0.3010 N   0  0  0  0  0  0  0  0  0  0  0  0
    0.3370    0.1210   -0.0610 N   0  0  0  0  0  0  0  0  0  0  0  0
   -0.8670    0.3150   -0.7520 C   0  0  0  0  0  0  0  0  0  0  0  0
  1  2  1  0
  2  3  1  0
  4  3  1  1
  4  5  1  0
  4 34  1  0
  5  6  1  0
  6  7  1  0
  7  8  1  0
  7 12  2  0
  8  9  1  1
  8 10  1  0
  8 11  1  0
 12 13  1  0
 13 14  1  0
 13 15  2  0
 15 16  1  0
 16 17  3  0
 17 18  1  0
 18 19  1  0
 19 20  1  0
 20 21  1  0
 20 34  1  0
 21 22  2  0
 22 23  1  0
 22 33  1  0
 23 24  2  0
 23 25  1  0
 25 26  1  0
 26 27  2  0
 26 32  1  0
 27 28  1  0
 28 29  1  0
 29 30  1  0
 29 32  2  0
 30 31  1  0
 33 34  2  0
M  END
