
     RDKit          3D

 34 37  0  0  0  0  0  0  0  0999 V2000
   -0.9970   -3.9320    1.4530 C   0  0  0  0  0  0  0  0  0  0  0  0
   -2.3150   -3.3850    1.0410 C   0  0  0  0  0  0  0  0  0  0  0  0
   -2.5590   -3.2930   -0.4080 C   0  0  0  0  0  0  0  0  0  0  0  0
   -1.6790   -2.4330   -1.2280 C   0  0  0  0  0  0  0  0  0  0  0  0
   -1.6900   -1.0360   -0.8860 N   0  0  0  0  0  0  0  0  0  0  0  0
   -2.6070   -0.2100   -1.4420 C   0  0  0  0  0  0  0  0  0  0  0  0
   -3.4530   -0.7140   -2.2520 O   0  0  0  0  0  0  0  0  0  0  0  0
   -2.6430    1.1020   -1.1650 N   0  0  0  0  0  0  0  0  0  0  0  0
   -3.6140    1.9550   -1.7580 C   0  0  0  0  0  0  0  0  0  0  0  0
   -4.8650    2.0680   -0.9690 C   0  0  0  0  0  0  0  0  0  0  0  0
   -5.8580    2.8820   -1.4880 C   0  0  0  0  0  0  0  0  0  0  0  0
   -7.0610    3.0520   -0.8250 C   0  0  0  0  0  0  0  0  0  0  0  0
   -7.2720    2.4020    0.3650 C   0  0  0  0  0  0  0  0  0  0  0  0
   -6.2710    1.5900    0.8720 C   0  0  0  0  0  0  0  0  0  0  0  0
   -5.0700    1.4150    0.2210 C   0  0  0  0  0  0  0  0  0  0  0  0
   -4.1170    0.6290    0.7250 F   0  0  0  0  0  0  0  0  0  0  0  0
   -1.7410    1.6030   -0.3100 C   0  0  0  0  0  0  0  0  0  0  0  0
   -1.7210    2.8400   -0.0030 O   0  0  0  0  0  0  0  0  0  0  0  0
   -0.7720    0.8200    0.2990 C   0  0  0  0  0  0  0  0  0  0  0  0
    0.2260    1.0320    1.1560 N   0  0  0  0  0  0  0  0  0  0  0  0
    0.8610   -0.1180    1.4010 C   0  0  0  0  0  0  0  0  0  0  0  0
    2.0110   -0.3470    2.2790 C   0  0  0  0  0  0  0  0  0  0  0  0
    3.3080   -0.1740    1.5310 C   0  0  0  0  0  0  0  0  0  0  0  0
    3.9380    1.0420    1.4600 C   0  0  0  0  0  0  0  0  0  0  0  0
    5.1480    1.1930    0.7590 C   0  0  0  0  0  0  0  0  0  0  0  0
    5.7550    0.1530    0.1200 C   0  0  0  0  0  0  0  0  0  0  0  0
    6.9480    0.2080   -0.6070 N   0  0  0  0  0  0  0  0  0  0  0  0
    7.6370    1.3940   -0.9200 C   0  0  0  0  0  0  0  0  0  0  0  0
    8.9180    1.3740   -1.7030 C   0  0  0  0  0  0  0  0  0  0  0  0
    7.2400    2.5300   -0.5750 O   0  0  0  0  0  0  0  0  0  0  0  0
    5.0910   -1.0790    0.2080 C   0  0  0  0  0  0  0  0  0  0  0  0
    3.9060   -1.2350    0.8920 C   0  0  0  0  0  0  0  0  0  0  0  0
    0.2330   -1.0510    0.6730 N   0  0  0  0  0  0  0  0  0  0  0  0
   -0.7880   -0.5390   -0.0330 C   0  0  0  0  0  0  0  0  0  0  0  0
  1  2  1  0
  2  3  1  0
  3  4  1  0
  4  5  1  0
  5  6  1  0
  5 34  1  0
  6  7  2  0
  6  8  1  0
  8  9  1  0
  8 17  1  0
  9 10  1  0
 10 11  2  0
 10 15  1  0
 11 12  1  0
 12 13  2  0
 13 14  1  0
 14 15  2  0
 15 16  1  0
 17 18  2  0
 17 19  1  0
 19 20  1  0
 19 34  2  0
 20 21  1  0
 21 22  1  0
 21 33  2  0
 22 23  1  0
 23 24  2  0
 23 32  1  0
 24 25  1  0
 25 26  2  0
 26 27  1  0
 26 31  1  0
 27 28  1  0
 28 29  1  0
 28 30  2  0
 31 32  2  0
 33 34  1  0
M  END
