
     RDKit          3D

 35 39  0  0  0  0  0  0  0  0999 V2000
   -7.8470    5.0260    2.5180 N   0  0  0  0  0  0  0  0  0  0  0  0
   -7.6800    4.0310    1.9150 C   0  0  0  0  0  0  0  0  0  0  0  0
   -7.4990    2.8160    1.1670 C   0  0  0  0  0  0  0  0  0  0  0  0
   -8.5700    2.2690    0.4950 C   0  0  0  0  0  0  0  0  0  0  0  0
   -8.3500    1.0980   -0.2000 C   0  0  0  0  0  0  0  0  0  0  0  0
   -7.1060    0.4850   -0.2300 C   0  0  0  0  0  0  0  0  0  0  0  0
   -6.9160   -0.7430   -0.9640 C   0  0  0  0  0  0  0  0  0  0  0  0
   -6.7810   -1.7270   -1.5650 N   0  0  0  0  0  0  0  0  0  0  0  0
   -6.0350    1.0280    0.4390 C   0  0  0  0  0  0  0  0  0  0  0  0
   -4.7190    0.4040    0.4260 C   0  0  0  0  0  0  0  0  0  0  0  0
   -4.5090   -0.9340    0.6590 C   0  0  0  0  0  0  0  0  0  0  0  0
   -3.2360   -1.4640    0.6370 C   0  0  0  0  0  0  0  0  0  0  0  0
   -2.1160   -0.6810    0.3800 C   0  0  0  0  0  0  0  0  0  0  0  0
   -0.8170   -1.2380    0.3830 N   0  0  0  0  0  0  0  0  0  0  0  0
   -0.2910   -1.5980    1.6870 C   0  0  0  0  0  0  0  0  0  0  0  0
    1.1900   -1.7970    1.6400 C   0  0  0  0  0  0  0  0  0  0  0  0
    1.9170   -0.5810    1.0990 C   0  0  0  0  0  0  0  0  0  0  0  0
    2.1240   -0.7540   -0.3040 N   0  0  0  0  0  0  0  0  0  0  0  0
    3.2480   -0.0890   -0.8760 C   0  0  0  0  0  0  0  0  0  0  0  0
    4.5210   -0.6180   -0.4720 C   0  0  0  0  0  0  0  0  0  0  0  0
    4.6520   -1.7140    0.3430 C   0  0  0  0  0  0  0  0  0  0  0  0
    5.9070   -2.2250    0.7130 C   0  0  0  0  0  0  0  0  0  0  0  0
    7.0600   -1.6260    0.2570 C   0  0  0  0  0  0  0  0  0  0  0  0
    6.9620   -0.5320   -0.5590 C   0  0  0  0  0  0  0  0  0  0  0  0
    5.7320   -0.0500   -0.9080 C   0  0  0  0  0  0  0  0  0  0  0  0
    5.6160    1.0690   -1.7660 N   0  0  0  0  0  0  0  0  0  0  0  0
    6.8160    1.6890   -2.2640 C   0  0  0  0  0  0  0  0  0  0  0  0
    6.6970    2.4760   -3.2130 O   0  0  0  0  0  0  0  0  0  0  0  0
    8.1250    1.3650   -1.6340 C   0  0  0  0  0  0  0  0  0  0  0  0
    8.1110    0.0940   -1.0370 O   0  0  0  0  0  0  0  0  0  0  0  0
    0.9170   -0.4110   -1.0550 C   0  0  0  0  0  0  0  0  0  0  0  0
   -0.1910   -1.4000   -0.8940 C   0  0  0  0  0  0  0  0  0  0  0  0
   -2.3260    0.6580    0.1460 C   0  0  0  0  0  0  0  0  0  0  0  0
   -3.6190    1.1800    0.1720 C   0  0  0  0  0  0  0  0  0  0  0  0
   -6.2700    2.2050    1.1330 C   0  0  0  0  0  0  0  0  0  0  0  0
  1  2  3  0
  2  3  1  0
  3  4  2  0
  3 35  1  0
  4  5  1  0
  5  6  2  0
  6  7  1  0
  6  9  1  0
  7  8  3  0
  9 10  1  0
  9 35  2  0
 10 11  2  0
 10 34  1  0
 11 12  1  0
 12 13  2  0
 13 14  1  0
 13 33  1  0
 14 15  1  0
 14 32  1  0
 15 16  1  0
 16 17  1  0
 17 18  1  0
 18 19  1  0
 18 31  1  0
 19 20  1  0
 20 21  2  0
 20 25  1  0
 21 22  1  0
 22 23  2  0
 23 24  1  0
 24 25  2  0
 24 30  1  0
 25 26  1  0
 26 27  1  0
 27 28  2  0
 27 29  1  0
 29 30  1  0
 31 32  1  0
 33 34  2  0
M  END
