
     RDKit          3D

 35 39  0  0  0  0  0  0  0  0999 V2000
    7.0300   -1.9460   -0.6520 C   0  0  0  0  0  0  0  0  0  0  0  0
    5.6130   -1.6130   -0.4540 C   0  0  0  0  0  0  0  0  0  0  0  0
    4.6580   -2.5770   -0.2650 C   0  0  0  0  0  0  0  0  0  0  0  0
    3.3180   -2.2580   -0.0770 C   0  0  0  0  0  0  0  0  0  0  0  0
    2.8920   -0.9540   -0.0730 C   0  0  0  0  0  0  0  0  0  0  0  0
    1.5520   -0.5530    0.1090 N   0  0  0  0  0  0  0  0  0  0  0  0
    0.4400   -1.4110    0.3480 C   0  0  0  0  0  0  0  0  0  0  0  0
    0.6400   -2.6330    0.4080 O   0  0  0  0  0  0  0  0  0  0  0  0
   -0.8910   -0.8140    0.5140 C   0  0  0  0  0  0  0  0  0  0  0  0
   -1.1840    0.5060    0.3790 N   0  0  0  0  0  0  0  0  0  0  0  0
   -2.4620    0.7360    0.5790 N   0  0  0  0  0  0  0  0  0  0  0  0
   -3.1790    1.9640    0.5350 C   0  0  0  0  0  0  0  0  0  0  0  0
   -3.1520    2.8210    1.6290 C   0  0  0  0  0  0  0  0  0  0  0  0
   -3.8470    4.0240    1.5970 C   0  0  0  0  0  0  0  0  0  0  0  0
   -4.5820    4.4160    0.5000 C   0  0  0  0  0  0  0  0  0  0  0  0
   -5.2700    5.6550    0.5250 C   0  0  0  0  0  0  0  0  0  0  0  0
   -5.8570    6.6750    0.5380 N   0  0  0  0  0  0  0  0  0  0  0  0
   -4.6180    3.5710   -0.5970 C   0  0  0  0  0  0  0  0  0  0  0  0
   -3.9220    2.3860   -0.5420 C   0  0  0  0  0  0  0  0  0  0  0  0
   -3.0270   -0.4480    0.8500 C   0  0  0  0  0  0  0  0  0  0  0  0
   -2.0600   -1.4700    0.8210 C   0  0  0  0  0  0  0  0  0  0  0  0
   -2.0910   -2.9360    1.0390 C   0  0  0  0  0  0  0  0  0  0  0  0
   -2.5230   -3.5620   -0.2960 C   0  0  0  0  0  0  0  0  0  0  0  0
   -4.0140   -3.2590   -0.4390 C   0  0  0  0  0  0  0  0  0  0  0  0
   -4.2820   -1.8840   -0.9850 C   0  0  0  0  0  0  0  0  0  0  0  0
   -5.1900   -1.0650   -0.1080 C   0  0  0  0  0  0  0  0  0  0  0  0
   -4.4870   -0.5340    1.1140 C   0  0  0  0  0  0  0  0  0  0  0  0
    3.8590    0.0360   -0.2640 C   0  0  0  0  0  0  0  0  0  0  0  0
    3.5690    1.3780   -0.2780 C   0  0  0  0  0  0  0  0  0  0  0  0
    4.5900    2.3290   -0.4730 C   0  0  0  0  0  0  0  0  0  0  0  0
    4.2680    3.5420   -0.4770 O   0  0  0  0  0  0  0  0  0  0  0  0
    5.8600    1.9500   -0.6470 N   0  0  0  0  0  0  0  0  0  0  0  0
    6.8980    2.9560   -0.8450 C   0  0  0  0  0  0  0  0  0  0  0  0
    6.1740    0.6450   -0.6380 C   0  0  0  0  0  0  0  0  0  0  0  0
    5.2020   -0.3090   -0.4510 C   0  0  0  0  0  0  0  0  0  0  0  0
  1  2  1  0
  2  3  2  0
  2 35  1  0
  3  4  1  0
  4  5  2  0
  5  6  1  0
  5 28  1  0
  6  7  1  0
  7  8  2  0
  7  9  1  0
  9 10  2  0
  9 21  1  0
 10 11  1  0
 11 12  1  0
 11 20  1  0
 12 13  2  0
 12 19  1  0
 13 14  1  0
 14 15  2  0
 15 16  1  0
 15 18  1  0
 16 17  3  0
 18 19  2  0
 20 21  2  0
 20 27  1  0
 21 22  1  0
 22 23  1  0
 23 24  1  0
 24 25  1  0
 25 26  1  0
 26 27  1  0
 28 29  2  0
 28 35  1  0
 29 30  1  0
 30 31  2  0
 30 32  1  0
 32 33  1  0
 32 34  1  0
 34 35  2  0
M  END
