
     RDKit          3D

 35 39  0  0  0  0  0  0  0  0999 V2000
   -2.7300    0.4720   -5.1220 C   0  0  0  0  0  0  0  0  0  0  0  0
   -3.3390    1.5350   -4.3120 C   0  0  0  0  0  0  0  0  0  0  0  0
   -3.3090    2.7400   -4.7460 O   0  0  0  0  0  0  0  0  0  0  0  0
   -3.9870    1.2860   -3.0750 N   0  0  0  0  0  0  0  0  0  0  0  0
   -5.0520    2.2230   -2.6640 C   0  0  0  0  0  0  0  0  0  0  0  0
   -5.5470    1.6910   -1.3160 C   0  0  0  0  0  0  0  0  0  0  0  0
   -6.5400    0.5890   -1.4920 C   0  0  0  0  0  0  0  0  0  0  0  0
   -5.9180   -0.7810   -1.6430 C   0  0  0  0  0  0  0  0  0  0  0  0
   -4.4260   -0.7700   -1.7280 C   0  0  0  0  0  0  0  0  0  0  0  0
   -3.9380   -1.8180   -1.0110 C   0  0  0  0  0  0  0  0  0  0  0  0
   -2.5480   -1.9400   -0.9690 C   0  0  0  0  0  0  0  0  0  0  0  0
   -1.7060   -1.0520   -1.6320 C   0  0  0  0  0  0  0  0  0  0  0  0
   -0.2940   -1.1940   -1.2480 N   0  0  0  0  0  0  0  0  0  0  0  0
   -0.0680   -0.2940   -0.1940 C   0  0  0  0  0  0  0  0  0  0  0  0
   -1.0270    0.5410    0.0940 O   0  0  0  0  0  0  0  0  0  0  0  0
    1.0910   -0.1380    0.7250 C   0  0  0  0  0  0  0  0  0  0  0  0
    2.0980   -0.8660    0.8890 C   0  0  0  0  0  0  0  0  0  0  0  0
    3.1820   -0.5390    1.8580 C   0  0  0  0  0  0  0  0  0  0  0  0
    4.0920   -1.4170    2.2670 C   0  0  0  0  0  0  0  0  0  0  0  0
    4.1190   -2.8230    1.8330 C   0  0  0  0  0  0  0  0  0  0  0  0
    5.4800   -3.1840    1.2340 C   0  0  1  0  0  0  0  0  0  0  0  0
    6.0280   -2.4950    0.0310 C   0  0  0  0  0  0  0  0  0  0  0  0
    6.6570   -2.2710    1.3670 C   0  0  0  0  0  0  0  0  0  0  0  0
    3.0840    0.7250    2.5640 C   0  0  0  0  0  0  0  0  0  0  0  0
    3.8220    0.9020    3.6310 C   0  0  0  0  0  0  0  0  0  0  0  0
    3.9060    2.0670    4.5420 C   0  0  0  0  0  0  0  0  0  0  0  0
    4.1620    1.8760    5.8320 C   0  0  0  0  0  0  0  0  0  0  0  0
    4.4100    1.7090    7.1160 N   0  0  0  0  0  0  0  0  0  0  0  0
    3.4240    3.2870    4.2020 C   0  0  0  0  0  0  0  0  0  0  0  0
    2.7650    3.7950    3.0540 N   0  0  0  0  0  0  0  0  0  0  0  0
    2.1380    3.0420    2.1930 C   0  0  0  0  0  0  0  0  0  0  0  0
    1.9790    1.6010    2.1860 N   0  0  0  0  0  0  0  0  0  0  0  0
    0.8110    1.1130    1.6010 C   0  0  0  0  0  0  0  0  0  0  0  0
   -2.1610   -0.0110   -2.3590 C   0  0  0  0  0  0  0  0  0  0  0  0
   -3.5670    0.1160   -2.3870 C   0  0  0  0  0  0  0  0  0  0  0  0
  1  2  1  0
  2  3  2  0
  2  4  1  0
  4  5  1  0
  4 35  1  0
  5  6  1  0
  6  7  1  0
  7  8  1  0
  8  9  1  0
  9 10  2  0
  9 35  1  0
 10 11  1  0
 11 12  2  0
 12 13  1  0
 12 34  1  0
 13 14  1  0
 14 15  2  0
 14 16  1  0
 16 17  2  0
 16 33  1  0
 17 18  1  0
 18 19  2  3
 18 24  1  0
 19 20  1  0
 21 20  1  1
 21 22  1  0
 21 23  1  0
 22 23  1  0
 24 25  2  0
 24 32  1  0
 25 26  1  0
 26 27  1  0
 26 29  2  0
 27 28  3  0
 29 30  1  0
 30 31  2  0
 31 32  1  0
 32 33  1  0
 34 35  2  0
M  END
