
     RDKit          3D

 32 35  0  0  0  0  0  0  0  0999 V2000
    5.5720   -0.7580   -4.3000 C   0  0  0  0  0  0  0  0  0  0  0  0
    4.3310   -0.5590   -3.6850 O   0  0  0  0  0  0  0  0  0  0  0  0
    3.5180   -1.6390   -3.2540 C   0  0  0  0  0  0  0  0  0  0  0  0
    3.7680   -2.7500   -4.0050 N   0  0  0  0  0  0  0  0  0  0  0  0
    2.6520   -1.5400   -2.2510 C   0  0  0  0  0  0  0  0  0  0  0  0
    1.9330   -3.3870   -2.0650 Cl  0  0  0  0  0  0  0  0  0  0  0  0
    1.9600   -0.9420   -1.2870 C   0  0  0  0  0  0  0  0  0  0  0  0
    2.1780    0.5100   -1.1000 C   0  0  0  0  0  0  0  0  0  0  0  0
    2.9770    1.1710   -2.1010 N   0  0  0  0  0  0  0  0  0  0  0  0
    1.5740    1.2610   -0.2070 C   0  0  0  0  0  0  0  0  0  0  0  0
    2.1090    2.7190   -0.2830 C   0  0  0  0  0  0  0  0  0  0  0  0
    0.3030    1.1180    0.4360 C   0  0  0  0  0  0  0  0  0  0  0  0
   -0.1730    1.7940    1.3940 C   0  0  0  0  0  0  0  0  0  0  0  0
    0.1590    2.8820    2.3040 C   0  0  0  0  0  0  0  0  0  0  0  0
    1.2480    3.5490    2.4570 N   0  0  0  0  0  0  0  0  0  0  0  0
    1.1170    4.5770    3.4970 C   0  0  0  0  0  0  0  0  0  0  0  0
   -0.3630    4.7650    3.4750 C   0  0  0  0  0  0  0  0  0  0  0  0
   -0.7780    3.4090    3.2280 O   0  0  0  0  0  0  0  0  0  0  0  0
   -0.6500    0.1110   -0.1630 C   0  0  0  0  0  0  0  0  0  0  0  0
   -0.5980   -0.1160   -1.4990 N   0  0  0  0  0  0  0  0  0  0  0  0
   -1.5410   -1.0120   -1.8350 C   0  0  0  0  0  0  0  0  0  0  0  0
   -1.9240   -1.5870   -3.0530 C   0  0  0  0  0  0  0  0  0  0  0  0
   -2.9680   -2.4900   -3.0750 C   0  0  0  0  0  0  0  0  0  0  0  0
   -3.6210   -2.8240   -1.9150 C   0  0  0  0  0  0  0  0  0  0  0  0
   -3.2210   -2.2470   -0.7230 C   0  0  0  0  0  0  0  0  0  0  0  0
   -2.1700   -1.3300   -0.6580 C   0  0  0  0  0  0  0  0  0  0  0  0
   -1.6020   -0.6250    0.3900 N   0  0  0  0  0  0  0  0  0  0  0  0
   -1.9350   -0.8110    1.7660 C   0  0  1  0  0  0  0  0  0  0  0  0
   -3.2570   -0.2590    2.2350 C   0  0  0  0  0  0  0  0  0  0  0  0
   -3.3610   -1.0350    3.5630 C   0  0  0  0  0  0  0  0  0  0  0  0
   -3.1720   -2.4710    3.0000 C   0  0  0  0  0  0  0  0  0  0  0  0
   -1.9290   -2.2940    2.1480 C   0  0  0  0  0  0  0  0  0  0  0  0
  1  2  1  0
  2  3  1  0
  3  4  2  0
  3  5  1  0
  5  6  1  0
  5  7  2  3
  7  8  1  0
  8  9  1  0
  8 10  2  3
 10 11  1  0
 10 12  1  0
 12 13  2  3
 12 19  1  0
 13 14  1  0
 14 15  2  0
 14 18  1  0
 15 16  1  0
 16 17  1  0
 17 18  1  0
 19 20  2  0
 19 27  1  0
 20 21  1  0
 21 22  2  0
 21 26  1  0
 22 23  1  0
 23 24  2  0
 24 25  1  0
 25 26  2  0
 26 27  1  0
 28 27  1  6
 28 29  1  0
 28 32  1  0
 29 30  1  0
 30 31  1  0
 31 32  1  0
M  END
