
     RDKit          3D

 32 35  0  0  0  0  0  0  0  0999 V2000
   -6.8280    2.6940   -2.4780 C   0  0  0  0  0  0  0  0  0  0  0  0
   -5.4700    3.4160   -2.3690 C   0  0  0  0  0  0  0  0  0  0  0  0
   -4.6670    2.8140   -1.3260 C   0  0  0  0  0  0  0  0  0  0  0  0
   -3.5130    2.2360   -1.3500 C   0  0  0  0  0  0  0  0  0  0  0  0
   -2.6470    2.0100   -2.4790 C   0  0  0  0  0  0  0  0  0  0  0  0
   -1.4210    1.4400   -2.3910 C   0  0  0  0  0  0  0  0  0  0  0  0
   -0.7160    0.9730   -1.2100 C   0  0  0  0  0  0  0  0  0  0  0  0
    0.3400    0.2410   -1.3150 O   0  0  0  0  0  0  0  0  0  0  0  0
   -1.0050    1.2190    0.1580 N   0  0  0  0  0  0  0  0  0  0  0  0
   -0.2130    0.6230    1.2290 C   0  0  0  0  0  0  0  0  0  0  0  0
   -0.0450    1.3710    2.3780 C   0  0  0  0  0  0  0  0  0  0  0  0
    0.6400    0.8990    3.4740 C   0  0  0  0  0  0  0  0  0  0  0  0
    1.1740   -0.3670    3.4100 C   0  0  0  0  0  0  0  0  0  0  0  0
    1.8770   -1.1030    4.3110 N   0  0  0  0  0  0  0  0  0  0  0  0
    2.1500   -2.2830    3.7600 C   0  0  0  0  0  0  0  0  0  0  0  0
    2.8860   -3.3730    4.3930 C   0  0  0  0  0  0  0  0  0  0  0  0
    3.0230   -4.4890    3.8050 O   0  0  0  0  0  0  0  0  0  0  0  0
    3.4570   -3.1970    5.6740 N   0  0  0  0  0  0  0  0  0  0  0  0
    4.1940   -4.2160    6.3730 C   0  0  0  0  0  0  0  0  0  0  0  0
    5.3900   -4.6510    5.5650 C   0  0  0  0  0  0  0  0  0  0  0  0
    6.3110   -3.4800    5.3010 C   0  0  0  0  0  0  0  0  0  0  0  0
    1.6200   -2.2980    2.5040 N   0  0  0  0  0  0  0  0  0  0  0  0
    1.0180   -1.1260    2.2790 C   0  0  0  0  0  0  0  0  0  0  0  0
    0.3170   -0.6270    1.1730 C   0  0  0  0  0  0  0  0  0  0  0  0
   -0.8550    1.3270   -3.7340 C   0  0  0  0  0  0  0  0  0  0  0  0
    0.3100    0.9220   -4.2030 C   0  0  0  0  0  0  0  0  0  0  0  0
    1.5940    0.3530   -3.0870 Cl  0  0  0  0  0  0  0  0  0  0  0  0
    0.7550    0.8950   -5.5950 C   0  0  1  0  0  0  0  0  0  0  0  0
   -0.1210   -0.0970   -6.4190 C   0  0  0  0  0  0  0  0  0  0  0  0
    0.1930    1.2800   -6.8610 C   0  0  0  0  0  0  0  0  0  0  0  0
   -1.8420    1.8530   -4.6340 N   0  0  0  0  0  0  0  0  0  0  0  0
   -2.9430    2.3770   -3.8800 C   0  0  0  0  0  0  0  0  0  0  0  0
  1  2  1  0
  2  3  1  0
  3  4  2  3
  4  5  1  0
  5  6  2  0
  5 32  1  0
  6  7  1  0
  6 25  1  0
  7  8  2  0
  7  9  1  0
  9 10  1  0
 10 11  2  0
 10 24  1  0
 11 12  1  0
 12 13  2  0
 13 14  1  0
 13 23  1  0
 14 15  1  0
 15 16  1  0
 15 22  2  0
 16 17  2  0
 16 18  1  0
 18 19  1  0
 19 20  1  0
 20 21  1  0
 22 23  1  0
 23 24  2  0
 25 26  2  3
 25 31  1  0
 26 27  1  0
 28 26  1  1
 28 29  1  0
 28 30  1  0
 29 30  1  0
 31 32  1  0
M  END
