
     RDKit          3D

 32 33  0  0  0  0  0  0  0  0999 V2000
    9.1480   -0.1080    1.5150 N   0  0  0  0  0  0  0  0  0  0  0  0
    9.1660    0.1530   -0.0230 S   0  0  2  0  0  0  0  0  0  0  0  0
   10.2950    1.1520   -0.1600 O   0  0  0  0  0  0  0  0  0  0  0  0
    7.7030    0.9400   -0.5120 N   0  0  0  0  0  0  0  0  0  0  0  0
    6.4460    0.4420   -0.0980 C   0  0  0  0  0  0  0  0  0  0  0  0
    6.4660   -0.5790    0.6250 O   0  0  0  0  0  0  0  0  0  0  0  0
    5.1750    1.0610   -0.4750 N   0  0  0  0  0  0  0  0  0  0  0  0
    4.1180    0.4030    0.0490 O   0  0  0  0  0  0  0  0  0  0  0  0
    3.8350   -0.6650   -0.8430 C   0  0  0  0  0  0  0  0  0  0  0  0
    2.7670   -1.4500   -0.1530 C   0  0  0  0  0  0  0  0  0  0  0  0
    1.6000   -0.6450    0.0650 N   0  0  0  0  0  0  0  0  0  0  0  0
    0.8050   -0.1660   -0.9790 C   0  0  0  0  0  0  0  0  0  0  0  0
    0.9740   -0.3420   -2.1690 O   0  0  0  0  0  0  0  0  0  0  0  0
   -0.4410    0.6520   -0.5090 C   0  0  2  0  0  0  0  0  0  0  0  0
    0.0790    1.7510    0.2730 C   0  0  0  0  0  0  0  0  0  0  0  0
   -0.8020    2.7400    0.8130 N   0  0  0  0  0  0  0  0  0  0  0  0
   -1.1980   -0.4140    0.0620 N   0  0  0  0  0  0  0  0  0  0  0  0
   -2.2390   -1.1310   -0.5800 C   0  0  0  0  0  0  0  0  0  0  0  0
   -2.6140   -0.7730   -1.7470 O   0  0  0  0  0  0  0  0  0  0  0  0
   -2.8730   -2.2640    0.0720 C   0  0  0  0  0  0  0  0  0  0  0  0
   -4.2330   -2.4370   -0.0040 O   0  0  0  0  0  0  0  0  0  0  0  0
   -5.1390   -1.5860    0.6240 C   0  0  0  0  0  0  0  0  0  0  0  0
   -5.2920   -1.8420    1.9640 N   0  0  0  0  0  0  0  0  0  0  0  0
   -6.1240   -1.0800    2.6610 C   0  0  0  0  0  0  0  0  0  0  0  0
   -6.2630   -1.3280    3.9030 O   0  0  0  0  0  0  0  0  0  0  0  0
   -6.8320   -0.0600    2.1120 C   0  0  0  0  0  0  0  0  0  0  0  0
   -6.6640    0.1860    0.7470 C   0  0  0  0  0  0  0  0  0  0  0  0
   -7.3640    1.2030    0.1430 C   0  0  0  0  0  0  0  0  0  0  0  0
   -7.2230    1.4440   -1.1880 C   0  0  0  0  0  0  0  0  0  0  0  0
   -6.3750    0.6480   -1.9020 N   0  0  0  0  0  0  0  0  0  0  0  0
   -5.6770   -0.3450   -1.3520 C   0  0  0  0  0  0  0  0  0  0  0  0
   -5.7960   -0.6060    0.0040 C   0  0  0  0  0  0  0  0  0  0  0  0
  1  2  2  0
  2  3  2  0
  2  4  1  1
  4  5  1  0
  5  6  2  0
  5  7  1  0
  7  8  1  0
  8  9  1  0
  9 10  1  0
 10 11  1  0
 11 12  1  0
 12 13  2  0
 12 14  1  0
 14 15  1  1
 14 17  1  0
 15 16  1  0
 17 18  1  0
 18 19  2  0
 18 20  1  0
 20 21  1  0
 21 22  1  0
 22 23  1  0
 22 32  2  0
 23 24  1  0
 24 25  2  0
 24 26  1  0
 26 27  2  0
 27 28  1  0
 27 32  1  0
 28 29  2  0
 29 30  1  0
 30 31  2  0
 31 32  1  0
M  CHG  2   1   1  16   1
M  END
