
     RDKit          3D

 32 36  0  0  0  0  0  0  0  0999 V2000
   -0.5850    5.0150    1.5430 C   0  0  0  0  0  0  0  0  0  0  0  0
   -1.4880    3.9850    1.0300 C   0  0  0  0  0  0  0  0  0  0  0  0
   -2.2460    3.1310    0.5820 C   0  0  0  0  0  0  0  0  0  0  0  0
   -3.1640    2.1320    0.0600 C   0  0  2  0  0  0  0  0  0  0  0  0
   -3.8800    2.5950   -1.0430 O   0  0  0  0  0  0  0  0  0  0  0  0
   -4.1690    1.8130    1.1460 C   0  0  0  0  0  0  0  0  0  0  0  0
   -4.0300    0.3300    1.3960 C   0  0  0  0  0  0  0  0  0  0  0  0
   -2.5500    0.1240    1.0920 C   0  0  1  0  0  0  0  0  0  0  0  0
   -2.1580   -1.2570    0.8600 C   0  0  2  0  0  0  0  0  0  0  0  0
   -2.0440   -2.2200    1.9710 C   0  0  0  0  0  0  0  0  0  0  0  0
   -2.0210   -3.6000    1.3030 C   0  0  0  0  0  0  0  0  0  0  0  0
   -1.0130   -3.6030    0.1970 C   0  0  0  0  0  0  0  0  0  0  0  0
   -0.8120   -4.7250   -0.4290 C   0  0  0  0  0  0  0  0  0  0  0  0
    0.1850   -4.6880   -1.4980 C   0  0  0  0  0  0  0  0  0  0  0  0
    0.0400   -5.3530   -2.5410 O   0  0  0  0  0  0  0  0  0  0  0  0
    1.4000   -3.8520   -1.3650 C   0  0  0  0  0  0  0  0  0  0  0  0
    1.0190   -2.4290   -0.8690 C   0  0  0  0  0  0  0  0  0  0  0  0
   -0.2560   -2.3890   -0.1950 C   0  0  0  0  0  0  0  0  0  0  0  0
   -0.7900   -1.2480    0.1610 C   0  0  0  0  0  0  0  0  0  0  0  0
   -0.1850    0.0270    0.0120 C   0  0  1  0  0  0  0  0  0  0  0  0
    1.1990    0.3360   -0.1210 C   0  0  0  0  0  0  0  0  0  0  0  0
    1.7530    0.6660   -1.3500 C   0  0  0  0  0  0  0  0  0  0  0  0
    3.0680    0.9820   -1.5080 C   0  0  0  0  0  0  0  0  0  0  0  0
    3.9230    0.9880   -0.4270 C   0  0  0  0  0  0  0  0  0  0  0  0
    5.3000    1.3240   -0.6190 N   0  0  0  0  0  0  0  0  0  0  0  0
    5.7860    1.6530   -1.9250 C   0  0  0  0  0  0  0  0  0  0  0  0
    6.2270    1.3350    0.5070 C   0  0  0  0  0  0  0  0  0  0  0  0
    3.4130    0.6660    0.8090 C   0  0  0  0  0  0  0  0  0  0  0  0
    2.0810    0.3510    0.9360 C   0  0  0  0  0  0  0  0  0  0  0  0
   -1.1020    0.9490   -0.8160 C   0  0  0  0  0  0  0  0  0  0  0  0
   -2.4760    0.8320   -0.2650 C   0  0  2  0  0  0  0  0  0  0  0  0
   -3.3060    0.1370   -1.3000 C   0  0  0  0  0  0  0  0  0  0  0  0
  1  2  1  0
  2  3  3  0
  3  4  1  0
  4  5  1  6
  4  6  1  0
  4 31  1  0
  6  7  1  0
  8  7  1  6
  8  9  1  0
  8 31  1  0
  9 10  1  1
  9 19  1  0
 10 11  1  0
 11 12  1  0
 12 13  2  0
 12 18  1  0
 13 14  1  0
 14 15  2  0
 14 16  1  0
 16 17  1  0
 17 18  1  0
 18 19  2  0
 19 20  1  0
 20 21  1  6
 20 30  1  0
 21 22  2  0
 21 29  1  0
 22 23  1  0
 23 24  2  0
 24 25  1  0
 24 28  1  0
 25 26  1  0
 25 27  1  0
 28 29  2  0
 30 31  1  0
 31 32  1  6
M  END
