
     RDKit          3D

 32 33  0  0  0  0  0  0  0  0999 V2000
   -4.6410   -4.4170   -0.5830 C   0  0  0  0  0  0  0  0  0  0  0  0
   -3.7320   -4.2780   -1.7290 N   0  0  0  0  0  0  0  0  0  0  0  0
   -2.9770   -3.0920   -1.5010 C   0  0  0  0  0  0  0  0  0  0  0  0
   -3.4450   -1.9580   -1.6580 O   0  0  0  0  0  0  0  0  0  0  0  0
   -1.5920   -3.1890   -1.0640 N   0  0  0  0  0  0  0  0  0  0  0  0
   -0.8780   -2.0460   -0.8370 C   0  0  0  0  0  0  0  0  0  0  0  0
   -1.5290   -0.7410   -0.9610 N   0  0  0  0  0  0  0  0  0  0  0  0
   -2.1010   -0.0520    0.1470 C   0  0  0  0  0  0  0  0  0  0  0  0
   -2.5860    1.3160   -0.3450 C   0  0  1  0  0  0  0  0  0  0  0  0
   -3.5350    1.0860   -1.3360 O   0  0  0  0  0  0  0  0  0  0  0  0
   -4.7410    1.6050   -0.9380 C   0  0  0  0  0  0  0  0  0  0  0  0
   -5.8540    1.5910   -1.5790 O   0  0  0  0  0  0  0  0  0  0  0  0
   -4.5270    2.1730    0.3410 N   0  0  0  0  0  0  0  0  0  0  0  0
   -3.3140    2.0310    0.7170 C   0  0  0  0  0  0  0  0  0  0  0  0
   -2.6270    2.6160    2.2900 S   0  0  0  0  0  0  0  0  0  0  0  0
   -3.8950    3.4510    3.2590 C   0  0  0  0  0  0  0  0  0  0  0  0
    0.3910   -1.9780   -0.4500 C   0  0  0  0  0  0  0  0  0  0  0  0
    0.9270   -0.6440   -0.2820 N   0  0  0  0  0  0  0  0  0  0  0  0
    2.1790   -0.2320    0.1100 C   0  0  0  0  0  0  0  0  0  0  0  0
    3.0570   -1.0280    0.3820 O   0  0  0  0  0  0  0  0  0  0  0  0
    2.5200    1.1820    0.2200 N   0  0  0  0  0  0  0  0  0  0  0  0
    3.8570    1.5640    0.6400 C   0  0  2  0  0  0  0  0  0  0  0  0
    3.7440    2.4010    1.9050 C   0  0  0  0  0  0  0  0  0  0  0  0
    4.7960    3.4710    1.7040 C   0  0  0  0  0  0  0  0  0  0  0  0
    4.9890    3.6040    0.3580 O   0  0  0  0  0  0  0  0  0  0  0  0
    4.4780    2.5410   -0.3250 C   0  0  1  0  0  0  0  0  0  0  0  0
    5.4630    1.8920   -1.2260 C   0  0  0  0  0  0  0  0  0  0  0  0
    6.7810    2.4040   -1.2870 N   0  0  0  0  0  0  0  0  0  0  0  0
    5.1670    0.9060   -1.9360 O   0  0  0  0  0  0  0  0  0  0  0  0
    1.2190   -3.1060   -0.2000 C   0  0  0  0  0  0  0  0  0  0  0  0
    0.7620   -4.4590   -0.3390 N   0  0  0  0  0  0  0  0  0  0  0  0
    2.4360   -3.0850    0.1680 O   0  0  0  0  0  0  0  0  0  0  0  0
  1  2  1  0
  2  3  1  0
  3  4  2  0
  3  5  1  0
  5  6  1  0
  6  7  1  0
  6 17  2  3
  7  8  1  0
  9  8  1  1
  9 10  1  0
  9 14  1  0
 10 11  1  0
 11 12  2  0
 11 13  1  0
 13 14  2  0
 14 15  1  0
 15 16  1  0
 17 18  1  0
 17 30  1  0
 18 19  1  0
 19 20  2  0
 19 21  1  0
 22 21  1  6
 22 23  1  0
 22 26  1  0
 23 24  1  0
 24 25  1  0
 25 26  1  0
 26 27  1  1
 27 28  1  0
 27 29  2  0
 30 31  1  0
 30 32  2  0
M  CHG  1   2   1
M  END
