
     RDKit          3D

 32 35  0  0  0  0  0  0  0  0999 V2000
   -6.3270    0.5330    2.4650 C   0  0  0  0  0  0  0  0  0  0  0  0
   -5.2850    1.6180    2.2510 C   0  0  0  0  0  0  0  0  0  0  0  0
   -4.0690    1.0760    1.7760 O   0  0  0  0  0  0  0  0  0  0  0  0
   -3.9850    0.4240    0.5570 C   0  0  0  0  0  0  0  0  0  0  0  0
   -5.0320    0.2560   -0.3060 C   0  0  0  0  0  0  0  0  0  0  0  0
   -4.9150   -0.4040   -1.5280 C   0  0  0  0  0  0  0  0  0  0  0  0
   -6.0930   -0.5490   -2.4200 C   0  0  0  0  0  0  0  0  0  0  0  0
   -3.7040   -0.9200   -1.9110 C   0  0  0  0  0  0  0  0  0  0  0  0
   -3.5670   -1.5920   -3.1580 N   0  0  0  0  0  0  0  0  0  0  0  0
   -2.6270   -0.7500   -1.0270 C   0  0  0  0  0  0  0  0  0  0  0  0
   -2.7370   -0.1010    0.1770 C   0  0  0  0  0  0  0  0  0  0  0  0
   -1.6390    0.0740    1.0530 N   0  0  0  0  0  0  0  0  0  0  0  0
   -0.3370   -0.4390    0.9280 C   0  0  0  0  0  0  0  0  0  0  0  0
   -0.0550   -1.1500   -0.0580 O   0  0  0  0  0  0  0  0  0  0  0  0
    0.6850   -0.1380    1.9580 C   0  0  0  0  0  0  0  0  0  0  0  0
    0.3600   -0.3920    3.2720 C   0  0  0  0  0  0  0  0  0  0  0  0
    1.3300   -0.1170    4.2150 C   0  0  0  0  0  0  0  0  0  0  0  0
    0.9590   -0.4240    5.8940 Cl  0  0  0  0  0  0  0  0  0  0  0  0
    2.5640    0.3860    3.8700 C   0  0  0  0  0  0  0  0  0  0  0  0
    2.8890    0.6410    2.5520 C   0  0  0  0  0  0  0  0  0  0  0  0
    4.0930    1.1260    2.2180 N   0  0  0  0  0  0  0  0  0  0  0  0
    4.3910    1.3610    0.9430 C   0  0  0  0  0  0  0  0  0  0  0  0
    3.4800    1.1140   -0.0500 C   0  0  0  0  0  0  0  0  0  0  0  0
    3.8190    1.3500   -1.4080 N   0  0  0  0  0  0  0  0  0  0  0  0
    5.1440    1.4740   -1.9450 C   0  0  0  0  0  0  0  0  0  0  0  0
    5.8820    0.1820   -2.0570 C   0  0  0  0  0  0  0  0  0  0  0  0
    6.3570   -0.3380   -3.2060 C   0  0  0  0  0  0  0  0  0  0  0  0
    7.0230   -1.6130   -2.9290 C   0  0  0  0  0  0  0  0  0  0  0  0
    6.8830   -1.7700   -1.5210 N   0  0  0  0  0  0  0  0  0  0  0  0
    6.2370   -0.7530   -1.0260 C   0  0  0  0  0  0  0  0  0  0  0  0
    2.2380    0.6160    0.2710 C   0  0  0  0  0  0  0  0  0  0  0  0
    1.9100    0.3660    1.5840 C   0  0  0  0  0  0  0  0  0  0  0  0
  1  2  1  0
  2  3  1  0
  3  4  1  0
  4  5  2  0
  4 11  1  0
  5  6  1  0
  6  7  1  0
  6  8  2  0
  8  9  1  0
  8 10  1  0
 10 11  2  0
 11 12  1  0
 12 13  1  0
 13 14  2  0
 13 15  1  0
 15 16  2  0
 15 32  1  0
 16 17  1  0
 17 18  1  0
 17 19  2  0
 19 20  1  0
 20 21  2  0
 20 32  1  0
 21 22  1  0
 22 23  2  0
 23 24  1  0
 23 31  1  0
 24 25  1  0
 25 26  1  0
 26 27  2  0
 26 30  1  0
 27 28  1  0
 28 29  1  0
 29 30  2  0
 31 32  2  0
M  END
