
     RDKit          3D

 32 34  0  0  0  0  0  0  0  0999 V2000
    9.2340   -2.5340   -0.0780 C   0  0  0  0  0  0  0  0  0  0  0  0
    8.9320   -1.3130   -0.8310 C   0  0  0  0  0  0  0  0  0  0  0  0
    7.9480   -0.4280    0.0960 C   0  0  0  0  0  0  0  0  0  0  0  0
    7.6020    0.5560   -0.6990 O   0  0  0  0  0  0  0  0  0  0  0  0
    6.5180    1.1590   -0.4940 N   0  0  0  0  0  0  0  0  0  0  0  0
    5.8120    1.1450    0.7550 C   0  0  0  0  0  0  0  0  0  0  0  0
    4.3500    1.0320    0.6070 C   0  0  2  0  0  0  0  0  0  0  0  0
    3.8470   -0.0030   -0.0730 O   0  0  0  0  0  0  0  0  0  0  0  0
    3.6820    2.4090    0.2220 C   0  0  2  0  0  0  0  0  0  0  0  0
    2.4620    2.6350    1.1880 N   0  0  0  0  0  0  0  0  0  0  0  0
    1.6540    2.1330    0.5180 N   0  0  0  0  0  0  0  0  0  0  0  0
    0.9300    1.7360    0.0520 C   0  0  0  0  0  0  0  0  0  0  0  0
   -0.1040    1.1360   -0.6970 N   0  0  0  0  0  0  0  0  0  0  0  0
   -1.2780    1.1280    0.1550 C   0  0  0  0  0  0  0  0  0  0  0  0
   -1.3680    1.7840    1.2520 O   0  0  0  0  0  0  0  0  0  0  0  0
   -2.4600    0.3500   -0.2570 C   0  0  0  0  0  0  0  0  0  0  0  0
   -3.3510   -0.2100   -0.5030 C   0  0  0  0  0  0  0  0  0  0  0  0
   -3.4850   -0.8220   -1.8590 N   0  0  0  0  0  0  0  0  0  0  0  0
   -4.4940   -1.3810   -2.4970 C   0  0  0  0  0  0  0  0  0  0  0  0
   -4.5190   -1.9970   -3.5530 O   0  0  0  0  0  0  0  0  0  0  0  0
   -5.7620   -1.1880   -1.7850 C   0  0  0  0  0  0  0  0  0  0  0  0
   -5.7420   -0.8310   -0.3430 C   0  0  0  0  0  0  0  0  0  0  0  0
   -7.1930   -0.8340    0.2310 C   0  0  0  0  0  0  0  0  0  0  0  0
   -7.8810   -1.7980   -0.2610 O   0  0  0  0  0  0  0  0  0  0  0  0
   -7.6950    0.0890    1.1260 N   0  0  0  0  0  0  0  0  0  0  0  0
   -9.0680   -0.4030    1.4260 N   0  0  0  0  0  0  0  0  0  0  0  0
   -9.8940   -0.3110    0.1790 C   0  0  0  0  0  0  0  0  0  0  0  0
  -11.1200   -1.0620    0.3230 N   0  0  0  0  0  0  0  0  0  0  0  0
   -9.5870    0.2420   -0.8140 O   0  0  0  0  0  0  0  0  0  0  0  0
   -4.6780   -0.3130    0.3050 C   0  0  0  0  0  0  0  0  0  0  0  0
   -4.8910    0.0430    1.5810 O   0  0  0  0  0  0  0  0  0  0  0  0
    2.5950    1.7310   -1.1800 S   0  0  2  0  0  0  0  0  0  0  0  0
  1  2  1  0
  2  3  1  0
  3  4  1  0
  4  5  1  0
  5  6  1  0
  6  7  1  0
  7  8  1  6
  7  9  1  0
  9 10  1  1
  9 32  1  0
 10 11  1  0
 11 12  2  0
 12 13  1  0
 32 12  1  1
 13 14  1  0
 14 15  2  0
 14 16  1  0
 16 17  2  3
 17 18  1  0
 17 30  1  0
 18 19  1  0
 19 20  2  0
 19 21  1  0
 21 22  1  0
 22 23  1  0
 22 30  2  0
 23 24  2  0
 23 25  1  0
 25 26  1  0
 26 27  1  0
 27 28  1  0
 27 29  2  0
 30 31  1  0
 32 11  1  0
M  CHG  2   5   1  11   1
M  END
