
     RDKit          3D

 32 35  0  0  0  0  0  0  0  0999 V2000
    0.5190   -4.0070   -2.1000 C   0  0  0  0  0  0  0  0  0  0  0  0
    1.2440   -2.7950   -1.6580 C   0  0  0  0  0  0  0  0  0  0  0  0
    2.1930   -2.2820   -2.4430 C   0  0  0  0  0  0  0  0  0  0  0  0
    3.0510   -1.1100   -2.2490 C   0  0  0  0  0  0  0  0  0  0  0  0
    2.8770   -0.1540   -1.3530 C   0  0  0  0  0  0  0  0  0  0  0  0
    3.8510    0.9210   -1.3200 C   0  0  0  0  0  0  0  0  0  0  0  0
    5.1190    0.6860   -2.0960 C   0  0  0  0  0  0  0  0  0  0  0  0
    5.9500   -0.4510   -1.5520 C   0  0  0  0  0  0  0  0  0  0  0  0
    6.3580   -0.0890   -0.1070 C   0  0  0  0  0  0  0  0  0  0  0  0
    7.2870    1.3930   -0.0270 Cl  0  0  0  0  0  0  0  0  0  0  0  0
    1.7900   -0.0080   -0.3520 C   0  0  0  0  0  0  0  0  0  0  0  0
    1.6950    1.2480    0.2000 C   0  0  0  0  0  0  0  0  0  0  0  0
    0.7110    1.5320    1.1570 C   0  0  0  0  0  0  0  0  0  0  0  0
   -0.1990    0.5920    1.5920 C   0  0  0  0  0  0  0  0  0  0  0  0
   -1.2260    0.9410    2.6030 C   0  0  2  0  0  0  0  0  0  0  0  0
   -1.3830   -0.0350    3.6460 N   0  0  0  0  0  0  0  0  0  0  0  0
   -2.4040   -0.9010    3.2060 C   0  0  0  0  0  0  0  0  0  0  0  0
   -2.6790   -2.0740    3.5960 O   0  0  0  0  0  0  0  0  0  0  0  0
   -3.1690   -0.2460    2.1710 N   0  0  0  0  0  0  0  0  0  0  0  0
   -4.3000   -0.8320    1.4760 C   0  0  0  0  0  0  0  0  0  0  0  0
   -3.9060   -1.5910    0.2610 C   0  0  0  0  0  0  0  0  0  0  0  0
   -3.2410   -0.8240   -0.6930 O   0  0  0  0  0  0  0  0  0  0  0  0
   -2.6100    1.0310    1.9810 C   0  0  0  0  0  0  0  0  0  0  0  0
   -3.0230    2.0660    1.4640 N   0  0  0  0  0  0  0  0  0  0  0  0
   -4.0500    2.6660    0.8270 C   0  0  0  0  0  0  0  0  0  0  0  0
   -4.6030    3.9090    1.2200 C   0  0  0  0  0  0  0  0  0  0  0  0
   -5.6200    4.2390    0.3570 C   0  0  0  0  0  0  0  0  0  0  0  0
   -5.7320    3.2740   -0.5520 N   0  0  0  0  0  0  0  0  0  0  0  0
   -4.8010    2.3320   -0.2810 C   0  0  0  0  0  0  0  0  0  0  0  0
   -0.0980   -0.6640    1.0350 C   0  0  0  0  0  0  0  0  0  0  0  0
    0.8800   -0.9450    0.0850 C   0  0  0  0  0  0  0  0  0  0  0  0
    0.8050   -2.3010   -0.3800 N   0  0  0  0  0  0  0  0  0  0  0  0
  1  2  1  0
  2  3  2  0
  2 32  1  0
  3  4  1  0
  4  5  2  0
  5  6  1  0
  5 11  1  0
  6  7  1  0
  7  8  1  0
  8  9  1  0
  9 10  1  0
 11 12  2  0
 11 31  1  0
 12 13  1  0
 13 14  2  0
 15 14  1  6
 14 30  1  0
 15 16  1  0
 15 23  1  0
 16 17  1  0
 17 18  2  0
 17 19  1  0
 19 20  1  0
 19 23  1  0
 20 21  1  0
 21 22  1  0
 23 24  2  3
 24 25  1  0
 25 26  1  0
 25 29  2  0
 26 27  2  0
 27 28  1  0
 28 29  1  0
 30 31  2  0
 31 32  1  0
M  END
