
     RDKit          3D

 32 35  0  0  0  0  0  0  0  0999 V2000
    6.2020   -0.5370    3.1480 C   0  0  0  0  0  0  0  0  0  0  0  0
    6.3960   -0.0340    1.9710 C   0  0  0  0  0  0  0  0  0  0  0  0
    6.0100   -0.4800    0.6590 C   0  0  0  0  0  0  0  0  0  0  0  0
    6.4390    0.2930   -0.3610 C   0  0  0  0  0  0  0  0  0  0  0  0
    6.2140    0.1120   -1.7820 C   0  0  0  0  0  0  0  0  0  0  0  0
    5.3670    1.5940   -2.3880 Cl  0  0  0  0  0  0  0  0  0  0  0  0
    5.2950   -1.7020    0.3540 C   0  0  0  0  0  0  0  0  0  0  0  0
    3.8410   -1.8190    0.6680 C   0  0  1  0  0  0  0  0  0  0  0  0
    3.3750   -1.6890    2.0530 C   0  0  0  0  0  0  0  0  0  0  0  0
    3.1220   -0.8890   -0.3020 C   0  0  0  0  0  0  0  0  0  0  0  0
    1.6960   -0.8790   -0.1620 N   0  0  0  0  0  0  0  0  0  0  0  0
    0.9280   -0.0320   -0.9840 C   0  0  0  0  0  0  0  0  0  0  0  0
    1.4540    0.8040   -1.9390 C   0  0  0  0  0  0  0  0  0  0  0  0
    0.6440    1.5990   -2.6990 N   0  0  0  0  0  0  0  0  0  0  0  0
   -0.6860    1.5630   -2.5100 C   0  0  0  0  0  0  0  0  0  0  0  0
   -1.7040    2.2450   -3.1210 N   0  0  0  0  0  0  0  0  0  0  0  0
   -2.8790    1.8700   -2.5840 C   0  0  0  0  0  0  0  0  0  0  0  0
   -4.2040    2.2080   -2.7910 C   0  0  0  0  0  0  0  0  0  0  0  0
   -4.4460    3.0640   -3.6780 O   0  0  0  0  0  0  0  0  0  0  0  0
   -5.2090    1.6400   -2.0670 N   0  0  0  0  0  0  0  0  0  0  0  0
   -4.9640    0.7310   -1.1230 C   0  0  0  0  0  0  0  0  0  0  0  0
   -3.6370    0.3670   -0.8890 C   0  0  0  0  0  0  0  0  0  0  0  0
   -2.6110    0.9250   -1.6060 C   0  0  0  0  0  0  0  0  0  0  0  0
   -1.2560    0.7280   -1.5510 C   0  0  0  0  0  0  0  0  0  0  0  0
   -0.4010   -0.0160   -0.8500 N   0  0  0  0  0  0  0  0  0  0  0  0
   -3.3760   -0.6270    0.1410 C   0  0  0  0  0  0  0  0  0  0  0  0
   -2.4140   -1.3770    0.0340 O   0  0  0  0  0  0  0  0  0  0  0  0
   -4.2640   -0.7590    1.3430 C   0  0  0  0  0  0  0  0  0  0  0  0
   -5.5550   -0.0020    1.1400 C   0  0  2  0  0  0  0  0  0  0  0  0
   -5.3950    1.3910    1.6710 C   0  0  0  0  0  0  0  0  0  0  0  0
   -6.6370   -0.7620    1.9070 C   0  0  0  0  0  0  0  0  0  0  0  0
   -5.9830    0.0570   -0.2890 C   0  0  0  0  0  0  0  0  0  0  0  0
  1  2  2  0
  2  3  1  0
  3  4  2  3
  3  7  1  0
  4  5  1  0
  5  6  1  0
  7  8  1  0
  8  9  1  1
  8 10  1  0
 10 11  1  0
 11 12  1  0
 12 13  2  0
 12 25  1  0
 13 14  1  0
 14 15  2  0
 15 16  1  0
 15 24  1  0
 16 17  1  0
 17 18  1  0
 17 23  2  0
 18 19  2  0
 18 20  1  0
 20 21  1  0
 21 22  2  0
 21 32  1  0
 22 23  1  0
 22 26  1  0
 23 24  1  0
 24 25  2  0
 26 27  2  0
 26 28  1  0
 28 29  1  0
 29 30  1  1
 29 31  1  0
 29 32  1  0
M  END
