
     RDKit          3D

 22 22  0  0  0  0  0  0  0  0999 V2000
   -6.2830   -1.8770    0.5530 C   0  0  0  0  0  0  0  0  0  0  0  0
   -5.4460   -1.4320   -0.6370 C   0  0  0  0  0  0  0  0  0  0  0  0
   -4.3460   -0.7390   -0.2080 O   0  0  0  0  0  0  0  0  0  0  0  0
   -4.6000    0.4120    0.4730 C   0  0  0  0  0  0  0  0  0  0  0  0
   -3.1980    0.9750    0.8330 C   0  0  0  0  0  0  0  0  0  0  0  0
   -2.3650    0.9710   -0.3550 C   0  0  2  0  0  0  0  0  0  0  0  0
   -2.8160    1.6600   -1.5880 C   0  0  0  0  0  0  0  0  0  0  0  0
   -1.9590   -0.5050   -0.6960 C   0  0  0  0  0  0  0  0  0  0  0  0
   -0.9300    1.5400   -0.1040 C   0  0  1  0  0  0  0  0  0  0  0  0
   -1.1280    3.0040    0.2510 C   0  0  0  0  0  0  0  0  0  0  0  0
   -0.3730    0.7720    1.0460 C   0  0  0  0  0  0  0  0  0  0  0  0
    1.1630    0.8930    1.0450 C   0  0  0  0  0  0  0  0  0  0  0  0
    1.6550   -0.3520    0.7680 C   0  0  0  0  0  0  0  0  0  0  0  0
    2.9970   -0.6760    0.6520 C   0  0  0  0  0  0  0  0  0  0  0  0
    3.6420   -1.8170    0.4100 C   0  0  0  0  0  0  0  0  0  0  0  0
    5.0790   -1.4400    0.4240 C   0  0  1  0  0  0  0  0  0  0  0  0
    6.0450   -2.2760   -0.2910 C   0  0  0  0  0  0  0  0  0  0  0  0
    7.1220   -1.3920   -0.5300 O   0  0  0  0  0  0  0  0  0  0  0  0
    7.7910   -1.1300    0.5840 O   0  0  0  0  0  0  0  0  0  0  0  0
    7.9590    0.3020    0.5160 C   0  0  0  0  0  0  0  0  0  0  0  0
    4.9490   -0.1710   -0.2060 O   0  0  0  0  0  0  0  0  0  0  0  0
    4.0420    0.3070    0.7880 O   0  0  0  0  0  0  0  0  0  0  0  0
  1  2  1  0
  2  3  1  0
  3  4  1  0
  4  5  1  0
  5  6  1  0
  6  7  1  6
  6  8  1  0
  6  9  1  0
  9 10  1  1
  9 11  1  0
 11 12  1  0
 12 13  2  3
 13 14  1  0
 14 15  2  0
 14 22  1  0
 15 16  1  0
 16 17  1  6
 16 21  1  0
 17 18  1  0
 18 19  1  0
 19 20  1  0
 21 22  1  0
M  END
