
     RDKit          3D

 23 22  0  0  0  0  0  0  0  0999 V2000
   -7.3580   -2.1680   -0.1440 C   0  0  0  0  0  0  0  0  0  0  0  0
   -5.9800   -2.1550    0.3940 C   0  0  0  0  0  0  0  0  0  0  0  0
   -5.0270   -1.4380   -0.1640 C   0  0  0  0  0  0  0  0  0  0  0  0
   -3.6980   -1.4740    0.4170 C   0  0  0  0  0  0  0  0  0  0  0  0
   -2.6870   -0.7810   -0.0880 C   0  0  0  0  0  0  0  0  0  0  0  0
   -1.3660   -0.8120    0.4830 C   0  0  0  0  0  0  0  0  0  0  0  0
   -0.3780   -0.0730   -0.0900 C   0  0  0  0  0  0  0  0  0  0  0  0
    0.9660   -0.0760    0.4520 C   0  0  0  0  0  0  0  0  0  0  0  0
    1.1170   -0.9080    1.7150 C   0  0  0  0  0  0  0  0  0  0  0  0
    0.8650   -2.2540    1.4650 O   0  0  0  0  0  0  0  0  0  0  0  0
    1.9710    0.5830   -0.0000 C   0  0  0  0  0  0  0  0  0  0  0  0
    3.2730    0.3910    0.7600 C   0  0  0  0  0  0  0  0  0  0  0  0
    4.3870    0.9830    0.4540 C   0  0  0  0  0  0  0  0  0  0  0  0
    5.5170    0.7140    1.2440 O   0  0  0  0  0  0  0  0  0  0  0  0
    5.4030    0.4810    2.5570 O   0  0  0  0  0  0  0  0  0  0  0  0
    6.5510   -0.0360    3.1100 C   0  0  0  0  0  0  0  0  0  0  0  0
    2.0610    1.4890   -1.1230 C   0  0  1  0  0  0  0  0  0  0  0  0
    0.9030    1.7340   -1.9950 C   0  0  0  0  0  0  0  0  0  0  0  0
    2.4130    2.8750   -0.5160 C   0  0  0  0  0  0  0  0  0  0  0  0
    3.1960    1.1430   -1.9280 O   0  0  0  0  0  0  0  0  0  0  0  0
    3.0530   -0.1590   -2.3950 C   0  0  0  0  0  0  0  0  0  0  0  0
   -5.2960   -0.6520   -1.3050 O   0  0  0  0  0  0  0  0  0  0  0  0
   -5.6110    0.7280   -1.1960 C   0  0  0  0  0  0  0  0  0  0  0  0
  1  2  1  0
  2  3  2  3
  3  4  1  0
  3 22  1  0
  4  5  2  3
  5  6  1  0
  6  7  2  3
  7  8  1  0
  8  9  1  0
  8 11  2  3
  9 10  1  0
 11 12  1  0
 11 17  1  0
 12 13  2  3
 13 14  1  0
 14 15  1  0
 15 16  1  0
 17 18  1  6
 17 19  1  0
 17 20  1  0
 20 21  1  0
 22 23  1  0
M  END
