
     RDKit          3D

 21 21  0  0  0  0  0  0  0  0999 V2000
    0.3680    3.6840   -1.1280 O   0  0  0  0  0  0  0  0  0  0  0  0
    0.5090    4.1650    0.0370 C   0  0  0  0  0  0  0  0  0  0  0  0
    0.5410    5.5220    0.2880 O   0  0  0  0  0  0  0  0  0  0  0  0
    0.6340    3.2770    1.0730 O   0  0  0  0  0  0  0  0  0  0  0  0
    0.6080    1.9000    0.8750 C   0  0  0  0  0  0  0  0  0  0  0  0
    1.7580    1.1650    0.6290 C   0  0  0  0  0  0  0  0  0  0  0  0
    1.7550   -0.1930    0.4310 C   0  0  0  0  0  0  0  0  0  0  0  0
    2.8880   -0.9420    0.1850 O   0  0  0  0  0  0  0  0  0  0  0  0
    3.3840   -1.1960   -1.0820 C   0  0  0  0  0  0  0  0  0  0  0  0
    2.7350   -0.6960   -2.0520 O   0  0  0  0  0  0  0  0  0  0  0  0
    4.6060   -2.0050   -1.3370 C   0  0  0  0  0  0  0  0  0  0  0  0
    5.0800   -2.4060   -0.0720 O   0  0  0  0  0  0  0  0  0  0  0  0
    0.5680   -0.8230    0.4830 N   0  0  0  0  0  0  0  0  0  0  0  0
   -0.5870   -0.1390    0.7220 C   0  0  0  0  0  0  0  0  0  0  0  0
   -1.9060   -0.8270    0.7810 C   0  0  2  0  0  0  0  0  0  0  0  0
   -2.7080   -0.5800   -0.4800 C   0  0  0  0  0  0  0  0  0  0  0  0
   -4.0470   -1.2730   -0.4310 C   0  0  0  0  0  0  0  0  0  0  0  0
   -4.7450   -1.0170   -1.6090 O   0  0  0  0  0  0  0  0  0  0  0  0
   -2.6430   -0.3810    1.8710 O   0  0  0  0  0  0  0  0  0  0  0  0
   -2.8300   -1.3670    2.7020 O   0  0  0  0  0  0  0  0  0  0  0  0
   -0.5480    1.1930    0.9120 N   0  0  0  0  0  0  0  0  0  0  0  0
  1  2  2  0
  2  3  1  0
  2  4  1  0
  4  5  1  0
  5  6  2  0
  5 21  1  0
  6  7  1  0
  7  8  1  0
  7 13  2  0
  8  9  1  0
  9 10  2  0
  9 11  1  0
 11 12  1  0
 13 14  1  0
 14 15  1  0
 14 21  2  0
 15 16  1  6
 15 19  1  0
 16 17  1  0
 17 18  1  0
 19 20  1  0
M  END
