
     RDKit          3D

 20 21  0  0  0  0  0  0  0  0999 V2000
    6.3220   -0.8810   -0.8050 N   0  0  0  0  0  0  0  0  0  0  0  0
    5.0190   -0.5730   -0.3250 C   0  0  0  0  0  0  0  0  0  0  0  0
    3.8760   -0.8610   -1.0440 C   0  0  0  0  0  0  0  0  0  0  0  0
    2.6210   -0.5480   -0.5490 C   0  0  0  0  0  0  0  0  0  0  0  0
    2.4720    0.0480    0.6510 N   0  0  0  0  0  0  0  0  0  0  0  0
    1.1590    0.3850    1.1900 C   0  0  1  0  0  0  0  0  0  0  0  0
    0.7290    1.7100    0.5930 C   0  0  0  0  0  0  0  0  0  0  0  0
   -0.5700    1.3180   -0.0990 C   0  0  2  0  0  0  0  0  0  0  0  0
   -1.4940    2.3340   -0.1000 O   0  0  0  0  0  0  0  0  0  0  0  0
   -0.9750    0.1580    0.8020 C   0  0  1  0  0  0  0  0  0  0  0  0
   -2.1130   -0.5990    0.1660 C   0  0  0  0  0  0  0  0  0  0  0  0
   -3.2120    0.2580    0.1870 O   0  0  0  0  0  0  0  0  0  0  0  0
   -4.4760   -0.5170   -0.4920 P   0  0  0  0  0  0  0  0  0  0  0  0
   -4.4210   -2.1780   -0.7020 O   0  0  0  0  0  0  0  0  0  0  0  0
   -5.1980   -0.7100    0.8340 O   0  0  0  0  0  0  0  0  0  0  0  0
   -5.7060    0.3240   -1.2030 O   0  0  0  0  0  0  0  0  0  0  0  0
    0.1990   -0.5450    0.8630 O   0  0  0  0  0  0  0  0  0  0  0  0
    3.6000    0.3200    1.3360 C   0  0  0  0  0  0  0  0  0  0  0  0
    3.4230    0.8840    2.4680 O   0  0  0  0  0  0  0  0  0  0  0  0
    4.8310    0.0250    0.8750 N   0  0  0  0  0  0  0  0  0  0  0  0
  1  2  1  0
  2  3  1  0
  2 20  2  0
  3  4  2  0
  4  5  1  0
  6  5  1  6
  5 18  1  0
  6  7  1  0
  6 17  1  0
  7  8  1  0
  8  9  1  1
  8 10  1  0
 10 11  1  6
 10 17  1  0
 11 12  1  0
 12 13  1  0
 13 14  1  0
 13 15  1  0
 13 16  1  0
 18 19  2  0
 18 20  1  0
M  END
