
     RDKit          3D

 23 22  0  0  0  0  0  0  0  0999 V2000
    2.4310   -2.8160   -0.5120 C   0  0  0  0  0  0  0  0  0  0  0  0
    1.3470   -2.1220   -1.3270 C   0  0  0  0  0  0  0  0  0  0  0  0
    0.9550   -0.9110   -0.6000 C   0  0  0  0  0  0  0  0  0  0  0  0
    1.8720    0.1130   -0.4870 O   0  0  0  0  0  0  0  0  0  0  0  0
    2.5010    0.8650   -1.4550 C   0  0  2  0  0  0  0  0  0  0  0  0
    1.5090    1.6060   -2.3830 C   0  0  0  0  0  0  0  0  0  0  0  0
    3.4470    0.0580   -2.2970 C   0  0  0  0  0  0  0  0  0  0  0  0
    3.3370    1.9700   -0.8700 C   0  0  0  0  0  0  0  0  0  0  0  0
    3.5150    2.1870    0.5800 C   0  0  0  0  0  0  0  0  0  0  0  0
    3.9080    2.7380   -1.6270 O   0  0  0  0  0  0  0  0  0  0  0  0
   -0.2310   -0.7940   -0.0730 C   0  0  0  0  0  0  0  0  0  0  0  0
   -1.2010   -1.8680   -0.2010 C   0  0  0  0  0  0  0  0  0  0  0  0
   -2.4490   -1.8050    0.3110 C   0  0  0  0  0  0  0  0  0  0  0  0
   -3.3740   -2.9170    0.1480 C   0  0  0  0  0  0  0  0  0  0  0  0
   -4.5850   -2.8400    0.6530 C   0  0  0  0  0  0  0  0  0  0  0  0
   -4.9390   -1.6810    1.3310 O   0  0  0  0  0  0  0  0  0  0  0  0
   -5.5310   -3.9230    0.5120 C   0  0  0  0  0  0  0  0  0  0  0  0
   -6.6750   -3.8280    0.9990 O   0  0  0  0  0  0  0  0  0  0  0  0
   -0.7200    0.3390    0.7520 C   0  0  0  0  0  0  0  0  0  0  0  0
    0.2360    1.4130    1.0840 C   0  0  0  0  0  0  0  0  0  0  0  0
   -0.5620    2.4190    1.9600 C   0  0  0  0  0  0  0  0  0  0  0  0
   -1.6380    2.8920    1.2150 O   0  0  0  0  0  0  0  0  0  0  0  0
   -2.3450    3.7830    1.9900 C   0  0  0  0  0  0  0  0  0  0  0  0
  1  2  1  0
  2  3  1  0
  3  4  1  0
  3 11  2  3
  4  5  1  0
  5  6  1  6
  5  7  1  0
  5  8  1  0
  8  9  1  0
  8 10  2  0
 11 12  1  0
 11 19  1  0
 12 13  2  3
 13 14  1  0
 14 15  2  3
 15 16  1  0
 15 17  1  0
 17 18  2  0
 19 20  1  0
 20 21  1  0
 21 22  1  0
 22 23  1  0
M  END
