
     RDKit          3D

 21 21  0  0  0  0  0  0  0  0999 V2000
   -1.5640   -2.8670   -1.5240 O   0  0  0  0  0  0  0  0  0  0  0  0
   -1.8280   -2.8270   -0.3010 C   0  0  0  0  0  0  0  0  0  0  0  0
   -1.8560   -4.0760    0.3530 O   0  0  0  0  0  0  0  0  0  0  0  0
   -2.1050   -1.6170    0.4940 C   0  0  0  0  0  0  0  0  0  0  0  0
   -1.9700   -0.3950   -0.3360 C   0  0  2  0  0  0  0  0  0  0  0  0
   -0.6320   -0.1420   -0.9360 C   0  0  0  0  0  0  0  0  0  0  0  0
    0.4360    0.0000   -0.0030 N   0  0  0  0  0  0  0  0  0  0  0  0
    1.2550   -1.0900    0.4850 C   0  0  0  0  0  0  0  0  0  0  0  0
    2.5940   -0.4250    0.8380 C   0  0  1  0  0  0  0  0  0  0  0  0
    3.3370   -0.1630   -0.3020 O   0  0  0  0  0  0  0  0  0  0  0  0
    4.9320   -0.8110   -0.2250 P   0  0  0  0  0  0  0  0  0  0  0  0
    6.0580    0.3830    0.3360 O   0  0  0  0  0  0  0  0  0  0  0  0
    5.4170   -1.3160   -1.8050 O   0  0  0  0  0  0  0  0  0  0  0  0
    2.1150    0.8360    1.3170 O   0  0  0  0  0  0  0  0  0  0  0  0
    0.9450    1.1570    0.6460 C   0  0  0  0  0  0  0  0  0  0  0  0
    0.4460    2.3080    0.6390 O   0  0  0  0  0  0  0  0  0  0  0  0
   -2.5490    0.8020    0.3250 C   0  0  0  0  0  0  0  0  0  0  0  0
   -3.0470    0.6700    1.4630 O   0  0  0  0  0  0  0  0  0  0  0  0
   -2.5560    2.0730   -0.2820 N   0  0  0  0  0  0  0  0  0  0  0  0
   -3.1330    3.2490    0.3870 C   0  0  0  0  0  0  0  0  0  0  0  0
   -3.0110    4.3600   -0.4230 O   0  0  0  0  0  0  0  0  0  0  0  0
  1  2  2  0
  2  3  1  0
  2  4  1  0
  5  4  1  1
  5  6  1  0
  5 17  1  0
  6  7  1  0
  7  8  1  0
  7 15  1  0
  8  9  1  0
  9 10  1  6
  9 14  1  0
 10 11  1  0
 11 12  1  0
 11 13  1  0
 14 15  1  0
 15 16  2  0
 17 18  2  0
 17 19  1  0
 19 20  1  0
 20 21  1  0
M  END
