
     RDKit          3D

 23 22  0  0  0  0  0  0  0  0999 V2000
    0.4390   -2.6920    1.4930 C   0  0  0  0  0  0  0  0  0  0  0  0
    1.0780   -1.8940    0.4200 C   0  0  0  0  0  0  0  0  0  0  0  0
    0.5730   -0.5570    0.1190 C   0  0  0  0  0  0  0  0  0  0  0  0
    1.5640    0.3310   -0.3380 O   0  0  0  0  0  0  0  0  0  0  0  0
    2.9100    0.3400   -0.3170 C   0  0  2  0  0  0  0  0  0  0  0  0
    3.4850    1.6370   -0.9530 C   0  0  0  0  0  0  0  0  0  0  0  0
    3.5830   -0.8420   -1.0320 C   0  0  0  0  0  0  0  0  0  0  0  0
    3.4100    0.3760    1.0770 C   0  0  0  0  0  0  0  0  0  0  0  0
    4.8610    0.3560    1.3530 C   0  0  0  0  0  0  0  0  0  0  0  0
    2.6130    0.4210    1.9810 O   0  0  0  0  0  0  0  0  0  0  0  0
   -0.6150   -0.0200    0.1900 C   0  0  0  0  0  0  0  0  0  0  0  0
   -0.5590    1.4500   -0.2400 C   0  0  0  0  0  0  0  0  0  0  0  0
   -1.6120    2.2160   -0.2460 C   0  0  0  0  0  0  0  0  0  0  0  0
   -1.5300    3.6080   -0.6610 C   0  0  0  0  0  0  0  0  0  0  0  0
   -2.5930    4.3990   -0.6720 C   0  0  0  0  0  0  0  0  0  0  0  0
   -3.8410    3.9140   -0.2800 O   0  0  0  0  0  0  0  0  0  0  0  0
   -2.4800    5.7660   -1.0870 C   0  0  0  0  0  0  0  0  0  0  0  0
   -1.3800    6.2820   -1.4580 O   0  0  0  0  0  0  0  0  0  0  0  0
   -1.9550   -0.4270    0.4520 C   0  0  0  0  0  0  0  0  0  0  0  0
   -2.4490   -1.8020    0.5610 C   0  0  0  0  0  0  0  0  0  0  0  0
   -2.2810   -2.6380   -0.6800 C   0  0  0  0  0  0  0  0  0  0  0  0
   -2.7390   -3.9180   -0.4930 O   0  0  0  0  0  0  0  0  0  0  0  0
   -4.0790   -3.9470   -0.1660 C   0  0  0  0  0  0  0  0  0  0  0  0
  1  2  1  0
  2  3  1  0
  3  4  1  0
  3 11  2  3
  4  5  1  0
  5  6  1  6
  5  7  1  0
  5  8  1  0
  8  9  1  0
  8 10  2  0
 11 12  1  0
 11 19  1  0
 12 13  2  3
 13 14  1  0
 14 15  2  3
 15 16  1  0
 15 17  1  0
 17 18  2  0
 19 20  1  0
 20 21  1  0
 21 22  1  0
 22 23  1  0
M  END
