
     RDKit          3D

 23 22  0  0  0  0  0  0  0  0999 V2000
   -7.0540    0.3980   -3.4020 C   0  0  0  0  0  0  0  0  0  0  0  0
   -6.0900    0.8240   -2.4630 O   0  0  0  0  0  0  0  0  0  0  0  0
   -6.1680    0.4220   -1.1530 C   0  0  0  0  0  0  0  0  0  0  0  0
   -5.0730    0.2140   -0.4650 C   0  0  0  0  0  0  0  0  0  0  0  0
   -3.7880    0.4080   -1.0810 C   0  0  0  0  0  0  0  0  0  0  0  0
   -2.6660    0.1960   -0.3780 C   0  0  0  0  0  0  0  0  0  0  0  0
   -1.3740    0.3790   -0.9590 C   0  0  0  0  0  0  0  0  0  0  0  0
   -0.2450    0.1870   -0.3210 C   0  0  0  0  0  0  0  0  0  0  0  0
   -0.2310   -0.2330    1.0460 C   0  0  0  0  0  0  0  0  0  0  0  0
    0.9130   -0.4370    1.7230 C   0  0  0  0  0  0  0  0  0  0  0  0
    0.7530   -0.8770    3.1560 C   0  0  0  0  0  0  0  0  0  0  0  0
    2.1710   -0.2340    1.0710 C   0  0  0  0  0  0  0  0  0  0  0  0
    3.3910   -0.3680    1.5230 C   0  0  0  0  0  0  0  0  0  0  0  0
    3.7620   -0.7800    2.8840 C   0  0  0  0  0  0  0  0  0  0  0  0
    4.5110   -0.0840    0.6020 C   0  0  0  0  0  0  0  0  0  0  0  0
    5.6760   -0.2040    1.0020 O   0  0  0  0  0  0  0  0  0  0  0  0
    4.2380    0.3390   -0.7840 C   0  0  0  0  0  0  0  0  0  0  0  0
    5.4980    0.5470   -1.5200 C   0  0  0  0  0  0  0  0  0  0  0  0
    5.5360    0.9090   -2.7180 O   0  0  0  0  0  0  0  0  0  0  0  0
    6.6990    0.3360   -0.8670 O   0  0  0  0  0  0  0  0  0  0  0  0
    7.9330    0.5180   -1.5120 C   0  0  0  0  0  0  0  0  0  0  0  0
   -5.1680   -0.1960    0.8690 O   0  0  0  0  0  0  0  0  0  0  0  0
   -5.8240   -1.4180    1.1440 C   0  0  0  0  0  0  0  0  0  0  0  0
  1  2  1  0
  2  3  1  0
  3  4  2  3
  4  5  1  0
  4 22  1  0
  5  6  2  3
  6  7  1  0
  7  8  2  3
  8  9  1  0
  9 10  2  3
 10 11  1  0
 10 12  1  0
 12 13  2  3
 13 14  1  0
 13 15  1  0
 15 16  2  0
 15 17  1  0
 17 18  1  0
 18 19  2  0
 18 20  1  0
 20 21  1  0
 22 23  1  0
M  END
