
     RDKit          3D

 23 22  0  0  0  0  0  0  0  0999 V2000
    6.8610    2.8770   -0.0970 C   0  0  0  0  0  0  0  0  0  0  0  0
    5.6530    2.3900   -0.3450 C   0  0  0  0  0  0  0  0  0  0  0  0
    5.0970    1.3690    0.5250 C   0  0  0  0  0  0  0  0  0  0  0  0
    3.9130    0.8250    0.3650 C   0  0  0  0  0  0  0  0  0  0  0  0
    3.0610    1.2190   -0.7210 C   0  0  0  0  0  0  0  0  0  0  0  0
    1.8790    0.7020   -0.9140 C   0  0  0  0  0  0  0  0  0  0  0  0
    1.2920   -0.3140   -0.0720 C   0  0  0  0  0  0  0  0  0  0  0  0
    0.1110   -0.8290   -0.2660 C   0  0  0  0  0  0  0  0  0  0  0  0
   -0.7370   -0.4350   -1.3480 C   0  0  0  0  0  0  0  0  0  0  0  0
   -1.9350   -1.0090   -1.4810 C   0  0  0  0  0  0  0  0  0  0  0  0
   -2.3530   -1.9520   -0.6110 O   0  0  0  0  0  0  0  0  0  0  0  0
   -3.6110   -2.2270   -0.1790 C   0  0  0  0  0  0  0  0  0  0  0  0
   -4.3670   -1.2110    0.5940 C   0  0  0  0  0  0  0  0  0  0  0  0
   -4.6590    0.0890   -0.0250 C   0  0  2  0  0  0  0  0  0  0  0  0
   -5.3700   -0.1110   -1.2090 O   0  0  0  0  0  0  0  0  0  0  0  0
   -3.5500    1.0160   -0.2620 C   0  0  0  0  0  0  0  0  0  0  0  0
   -3.5740    1.9000   -1.2560 C   0  0  0  0  0  0  0  0  0  0  0  0
   -5.6230    0.8010    0.7790 O   0  0  0  0  0  0  0  0  0  0  0  0
   -5.0800    1.0910    2.0180 C   0  0  0  0  0  0  0  0  0  0  0  0
   -0.3410   -1.8220    0.6420 O   0  0  0  0  0  0  0  0  0  0  0  0
    0.1330   -3.1570    0.5180 C   0  0  0  0  0  0  0  0  0  0  0  0
    5.8760    0.9360    1.6070 O   0  0  0  0  0  0  0  0  0  0  0  0
    6.4320   -0.3550    1.6060 C   0  0  0  0  0  0  0  0  0  0  0  0
  1  2  2  0
  2  3  1  0
  3  4  2  3
  3 22  1  0
  4  5  1  0
  5  6  2  3
  6  7  1  0
  7  8  2  3
  8  9  1  0
  8 20  1  0
  9 10  2  3
 10 11  1  0
 11 12  1  0
 12 13  1  0
 13 14  1  0
 14 15  1  6
 14 16  1  0
 14 18  1  0
 16 17  2  0
 18 19  1  0
 20 21  1  0
 22 23  1  0
M  END
