
     RDKit          3D

 21 22  0  0  0  0  0  0  0  0999 V2000
    2.3260    2.3340    0.4030 O   0  0  0  0  0  0  0  0  0  0  0  0
    2.2030    1.1250    0.1610 C   0  0  0  0  0  0  0  0  0  0  0  0
    3.2630    0.1980    0.3480 N   0  0  0  0  0  0  0  0  0  0  0  0
    4.5660    0.6660    0.8460 C   0  0  0  0  0  0  0  0  0  0  0  0
    5.4600   -0.5530    0.9310 C   0  0  0  0  0  0  0  0  0  0  0  0
    5.5460   -1.0750   -0.3640 O   0  0  0  0  0  0  0  0  0  0  0  0
    6.3100   -2.1370   -0.3600 O   0  0  0  0  0  0  0  0  0  0  0  0
    0.9900    0.6470   -0.3100 O   0  0  0  0  0  0  0  0  0  0  0  0
   -0.1130    1.5280   -0.5180 C   0  0  0  0  0  0  0  0  0  0  0  0
   -1.2480    0.6320   -1.0340 C   0  0  1  0  0  0  0  0  0  0  0  0
   -1.4890   -0.3000   -0.0570 O   0  0  0  0  0  0  0  0  0  0  0  0
   -2.8000   -0.6020    0.1700 C   0  0  2  0  0  0  0  0  0  0  0  0
   -3.6330   -0.6490   -1.1070 C   0  0  0  0  0  0  0  0  0  0  0  0
   -3.6510    0.7190   -1.6180 N   0  0  0  0  0  0  0  0  0  0  0  0
   -2.4340    1.4530   -1.3850 C   0  0  0  0  0  0  0  0  0  0  0  0
   -2.4140    2.6930   -1.4800 O   0  0  0  0  0  0  0  0  0  0  0  0
   -3.4870    0.3580    1.1310 C   0  0  0  0  0  0  0  0  0  0  0  0
   -4.6690   -0.2950    1.5520 O   0  0  0  0  0  0  0  0  0  0  0  0
   -4.4210   -1.3120    2.3160 O   0  0  0  0  0  0  0  0  0  0  0  0
   -3.2030   -1.7400    2.2060 O   0  0  0  0  0  0  0  0  0  0  0  0
   -2.8370   -1.9710    0.8630 C   0  0  0  0  0  0  0  0  0  0  0  0
  1  2  2  0
  2  3  1  0
  2  8  1  0
  3  4  1  0
  4  5  1  0
  5  6  1  0
  6  7  1  0
  8  9  1  0
 10  9  1  1
 10 11  1  0
 10 15  1  0
 11 12  1  0
 12 13  1  6
 12 17  1  0
 12 21  1  0
 13 14  1  0
 14 15  1  0
 15 16  2  0
 17 18  1  0
 18 19  1  0
 19 20  1  0
 20 21  1  0
M  END
