
     RDKit          3D

 21 21  0  0  0  0  0  0  0  0999 V2000
    0.5580    4.0040   -0.3210 O   0  0  0  0  0  0  0  0  0  0  0  0
    0.4760    4.2240    0.9230 C   0  0  0  0  0  0  0  0  0  0  0  0
    0.5140    5.5300    1.3800 O   0  0  0  0  0  0  0  0  0  0  0  0
    0.3510    3.1200    1.7390 O   0  0  0  0  0  0  0  0  0  0  0  0
    0.3170    1.8360    1.2390 C   0  0  0  0  0  0  0  0  0  0  0  0
    1.5070    1.1550    1.0930 C   0  0  0  0  0  0  0  0  0  0  0  0
    1.5310   -0.1290    0.5990 C   0  0  0  0  0  0  0  0  0  0  0  0
    2.6740   -0.8680    0.4250 O   0  0  0  0  0  0  0  0  0  0  0  0
    3.4300   -0.8840   -0.7260 C   0  0  0  0  0  0  0  0  0  0  0  0
    3.0420   -0.1690   -1.6810 O   0  0  0  0  0  0  0  0  0  0  0  0
    4.6550   -1.6780   -0.9100 C   0  0  0  0  0  0  0  0  0  0  0  0
    4.9560   -2.4190    0.2390 O   0  0  0  0  0  0  0  0  0  0  0  0
    0.3490   -0.6850    0.2680 N   0  0  0  0  0  0  0  0  0  0  0  0
   -0.8190   -0.0530    0.3970 C   0  0  0  0  0  0  0  0  0  0  0  0
   -2.1370   -0.6280    0.0460 C   0  0  2  0  0  0  0  0  0  0  0  0
   -2.0380   -1.8560   -0.8060 C   0  0  0  0  0  0  0  0  0  0  0  0
   -3.4350   -2.3420   -1.0930 C   0  0  0  0  0  0  0  0  0  0  0  0
   -4.2000   -1.4000   -1.7630 O   0  0  0  0  0  0  0  0  0  0  0  0
   -2.8360    0.3620   -0.6630 O   0  0  0  0  0  0  0  0  0  0  0  0
   -3.9050    0.7640   -0.0080 O   0  0  0  0  0  0  0  0  0  0  0  0
   -0.8110    1.2020    0.8830 N   0  0  0  0  0  0  0  0  0  0  0  0
  1  2  2  0
  2  3  1  0
  2  4  1  0
  4  5  1  0
  5  6  2  0
  5 21  1  0
  6  7  1  0
  7  8  1  0
  7 13  2  0
  8  9  1  0
  9 10  2  0
  9 11  1  0
 11 12  1  0
 13 14  1  0
 14 15  1  0
 14 21  2  0
 15 16  1  6
 15 19  1  0
 16 17  1  0
 17 18  1  0
 19 20  1  0
M  END
