
     RDKit          3D

 23 22  0  0  0  0  0  0  0  0999 V2000
    4.9510   -5.0110   -3.3600 C   0  0  0  0  0  0  0  0  0  0  0  0
    4.1040   -3.7930   -3.4120 C   0  0  0  0  0  0  0  0  0  0  0  0
    3.3850   -3.4670   -2.3590 C   0  0  0  0  0  0  0  0  0  0  0  0
    2.5530   -2.2800   -2.3950 C   0  0  0  0  0  0  0  0  0  0  0  0
    1.8340   -1.9510   -1.3480 C   0  0  0  0  0  0  0  0  0  0  0  0
    1.0000   -0.7330   -1.4280 C   0  0  0  0  0  0  0  0  0  0  0  0
    0.2650   -0.4000   -0.3640 C   0  0  0  0  0  0  0  0  0  0  0  0
   -0.5910    0.8010   -0.3710 C   0  0  0  0  0  0  0  0  0  0  0  0
   -0.4840    1.5100   -1.6820 C   0  0  0  0  0  0  0  0  0  0  0  0
   -1.1630    2.6210   -1.9250 O   0  0  0  0  0  0  0  0  0  0  0  0
   -1.3290    1.1940    0.6120 C   0  0  0  0  0  0  0  0  0  0  0  0
   -2.1270    2.4590    0.3870 C   0  0  0  0  0  0  0  0  0  0  0  0
   -2.9300    3.0000    1.2720 C   0  0  0  0  0  0  0  0  0  0  0  0
   -3.5820    4.2020    0.8300 O   0  0  0  0  0  0  0  0  0  0  0  0
   -3.4300    5.2480    1.6800 O   0  0  0  0  0  0  0  0  0  0  0  0
   -4.1360    6.3430    1.1880 C   0  0  0  0  0  0  0  0  0  0  0  0
   -1.5500    0.6250    1.9650 C   0  0  1  0  0  0  0  0  0  0  0  0
   -0.9150   -0.6370    2.3360 C   0  0  0  0  0  0  0  0  0  0  0  0
   -1.0400    1.7180    2.9340 C   0  0  0  0  0  0  0  0  0  0  0  0
   -2.9450    0.5790    2.1100 O   0  0  0  0  0  0  0  0  0  0  0  0
   -3.4170    0.0380    3.2660 C   0  0  0  0  0  0  0  0  0  0  0  0
    3.4220   -4.2470   -1.2300 O   0  0  0  0  0  0  0  0  0  0  0  0
    4.3960   -4.1790   -0.2150 C   0  0  0  0  0  0  0  0  0  0  0  0
  1  2  1  0
  2  3  2  3
  3  4  1  0
  3 22  1  0
  4  5  2  3
  5  6  1  0
  6  7  2  3
  7  8  1  0
  8  9  1  0
  8 11  2  3
  9 10  1  0
 11 12  1  0
 11 17  1  0
 12 13  2  3
 13 14  1  0
 14 15  1  0
 15 16  1  0
 17 18  1  6
 17 19  1  0
 17 20  1  0
 20 21  1  0
 22 23  1  0
M  END
