
     RDKit          3D

 13 13  0  0  0  0  0  0  0  0999 V2000
   -2.1340    0.2290    2.6150 O   0  0  0  0  0  0  0  0  0  0  0  0
   -2.1490    0.0900    1.3630 C   0  0  0  0  0  0  0  0  0  0  0  0
   -3.2180   -0.0750    0.4980 O   0  0  0  0  0  0  0  0  0  0  0  0
   -2.9360    0.5900   -0.7410 C   0  0  0  0  0  0  0  0  0  0  0  0
   -1.4440    0.4900   -0.8540 C   0  0  0  0  0  0  0  0  0  0  0  0
   -0.9230    0.0770    0.5180 C   0  0  2  0  0  0  0  0  0  0  0  0
   -0.3460   -1.1580    0.4230 O   0  0  0  0  0  0  0  0  0  0  0  0
    0.9770   -1.2390    0.7660 C   0  0  0  0  0  0  0  0  0  0  0  0
    1.8960   -0.3910   -0.0620 C   0  0  1  0  0  0  0  0  0  0  0  0
    3.2190   -0.5700    0.3950 O   0  0  0  0  0  0  0  0  0  0  0  0
    1.8800   -0.8360   -1.3980 O   0  0  0  0  0  0  0  0  0  0  0  0
    1.5330    0.1280   -2.2190 O   0  0  0  0  0  0  0  0  0  0  0  0
    2.4770    1.0070   -2.3660 O   0  0  0  0  0  0  0  0  0  0  0  0
  1  2  2  0
  2  3  1  0
  2  6  1  0
  3  4  1  0
  4  5  1  0
  5  6  1  0
  6  7  1  6
  7  8  1  0
  8  9  1  0
  9 10  1  1
  9 11  1  0
 11 12  1  0
 12 13  1  0
M  END
