
     RDKit          3D

 13 13  0  0  0  0  0  0  0  0999 V2000
    1.2010    1.9900   -0.9610 O   0  0  0  0  0  0  0  0  0  0  0  0
    0.9710    0.9050   -0.3420 C   0  0  0  0  0  0  0  0  0  0  0  0
    1.9160   -0.0950   -0.3350 O   0  0  0  0  0  0  0  0  0  0  0  0
    3.1250    0.1390   -1.0340 C   0  0  0  0  0  0  0  0  0  0  0  0
    3.9300   -0.9830   -0.9020 O   0  0  0  0  0  0  0  0  0  0  0  0
    4.2140   -1.2460    0.3480 O   0  0  0  0  0  0  0  0  0  0  0  0
   -0.3380    0.7770    0.3560 C   0  0  1  0  0  0  0  0  0  0  0  0
   -1.4620    0.8850   -0.6430 C   0  0  0  0  0  0  0  0  0  0  0  0
   -2.6290    1.1400    0.0760 O   0  0  0  0  0  0  0  0  0  0  0  0
   -2.8560    0.1490    1.0260 C   0  0  0  0  0  0  0  0  0  0  0  0
   -2.4740   -1.2210    0.4930 C   0  0  0  0  0  0  0  0  0  0  0  0
   -1.1120   -1.3310    0.2680 O   0  0  0  0  0  0  0  0  0  0  0  0
   -0.4250   -0.4640    0.9800 O   0  0  0  0  0  0  0  0  0  0  0  0
  1  2  2  0
  2  3  1  0
  7  2  1  6
  3  4  1  0
  4  5  1  0
  5  6  1  0
  7  8  1  0
  7 13  1  0
  8  9  1  0
  9 10  1  0
 10 11  1  0
 11 12  1  0
 12 13  1  0
M  END
