
     RDKit          3D

 13 13  0  0  0  0  0  0  0  0999 V2000
   -4.2550   -0.6000   -1.2110 O   0  0  0  0  0  0  0  0  0  0  0  0
   -3.2420   -0.2670   -0.5160 C   0  0  0  0  0  0  0  0  0  0  0  0
   -3.1240   -0.5830    0.8650 O   0  0  0  0  0  0  0  0  0  0  0  0
   -1.6710   -0.6530    1.0620 C   0  0  0  0  0  0  0  0  0  0  0  0
   -1.0240   -0.5120   -0.2540 C   0  0  2  0  0  0  0  0  0  0  0  0
    0.2230    0.0420    0.0260 O   0  0  0  0  0  0  0  0  0  0  0  0
    1.2270   -0.7190   -0.4720 C   0  0  0  0  0  0  0  0  0  0  0  0
    2.6590   -0.3270   -0.0120 C   0  0  0  0  0  0  0  0  0  0  0  0
    2.9350    0.9650   -0.3740 O   0  0  0  0  0  0  0  0  0  0  0  0
    3.9380    1.1920   -1.1820 O   0  0  0  0  0  0  0  0  0  0  0  0
   -1.9890    0.4790   -0.9940 C   0  0  2  0  0  0  0  0  0  0  0  0
   -1.9650    1.6800   -0.2790 O   0  0  0  0  0  0  0  0  0  0  0  0
   -0.8090    2.2850   -0.5500 O   0  0  0  0  0  0  0  0  0  0  0  0
  1  2  2  0
  2  3  1  0
  2 11  1  0
  3  4  1  0
  4  5  1  0
  5  6  1  1
  5 11  1  0
  6  7  1  0
  7  8  1  0
  8  9  1  0
  9 10  1  0
 11 12  1  1
 12 13  1  0
M  END
