
     RDKit          3D

 13 13  0  0  0  0  0  0  0  0999 V2000
    0.2430   -1.4680   -1.2900 O   0  0  0  0  0  0  0  0  0  0  0  0
   -0.4180   -0.9330   -0.3970 C   0  0  0  0  0  0  0  0  0  0  0  0
    0.1680   -0.5470    0.8380 O   0  0  0  0  0  0  0  0  0  0  0  0
    1.5130   -0.7610    0.8400 C   0  0  0  0  0  0  0  0  0  0  0  0
    2.2090    0.1840   -0.2250 C   0  0  0  0  0  0  0  0  0  0  0  0
    3.4050   -0.4590   -0.2650 O   0  0  0  0  0  0  0  0  0  0  0  0
    4.4880    0.0930   -0.1020 O   0  0  0  0  0  0  0  0  0  0  0  0
    4.3970    1.3160    0.4270 O   0  0  0  0  0  0  0  0  0  0  0  0
   -1.8560   -0.7090   -0.5870 C   0  0  2  0  0  0  0  0  0  0  0  0
   -2.2700    0.6510    0.0790 C   0  0  0  0  0  0  0  0  0  0  0  0
   -3.7510    0.3610    0.0800 C   0  0  0  0  0  0  0  0  0  0  0  0
   -3.8370   -1.0010    0.2360 O   0  0  0  0  0  0  0  0  0  0  0  0
   -2.6690   -1.5290    0.1060 O   0  0  0  0  0  0  0  0  0  0  0  0
  1  2  2  0
  2  3  1  0
  9  2  1  1
  3  4  1  0
  4  5  1  0
  5  6  1  0
  6  7  1  0
  7  8  1  0
  9 10  1  0
  9 13  1  0
 10 11  1  0
 11 12  1  0
 12 13  1  0
M  END
