
     RDKit          3D

 13 13  0  0  0  0  0  0  0  0999 V2000
   -2.4040    2.3250    0.9140 O   0  0  0  0  0  0  0  0  0  0  0  0
   -2.4010    1.2300    0.3340 C   0  0  0  0  0  0  0  0  0  0  0  0
   -1.1860    0.8080   -0.4200 C   0  0  0  0  0  0  0  0  0  0  0  0
   -0.7570   -0.5990   -0.0530 C   0  0  2  0  0  0  0  0  0  0  0  0
    0.2370   -0.9720   -0.9020 O   0  0  0  0  0  0  0  0  0  0  0  0
    1.4400   -1.2760   -0.3330 C   0  0  0  0  0  0  0  0  0  0  0  0
    2.0730   -0.1530    0.4410 C   0  0  0  0  0  0  0  0  0  0  0  0
    2.3100    0.9630   -0.3840 O   0  0  0  0  0  0  0  0  0  0  0  0
    2.8560    1.9290    0.2920 O   0  0  0  0  0  0  0  0  0  0  0  0
   -1.9770   -1.4550   -0.1480 C   0  0  0  0  0  0  0  0  0  0  0  0
   -1.9200   -2.6730   -0.4630 O   0  0  0  0  0  0  0  0  0  0  0  0
   -3.2420   -0.9410    0.1100 O   0  0  0  0  0  0  0  0  0  0  0  0
   -3.4760    0.3690    0.3490 O   0  0  0  0  0  0  0  0  0  0  0  0
  1  2  2  0
  2  3  1  0
  2 13  1  0
  3  4  1  0
  4  5  1  6
  4 10  1  0
  5  6  1  0
  6  7  1  0
  7  8  1  0
  8  9  1  0
 10 11  2  0
 10 12  1  0
 12 13  1  0
M  END
