
     RDKit          3D

 20 20  0  0  0  0  0  0  0  0999 V2000
    5.9500    0.5300   -1.9540 C   0  0  0  0  0  0  0  0  0  0  0  0
    5.0250   -0.9910   -2.2560 S   0  0  0  0  0  0  0  0  0  0  0  0
    3.7630   -1.1300   -1.0010 C   0  0  0  0  0  0  0  0  0  0  0  0
    2.9990   -2.1290   -1.0290 O   0  0  0  0  0  0  0  0  0  0  0  0
    3.5790   -0.2000    0.0020 O   0  0  0  0  0  0  0  0  0  0  0  0
    2.6050   -0.3020    0.9750 C   0  0  0  0  0  0  0  0  0  0  0  0
    2.6420   -0.8960    2.2190 C   0  0  0  0  0  0  0  0  0  0  0  0
    1.3990   -0.7200    2.8060 C   0  0  0  0  0  0  0  0  0  0  0  0
    0.6510   -0.0540    1.9610 O   0  0  0  0  0  0  0  0  0  0  0  0
    1.3310    0.2150    0.8570 C   0  0  0  0  0  0  0  0  0  0  0  0
    0.8040    0.9570   -0.3230 C   0  0  0  0  0  0  0  0  0  0  0  0
   -0.5190    1.3410   -0.1210 O   0  0  0  0  0  0  0  0  0  0  0  0
   -1.3850    0.2910    0.0910 C   0  0  1  0  0  0  0  0  0  0  0  0
   -2.2780    0.3660    1.6940 P   0  0  0  0  0  0  0  0  0  0  0  0
   -2.4530   -1.2330    2.3760 O   0  0  0  0  0  0  0  0  0  0  0  0
   -3.8120    1.1310    1.5790 O   0  0  0  0  0  0  0  0  0  0  0  0
   -2.6060    0.1640   -1.3070 P   0  0  0  0  0  0  0  0  0  0  0  0
   -3.6560    1.6760   -1.3430 C   0  0  0  0  0  0  0  0  0  0  0  0
   -3.5880   -1.3820   -1.1790 C   0  0  0  0  0  0  0  0  0  0  0  0
   -4.9570   -1.0820   -1.1410 O   0  0  0  0  0  0  0  0  0  0  0  0
  1  2  1  0
  2  3  1  0
  3  4  2  0
  3  5  1  0
  5  6  1  0
  6  7  1  0
  6 10  2  0
  7  8  2  0
  8  9  1  0
  9 10  1  0
 10 11  1  0
 11 12  1  0
 13 12  1  6
 13 14  1  0
 13 17  1  0
 14 15  1  0
 14 16  1  0
 17 18  1  0
 17 19  1  0
 19 20  1  0
M  END
