
     RDKit          3D

 13 13  0  0  0  0  0  0  0  0999 V2000
    3.7640   -1.3620   -0.8750 O   0  0  0  0  0  0  0  0  0  0  0  0
    3.7670   -0.8270    0.2690 C   0  0  0  0  0  0  0  0  0  0  0  0
    2.6220   -0.2090    0.6980 O   0  0  0  0  0  0  0  0  0  0  0  0
    1.4440   -0.1600   -0.1120 C   0  0  1  0  0  0  0  0  0  0  0  0
    0.4330   -0.7470    0.6430 O   0  0  0  0  0  0  0  0  0  0  0  0
   -0.7180   -0.9810   -0.0550 C   0  0  0  0  0  0  0  0  0  0  0  0
   -1.7500    0.0920    0.0250 C   0  0  1  0  0  0  0  0  0  0  0  0
   -2.8230   -0.2430    0.8570 O   0  0  0  0  0  0  0  0  0  0  0  0
   -3.9620   -0.2840    0.2370 O   0  0  0  0  0  0  0  0  0  0  0  0
   -1.2390    1.4260    0.4670 C   0  0  0  0  0  0  0  0  0  0  0  0
   -0.1420    1.8560   -0.3480 O   0  0  0  0  0  0  0  0  0  0  0  0
    1.1010    1.2490   -0.4340 C   0  0  0  0  0  0  0  0  0  0  0  0
    2.0070    2.0170   -0.8330 O   0  0  0  0  0  0  0  0  0  0  0  0
  1  2  2  0
  2  3  1  0
  4  3  1  1
  4  5  1  0
  4 12  1  0
  5  6  1  0
  6  7  1  0
  7  8  1  1
  7 10  1  0
  8  9  1  0
 10 11  1  0
 11 12  1  0
 12 13  2  0
M  END
