
     RDKit          3D

 13 13  0  0  0  0  0  0  0  0999 V2000
    1.2040    1.3310   -0.2610 O   0  0  0  0  0  0  0  0  0  0  0  0
    1.3660    0.1650    0.2540 C   0  0  0  0  0  0  0  0  0  0  0  0
    2.5240   -0.1380    0.7850 O   0  0  0  0  0  0  0  0  0  0  0  0
    3.7280    0.4290    0.8740 C   0  0  0  0  0  0  0  0  0  0  0  0
    4.6900    0.4410   -0.0540 O   0  0  0  0  0  0  0  0  0  0  0  0
    0.1550   -0.7190    0.2100 C   0  0  2  0  0  0  0  0  0  0  0  0
   -0.1730   -1.3060   -1.1370 C   0  0  0  0  0  0  0  0  0  0  0  0
   -1.6040   -1.5150   -0.8680 O   0  0  0  0  0  0  0  0  0  0  0  0
   -1.9580   -0.2750   -0.6280 C   0  0  1  0  0  0  0  0  0  0  0  0
   -3.2250   -0.2130    0.3220 C   0  0  0  0  0  0  0  0  0  0  0  0
   -3.4190    1.2020    0.2870 O   0  0  0  0  0  0  0  0  0  0  0  0
   -3.3870    1.6800    1.5240 O   0  0  0  0  0  0  0  0  0  0  0  0
   -0.9350    0.1260    0.3670 O   0  0  0  0  0  0  0  0  0  0  0  0
  1  2  2  0
  2  3  1  0
  6  2  1  6
  3  4  1  0
  4  5  1  0
  6  7  1  0
  6 13  1  0
  7  8  1  0
  8  9  1  0
  9 10  1  1
  9 13  1  0
 10 11  1  0
 11 12  1  0
M  END
