
     RDKit          3D

 23 22  0  0  0  0  0  0  0  0999 V2000
   -2.3140   -0.6260   -2.2280 C   0  0  0  0  0  0  0  0  0  0  0  0
   -1.9660   -0.0730   -1.0420 C   0  0  0  0  0  0  0  0  0  0  0  0
   -1.0730   -0.4870   -0.2350 O   0  0  0  0  0  0  0  0  0  0  0  0
   -0.1330   -0.9040    0.6250 C   0  0  2  0  0  0  0  0  0  0  0  0
   -0.6270   -0.7810    2.0190 C   0  0  0  0  0  0  0  0  0  0  0  0
   -1.9670   -0.3100    2.4280 C   0  0  0  0  0  0  0  0  0  0  0  0
    0.1320   -1.0950    2.9240 O   0  0  0  0  0  0  0  0  0  0  0  0
    1.0900    0.0120    0.5250 C   0  0  0  0  0  0  0  0  0  0  0  0
    2.0260    0.0040    1.3260 O   0  0  0  0  0  0  0  0  0  0  0  0
    1.1770    0.9100   -0.5150 O   0  0  0  0  0  0  0  0  0  0  0  0
    2.1520    1.8050   -0.8000 C   0  0  0  0  0  0  0  0  0  0  0  0
    3.2660    2.0330   -0.1460 C   0  0  0  0  0  0  0  0  0  0  0  0
    4.1550    3.0210   -0.6210 O   0  0  0  0  0  0  0  0  0  0  0  0
    5.5420    2.6970   -0.6450 C   0  0  0  0  0  0  0  0  0  0  0  0
    0.3470   -2.3040    0.3690 C   0  0  2  0  0  0  0  0  0  0  0  0
    0.9880   -2.3640   -1.0310 C   0  0  0  0  0  0  0  0  0  0  0  0
   -0.9160   -3.2210    0.1770 C   0  0  0  0  0  0  0  0  0  0  0  0
    1.1870   -3.0420    1.2910 C   0  0  0  0  0  0  0  0  0  0  0  0
    2.5390   -2.6510    1.6930 C   0  0  0  0  0  0  0  0  0  0  0  0
   -2.7620    1.1610   -0.7130 C   0  0  2  0  0  0  0  0  0  0  0  0
   -3.8230    1.4710   -1.7340 C   0  0  0  0  0  0  0  0  0  0  0  0
   -1.8380    2.3540   -0.5440 C   0  0  0  0  0  0  0  0  0  0  0  0
   -2.6670    3.5920   -0.2140 C   0  0  0  0  0  0  0  0  0  0  0  0
  1  2  2  0
  2  3  1  0
  2 20  1  0
  4  3  1  6
  4  5  1  0
  4  8  1  0
  4 15  1  0
  5  6  1  0
  5  7  2  0
  8  9  2  0
  8 10  1  0
 10 11  1  0
 11 12  2  3
 12 13  1  0
 13 14  1  0
 15 16  1  6
 15 17  1  0
 15 18  1  0
 18 19  1  0
 20 21  1  6
 20 22  1  0
 22 23  1  0
M  END
