
     RDKit          3D

 21 21  0  0  0  0  0  0  0  0999 V2000
   -1.7740    3.4020    0.9820 O   0  0  0  0  0  0  0  0  0  0  0  0
   -1.3450    3.8530   -0.0960 C   0  0  0  0  0  0  0  0  0  0  0  0
   -1.5550    5.1740   -0.4240 O   0  0  0  0  0  0  0  0  0  0  0  0
   -0.6560    2.9650   -0.9290 O   0  0  0  0  0  0  0  0  0  0  0  0
   -0.4720    1.6330   -0.5450 C   0  0  0  0  0  0  0  0  0  0  0  0
   -1.3880    0.6540   -0.8710 C   0  0  0  0  0  0  0  0  0  0  0  0
   -1.2190   -0.6710   -0.4970 C   0  0  0  0  0  0  0  0  0  0  0  0
   -2.1680   -1.6210   -0.8480 O   0  0  0  0  0  0  0  0  0  0  0  0
   -3.2490   -1.9360   -0.0630 C   0  0  0  0  0  0  0  0  0  0  0  0
   -3.3980   -1.3340    1.0410 O   0  0  0  0  0  0  0  0  0  0  0  0
   -4.2080   -2.9610   -0.5180 C   0  0  0  0  0  0  0  0  0  0  0  0
   -3.7970   -3.4490   -1.7530 O   0  0  0  0  0  0  0  0  0  0  0  0
   -0.1130   -0.9700    0.2040 N   0  0  0  0  0  0  0  0  0  0  0  0
    0.8040   -0.0430    0.5420 C   0  0  0  0  0  0  0  0  0  0  0  0
    1.9790   -0.4770    1.3110 C   0  0  2  0  0  0  0  0  0  0  0  0
    3.1270    0.5090    1.2480 C   0  0  0  0  0  0  0  0  0  0  0  0
    3.5940    0.7180   -0.1740 C   0  0  0  0  0  0  0  0  0  0  0  0
    4.6340    1.6160   -0.2010 O   0  0  0  0  0  0  0  0  0  0  0  0
    2.4430   -1.6660    0.7020 O   0  0  0  0  0  0  0  0  0  0  0  0
    2.4040   -2.6790    1.5140 O   0  0  0  0  0  0  0  0  0  0  0  0
    0.6080    1.2440    0.1600 N   0  0  0  0  0  0  0  0  0  0  0  0
  1  2  2  0
  2  3  1  0
  2  4  1  0
  4  5  1  0
  5  6  2  0
  5 21  1  0
  6  7  1  0
  7  8  1  0
  7 13  2  0
  8  9  1  0
  9 10  2  0
  9 11  1  0
 11 12  1  0
 13 14  1  0
 14 15  1  0
 14 21  2  0
 15 16  1  6
 15 19  1  0
 16 17  1  0
 17 18  1  0
 19 20  1  0
M  END
