
     RDKit          3D

 23 22  0  0  0  0  0  0  0  0999 V2000
   -7.6980   -0.7480    0.3610 C   0  0  0  0  0  0  0  0  0  0  0  0
   -6.9300   -1.4590   -0.5960 O   0  0  0  0  0  0  0  0  0  0  0  0
   -5.9820   -2.3360   -0.1410 C   0  0  0  0  0  0  0  0  0  0  0  0
   -4.7000   -1.9390    0.0030 C   0  0  0  0  0  0  0  0  0  0  0  0
   -4.4020   -0.5910   -0.3560 C   0  0  0  0  0  0  0  0  0  0  0  0
   -3.2000   -0.0640   -0.3130 C   0  0  0  0  0  0  0  0  0  0  0  0
   -3.0010    1.3110   -0.6950 C   0  0  0  0  0  0  0  0  0  0  0  0
   -1.8020    1.8870   -0.6760 C   0  0  0  0  0  0  0  0  0  0  0  0
   -0.6350    1.1830   -0.2760 C   0  0  0  0  0  0  0  0  0  0  0  0
    0.6290    1.6790   -0.2370 C   0  0  0  0  0  0  0  0  0  0  0  0
    0.8350    3.0820   -0.6490 C   0  0  0  0  0  0  0  0  0  0  0  0
    1.6920    0.7950    0.2000 C   0  0  0  0  0  0  0  0  0  0  0  0
    2.9590    0.9750    0.3500 C   0  0  0  0  0  0  0  0  0  0  0  0
    3.6340    2.2610    0.0720 C   0  0  0  0  0  0  0  0  0  0  0  0
    3.7420   -0.1900    0.8220 C   0  0  0  0  0  0  0  0  0  0  0  0
    3.0950   -1.2620    1.0440 O   0  0  0  0  0  0  0  0  0  0  0  0
    5.1770   -0.2140    1.0510 C   0  0  0  0  0  0  0  0  0  0  0  0
    5.9400   -0.8600   -0.0490 C   0  0  0  0  0  0  0  0  0  0  0  0
    5.6460   -2.0260   -0.4070 O   0  0  0  0  0  0  0  0  0  0  0  0
    6.9760   -0.2150   -0.7030 O   0  0  0  0  0  0  0  0  0  0  0  0
    7.6320   -0.9410   -1.7510 C   0  0  0  0  0  0  0  0  0  0  0  0
   -3.8430   -2.8630    0.4810 O   0  0  0  0  0  0  0  0  0  0  0  0
   -3.0010   -2.8480    1.5840 C   0  0  0  0  0  0  0  0  0  0  0  0
  1  2  1  0
  2  3  1  0
  3  4  2  3
  4  5  1  0
  4 22  1  0
  5  6  2  3
  6  7  1  0
  7  8  2  3
  8  9  1  0
  9 10  2  3
 10 11  1  0
 10 12  1  0
 12 13  2  3
 13 14  1  0
 13 15  1  0
 15 16  2  0
 15 17  1  0
 17 18  1  0
 18 19  2  0
 18 20  1  0
 20 21  1  0
 22 23  1  0
M  END
