
     RDKit          3D

 21 21  0  0  0  0  0  0  0  0999 V2000
   -4.2460   -1.6380   -0.0860 O   0  0  0  0  0  0  0  0  0  0  0  0
   -3.5920   -2.2220    0.8070 C   0  0  0  0  0  0  0  0  0  0  0  0
   -3.8670   -3.5510    1.0630 O   0  0  0  0  0  0  0  0  0  0  0  0
   -2.5630   -1.4830    1.5460 C   0  0  0  0  0  0  0  0  0  0  0  0
   -1.2880   -1.3020    0.7120 C   0  0  2  0  0  0  0  0  0  0  0  0
   -0.3240   -0.5340    1.5840 C   0  0  0  0  0  0  0  0  0  0  0  0
    0.9340   -0.2830    0.9380 N   0  0  0  0  0  0  0  0  0  0  0  0
    1.3540    0.8320    0.1220 C   0  0  0  0  0  0  0  0  0  0  0  0
    2.6770    0.4280   -0.4630 C   0  0  1  0  0  0  0  0  0  0  0  0
    3.7330    1.0250    0.2230 O   0  0  0  0  0  0  0  0  0  0  0  0
    4.8630    1.7890   -0.8480 P   0  0  0  0  0  0  0  0  0  0  0  0
    5.2730    3.3310   -0.1990 O   0  0  0  0  0  0  0  0  0  0  0  0
    6.2690    0.8030   -1.0920 O   0  0  0  0  0  0  0  0  0  0  0  0
    2.7760   -0.9700   -0.1580 O   0  0  0  0  0  0  0  0  0  0  0  0
    2.0410   -1.1660    1.0150 C   0  0  0  0  0  0  0  0  0  0  0  0
    2.3420   -1.9870    1.9470 O   0  0  0  0  0  0  0  0  0  0  0  0
   -1.5960   -0.5670   -0.5420 C   0  0  0  0  0  0  0  0  0  0  0  0
   -1.3420   -1.1320   -1.6450 O   0  0  0  0  0  0  0  0  0  0  0  0
   -2.1530    0.7170   -0.5850 N   0  0  0  0  0  0  0  0  0  0  0  0
   -2.4490    1.4220   -1.8350 C   0  0  0  0  0  0  0  0  0  0  0  0
   -2.9990    2.6740   -1.5710 O   0  0  0  0  0  0  0  0  0  0  0  0
  1  2  2  0
  2  3  1  0
  2  4  1  0
  5  4  1  1
  5  6  1  0
  5 17  1  0
  6  7  1  0
  7  8  1  0
  7 15  1  0
  8  9  1  0
  9 10  1  1
  9 14  1  0
 10 11  1  0
 11 12  1  0
 11 13  1  0
 14 15  1  0
 15 16  2  0
 17 18  2  0
 17 19  1  0
 19 20  1  0
 20 21  1  0
M  END
