
     RDKit          3D

 27 29  0  0  0  0  0  0  0  0999 V2000
   -5.5510   -1.5140    1.3570 C   0  0  0  0  0  0  0  0  0  0  0  0
   -4.1880   -1.5740    1.5540 O   0  0  0  0  0  0  0  0  0  0  0  0
   -3.6550   -0.4520    2.1410 C   0  0  0  0  0  0  0  0  0  0  0  0
   -3.8670    0.8040    1.3490 C   0  0  0  0  0  0  0  0  0  0  0  0
   -3.2950    0.7770    0.0400 N   0  0  0  0  0  0  0  0  0  0  0  0
   -1.8510    0.5880   -0.1670 C   0  0  0  0  0  0  0  0  0  0  0  0
   -1.2430    0.4640    0.8930 O   0  0  0  0  0  0  0  0  0  0  0  0
   -1.3330    0.5690   -1.5100 C   0  0  0  0  0  0  0  0  0  0  0  0
   -0.0570    0.4090   -1.8570 C   0  0  0  0  0  0  0  0  0  0  0  0
    0.8510    0.2460   -0.8130 N   0  0  0  0  0  0  0  0  0  0  0  0
    2.2310    0.0550   -0.7160 C   0  0  0  0  0  0  0  0  0  0  0  0
    2.9580   -0.0050   -1.6700 O   0  0  0  0  0  0  0  0  0  0  0  0
    2.9040   -0.0900    0.6130 C   0  0  0  0  0  0  0  0  0  0  0  0
    4.2550    0.1870    0.7060 C   0  0  0  0  0  0  0  0  0  0  0  0
    4.9530    0.0760    1.8760 C   0  0  0  0  0  0  0  0  0  0  0  0
    4.3080   -0.3270    3.0230 C   0  0  0  0  0  0  0  0  0  0  0  0
    5.0710   -0.4210    4.1770 O   0  0  0  0  0  0  0  0  0  0  0  0
    5.6940    0.6250    4.7280 O   0  0  0  0  0  0  0  0  0  0  0  0
    2.9810   -0.6030    2.9450 C   0  0  0  0  0  0  0  0  0  0  0  0
    2.2690   -0.4870    1.7410 C   0  0  0  0  0  0  0  0  0  0  0  0
    0.3150    0.4140   -3.2960 C   0  0  0  0  0  0  0  0  0  0  0  0
    1.5030    0.2780   -3.9520 C   0  0  0  0  0  0  0  0  0  0  0  0
    1.2560    0.3640   -5.3140 C   0  0  0  0  0  0  0  0  0  0  0  0
   -0.0570    0.5480   -5.4630 N   0  0  0  0  0  0  0  0  0  0  0  0
   -0.6500    0.5830   -4.2640 C   0  0  0  0  0  0  0  0  0  0  0  0
   -1.9640    0.7450   -3.8570 O   0  0  0  0  0  0  0  0  0  0  0  0
   -2.2690    0.7370   -2.5510 O   0  0  0  0  0  0  0  0  0  0  0  0
  1  2  1  0
  2  3  1  0
  3  4  1  0
  4  5  1  0
  5  6  1  0
  6  7  2  0
  6  8  1  0
  8  9  2  0
  8 27  1  0
  9 10  1  0
  9 21  1  0
 10 11  1  0
 11 12  2  0
 11 13  1  0
 13 14  2  0
 13 20  1  0
 14 15  1  0
 15 16  2  0
 16 17  1  0
 16 19  1  0
 17 18  1  0
 19 20  2  0
 21 22  1  0
 21 25  2  0
 22 23  2  0
 23 24  1  0
 24 25  1  0
 25 26  1  0
 26 27  1  0
M  END
