
     RDKit          3D

 27 27  0  0  0  0  0  0  0  0999 V2000
    2.3660   -3.3010   -1.2940 C   0  0  0  0  0  0  0  0  0  0  0  0
    2.6380   -2.3850   -0.3280 C   0  0  0  0  0  0  0  0  0  0  0  0
    3.5640   -2.7280    0.7230 C   0  0  0  0  0  0  0  0  0  0  0  0
    3.9300   -1.9830    1.7080 C   0  0  0  0  0  0  0  0  0  0  0  0
    4.8540   -2.4740    2.6610 O   0  0  0  0  0  0  0  0  0  0  0  0
    1.9960   -1.0960   -0.3760 C   0  0  0  0  0  0  0  0  0  0  0  0
    2.1960   -0.2200    0.4650 O   0  0  0  0  0  0  0  0  0  0  0  0
    1.1030   -0.8100   -1.4170 O   0  0  0  0  0  0  0  0  0  0  0  0
    0.4950    0.4370   -1.4460 C   0  0  0  0  0  0  0  0  0  0  0  0
    1.1770    1.5040   -2.1710 C   0  0  0  0  0  0  0  0  0  0  0  0
    0.6680    2.6850   -2.2370 N   0  0  0  0  0  0  0  0  0  0  0  0
    1.3420    3.7380   -2.9540 C   0  0  0  0  0  0  0  0  0  0  0  0
    2.6670    3.9790   -2.3480 C   0  0  0  0  0  0  0  0  0  0  0  0
    3.0420    3.3090   -1.3650 O   0  0  0  0  0  0  0  0  0  0  0  0
    3.4840    4.9520   -2.8820 O   0  0  0  0  0  0  0  0  0  0  0  0
   -0.6780    0.6510   -0.8280 C   0  0  0  0  0  0  0  0  0  0  0  0
   -1.3240   -0.4140   -0.1240 C   0  0  0  0  0  0  0  0  0  0  0  0
   -2.4070   -0.5120    0.5380 C   0  0  0  0  0  0  0  0  0  0  0  0
   -2.6630   -1.8540    1.0990 N   0  0  0  0  0  0  0  0  0  0  0  0
   -2.7930   -2.0340    2.4830 C   0  0  0  0  0  0  0  0  0  0  0  0
   -3.0370   -3.3330    2.9750 N   0  0  0  0  0  0  0  0  0  0  0  0
   -2.6880   -1.0210    3.2380 O   0  0  0  0  0  0  0  0  0  0  0  0
   -3.4330    0.4760    0.8320 C   0  0  0  0  0  0  0  0  0  0  0  0
   -3.5460    1.7930    0.4940 C   0  0  0  0  0  0  0  0  0  0  0  0
   -4.7390    2.2870    1.0370 C   0  0  0  0  0  0  0  0  0  0  0  0
   -5.2960    1.2430    1.6820 C   0  0  0  0  0  0  0  0  0  0  0  0
   -4.5350    0.2140    1.5550 O   0  0  0  0  0  0  0  0  0  0  0  0
  1  2  2  0
  2  3  1  0
  2  6  1  0
  3  4  2  3
  4  5  1  0
  6  7  2  0
  6  8  1  0
  8  9  1  0
  9 10  1  0
  9 16  2  3
 10 11  2  3
 11 12  1  0
 12 13  1  0
 13 14  2  0
 13 15  1  0
 16 17  1  0
 17 18  2  3
 18 19  1  0
 18 23  1  0
 19 20  1  0
 20 21  1  0
 20 22  2  0
 23 24  2  0
 23 27  1  0
 24 25  1  0
 25 26  2  0
 26 27  1  0
M  END
