
     RDKit          3D

 27 28  0  0  0  0  0  0  0  0999 V2000
   -4.6040    3.9860    0.6680 C   0  0  0  0  0  0  0  0  0  0  0  0
   -3.8420    2.9640    1.3560 N   0  0  0  0  0  0  0  0  0  0  0  0
   -3.3070    1.8850    0.6040 C   0  0  0  0  0  0  0  0  0  0  0  0
   -3.5180    1.8600   -0.6320 O   0  0  0  0  0  0  0  0  0  0  0  0
   -2.5210    0.8220    1.2780 C   0  0  0  0  0  0  0  0  0  0  0  0
   -2.0220   -0.2090    0.3020 C   0  0  0  0  0  0  0  0  0  0  0  0
   -1.2270   -1.2700    1.0190 C   0  0  0  0  0  0  0  0  0  0  0  0
   -0.7240   -2.2760    0.0940 N   0  0  0  0  0  0  0  0  0  0  0  0
    0.5280   -2.1230   -0.5330 C   0  0  0  0  0  0  0  0  0  0  0  0
    0.9290   -2.9930   -1.3320 O   0  0  0  0  0  0  0  0  0  0  0  0
    1.3710   -0.9820   -0.2800 N   0  0  0  0  0  0  0  0  0  0  0  0
    2.6040   -0.7910   -0.8960 C   0  0  0  0  0  0  0  0  0  0  0  0
    2.8750   -1.7640   -1.7460 O   0  0  0  0  0  0  0  0  0  0  0  0
    3.6080    0.2000   -0.8020 C   0  0  0  0  0  0  0  0  0  0  0  0
    4.7020    0.0740   -1.6020 C   0  0  0  0  0  0  0  0  0  0  0  0
    5.7890    1.0300   -1.5860 C   0  0  0  0  0  0  0  0  0  0  0  0
    5.7950    2.0860   -0.7990 C   0  0  0  0  0  0  0  0  0  0  0  0
    4.7200    2.2600    0.0270 O   0  0  0  0  0  0  0  0  0  0  0  0
    3.6240    1.3470    0.0500 C   0  0  0  0  0  0  0  0  0  0  0  0
    2.6920    1.6570    0.8890 C   0  0  0  0  0  0  0  0  0  0  0  0
    2.8730    2.8450    1.6640 O   0  0  0  0  0  0  0  0  0  0  0  0
    3.5780    3.8240    1.1000 O   0  0  0  0  0  0  0  0  0  0  0  0
   -1.5090   -3.4440   -0.1890 C   0  0  0  0  0  0  0  0  0  0  0  0
   -1.6930   -4.0040   -1.4410 C   0  0  0  0  0  0  0  0  0  0  0  0
   -2.5050   -5.1070   -1.2980 C   0  0  0  0  0  0  0  0  0  0  0  0
   -2.7940   -5.1830    0.0580 C   0  0  0  0  0  0  0  0  0  0  0  0
   -2.1810   -4.1840    0.6400 O   0  0  0  0  0  0  0  0  0  0  0  0
  1  2  1  0
  2  3  1  0
  3  4  2  0
  3  5  1  0
  5  6  1  0
  6  7  1  0
  7  8  1  0
  8  9  1  0
  8 23  1  0
  9 10  2  0
  9 11  1  0
 11 12  1  0
 12 13  2  0
 12 14  1  0
 14 15  2  0
 14 19  1  0
 15 16  1  0
 16 17  2  0
 17 18  1  0
 18 19  1  0
 19 20  2  3
 20 21  1  0
 21 22  1  0
 23 24  2  0
 23 27  1  0
 24 25  1  0
 25 26  2  0
 26 27  1  0
M  END
