
     RDKit          3D

 27 28  0  0  0  0  0  0  0  0999 V2000
   -0.0820   -3.3070   -1.4850 O   0  0  0  0  0  0  0  0  0  0  0  0
   -0.5720   -3.6820   -0.3880 C   0  0  0  0  0  0  0  0  0  0  0  0
   -1.5740   -2.9050    0.2390 N   0  0  0  0  0  0  0  0  0  0  0  0
   -1.9990   -1.6810   -0.4310 C   0  0  1  0  0  0  0  0  0  0  0  0
   -3.4950   -1.7950   -0.7410 C   0  0  0  0  0  0  0  0  0  0  0  0
   -4.2120   -1.9790    0.4530 O   0  0  0  0  0  0  0  0  0  0  0  0
   -1.8390   -0.5050    0.4850 C   0  0  0  0  0  0  0  0  0  0  0  0
   -2.0010   -0.8060    1.7050 O   0  0  0  0  0  0  0  0  0  0  0  0
   -1.5440    0.7470   -0.0400 N   0  0  0  0  0  0  0  0  0  0  0  0
   -1.3140    0.8010   -1.5000 C   0  0  0  0  0  0  0  0  0  0  0  0
    0.1520    0.5600   -1.7840 C   0  0  0  0  0  0  0  0  0  0  0  0
    0.5660    0.5650   -2.9660 O   0  0  0  0  0  0  0  0  0  0  0  0
    1.0490    0.3310   -0.7350 N   0  0  0  0  0  0  0  0  0  0  0  0
    2.4380    0.0930   -0.8380 C   0  0  0  0  0  0  0  0  0  0  0  0
    3.1440   -0.1880    0.3290 C   0  0  0  0  0  0  0  0  0  0  0  0
    4.4890   -0.4320    0.3570 C   0  0  0  0  0  0  0  0  0  0  0  0
    5.2090   -0.4050   -0.8150 C   0  0  0  0  0  0  0  0  0  0  0  0
    4.5420   -0.1300   -1.9910 C   0  0  0  0  0  0  0  0  0  0  0  0
    5.2660   -0.1030   -3.1670 O   0  0  0  0  0  0  0  0  0  0  0  0
    3.1620    0.1160   -1.9850 C   0  0  0  0  0  0  0  0  0  0  0  0
   -1.3760    1.9400    0.6450 C   0  0  0  0  0  0  0  0  0  0  0  0
   -0.8950    2.8980   -0.1380 O   0  0  0  0  0  0  0  0  0  0  0  0
   -1.6180    2.3310    2.0120 C   0  0  0  0  0  0  0  0  0  0  0  0
   -1.0740    3.5200    2.5380 C   0  0  0  0  0  0  0  0  0  0  0  0
   -1.5350    3.6570    3.8210 C   0  0  0  0  0  0  0  0  0  0  0  0
   -2.2980    2.6410    4.0670 O   0  0  0  0  0  0  0  0  0  0  0  0
   -2.3750    1.8290    3.0170 C   0  0  0  0  0  0  0  0  0  0  0  0
  1  2  2  0
  2  3  1  0
  3  4  1  0
  4  5  1  1
  4  7  1  0
  5  6  1  0
  7  8  2  0
  7  9  1  0
  9 10  1  0
  9 21  1  0
 10 11  1  0
 11 12  2  0
 11 13  1  0
 13 14  1  0
 14 15  2  0
 14 20  1  0
 15 16  1  0
 16 17  2  0
 17 18  1  0
 18 19  1  0
 18 20  2  0
 21 22  2  0
 21 23  1  0
 23 24  1  0
 23 27  2  0
 24 25  2  0
 25 26  1  0
 26 27  1  0
M  END
