
     RDKit          3D

 43 47  0  0  0  0  0  0  0  0999 V2000
   -6.2750    2.7270    3.3730 C   0  0  0  0  0  0  0  0  0  0  0  0
   -5.5600    2.1390    2.3180 O   0  0  0  0  0  0  0  0  0  0  0  0
   -6.0920    1.9370    1.0760 C   0  0  0  0  0  0  0  0  0  0  0  0
   -7.3520    2.2530    0.6480 C   0  0  0  0  0  0  0  0  0  0  0  0
   -7.7740    1.9930   -0.6490 C   0  0  0  0  0  0  0  0  0  0  0  0
   -6.9390    1.4020   -1.5730 C   0  0  0  0  0  0  0  0  0  0  0  0
   -5.6590    1.0740   -1.1590 C   0  0  0  0  0  0  0  0  0  0  0  0
   -5.2590    1.3380    0.1270 C   0  0  0  0  0  0  0  0  0  0  0  0
   -3.8920    0.9610    0.5080 C   0  0  0  0  0  0  0  0  0  0  0  0
   -2.9920    1.8100    0.3620 O   0  0  0  0  0  0  0  0  0  0  0  0
   -3.5980   -0.3240    1.0280 N   0  0  0  0  0  0  0  0  0  0  0  0
   -2.2570   -0.5900    1.4720 C   0  0  0  0  0  0  0  0  0  0  0  0
   -1.4670   -1.1250    0.2710 C   0  0  0  0  0  0  0  0  0  0  0  0
   -0.1060   -1.3940    0.7750 C   0  0  0  0  0  0  0  0  0  0  0  0
    0.4680   -2.5530    1.0890 N   0  0  0  0  0  0  0  0  0  0  0  0
    1.6920   -2.3480    1.5250 N   0  0  0  0  0  0  0  0  0  0  0  0
    1.9840   -1.0090    1.5150 C   0  0  0  0  0  0  0  0  0  0  0  0
    3.2320   -0.3700    1.9300 C   0  0  0  0  0  0  0  0  0  0  0  0
    4.1610    0.0360    0.7990 C   0  0  0  0  0  0  0  0  0  0  0  0
    4.6000   -1.1380    0.0000 C   0  0  0  0  0  0  0  0  0  0  0  0
    5.4930   -0.7620   -1.1350 C   0  0  1  0  0  0  0  0  0  0  0  0
    4.8690    0.1920   -2.1030 C   0  0  0  0  0  0  0  0  0  0  0  0
    6.8070   -0.3630   -0.6650 N   0  0  0  0  0  0  0  0  0  0  0  0
    7.1950    0.8210    0.0700 C   0  0  0  0  0  0  0  0  0  0  0  0
    8.5780    1.1390   -0.4880 C   0  0  0  0  0  0  0  0  0  0  0  0
    9.1050   -0.1130   -1.1150 C   0  0  2  0  0  0  0  0  0  0  0  0
   10.4320   -0.5120   -0.5030 C   0  0  0  0  0  0  0  0  0  0  0  0
    9.2210    0.0760   -2.6110 C   0  0  0  0  0  0  0  0  0  0  0  0
    8.0300   -1.0980   -0.8780 C   0  0  0  0  0  0  0  0  0  0  0  0
    8.1410   -2.3560   -0.8600 O   0  0  0  0  0  0  0  0  0  0  0  0
    0.8340   -0.4070    1.0350 C   0  0  0  0  0  0  0  0  0  0  0  0
    0.6080    1.0510    0.8290 C   0  0  0  0  0  0  0  0  0  0  0  0
   -4.5980   -1.3260    1.1410 C   0  0  0  0  0  0  0  0  0  0  0  0
   -4.4000   -2.5800    1.6680 C   0  0  0  0  0  0  0  0  0  0  0  0
   -5.4600   -3.4980    1.7410 C   0  0  0  0  0  0  0  0  0  0  0  0
   -6.6880   -3.1310    1.2830 C   0  0  0  0  0  0  0  0  0  0  0  0
   -6.8610   -1.8690    0.7590 C   0  0  0  0  0  0  0  0  0  0  0  0
   -8.1450   -1.4140    0.2440 C   0  0  0  0  0  0  0  0  0  0  0  0
   -9.1650   -1.0400   -0.1530 N   0  0  0  0  0  0  0  0  0  0  0  0
   -5.8300   -1.0290    0.7090 N   0  0  0  0  0  0  0  0  0  0  0  0
   -7.7050    1.2670   -2.8420 C   0  0  0  0  0  0  0  0  0  0  0  0
   -8.7280    2.1680   -2.6910 O   0  0  0  0  0  0  0  0  0  0  0  0
   -9.0540    2.2290   -1.3620 C   0  0  0  0  0  0  0  0  0  0  0  0
  1  2  1  0
  2  3  1  0
  3  4  2  0
  3  8  1  0
  4  5  1  0
  5  6  2  0
  5 43  1  0
  6  7  1  0
  6 41  1  0
  7  8  2  0
  8  9  1  0
  9 10  2  0
  9 11  1  0
 11 12  1  0
 11 33  1  0
 12 13  1  0
 13 14  1  0
 14 15  1  0
 14 31  2  0
 15 16  1  0
 16 17  2  0
 17 18  1  0
 17 31  1  0
 18 19  1  0
 19 20  1  0
 20 21  1  0
 21 22  1  1
 21 23  1  0
 23 24  1  0
 23 29  1  0
 24 25  1  0
 25 26  1  0
 26 27  1  1
 26 28  1  0
 26 29  1  0
 29 30  2  0
 31 32  1  0
 33 34  2  0
 33 40  1  0
 34 35  1  0
 35 36  2  0
 36 37  1  0
 37 38  1  0
 37 40  2  0
 38 39  3  0
 41 42  1  0
 42 43  1  0
M  END
