
     RDKit          3D

 45 49  0  0  0  0  0  0  0  0999 V2000
   -2.8600    7.5900   -2.2550 C   0  0  0  0  0  0  0  0  0  0  0  0
   -2.9830    7.7360   -0.8710 O   0  0  0  0  0  0  0  0  0  0  0  0
   -2.7070    6.7560    0.0640 C   0  0  0  0  0  0  0  0  0  0  0  0
   -2.2810    5.4940   -0.2550 C   0  0  0  0  0  0  0  0  0  0  0  0
   -1.9950    4.5020    0.6700 C   0  0  0  0  0  0  0  0  0  0  0  0
   -1.5630    3.2190    0.2990 O   0  0  0  0  0  0  0  0  0  0  0  0
   -2.3760    2.1080    0.4860 C   0  0  0  0  0  0  0  0  0  0  0  0
   -3.5940    2.2770    1.0720 C   0  0  0  0  0  0  0  0  0  0  0  0
   -4.3850    1.1880    1.2590 C   0  0  0  0  0  0  0  0  0  0  0  0
   -4.0120   -0.1160    0.8790 C   0  0  0  0  0  0  0  0  0  0  0  0
   -4.9100   -1.1820    1.1930 C   0  0  0  0  0  0  0  0  0  0  0  0
   -5.8810   -0.8350    2.0180 O   0  0  0  0  0  0  0  0  0  0  0  0
   -4.9800   -2.5080    0.8160 N   0  0  0  0  0  0  0  0  0  0  0  0
   -6.0890   -3.2840    1.4680 C   0  0  0  0  0  0  0  0  0  0  0  0
   -6.8510   -3.8830    0.3270 C   0  0  0  0  0  0  0  0  0  0  0  0
   -5.9670   -4.9810   -0.2360 C   0  0  0  0  0  0  0  0  0  0  0  0
   -4.5210   -4.6710   -0.2440 C   0  0  2  0  0  0  0  0  0  0  0  0
   -3.7980   -5.4590    0.8110 C   0  0  0  0  0  0  0  0  0  0  0  0
   -4.1770   -3.1780   -0.1400 C   0  0  1  0  0  0  0  0  0  0  0  0
   -4.3080   -2.5940   -1.5550 C   0  0  0  0  0  0  0  0  0  0  0  0
   -2.7570   -0.2190    0.2850 C   0  0  0  0  0  0  0  0  0  0  0  0
   -1.9140    0.8520    0.0690 C   0  0  0  0  0  0  0  0  0  0  0  0
   -0.5690    0.7610   -0.5610 C   0  0  0  0  0  0  0  0  0  0  0  0
   -0.2190   -0.5350   -0.9390 N   0  0  0  0  0  0  0  0  0  0  0  0
   -0.9780   -1.1570   -1.9680 C   0  0  0  0  0  0  0  0  0  0  0  0
   -0.1900   -1.3010   -3.2660 C   0  0  0  0  0  0  0  0  0  0  0  0
    0.6750   -0.1810   -3.4710 N   0  0  0  0  0  0  0  0  0  0  0  0
    1.6460   -0.0050   -2.4070 C   0  0  0  0  0  0  0  0  0  0  0  0
    1.1870   -0.7770   -1.2040 C   0  0  1  0  0  0  0  0  0  0  0  0
    2.0500   -0.6370    0.0030 C   0  0  0  0  0  0  0  0  0  0  0  0
    3.5010   -0.9190   -0.3560 C   0  0  0  0  0  0  0  0  0  0  0  0
    4.4100   -0.7800    0.8260 C   0  0  1  0  0  0  0  0  0  0  0  0
    5.8300   -1.0800    0.4410 C   0  0  2  0  0  0  0  0  0  0  0  0
    6.3900   -0.1890   -0.6380 C   0  0  0  0  0  0  0  0  0  0  0  0
    7.9160   -0.1890   -0.4590 C   0  0  0  0  0  0  0  0  0  0  0  0
    8.3090   -1.4910    0.1690 C   0  0  0  0  0  0  0  0  0  0  0  0
    7.4470   -2.6520   -0.1940 C   0  0  0  0  0  0  0  0  0  0  0  0
    6.0300   -2.4430   -0.0150 N   0  0  0  0  0  0  0  0  0  0  0  0
    4.2570    0.4120    1.5740 N   0  0  1  0  0  0  0  0  0  0  0  0
    5.3610    0.6580    2.4970 C   0  0  0  0  0  0  0  0  0  0  0  0
    3.9940    1.6050    0.8350 C   0  0  0  0  0  0  0  0  0  0  0  0
   -2.1620    4.8400    2.0010 C   0  0  0  0  0  0  0  0  0  0  0  0
   -2.5890    6.0960    2.3810 C   0  0  0  0  0  0  0  0  0  0  0  0
   -2.8620    7.0550    1.4230 C   0  0  0  0  0  0  0  0  0  0  0  0
   -3.2960    8.3380    1.7490 O   0  0  0  0  0  0  0  0  0  0  0  0
  1  2  1  0
  2  3  1  0
  3  4  2  0
  3 44  1  0
  4  5  1  0
  5  6  1  0
  5 42  2  0
  6  7  1  0
  7  8  2  0
  7 22  1  0
  8  9  1  0
  9 10  2  0
 10 11  1  0
 10 21  1  0
 11 12  2  0
 11 13  1  0
 13 14  1  0
 13 19  1  0
 14 15  1  0
 15 16  1  0
 16 17  1  0
 17 18  1  1
 17 19  1  0
 19 20  1  6
 21 22  2  0
 22 23  1  0
 23 24  1  0
 24 25  1  0
 24 29  1  0
 25 26  1  0
 26 27  1  0
 27 28  1  0
 28 29  1  0
 29 30  1  1
 30 31  1  0
 32 31  1  6
 32 33  1  0
 32 39  1  0
 33 34  1  6
 33 38  1  0
 34 35  1  0
 35 36  1  0
 36 37  1  0
 37 38  1  0
 39 40  1  6
 39 41  1  0
 42 43  1  0
 43 44  2  0
 44 45  1  0
M  CHG  3  27   1  38   1  39   1
M  END
