
     RDKit          3D

 45 49  0  0  0  0  0  0  0  0999 V2000
   -5.6030   -2.8500    1.6510 C   0  0  0  0  0  0  0  0  0  0  0  0
   -5.9250   -2.6080    0.2150 C   0  0  0  0  0  0  0  0  0  0  0  0
   -7.2440   -2.4840   -0.1510 C   0  0  0  0  0  0  0  0  0  0  0  0
   -7.6450   -2.2580   -1.4510 C   0  0  0  0  0  0  0  0  0  0  0  0
   -6.6340   -2.1610   -2.3820 C   0  0  0  0  0  0  0  0  0  0  0  0
   -5.3060   -2.2810   -2.0520 C   0  0  0  0  0  0  0  0  0  0  0  0
   -4.9540   -2.5050   -0.7460 C   0  0  0  0  0  0  0  0  0  0  0  0
   -3.5650   -2.6340   -0.3950 N   0  0  0  0  0  0  0  0  0  0  0  0
   -2.5460   -2.5050   -1.3920 C   0  0  0  0  0  0  0  0  0  0  0  0
   -1.1380   -2.5490   -0.9060 C   0  0  2  0  0  0  0  0  0  0  0  0
   -0.7460   -3.7700   -0.1840 C   0  0  0  0  0  0  0  0  0  0  0  0
   -0.5070   -3.6920    1.2760 C   0  0  1  0  0  0  0  0  0  0  0  0
    0.8100   -4.1260    1.6130 O   0  0  0  0  0  0  0  0  0  0  0  0
   -0.8560   -2.4290    1.9660 C   0  0  0  0  0  0  0  0  0  0  0  0
   -1.1800   -1.2530    1.1350 C   0  0  0  0  0  0  0  0  0  0  0  0
   -0.6810   -1.3480   -0.2130 N   0  0  2  0  0  0  0  0  0  0  0  0
   -1.0100   -0.1800   -0.9560 C   0  0  0  0  0  0  0  0  0  0  0  0
   -0.3110    1.0750   -0.7430 C   0  0  0  0  0  0  0  0  0  0  0  0
   -0.8310    2.0630   -1.4900 O   0  0  0  0  0  0  0  0  0  0  0  0
    0.7520    1.4910    0.0440 N   0  0  0  0  0  0  0  0  0  0  0  0
    1.8240    0.8010    0.6710 C   0  0  0  0  0  0  0  0  0  0  0  0
    3.0600    0.7490   -0.2390 C   0  0  2  0  0  0  0  0  0  0  0  0
    2.8290    0.1050   -1.4260 O   0  0  0  0  0  0  0  0  0  0  0  0
    4.3080    0.3620    0.4890 C   0  0  0  0  0  0  0  0  0  0  0  0
    4.4570   -0.9400    0.8370 O   0  0  0  0  0  0  0  0  0  0  0  0
    4.5270   -1.8700   -0.1610 C   0  0  1  0  0  0  0  0  0  0  0  0
    5.8340   -2.6710   -0.1060 C   0  0  0  0  0  0  0  0  0  0  0  0
    5.6240   -4.0830   -0.1220 N   0  0  0  0  0  0  0  0  0  0  0  0
    4.6630   -4.5110   -1.1200 C   0  0  1  0  0  0  0  0  0  0  0  0
    4.3740   -5.9800   -0.8170 C   0  0  0  0  0  0  0  0  0  0  0  0
    3.4230   -3.7980   -1.0380 N   0  0  0  0  0  0  0  0  0  0  0  0
    3.4400   -2.9050    0.1040 C   0  0  0  0  0  0  0  0  0  0  0  0
    0.8690    2.9590    0.1890 C   0  0  0  0  0  0  0  0  0  0  0  0
    0.6050    3.5290    1.4110 C   0  0  0  0  0  0  0  0  0  0  0  0
    0.6910    4.8940    1.6190 C   0  0  0  0  0  0  0  0  0  0  0  0
    1.0570    5.7040    0.5570 C   0  0  0  0  0  0  0  0  0  0  0  0
    1.1660    7.1860    0.7240 C   0  0  0  0  0  0  0  0  0  0  0  0
   -0.1420    7.8340    0.4170 C   0  0  0  0  0  0  0  0  0  0  0  0
   -1.0700    8.0060    1.4210 C   0  0  0  0  0  0  0  0  0  0  0  0
   -2.2910    8.6070    1.1610 C   0  0  0  0  0  0  0  0  0  0  0  0
   -2.6140    9.0500   -0.1080 C   0  0  0  0  0  0  0  0  0  0  0  0
   -1.6720    8.8690   -1.0990 C   0  0  0  0  0  0  0  0  0  0  0  0
   -0.4630    8.2760   -0.8500 C   0  0  0  0  0  0  0  0  0  0  0  0
    1.3230    5.1350   -0.6680 C   0  0  0  0  0  0  0  0  0  0  0  0
    1.2260    3.7600   -0.8440 C   0  0  0  0  0  0  0  0  0  0  0  0
  1  2  1  0
  2  3  2  0
  2  7  1  0
  3  4  1  0
  4  5  2  0
  5  6  1  0
  6  7  2  0
  7  8  1  0
  8  9  1  0
 10  9  1  1
 10 11  1  0
 10 16  1  0
 11 12  1  0
 12 13  1  6
 12 14  1  0
 14 15  1  0
 15 16  1  0
 16 17  1  6
 17 18  1  0
 18 19  2  0
 18 20  1  0
 20 21  1  0
 20 33  1  0
 21 22  1  0
 22 23  1  6
 22 24  1  0
 24 25  1  0
 26 25  1  1
 26 27  1  0
 26 32  1  0
 27 28  1  0
 28 29  1  0
 29 30  1  1
 29 31  1  0
 31 32  1  0
 33 34  2  0
 33 45  1  0
 34 35  1  0
 35 36  2  0
 36 37  1  0
 36 44  1  0
 37 38  1  0
 38 39  2  0
 38 43  1  0
 39 40  1  0
 40 41  2  0
 41 42  1  0
 42 43  2  0
 44 45  2  0
M  CHG  2  16   1  31   1
M  END
