
     RDKit          3D

 42 47  0  0  0  0  0  0  0  0999 V2000
    8.9250    3.0650   -0.0980 C   0  0  0  0  0  0  0  0  0  0  0  0
    9.5530    2.1230    0.5780 C   0  0  0  0  0  0  0  0  0  0  0  0
    9.0700    0.7280    0.5440 C   0  0  0  0  0  0  0  0  0  0  0  0
    7.8950    0.6670   -0.3090 N   0  0  0  0  0  0  0  0  0  0  0  0
    7.8430    0.4230   -1.6090 N   0  0  0  0  0  0  0  0  0  0  0  0
    6.5720    0.4420   -2.0430 C   0  0  0  0  0  0  0  0  0  0  0  0
    5.7590    0.7140   -0.9690 C   0  0  0  0  0  0  0  0  0  0  0  0
    6.6100    0.8510    0.1050 C   0  0  0  0  0  0  0  0  0  0  0  0
    6.1040    1.1610    1.4560 C   0  0  0  0  0  0  0  0  0  0  0  0
    4.6460    0.7500    1.5700 C   0  0  0  0  0  0  0  0  0  0  0  0
    3.8440    1.3510    0.4350 C   0  0  0  0  0  0  0  0  0  0  0  0
    4.2810    0.8460   -0.8970 C   0  0  2  0  0  0  0  0  0  0  0  0
    3.6570   -0.4430   -1.3180 C   0  0  0  0  0  0  0  0  0  0  0  0
    2.2280   -0.4680   -1.2930 N   0  0  0  0  0  0  0  0  0  0  0  0
    1.4330   -0.0610   -2.2920 N   0  0  0  0  0  0  0  0  0  0  0  0
    0.1500   -0.2070   -1.9180 C   0  0  0  0  0  0  0  0  0  0  0  0
   -0.8620    0.0890   -2.6400 O   0  0  0  0  0  0  0  0  0  0  0  0
    0.1690   -0.7090   -0.6750 N   0  0  0  0  0  0  0  0  0  0  0  0
   -1.0360   -1.0170    0.0860 C   0  0  0  0  0  0  0  0  0  0  0  0
   -1.4550   -2.4380   -0.1240 C   0  0  0  0  0  0  0  0  0  0  0  0
   -0.5910   -3.3450   -0.7470 C   0  0  0  0  0  0  0  0  0  0  0  0
   -1.0200   -4.6480   -0.8870 C   0  0  0  0  0  0  0  0  0  0  0  0
   -2.2620   -5.0500   -0.4300 C   0  0  0  0  0  0  0  0  0  0  0  0
   -3.1140   -4.1460    0.1860 C   0  0  0  0  0  0  0  0  0  0  0  0
   -2.6960   -2.8300    0.3340 C   0  0  0  0  0  0  0  0  0  0  0  0
   -3.5810   -1.8340    0.9670 C   0  0  0  0  0  0  0  0  0  0  0  0
   -3.5730   -1.5750    2.1800 O   0  0  0  0  0  0  0  0  0  0  0  0
   -4.4970   -1.1400    0.0910 N   0  0  0  0  0  0  0  0  0  0  0  0
   -5.3740   -0.1580    0.6340 C   0  0  0  0  0  0  0  0  0  0  0  0
   -6.4020   -0.5350    1.5050 C   0  0  0  0  0  0  0  0  0  0  0  0
   -7.2430    0.4310    2.0220 C   0  0  0  0  0  0  0  0  0  0  0  0
   -7.1040    1.7610    1.7060 C   0  0  0  0  0  0  0  0  0  0  0  0
   -8.0040    2.7720    2.2590 C   0  0  0  0  0  0  0  0  0  0  0  0
   -7.8470    4.1990    1.8910 C   0  0  0  0  0  0  0  0  0  0  0  0
   -8.9190    2.3880    3.0590 O   0  0  0  0  0  0  0  0  0  0  0  0
   -6.0960    2.1560    0.8480 C   0  0  0  0  0  0  0  0  0  0  0  0
   -5.2590    1.1810    0.3370 C   0  0  0  0  0  0  0  0  0  0  0  0
   -4.5540   -1.4090   -1.3210 C   0  0  2  0  0  0  0  0  0  0  0  0
   -5.0350   -0.4740   -2.3310 C   0  0  0  0  0  0  0  0  0  0  0  0
   -5.9110   -1.6690   -1.9510 C   0  0  0  0  0  0  0  0  0  0  0  0
    1.4470   -0.8710   -0.2880 C   0  0  0  0  0  0  0  0  0  0  0  0
    1.8490   -1.3250    0.8270 O   0  0  0  0  0  0  0  0  0  0  0  0
  1  2  2  0
  2  3  1  0
  3  4  1  0
  4  5  1  0
  4  8  1  0
  5  6  2  0
  6  7  1  0
  7  8  2  0
  7 12  1  0
  8  9  1  0
  9 10  1  0
 10 11  1  0
 11 12  1  0
 12 13  1  1
 13 14  1  0
 14 15  1  0
 14 41  1  0
 15 16  1  0
 16 17  2  0
 16 18  1  0
 18 19  1  0
 18 41  1  0
 19 20  1  0
 20 21  2  0
 20 25  1  0
 21 22  1  0
 22 23  2  0
 23 24  1  0
 24 25  2  0
 25 26  1  0
 26 27  2  0
 26 28  1  0
 28 29  1  0
 38 28  1  1
 29 30  2  0
 29 37  1  0
 30 31  1  0
 31 32  2  0
 32 33  1  0
 32 36  1  0
 33 34  1  0
 33 35  2  0
 36 37  2  0
 38 39  1  0
 38 40  1  0
 39 40  1  0
 41 42  2  0
M  END
