
     RDKit          3D

 45 49  0  0  0  0  0  0  0  0999 V2000
    9.5830    1.5530   -0.3900 C   0  0  0  0  0  0  0  0  0  0  0  0
    9.0700    1.0440    0.8610 N   0  0  0  0  0  0  0  0  0  0  0  0
    7.9770    0.1590    0.5300 C   0  0  0  0  0  0  0  0  0  0  0  0
    8.4220   -1.1670    0.0290 C   0  0  0  0  0  0  0  0  0  0  0  0
    9.7630   -1.4770   -0.1170 C   0  0  0  0  0  0  0  0  0  0  0  0
   10.1510   -2.7230   -0.6160 C   0  0  0  0  0  0  0  0  0  0  0  0
    9.1890   -3.6540   -0.9670 C   0  0  0  0  0  0  0  0  0  0  0  0
    7.8760   -3.3040   -0.8050 C   0  0  0  0  0  0  0  0  0  0  0  0
    7.4590   -2.0990   -0.3220 C   0  0  0  0  0  0  0  0  0  0  0  0
    6.0640   -1.7930   -0.1310 C   0  0  0  0  0  0  0  0  0  0  0  0
    5.5710   -1.7170    1.1490 C   0  0  0  0  0  0  0  0  0  0  0  0
    4.2550   -1.4050    1.3780 C   0  0  0  0  0  0  0  0  0  0  0  0
    3.3510   -1.1510    0.3410 C   0  0  0  0  0  0  0  0  0  0  0  0
    1.9310   -0.8470    0.6040 C   0  0  1  0  0  0  0  0  0  0  0  0
    1.5580   -1.1390    2.0540 C   0  0  0  0  0  0  0  0  0  0  0  0
    1.5630    0.5030    0.2960 N   0  0  0  0  0  0  0  0  0  0  0  0
    0.4920    0.8460   -0.5380 C   0  0  0  0  0  0  0  0  0  0  0  0
   -0.2060   -0.0450   -1.0690 O   0  0  0  0  0  0  0  0  0  0  0  0
    0.1440    2.2700   -0.8210 C   0  0  0  0  0  0  0  0  0  0  0  0
   -0.9930    2.3410   -1.6730 N   0  0  2  0  0  0  0  0  0  0  0  0
   -0.9360    3.6030   -2.4050 C   0  0  0  0  0  0  0  0  0  0  0  0
   -1.8790    3.5570   -3.6060 C   0  0  0  0  0  0  0  0  0  0  0  0
   -3.2230    3.2460   -3.0660 N   0  0  0  0  0  0  0  0  0  0  0  0
   -3.2970    2.9730   -1.6470 C   0  0  0  0  0  0  0  0  0  0  0  0
   -4.2400    3.4930   -1.0390 O   0  0  0  0  0  0  0  0  0  0  0  0
   -2.2610    2.1090   -1.0440 C   0  0  2  0  0  0  0  0  0  0  0  0
   -2.2270    2.1120    0.4480 C   0  0  0  0  0  0  0  0  0  0  0  0
   -3.5340    1.8700    1.1060 C   0  0  0  0  0  0  0  0  0  0  0  0
   -4.2110    0.5990    0.7800 C   0  0  0  0  0  0  0  0  0  0  0  0
   -3.6980   -0.2640    0.0560 O   0  0  0  0  0  0  0  0  0  0  0  0
   -5.5220    0.3600    1.3280 N   0  0  0  0  0  0  0  0  0  0  0  0
   -6.2580   -0.8700    1.0390 C   0  0  2  0  0  0  0  0  0  0  0  0
   -7.3990   -0.5930    0.1400 C   0  0  0  0  0  0  0  0  0  0  0  0
   -7.2300    0.2720   -0.9420 C   0  0  0  0  0  0  0  0  0  0  0  0
   -8.2950    0.5140   -1.7690 C   0  0  0  0  0  0  0  0  0  0  0  0
   -9.5360   -0.0580   -1.5850 C   0  0  0  0  0  0  0  0  0  0  0  0
   -9.7080   -0.9090   -0.5230 C   0  0  0  0  0  0  0  0  0  0  0  0
   -8.6190   -1.1600    0.3270 C   0  0  0  0  0  0  0  0  0  0  0  0
   -8.8040   -2.0720    1.4630 C   0  0  0  0  0  0  0  0  0  0  0  0
   -9.6370   -3.0040    1.3890 O   0  0  0  0  0  0  0  0  0  0  0  0
   -7.9520   -1.8010    2.6550 C   0  0  0  0  0  0  0  0  0  0  0  0
   -6.5080   -1.6510    2.2590 C   0  0  1  0  0  0  0  0  0  0  0  0
   -5.9660   -3.0770    2.0780 C   0  0  0  0  0  0  0  0  0  0  0  0
    3.8630   -1.2320   -0.9300 C   0  0  0  0  0  0  0  0  0  0  0  0
    5.1890   -1.5460   -1.1760 C   0  0  0  0  0  0  0  0  0  0  0  0
  1  2  1  0
  2  3  1  0
  3  4  1  0
  4  5  2  0
  4  9  1  0
  5  6  1  0
  6  7  2  0
  7  8  1  0
  8  9  2  0
  9 10  1  0
 10 11  2  0
 10 45  1  0
 11 12  1  0
 12 13  2  0
 13 14  1  0
 13 44  1  0
 14 15  1  1
 14 16  1  0
 16 17  1  0
 17 18  2  0
 17 19  1  0
 20 19  1  1
 20 21  1  0
 20 26  1  0
 21 22  1  0
 22 23  1  0
 23 24  1  0
 24 25  2  0
 24 26  1  0
 26 27  1  1
 27 28  1  0
 28 29  1  0
 29 30  2  0
 29 31  1  0
 32 31  1  1
 32 33  1  0
 32 42  1  0
 33 34  2  0
 33 38  1  0
 34 35  1  0
 35 36  2  0
 36 37  1  0
 37 38  2  0
 38 39  1  0
 39 40  2  0
 39 41  1  0
 41 42  1  0
 42 43  1  6
 44 45  2  0
M  CHG  2   2   1  20   1
M  END
