
     RDKit          3D

 44 48  0  0  0  0  0  0  0  0999 V2000
    8.8690    1.2270    0.7270 C   0  0  0  0  0  0  0  0  0  0  0  0
    7.5490    0.5950    0.3820 C   0  0  0  0  0  0  0  0  0  0  0  0
    6.3580    1.1650    0.7230 C   0  0  0  0  0  0  0  0  0  0  0  0
    5.1600    0.5280    0.3740 C   0  0  0  0  0  0  0  0  0  0  0  0
    5.1550   -0.6630   -0.3070 C   0  0  0  0  0  0  0  0  0  0  0  0
    4.0520   -1.3180   -0.6680 O   0  0  0  0  0  0  0  0  0  0  0  0
    2.7050   -1.1510   -0.5490 C   0  0  0  0  0  0  0  0  0  0  0  0
    2.1110   -1.0980    0.8160 C   0  0  2  0  0  0  0  0  0  0  0  0
    2.4340   -2.3190    1.4850 O   0  0  0  0  0  0  0  0  0  0  0  0
    0.5820   -1.0380    0.7290 C   0  0  0  0  0  0  0  0  0  0  0  0
    0.1610    0.1610   -0.0230 C   0  0  1  0  0  0  0  0  0  0  0  0
   -1.3540    0.2930   -0.1430 C   0  0  1  0  0  0  0  0  0  0  0  0
   -1.9730   -1.0130    0.2990 C   0  0  0  0  0  0  0  0  0  0  0  0
   -2.5130   -1.0860    1.4230 O   0  0  0  0  0  0  0  0  0  0  0  0
   -1.9580   -2.1550   -0.5180 N   0  0  0  0  0  0  0  0  0  0  0  0
   -2.4600   -3.4450   -0.3280 C   0  0  0  0  0  0  0  0  0  0  0  0
   -3.9310   -3.6340   -0.1640 C   0  0  0  0  0  0  0  0  0  0  0  0
   -4.5980   -4.3530   -1.0870 C   0  0  0  0  0  0  0  0  0  0  0  0
   -6.0490   -4.5480   -0.9420 C   0  0  0  0  0  0  0  0  0  0  0  0
   -6.2460   -4.9060    0.4750 N   0  0  2  0  0  0  0  0  0  0  0  0
   -7.5550   -5.4680    0.6820 C   0  0  0  0  0  0  0  0  0  0  0  0
   -5.9860   -3.7590    1.2850 C   0  0  0  0  0  0  0  0  0  0  0  0
   -4.6760   -3.1030    0.9840 C   0  0  0  0  0  0  0  0  0  0  0  0
   -1.9180    1.3790    0.6910 C   0  0  0  0  0  0  0  0  0  0  0  0
   -1.9040    2.7360    0.0550 C   0  0  2  0  0  0  0  0  0  0  0  0
   -3.2380    3.2980    0.2030 N   0  0  0  0  0  0  0  0  0  0  0  0
   -3.1850    4.6790    0.6400 C   0  0  2  0  0  0  0  0  0  0  0  0
   -3.5850    4.6630    2.1190 C   0  0  0  0  0  0  0  0  0  0  0  0
   -4.1340    5.5490   -0.1000 C   0  0  0  0  0  0  0  0  0  0  0  0
   -4.9650    6.4930    0.4660 C   0  0  0  0  0  0  0  0  0  0  0  0
   -5.6850    7.0850   -0.5500 C   0  0  0  0  0  0  0  0  0  0  0  0
   -5.2420    6.4560   -1.7080 C   0  0  0  0  0  0  0  0  0  0  0  0
   -4.3350    5.5670   -1.3890 O   0  0  0  0  0  0  0  0  0  0  0  0
   -1.5460    2.7630   -1.3950 C   0  0  0  0  0  0  0  0  0  0  0  0
   -0.1170    2.5250   -1.7270 C   0  0  0  0  0  0  0  0  0  0  0  0
    0.8320    2.4270   -0.5940 C   0  0  0  0  0  0  0  0  0  0  0  0
    0.6540    1.4020    0.3500 N   0  0  0  0  0  0  0  0  0  0  0  0
    1.0590    1.7410    1.6290 C   0  0  0  0  0  0  0  0  0  0  0  0
    6.3970   -1.1930   -0.6260 C   0  0  0  0  0  0  0  0  0  0  0  0
    7.5750   -0.5840   -0.2930 C   0  0  0  0  0  0  0  0  0  0  0  0
    8.8430   -1.2780   -0.7080 C   0  0  0  0  0  0  0  0  0  0  0  0
    8.7190   -2.7100   -0.2890 C   0  0  0  0  0  0  0  0  0  0  0  0
    7.4310   -3.3630   -0.6400 C   0  0  0  0  0  0  0  0  0  0  0  0
    6.4480   -2.4660   -1.3560 C   0  0  0  0  0  0  0  0  0  0  0  0
  1  2  1  0
  2  3  2  0
  2 40  1  0
  3  4  1  0
  4  5  2  0
  5  6  1  0
  5 39  1  0
  6  7  1  0
  7  8  1  0
  8  9  1  1
  8 10  1  0
 11 10  1  1
 11 12  1  0
 11 37  1  0
 12 13  1  1
 12 24  1  0
 13 14  2  0
 13 15  1  0
 15 16  1  0
 16 17  1  0
 17 18  2  0
 17 23  1  0
 18 19  1  0
 19 20  1  0
 20 21  1  6
 20 22  1  0
 22 23  1  0
 24 25  1  0
 25 26  1  6
 25 34  1  0
 26 27  1  0
 27 28  1  1
 27 29  1  0
 29 30  2  0
 29 33  1  0
 30 31  1  0
 31 32  2  0
 32 33  1  0
 34 35  1  0
 35 36  1  0
 36 37  1  0
 37 38  1  0
 39 40  2  0
 39 44  1  0
 40 41  1  0
 41 42  1  0
 42 43  1  0
 43 44  1  0
M  CHG  2  20   1  26   1
M  END
