
     RDKit          3D

 45 49  0  0  0  0  0  0  0  0999 V2000
   -1.1580   -1.7910    2.3150 C   0  0  0  0  0  0  0  0  0  0  0  0
   -2.3220   -1.0150    2.6890 N   0  0  0  0  0  0  0  0  0  0  0  0
   -3.4340   -1.1740    1.8200 C   0  0  2  0  0  0  0  0  0  0  0  0
   -3.6050   -0.1550    0.7680 C   0  0  0  0  0  0  0  0  0  0  0  0
   -2.6450    0.1300   -0.2770 C   0  0  1  0  0  0  0  0  0  0  0  0
   -3.3370    1.1950   -1.2220 C   0  0  0  0  0  0  0  0  0  0  0  0
   -4.5590    0.7500   -1.8260 C   0  0  0  0  0  0  0  0  0  0  0  0
   -4.4810   -0.0610   -2.9800 C   0  0  0  0  0  0  0  0  0  0  0  0
   -5.6140   -0.5830   -3.5510 C   0  0  0  0  0  0  0  0  0  0  0  0
   -5.5300   -1.4550   -4.7760 C   0  0  0  0  0  0  0  0  0  0  0  0
   -6.8530   -0.3420   -3.0310 C   0  0  0  0  0  0  0  0  0  0  0  0
   -6.9760    0.4310   -1.9270 C   0  0  0  0  0  0  0  0  0  0  0  0
   -5.8180    0.9660   -1.3440 C   0  0  0  0  0  0  0  0  0  0  0  0
   -6.0770    1.8690   -0.1870 C   0  0  0  0  0  0  0  0  0  0  0  0
   -1.3870    0.7680   -0.0580 N   0  0  1  0  0  0  0  0  0  0  0  0
   -1.1630    1.5220    1.1140 C   0  0  0  0  0  0  0  0  0  0  0  0
   -0.3170    2.7550    0.7170 C   0  0  0  0  0  0  0  0  0  0  0  0
    1.0070    2.3520    0.2150 C   0  0  0  0  0  0  0  0  0  0  0  0
    1.1310    1.9660   -1.2230 C   0  0  1  0  0  0  0  0  0  0  0  0
    0.6240    2.9620   -2.1980 C   0  0  0  0  0  0  0  0  0  0  0  0
    2.6160    1.8350   -1.4660 C   0  0  0  0  0  0  0  0  0  0  0  0
    3.3420    0.8500   -0.7970 C   0  0  0  0  0  0  0  0  0  0  0  0
    4.7010    0.6830   -0.9760 C   0  0  0  0  0  0  0  0  0  0  0  0
    5.3920    1.5000   -1.8370 C   0  0  0  0  0  0  0  0  0  0  0  0
    6.8680    1.3770   -2.0950 C   0  0  0  0  0  0  0  0  0  0  0  0
    7.5000    0.3510   -1.3370 N   0  0  0  0  0  0  0  0  0  0  0  0
    7.5980    0.3650    0.0800 C   0  0  0  0  0  0  0  0  0  0  0  0
    7.1180    1.3360    0.7640 O   0  0  0  0  0  0  0  0  0  0  0  0
    8.2400   -0.7140    0.7730 C   0  0  0  0  0  0  0  0  0  0  0  0
    8.3720   -0.7820    2.0800 C   0  0  0  0  0  0  0  0  0  0  0  0
    9.0330   -1.9040    2.7310 C   0  0  0  0  0  0  0  0  0  0  0  0
    9.5700   -2.9780    2.0500 C   0  0  0  0  0  0  0  0  0  0  0  0
   10.1110   -3.8440    2.9940 C   0  0  0  0  0  0  0  0  0  0  0  0
    9.8730   -3.2450    4.2210 C   0  0  0  0  0  0  0  0  0  0  0  0
    9.2370   -2.1100    4.0000 O   0  0  0  0  0  0  0  0  0  0  0  0
    4.6580    2.4750   -2.4970 C   0  0  0  0  0  0  0  0  0  0  0  0
    5.2500    3.2280   -3.2810 O   0  0  0  0  0  0  0  0  0  0  0  0
    3.3180    2.6100   -2.2950 N   0  0  0  0  0  0  0  0  0  0  0  0
    0.5690    0.6090   -1.5290 C   0  0  0  0  0  0  0  0  0  0  0  0
   -0.2080   -0.0140   -0.3840 C   0  0  0  0  0  0  0  0  0  0  0  0
   -4.6740   -1.2020    2.7570 C   0  0  1  0  0  0  0  0  0  0  0  0
   -5.9300   -1.5800    2.0840 C   0  0  0  0  0  0  0  0  0  0  0  0
   -5.7570   -3.0180    1.9160 N   0  0  0  0  0  0  0  0  0  0  0  0
   -5.1350   -3.3700    3.1780 C   0  0  0  0  0  0  0  0  0  0  0  0
   -4.4230   -2.2870    3.6050 O   0  0  0  0  0  0  0  0  0  0  0  0
  1  2  1  0
  2  3  1  0
  3  4  1  6
  3 41  1  0
  5  4  1  1
  5  6  1  0
  5 15  1  0
  6  7  1  0
  7  8  2  0
  7 13  1  0
  8  9  1  0
  9 10  1  0
  9 11  2  0
 11 12  1  0
 12 13  2  0
 13 14  1  0
 15 16  1  1
 15 40  1  0
 16 17  1  0
 17 18  1  0
 18 19  1  0
 19 20  1  6
 19 21  1  0
 19 39  1  0
 21 22  2  0
 21 38  1  0
 22 23  1  0
 23 24  2  0
 24 25  1  0
 24 36  1  0
 25 26  1  0
 26 27  1  0
 27 28  2  0
 27 29  1  0
 29 30  2  3
 30 31  1  0
 31 32  2  0
 31 35  1  0
 32 33  1  0
 33 34  2  0
 34 35  1  0
 36 37  2  0
 36 38  1  0
 39 40  1  0
 41 42  1  6
 41 45  1  0
 42 43  1  0
 43 44  1  0
 44 45  1  0
M  CHG  2   2   1  15   1
M  END
