
     RDKit          3D

 34 36  0  0  0  0  0  0  0  0999 V2000
   -7.3540   -0.2840    0.1020 C   0  0  0  0  0  0  0  0  0  0  0  0
   -6.7920   -0.6640   -1.1770 N   0  0  0  0  0  0  0  0  0  0  0  0
   -5.4800   -1.2510   -1.0480 C   0  0  2  0  0  0  0  0  0  0  0  0
   -4.4720   -0.2830   -0.4640 C   0  0  1  0  0  0  0  0  0  0  0  0
   -4.6840   -0.0520    0.8850 O   0  0  0  0  0  0  0  0  0  0  0  0
   -3.0980   -0.8720   -0.7250 C   0  0  1  0  0  0  0  0  0  0  0  0
   -2.3160   -0.7240    0.4230 O   0  0  0  0  0  0  0  0  0  0  0  0
   -1.1730    0.0270    0.2030 C   0  0  2  0  0  0  0  0  0  0  0  0
    0.0880   -0.7580    0.4860 C   0  0  1  0  0  0  0  0  0  0  0  0
    0.4760   -1.3690   -0.6700 O   0  0  0  0  0  0  0  0  0  0  0  0
    1.1520    0.1420    1.1030 C   0  0  2  0  0  0  0  0  0  0  0  0
    2.3320   -0.5020    1.3300 O   0  0  0  0  0  0  0  0  0  0  0  0
    3.4560    0.0320    0.7600 C   0  0  1  0  0  0  0  0  0  0  0  0
    4.3600    0.5170    1.6900 O   0  0  0  0  0  0  0  0  0  0  0  0
    5.4620    1.1060    1.1670 C   0  0  2  0  0  0  0  0  0  0  0  0
    5.1900    2.3980    0.4310 C   0  0  1  0  0  0  0  0  0  0  0  0
    4.6140    3.4410    1.3660 C   0  0  0  0  0  0  0  0  0  0  0  0
    6.3760    2.9370   -0.0780 O   0  0  0  0  0  0  0  0  0  0  0  0
    6.2770    0.2280    0.2490 C   0  0  1  0  0  0  0  0  0  0  0  0
    7.5620   -0.0120    0.7420 O   0  0  0  0  0  0  0  0  0  0  0  0
    5.6030   -1.0910    0.0830 C   0  0  2  0  0  0  0  0  0  0  0  0
    6.1350   -1.7940   -0.9950 O   0  0  0  0  0  0  0  0  0  0  0  0
    4.1410   -0.8430   -0.2330 C   0  0  1  0  0  0  0  0  0  0  0  0
    3.5090   -2.1370   -0.3920 N   0  0  0  0  0  0  0  0  0  0  0  0
    0.5730    0.5270    2.4510 C   0  0  1  0  0  0  0  0  0  0  0  0
    1.4920    1.3150    3.2370 N   0  0  0  0  0  0  0  0  0  0  0  0
   -0.7510    1.1920    2.3870 C   0  0  0  0  0  0  0  0  0  0  0  0
   -1.2650    1.2900    0.9950 C   0  0  1  0  0  0  0  0  0  0  0  0
   -0.6960    2.4430    0.2950 N   0  0  0  0  0  0  0  0  0  0  0  0
   -3.1520   -2.2360   -1.0000 O   0  0  0  0  0  0  0  0  0  0  0  0
   -3.7690   -2.5020   -2.2200 C   0  0  0  0  0  0  0  0  0  0  0  0
   -4.9690   -1.5950   -2.4320 C   0  0  1  0  0  0  0  0  0  0  0  0
   -6.0020   -2.2110   -3.3150 C   0  0  0  0  0  0  0  0  0  0  0  0
   -4.5490   -0.3960   -3.0110 O   0  0  0  0  0  0  0  0  0  0  0  0
  1  2  1  0
  3  2  1  6
  3  4  1  0
  3 32  1  0
  4  5  1  1
  4  6  1  0
  6  7  1  1
  6 30  1  0
  8  7  1  1
  8  9  1  0
  8 28  1  0
  9 10  1  6
  9 11  1  0
 11 12  1  1
 11 25  1  0
 13 12  1  1
 13 14  1  0
 13 23  1  0
 15 14  1  6
 15 16  1  0
 15 19  1  0
 16 17  1  1
 16 18  1  0
 19 20  1  1
 19 21  1  0
 21 22  1  6
 21 23  1  0
 23 24  1  1
 25 26  1  6
 25 27  1  0
 27 28  1  0
 28 29  1  6
 30 31  1  0
 31 32  1  0
 32 33  1  6
 32 34  1  0
M  END
