
     RDKit          3D

 45 49  0  0  0  0  0  0  0  0999 V2000
    9.3040    1.7040   -3.0700 C   0  0  0  0  0  0  0  0  0  0  0  0
    8.8310    0.4700   -2.3430 C   0  0  1  0  0  0  0  0  0  0  0  0
    9.6850   -0.6590   -2.9980 C   0  0  0  0  0  0  0  0  0  0  0  0
    9.4600   -1.9040   -2.5400 O   0  0  0  0  0  0  0  0  0  0  0  0
    9.2100    0.5730   -0.8800 C   0  0  0  0  0  0  0  0  0  0  0  0
   10.2260    1.1290   -0.3060 N   0  0  0  0  0  0  0  0  0  0  0  0
   10.1600    0.8950    0.9790 N   0  0  0  0  0  0  0  0  0  0  0  0
   11.1540    1.4790    1.9310 C   0  0  0  0  0  0  0  0  0  0  0  0
    9.1040    0.1770    1.3010 C   0  0  0  0  0  0  0  0  0  0  0  0
    8.6170   -0.3210    2.6390 C   0  0  0  0  0  0  0  0  0  0  0  0
    8.7380   -1.7330    2.7330 O   0  0  0  0  0  0  0  0  0  0  0  0
    8.4590   -0.0450    0.1240 C   0  0  0  0  0  0  0  0  0  0  0  0
    7.3180   -0.9360   -0.2020 C   0  0  0  0  0  0  0  0  0  0  0  0
    6.0560   -0.2940   -0.2680 N   0  0  1  0  0  0  0  0  0  0  0  0
    5.3470   -0.8750   -1.4420 C   0  0  0  0  0  0  0  0  0  0  0  0
    4.3830   -1.9050   -0.9870 C   0  0  0  0  0  0  0  0  0  0  0  0
    2.9760   -1.4240   -0.9640 C   0  0  0  0  0  0  0  0  0  0  0  0
    2.7650   -0.2640   -0.0090 C   0  0  2  0  0  0  0  0  0  0  0  0
    1.6990    0.5090   -0.5960 N   0  0  0  0  0  0  0  0  0  0  0  0
    0.4320    0.2210   -0.0150 C   0  0  0  0  0  0  0  0  0  0  0  0
   -0.2370   -0.9540   -0.3990 C   0  0  0  0  0  0  0  0  0  0  0  0
   -1.5020   -1.1110    0.1300 C   0  0  0  0  0  0  0  0  0  0  0  0
   -2.0570   -0.1990    0.9610 C   0  0  0  0  0  0  0  0  0  0  0  0
   -3.5200   -0.3470    1.3630 C   0  0  0  0  0  0  0  0  0  0  0  0
   -4.2680    0.1960    0.1130 C   0  0  0  0  0  0  0  0  0  0  0  0
   -5.6200    0.5400    0.2700 C   0  0  0  0  0  0  0  0  0  0  0  0
   -6.8880   -0.2050    0.3950 C   0  0  2  0  0  0  0  0  0  0  0  0
   -7.8110    0.9240    0.6220 N   0  0  2  0  0  0  0  0  0  0  0  0
   -7.3330    1.5810    1.8700 C   0  0  0  0  0  0  0  0  0  0  0  0
   -9.1530    0.9260    0.5540 C   0  0  1  0  0  0  0  0  0  0  0  0
   -9.7450    1.9240   -0.4810 C   0  0  0  0  0  0  0  0  0  0  0  0
  -11.0210    2.4410    0.1060 C   0  0  0  0  0  0  0  0  0  0  0  0
  -11.8050    1.5690    0.6980 C   0  0  0  0  0  0  0  0  0  0  0  0
  -11.4490    0.1440    0.7800 C   0  0  0  0  0  0  0  0  0  0  0  0
  -10.0270   -0.2360    0.4460 C   0  0  0  0  0  0  0  0  0  0  0  0
   -6.8900   -1.2640    1.4030 C   0  0  0  0  0  0  0  0  0  0  0  0
   -7.1140   -2.6870    0.9370 C   0  0  0  0  0  0  0  0  0  0  0  0
   -6.7190   -2.9890   -0.3290 O   0  0  0  0  0  0  0  0  0  0  0  0
   -7.3740   -2.1560   -1.2040 C   0  0  0  0  0  0  0  0  0  0  0  0
   -7.1390   -0.7140   -1.0320 C   0  0  0  0  0  0  0  0  0  0  0  0
   -1.3710    0.9610    1.3490 C   0  0  0  0  0  0  0  0  0  0  0  0
   -0.1370    1.1450    0.8430 C   0  0  0  0  0  0  0  0  0  0  0  0
    3.9400    0.6350    0.1420 C   0  0  1  0  0  0  0  0  0  0  0  0
    3.6080    1.7150    0.9540 O   0  0  0  0  0  0  0  0  0  0  0  0
    5.1790   -0.0350    0.7820 C   0  0  0  0  0  0  0  0  0  0  0  0
  2  1  1  6
  2  3  1  0
  2  5  1  0
  3  4  1  0
  5  6  2  0
  5 12  1  0
  6  7  1  0
  7  8  1  0
  7  9  1  0
  9 10  1  0
  9 12  2  0
 10 11  1  0
 12 13  1  0
 14 13  1  1
 14 15  1  0
 14 45  1  0
 15 16  1  0
 16 17  1  0
 17 18  1  0
 18 19  1  6
 18 43  1  0
 19 20  1  0
 20 21  2  0
 20 42  1  0
 21 22  1  0
 22 23  2  0
 23 24  1  0
 23 41  1  0
 24 25  1  0
 25 26  1  0
 27 26  1  6
 27 28  1  0
 27 36  1  0
 27 40  1  0
 28 29  1  1
 28 30  1  0
 30 31  1  6
 30 35  1  0
 31 32  1  0
 32 33  2  0
 33 34  1  0
 34 35  1  0
 36 37  1  0
 37 38  1  0
 38 39  1  0
 39 40  1  0
 41 42  2  0
 43 44  1  1
 43 45  1  0
M  CHG  3  14   1  19   1  28   1
M  END
