
     RDKit          3D

 38 41  0  0  0  0  0  0  0  0999 V2000
   -5.4410    1.2360   -4.9960 C   0  0  0  0  0  0  0  0  0  0  0  0
   -4.7660    1.5030   -3.7020 C   0  0  0  0  0  0  0  0  0  0  0  0
   -4.0070    2.4940   -3.6340 O   0  0  0  0  0  0  0  0  0  0  0  0
   -4.9410    0.6960   -2.5620 N   0  0  0  0  0  0  0  0  0  0  0  0
   -4.3070    0.9150   -1.2780 C   0  0  2  0  0  0  0  0  0  0  0  0
   -3.4460   -0.2050   -0.8920 C   0  0  0  0  0  0  0  0  0  0  0  0
   -3.5690   -0.5970    0.5240 C   0  0  1  0  0  0  0  0  0  0  0  0
   -2.2890   -0.7960    1.2560 C   0  0  0  0  0  0  0  0  0  0  0  0
   -1.9530   -1.9590    1.6030 O   0  0  0  0  0  0  0  0  0  0  0  0
   -1.4400    0.2860    1.5710 N   0  0  0  0  0  0  0  0  0  0  0  0
   -0.2090    0.1500    2.2550 C   0  0  0  0  0  0  0  0  0  0  0  0
    0.5380   -0.9870    2.3120 C   0  0  0  0  0  0  0  0  0  0  0  0
    1.7300   -1.0570    3.0500 C   0  0  0  0  0  0  0  0  0  0  0  0
    2.2080    0.0210    3.7560 C   0  0  0  0  0  0  0  0  0  0  0  0
    3.4660   -0.1140    4.5390 C   0  0  0  0  0  0  0  0  0  0  0  0
    4.4180   -0.9550    3.9960 O   0  0  0  0  0  0  0  0  0  0  0  0
    5.0080   -0.7480    2.7920 C   0  0  0  0  0  0  0  0  0  0  0  0
    4.7040    0.3350    2.0150 C   0  0  0  0  0  0  0  0  0  0  0  0
    5.3130    0.5430    0.7840 C   0  0  0  0  0  0  0  0  0  0  0  0
    6.2440   -0.3640    0.3430 C   0  0  0  0  0  0  0  0  0  0  0  0
    6.8730   -0.1490   -0.9030 N   0  0  0  0  0  0  0  0  0  0  0  0
    6.7870   -1.1060   -1.9830 C   0  0  0  0  0  0  0  0  0  0  0  0
    8.1280   -1.1660   -2.6680 C   0  0  0  0  0  0  0  0  0  0  0  0
    8.4260    0.2030   -3.2490 C   0  0  0  0  0  0  0  0  0  0  0  0
    8.5350    1.1150   -2.1660 O   0  0  0  0  0  0  0  0  0  0  0  0
    7.6170    1.0460   -1.1130 C   0  0  0  0  0  0  0  0  0  0  0  0
    7.4500    2.0390   -0.3540 O   0  0  0  0  0  0  0  0  0  0  0  0
    6.5770   -1.4660    1.0950 C   0  0  0  0  0  0  0  0  0  0  0  0
    5.9460   -1.6390    2.3180 C   0  0  0  0  0  0  0  0  0  0  0  0
    1.4590    1.1740    3.7020 C   0  0  0  0  0  0  0  0  0  0  0  0
    0.2920    1.2470    2.9820 C   0  0  0  0  0  0  0  0  0  0  0  0
   -4.5180    0.7890    1.2890 S   0  0  0  0  0  0  0  0  0  0  0  0
   -5.3250    1.2810   -0.2930 C   0  0  2  0  0  0  0  0  0  0  0  0
   -6.6820    0.6770   -0.4030 C   0  0  1  0  0  0  0  0  0  0  0  0
   -7.3210    0.9650   -1.6020 O   0  0  0  0  0  0  0  0  0  0  0  0
   -6.7580   -0.7760   -0.0610 C   0  0  0  0  0  0  0  0  0  0  0  0
   -8.1970   -1.2220   -0.2270 C   0  0  0  0  0  0  0  0  0  0  0  0
   -9.0640   -0.5140    0.5980 O   0  0  0  0  0  0  0  0  0  0  0  0
  1  2  1  0
  2  3  2  0
  2  4  1  0
  5  4  1  6
  5  6  1  0
  5 33  1  0
  6  7  1  0
  7  8  1  1
  7 32  1  0
  8  9  2  0
  8 10  1  0
 10 11  1  0
 11 12  2  0
 11 31  1  0
 12 13  1  0
 13 14  2  0
 14 15  1  0
 14 30  1  0
 15 16  1  0
 16 17  1  0
 17 18  2  0
 17 29  1  0
 18 19  1  0
 19 20  2  0
 20 21  1  0
 20 28  1  0
 21 22  1  0
 21 26  1  0
 22 23  1  0
 23 24  1  0
 24 25  1  0
 25 26  1  0
 26 27  2  0
 28 29  2  0
 30 31  2  0
 33 32  1  1
 33 34  1  0
 34 35  1  6
 34 36  1  0
 36 37  1  0
 37 38  1  0
M  END
