
     RDKit          3D

 38 40  0  0  0  0  0  0  0  0999 V2000
   -1.7640   -6.4480   -0.7610 C   0  0  0  0  0  0  0  0  0  0  0  0
   -0.6980   -6.1280    0.2560 C   0  0  0  0  0  0  0  0  0  0  0  0
   -0.2070   -4.8230   -0.0160 O   0  0  0  0  0  0  0  0  0  0  0  0
   -1.0870   -3.7290    0.0210 C   0  0  0  0  0  0  0  0  0  0  0  0
   -2.2680   -3.9670    0.2950 O   0  0  0  0  0  0  0  0  0  0  0  0
   -0.6660   -2.4150   -0.2380 N   0  0  0  0  0  0  0  0  0  0  0  0
   -1.4360   -1.2420   -0.2330 C   0  0  0  0  0  0  0  0  0  0  0  0
   -2.7680   -1.1860    0.0330 C   0  0  0  0  0  0  0  0  0  0  0  0
   -3.5050    0.0070    0.0280 C   0  0  0  0  0  0  0  0  0  0  0  0
   -2.8390    1.1680   -0.2620 C   0  0  0  0  0  0  0  0  0  0  0  0
   -1.4880    1.1280   -0.5340 C   0  0  0  0  0  0  0  0  0  0  0  0
   -0.7630   -0.0330   -0.5300 C   0  0  0  0  0  0  0  0  0  0  0  0
    0.5650   -0.0610   -0.8020 O   0  0  0  0  0  0  0  0  0  0  0  0
    1.4720    0.8940   -1.0880 C   0  0  0  0  0  0  0  0  0  0  0  0
    1.7520    1.8980    0.0390 C   0  0  1  0  0  0  0  0  0  0  0  0
    2.2380    1.2460    1.1500 O   0  0  0  0  0  0  0  0  0  0  0  0
    2.7450    2.9270   -0.4390 C   0  0  0  0  0  0  0  0  0  0  0  0
    3.9940    2.3730   -0.8230 N   0  0  0  0  0  0  0  0  0  0  0  0
    4.8730    1.7160    0.0600 C   0  0  0  0  0  0  0  0  0  0  0  0
    4.6610    1.5660    1.2850 O   0  0  0  0  0  0  0  0  0  0  0  0
    6.1170    1.1530   -0.4050 N   0  0  0  0  0  0  0  0  0  0  0  0
    7.0060    0.4840    0.5120 C   0  0  2  0  0  0  0  0  0  0  0  0
    8.3320    1.2340    0.4830 C   0  0  0  0  0  0  0  0  0  0  0  0
    7.2440   -0.9650    0.0870 C   0  0  2  0  0  0  0  0  0  0  0  0
    5.9090   -1.6780    0.1450 C   0  0  0  0  0  0  0  0  0  0  0  0
    8.0960   -1.6070    0.9650 O   0  0  0  0  0  0  0  0  0  0  0  0
    9.2370   -2.0980    0.3280 C   0  0  0  0  0  0  0  0  0  0  0  0
   -3.5420    2.4960   -0.2930 C   0  0  0  0  0  0  0  0  0  0  0  0
   -4.8840    2.4140    0.3220 C   0  0  0  0  0  0  0  0  0  0  0  0
   -5.7720    3.3480    0.0830 C   0  0  0  0  0  0  0  0  0  0  0  0
   -7.0770    3.4920    0.5350 O   0  0  0  0  0  0  0  0  0  0  0  0
   -7.9290    3.9470   -0.4990 C   0  0  0  0  0  0  0  0  0  0  0  0
   -7.3480    5.2790   -0.9960 C   0  0  0  0  0  0  0  0  0  0  0  0
   -5.5630    4.8160   -0.9640 S   0  0  0  0  0  0  0  0  0  0  0  0
   -5.1770    1.2580    1.2020 C   0  0  0  0  0  0  0  0  0  0  0  0
   -4.9590    0.0140    0.3290 C   0  0  2  0  0  0  0  0  0  0  0  0
   -5.4400   -1.1820    1.0780 C   0  0  0  0  0  0  0  0  0  0  0  0
   -6.9450   -0.9830    1.2900 C   0  0  0  0  0  0  0  0  0  0  0  0
  1  2  1  0
  2  3  1  0
  3  4  1  0
  4  5  2  0
  4  6  1  0
  6  7  1  0
  7  8  2  0
  7 12  1  0
  8  9  1  0
  9 10  2  0
  9 36  1  0
 10 11  1  0
 10 28  1  0
 11 12  2  0
 12 13  1  0
 13 14  1  0
 14 15  1  0
 15 16  1  1
 15 17  1  0
 17 18  1  0
 18 19  1  0
 19 20  2  0
 19 21  1  0
 21 22  1  0
 22 23  1  6
 22 24  1  0
 24 25  1  1
 24 26  1  0
 26 27  1  0
 28 29  1  0
 29 30  2  3
 29 35  1  0
 30 31  1  0
 30 34  1  0
 31 32  1  0
 32 33  1  0
 33 34  1  0
 35 36  1  0
 36 37  1  1
 37 38  1  0
M  END
