
     RDKit          3D

 38 42  0  0  0  0  0  0  0  0999 V2000
   -9.6470    2.6780   -0.4060 C   0  0  0  0  0  0  0  0  0  0  0  0
   -9.5820    1.5880    0.3330 C   0  0  0  0  0  0  0  0  0  0  0  0
   -8.3050    0.8270    0.4560 C   0  0  0  0  0  0  0  0  0  0  0  0
   -7.3100    1.4740   -0.3290 N   0  0  0  0  0  0  0  0  0  0  0  0
   -6.0080    0.9090   -0.3190 C   0  0  2  0  0  0  0  0  0  0  0  0
   -5.9500   -0.5210   -0.8690 C   0  0  0  0  0  0  0  0  0  0  0  0
   -4.4560   -0.7080   -1.1790 C   0  0  0  0  0  0  0  0  0  0  0  0
   -3.6570   -0.6690   -0.0170 N   0  0  0  0  0  0  0  0  0  0  0  0
   -2.3840   -0.0600   -0.3200 C   0  0  0  0  0  0  0  0  0  0  0  0
   -1.5470   -0.7770   -1.2800 C   0  0  0  0  0  0  0  0  0  0  0  0
   -1.7340   -0.9490   -2.5750 N   0  0  0  0  0  0  0  0  0  0  0  0
   -0.7100   -1.6640   -3.0680 C   0  0  0  0  0  0  0  0  0  0  0  0
    0.1360   -1.9360   -2.0270 C   0  0  0  0  0  0  0  0  0  0  0  0
   -0.4000   -1.3790   -0.9290 N   0  0  0  0  0  0  0  0  0  0  0  0
    0.2090   -1.4510    0.3540 C   0  0  0  0  0  0  0  0  0  0  0  0
    0.2560   -2.6240    1.0670 C   0  0  0  0  0  0  0  0  0  0  0  0
    0.8290   -2.7480    2.3120 C   0  0  0  0  0  0  0  0  0  0  0  0
    1.3850   -1.5980    2.8530 C   0  0  0  0  0  0  0  0  0  0  0  0
    1.3500   -0.4120    2.1580 C   0  0  0  0  0  0  0  0  0  0  0  0
    0.7740   -0.3070    0.9160 C   0  0  0  0  0  0  0  0  0  0  0  0
    0.7400    0.9370    0.2230 N   0  0  0  0  0  0  0  0  0  0  0  0
    1.3510    2.1010    0.8050 C   0  0  0  0  0  0  0  0  0  0  0  0
    2.8330    2.0530    0.8550 C   0  0  0  0  0  0  0  0  0  0  0  0
    3.4350    3.0080    1.3720 O   0  0  0  0  0  0  0  0  0  0  0  0
    3.5230    0.9450    0.3240 N   0  0  0  0  0  0  0  0  0  0  0  0
    4.9250    0.8000    0.3300 C   0  0  0  0  0  0  0  0  0  0  0  0
    5.8120    1.5930    1.0060 C   0  0  0  0  0  0  0  0  0  0  0  0
    7.1880    1.3840    0.9450 C   0  0  0  0  0  0  0  0  0  0  0  0
    7.7110    0.3600    0.1960 C   0  0  0  0  0  0  0  0  0  0  0  0
    8.9660   -0.1100   -0.0740 C   0  0  0  0  0  0  0  0  0  0  0  0
   10.2300    0.4770    0.4670 C   0  0  0  0  0  0  0  0  0  0  0  0
    8.8180   -1.1610   -0.8930 N   0  0  0  0  0  0  0  0  0  0  0  0
    7.5540   -1.3750   -1.1500 N   0  0  0  0  0  0  0  0  0  0  0  0
    7.0370   -2.4300   -1.9970 C   0  0  0  0  0  0  0  0  0  0  0  0
    6.8260   -0.4400   -0.4840 C   0  0  0  0  0  0  0  0  0  0  0  0
    5.4770   -0.2360   -0.4260 C   0  0  0  0  0  0  0  0  0  0  0  0
   -4.1980   -0.0490    1.1330 C   0  0  0  0  0  0  0  0  0  0  0  0
   -5.3140    0.8990    0.9900 C   0  0  0  0  0  0  0  0  0  0  0  0
  1  2  2  0
  2  3  1  0
  3  4  1  0
  5  4  1  1
  5  6  1  0
  5 38  1  0
  6  7  1  0
  7  8  1  0
  8  9  1  0
  8 37  1  0
  9 10  1  0
 10 11  2  0
 10 14  1  0
 11 12  1  0
 12 13  2  0
 13 14  1  0
 14 15  1  0
 15 16  2  0
 15 20  1  0
 16 17  1  0
 17 18  2  0
 18 19  1  0
 19 20  2  0
 20 21  1  0
 21 22  1  0
 22 23  1  0
 23 24  2  0
 23 25  1  0
 25 26  1  0
 26 27  2  0
 26 36  1  0
 27 28  1  0
 28 29  2  0
 29 30  1  0
 29 35  1  0
 30 31  1  0
 30 32  2  0
 32 33  1  0
 33 34  1  0
 33 35  1  0
 35 36  2  0
 37 38  1  0
M  CHG  1  11   1
M  END
