
     RDKit          3D

 38 41  0  0  0  0  0  0  0  0999 V2000
    7.4400   -1.2960   -0.7430 C   0  0  0  0  0  0  0  0  0  0  0  0
    6.8380   -0.1130   -1.2110 O   0  0  0  0  0  0  0  0  0  0  0  0
    6.7020    0.8210   -0.1870 C   0  0  1  0  0  0  0  0  0  0  0  0
    7.5270    2.0220   -0.5930 C   0  0  0  0  0  0  0  0  0  0  0  0
    7.8490    2.9210    0.5790 C   0  0  0  0  0  0  0  0  0  0  0  0
    6.2460    3.2950    1.3830 S   0  0  0  0  0  0  0  0  0  0  0  0
    4.9650    2.5690    0.3620 C   0  0  0  0  0  0  0  0  0  0  0  0
    5.2430    1.1490   -0.0430 C   0  0  2  0  0  0  0  0  0  0  0  0
    4.6430    0.2200    0.8370 O   0  0  0  0  0  0  0  0  0  0  0  0
    3.6720   -0.6520    0.4250 C   0  0  0  0  0  0  0  0  0  0  0  0
    3.3210   -0.5960   -0.8000 O   0  0  0  0  0  0  0  0  0  0  0  0
    3.0070   -1.6390    1.2800 C   0  0  0  0  0  0  0  0  0  0  0  0
    1.9810   -2.4240    0.5620 C   0  0  0  0  0  0  0  0  0  0  0  0
    2.0800   -3.6520    0.0850 N   0  0  0  0  0  0  0  0  0  0  0  0
    0.9390   -4.0310   -0.5200 C   0  0  0  0  0  0  0  0  0  0  0  0
    0.5480   -5.1950   -1.1430 C   0  0  0  0  0  0  0  0  0  0  0  0
   -0.7160   -5.3350   -1.6740 C   0  0  0  0  0  0  0  0  0  0  0  0
   -1.6230   -4.3100   -1.5920 C   0  0  0  0  0  0  0  0  0  0  0  0
   -1.2280   -3.1380   -0.9650 C   0  0  0  0  0  0  0  0  0  0  0  0
    0.0300   -2.9760   -0.4300 C   0  0  0  0  0  0  0  0  0  0  0  0
    0.6950   -1.9660    0.2520 C   0  0  0  0  0  0  0  0  0  0  0  0
    0.1980   -0.6700    0.6670 C   0  0  0  0  0  0  0  0  0  0  0  0
   -1.0510   -0.1890    0.2410 N   0  0  0  0  0  0  0  0  0  0  0  0
   -1.2780    0.2340   -1.1260 C   0  0  0  0  0  0  0  0  0  0  0  0
   -0.3160    0.1550   -1.9220 O   0  0  0  0  0  0  0  0  0  0  0  0
   -2.5610    0.7420   -1.6010 C   0  0  1  0  0  0  0  0  0  0  0  0
   -3.0240   -0.0670   -2.7830 C   0  0  0  0  0  0  0  0  0  0  0  0
   -3.5850    0.7330   -0.6360 O   0  0  0  0  0  0  0  0  0  0  0  0
   -4.2870    1.8260   -0.2190 C   0  0  0  0  0  0  0  0  0  0  0  0
   -4.0020    2.9380   -0.7330 O   0  0  0  0  0  0  0  0  0  0  0  0
   -5.3700    1.8080    0.8020 C   0  0  2  0  0  0  0  0  0  0  0  0
   -4.8370    1.3470    2.1510 C   0  0  0  0  0  0  0  0  0  0  0  0
   -6.4110    0.8200    0.3240 C   0  0  0  0  0  0  0  0  0  0  0  0
   -7.8150    1.3160    0.4350 C   0  0  0  0  0  0  0  0  0  0  0  0
   -8.0210    1.9990    1.7660 C   0  0  0  0  0  0  0  0  0  0  0  0
   -7.1360    3.2000    1.7600 C   0  0  0  0  0  0  0  0  0  0  0  0
   -7.4960    4.2010    2.3980 O   0  0  0  0  0  0  0  0  0  0  0  0
   -5.9290    3.1170    1.0160 N   0  0  0  0  0  0  0  0  0  0  0  0
  1  2  1  0
  3  2  1  6
  3  4  1  0
  3  8  1  0
  4  5  1  0
  5  6  1  0
  6  7  1  0
  7  8  1  0
  8  9  1  1
  9 10  1  0
 10 11  2  0
 10 12  1  0
 12 13  1  0
 13 14  1  0
 13 21  2  0
 14 15  1  0
 15 16  2  0
 15 20  1  0
 16 17  1  0
 17 18  2  0
 18 19  1  0
 19 20  2  0
 20 21  1  0
 21 22  1  0
 22 23  1  0
 23 24  1  0
 24 25  2  0
 24 26  1  0
 26 27  1  6
 26 28  1  0
 28 29  1  0
 29 30  2  0
 29 31  1  0
 31 32  1  1
 31 33  1  0
 31 38  1  0
 33 34  1  0
 34 35  1  0
 35 36  1  0
 36 37  2  0
 36 38  1  0
M  END
