
     RDKit          3D

 38 41  0  0  0  0  0  0  0  0999 V2000
   -4.3020   -1.6440    2.7140 C   0  0  0  0  0  0  0  0  0  0  0  0
   -3.9750   -0.4500    1.8470 C   0  0  2  0  0  0  0  0  0  0  0  0
   -5.0360   -0.5870    0.3610 S   0  0  0  0  0  0  0  0  0  0  0  0
   -6.7510   -0.3720    0.9210 C   0  0  0  0  0  0  0  0  0  0  0  0
   -7.7220   -0.4700   -0.2350 C   0  0  1  0  0  0  0  0  0  0  0  0
   -7.5960   -1.8300   -0.8870 C   0  0  0  0  0  0  0  0  0  0  0  0
   -8.3950   -2.6670   -0.0230 N   0  0  0  0  0  0  0  0  0  0  0  0
   -9.3790   -1.8300    0.5710 C   0  0  0  0  0  0  0  0  0  0  0  0
  -10.3760   -2.2420    1.2250 O   0  0  0  0  0  0  0  0  0  0  0  0
   -9.0330   -0.5130    0.2950 O   0  0  0  0  0  0  0  0  0  0  0  0
   -2.5530   -0.4510    1.5150 C   0  0  0  0  0  0  0  0  0  0  0  0
   -1.8230   -1.3780    1.9480 O   0  0  0  0  0  0  0  0  0  0  0  0
   -1.9150    0.5440    0.7190 N   0  0  0  0  0  0  0  0  0  0  0  0
   -2.6960    1.6620    0.1760 C   0  0  0  0  0  0  0  0  0  0  0  0
   -2.5510    1.5470   -1.3250 C   0  0  1  0  0  0  0  0  0  0  0  0
   -3.3670    2.6060   -1.9750 C   0  0  0  0  0  0  0  0  0  0  0  0
   -3.1470    3.9870   -1.7400 N   0  0  0  0  0  0  0  0  0  0  0  0
   -4.3030    2.3170   -2.7750 O   0  0  0  0  0  0  0  0  0  0  0  0
   -1.1240    1.6230   -1.7760 C   0  0  0  0  0  0  0  0  0  0  0  0
   -0.1670    0.8050   -1.0040 C   0  0  1  0  0  0  0  0  0  0  0  0
    1.2080    1.4180   -1.0770 C   0  0  0  0  0  0  0  0  0  0  0  0
    1.7810    1.7750   -0.0160 O   0  0  0  0  0  0  0  0  0  0  0  0
    1.8640    1.6050   -2.2630 O   0  0  0  0  0  0  0  0  0  0  0  0
    3.1480    2.1700   -2.4140 C   0  0  0  0  0  0  0  0  0  0  0  0
    4.1390    1.3400   -1.6770 C   0  0  0  0  0  0  0  0  0  0  0  0
    5.3980    1.7840   -1.3780 C   0  0  0  0  0  0  0  0  0  0  0  0
    6.2940    0.9600   -0.6870 C   0  0  0  0  0  0  0  0  0  0  0  0
    5.9780   -0.3090   -0.2770 C   0  0  0  0  0  0  0  0  0  0  0  0
    6.8650   -1.1960    0.4370 C   0  0  0  0  0  0  0  0  0  0  0  0
    8.0900   -0.8180    0.7500 C   0  0  0  0  0  0  0  0  0  0  0  0
    8.9910   -1.7350    1.4820 C   0  0  0  0  0  0  0  0  0  0  0  0
   10.2790   -1.4670    1.8630 C   0  0  0  0  0  0  0  0  0  0  0  0
   10.7580   -2.5790    2.5150 C   0  0  0  0  0  0  0  0  0  0  0  0
    9.7300   -3.4930    2.5060 C   0  0  0  0  0  0  0  0  0  0  0  0
    8.6900   -2.9450    1.8760 O   0  0  0  0  0  0  0  0  0  0  0  0
    4.6810   -0.7290   -0.6010 C   0  0  0  0  0  0  0  0  0  0  0  0
    3.7900    0.0720   -1.2810 C   0  0  0  0  0  0  0  0  0  0  0  0
   -0.5280    0.5220    0.4100 C   0  0  0  0  0  0  0  0  0  0  0  0
  2  1  1  1
  2  3  1  0
  2 11  1  0
  3  4  1  0
  5  4  1  1
  5  6  1  0
  5 10  1  0
  6  7  1  0
  7  8  1  0
  8  9  2  0
  8 10  1  0
 11 12  2  0
 11 13  1  0
 13 14  1  0
 13 38  1  0
 14 15  1  0
 15 16  1  6
 15 19  1  0
 16 17  1  0
 16 18  2  0
 19 20  1  0
 20 21  1  1
 20 38  1  0
 21 22  2  0
 21 23  1  0
 23 24  1  0
 24 25  1  0
 25 26  2  0
 25 37  1  0
 26 27  1  0
 27 28  2  0
 28 29  1  0
 28 36  1  0
 29 30  2  3
 30 31  1  0
 31 32  2  0
 31 35  1  0
 32 33  1  0
 33 34  2  0
 34 35  1  0
 36 37  2  0
M  END
