
     RDKit          3D

 38 39  0  0  0  0  0  0  0  0999 V2000
   -7.2870   -0.1010   -3.0310 N   0  0  0  0  0  0  0  0  0  0  0  0
   -6.6660   -0.2280   -1.7650 C   0  0  0  0  0  0  0  0  0  0  0  0
   -5.7230   -1.1810   -1.5330 N   0  0  0  0  0  0  0  0  0  0  0  0
   -5.1390   -1.2980   -0.3390 C   0  0  0  0  0  0  0  0  0  0  0  0
   -4.2000   -2.3510   -0.1750 N   0  0  0  0  0  0  0  0  0  0  0  0
   -5.4540   -0.4670    0.7180 C   0  0  0  0  0  0  0  0  0  0  0  0
   -4.8240   -0.5440    2.0290 C   0  0  0  0  0  0  0  0  0  0  0  0
   -3.5760    0.1820    2.3330 C   0  0  0  0  0  0  0  0  0  0  0  0
   -2.3340    0.0420    1.6160 C   0  0  0  0  0  0  0  0  0  0  0  0
   -2.0540    0.4080    0.2340 C   0  0  2  0  0  0  0  0  0  0  0  0
   -0.5990    0.0060   -0.0170 C   0  0  0  0  0  0  0  0  0  0  0  0
    0.3640    0.5150    0.7940 C   0  0  0  0  0  0  0  0  0  0  0  0
    1.7190    0.1830    0.6100 C   0  0  0  0  0  0  0  0  0  0  0  0
    2.0920   -0.6660   -0.3990 C   0  0  0  0  0  0  0  0  0  0  0  0
    3.5010   -1.0260   -0.5990 C   0  0  0  0  0  0  0  0  0  0  0  0
    3.8060   -1.6600   -1.6510 O   0  0  0  0  0  0  0  0  0  0  0  0
    4.5440   -0.7220    0.2880 N   0  0  0  0  0  0  0  0  0  0  0  0
    5.9470   -1.1050    0.0430 C   0  0  1  0  0  0  0  0  0  0  0  0
    6.8170    0.1060    0.0690 C   0  0  0  0  0  0  0  0  0  0  0  0
    8.2730   -0.1590   -0.1720 C   0  0  0  0  0  0  0  0  0  0  0  0
    8.9880    1.1640   -0.1210 C   0  0  0  0  0  0  0  0  0  0  0  0
   10.2340    1.2310   -0.3070 O   0  0  0  0  0  0  0  0  0  0  0  0
    8.3070    2.3430    0.1290 O   0  0  0  0  0  0  0  0  0  0  0  0
    6.3000   -2.1430    1.0390 C   0  0  0  0  0  0  0  0  0  0  0  0
    5.4440   -2.5230    1.9140 O   0  0  0  0  0  0  0  0  0  0  0  0
    7.5230   -2.7620    1.1070 O   0  0  0  0  0  0  0  0  0  0  0  0
    1.1170   -1.1780   -1.2180 C   0  0  0  0  0  0  0  0  0  0  0  0
   -0.2270   -0.8410   -1.0250 C   0  0  0  0  0  0  0  0  0  0  0  0
   -2.0770    1.8240   -0.2050 C   0  0  1  0  0  0  0  0  0  0  0  0
   -1.1740    2.6200    0.5030 O   0  0  0  0  0  0  0  0  0  0  0  0
   -1.4470    1.7710   -1.5220 O   0  0  0  0  0  0  0  0  0  0  0  0
   -3.3250    2.5450   -0.4370 C   0  0  1  0  0  0  0  0  0  0  0  0
   -4.1910    2.7130    0.5880 F   0  0  0  0  0  0  0  0  0  0  0  0
   -2.9500    3.8580   -0.8170 F   0  0  0  0  0  0  0  0  0  0  0  0
   -3.9990    2.0930   -1.5970 F   0  0  0  0  0  0  0  0  0  0  0  0
   -6.4230    0.5140    0.4860 C   0  0  0  0  0  0  0  0  0  0  0  0
   -6.7710    1.3180    1.4030 O   0  0  0  0  0  0  0  0  0  0  0  0
   -6.9710    0.5800   -0.7320 N   0  0  0  0  0  0  0  0  0  0  0  0
  1  2  1  0
  2  3  2  0
  2 38  1  0
  3  4  1  0
  4  5  1  0
  4  6  2  0
  6  7  1  0
  6 36  1  0
  7  8  1  0
  8  9  1  0
 10  9  1  1
 10 11  1  0
 10 29  1  0
 11 12  2  0
 11 28  1  0
 12 13  1  0
 13 14  2  0
 14 15  1  0
 14 27  1  0
 15 16  2  0
 15 17  1  0
 17 18  1  0
 18 19  1  1
 18 24  1  0
 19 20  1  0
 20 21  1  0
 21 22  2  0
 21 23  1  0
 24 25  2  0
 24 26  1  0
 27 28  2  0
 29 30  1  1
 29 31  1  0
 29 32  1  0
 32 33  1  1
 32 34  1  0
 32 35  1  0
 36 37  2  0
 36 38  1  0
M  END
