
     RDKit          3D

 38 41  0  0  0  0  0  0  0  0999 V2000
   -0.8920    0.6450    3.2620 C   0  0  0  0  0  0  0  0  0  0  0  0
   -0.4140   -0.5910    3.3610 O   0  0  0  0  0  0  0  0  0  0  0  0
   -0.4640   -1.4670    2.3590 C   0  0  0  0  0  0  0  0  0  0  0  0
   -1.6990   -2.0010    1.7730 C   0  0  1  0  0  0  0  0  0  0  0  0
   -2.4660   -2.5320    2.8470 O   0  0  0  0  0  0  0  0  0  0  0  0
   -2.5710   -1.1270    0.9620 C   0  0  0  0  0  0  0  0  0  0  0  0
   -3.6100   -0.5550    1.5920 C   0  0  0  0  0  0  0  0  0  0  0  0
   -4.5530    0.3210    1.0050 C   0  0  2  0  0  0  0  0  0  0  0  0
   -6.0180    0.0790    1.2560 C   0  0  0  0  0  0  0  0  0  0  0  0
   -6.9090    0.0420    0.0820 C   0  0  0  0  0  0  0  0  0  0  0  0
   -6.7200    1.1150   -0.9250 C   0  0  0  0  0  0  0  0  0  0  0  0
   -7.5410    1.8810   -1.6200 C   0  0  0  0  0  0  0  0  0  0  0  0
   -7.1080    2.7810   -2.5220 C   0  0  0  0  0  0  0  0  0  0  0  0
   -7.6970    3.7090   -3.3890 N   0  0  0  0  0  0  0  0  0  0  0  0
   -5.2620    2.5270   -2.3870 S   0  0  0  0  0  0  0  0  0  0  0  0
   -5.3320    1.3270   -1.2130 C   0  0  0  0  0  0  0  0  0  0  0  0
   -4.3500    0.4980   -0.4420 C   0  0  0  0  0  0  0  0  0  0  0  0
   -3.3610   -0.0230   -1.1290 C   0  0  0  0  0  0  0  0  0  0  0  0
   -3.2740    0.2350   -2.6020 C   0  0  0  0  0  0  0  0  0  0  0  0
   -2.4030   -0.8810   -0.4370 N   0  0  0  0  0  0  0  0  0  0  0  0
   -1.3480   -1.3990   -1.1960 C   0  0  0  0  0  0  0  0  0  0  0  0
   -1.2420   -0.8450   -2.3830 O   0  0  0  0  0  0  0  0  0  0  0  0
   -0.3450   -2.4280   -0.9710 C   0  0  0  0  0  0  0  0  0  0  0  0
    0.5810   -2.6040   -2.1820 C   0  0  0  0  0  0  0  0  0  0  0  0
    1.3870   -1.4210   -2.5460 C   0  0  0  0  0  0  0  0  0  0  0  0
    2.3130   -0.9560   -1.4850 C   0  0  0  0  0  0  0  0  0  0  0  0
    2.4400   -1.5380   -0.3900 O   0  0  0  0  0  0  0  0  0  0  0  0
    3.0910    0.1780   -1.6890 O   0  0  0  0  0  0  0  0  0  0  0  0
    3.9880    0.6760   -0.7340 C   0  0  0  0  0  0  0  0  0  0  0  0
    5.0430   -0.3090   -0.3810 C   0  0  0  0  0  0  0  0  0  0  0  0
    5.0940   -1.4500   -0.9000 O   0  0  0  0  0  0  0  0  0  0  0  0
    6.0350    0.0380    0.5760 N   0  0  0  0  0  0  0  0  0  0  0  0
    7.0820   -0.8750    0.9570 C   0  0  0  0  0  0  0  0  0  0  0  0
    8.4490   -0.2360    0.7750 C   0  0  0  0  0  0  0  0  0  0  0  0
    8.4780    1.1290    1.4130 C   0  0  0  0  0  0  0  0  0  0  0  0
    7.3730    1.9870    0.8570 C   0  0  1  0  0  0  0  0  0  0  0  0
    7.4470    1.9670   -0.5390 O   0  0  0  0  0  0  0  0  0  0  0  0
    6.0350    1.3480    1.2180 C   0  0  0  0  0  0  0  0  0  0  0  0
  1  2  1  0
  2  3  1  0
  3  4  1  0
  4  5  1  1
  4  6  1  0
  6  7  2  0
  6 20  1  0
  7  8  1  0
  8  9  1  6
  8 17  1  0
  9 10  1  0
 10 11  1  0
 11 12  1  0
 11 16  2  0
 12 13  2  0
 13 14  1  0
 13 15  1  0
 15 16  1  0
 16 17  1  0
 17 18  2  0
 18 19  1  0
 18 20  1  0
 20 21  1  0
 21 22  2  0
 21 23  1  0
 23 24  1  0
 24 25  1  0
 25 26  1  0
 26 27  2  0
 26 28  1  0
 28 29  1  0
 29 30  1  0
 30 31  2  0
 30 32  1  0
 32 33  1  0
 32 38  1  0
 33 34  1  0
 34 35  1  0
 35 36  1  0
 36 37  1  6
 36 38  1  0
M  END
