
     RDKit          3D

 21 21  0  0  0  0  0  0  0  0999 V2000
    3.6300   -1.7880    0.7440 O   0  0  0  0  0  0  0  0  0  0  0  0
    2.5350   -2.2170    0.2570 C   0  0  0  0  0  0  0  0  0  0  0  0
    2.7080   -3.2110   -0.7200 O   0  0  0  0  0  0  0  0  0  0  0  0
    1.2040   -1.7300    0.6650 C   0  0  0  0  0  0  0  0  0  0  0  0
    0.6960   -0.7310   -0.3070 C   0  0  2  0  0  0  0  0  0  0  0  0
    1.6130    0.4610   -0.4090 C   0  0  0  0  0  0  0  0  0  0  0  0
    2.8470    0.0650   -0.8370 O   0  0  0  0  0  0  0  0  0  0  0  0
    4.0010    1.3260   -0.9990 P   0  0  0  0  0  0  0  0  0  0  0  0
    3.3010    2.8990   -0.8550 O   0  0  0  0  0  0  0  0  0  0  0  0
    5.3680    1.1230    0.0350 O   0  0  0  0  0  0  0  0  0  0  0  0
   -0.5960   -0.1640    0.1330 N   0  0  0  0  0  0  0  0  0  0  0  0
   -1.7270   -0.6750   -0.1090 C   0  0  0  0  0  0  0  0  0  0  0  0
   -2.9330   -0.0370    0.3690 N   0  0  0  0  0  0  0  0  0  0  0  0
   -2.9650    1.3930    0.5710 C   0  0  0  0  0  0  0  0  0  0  0  0
   -4.3240    1.7910    1.0850 C   0  0  0  0  0  0  0  0  0  0  0  0
   -4.4410    3.1540    1.3070 O   0  0  0  0  0  0  0  0  0  0  0  0
   -1.8640   -1.9280   -0.8790 C   0  0  2  0  0  0  0  0  0  0  0  0
   -1.9790   -3.0320   -0.0560 F   0  0  0  0  0  0  0  0  0  0  0  0
   -0.7680   -2.0360   -1.7610 O   0  0  0  0  0  0  0  0  0  0  0  0
    0.4130   -1.3230   -1.6380 C   0  0  0  0  0  0  0  0  0  0  0  0
    1.2240   -1.1650   -2.5800 O   0  0  0  0  0  0  0  0  0  0  0  0
  1  2  2  0
  2  3  1  0
  2  4  1  0
  5  4  1  1
  5  6  1  0
  5 11  1  0
  5 20  1  0
  6  7  1  0
  7  8  1  0
  8  9  1  0
  8 10  1  0
 11 12  2  0
 12 13  1  0
 12 17  1  0
 13 14  1  0
 14 15  1  0
 15 16  1  0
 17 18  1  1
 17 19  1  0
 19 20  1  0
 20 21  2  0
M  END
