
     RDKit          3D

 20 20  0  0  0  0  0  0  0  0999 V2000
   -5.7340   -0.4070   -0.6740 O   0  0  0  0  0  0  0  0  0  0  0  0
   -5.0670   -0.1090    0.3400 C   0  0  0  0  0  0  0  0  0  0  0  0
   -5.7080   -0.1590    1.5690 O   0  0  0  0  0  0  0  0  0  0  0  0
   -3.6210    0.2900    0.2250 C   0  0  1  0  0  0  0  0  0  0  0  0
   -2.8260   -0.6870    1.0550 C   0  0  0  0  0  0  0  0  0  0  0  0
   -1.3720   -0.6870    0.7530 C   0  0  0  0  0  0  0  0  0  0  0  0
   -1.0100   -0.5340   -0.6190 N   0  0  0  0  0  0  0  0  0  0  0  0
    0.3550   -0.5680   -1.0670 C   0  0  0  0  0  0  0  0  0  0  0  0
    0.6150   -0.4290   -2.3060 O   0  0  0  0  0  0  0  0  0  0  0  0
    1.5130   -0.7550   -0.1870 C   0  0  1  0  0  0  0  0  0  0  0  0
    1.2200   -0.8860    1.1440 O   0  0  0  0  0  0  0  0  0  0  0  0
    2.1200   -1.9500   -0.5810 F   0  0  0  0  0  0  0  0  0  0  0  0
    2.5570    0.3230   -0.4660 C   0  0  0  0  0  0  0  0  0  0  0  0
    3.7490    0.1240    0.4410 C   0  0  0  0  0  0  0  0  0  0  0  0
    5.0640    1.3660    0.1880 P   0  0  0  0  0  0  0  0  0  0  0  0
    6.6530    0.6750    0.4290 O   0  0  0  0  0  0  0  0  0  0  0  0
    4.9810    2.1830   -1.3110 O   0  0  0  0  0  0  0  0  0  0  0  0
   -2.0340   -0.3390   -1.5870 C   0  0  0  0  0  0  0  0  0  0  0  0
   -1.8410   -0.6860   -2.7870 O   0  0  0  0  0  0  0  0  0  0  0  0
   -3.2520    0.2460   -1.1650 N   0  0  0  0  0  0  0  0  0  0  0  0
  1  2  2  0
  2  3  1  0
  4  2  1  6
  4  5  1  0
  4 20  1  0
  5  6  1  0
  6  7  1  0
  7  8  1  0
  7 18  1  0
  8  9  2  0
  8 10  1  0
 10 11  1  1
 10 12  1  0
 10 13  1  0
 13 14  1  0
 14 15  1  0
 15 16  1  0
 15 17  1  0
 18 19  2  0
 18 20  1  0
M  END
