
     RDKit          3D

 20 20  0  0  0  0  0  0  0  0999 V2000
    6.3220   -2.6710    0.0150 O   0  0  0  0  0  0  0  0  0  0  0  0
    5.0850   -1.9560   -0.6280 P   0  0  0  0  0  0  0  0  0  0  0  0
    4.9630   -0.1380   -0.8280 C   0  0  0  0  0  0  0  0  0  0  0  0
    3.9680    0.4590    0.0760 N   0  0  0  0  0  0  0  0  0  0  0  0
    2.6010    0.0880    0.0310 C   0  0  0  0  0  0  0  0  0  0  0  0
    2.2810   -0.7770   -0.8200 O   0  0  0  0  0  0  0  0  0  0  0  0
    1.5940    0.6680    0.9200 C   0  0  0  0  0  0  0  0  0  0  0  0
    0.2620    0.1590    0.7160 N   0  0  0  0  0  0  0  0  0  0  0  0
   -0.6120    0.7920   -0.2050 C   0  0  0  0  0  0  0  0  0  0  0  0
   -0.1100    1.6400   -0.9910 O   0  0  0  0  0  0  0  0  0  0  0  0
   -2.0840    0.4680   -0.2480 C   0  0  1  0  0  0  0  0  0  0  0  0
   -2.5970    0.8700   -1.4730 O   0  0  0  0  0  0  0  0  0  0  0  0
   -3.5350    1.7840   -1.3990 O   0  0  0  0  0  0  0  0  0  0  0  0
   -4.7880    1.6320   -0.8670 C   0  0  0  0  0  0  0  0  0  0  0  0
   -5.0960    0.5050   -0.3910 O   0  0  0  0  0  0  0  0  0  0  0  0
   -5.7200    2.6610   -0.8310 O   0  0  0  0  0  0  0  0  0  0  0  0
   -2.3440   -0.9830   -0.0040 C   0  0  0  0  0  0  0  0  0  0  0  0
   -1.1690   -1.7660    0.4660 C   0  0  0  0  0  0  0  0  0  0  0  0
   -0.2640   -0.9940    1.4100 C   0  0  1  0  0  0  0  0  0  0  0  0
    0.7070   -1.8640    1.8310 F   0  0  0  0  0  0  0  0  0  0  0  0
  1  2  2  0
  2  3  1  0
  3  4  1  0
  4  5  1  0
  5  6  2  0
  5  7  1  0
  7  8  1  0
  8  9  1  0
  8 19  1  0
  9 10  2  0
  9 11  1  0
 11 12  1  6
 11 17  1  0
 12 13  1  0
 13 14  1  0
 14 15  2  0
 14 16  1  0
 17 18  1  0
 18 19  1  0
 19 20  1  6
M  END
