
     RDKit          3D

 21 21  0  0  0  0  0  0  0  0999 V2000
   -6.0100    0.9700    0.1410 C   0  0  0  0  0  0  0  0  0  0  0  0
   -4.7520    1.0950   -0.7040 C   0  0  0  0  0  0  0  0  0  0  0  0
   -3.8400    0.1280   -0.2240 O   0  0  0  0  0  0  0  0  0  0  0  0
   -2.5730   -0.0640   -0.7460 C   0  0  0  0  0  0  0  0  0  0  0  0
   -2.2430    0.6920   -1.7160 O   0  0  0  0  0  0  0  0  0  0  0  0
   -1.6380   -1.0990   -0.2070 C   0  0  1  0  0  0  0  0  0  0  0  0
   -2.2150   -2.4830   -0.2760 C   0  0  0  0  0  0  0  0  0  0  0  0
   -0.4550   -1.0400   -0.9410 O   0  0  0  0  0  0  0  0  0  0  0  0
    0.5350   -1.5010   -0.0410 C   0  0  0  0  0  0  0  0  0  0  0  0
    0.1160   -0.8060    1.2030 C   0  0  0  0  0  0  0  0  0  0  0  0
    0.9140   -0.3670    2.1150 N   0  0  0  0  0  0  0  0  0  0  0  0
    2.3350   -0.4830    2.0700 C   0  0  2  0  0  0  0  0  0  0  0  0
    2.7770   -0.6240    3.3930 F   0  0  0  0  0  0  0  0  0  0  0  0
    2.8740    0.7790    1.5600 N   0  0  0  0  0  0  0  0  0  0  0  0
    3.7850    0.7350    0.4770 C   0  0  0  0  0  0  0  0  0  0  0  0
    4.1200   -0.3760   -0.0340 O   0  0  0  0  0  0  0  0  0  0  0  0
    4.3400    1.9090   -0.0600 O   0  0  0  0  0  0  0  0  0  0  0  0
    5.4750    1.7630   -1.4200 P   0  0  0  0  0  0  0  0  0  0  0  0
    5.6480    3.3190   -2.1360 O   0  0  0  0  0  0  0  0  0  0  0  0
    6.9930    1.1830   -0.7650 O   0  0  0  0  0  0  0  0  0  0  0  0
   -1.2670   -0.7520    1.1360 O   0  0  0  0  0  0  0  0  0  0  0  0
  1  2  1  0
  2  3  1  0
  3  4  1  0
  4  5  2  0
  4  6  1  0
  6  7  1  1
  6  8  1  0
  6 21  1  0
  8  9  1  0
  9 10  1  0
 10 11  2  3
 10 21  1  0
 11 12  1  0
 12 13  1  1
 12 14  1  0
 14 15  1  0
 15 16  2  0
 15 17  1  0
 17 18  1  0
 18 19  1  0
 18 20  1  0
M  END
