
     RDKit          3D

 21 21  0  0  0  0  0  0  0  0999 V2000
    1.8180   -2.0630    0.8540 C   0  0  0  0  0  0  0  0  0  0  0  0
    1.3600   -1.5470   -0.4660 C   0  0  1  0  0  0  0  0  0  0  0  0
    0.8010   -2.6260   -1.1660 F   0  0  0  0  0  0  0  0  0  0  0  0
    0.2810   -0.5910   -0.3030 N   0  0  0  0  0  0  0  0  0  0  0  0
   -0.9460   -0.9830    0.3270 C   0  0  0  0  0  0  0  0  0  0  0  0
   -1.0070   -2.1790    0.7110 O   0  0  0  0  0  0  0  0  0  0  0  0
   -2.0760   -0.0800    0.5280 C   0  0  1  0  0  0  0  0  0  0  0  0
   -1.7550    1.1190    1.3780 C   0  0  0  0  0  0  0  0  0  0  0  0
   -2.6000    0.4110   -0.7960 C   0  0  0  0  0  0  0  0  0  0  0  0
   -3.8980    1.1710   -0.6470 C   0  0  0  0  0  0  0  0  0  0  0  0
   -4.9100    0.3070   -0.0270 N   0  0  0  0  0  0  0  0  0  0  0  0
   -4.4430   -0.6240    0.9270 C   0  0  0  0  0  0  0  0  0  0  0  0
   -5.2770   -1.3090    1.5600 O   0  0  0  0  0  0  0  0  0  0  0  0
   -3.1120   -0.7920    1.1740 O   0  0  0  0  0  0  0  0  0  0  0  0
    2.3920   -1.0550   -1.2780 O   0  0  0  0  0  0  0  0  0  0  0  0
    3.2220   -0.0030   -0.9120 C   0  0  0  0  0  0  0  0  0  0  0  0
    3.0230    0.5160    0.1950 O   0  0  0  0  0  0  0  0  0  0  0  0
    4.2400    0.4790   -1.7180 O   0  0  0  0  0  0  0  0  0  0  0  0
    5.2840    1.8170   -1.2360 P   0  0  0  0  0  0  0  0  0  0  0  0
    6.9140    1.3550   -1.6430 O   0  0  0  0  0  0  0  0  0  0  0  0
    5.2090    2.0340    0.4820 O   0  0  0  0  0  0  0  0  0  0  0  0
  2  1  1  1
  2  3  1  0
  2  4  1  0
  2 15  1  0
  4  5  1  0
  5  6  2  0
  5  7  1  0
  7  8  1  1
  7  9  1  0
  7 14  1  0
  9 10  1  0
 10 11  1  0
 11 12  1  0
 12 13  2  0
 12 14  1  0
 15 16  1  0
 16 17  2  0
 16 18  1  0
 18 19  1  0
 19 20  1  0
 19 21  1  0
M  END
