
     RDKit          3D

  7  6  0  0  0  0  0  0  0  0999 V2000
    1.7750    0.7380   -1.2240 O   0  0  0  0  0  0  0  0  0  0  0  0
    1.1270    0.0220   -0.4080 C   0  0  0  0  0  0  0  0  0  0  0  0
    1.9210   -0.8190    0.3600 O   0  0  0  0  0  0  0  0  0  0  0  0
   -0.5900    0.0270   -0.2010 P   0  0  0  0  0  0  0  0  0  0  0  0
   -1.4270    1.4540   -0.4720 O   0  0  0  0  0  0  0  0  0  0  0  0
   -1.3720   -1.3810    0.0370 O   0  0  0  0  0  0  0  0  0  0  0  0
   -0.5800    0.4130    1.2860 O   0  0  0  0  0  0  0  0  0  0  0  0
  1  2  2  0
  2  3  1  0
  2  4  1  0
  4  5  1  0
  4  6  1  0
  4  7  1  0
M  END
