
     RDKit          3D

 39 42  0  0  0  0  0  0  0  0999 V2000
    6.7280    5.1560   -0.5720 C   0  0  0  0  0  0  0  0  0  0  0  0
    6.0140    3.9530   -0.4530 O   0  0  0  0  0  0  0  0  0  0  0  0
    6.3730    3.3920    0.7580 C   0  0  0  0  0  0  0  0  0  0  0  0
    5.7140    2.0860    1.0590 C   0  0  0  0  0  0  0  0  0  0  0  0
    4.2040    2.1940    1.1020 C   0  0  2  0  0  0  0  0  0  0  0  0
    3.8780    3.1160    2.1110 O   0  0  0  0  0  0  0  0  0  0  0  0
    3.6200    0.8250    1.4180 C   0  0  0  0  0  0  0  0  0  0  0  0
    3.9780   -0.0700    0.3500 N   0  0  0  0  0  0  0  0  0  0  0  0
    3.6230   -1.4560    0.2920 C   0  0  0  0  0  0  0  0  0  0  0  0
    2.9530   -1.9040    1.2480 O   0  0  0  0  0  0  0  0  0  0  0  0
    4.0120   -2.3070   -0.8080 C   0  0  0  0  0  0  0  0  0  0  0  0
    5.2220   -2.0160   -1.4580 C   0  0  0  0  0  0  0  0  0  0  0  0
    5.6230   -2.7920   -2.5250 C   0  0  0  0  0  0  0  0  0  0  0  0
    4.8230   -3.8590   -2.9490 C   0  0  0  0  0  0  0  0  0  0  0  0
    3.6420   -4.1240   -2.2950 C   0  0  0  0  0  0  0  0  0  0  0  0
    3.2270   -3.3410   -1.2090 C   0  0  0  0  0  0  0  0  0  0  0  0
    1.9850   -3.6610   -0.5320 C   0  0  0  0  0  0  0  0  0  0  0  0
    1.2850   -4.7920   -1.1220 N   0  0  0  0  0  0  0  0  0  0  0  0
   -0.1830   -5.1510   -0.2930 S   0  0  1  0  0  0  0  0  0  0  0  0
   -0.8290   -6.2960   -1.0630 O   0  0  0  0  0  0  0  0  0  0  0  0
    0.0790   -5.5680    1.1250 O   0  0  0  0  0  0  0  0  0  0  0  0
   -1.3270   -3.8210   -0.3470 C   0  0  0  0  0  0  0  0  0  0  0  0
   -2.2720   -3.7390   -1.3570 C   0  0  0  0  0  0  0  0  0  0  0  0
   -3.1890   -2.7060   -1.4200 C   0  0  0  0  0  0  0  0  0  0  0  0
   -3.1900   -1.7190   -0.4720 C   0  0  0  0  0  0  0  0  0  0  0  0
   -2.2630   -1.7770    0.5390 C   0  0  0  0  0  0  0  0  0  0  0  0
   -1.3310   -2.8270    0.6030 C   0  0  0  0  0  0  0  0  0  0  0  0
   -2.2720   -0.7230    1.5330 C   0  0  0  0  0  0  0  0  0  0  0  0
   -1.1680   -0.3860    2.0540 O   0  0  0  0  0  0  0  0  0  0  0  0
   -3.5500   -0.0910    1.8960 C   0  0  0  0  0  0  0  0  0  0  0  0
   -4.6220   -0.2070    0.8750 C   0  0  1  0  0  0  0  0  0  0  0  0
   -5.4950    1.0120    0.8050 C   0  0  2  0  0  0  0  0  0  0  0  0
   -6.5710    0.7860   -0.2270 C   0  0  0  0  0  0  0  0  0  0  0  0
   -7.4290    1.8980   -0.2940 O   0  0  0  0  0  0  0  0  0  0  0  0
   -6.6440    2.8910   -0.9290 C   0  0  0  0  0  0  0  0  0  0  0  0
   -5.6830    3.4060    0.1160 C   0  0  1  0  0  0  0  0  0  0  0  0
   -6.4920    3.9440    1.2670 C   0  0  0  0  0  0  0  0  0  0  0  0
   -4.7500    2.2980    0.5530 C   0  0  0  0  0  0  0  0  0  0  0  0
   -4.1860   -0.5870   -0.5040 C   0  0  0  0  0  0  0  0  0  0  0  0
  1  2  1  0
  2  3  1  0
  3  4  1  0
  4  5  1  0
  5  6  1  1
  5  7  1  0
  7  8  1  0
  8  9  1  0
  9 10  2  0
  9 11  1  0
 11 12  2  0
 11 16  1  0
 12 13  1  0
 13 14  2  0
 14 15  1  0
 15 16  2  0
 16 17  1  0
 17 18  1  0
 19 18  1  6
 19 20  2  0
 19 21  2  0
 19 22  1  0
 22 23  2  0
 22 27  1  0
 23 24  1  0
 24 25  2  0
 25 26  1  0
 25 39  1  0
 26 27  2  0
 26 28  1  0
 28 29  2  0
 28 30  1  0
 31 30  1  1
 31 32  1  0
 31 39  1  0
 32 33  1  6
 32 38  1  0
 33 34  1  0
 34 35  1  0
 35 36  1  0
 36 37  1  1
 36 38  1  0
M  END
