
     RDKit          3D

 39 42  0  0  0  0  0  0  0  0999 V2000
   -4.2920    5.0570   -0.8320 C   0  0  0  0  0  0  0  0  0  0  0  0
   -5.1450    4.2550    0.1370 C   0  0  2  0  0  0  0  0  0  0  0  0
   -5.5860    5.1720    1.2780 C   0  0  0  0  0  0  0  0  0  0  0  0
   -4.3280    3.2130    0.6160 O   0  0  0  0  0  0  0  0  0  0  0  0
   -4.7130    1.8960    0.3630 C   0  0  0  0  0  0  0  0  0  0  0  0
   -5.7730    1.7100   -0.2850 O   0  0  0  0  0  0  0  0  0  0  0  0
   -3.9190    0.7390    0.8290 C   0  0  1  0  0  0  0  0  0  0  0  0
   -3.7990    0.7060    2.3540 C   0  0  0  0  0  0  0  0  0  0  0  0
   -2.9900   -0.4850    2.7170 C   0  0  0  0  0  0  0  0  0  0  0  0
   -3.5620   -1.7040    2.9640 C   0  0  0  0  0  0  0  0  0  0  0  0
   -2.8490   -2.8480    3.3050 C   0  0  0  0  0  0  0  0  0  0  0  0
   -1.4440   -2.7220    3.3980 C   0  0  0  0  0  0  0  0  0  0  0  0
   -0.8600   -1.5290    3.1540 C   0  0  0  0  0  0  0  0  0  0  0  0
   -1.6010   -0.3930    2.8140 C   0  0  0  0  0  0  0  0  0  0  0  0
    0.6450   -1.7350    3.1830 C   0  0  2  0  0  0  0  0  0  0  0  0
    1.0690   -0.6540    4.0350 O   0  0  0  0  0  0  0  0  0  0  0  0
    1.1680   -1.5190    1.8120 C   0  0  0  0  0  0  0  0  0  0  0  0
    2.5730   -1.4570    1.6930 N   0  0  0  0  0  0  0  0  0  0  0  0
    3.5390   -2.4730    1.8180 C   0  0  0  0  0  0  0  0  0  0  0  0
    3.1680   -3.6290    2.0540 O   0  0  0  0  0  0  0  0  0  0  0  0
    5.0230   -2.2420    1.6860 C   0  0  0  0  0  0  0  0  0  0  0  0
    5.3170   -1.0230    1.1400 O   0  0  0  0  0  0  0  0  0  0  0  0
    4.9400   -1.0080   -0.1980 C   0  0  0  0  0  0  0  0  0  0  0  0
    5.1750    0.3490   -0.8240 C   0  0  0  0  0  0  0  0  0  0  0  0
    4.7550    0.3100   -2.2590 C   0  0  2  0  0  0  0  0  0  0  0  0
    5.5000   -0.6940   -3.1000 C   0  0  0  0  0  0  0  0  0  0  0  0
    6.9870   -0.5740   -3.0380 C   0  0  0  0  0  0  0  0  0  0  0  0
    7.4370    0.5900   -3.8790 C   0  0  0  0  0  0  0  0  0  0  0  0
    5.9820    1.5640   -4.3450 S   0  0  0  0  0  0  0  0  0  0  0  0
    4.9280    1.6980   -2.8450 C   0  0  0  0  0  0  0  0  0  0  0  0
    0.7990   -2.9750    3.8780 C   0  0  0  0  0  0  0  0  0  0  0  0
    1.7970   -3.5160    4.4800 O   0  0  0  0  0  0  0  0  0  0  0  0
   -0.4720   -3.6600    3.8390 N   0  0  0  0  0  0  0  0  0  0  0  0
   -4.5480   -0.4490    0.4120 O   0  0  0  0  0  0  0  0  0  0  0  0
   -4.7720   -0.7540   -0.9140 C   0  0  0  0  0  0  0  0  0  0  0  0
   -5.9270   -0.8610   -1.5480 C   0  0  0  0  0  0  0  0  0  0  0  0
   -5.6780   -1.2030   -2.9600 C   0  0  0  0  0  0  0  0  0  0  0  0
   -4.2110   -1.2740   -3.0430 C   0  0  0  0  0  0  0  0  0  0  0  0
   -3.7130   -1.0140   -1.8630 C   0  0  0  0  0  0  0  0  0  0  0  0
  2  1  1  6
  2  3  1  0
  2  4  1  0
  4  5  1  0
  5  6  2  0
  5  7  1  0
  7  8  1  1
  7 34  1  0
  8  9  1  0
  9 10  2  0
  9 14  1  0
 10 11  1  0
 11 12  2  0
 12 13  1  0
 12 33  1  0
 13 14  2  0
 13 15  1  0
 15 16  1  1
 15 17  1  0
 15 31  1  0
 17 18  1  0
 18 19  1  0
 19 20  2  0
 19 21  1  0
 21 22  1  0
 22 23  1  0
 23 24  1  0
 25 24  1  1
 25 26  1  0
 25 30  1  0
 26 27  1  0
 27 28  1  0
 28 29  1  0
 29 30  1  0
 31 32  2  0
 31 33  1  0
 34 35  1  0
 35 36  2  0
 35 39  1  0
 36 37  1  0
 37 38  1  0
 38 39  2  0
M  END
