
     RDKit          3D

 39 42  0  0  0  0  0  0  0  0999 V2000
   -1.7670   -3.2040    3.4540 C   0  0  0  0  0  0  0  0  0  0  0  0
   -1.6300   -2.4520    2.1030 C   0  0  0  0  0  0  0  0  0  0  0  0
   -0.6580   -1.3720    2.3300 C   0  0  0  0  0  0  0  0  0  0  0  0
   -0.2520   -0.4810    1.2190 C   0  0  0  0  0  0  0  0  0  0  0  0
    0.3860   -1.1030    0.0340 C   0  0  1  0  0  0  0  0  0  0  0  0
   -0.2060   -1.9700   -0.7520 O   0  0  0  0  0  0  0  0  0  0  0  0
   -1.1250   -1.8400   -1.6670 C   0  0  0  0  0  0  0  0  0  0  0  0
   -2.4630   -1.2980   -1.4670 C   0  0  0  0  0  0  0  0  0  0  0  0
   -2.8920   -0.8540   -0.3890 O   0  0  0  0  0  0  0  0  0  0  0  0
   -3.4060   -1.2430   -2.5580 N   0  0  0  0  0  0  0  0  0  0  0  0
   -4.7240   -0.7130   -2.3600 C   0  0  1  0  0  0  0  0  0  0  0  0
   -4.8200    0.5310   -3.2470 C   0  0  0  0  0  0  0  0  0  0  0  0
   -6.1890    1.1710   -3.1100 C   0  0  1  0  0  0  0  0  0  0  0  0
   -6.3780    1.5540   -1.6720 C   0  0  0  0  0  0  0  0  0  0  0  0
   -6.1790    2.2900   -3.9570 O   0  0  0  0  0  0  0  0  0  0  0  0
   -5.7890   -1.6710   -2.7010 C   0  0  0  0  0  0  0  0  0  0  0  0
   -5.8480   -2.4560   -3.8290 C   0  0  0  0  0  0  0  0  0  0  0  0
   -7.0050   -3.1970   -3.7420 C   0  0  0  0  0  0  0  0  0  0  0  0
   -7.5990   -2.8670   -2.6190 O   0  0  0  0  0  0  0  0  0  0  0  0
   -6.9130   -1.9600   -1.9620 C   0  0  0  0  0  0  0  0  0  0  0  0
    0.9300    0.1300   -0.7780 C   0  0  0  0  0  0  0  0  0  0  0  0
    1.7650   -0.3480   -1.9330 C   0  0  0  0  0  0  0  0  0  0  0  0
    3.2250    0.0210   -1.6470 C   0  0  0  0  0  0  0  0  0  0  0  0
    3.4270    0.0970   -0.1400 C   0  0  0  0  0  0  0  0  0  0  0  0
    2.7420   -0.6780    0.7740 C   0  0  0  0  0  0  0  0  0  0  0  0
    3.1600   -0.3860    2.3910 S   0  0  0  0  0  0  0  0  0  0  0  0
    4.3590    0.8210    2.5740 C   0  0  0  0  0  0  0  0  0  0  0  0
    4.8340    1.3970    1.4160 C   0  0  0  0  0  0  0  0  0  0  0  0
    4.3740    1.0360    0.1610 C   0  0  0  0  0  0  0  0  0  0  0  0
    4.8800    1.6370   -0.8290 O   0  0  0  0  0  0  0  0  0  0  0  0
    5.9370    2.3820    1.5770 C   0  0  1  0  0  0  0  0  0  0  0  0
    6.3270    3.1430    0.3720 C   0  0  0  0  0  0  0  0  0  0  0  0
    7.3690    4.0230    0.7930 O   0  0  0  0  0  0  0  0  0  0  0  0
    5.7370    3.2150    2.7990 C   0  0  0  0  0  0  0  0  0  0  0  0
    5.7290    2.3600    3.9690 N   0  0  0  0  0  0  0  0  0  0  0  0
    6.5840    2.5960    5.0690 C   0  0  0  0  0  0  0  0  0  0  0  0
    4.8020    1.2900    3.9150 C   0  0  0  0  0  0  0  0  0  0  0  0
    4.3340    0.7150    4.9040 O   0  0  0  0  0  0  0  0  0  0  0  0
    1.7130   -1.7200    0.5480 C   0  0  0  0  0  0  0  0  0  0  0  0
  1  2  1  0
  2  3  1  0
  3  4  1  0
  5  4  1  1
  5  6  1  0
  5 21  1  0
  5 39  1  0
  6  7  1  0
  7  8  1  0
  8  9  2  0
  8 10  1  0
 10 11  1  0
 11 12  1  6
 11 16  1  0
 12 13  1  0
 13 14  1  1
 13 15  1  0
 16 17  1  0
 16 20  2  0
 17 18  2  0
 18 19  1  0
 19 20  1  0
 21 22  1  0
 22 23  1  0
 23 24  1  0
 24 25  2  0
 24 29  1  0
 25 26  1  0
 25 39  1  0
 26 27  1  0
 27 28  2  0
 27 37  1  0
 28 29  1  0
 28 31  1  0
 29 30  2  0
 31 32  1  6
 31 34  1  0
 32 33  1  0
 34 35  1  0
 35 36  1  0
 35 37  1  0
 37 38  2  0
M  END
