
     RDKit          3D

 39 42  0  0  0  0  0  0  0  0999 V2000
    0.6770    2.0720   -3.7880 C   0  0  0  0  0  0  0  0  0  0  0  0
    1.0760    1.0110   -2.9500 O   0  0  0  0  0  0  0  0  0  0  0  0
    0.3360    0.5780   -1.8610 C   0  0  0  0  0  0  0  0  0  0  0  0
    0.8020   -0.4610   -1.1710 C   0  0  0  0  0  0  0  0  0  0  0  0
    2.0380   -1.0620   -1.6010 C   0  0  0  0  0  0  0  0  0  0  0  0
    2.6070   -2.0810   -1.0170 C   0  0  0  0  0  0  0  0  0  0  0  0
    4.1810   -2.6710   -1.7500 S   0  0  0  0  0  0  0  0  0  0  0  0
    5.4580   -1.8400   -0.8280 C   0  0  0  0  0  0  0  0  0  0  0  0
    5.9270   -0.6330   -1.2740 C   0  0  0  0  0  0  0  0  0  0  0  0
    6.9060    0.0570   -0.5860 C   0  0  0  0  0  0  0  0  0  0  0  0
    7.4040   -0.5010    0.5690 C   0  0  0  0  0  0  0  0  0  0  0  0
    8.3820    0.1510    1.2900 C   0  0  0  0  0  0  0  0  0  0  0  0
    8.8950   -0.3930    2.4520 C   0  0  0  0  0  0  0  0  0  0  0  0
    9.8850    0.2370    3.2080 O   0  0  0  0  0  0  0  0  0  0  0  0
   10.3890    1.4900    2.7770 C   0  0  0  0  0  0  0  0  0  0  0  0
    8.4030   -1.6150    2.8760 C   0  0  0  0  0  0  0  0  0  0  0  0
    7.4260   -2.2540    2.1460 C   0  0  0  0  0  0  0  0  0  0  0  0
    6.8980   -1.7220    0.9760 C   0  0  0  0  0  0  0  0  0  0  0  0
    5.9360   -2.3860    0.2870 N   0  0  0  0  0  0  0  0  0  0  0  0
    0.0190   -0.9110   -0.0190 C   0  0  2  0  0  0  0  0  0  0  0  0
    0.3090   -2.1550    0.4750 O   0  0  0  0  0  0  0  0  0  0  0  0
   -1.4680   -0.8470   -0.4350 C   0  0  0  0  0  0  0  0  0  0  0  0
   -1.7940    0.6500   -0.5820 C   0  0  2  0  0  0  0  0  0  0  0  0
   -3.2400    0.8080   -0.8300 C   0  0  0  0  0  0  0  0  0  0  0  0
   -3.5430    0.9210   -2.0760 O   0  0  0  0  0  0  0  0  0  0  0  0
   -4.2760    0.8340    0.1290 N   0  0  0  0  0  0  0  0  0  0  0  0
   -5.6440    0.8680   -0.3450 C   0  0  0  0  0  0  0  0  0  0  0  0
   -6.3210   -0.4310   -0.5240 C   0  0  1  0  0  0  0  0  0  0  0  0
   -5.6900   -1.4000   -1.4780 C   0  0  0  0  0  0  0  0  0  0  0  0
   -6.3040   -2.7720   -1.1560 C   0  0  0  0  0  0  0  0  0  0  0  0
   -5.9700   -3.2260    0.1010 O   0  0  0  0  0  0  0  0  0  0  0  0
   -5.7730   -2.2530    1.0470 C   0  0  0  0  0  0  0  0  0  0  0  0
   -6.7310   -1.1080    0.7710 C   0  0  0  0  0  0  0  0  0  0  0  0
   -3.9640    0.8920    1.5180 C   0  0  0  0  0  0  0  0  0  0  0  0
   -3.9380    2.2730    2.1210 C   0  0  2  0  0  0  0  0  0  0  0  0
   -5.2240    2.8680    1.9810 O   0  0  0  0  0  0  0  0  0  0  0  0
   -2.9320    3.2120    1.5710 C   0  0  0  0  0  0  0  0  0  0  0  0
   -3.1850    3.4710    0.1990 O   0  0  0  0  0  0  0  0  0  0  0  0
   -0.9020    1.3160   -1.5680 C   0  0  0  0  0  0  0  0  0  0  0  0
  1  2  1  0
  2  3  1  0
  3  4  2  0
  3 39  1  0
  4  5  1  0
  4 20  1  0
  5  6  2  3
  6  7  1  0
  7  8  1  0
  8  9  2  0
  8 19  1  0
  9 10  1  0
 10 11  2  0
 11 12  1  0
 11 18  1  0
 12 13  2  0
 13 14  1  0
 13 16  1  0
 14 15  1  0
 16 17  2  0
 17 18  1  0
 18 19  2  0
 20 21  1  6
 20 22  1  0
 22 23  1  0
 23 24  1  6
 23 39  1  0
 24 25  2  0
 24 26  1  0
 26 27  1  0
 26 34  1  0
 28 27  1  1
 28 29  1  0
 28 33  1  0
 29 30  1  0
 30 31  1  0
 31 32  1  0
 32 33  1  0
 34 35  1  0
 35 36  1  6
 35 37  1  0
 37 38  1  0
M  END
