
     RDKit          3D

 39 42  0  0  0  0  0  0  0  0999 V2000
    7.9320   -1.6890   -3.4170 C   0  0  0  0  0  0  0  0  0  0  0  0
    7.6330   -0.3760   -2.7410 C   0  0  0  0  0  0  0  0  0  0  0  0
    7.4490   -0.4980   -1.2620 C   0  0  0  0  0  0  0  0  0  0  0  0
    6.3120   -1.4270   -0.8690 C   0  0  0  0  0  0  0  0  0  0  0  0
    5.0320   -0.9480   -1.4280 C   0  0  0  0  0  0  0  0  0  0  0  0
    4.8400   -1.0240   -2.6600 O   0  0  0  0  0  0  0  0  0  0  0  0
    3.9620   -0.3760   -0.5780 C   0  0  0  0  0  0  0  0  0  0  0  0
    4.0610   -0.2650    0.7850 C   0  0  0  0  0  0  0  0  0  0  0  0
    2.8830    0.3110    1.2150 C   0  0  0  0  0  0  0  0  0  0  0  0
    2.1200    0.5180    0.0530 C   0  0  0  0  0  0  0  0  0  0  0  0
    0.7830    1.1250    0.1490 C   0  0  0  0  0  0  0  0  0  0  0  0
    0.4430    2.3970    0.5680 C   0  0  0  0  0  0  0  0  0  0  0  0
    1.2600    3.4580    0.7370 C   0  0  0  0  0  0  0  0  0  0  0  0
    2.6090    3.5770    0.5160 C   0  0  0  0  0  0  0  0  0  0  0  0
    3.4940    2.8220    0.0560 O   0  0  0  0  0  0  0  0  0  0  0  0
    3.1960    4.8620    0.8930 O   0  0  0  0  0  0  0  0  0  0  0  0
    4.5600    5.0530    0.6920 C   0  0  0  0  0  0  0  0  0  0  0  0
   -0.1840    0.1600   -0.0870 C   0  0  0  0  0  0  0  0  0  0  0  0
    0.3080   -1.2180   -0.3670 C   0  0  0  0  0  0  0  0  0  0  0  0
   -0.7080   -2.2640   -0.4550 C   0  0  2  0  0  0  0  0  0  0  0  0
   -0.6130   -3.1220   -1.6900 C   0  0  0  0  0  0  0  0  0  0  0  0
    0.3560   -3.1180   -2.4620 O   0  0  0  0  0  0  0  0  0  0  0  0
   -1.8500   -3.8750   -1.7180 N   0  0  0  0  0  0  0  0  0  0  0  0
   -2.8090   -3.0630   -1.0160 C   0  0  0  0  0  0  0  0  0  0  0  0
   -3.9950   -3.3590   -0.8230 O   0  0  0  0  0  0  0  0  0  0  0  0
   -2.1120   -1.8250   -0.5800 C   0  0  0  0  0  0  0  0  0  0  0  0
   -2.5000   -0.5920   -0.3790 C   0  0  0  0  0  0  0  0  0  0  0  0
   -3.9510   -0.3040   -0.5350 C   0  0  2  0  0  0  0  0  0  0  0  0
   -4.1650    0.8830   -1.2360 O   0  0  0  0  0  0  0  0  0  0  0  0
   -4.7970   -0.4810    0.6780 C   0  0  2  0  0  0  0  0  0  0  0  0
   -6.2230   -0.1510    0.2520 C   0  0  0  0  0  0  0  0  0  0  0  0
   -7.1010   -0.9870    1.2040 C   0  0  2  0  0  0  0  0  0  0  0  0
   -8.4890   -1.1260    0.6840 C   0  0  0  0  0  0  0  0  0  0  0  0
   -7.0090   -0.0390    2.7700 S   0  0  0  0  0  0  0  0  0  0  0  0
   -5.5040    0.9790    2.6100 C   0  0  1  0  0  0  0  0  0  0  0  0
   -5.0380    1.2840    4.0150 C   0  0  0  0  0  0  0  0  0  0  0  0
   -4.3810    0.2610    1.8990 C   0  0  0  0  0  0  0  0  0  0  0  0
   -1.5530    0.4340   -0.1240 N   0  0  0  0  0  0  0  0  0  0  0  0
    2.8140    0.0930   -0.9600 O   0  0  0  0  0  0  0  0  0  0  0  0
  1  2  1  0
  2  3  1  0
  3  4  1  0
  4  5  1  0
  5  6  2  0
  5  7  1  0
  7  8  2  0
  7 39  1  0
  8  9  1  0
  9 10  2  0
 10 11  1  0
 10 39  1  0
 11 12  1  0
 11 18  2  3
 12 13  2  3
 13 14  1  0
 14 15  2  0
 14 16  1  0
 16 17  1  0
 18 19  1  0
 18 38  1  0
 20 19  1  6
 20 21  1  0
 20 26  1  0
 21 22  2  0
 21 23  1  0
 23 24  1  0
 24 25  2  0
 24 26  1  0
 26 27  2  0
 27 28  1  0
 27 38  1  0
 28 29  1  1
 28 30  1  0
 30 31  1  6
 30 37  1  0
 31 32  1  0
 32 33  1  6
 32 34  1  0
 34 35  1  0
 35 36  1  1
 35 37  1  0
M  END
