
     RDKit          3D

 39 42  0  0  0  0  0  0  0  0999 V2000
   -3.9540   -2.4000   -0.7180 C   0  0  0  0  0  0  0  0  0  0  0  0
   -3.8900   -0.9710   -0.2990 C   0  0  0  0  0  0  0  0  0  0  0  0
   -2.6410   -0.4060   -0.1050 C   0  0  0  0  0  0  0  0  0  0  0  0
   -1.4260   -1.2700   -0.3150 C   0  0  0  0  0  0  0  0  0  0  0  0
   -2.4540    0.8950    0.2670 C   0  0  0  0  0  0  0  0  0  0  0  0
   -1.2090    1.4670    0.4620 O   0  0  0  0  0  0  0  0  0  0  0  0
   -0.6470    1.3950    1.7420 C   0  0  0  0  0  0  0  0  0  0  0  0
    0.7050    2.0550    1.8230 C   0  0  0  0  0  0  0  0  0  0  0  0
    1.5850    1.3650    0.8700 N   0  0  0  0  0  0  0  0  0  0  0  0
    1.7190    1.8040   -0.4630 C   0  0  0  0  0  0  0  0  0  0  0  0
    0.8980    2.6660   -0.9150 O   0  0  0  0  0  0  0  0  0  0  0  0
    2.8040    1.2450   -1.2640 C   0  0  2  0  0  0  0  0  0  0  0  0
    2.2670    0.2250   -2.2050 C   0  0  0  0  0  0  0  0  0  0  0  0
    3.7480   -0.7450   -2.5970 S   0  0  0  0  0  0  0  0  0  0  0  0
    4.8980    0.0600   -1.4100 C   0  0  0  0  0  0  0  0  0  0  0  0
    3.9010    0.7000   -0.4560 C   0  0  2  0  0  0  0  0  0  0  0  0
    3.5900   -0.1510    0.7130 C   0  0  1  0  0  0  0  0  0  0  0  0
    3.4430   -1.6230    0.3640 C   0  0  0  0  0  0  0  0  0  0  0  0
    4.6160    0.0440    1.8130 C   0  0  0  0  0  0  0  0  0  0  0  0
    5.9920   -0.2670    1.4650 C   0  0  0  0  0  0  0  0  0  0  0  0
    6.7210    0.7150    1.0770 O   0  0  0  0  0  0  0  0  0  0  0  0
    6.5950   -1.4900    1.5070 O   0  0  0  0  0  0  0  0  0  0  0  0
    7.9090   -1.8040    1.1790 C   0  0  0  0  0  0  0  0  0  0  0  0
    8.2640   -1.4790   -0.2480 C   0  0  0  0  0  0  0  0  0  0  0  0
    9.5820   -1.8160   -0.5100 O   0  0  0  0  0  0  0  0  0  0  0  0
    2.2960    0.2310    1.3080 C   0  0  0  0  0  0  0  0  0  0  0  0
    1.7600   -0.4500    2.2520 O   0  0  0  0  0  0  0  0  0  0  0  0
   -3.5830    1.6600    0.4500 C   0  0  0  0  0  0  0  0  0  0  0  0
   -3.4240    2.9860    0.8220 C   0  0  0  0  0  0  0  0  0  0  0  0
   -4.5200    3.7730    1.0080 C   0  0  0  0  0  0  0  0  0  0  0  0
   -5.7920    3.2810    0.8330 C   0  0  0  0  0  0  0  0  0  0  0  0
   -5.9840    1.9510    0.4590 C   0  0  0  0  0  0  0  0  0  0  0  0
   -4.8760    1.1540    0.2720 C   0  0  0  0  0  0  0  0  0  0  0  0
   -5.0010   -0.1910   -0.1090 C   0  0  0  0  0  0  0  0  0  0  0  0
   -6.3580   -0.7690   -0.2940 C   0  0  0  0  0  0  0  0  0  0  0  0
   -6.6450   -0.8930   -1.7770 C   0  0  0  0  0  0  0  0  0  0  0  0
   -7.9960   -1.4720   -2.0160 C   0  0  0  0  0  0  0  0  0  0  0  0
   -8.4780   -1.7350   -3.3050 N   0  0  0  0  0  0  0  0  0  0  0  0
   -8.7000   -1.7190   -1.0020 O   0  0  0  0  0  0  0  0  0  0  0  0
  1  2  1  0
  2  3  2  0
  2 34  1  0
  3  4  1  0
  3  5  1  0
  5  6  1  0
  5 28  2  0
  6  7  1  0
  7  8  1  0
  8  9  1  0
  9 10  1  0
  9 26  1  0
 10 11  2  0
 10 12  1  0
 12 13  1  1
 12 16  1  0
 13 14  1  0
 14 15  1  0
 16 15  1  6
 16 17  1  0
 17 18  1  6
 17 19  1  0
 17 26  1  0
 19 20  1  0
 20 21  2  0
 20 22  1  0
 22 23  1  0
 23 24  1  0
 24 25  1  0
 26 27  2  0
 28 29  1  0
 28 33  1  0
 29 30  2  0
 30 31  1  0
 31 32  2  0
 32 33  1  0
 33 34  2  0
 34 35  1  0
 35 36  1  0
 36 37  1  0
 37 38  1  0
 37 39  2  0
M  END
