
     RDKit          3D

 39 41  0  0  0  0  0  0  0  0999 V2000
    1.8740   -0.5310    2.0880 C   0  0  0  0  0  0  0  0  0  0  0  0
    0.7280   -0.2460    1.4440 C   0  0  0  0  0  0  0  0  0  0  0  0
   -0.4880   -0.7590    2.0280 C   0  0  0  0  0  0  0  0  0  0  0  0
   -1.6850   -0.5860    1.5460 C   0  0  0  0  0  0  0  0  0  0  0  0
   -2.1400    0.0980    0.3820 C   0  0  0  0  0  0  0  0  0  0  0  0
   -3.4910    0.0880    0.1690 C   0  0  0  0  0  0  0  0  0  0  0  0
   -4.5290   -0.5100    0.9470 C   0  0  0  0  0  0  0  0  0  0  0  0
   -5.7530   -0.2900    0.4090 C   0  0  0  0  0  0  0  0  0  0  0  0
   -7.0060   -0.7760    0.9710 C   0  0  0  0  0  0  0  0  0  0  0  0
   -6.9460   -1.4850    2.0420 O   0  0  0  0  0  0  0  0  0  0  0  0
   -8.3060   -0.4790    0.3590 C   0  0  1  0  0  0  0  0  0  0  0  0
   -9.3970   -1.3840    0.9350 C   0  0  0  0  0  0  0  0  0  0  0  0
  -10.6850   -0.6410    1.1310 C   0  0  0  0  0  0  0  0  0  0  0  0
  -11.0060    0.2900   -0.0120 C   0  0  0  0  0  0  0  0  0  0  0  0
   -9.8870    1.2620   -0.3100 C   0  0  1  0  0  0  0  0  0  0  0  0
  -10.3680    2.6880   -0.1890 C   0  0  0  0  0  0  0  0  0  0  0  0
   -8.7430    0.9740    0.6320 C   0  0  2  0  0  0  0  0  0  0  0  0
   -7.7370    1.8680    0.4380 O   0  0  0  0  0  0  0  0  0  0  0  0
   -5.5380    0.4700   -0.7710 N   0  0  0  0  0  0  0  0  0  0  0  0
   -4.1330    0.7360   -0.9620 C   0  0  0  0  0  0  0  0  0  0  0  0
   -3.5990    1.3770   -1.9060 O   0  0  0  0  0  0  0  0  0  0  0  0
    0.7650    0.7240   -0.0470 S   0  0  0  0  0  0  0  0  0  0  0  0
    2.2780    1.6420   -0.1550 C   0  0  0  0  0  0  0  0  0  0  0  0
    3.4480    0.7500   -0.4390 C   0  0  0  0  0  0  0  0  0  0  0  0
    3.2810   -0.3910   -0.8760 O   0  0  0  0  0  0  0  0  0  0  0  0
    4.7530    1.2470   -0.1970 N   0  0  0  0  0  0  0  0  0  0  0  0
    5.9210    0.5240   -0.4430 C   0  0  0  0  0  0  0  0  0  0  0  0
    6.0350   -0.3920   -1.4520 C   0  0  0  0  0  0  0  0  0  0  0  0
    7.2240   -1.0990   -1.6750 C   0  0  0  0  0  0  0  0  0  0  0  0
    8.3310   -0.8830   -0.8640 C   0  0  0  0  0  0  0  0  0  0  0  0
    9.4650   -1.5860   -1.1170 O   0  0  0  0  0  0  0  0  0  0  0  0
   10.6670   -1.6030   -0.4260 C   0  0  1  0  0  0  0  0  0  0  0  0
   11.2130   -3.0100   -0.4110 C   0  0  0  0  0  0  0  0  0  0  0  0
   11.7370   -0.7660   -1.0570 C   0  0  0  0  0  0  0  0  0  0  0  0
   12.8850   -0.6860   -0.4930 O   0  0  0  0  0  0  0  0  0  0  0  0
   11.5670   -0.0580   -2.2300 O   0  0  0  0  0  0  0  0  0  0  0  0
   12.6570    0.7020   -2.7240 C   0  0  0  0  0  0  0  0  0  0  0  0
    8.2360    0.0330    0.1560 C   0  0  0  0  0  0  0  0  0  0  0  0
    7.0660    0.7050    0.3470 C   0  0  0  0  0  0  0  0  0  0  0  0
  1  2  2  0
  2  3  1  0
  2 22  1  0
  3  4  2  3
  4  5  1  0
  5  6  2  3
  6  7  1  0
  6 20  1  0
  7  8  2  0
  8  9  1  0
  8 19  1  0
  9 10  2  0
 11  9  1  1
 11 12  1  0
 11 17  1  0
 12 13  1  0
 13 14  1  0
 14 15  1  0
 15 16  1  1
 15 17  1  0
 17 18  1  6
 19 20  1  0
 20 21  2  0
 22 23  1  0
 23 24  1  0
 24 25  2  0
 24 26  1  0
 26 27  1  0
 27 28  2  0
 27 39  1  0
 28 29  1  0
 29 30  2  0
 30 31  1  0
 30 38  1  0
 31 32  1  0
 32 33  1  6
 32 34  1  0
 34 35  2  0
 34 36  1  0
 36 37  1  0
 38 39  2  0
M  END
