
     RDKit          3D

 39 42  0  0  0  0  0  0  0  0999 V2000
    1.2700   -1.9420    3.5560 C   0  0  0  0  0  0  0  0  0  0  0  0
    1.0450   -0.8170    2.5260 C   0  0  0  0  0  0  0  0  0  0  0  0
   -0.2630   -0.1690    2.7880 C   0  0  0  0  0  0  0  0  0  0  0  0
   -0.6860    0.9420    1.9100 C   0  0  0  0  0  0  0  0  0  0  0  0
   -0.8020    0.6120    0.4350 C   0  0  1  0  0  0  0  0  0  0  0  0
   -1.7300   -0.4730    0.1220 C   0  0  0  0  0  0  0  0  0  0  0  0
   -2.9160   -0.4580    0.8470 C   0  0  0  0  0  0  0  0  0  0  0  0
   -3.8850   -1.4240    0.6250 C   0  0  0  0  0  0  0  0  0  0  0  0
   -3.6950   -2.4210   -0.3180 C   0  0  0  0  0  0  0  0  0  0  0  0
   -4.6700   -3.3860   -0.5290 O   0  0  0  0  0  0  0  0  0  0  0  0
   -5.8580   -3.3340    0.2280 C   0  0  0  0  0  0  0  0  0  0  0  0
   -2.5230   -2.4470   -1.0430 C   0  0  0  0  0  0  0  0  0  0  0  0
   -2.3100   -3.4830   -2.0830 C   0  0  0  0  0  0  0  0  0  0  0  0
   -2.9800   -3.1360   -3.3750 C   0  0  0  0  0  0  0  0  0  0  0  0
   -4.7530   -2.9270   -3.2760 S   0  0  0  0  0  0  0  0  0  0  0  0
   -1.5820   -1.4650   -0.7900 C   0  0  0  0  0  0  0  0  0  0  0  0
   -1.4380    1.8570   -0.2390 C   0  0  1  0  0  0  0  0  0  0  0  0
   -1.0720    3.1170    0.2910 N   0  0  0  0  0  0  0  0  0  0  0  0
   -1.9830    4.2120    0.0860 C   0  0  0  0  0  0  0  0  0  0  0  0
   -3.0270    3.9490   -0.5570 O   0  0  0  0  0  0  0  0  0  0  0  0
   -1.6930    5.5030    0.5900 N   0  0  0  0  0  0  0  0  0  0  0  0
   -2.5640    6.6240    0.4150 C   0  0  0  0  0  0  0  0  0  0  0  0
   -3.8800    6.4390    1.0800 C   0  0  0  0  0  0  0  0  0  0  0  0
   -4.6190    5.3680    0.6380 O   0  0  0  0  0  0  0  0  0  0  0  0
   -0.5010    1.4920   -1.4210 C   0  0  0  0  0  0  0  0  0  0  0  0
    0.3830    0.9330   -0.3290 C   0  0  2  0  0  0  0  0  0  0  0  0
    1.3680    0.0610   -0.7310 O   0  0  0  0  0  0  0  0  0  0  0  0
    2.7180    0.3040   -0.5700 C   0  0  0  0  0  0  0  0  0  0  0  0
    3.0040    1.4150   -0.0010 O   0  0  0  0  0  0  0  0  0  0  0  0
    3.8060   -0.5650   -0.9800 C   0  0  0  0  0  0  0  0  0  0  0  0
    3.6020   -1.7770   -1.5910 C   0  0  0  0  0  0  0  0  0  0  0  0
    4.6930   -2.5730   -1.9740 C   0  0  0  0  0  0  0  0  0  0  0  0
    5.9790   -2.1610   -1.7510 C   0  0  0  0  0  0  0  0  0  0  0  0
    6.2030   -0.9410   -1.1370 C   0  0  0  0  0  0  0  0  0  0  0  0
    5.1320   -0.1800   -0.7700 C   0  0  0  0  0  0  0  0  0  0  0  0
    7.5240   -0.5830   -0.9400 O   0  0  0  0  0  0  0  0  0  0  0  0
    8.5880   -1.4820   -0.7000 C   0  0  0  0  0  0  0  0  0  0  0  0
    8.2850   -2.8210   -1.2700 C   0  0  0  0  0  0  0  0  0  0  0  0
    7.1260   -2.8670   -2.0870 O   0  0  0  0  0  0  0  0  0  0  0  0
  1  2  1  0
  2  3  1  0
  3  4  1  0
  5  4  1  1
  5  6  1  0
  5 17  1  0
  5 26  1  0
  6  7  2  0
  6 16  1  0
  7  8  1  0
  8  9  2  0
  9 10  1  0
  9 12  1  0
 10 11  1  0
 12 13  1  0
 12 16  2  0
 13 14  1  0
 14 15  1  0
 17 18  1  1
 17 25  1  0
 18 19  1  0
 19 20  2  0
 19 21  1  0
 21 22  1  0
 22 23  1  0
 23 24  1  0
 25 26  1  0
 26 27  1  6
 27 28  1  0
 28 29  2  0
 28 30  1  0
 30 31  2  0
 30 35  1  0
 31 32  1  0
 32 33  2  0
 33 34  1  0
 33 39  1  0
 34 35  2  0
 34 36  1  0
 36 37  1  0
 37 38  1  0
 38 39  1  0
M  END
