
     RDKit          3D

 10 11  0  0  0  0  0  0  0  0999 V2000
   -1.8830   -1.4080   -0.3070 N   0  0  0  0  0  0  0  0  0  0  0  0
   -1.0570   -0.2720   -0.0950 C   0  0  0  0  0  0  0  0  0  0  0  0
   -1.6250    0.9760    0.0640 C   0  0  0  0  0  0  0  0  0  0  0  0
   -0.7940    2.0100    0.2610 N   0  0  0  0  0  0  0  0  0  0  0  0
    0.5090    1.9170    0.3110 N   0  0  0  0  0  0  0  0  0  0  0  0
    1.1280    0.7420    0.1650 C   0  0  0  0  0  0  0  0  0  0  0  0
    2.3900    0.2990    0.1620 N   0  0  0  0  0  0  0  0  0  0  0  0
    2.4420   -1.0320   -0.0360 C   0  0  0  0  0  0  0  0  0  0  0  0
    1.1710   -1.4610   -0.1630 N   0  0  0  0  0  0  0  0  0  0  0  0
    0.3030   -0.4510   -0.0550 C   0  0  0  0  0  0  0  0  0  0  0  0
  1  2  1  0
  2  3  1  0
  2 10  2  0
  3  4  2  0
  4  5  1  0
  5  6  1  0
  6  7  2  0
  6 10  1  0
  7  8  1  0
  8  9  2  0
  9 10  1  0
M  END
