
     RDKit          3D

 10 11  0  0  0  0  0  0  0  0999 V2000
    2.2080    0.0810   -0.1190 N   0  0  0  0  0  0  0  0  0  0  0  0
    0.8600   -0.3600   -0.0420 C   0  0  0  0  0  0  0  0  0  0  0  0
    0.4890   -1.6900   -0.0120 C   0  0  0  0  0  0  0  0  0  0  0  0
   -0.8080   -2.0610    0.0610 N   0  0  0  0  0  0  0  0  0  0  0  0
   -1.8220   -1.1780    0.1100 C   0  0  0  0  0  0  0  0  0  0  0  0
   -1.4830    0.1570    0.0810 C   0  0  0  0  0  0  0  0  0  0  0  0
   -2.2490    1.2690    0.1140 N   0  0  0  0  0  0  0  0  0  0  0  0
   -1.4430    2.2990    0.0620 N   0  0  0  0  0  0  0  0  0  0  0  0
   -0.1820    1.9040   -0.0030 N   0  0  0  0  0  0  0  0  0  0  0  0
   -0.1660    0.5620    0.0060 C   0  0  0  0  0  0  0  0  0  0  0  0
  1  2  1  0
  2  3  2  0
  2 10  1  0
  3  4  1  0
  4  5  2  0
  5  6  1  0
  6  7  1  0
  6 10  2  0
  7  8  2  0
  8  9  1  0
  9 10  1  0
M  END
