
     RDKit          3D

 10 11  0  0  0  0  0  0  0  0999 V2000
    2.6670   -0.5930   -0.4120 N   0  0  0  0  0  0  0  0  0  0  0  0
    1.5710    0.2730   -0.1490 C   0  0  0  0  0  0  0  0  0  0  0  0
    1.5320    1.6010    0.0600 N   0  0  0  0  0  0  0  0  0  0  0  0
    0.2640    1.9910    0.2710 N   0  0  0  0  0  0  0  0  0  0  0  0
   -0.5550    0.9430    0.2070 C   0  0  0  0  0  0  0  0  0  0  0  0
   -1.8840    0.8520    0.3520 N   0  0  0  0  0  0  0  0  0  0  0  0
   -2.4430   -0.3630    0.2320 C   0  0  0  0  0  0  0  0  0  0  0  0
   -1.6450   -1.4530   -0.0310 C   0  0  0  0  0  0  0  0  0  0  0  0
   -0.3080   -1.3640   -0.1760 N   0  0  0  0  0  0  0  0  0  0  0  0
    0.2550   -0.1410   -0.0560 C   0  0  0  0  0  0  0  0  0  0  0  0
  1  2  1  0
  2  3  2  0
  2 10  1  0
  3  4  1  0
  4  5  1  0
  5  6  2  0
  5 10  1  0
  6  7  1  0
  7  8  2  0
  8  9  1  0
  9 10  2  0
M  END
