
     RDKit          3D

 10 11  0  0  0  0  0  0  0  0999 V2000
   -1.7370   -1.4590   -0.1380 C   0  0  0  0  0  0  0  0  0  0  0  0
   -1.2700   -0.0720   -0.0540 N   0  0  0  0  0  0  0  0  0  0  0  0
   -2.0420    1.0110   -0.0290 N   0  0  0  0  0  0  0  0  0  0  0  0
   -1.2800    2.1120    0.0510 C   0  0  0  0  0  0  0  0  0  0  0  0
    0.0460    1.7120    0.0800 C   0  0  0  0  0  0  0  0  0  0  0  0
    1.3370    2.0380    0.1420 N   0  0  0  0  0  0  0  0  0  0  0  0
    2.1330    0.9860    0.1190 N   0  0  0  0  0  0  0  0  0  0  0  0
    1.3270   -0.0860    0.0380 C   0  0  0  0  0  0  0  0  0  0  0  0
    1.7430   -1.4440   -0.0130 N   0  0  0  0  0  0  0  0  0  0  0  0
    0.0130    0.3250    0.0110 C   0  0  0  0  0  0  0  0  0  0  0  0
  1  2  1  0
  2  3  1  0
  2 10  1  0
  3  4  2  0
  4  5  1  0
  5  6  2  0
  5 10  1  0
  6  7  1  0
  7  8  1  0
  8  9  1  0
  8 10  2  0
M  END
