
     RDKit          3D

 43 45  0  0  0  0  0  0  0  0999 V2000
   -4.2390   -1.8980   -1.4820 C   0  0  0  0  0  0  0  0  0  0  0  0
   -4.5100   -0.9260   -0.3790 C   0  0  1  0  0  0  0  0  0  0  0  0
   -5.2910   -1.6480    0.7000 C   0  0  0  0  0  0  0  0  0  0  0  0
   -3.3500   -0.3960    0.2100 O   0  0  0  0  0  0  0  0  0  0  0  0
   -2.3710   -1.0910    0.8340 C   0  0  0  0  0  0  0  0  0  0  0  0
   -2.5360   -2.3640    0.8840 O   0  0  0  0  0  0  0  0  0  0  0  0
   -1.1640   -0.5070    1.4440 C   0  0  2  0  0  0  0  0  0  0  0  0
   -1.5450    0.4010    2.5500 C   0  0  0  0  0  0  0  0  0  0  0  0
   -2.1290    1.6780    2.0250 C   0  0  0  0  0  0  0  0  0  0  0  0
   -1.0920    2.2710    1.1580 N   0  0  0  0  0  0  0  0  0  0  0  0
   -0.8020    1.4640   -0.0040 C   0  0  0  0  0  0  0  0  0  0  0  0
   -0.2640    0.1070    0.3820 C   0  0  2  0  0  0  0  0  0  0  0  0
   -0.4180   -0.7890   -0.8210 C   0  0  0  0  0  0  0  0  0  0  0  0
   -0.7650   -0.3500   -1.9220 O   0  0  0  0  0  0  0  0  0  0  0  0
   -0.1500   -2.1760   -0.6590 N   0  0  0  0  0  0  0  0  0  0  0  0
   -0.2260   -3.1800   -1.6650 C   0  0  0  0  0  0  0  0  0  0  0  0
    0.6840   -3.0560   -2.8300 C   0  0  0  0  0  0  0  0  0  0  0  0
    0.4590   -1.8800   -3.5120 O   0  0  0  0  0  0  0  0  0  0  0  0
    1.1500    0.0590    0.7670 C   0  0  0  0  0  0  0  0  0  0  0  0
    1.4370   -0.9970    1.7280 N   0  0  0  0  0  0  0  0  0  0  0  0
    2.4700   -1.7110    1.7570 C   0  0  0  0  0  0  0  0  0  0  0  0
    2.4890   -2.6650    2.8040 O   0  0  0  0  0  0  0  0  0  0  0  0
    3.6380   -1.6720    0.8490 C   0  0  0  0  0  0  0  0  0  0  0  0
    4.8230   -1.3430    1.5960 N   0  0  0  0  0  0  0  0  0  0  0  0
    6.0640   -1.2480    0.9370 C   0  0  0  0  0  0  0  0  0  0  0  0
    6.1820   -1.4450   -0.3160 O   0  0  0  0  0  0  0  0  0  0  0  0
    7.2600   -0.9320    1.5970 O   0  0  0  0  0  0  0  0  0  0  0  0
    2.0320    0.7930    0.3850 N   0  0  0  0  0  0  0  0  0  0  0  0
    2.4200    1.8520   -0.3830 C   0  0  0  0  0  0  0  0  0  0  0  0
    3.3100    1.7840   -1.4390 C   0  0  0  0  0  0  0  0  0  0  0  0
    3.6950    2.8800   -2.2050 C   0  0  0  0  0  0  0  0  0  0  0  0
    3.1290    4.0870   -1.8550 C   0  0  0  0  0  0  0  0  0  0  0  0
    2.2400    4.2020   -0.8140 C   0  0  0  0  0  0  0  0  0  0  0  0
    1.9330    3.0970   -0.1360 N   0  0  0  0  0  0  0  0  0  0  0  0
    1.6070    5.4920   -0.4530 C   0  0  0  0  0  0  0  0  0  0  0  0
    2.2640    6.5250   -0.6720 O   0  0  0  0  0  0  0  0  0  0  0  0
    0.3120    5.4780    0.1100 O   0  0  0  0  0  0  0  0  0  0  0  0
   -0.1790    4.3550    0.5220 O   0  0  0  0  0  0  0  0  0  0  0  0
   -0.4670    3.5220    1.4830 C   0  0  0  0  0  0  0  0  0  0  0  0
   -0.2900    3.6000    2.7690 O   0  0  0  0  0  0  0  0  0  0  0  0
   -5.3830    0.1480   -0.9220 C   0  0  0  0  0  0  0  0  0  0  0  0
   -6.4630   -0.2330   -1.4780 O   0  0  0  0  0  0  0  0  0  0  0  0
   -5.1030    1.4860   -0.8600 O   0  0  0  0  0  0  0  0  0  0  0  0
  2  1  1  6
  2  3  1  0
  2  4  1  0
  2 41  1  0
  4  5  1  0
  5  6  2  0
  7  5  1  6
  7  8  1  0
  7 12  1  0
  8  9  1  0
  9 10  1  0
 10 11  1  0
 10 39  1  0
 11 12  1  0
 12 13  1  6
 12 19  1  0
 13 14  2  0
 13 15  1  0
 15 16  1  0
 16 17  1  0
 17 18  1  0
 19 20  1  0
 19 28  2  0
 20 21  2  3
 21 22  1  0
 21 23  1  0
 23 24  1  0
 24 25  1  0
 25 26  2  0
 25 27  1  0
 28 29  1  0
 29 30  2  0
 29 34  1  0
 30 31  1  0
 31 32  2  0
 32 33  1  0
 33 34  2  0
 33 35  1  0
 35 36  2  0
 35 37  1  0
 37 38  1  0
 38 39  1  0
 39 40  2  0
 41 42  2  0
 41 43  1  0
M  END
