
     RDKit          3D

 44 48  0  0  0  0  0  0  0  0999 V2000
    3.8630   -0.3250   -2.0490 C   0  0  0  0  0  0  0  0  0  0  0  0
    3.5830   -0.0550   -0.5810 C   0  0  1  0  0  0  0  0  0  0  0  0
    4.9030    0.0920    0.1370 C   0  0  0  0  0  0  0  0  0  0  0  0
    5.6380   -1.0130    0.4390 O   0  0  0  0  0  0  0  0  0  0  0  0
    5.3710   -1.9460    1.4120 C   0  0  0  0  0  0  0  0  0  0  0  0
    4.3880   -1.8700    2.1800 O   0  0  0  0  0  0  0  0  0  0  0  0
    6.2240   -3.0420    1.5700 O   0  0  0  0  0  0  0  0  0  0  0  0
    3.0310    1.4010   -0.5380 C   0  0  0  0  0  0  0  0  0  0  0  0
    1.9900    1.4500    0.5610 C   0  0  0  0  0  0  0  0  0  0  0  0
    0.9360    2.2860    0.1050 N   0  0  0  0  0  0  0  0  0  0  0  0
    1.1710    3.6790   -0.0080 C   0  0  0  0  0  0  0  0  0  0  0  0
    0.3130    4.5050   -0.4030 O   0  0  0  0  0  0  0  0  0  0  0  0
    2.4120    4.2430    0.3250 O   0  0  0  0  0  0  0  0  0  0  0  0
   -0.4160    1.8020   -0.2750 C   0  0  2  0  0  0  0  0  0  0  0  0
   -0.4660    2.0530   -1.7500 C   0  0  0  0  0  0  0  0  0  0  0  0
   -0.3630    0.9140   -2.6650 C   0  0  0  0  0  0  0  0  0  0  0  0
    0.6570   -0.0380   -2.4530 O   0  0  0  0  0  0  0  0  0  0  0  0
    0.4050   -1.4510   -2.5670 C   0  0  0  0  0  0  0  0  0  0  0  0
    1.0360   -2.1650   -3.3880 O   0  0  0  0  0  0  0  0  0  0  0  0
   -0.6010   -2.0760   -1.7200 C   0  0  0  0  0  0  0  0  0  0  0  0
   -0.5500   -2.0180   -0.3920 C   0  0  0  0  0  0  0  0  0  0  0  0
    0.6220   -2.0420    0.4460 N   0  0  0  0  0  0  0  0  0  0  0  0
    1.9920   -1.9340    0.1930 C   0  0  0  0  0  0  0  0  0  0  0  0
    2.5680   -3.1270    0.1430 O   0  0  0  0  0  0  0  0  0  0  0  0
    2.7080   -0.8310    0.0200 O   0  0  0  0  0  0  0  0  0  0  0  0
   -1.9950   -2.0300   -0.0470 C   0  0  2  0  0  0  0  0  0  0  0  0
   -2.3450   -2.1400    1.3350 C   0  0  0  0  0  0  0  0  0  0  0  0
   -2.3200   -3.2810    1.8910 O   0  0  0  0  0  0  0  0  0  0  0  0
   -2.6970   -0.9930    2.0160 O   0  0  0  0  0  0  0  0  0  0  0  0
   -3.6840   -0.0680    1.8240 C   0  0  1  0  0  0  0  0  0  0  0  0
   -5.0040   -0.7950    1.5000 C   0  0  0  0  0  0  0  0  0  0  0  0
   -3.9680    0.5830    3.1770 C   0  0  0  0  0  0  0  0  0  0  0  0
   -3.8210    1.9660    3.1450 O   0  0  0  0  0  0  0  0  0  0  0  0
   -2.7520    2.5380    2.4830 C   0  0  0  0  0  0  0  0  0  0  0  0
   -2.0190    3.4410    2.9540 O   0  0  0  0  0  0  0  0  0  0  0  0
   -2.5120    1.9950    1.1200 N   0  0  0  0  0  0  0  0  0  0  0  0
   -1.4120    2.6200    0.4680 C   0  0  0  0  0  0  0  0  0  0  0  0
   -3.4350    1.0070    0.7950 C   0  0  0  0  0  0  0  0  0  0  0  0
   -4.1470    0.8390   -0.2600 O   0  0  0  0  0  0  0  0  0  0  0  0
   -2.5630   -2.9690   -0.9960 N   0  0  0  0  0  0  0  0  0  0  0  0
   -3.5980   -3.7750   -1.2460 C   0  0  0  0  0  0  0  0  0  0  0  0
   -3.5710   -4.0270   -2.5600 N   0  0  0  0  0  0  0  0  0  0  0  0
   -2.5450   -3.3990   -3.0970 N   0  0  0  0  0  0  0  0  0  0  0  0
   -1.8940   -2.7330   -2.1120 C   0  0  0  0  0  0  0  0  0  0  0  0
  2  1  1  6
  2  3  1  0
  2  8  1  0
  2 25  1  0
  3  4  1  0
  4  5  1  0
  5  6  2  0
  5  7  1  0
  8  9  1  0
  9 10  1  0
 10 11  1  0
 10 14  1  0
 11 12  2  0
 11 13  1  0
 14 15  1  0
 14 37  1  1
 15 16  1  0
 16 17  1  0
 17 18  1  0
 18 19  2  0
 18 20  1  0
 20 21  2  0
 20 44  1  0
 21 22  1  0
 21 26  1  0
 22 23  1  0
 23 24  2  0
 23 25  1  0
 26 27  1  0
 26 40  1  6
 27 28  2  0
 27 29  1  0
 29 30  1  0
 30 31  1  6
 30 32  1  0
 30 38  1  0
 32 33  1  0
 33 34  1  0
 34 35  2  0
 34 36  1  0
 36 37  1  0
 36 38  1  0
 38 39  2  0
 40 41  1  0
 40 44  1  0
 41 42  2  0
 42 43  1  0
 43 44  2  0
M  END
