
     RDKit          3D

 43 46  0  0  0  0  0  0  0  0999 V2000
   -5.3990    4.6420   -1.9630 C   0  0  0  0  0  0  0  0  0  0  0  0
   -5.3010    3.3920   -1.3410 O   0  0  0  0  0  0  0  0  0  0  0  0
   -4.2800    2.9410   -0.5930 N   0  0  0  0  0  0  0  0  0  0  0  0
   -3.8110    3.4360    0.4980 C   0  0  0  0  0  0  0  0  0  0  0  0
   -2.6930    2.8780    1.2450 C   0  0  0  0  0  0  0  0  0  0  0  0
   -2.0470    1.7970    0.8690 C   0  0  0  0  0  0  0  0  0  0  0  0
   -2.4380    1.1070   -0.3340 C   0  0  0  0  0  0  0  0  0  0  0  0
   -2.7400   -0.1800   -0.4570 C   0  0  0  0  0  0  0  0  0  0  0  0
   -2.7180   -1.0680    0.6010 O   0  0  0  0  0  0  0  0  0  0  0  0
   -3.3160   -2.2860    0.2560 C   0  0  2  0  0  0  0  0  0  0  0  0
   -2.5700   -3.4490    0.8640 C   0  0  0  0  0  0  0  0  0  0  0  0
   -1.1290   -3.0630    1.0450 C   0  0  0  0  0  0  0  0  0  0  0  0
   -0.3270   -3.0500   -0.2220 C   0  0  0  0  0  0  0  0  0  0  0  0
    1.0930   -3.3410    0.0200 N   0  0  0  0  0  0  0  0  0  0  0  0
    1.9080   -2.6100    0.9270 C   0  0  0  0  0  0  0  0  0  0  0  0
    2.6160   -3.3380    1.7270 O   0  0  0  0  0  0  0  0  0  0  0  0
    1.8980   -1.2550    0.9060 O   0  0  0  0  0  0  0  0  0  0  0  0
    2.5850   -0.3290    0.1330 C   0  0  1  0  0  0  0  0  0  0  0  0
    1.8040    0.7420   -0.3060 O   0  0  0  0  0  0  0  0  0  0  0  0
    1.1840    1.4030    0.7530 C   0  0  2  0  0  0  0  0  0  0  0  0
    2.1750    1.8690    1.7890 C   0  0  0  0  0  0  0  0  0  0  0  0
    3.5590    1.6890    1.1600 C   0  0  0  0  0  0  0  0  0  0  0  0
    3.7480    0.1910    0.9960 C   0  0  2  0  0  0  0  0  0  0  0  0
    5.0340   -0.1270    0.4090 N   0  0  0  0  0  0  0  0  0  0  0  0
    6.0920   -0.8760    1.0670 C   0  0  0  0  0  0  0  0  0  0  0  0
    7.2850   -0.8120    0.1750 C   0  0  0  0  0  0  0  0  0  0  0  0
    6.9190   -0.0380   -0.9960 N   0  0  0  0  0  0  0  0  0  0  0  0
    7.8070    0.3620   -2.0140 C   0  0  0  0  0  0  0  0  0  0  0  0
    9.0430    0.0450   -1.9530 N   0  0  0  0  0  0  0  0  0  0  0  0
    5.5220    0.2010   -0.8660 C   0  0  0  0  0  0  0  0  0  0  0  0
    4.8210    0.6610   -1.8120 O   0  0  0  0  0  0  0  0  0  0  0  0
    0.0660    0.5550    1.3410 C   0  0  0  0  0  0  0  0  0  0  0  0
   -0.9940    1.3790    1.6870 O   0  0  0  0  0  0  0  0  0  0  0  0
   -3.3500   -2.3410   -1.1850 N   0  0  0  0  0  0  0  0  0  0  0  0
   -3.5450   -3.4850   -2.0560 C   0  0  0  0  0  0  0  0  0  0  0  0
   -4.9200   -3.6270   -2.2950 O   0  0  0  0  0  0  0  0  0  0  0  0
   -5.5740   -3.8190   -1.1670 O   0  0  0  0  0  0  0  0  0  0  0  0
   -3.1490   -0.9990   -1.6190 C   0  0  0  0  0  0  0  0  0  0  0  0
   -3.3020   -0.6030   -2.8040 O   0  0  0  0  0  0  0  0  0  0  0  0
   -4.5030    4.6000    0.9040 O   0  0  0  0  0  0  0  0  0  0  0  0
   -5.9100    4.5500    1.0920 C   0  0  0  0  0  0  0  0  0  0  0  0
   -6.5210    3.4490    0.8780 O   0  0  0  0  0  0  0  0  0  0  0  0
   -6.5680    5.6920    1.4980 O   0  0  0  0  0  0  0  0  0  0  0  0
  1  2  1  0
  2  3  1  0
  3  4  2  3
  4  5  1  0
  4 40  1  0
  5  6  2  3
  6  7  1  0
  6 33  1  0
  7  8  2  0
  8  9  1  0
  8 38  1  0
  9 10  1  0
 10 11  1  6
 10 34  1  0
 11 12  1  0
 12 13  1  0
 13 14  1  0
 14 15  1  0
 15 16  2  0
 15 17  1  0
 18 17  1  1
 18 19  1  0
 18 23  1  0
 19 20  1  0
 20 21  1  1
 20 32  1  0
 21 22  1  0
 22 23  1  0
 23 24  1  6
 24 25  1  0
 24 30  1  0
 25 26  1  0
 26 27  1  0
 27 28  1  0
 27 30  1  0
 28 29  2  0
 30 31  2  0
 32 33  1  0
 34 35  1  0
 34 38  1  0
 35 36  1  0
 36 37  1  0
 38 39  2  0
 40 41  1  0
 41 42  2  0
 41 43  1  0
M  END
