
     RDKit          3D

 43 47  0  0  0  0  0  0  0  0999 V2000
   -5.8330   -0.8670    2.8390 O   0  0  0  0  0  0  0  0  0  0  0  0
   -6.7520   -0.2570    2.2850 C   0  0  0  0  0  0  0  0  0  0  0  0
   -6.4070    0.5790    1.0430 C   0  0  0  0  0  0  0  0  0  0  0  0
   -4.9710    0.8590    1.1430 C   0  0  1  0  0  0  0  0  0  0  0  0
   -4.0890   -0.2760    1.1330 O   0  0  0  0  0  0  0  0  0  0  0  0
   -2.7430   -0.2370    0.8880 C   0  0  0  0  0  0  0  0  0  0  0  0
   -1.8120   -0.2700    1.9150 C   0  0  0  0  0  0  0  0  0  0  0  0
   -0.4330   -0.2130    1.7490 C   0  0  0  0  0  0  0  0  0  0  0  0
    0.0380   -0.1230    0.4730 C   0  0  0  0  0  0  0  0  0  0  0  0
    1.3990   -0.0450    0.2450 N   0  0  0  0  0  0  0  0  0  0  0  0
    2.0840   -1.3980    0.1030 C   0  0  0  0  0  0  0  0  0  0  0  0
    1.4640   -2.3620    0.2580 O   0  0  0  0  0  0  0  0  0  0  0  0
    3.4390   -1.1110   -0.2040 N   0  0  0  0  0  0  0  0  0  0  0  0
    4.0260   -2.7250    0.0240 C   0  0  0  0  0  0  0  0  0  0  0  0
    3.2260   -3.5240    0.3050 O   0  0  0  0  0  0  0  0  0  0  0  0
    5.4370   -2.7860   -0.1770 C   0  0  0  0  0  0  0  0  0  0  0  0
    6.2330   -3.9400   -0.0150 C   0  0  0  0  0  0  0  0  0  0  0  0
    7.4890   -3.6340   -0.2430 N   0  0  0  0  0  0  0  0  0  0  0  0
    7.5860   -2.3570   -0.5480 N   0  0  0  0  0  0  0  0  0  0  0  0
    8.4430   -1.3720   -0.8920 C   0  0  0  0  0  0  0  0  0  0  0  0
    7.7470   -0.2370   -1.0700 C   0  0  0  0  0  0  0  0  0  0  0  0
    8.1370    1.1550   -1.4400 C   0  0  2  0  0  0  0  0  0  0  0  0
    9.6160    1.3540   -1.1600 C   0  0  0  0  0  0  0  0  0  0  0  0
    9.6410    1.5540    0.2600 O   0  0  0  0  0  0  0  0  0  0  0  0
    8.3220    1.6380    0.6320 C   0  0  0  0  0  0  0  0  0  0  0  0
    7.5680    2.0270   -0.4670 O   0  0  0  0  0  0  0  0  0  0  0  0
    6.4690   -0.5410   -0.8330 O   0  0  0  0  0  0  0  0  0  0  0  0
    6.3650   -1.8240   -0.5170 C   0  0  0  0  0  0  0  0  0  0  0  0
   -0.8760   -0.0980   -0.5620 C   0  0  0  0  0  0  0  0  0  0  0  0
   -2.2560   -0.1550   -0.4260 C   0  0  0  0  0  0  0  0  0  0  0  0
   -3.0680   -0.2960   -1.6440 C   0  0  0  0  0  0  0  0  0  0  0  0
   -3.9380    0.6740   -2.0140 O   0  0  0  0  0  0  0  0  0  0  0  0
   -5.0780    0.0160   -2.4920 C   0  0  0  0  0  0  0  0  0  0  0  0
   -6.2720    0.8600   -2.6720 C   0  0  0  0  0  0  0  0  0  0  0  0
   -6.4380    1.9910   -1.9480 O   0  0  0  0  0  0  0  0  0  0  0  0
   -5.7480    3.0250   -1.4220 C   0  0  0  0  0  0  0  0  0  0  0  0
   -5.7580    4.1400   -2.1190 O   0  0  0  0  0  0  0  0  0  0  0  0
   -5.0070    3.0840   -0.2240 N   0  0  0  0  0  0  0  0  0  0  0  0
   -4.4160    2.0760    0.5410 C   0  0  0  0  0  0  0  0  0  0  0  0
   -3.1280    2.1300    0.8350 O   0  0  0  0  0  0  0  0  0  0  0  0
   -8.0610   -0.2930    2.7530 N   0  0  0  0  0  0  0  0  0  0  0  0
   -8.3590   -1.0300    3.8610 O   0  0  0  0  0  0  0  0  0  0  0  0
   -7.7690   -0.5050    4.9210 O   0  0  0  0  0  0  0  0  0  0  0  0
  1  2  2  0
  2  3  1  0
  2 41  1  0
  4  3  1  6
  4  5  1  0
  4 39  1  0
  5  6  1  0
  6  7  2  0
  6 30  1  0
  7  8  1  0
  8  9  2  0
  9 10  1  0
  9 29  1  0
 10 11  1  0
 11 12  2  0
 11 13  1  0
 13 14  1  0
 14 15  2  0
 14 16  1  0
 16 17  1  0
 16 28  2  0
 17 18  2  0
 18 19  1  0
 19 20  1  0
 19 28  1  0
 20 21  2  0
 22 21  1  1
 21 27  1  0
 22 23  1  0
 22 26  1  0
 23 24  1  0
 24 25  1  0
 25 26  1  0
 27 28  1  0
 29 30  2  0
 30 31  1  0
 31 32  1  0
 32 33  1  0
 33 34  1  0
 34 35  1  0
 35 36  1  0
 36 37  2  0
 36 38  1  0
 38 39  1  0
 39 40  2  0
 41 42  1  0
 42 43  1  0
M  END
