
     RDKit          3D

 43 45  0  0  0  0  0  0  0  0999 V2000
    0.1940   -1.0760    2.0250 C   0  0  0  0  0  0  0  0  0  0  0  0
    0.7210   -1.3910    0.6210 C   0  0  1  0  0  0  0  0  0  0  0  0
    2.0740   -1.9630    0.7850 C   0  0  0  0  0  0  0  0  0  0  0  0
    3.1120   -1.7670   -0.2430 C   0  0  0  0  0  0  0  0  0  0  0  0
    3.8300   -0.4970   -0.1160 N   0  0  0  0  0  0  0  0  0  0  0  0
    5.2300   -0.4090   -0.0800 C   0  0  0  0  0  0  0  0  0  0  0  0
    5.9310   -0.2350   -1.3760 C   0  0  0  0  0  0  0  0  0  0  0  0
    5.6800   -1.3630   -2.3520 C   0  0  0  0  0  0  0  0  0  0  0  0
    6.1010   -2.5860   -1.8510 O   0  0  0  0  0  0  0  0  0  0  0  0
    5.9030   -3.5750   -2.6570 O   0  0  0  0  0  0  0  0  0  0  0  0
    3.1010    0.7320   -0.0180 C   0  0  0  0  0  0  0  0  0  0  0  0
    3.7600    1.8140   -0.2000 O   0  0  0  0  0  0  0  0  0  0  0  0
    1.6740    0.9570    0.2660 N   0  0  0  0  0  0  0  0  0  0  0  0
    1.5440    2.2530    0.8960 C   0  0  0  0  0  0  0  0  0  0  0  0
    1.2550    3.3970   -0.0250 C   0  0  2  0  0  0  0  0  0  0  0  0
    2.0390    4.5880    0.2370 N   0  0  0  0  0  0  0  0  0  0  0  0
    3.0290    5.1010   -0.6410 C   0  0  0  0  0  0  0  0  0  0  0  0
    3.2240    4.4680   -1.7090 O   0  0  0  0  0  0  0  0  0  0  0  0
    3.7850    6.2330   -0.4130 O   0  0  0  0  0  0  0  0  0  0  0  0
   -0.1970    3.6810   -0.2320 C   0  0  0  0  0  0  0  0  0  0  0  0
   -0.9080    4.4050    0.8300 C   0  0  0  0  0  0  0  0  0  0  0  0
   -2.1380    3.6390    1.3220 C   0  0  0  0  0  0  0  0  0  0  0  0
   -2.7700    2.9850    0.2670 O   0  0  0  0  0  0  0  0  0  0  0  0
   -3.8410    2.2730    0.8050 C   0  0  0  0  0  0  0  0  0  0  0  0
   -3.8430    0.8210    0.3650 C   0  0  0  0  0  0  0  0  0  0  0  0
   -5.2150    0.3550    0.2930 N   0  0  0  0  0  0  0  0  0  0  0  0
   -5.5920   -0.9200   -0.1840 C   0  0  0  0  0  0  0  0  0  0  0  0
   -6.6950   -1.0090   -0.8210 O   0  0  0  0  0  0  0  0  0  0  0  0
   -4.8020   -2.1350    0.0050 C   0  0  0  0  0  0  0  0  0  0  0  0
   -3.6470   -2.0840    0.5780 O   0  0  0  0  0  0  0  0  0  0  0  0
   -3.1560   -3.2890    0.6230 N   0  0  0  0  0  0  0  0  0  0  0  0
   -3.9830   -4.1790    0.0750 C   0  0  0  0  0  0  0  0  0  0  0  0
   -3.8600   -5.4180   -0.0660 O   0  0  0  0  0  0  0  0  0  0  0  0
   -5.0970   -3.4470   -0.3510 C   0  0  0  0  0  0  0  0  0  0  0  0
   -6.2560   -3.9510   -0.9980 N   0  0  0  0  0  0  0  0  0  0  0  0
   -7.3410   -4.3730   -0.1930 C   0  0  0  0  0  0  0  0  0  0  0  0
   -7.3440   -4.3290    1.0590 O   0  0  0  0  0  0  0  0  0  0  0  0
   -1.8340   -3.4990    1.2360 C   0  0  0  0  0  0  0  0  0  0  0  0
   -0.7960   -3.3530    0.1930 C   0  0  0  0  0  0  0  0  0  0  0  0
   -0.5330   -4.3980   -0.4640 O   0  0  0  0  0  0  0  0  0  0  0  0
   -0.1720   -2.1940   -0.0450 O   0  0  0  0  0  0  0  0  0  0  0  0
    0.7170   -0.0170   -0.0440 C   0  0  0  0  0  0  0  0  0  0  0  0
   -0.2540    0.0710   -0.8800 O   0  0  0  0  0  0  0  0  0  0  0  0
  2  1  1  1
  2  3  1  0
  2 41  1  0
  2 42  1  0
  3  4  1  0
  4  5  1  0
  5  6  1  0
  5 11  1  0
  6  7  1  0
  7  8  1  0
  8  9  1  0
  9 10  1  0
 11 12  2  0
 11 13  1  0
 13 14  1  0
 13 42  1  0
 14 15  1  0
 15 16  1  1
 15 20  1  0
 16 17  1  0
 17 18  2  0
 17 19  1  0
 20 21  1  0
 21 22  1  0
 22 23  1  0
 23 24  1  0
 24 25  1  0
 25 26  1  0
 26 27  1  0
 27 28  2  0
 27 29  1  0
 29 30  1  0
 29 34  2  0
 30 31  1  0
 31 32  1  0
 31 38  1  0
 32 33  2  0
 32 34  1  0
 34 35  1  0
 35 36  1  0
 36 37  2  0
 38 39  1  0
 39 40  2  0
 39 41  1  0
 42 43  2  0
M  END
