
     RDKit          3D

 43 45  0  0  0  0  0  0  0  0999 V2000
   -6.9600   -1.8070    1.1040 C   0  0  0  0  0  0  0  0  0  0  0  0
   -5.7720   -2.4450    1.8310 C   0  0  0  0  0  0  0  0  0  0  0  0
   -4.6160   -2.2700    0.9730 N   0  0  0  0  0  0  0  0  0  0  0  0
   -4.1670   -3.2110   -0.0640 C   0  0  0  0  0  0  0  0  0  0  0  0
   -3.6120   -2.2880   -1.1030 C   0  0  0  0  0  0  0  0  0  0  0  0
   -3.0410   -1.2070   -0.3470 N   0  0  0  0  0  0  0  0  0  0  0  0
   -2.0760   -0.3520   -0.7690 O   0  0  0  0  0  0  0  0  0  0  0  0
   -0.8060   -0.2350   -0.1210 C   0  0  0  0  0  0  0  0  0  0  0  0
   -0.7080   -1.0020    0.8550 O   0  0  0  0  0  0  0  0  0  0  0  0
    0.1370    0.6650   -0.6120 N   0  0  0  0  0  0  0  0  0  0  0  0
   -0.2760    1.4610   -1.7570 C   0  0  0  0  0  0  0  0  0  0  0  0
    0.6190    1.1680   -2.9390 C   0  0  0  0  0  0  0  0  0  0  0  0
    2.0070    1.1570   -2.5080 N   0  0  0  0  0  0  0  0  0  0  0  0
    2.3730    0.6340   -1.2370 C   0  0  0  0  0  0  0  0  0  0  0  0
    3.4310   -0.0080   -1.1860 O   0  0  0  0  0  0  0  0  0  0  0  0
    1.4390    0.9140   -0.1060 C   0  0  1  0  0  0  0  0  0  0  0  0
    1.6380    2.3830    0.2370 C   0  0  0  0  0  0  0  0  0  0  0  0
    2.7580    2.9020    0.1650 O   0  0  0  0  0  0  0  0  0  0  0  0
    0.4680    3.0830    0.6370 N   0  0  0  0  0  0  0  0  0  0  0  0
    0.4400    4.4520    0.9800 C   0  0  0  0  0  0  0  0  0  0  0  0
    1.4160    5.3270    0.6290 C   0  0  0  0  0  0  0  0  0  0  0  0
    1.3140    6.6580    1.0410 C   0  0  0  0  0  0  0  0  0  0  0  0
    0.2300    7.0510    1.7900 C   0  0  0  0  0  0  0  0  0  0  0  0
   -0.7590    6.1480    2.1410 C   0  0  0  0  0  0  0  0  0  0  0  0
   -0.6690    4.8520    1.7460 C   0  0  0  0  0  0  0  0  0  0  0  0
    1.8560    0.2080    1.1480 C   0  0  2  0  0  0  0  0  0  0  0  0
    3.2060    0.7270    1.5410 C   0  0  0  0  0  0  0  0  0  0  0  0
    3.3020    1.5790    2.4930 O   0  0  0  0  0  0  0  0  0  0  0  0
    4.3970    0.3730    0.9670 O   0  0  0  0  0  0  0  0  0  0  0  0
    5.6530    0.8750    1.3540 C   0  0  0  0  0  0  0  0  0  0  0  0
    1.9070   -1.2660    1.0760 C   0  0  0  0  0  0  0  0  0  0  0  0
    1.7820   -1.9300    2.1310 O   0  0  0  0  0  0  0  0  0  0  0  0
    2.0920   -1.9360   -0.1040 O   0  0  0  0  0  0  0  0  0  0  0  0
    2.1520   -3.3170   -0.2170 C   0  0  0  0  0  0  0  0  0  0  0  0
    2.0340   -4.0150    0.8010 O   0  0  0  0  0  0  0  0  0  0  0  0
    2.3550   -3.9720   -1.5210 C   0  0  0  0  0  0  0  0  0  0  0  0
    2.4820   -3.3080   -2.5840 O   0  0  0  0  0  0  0  0  0  0  0  0
    2.4170   -5.3820   -1.6390 N   0  0  0  0  0  0  0  0  0  0  0  0
    2.6110   -6.0700   -2.8640 C   0  0  0  0  0  0  0  0  0  0  0  0
    2.7370   -5.4100   -3.9240 O   0  0  0  0  0  0  0  0  0  0  0  0
    2.6650   -7.4620   -2.9200 O   0  0  0  0  0  0  0  0  0  0  0  0
   -3.6720   -1.2020    0.9150 C   0  0  0  0  0  0  0  0  0  0  0  0
   -3.4670   -0.4020    1.8730 O   0  0  0  0  0  0  0  0  0  0  0  0
  1  2  1  0
  2  3  1  0
  3  4  1  0
  3 42  1  0
  4  5  1  0
  5  6  1  0
  6  7  1  0
  6 42  1  0
  7  8  1  0
  8  9  2  0
  8 10  1  0
 10 11  1  0
 10 16  1  0
 11 12  1  0
 12 13  1  0
 13 14  1  0
 14 15  2  0
 14 16  1  0
 16 17  1  1
 16 26  1  0
 17 18  2  0
 17 19  1  0
 19 20  1  0
 20 21  2  0
 20 25  1  0
 21 22  1  0
 22 23  2  0
 23 24  1  0
 24 25  2  0
 26 27  1  6
 26 31  1  0
 27 28  2  0
 27 29  1  0
 29 30  1  0
 31 32  2  0
 31 33  1  0
 33 34  1  0
 34 35  2  0
 34 36  1  0
 36 37  2  0
 36 38  1  0
 38 39  1  0
 39 40  2  0
 39 41  1  0
 42 43  2  0
M  END
