
     RDKit          3D

 43 47  0  0  0  0  0  0  0  0999 V2000
    1.2440   -0.9470   -3.8680 O   0  0  0  0  0  0  0  0  0  0  0  0
    1.0110   -0.8370   -2.5670 C   0  0  0  0  0  0  0  0  0  0  0  0
    1.0070    0.4760   -2.1270 N   0  0  0  0  0  0  0  0  0  0  0  0
    1.2320    1.1830   -0.9460 C   0  0  0  0  0  0  0  0  0  0  0  0
    1.3520    0.6010    0.3650 C   0  0  1  0  0  0  0  0  0  0  0  0
    2.5180   -0.3330    0.3630 C   0  0  0  0  0  0  0  0  0  0  0  0
    3.6080    0.0340   -0.3550 O   0  0  0  0  0  0  0  0  0  0  0  0
    4.6130    0.8980   -0.3390 C   0  0  0  0  0  0  0  0  0  0  0  0
    4.7240    1.6960    0.6180 O   0  0  0  0  0  0  0  0  0  0  0  0
    5.6660    0.9900   -1.4270 C   0  0  2  0  0  0  0  0  0  0  0  0
    6.5360   -0.2420   -1.4180 C   0  0  0  0  0  0  0  0  0  0  0  0
    7.6270    0.0840   -0.6390 O   0  0  0  0  0  0  0  0  0  0  0  0
    7.5810    1.4280   -0.3610 C   0  0  0  0  0  0  0  0  0  0  0  0
    6.5570    1.9970   -1.0860 O   0  0  0  0  0  0  0  0  0  0  0  0
    1.7870    1.7140    1.3850 C   0  0  0  0  0  0  0  0  0  0  0  0
    2.3120    1.0060    2.4400 O   0  0  0  0  0  0  0  0  0  0  0  0
    1.3680    0.2080    3.0890 C   0  0  0  0  0  0  0  0  0  0  0  0
    0.6570   -0.7630    2.1440 C   0  0  0  0  0  0  0  0  0  0  0  0
    0.1780    0.1190    1.0700 N   0  0  0  0  0  0  0  0  0  0  0  0
   -1.1580    0.3500    0.9870 C   0  0  0  0  0  0  0  0  0  0  0  0
   -1.7510    0.2460    2.1950 O   0  0  0  0  0  0  0  0  0  0  0  0
   -2.2560    0.6780    0.1070 C   0  0  2  0  0  0  0  0  0  0  0  0
   -3.5690    0.0220    0.4880 C   0  0  0  0  0  0  0  0  0  0  0  0
   -4.7580    0.6710    0.2200 C   0  0  0  0  0  0  0  0  0  0  0  0
   -5.9690    0.0880    0.5740 C   0  0  0  0  0  0  0  0  0  0  0  0
   -5.9430   -1.1340    1.1890 C   0  0  0  0  0  0  0  0  0  0  0  0
   -7.1100   -1.8060    1.5860 O   0  0  0  0  0  0  0  0  0  0  0  0
   -7.5690   -1.5650    2.8220 O   0  0  0  0  0  0  0  0  0  0  0  0
   -6.6240   -1.1360    3.6190 O   0  0  0  0  0  0  0  0  0  0  0  0
   -6.5320    0.1740    3.6450 O   0  0  0  0  0  0  0  0  0  0  0  0
   -4.7360   -1.7640    1.4470 C   0  0  0  0  0  0  0  0  0  0  0  0
   -3.5400   -1.1880    1.0970 C   0  0  0  0  0  0  0  0  0  0  0  0
   -2.1500    0.7040   -1.3100 N   0  0  0  0  0  0  0  0  0  0  0  0
   -1.9880    1.8410   -2.0720 C   0  0  0  0  0  0  0  0  0  0  0  0
   -1.9660    1.5480   -3.3930 C   0  0  0  0  0  0  0  0  0  0  0  0
   -2.1130    0.2260   -3.4440 N   0  0  0  0  0  0  0  0  0  0  0  0
   -2.2280   -0.3080   -2.1750 C   0  0  0  0  0  0  0  0  0  0  0  0
   -2.4140   -1.6910   -1.9390 N   0  0  0  0  0  0  0  0  0  0  0  0
   -1.5990   -2.6060   -1.2420 C   0  0  0  0  0  0  0  0  0  0  0  0
   -2.1810   -3.5830   -0.5990 O   0  0  0  0  0  0  0  0  0  0  0  0
   -0.1540   -2.6230   -1.1320 C   0  0  0  0  0  0  0  0  0  0  0  0
    0.2950   -3.2540   -0.0890 O   0  0  0  0  0  0  0  0  0  0  0  0
    0.8280   -2.0770   -1.9550 N   0  0  0  0  0  0  0  0  0  0  0  0
  1  2  2  0
  2  3  1  0
  2 43  1  0
  3  4  1  0
  4  5  1  0
  5  6  1  6
  5 15  1  0
  5 19  1  0
  6  7  1  0
  7  8  1  0
  8  9  2  0
 10  8  1  1
 10 11  1  0
 10 14  1  0
 11 12  1  0
 12 13  1  0
 13 14  1  0
 15 16  1  0
 16 17  1  0
 17 18  1  0
 18 19  1  0
 19 20  1  0
 20 21  2  0
 20 22  1  0
 22 23  1  6
 22 33  1  0
 23 24  2  0
 23 32  1  0
 24 25  1  0
 25 26  2  0
 26 27  1  0
 26 31  1  0
 27 28  1  0
 28 29  1  0
 29 30  1  0
 31 32  2  0
 33 34  1  0
 33 37  1  0
 34 35  2  0
 35 36  1  0
 36 37  2  0
 37 38  1  0
 38 39  1  0
 39 40  2  0
 39 41  1  0
 41 42  2  0
 41 43  1  0
M  END
