
     RDKit          3D

 36 40  0  0  0  0  0  0  0  0999 V2000
   -3.7290   -0.8960   -0.2200 C   0  0  0  0  0  0  0  0  0  0  0  0
   -3.1330   -2.2440   -0.0050 C   0  0  0  0  0  0  0  0  0  0  0  0
   -1.6100   -2.2310    0.0380 C   0  0  1  0  0  0  0  0  0  0  0  0
   -1.1410   -3.6450    0.2600 C   0  0  0  0  0  0  0  0  0  0  0  0
   -0.5690   -4.3090   -0.9380 C   0  0  0  0  0  0  0  0  0  0  0  0
   -1.5140   -4.1690   -2.0630 C   0  0  0  0  0  0  0  0  0  0  0  0
   -2.0280   -5.3630   -2.4970 C   0  0  0  0  0  0  0  0  0  0  0  0
   -2.9310   -5.4020   -3.5480 C   0  0  0  0  0  0  0  0  0  0  0  0
   -3.2770   -4.1950   -4.1190 C   0  0  0  0  0  0  0  0  0  0  0  0
   -2.7650   -3.0210   -3.6820 N   0  0  0  0  0  0  0  0  0  0  0  0
   -1.8920   -2.9910   -2.6660 C   0  0  0  0  0  0  0  0  0  0  0  0
   -1.4300   -1.5990   -2.3180 C   0  0  0  0  0  0  0  0  0  0  0  0
   -1.0300   -1.5380   -1.0110 N   0  0  0  0  0  0  0  0  0  0  0  0
    0.1530   -0.8830   -0.6090 C   0  0  1  0  0  0  0  0  0  0  0  0
    0.2680    0.4540   -1.2880 C   0  0  0  0  0  0  0  0  0  0  0  0
    1.2810    1.0620   -1.8860 C   0  0  0  0  0  0  0  0  0  0  0  0
    1.1320    2.2760   -2.4260 C   0  0  0  0  0  0  0  0  0  0  0  0
   -0.1030    2.8800   -2.3470 C   0  0  0  0  0  0  0  0  0  0  0  0
   -0.6470    4.1570   -2.7990 C   0  0  1  0  0  0  0  0  0  0  0  0
   -1.9310    4.5320   -2.0730 C   0  0  0  0  0  0  0  0  0  0  0  0
    0.3070    5.2100   -2.4800 N   0  0  0  0  0  0  0  0  0  0  0  0
   -1.0340    1.5750   -1.4370 S   0  0  0  0  0  0  0  0  0  0  0  0
   -0.1300   -0.6000    0.7810 N   0  0  0  0  0  0  0  0  0  0  0  0
    0.5820    0.4250    1.5170 C   0  0  0  0  0  0  0  0  0  0  0  0
    1.7640   -0.2080    2.1610 C   0  0  0  0  0  0  0  0  0  0  0  0
    2.0310   -1.5440    2.0220 C   0  0  0  0  0  0  0  0  0  0  0  0
    3.1300   -2.0890    2.6350 C   0  0  0  0  0  0  0  0  0  0  0  0
    3.9650   -1.3080    3.3860 C   0  0  0  0  0  0  0  0  0  0  0  0
    3.6950    0.0440    3.5260 C   0  0  0  0  0  0  0  0  0  0  0  0
    2.6100    0.6210    2.9310 C   0  0  0  0  0  0  0  0  0  0  0  0
    2.3000    1.9590    3.0400 O   0  0  0  0  0  0  0  0  0  0  0  0
    3.0140    2.9260    3.7540 C   0  0  1  0  0  0  0  0  0  0  0  0
    3.4930    4.0590    2.8640 C   0  0  0  0  0  0  0  0  0  0  0  0
    2.1550    3.5550    4.8490 C   0  0  0  0  0  0  0  0  0  0  0  0
   -1.1610   -1.4520    1.2120 C   0  0  0  0  0  0  0  0  0  0  0  0
   -1.5910   -1.5050    2.4010 O   0  0  0  0  0  0  0  0  0  0  0  0
  1  2  1  0
  3  2  1  6
  3  4  1  0
  3 13  1  0
  3 35  1  0
  4  5  1  0
  5  6  1  0
  6  7  2  0
  6 11  1  0
  7  8  1  0
  8  9  2  0
  9 10  1  0
 10 11  2  0
 11 12  1  0
 12 13  1  0
 13 14  1  0
 14 15  1  6
 14 23  1  0
 15 16  2  0
 15 22  1  0
 16 17  1  0
 17 18  2  0
 18 19  1  0
 18 22  1  0
 19 20  1  1
 19 21  1  0
 23 24  1  0
 23 35  1  0
 24 25  1  0
 25 26  2  0
 25 30  1  0
 26 27  1  0
 27 28  2  0
 28 29  1  0
 29 30  2  0
 30 31  1  0
 31 32  1  0
 32 33  1  6
 32 34  1  0
 35 36  2  0
M  CHG  1  21   1
M  END
