
     RDKit          3D

 36 40  0  0  0  0  0  0  0  0999 V2000
    9.8290    1.9890   -0.9610 C   0  0  0  0  0  0  0  0  0  0  0  0
    8.4780    1.3790   -0.7600 C   0  0  0  0  0  0  0  0  0  0  0  0
    7.4230    2.4230   -0.7490 C   0  0  0  0  0  0  0  0  0  0  0  0
    7.7480    3.6180   -0.8950 O   0  0  0  0  0  0  0  0  0  0  0  0
    6.0300    2.0510   -0.5700 C   0  0  0  0  0  0  0  0  0  0  0  0
    5.0570    3.0150   -0.5560 C   0  0  0  0  0  0  0  0  0  0  0  0
    3.7210    2.7070   -0.3890 C   0  0  0  0  0  0  0  0  0  0  0  0
    3.3450    1.3920   -0.2300 C   0  0  0  0  0  0  0  0  0  0  0  0
    2.0430    1.0540   -0.0630 N   0  0  0  0  0  0  0  0  0  0  0  0
    1.6450   -0.2320    0.0950 C   0  0  0  0  0  0  0  0  0  0  0  0
    0.3800   -0.8380    0.2820 C   0  0  0  0  0  0  0  0  0  0  0  0
   -0.7890   -0.0280    0.3130 C   0  0  0  0  0  0  0  0  0  0  0  0
   -2.1030   -0.4550    0.4490 N   0  0  2  0  0  0  0  0  0  0  0  0
   -2.7860   -0.4320   -0.8370 C   0  0  0  0  0  0  0  0  0  0  0  0
   -3.7370    0.6690   -1.0670 C   0  0  1  0  0  0  0  0  0  0  0  0
   -3.7020    1.0130   -2.5560 C   0  0  0  0  0  0  0  0  0  0  0  0
   -5.0890    1.3530   -2.9750 C   0  0  0  0  0  0  0  0  0  0  0  0
   -5.9150    0.4080   -2.1340 C   0  0  0  0  0  0  0  0  0  0  0  0
   -5.1580    0.2120   -0.8450 C   0  0  0  0  0  0  0  0  0  0  0  0
   -3.4740    1.9450   -0.3390 C   0  0  0  0  0  0  0  0  0  0  0  0
   -2.9380    1.7770    1.0410 C   0  0  0  0  0  0  0  0  0  0  0  0
   -2.9110    0.3300    1.3850 C   0  0  2  0  0  0  0  0  0  0  0  0
   -2.4900    0.0720    2.8120 C   0  0  0  0  0  0  0  0  0  0  0  0
   -3.5280    1.0750    3.9160 S   0  0  0  0  0  0  0  0  0  0  0  0
   -5.2540    0.4910    3.8290 C   0  0  0  0  0  0  0  0  0  0  0  0
    0.6170   -2.1580    0.3800 C   0  0  0  0  0  0  0  0  0  0  0  0
   -0.1760   -3.3440    0.6230 C   0  0  2  0  0  0  0  0  0  0  0  0
   -0.8290   -3.2640    1.9880 C   0  0  0  0  0  0  0  0  0  0  0  0
    0.7860   -4.5500    0.7660 C   0  0  0  0  0  0  0  0  0  0  0  0
   -1.1310   -3.7930   -0.4130 C   0  0  0  0  0  0  0  0  0  0  0  0
    1.9800   -2.2980    0.2490 N   0  0  0  0  0  0  0  0  0  0  0  0
    2.5630   -1.1590    0.0840 N   0  0  0  0  0  0  0  0  0  0  0  0
    3.8940   -0.8910   -0.0790 C   0  0  0  0  0  0  0  0  0  0  0  0
    4.7210   -1.8310   -0.0800 O   0  0  0  0  0  0  0  0  0  0  0  0
    4.3090    0.3980   -0.2400 C   0  0  0  0  0  0  0  0  0  0  0  0
    5.6390    0.7450   -0.4100 C   0  0  0  0  0  0  0  0  0  0  0  0
  1  2  1  0
  2  3  1  0
  3  4  2  0
  3  5  1  0
  5  6  2  0
  5 36  1  0
  6  7  1  0
  7  8  2  0
  8  9  1  0
  8 35  1  0
  9 10  1  0
 10 11  2  0
 10 32  1  0
 11 12  1  0
 11 26  1  0
 13 12  1  6
 13 14  1  0
 13 22  1  0
 15 14  1  6
 15 16  1  0
 15 19  1  0
 15 20  1  0
 16 17  1  0
 17 18  1  0
 18 19  1  0
 20 21  1  0
 21 22  1  0
 22 23  1  1
 23 24  1  0
 24 25  1  0
 26 27  1  0
 26 31  2  0
 27 28  1  1
 27 29  1  0
 27 30  1  0
 31 32  1  0
 32 33  1  0
 33 34  2  0
 33 35  1  0
 35 36  2  0
M  CHG  1  13   1
M  END
