
     RDKit          3D

 36 39  0  0  0  0  0  0  0  0999 V2000
   -3.4440    2.7220   -3.4680 O   0  0  0  0  0  0  0  0  0  0  0  0
   -2.6440    2.8180   -2.4670 C   0  0  0  0  0  0  0  0  0  0  0  0
   -1.3840    3.5830   -2.7090 C   0  0  0  0  0  0  0  0  0  0  0  0
   -0.3060    3.2640   -1.7830 N   0  0  0  0  0  0  0  0  0  0  0  0
   -0.2480    4.2240   -0.7910 C   0  0  0  0  0  0  0  0  0  0  0  0
   -1.4090    5.5810   -0.7760 Cl  0  0  0  0  0  0  0  0  0  0  0  0
    0.6660    4.2170    0.2360 C   0  0  0  0  0  0  0  0  0  0  0  0
    1.4930    3.2060    0.1980 N   0  0  0  0  0  0  0  0  0  0  0  0
    1.5010    2.1950   -0.7660 C   0  0  0  0  0  0  0  0  0  0  0  0
    0.5730    2.2410   -1.7720 C   0  0  0  0  0  0  0  0  0  0  0  0
    0.5370    1.2930   -2.7240 O   0  0  0  0  0  0  0  0  0  0  0  0
    2.5710    1.3210   -0.4140 N   0  0  0  0  0  0  0  0  0  0  0  0
    2.6130   -0.0940   -0.1490 C   0  0  1  0  0  0  0  0  0  0  0  0
    3.4560   -0.4750    1.0490 C   0  0  0  0  0  0  0  0  0  0  0  0
    4.8680   -0.0600    0.8830 C   0  0  0  0  0  0  0  0  0  0  0  0
    5.7840   -0.8940    0.2630 C   0  0  0  0  0  0  0  0  0  0  0  0
    7.1060   -0.5530    0.0980 C   0  0  0  0  0  0  0  0  0  0  0  0
    7.5570    0.6640    0.5630 C   0  0  0  0  0  0  0  0  0  0  0  0
    6.6600    1.5030    1.1810 C   0  0  0  0  0  0  0  0  0  0  0  0
    5.3310    1.1540    1.3440 C   0  0  0  0  0  0  0  0  0  0  0  0
    1.2130   -0.6160   -0.0470 C   0  0  0  0  0  0  0  0  0  0  0  0
    1.0970   -1.8400    0.7220 N   0  0  0  0  0  0  0  0  0  0  0  0
   -0.2870   -2.2720    0.7160 C   0  0  0  0  0  0  0  0  0  0  0  0
   -0.4120   -3.7750    0.5800 C   0  0  0  0  0  0  0  0  0  0  0  0
   -1.6610   -4.0330   -0.2370 C   0  0  0  0  0  0  0  0  0  0  0  0
   -2.7790   -3.2520    0.2350 N   0  0  0  0  0  0  0  0  0  0  0  0
   -3.6080   -2.8510   -0.8750 C   0  0  0  0  0  0  0  0  0  0  0  0
   -3.6220   -1.3420   -1.0730 C   0  0  0  0  0  0  0  0  0  0  0  0
   -3.7630   -0.6090    0.2070 C   0  0  0  0  0  0  0  0  0  0  0  0
   -4.5850   -1.1950    1.1740 C   0  0  0  0  0  0  0  0  0  0  0  0
   -4.8040   -0.6250    2.4040 C   0  0  0  0  0  0  0  0  0  0  0  0
   -4.1950    0.5810    2.7190 C   0  0  0  0  0  0  0  0  0  0  0  0
   -3.3810    1.1550    1.7520 C   0  0  0  0  0  0  0  0  0  0  0  0
   -3.1660    0.5760    0.5180 C   0  0  0  0  0  0  0  0  0  0  0  0
   -2.2620    1.2990   -0.4530 C   0  0  0  0  0  0  0  0  0  0  0  0
   -3.0230    2.2070   -1.2710 N   0  0  0  0  0  0  0  0  0  0  0  0
  1  2  2  0
  2  3  1  0
  2 36  1  0
  3  4  1  0
  4  5  1  0
  4 10  1  0
  5  6  1  0
  5  7  2  0
  7  8  1  0
  8  9  2  0
  9 10  1  0
  9 12  1  0
 10 11  2  0
 12 13  1  0
 13 14  1  1
 13 21  1  0
 14 15  1  0
 15 16  2  0
 15 20  1  0
 16 17  1  0
 17 18  2  0
 18 19  1  0
 19 20  2  0
 21 22  1  0
 22 23  1  0
 23 24  1  0
 24 25  1  0
 25 26  1  0
 26 27  1  0
 27 28  1  0
 28 29  1  0
 29 30  2  0
 29 34  1  0
 30 31  1  0
 31 32  2  0
 32 33  1  0
 33 34  2  0
 34 35  1  0
 35 36  1  0
M  CHG  2  22   1  26   1
M  END
