
     RDKit          3D

 36 40  0  0  0  0  0  0  0  0999 V2000
   -3.8940   -5.1990    1.1690 C   0  0  0  0  0  0  0  0  0  0  0  0
   -2.7120   -4.6370    1.9220 C   0  0  0  0  0  0  0  0  0  0  0  0
   -1.9400   -3.6820    1.1800 N   0  0  0  0  0  0  0  0  0  0  0  0
   -2.6530   -3.3540   -0.0480 C   0  0  0  0  0  0  0  0  0  0  0  0
   -2.2480   -1.9690   -0.5130 C   0  0  0  0  0  0  0  0  0  0  0  0
   -1.0000   -1.7250   -0.9620 C   0  0  0  0  0  0  0  0  0  0  0  0
   -0.7380   -0.4240   -1.4680 C   0  0  0  0  0  0  0  0  0  0  0  0
    0.8800   -0.2520   -2.0490 S   0  0  1  0  0  0  0  0  0  0  0  0
    1.1900   -1.4810   -2.9420 O   0  0  0  0  0  0  0  0  0  0  0  0
    1.1040    0.9430   -2.9230 O   0  0  0  0  0  0  0  0  0  0  0  0
    2.0810   -0.1420   -0.7780 N   0  0  0  0  0  0  0  0  0  0  0  0
    1.9750   -1.4010    0.0200 C   0  0  0  0  0  0  0  0  0  0  0  0
    2.8940   -1.0890    1.2190 C   0  0  0  0  0  0  0  0  0  0  0  0
    4.3120   -1.1290    0.7760 C   0  0  1  0  0  0  0  0  0  0  0  0
    4.4540   -1.0110   -0.7120 C   0  0  1  0  0  0  0  0  0  0  0  0
    3.3720   -0.4020   -1.4830 C   0  0  0  0  0  0  0  0  0  0  0  0
    5.8170   -0.4080   -0.9040 C   0  0  0  0  0  0  0  0  0  0  0  0
    6.2980    0.0550    0.4550 C   0  0  2  0  0  0  0  0  0  0  0  0
    7.6560   -0.3840    0.9560 C   0  0  0  0  0  0  0  0  0  0  0  0
    5.2010   -0.1590    1.4350 C   0  0  1  0  0  0  0  0  0  0  0  0
    5.5710    1.1890    1.0470 C   0  0  1  0  0  0  0  0  0  0  0  0
    6.3960    1.9760    2.0650 C   0  0  0  0  0  0  0  0  0  0  0  0
    4.6960    2.0890    0.2050 C   0  0  0  0  0  0  0  0  0  0  0  0
   -1.7270    0.5050   -1.4690 C   0  0  0  0  0  0  0  0  0  0  0  0
   -1.4590    1.8750   -1.9920 C   0  0  0  0  0  0  0  0  0  0  0  0
   -3.0130    0.2260   -0.9880 C   0  0  0  0  0  0  0  0  0  0  0  0
   -4.1430    0.9640   -0.7810 C   0  0  0  0  0  0  0  0  0  0  0  0
   -4.4880    2.2620   -0.9830 N   0  0  0  0  0  0  0  0  0  0  0  0
   -4.3440    3.4260   -0.7190 C   0  0  0  0  0  0  0  0  0  0  0  0
   -3.3850    3.9700    0.2560 C   0  0  0  0  0  0  0  0  0  0  0  0
   -5.2760    4.4700   -1.3370 C   0  0  0  0  0  0  0  0  0  0  0  0
   -5.9390    5.2280   -0.2210 C   0  0  0  0  0  0  0  0  0  0  0  0
   -5.0810    0.0620   -0.1640 C   0  0  0  0  0  0  0  0  0  0  0  0
   -6.4670    0.3990    0.2920 C   0  0  0  0  0  0  0  0  0  0  0  0
   -4.4890   -1.0800   -0.0430 N   0  0  0  0  0  0  0  0  0  0  0  0
   -3.2600   -1.0400   -0.5110 C   0  0  0  0  0  0  0  0  0  0  0  0
  1  2  1  0
  2  3  1  0
  3  4  1  0
  4  5  1  0
  5  6  2  0
  5 36  1  0
  6  7  1  0
  7  8  1  0
  7 24  2  0
  8  9  2  0
  8 10  2  0
  8 11  1  1
 11 12  1  0
 11 16  1  0
 12 13  1  0
 14 13  1  6
 14 15  1  0
 14 20  1  0
 15 16  1  1
 15 17  1  0
 17 18  1  0
 18 19  1  1
 18 20  1  0
 18 21  1  0
 20 21  1  6
 21 22  1  1
 21 23  1  0
 24 25  1  0
 24 26  1  0
 26 27  1  0
 26 36  2  0
 27 28  1  0
 27 33  2  0
 28 29  2  3
 29 30  1  0
 29 31  1  0
 31 32  1  0
 33 34  1  0
 33 35  1  0
 35 36  1  0
M  CHG  1   3   1
M  END
