
     RDKit          3D

 36 40  0  0  0  0  0  0  0  0999 V2000
    3.0730   -1.0230   -4.2940 C   0  0  0  0  0  0  0  0  0  0  0  0
    3.6190   -1.3270   -3.0050 N   0  0  0  0  0  0  0  0  0  0  0  0
    3.5560   -2.6660   -2.4760 C   0  0  0  0  0  0  0  0  0  0  0  0
    4.2290   -0.3170   -2.2330 C   0  0  0  0  0  0  0  0  0  0  0  0
    5.5970   -0.0950   -2.4240 C   0  0  0  0  0  0  0  0  0  0  0  0
    6.2450    0.8790   -1.6800 C   0  0  0  0  0  0  0  0  0  0  0  0
    5.5010    1.5970   -0.7710 C   0  0  0  0  0  0  0  0  0  0  0  0
    4.1500    1.3840   -0.5760 C   0  0  0  0  0  0  0  0  0  0  0  0
    3.5180    0.4300   -1.3060 C   0  0  0  0  0  0  0  0  0  0  0  0
    3.5240    2.2490    0.4560 C   0  0  1  0  0  0  0  0  0  0  0  0
    2.1050    2.0160    0.6940 C   0  0  0  0  0  0  0  0  0  0  0  0
    1.1640    2.9240    0.2660 C   0  0  0  0  0  0  0  0  0  0  0  0
   -0.1840    2.7510    0.4610 C   0  0  0  0  0  0  0  0  0  0  0  0
   -0.6860    1.6100    1.1220 C   0  0  0  0  0  0  0  0  0  0  0  0
   -2.1240    1.4390    1.2590 C   0  0  0  0  0  0  0  0  0  0  0  0
   -2.8100    2.2720    0.5500 O   0  0  0  0  0  0  0  0  0  0  0  0
   -2.8560    0.5420    2.0100 N   0  0  0  0  0  0  0  0  0  0  0  0
   -2.4330   -0.4480    3.0040 C   0  0  0  0  0  0  0  0  0  0  0  0
   -3.5160   -0.2610    4.0890 C   0  0  0  0  0  0  0  0  0  0  0  0
   -4.7190    0.1210    3.3150 C   0  0  0  0  0  0  0  0  0  0  0  0
   -4.3280    0.3240    1.8920 C   0  0  2  0  0  0  0  0  0  0  0  0
   -4.4580   -0.9510    1.0970 C   0  0  0  0  0  0  0  0  0  0  0  0
   -4.5320   -2.1890    1.7460 C   0  0  0  0  0  0  0  0  0  0  0  0
   -4.5800   -3.3910    1.0830 C   0  0  0  0  0  0  0  0  0  0  0  0
   -4.6730   -4.9290    1.9800 S   0  0  0  0  0  0  0  0  0  0  0  0
   -4.5580   -3.4110   -0.2740 C   0  0  0  0  0  0  0  0  0  0  0  0
   -4.4890   -2.2180   -0.9460 C   0  0  0  0  0  0  0  0  0  0  0  0
   -4.4400   -0.9960   -0.2770 C   0  0  0  0  0  0  0  0  0  0  0  0
   -4.4870    0.1820   -1.0500 N   0  0  0  0  0  0  0  0  0  0  0  0
   -4.1970    0.1590   -2.4250 C   0  0  0  0  0  0  0  0  0  0  0  0
   -3.1880   -0.4860   -2.9090 N   0  0  0  0  0  0  0  0  0  0  0  0
    0.2590    0.7080    1.5450 C   0  0  0  0  0  0  0  0  0  0  0  0
    1.6320    0.9070    1.3360 C   0  0  0  0  0  0  0  0  0  0  0  0
    4.3970    2.1400    1.6900 C   0  0  0  0  0  0  0  0  0  0  0  0
    5.6910    2.8840    1.3370 C   0  0  0  0  0  0  0  0  0  0  0  0
    6.1050    2.6030    0.0150 O   0  0  0  0  0  0  0  0  0  0  0  0
  1  2  1  0
  2  3  1  0
  2  4  1  0
  4  5  2  0
  4  9  1  0
  5  6  1  0
  6  7  2  0
  7  8  1  0
  7 36  1  0
  8  9  2  0
  8 10  1  0
 10 11  1  1
 10 34  1  0
 11 12  2  0
 11 33  1  0
 12 13  1  0
 13 14  2  0
 14 15  1  0
 14 32  1  0
 15 16  2  0
 15 17  1  0
 17 18  1  0
 17 21  1  0
 18 19  1  0
 19 20  1  0
 20 21  1  0
 21 22  1  6
 22 23  2  0
 22 28  1  0
 23 24  1  0
 24 25  1  0
 24 26  2  0
 26 27  1  0
 27 28  2  0
 28 29  1  0
 29 30  1  0
 30 31  2  0
 32 33  2  0
 34 35  1  0
 35 36  1  0
M  CHG  1  31   1
M  END
