
     RDKit          3D

 35 40  0  0  0  0  0  0  0  0999 V2000
   -3.6800   -0.8780    1.6660 C   0  0  0  0  0  0  0  0  0  0  0  0
   -3.8220   -1.1760    0.2170 C   0  0  2  0  0  0  0  0  0  0  0  0
   -3.2350   -2.6110    0.0370 C   0  0  0  0  0  0  0  0  0  0  0  0
   -3.2010   -0.2390   -0.7050 C   0  0  0  0  0  0  0  0  0  0  0  0
   -1.8100    0.0730   -0.8970 C   0  0  0  0  0  0  0  0  0  0  0  0
   -0.8440    0.5350    0.0760 C   0  0  1  0  0  0  0  0  0  0  0  0
   -0.4120   -0.3390    1.1990 C   0  0  0  0  0  0  0  0  0  0  0  0
    0.0120    0.5980    2.3280 C   0  0  0  0  0  0  0  0  0  0  0  0
    0.5730    1.8410    1.7310 C   0  0  0  0  0  0  0  0  0  0  0  0
    1.2630    1.6760    0.4690 N   0  0  0  0  0  0  0  0  0  0  0  0
    2.5660    1.1310    0.6230 C   0  0  0  0  0  0  0  0  0  0  0  0
    3.3860    1.0180   -0.5840 C   0  0  0  0  0  0  0  0  0  0  0  0
    3.1640    1.3710   -1.8530 N   0  0  0  0  0  0  0  0  0  0  0  0
    4.2470    1.0610   -2.5510 N   0  0  0  0  0  0  0  0  0  0  0  0
    5.1920    0.5120   -1.7970 C   0  0  0  0  0  0  0  0  0  0  0  0
    6.4750    0.0270   -2.0450 C   0  0  0  0  0  0  0  0  0  0  0  0
    7.2430   -0.5000   -1.0380 C   0  0  0  0  0  0  0  0  0  0  0  0
    6.7160   -0.5420    0.2410 C   0  0  0  0  0  0  0  0  0  0  0  0
    5.4470   -0.0610    0.4820 C   0  0  0  0  0  0  0  0  0  0  0  0
    4.6760    0.4670   -0.5260 C   0  0  0  0  0  0  0  0  0  0  0  0
    7.7330   -1.1530    1.1750 C   0  0  0  0  0  0  0  0  0  0  0  0
    9.0170   -0.8510    0.3990 C   0  0  0  0  0  0  0  0  0  0  0  0
   10.2410   -0.4960    0.6100 C   0  0  0  0  0  0  0  0  0  0  0  0
   11.1290   -0.3300   -0.5620 C   0  0  0  0  0  0  0  0  0  0  0  0
    9.8410   -0.0600   -1.8580 S   0  0  0  0  0  0  0  0  0  0  0  0
    8.5800   -1.0700   -0.9940 C   0  0  2  0  0  0  0  0  0  0  0  0
    0.4580    1.0550   -0.5540 C   0  0  0  0  0  0  0  0  0  0  0  0
   -5.2190   -1.4100   -0.1160 O   0  0  0  0  0  0  0  0  0  0  0  0
   -6.1550   -0.4200    0.1150 C   0  0  0  0  0  0  0  0  0  0  0  0
   -5.7510    0.6580    0.6150 O   0  0  0  0  0  0  0  0  0  0  0  0
   -7.5470   -0.6140   -0.2040 N   0  0  0  0  0  0  0  0  0  0  0  0
   -8.4880    0.4540    0.0570 C   0  0  0  0  0  0  0  0  0  0  0  0
   -9.8530   -0.0020   -0.3620 C   0  0  1  0  0  0  0  0  0  0  0  0
  -11.0500    0.8430   -0.2340 C   0  0  0  0  0  0  0  0  0  0  0  0
  -10.4080    0.7230   -1.5710 C   0  0  0  0  0  0  0  0  0  0  0  0
  2  1  1  1
  2  3  1  0
  2  4  1  0
  2 28  1  0
  4  5  1  0
  6  5  1  6
  6  7  1  0
  6 27  1  0
  7  8  1  0
  8  9  1  0
  9 10  1  0
 10 11  1  0
 10 27  1  0
 11 12  1  0
 12 13  2  0
 12 20  1  0
 13 14  1  0
 14 15  1  0
 15 16  2  0
 15 20  1  0
 16 17  1  0
 17 18  2  0
 17 26  1  0
 18 19  1  0
 18 21  1  0
 19 20  2  0
 21 22  1  0
 22 23  2  0
 22 26  1  0
 23 24  1  0
 24 25  1  0
 26 25  1  6
 28 29  1  0
 29 30  2  0
 29 31  1  0
 31 32  1  0
 33 32  1  1
 33 34  1  0
 33 35  1  0
 34 35  1  0
M  CHG  1  13   1
M  END
