
     RDKit          3D

 43 45  0  0  0  0  0  0  0  0999 V2000
    6.7700   -3.8940    0.3970 C   0  0  0  0  0  0  0  0  0  0  0  0
    6.2690   -3.9560   -1.0500 C   0  0  0  0  0  0  0  0  0  0  0  0
    5.6150   -2.7070   -1.3560 N   0  0  0  0  0  0  0  0  0  0  0  0
    6.2810   -1.5530   -1.9060 C   0  0  0  0  0  0  0  0  0  0  0  0
    5.2470   -0.4590   -2.0160 C   0  0  0  0  0  0  0  0  0  0  0  0
    4.1060   -0.9410   -1.2040 N   0  0  0  0  0  0  0  0  0  0  0  0
    3.2370   -0.0680   -0.6700 O   0  0  0  0  0  0  0  0  0  0  0  0
    1.9090   -0.2870   -0.2840 C   0  0  0  0  0  0  0  0  0  0  0  0
    1.5290   -1.4750   -0.4880 O   0  0  0  0  0  0  0  0  0  0  0  0
    1.1260    0.7210    0.2620 N   0  0  0  0  0  0  0  0  0  0  0  0
    1.6920    2.0320    0.4900 C   0  0  0  0  0  0  0  0  0  0  0  0
    1.6940    2.2510    1.9930 C   0  0  0  0  0  0  0  0  0  0  0  0
    0.9210    1.2980    2.7440 N   0  0  0  0  0  0  0  0  0  0  0  0
   -0.1100    0.4860    2.1710 C   0  0  0  0  0  0  0  0  0  0  0  0
   -0.8190   -0.2190    2.8610 O   0  0  0  0  0  0  0  0  0  0  0  0
   -0.2380    0.5740    0.7020 C   0  0  1  0  0  0  0  0  0  0  0  0
   -0.9750    1.8910    0.4650 C   0  0  0  0  0  0  0  0  0  0  0  0
   -0.9690    2.4050   -0.6640 O   0  0  0  0  0  0  0  0  0  0  0  0
   -1.6540    2.5130    1.5290 N   0  0  0  0  0  0  0  0  0  0  0  0
   -2.3810    3.7210    1.4230 C   0  0  0  0  0  0  0  0  0  0  0  0
   -2.7080    4.4070    2.6010 C   0  0  0  0  0  0  0  0  0  0  0  0
   -3.4200    5.5650    2.6460 C   0  0  0  0  0  0  0  0  0  0  0  0
   -3.8460    6.0980    1.4460 C   0  0  0  0  0  0  0  0  0  0  0  0
   -3.5420    5.4500    0.2710 C   0  0  0  0  0  0  0  0  0  0  0  0
   -2.8090    4.2590    0.2540 C   0  0  0  0  0  0  0  0  0  0  0  0
   -0.9890   -0.4980    0.0140 C   0  0  2  0  0  0  0  0  0  0  0  0
   -1.1150   -0.2570   -1.4520 C   0  0  0  0  0  0  0  0  0  0  0  0
   -2.2470   -0.4230   -2.0310 O   0  0  0  0  0  0  0  0  0  0  0  0
   -0.1060    0.1440   -2.2990 O   0  0  0  0  0  0  0  0  0  0  0  0
   -0.2890    0.3580   -3.6830 C   0  0  0  0  0  0  0  0  0  0  0  0
   -2.4020   -0.6740    0.5150 C   0  0  0  0  0  0  0  0  0  0  0  0
   -2.9140    0.0890    1.3350 O   0  0  0  0  0  0  0  0  0  0  0  0
   -3.1370   -1.7430    0.0200 O   0  0  0  0  0  0  0  0  0  0  0  0
   -4.4400   -1.9910    0.4150 C   0  0  0  0  0  0  0  0  0  0  0  0
   -4.9470   -1.1970    1.2520 O   0  0  0  0  0  0  0  0  0  0  0  0
   -5.2040   -3.1350   -0.1170 C   0  0  0  0  0  0  0  0  0  0  0  0
   -4.6260   -3.8810   -0.9540 O   0  0  0  0  0  0  0  0  0  0  0  0
   -6.5190   -3.4210    0.2630 N   0  0  0  0  0  0  0  0  0  0  0  0
   -7.2240   -4.5380   -0.2610 C   0  0  0  0  0  0  0  0  0  0  0  0
   -6.6540   -5.2750   -1.0870 O   0  0  0  0  0  0  0  0  0  0  0  0
   -8.5160   -4.8100    0.1310 O   0  0  0  0  0  0  0  0  0  0  0  0
    4.2460   -2.3460   -1.1930 C   0  0  0  0  0  0  0  0  0  0  0  0
    3.3210   -3.1750   -1.0630 O   0  0  0  0  0  0  0  0  0  0  0  0
  1  2  1  0
  2  3  1  0
  3  4  1  0
  3 42  1  0
  4  5  1  0
  5  6  1  0
  6  7  1  0
  6 42  1  0
  7  8  1  0
  8  9  2  0
  8 10  1  0
 10 11  1  0
 10 16  1  0
 11 12  1  0
 12 13  1  0
 13 14  1  0
 14 15  2  0
 14 16  1  0
 16 17  1  1
 16 26  1  0
 17 18  2  0
 17 19  1  0
 19 20  1  0
 20 21  2  0
 20 25  1  0
 21 22  1  0
 22 23  2  0
 23 24  1  0
 24 25  2  0
 26 27  1  6
 26 31  1  0
 27 28  2  0
 27 29  1  0
 29 30  1  0
 31 32  2  0
 31 33  1  0
 33 34  1  0
 34 35  2  0
 34 36  1  0
 36 37  2  0
 36 38  1  0
 38 39  1  0
 39 40  2  0
 39 41  1  0
 42 43  2  0
M  END
