
     RDKit          3D

 43 47  0  0  0  0  0  0  0  0999 V2000
    0.9940    0.4030    4.2630 O   0  0  0  0  0  0  0  0  0  0  0  0
    0.6770   -0.2400    3.1480 C   0  0  0  0  0  0  0  0  0  0  0  0
   -0.1790    0.5230    2.3320 N   0  0  0  0  0  0  0  0  0  0  0  0
   -0.0060    1.2450    1.1120 C   0  0  0  0  0  0  0  0  0  0  0  0
   -0.9990    0.9210    0.0140 C   0  0  1  0  0  0  0  0  0  0  0  0
   -2.1720    0.2600    0.6590 C   0  0  0  0  0  0  0  0  0  0  0  0
   -3.2990    0.1200   -0.1850 O   0  0  0  0  0  0  0  0  0  0  0  0
   -4.4740   -0.4610    0.2290 C   0  0  0  0  0  0  0  0  0  0  0  0
   -4.5280   -0.8770    1.4100 O   0  0  0  0  0  0  0  0  0  0  0  0
   -5.6650   -0.6200   -0.6350 C   0  0  2  0  0  0  0  0  0  0  0  0
   -6.2780    0.7110   -1.0030 C   0  0  0  0  0  0  0  0  0  0  0  0
   -7.0960    0.9620    0.0910 O   0  0  0  0  0  0  0  0  0  0  0  0
   -7.4590   -0.2470    0.6350 C   0  0  0  0  0  0  0  0  0  0  0  0
   -6.6670   -1.2310    0.0890 O   0  0  0  0  0  0  0  0  0  0  0  0
   -1.5740    2.2600   -0.5180 C   0  0  0  0  0  0  0  0  0  0  0  0
   -1.5000    2.3560   -1.8760 O   0  0  0  0  0  0  0  0  0  0  0  0
   -2.0670    1.2930   -2.5600 C   0  0  0  0  0  0  0  0  0  0  0  0
   -1.4620   -0.0370   -2.1570 C   0  0  0  0  0  0  0  0  0  0  0  0
   -0.4760    0.2550   -1.1210 N   0  0  0  0  0  0  0  0  0  0  0  0
    0.8360   -0.1580   -1.4270 C   0  0  0  0  0  0  0  0  0  0  0  0
    1.2450   -0.1250   -2.6530 O   0  0  0  0  0  0  0  0  0  0  0  0
    1.8850   -0.6580   -0.5170 C   0  0  2  0  0  0  0  0  0  0  0  0
    3.1180    0.1200   -0.4450 C   0  0  0  0  0  0  0  0  0  0  0  0
    3.9360   -0.0660    0.6600 C   0  0  0  0  0  0  0  0  0  0  0  0
    5.1080    0.6310    0.8090 C   0  0  0  0  0  0  0  0  0  0  0  0
    5.5130    1.5420   -0.1370 C   0  0  0  0  0  0  0  0  0  0  0  0
    6.7080    2.2270    0.0540 O   0  0  0  0  0  0  0  0  0  0  0  0
    7.1860    3.1230   -0.7900 O   0  0  0  0  0  0  0  0  0  0  0  0
    6.8740    4.3110   -0.3110 O   0  0  0  0  0  0  0  0  0  0  0  0
    6.5350    4.2330    0.9680 O   0  0  0  0  0  0  0  0  0  0  0  0
    4.7040    1.7210   -1.2210 C   0  0  0  0  0  0  0  0  0  0  0  0
    3.5240    1.0280   -1.3850 C   0  0  0  0  0  0  0  0  0  0  0  0
    2.2280   -2.0710   -0.9250 N   0  0  0  0  0  0  0  0  0  0  0  0
    3.3310   -2.4820   -1.5660 C   0  0  0  0  0  0  0  0  0  0  0  0
    3.2260   -3.8290   -1.7540 C   0  0  0  0  0  0  0  0  0  0  0  0
    2.0730   -4.1940   -1.2280 N   0  0  0  0  0  0  0  0  0  0  0  0
    1.4220   -3.0950   -0.6950 C   0  0  0  0  0  0  0  0  0  0  0  0
    0.1460   -3.0790   -0.0390 N   0  0  0  0  0  0  0  0  0  0  0  0
   -0.1850   -3.0260    1.3310 C   0  0  0  0  0  0  0  0  0  0  0  0
   -1.4470   -3.2750    1.6610 O   0  0  0  0  0  0  0  0  0  0  0  0
    0.6230   -2.7440    2.4990 C   0  0  0  0  0  0  0  0  0  0  0  0
    0.8080   -3.8300    3.2400 O   0  0  0  0  0  0  0  0  0  0  0  0
    1.2140   -1.5350    2.9440 N   0  0  0  0  0  0  0  0  0  0  0  0
  1  2  2  0
  2  3  1  0
  2 43  1  0
  3  4  1  0
  4  5  1  0
  5  6  1  1
  5 15  1  0
  5 19  1  0
  6  7  1  0
  7  8  1  0
  8  9  2  0
 10  8  1  1
 10 11  1  0
 10 14  1  0
 11 12  1  0
 12 13  1  0
 13 14  1  0
 15 16  1  0
 16 17  1  0
 17 18  1  0
 18 19  1  0
 19 20  1  0
 20 21  2  0
 20 22  1  0
 22 23  1  6
 22 33  1  0
 23 24  2  0
 23 32  1  0
 24 25  1  0
 25 26  2  0
 26 27  1  0
 26 31  1  0
 27 28  1  0
 28 29  1  0
 29 30  1  0
 31 32  2  0
 33 34  1  0
 33 37  1  0
 34 35  2  0
 35 36  1  0
 36 37  2  0
 37 38  1  0
 38 39  1  0
 39 40  2  0
 39 41  1  0
 41 42  2  0
 41 43  1  0
M  END
