
     RDKit          3D

 43 46  0  0  0  0  0  0  0  0999 V2000
    9.6980    1.8490    0.6780 C   0  0  0  0  0  0  0  0  0  0  0  0
    9.5820    0.3600    0.8840 C   0  0  0  0  0  0  0  0  0  0  0  0
    9.0080   -0.2630   -0.2680 O   0  0  0  0  0  0  0  0  0  0  0  0
    7.7230    0.0980   -0.7100 C   0  0  0  0  0  0  0  0  0  0  0  0
    7.0710    0.9670   -0.1020 O   0  0  0  0  0  0  0  0  0  0  0  0
    7.1570   -0.4960   -1.8190 O   0  0  0  0  0  0  0  0  0  0  0  0
    5.8930   -0.2140   -2.3440 C   0  0  0  0  0  0  0  0  0  0  0  0
    4.8050   -0.4610   -1.3580 C   0  0  0  0  0  0  0  0  0  0  0  0
    4.8750   -0.8730   -0.1500 O   0  0  0  0  0  0  0  0  0  0  0  0
    3.6610   -0.9580    0.3920 C   0  0  0  0  0  0  0  0  0  0  0  0
    3.4470   -1.3460    1.5820 N   0  0  0  0  0  0  0  0  0  0  0  0
    2.7340   -0.5810   -0.4980 N   0  0  0  0  0  0  0  0  0  0  0  0
    1.3780   -0.4780   -0.4820 C   0  0  0  0  0  0  0  0  0  0  0  0
    0.6520   -0.6250    0.5710 C   0  0  0  0  0  0  0  0  0  0  0  0
    0.8900   -0.9220    1.9420 C   0  0  0  0  0  0  0  0  0  0  0  0
    1.1590    0.0330    2.9340 C   0  0  0  0  0  0  0  0  0  0  0  0
    1.3170   -0.6020    4.0950 N   0  0  0  0  0  0  0  0  0  0  0  0
    1.1580   -1.9100    3.8590 C   0  0  0  0  0  0  0  0  0  0  0  0
    0.9100   -2.0810    2.6050 O   0  0  0  0  0  0  0  0  0  0  0  0
    0.7630   -0.0460   -1.6770 C   0  0  0  0  0  0  0  0  0  0  0  0
   -0.4910   -0.1420   -1.9900 C   0  0  0  0  0  0  0  0  0  0  0  0
   -1.6720   -0.6720   -1.3870 C   0  0  0  0  0  0  0  0  0  0  0  0
   -2.8730   -0.5610   -1.9590 C   0  0  0  0  0  0  0  0  0  0  0  0
   -4.0770   -1.0650   -1.4060 N   0  0  0  0  0  0  0  0  0  0  0  0
   -5.0610   -0.8130   -2.1820 C   0  0  0  0  0  0  0  0  0  0  0  0
   -6.4110   -1.1990   -1.8930 N   0  0  0  0  0  0  0  0  0  0  0  0
   -6.9480   -1.1450   -0.5590 C   0  0  2  0  0  0  0  0  0  0  0  0
   -6.8430    0.2930   -0.0590 C   0  0  0  0  0  0  0  0  0  0  0  0
   -7.3550    0.3520    1.2180 O   0  0  0  0  0  0  0  0  0  0  0  0
   -7.3080    1.6280    1.7490 C   0  0  0  0  0  0  0  0  0  0  0  0
   -5.9260    2.2060    1.8510 C   0  0  0  0  0  0  0  0  0  0  0  0
   -5.1390    1.3920    2.6730 O   0  0  0  0  0  0  0  0  0  0  0  0
   -3.9420    1.9350    2.7340 O   0  0  0  0  0  0  0  0  0  0  0  0
   -6.3110   -2.0760    0.3900 C   0  0  0  0  0  0  0  0  0  0  0  0
   -5.3910   -2.8540    0.0570 O   0  0  0  0  0  0  0  0  0  0  0  0
   -6.7440   -2.0940    1.7030 O   0  0  0  0  0  0  0  0  0  0  0  0
   -4.6400   -0.1300   -3.3120 O   0  0  0  0  0  0  0  0  0  0  0  0
   -3.2400    0.0520   -3.2060 C   0  0  0  0  0  0  0  0  0  0  0  0
   -2.5770    0.6390   -4.0820 O   0  0  0  0  0  0  0  0  0  0  0  0
    1.5900    0.2670   -2.7930 C   0  0  0  0  0  0  0  0  0  0  0  0
    1.0900    0.6800   -3.9130 N   0  0  0  0  0  0  0  0  0  0  0  0
    2.8730    0.1420   -2.7010 O   0  0  0  0  0  0  0  0  0  0  0  0
    3.4640   -0.2670   -1.6120 C   0  0  0  0  0  0  0  0  0  0  0  0
  1  2  1  0
  2  3  1  0
  3  4  1  0
  4  5  2  0
  4  6  1  0
  6  7  1  0
  7  8  1  0
  8  9  1  0
  8 43  2  0
  9 10  1  0
 10 11  2  0
 10 12  1  0
 12 13  1  0
 12 43  1  0
 13 14  2  3
 13 20  1  0
 14 15  1  0
 15 16  2  0
 15 19  1  0
 16 17  1  0
 17 18  2  0
 18 19  1  0
 20 21  2  3
 20 40  1  0
 21 22  1  0
 22 23  2  3
 23 24  1  0
 23 38  1  0
 24 25  2  0
 25 26  1  0
 25 37  1  0
 26 27  1  0
 27 28  1  1
 27 34  1  0
 28 29  1  0
 29 30  1  0
 30 31  1  0
 31 32  1  0
 32 33  1  0
 34 35  2  0
 34 36  1  0
 37 38  1  0
 38 39  2  0
 40 41  2  0
 40 42  1  0
 42 43  1  0
M  END
