
     RDKit          3D

 43 46  0  0  0  0  0  0  0  0999 V2000
    2.2530    5.7370    0.3890 C   0  0  0  0  0  0  0  0  0  0  0  0
    1.2050    5.2180    1.3330 C   0  0  0  0  0  0  0  0  0  0  0  0
    0.2110    4.4880    0.6260 O   0  0  0  0  0  0  0  0  0  0  0  0
    0.5890    3.3470   -0.1110 C   0  0  0  0  0  0  0  0  0  0  0  0
    1.8010    3.0620   -0.0840 O   0  0  0  0  0  0  0  0  0  0  0  0
   -0.2530    2.5920   -0.8070 O   0  0  0  0  0  0  0  0  0  0  0  0
   -0.2520    1.4810   -1.5820 C   0  0  0  0  0  0  0  0  0  0  0  0
    0.0720    0.1710   -0.9720 C   0  0  1  0  0  0  0  0  0  0  0  0
    1.3990   -0.0050   -0.3230 C   0  0  0  0  0  0  0  0  0  0  0  0
    2.5440    0.1830   -1.2660 C   0  0  0  0  0  0  0  0  0  0  0  0
    3.7650    0.0600   -0.6260 O   0  0  0  0  0  0  0  0  0  0  0  0
    3.9520   -1.1610   -0.0370 C   0  0  0  0  0  0  0  0  0  0  0  0
    5.3290   -1.1990    0.6080 C   0  0  0  0  0  0  0  0  0  0  0  0
    6.3310   -0.9920   -0.3950 O   0  0  0  0  0  0  0  0  0  0  0  0
    7.6830   -0.9770   -0.0650 C   0  0  0  0  0  0  0  0  0  0  0  0
    7.9720   -1.1480    1.1320 O   0  0  0  0  0  0  0  0  0  0  0  0
    8.7050   -0.7800   -1.0070 N   0  0  0  0  0  0  0  0  0  0  0  0
   10.1200   -0.7380   -0.7670 C   0  0  0  0  0  0  0  0  0  0  0  0
   10.4750    0.4030    0.1320 C   0  0  0  0  0  0  0  0  0  0  0  0
    9.9240    0.4180    1.3750 O   0  0  0  0  0  0  0  0  0  0  0  0
   -1.0520   -0.2320   -0.0170 C   0  0  0  0  0  0  0  0  0  0  0  0
   -2.1190   -0.7740   -0.8150 N   0  0  0  0  0  0  0  0  0  0  0  0
   -3.4630   -1.0690   -0.5840 C   0  0  0  0  0  0  0  0  0  0  0  0
   -4.1500   -1.5610   -1.5490 O   0  0  0  0  0  0  0  0  0  0  0  0
   -4.2060   -0.8920    0.6350 N   0  0  0  0  0  0  0  0  0  0  0  0
   -3.5590   -0.2950    1.7580 C   0  0  0  0  0  0  0  0  0  0  0  0
   -4.3330   -0.3300    3.0210 C   0  0  0  0  0  0  0  0  0  0  0  0
   -5.7120   -0.3030    2.8080 O   0  0  0  0  0  0  0  0  0  0  0  0
   -6.0230   -1.4830    2.1250 C   0  0  0  0  0  0  0  0  0  0  0  0
   -5.5880   -1.3220    0.6980 C   0  0  1  0  0  0  0  0  0  0  0  0
   -6.4990   -0.3450    0.0090 C   0  0  0  0  0  0  0  0  0  0  0  0
   -7.8480   -0.4740    0.4850 O   0  0  0  0  0  0  0  0  0  0  0  0
   -8.6730   -1.5420    0.1670 C   0  0  0  0  0  0  0  0  0  0  0  0
  -10.0400   -1.5980    0.2530 C   0  0  0  0  0  0  0  0  0  0  0  0
  -10.4100   -2.7920   -0.1480 O   0  0  0  0  0  0  0  0  0  0  0  0
   -9.3890   -3.5260   -0.4920 N   0  0  0  0  0  0  0  0  0  0  0  0
   -8.2870   -2.7900   -0.3120 C   0  0  0  0  0  0  0  0  0  0  0  0
   -6.9220   -3.1700   -0.5460 N   0  0  0  0  0  0  0  0  0  0  0  0
   -5.7530   -2.6630    0.0670 C   0  0  0  0  0  0  0  0  0  0  0  0
   -4.7820   -3.4300    0.0700 O   0  0  0  0  0  0  0  0  0  0  0  0
   -1.4890   -1.0210   -2.1080 C   0  0  0  0  0  0  0  0  0  0  0  0
   -2.0630   -1.2970   -3.1990 O   0  0  0  0  0  0  0  0  0  0  0  0
   -0.0830   -0.9070   -1.9770 N   0  0  0  0  0  0  0  0  0  0  0  0
  1  2  1  0
  2  3  1  0
  3  4  1  0
  4  5  2  0
  4  6  1  0
  6  7  1  0
  8  7  1  6
  8  9  1  0
  8 21  1  0
  8 43  1  0
  9 10  1  0
 10 11  1  0
 11 12  1  0
 12 13  1  0
 13 14  1  0
 14 15  1  0
 15 16  2  0
 15 17  1  0
 17 18  1  0
 18 19  1  0
 19 20  1  0
 21 22  1  0
 22 23  1  0
 22 41  1  0
 23 24  2  0
 23 25  1  0
 25 26  1  0
 25 30  1  0
 26 27  1  0
 27 28  1  0
 28 29  1  0
 30 29  1  1
 30 31  1  0
 30 39  1  0
 31 32  1  0
 32 33  1  0
 33 34  2  0
 33 37  1  0
 34 35  1  0
 35 36  1  0
 36 37  2  0
 37 38  1  0
 38 39  1  0
 39 40  2  0
 41 42  2  0
 41 43  1  0
M  END
