
     RDKit          3D

 44 48  0  0  0  0  0  0  0  0999 V2000
    4.2600   -0.6330    1.7300 C   0  0  0  0  0  0  0  0  0  0  0  0
    3.3230   -0.1870    0.6120 C   0  0  1  0  0  0  0  0  0  0  0  0
    4.3020    0.4410   -0.4070 C   0  0  0  0  0  0  0  0  0  0  0  0
    4.8530    1.6160    0.0950 O   0  0  0  0  0  0  0  0  0  0  0  0
    5.7540    2.3500   -0.6350 C   0  0  0  0  0  0  0  0  0  0  0  0
    6.0780    1.9450   -1.7730 O   0  0  0  0  0  0  0  0  0  0  0  0
    6.2970    3.5320   -0.1070 O   0  0  0  0  0  0  0  0  0  0  0  0
    2.9130   -1.5090   -0.0550 C   0  0  0  0  0  0  0  0  0  0  0  0
    1.6330   -2.0230    0.5080 C   0  0  0  0  0  0  0  0  0  0  0  0
    0.8090   -2.7660   -0.4370 N   0  0  0  0  0  0  0  0  0  0  0  0
    1.3980   -3.6430   -1.3830 C   0  0  0  0  0  0  0  0  0  0  0  0
    0.7080   -4.2970   -2.1940 O   0  0  0  0  0  0  0  0  0  0  0  0
    2.7760   -3.7940   -1.4270 O   0  0  0  0  0  0  0  0  0  0  0  0
   -0.6340   -2.6540   -0.4530 C   0  0  2  0  0  0  0  0  0  0  0  0
   -1.0550   -1.3670   -1.0370 C   0  0  0  0  0  0  0  0  0  0  0  0
   -0.2040   -0.7880   -2.1150 C   0  0  0  0  0  0  0  0  0  0  0  0
    0.7360    0.1270   -1.6710 O   0  0  0  0  0  0  0  0  0  0  0  0
    0.7200    1.4840   -1.6220 C   0  0  0  0  0  0  0  0  0  0  0  0
    1.6770    2.1200   -2.1990 O   0  0  0  0  0  0  0  0  0  0  0  0
   -0.2840    2.3330   -0.9730 C   0  0  0  0  0  0  0  0  0  0  0  0
   -0.6840    2.1550    0.2640 C   0  0  0  0  0  0  0  0  0  0  0  0
   -0.0230    1.3530    1.2440 N   0  0  0  0  0  0  0  0  0  0  0  0
    1.3340    1.1510    1.5920 C   0  0  0  0  0  0  0  0  0  0  0  0
    1.5600    1.4770    2.8740 O   0  0  0  0  0  0  0  0  0  0  0  0
    2.3660    0.7040    0.8590 O   0  0  0  0  0  0  0  0  0  0  0  0
   -1.9100    2.9780    0.3910 C   0  0  2  0  0  0  0  0  0  0  0  0
   -3.1700    2.1190    0.2700 C   0  0  0  0  0  0  0  0  0  0  0  0
   -4.0510    2.7500   -0.4290 O   0  0  0  0  0  0  0  0  0  0  0  0
   -3.1780    0.9570    0.8470 O   0  0  0  0  0  0  0  0  0  0  0  0
   -3.8640   -0.0850    1.3360 C   0  0  1  0  0  0  0  0  0  0  0  0
   -4.8010    0.4450    2.4450 C   0  0  0  0  0  0  0  0  0  0  0  0
   -4.8130   -0.8170    0.4100 C   0  0  0  0  0  0  0  0  0  0  0  0
   -4.7320   -2.2220    0.5810 O   0  0  0  0  0  0  0  0  0  0  0  0
   -3.4730   -2.7900    0.4430 C   0  0  0  0  0  0  0  0  0  0  0  0
   -3.2250   -3.7970   -0.2850 O   0  0  0  0  0  0  0  0  0  0  0  0
   -2.3970   -2.1350    1.2220 N   0  0  0  0  0  0  0  0  0  0  0  0
   -1.1610   -2.7860    0.9920 C   0  0  0  0  0  0  0  0  0  0  0  0
   -2.8720   -1.0550    1.9600 C   0  0  0  0  0  0  0  0  0  0  0  0
   -2.6270   -0.6770    3.1680 O   0  0  0  0  0  0  0  0  0  0  0  0
   -1.8620    3.9000   -0.7140 N   0  0  0  0  0  0  0  0  0  0  0  0
   -2.4710    5.0080   -1.2140 C   0  0  0  0  0  0  0  0  0  0  0  0
   -1.9650    5.2070   -2.4360 N   0  0  0  0  0  0  0  0  0  0  0  0
   -1.0790    4.2720   -2.6920 N   0  0  0  0  0  0  0  0  0  0  0  0
   -1.0080    3.4440   -1.6000 C   0  0  0  0  0  0  0  0  0  0  0  0
  2  1  1  1
  2  3  1  0
  2  8  1  0
  2 25  1  0
  3  4  1  0
  4  5  1  0
  5  6  2  0
  5  7  1  0
  8  9  1  0
  9 10  1  0
 10 11  1  0
 10 14  1  0
 11 12  2  0
 11 13  1  0
 14 15  1  0
 14 37  1  1
 15 16  1  0
 16 17  1  0
 17 18  1  0
 18 19  2  0
 18 20  1  0
 20 21  2  0
 20 44  1  0
 21 22  1  0
 21 26  1  0
 22 23  1  0
 23 24  2  0
 23 25  1  0
 26 27  1  0
 26 40  1  6
 27 28  2  0
 27 29  1  0
 29 30  1  0
 30 31  1  1
 30 32  1  0
 30 38  1  0
 32 33  1  0
 33 34  1  0
 34 35  2  0
 34 36  1  0
 36 37  1  0
 36 38  1  0
 38 39  2  0
 40 41  1  0
 40 44  1  0
 41 42  2  0
 42 43  1  0
 43 44  2  0
M  END
