
     RDKit          3D

 43 45  0  0  0  0  0  0  0  0999 V2000
    5.1900   -0.3490   -0.9350 C   0  0  0  0  0  0  0  0  0  0  0  0
    4.7740    0.1050    0.4660 C   0  0  1  0  0  0  0  0  0  0  0  0
    4.4980    1.5970    0.4810 C   0  0  0  0  0  0  0  0  0  0  0  0
    3.5940   -0.5530    0.8420 O   0  0  0  0  0  0  0  0  0  0  0  0
    2.4520   -0.3960    0.0850 C   0  0  0  0  0  0  0  0  0  0  0  0
    2.4900    0.3320   -0.9250 O   0  0  0  0  0  0  0  0  0  0  0  0
    1.2270   -1.0790    0.4750 C   0  0  2  0  0  0  0  0  0  0  0  0
    1.4840   -2.5600    0.4390 C   0  0  0  0  0  0  0  0  0  0  0  0
    0.2940   -3.3990    0.1190 C   0  0  0  0  0  0  0  0  0  0  0  0
   -0.3420   -2.9790   -1.1500 N   0  0  0  0  0  0  0  0  0  0  0  0
    0.0290   -1.6360   -1.5370 C   0  0  0  0  0  0  0  0  0  0  0  0
    0.0040   -0.6920   -0.3630 C   0  0  2  0  0  0  0  0  0  0  0  0
    0.2260    0.6740   -0.8750 C   0  0  0  0  0  0  0  0  0  0  0  0
    0.2320    0.9210   -2.1010 O   0  0  0  0  0  0  0  0  0  0  0  0
    0.4380    1.7400    0.0390 N   0  0  0  0  0  0  0  0  0  0  0  0
    0.6520    3.0690   -0.4940 C   0  0  0  0  0  0  0  0  0  0  0  0
    0.8600    4.0710    0.6220 C   0  0  0  0  0  0  0  0  0  0  0  0
   -0.2170    4.1460    1.4740 O   0  0  0  0  0  0  0  0  0  0  0  0
   -1.2110   -0.6690    0.4530 C   0  0  0  0  0  0  0  0  0  0  0  0
   -0.9530   -0.7380    1.8940 N   0  0  0  0  0  0  0  0  0  0  0  0
   -1.4830    0.0710    2.7090 C   0  0  0  0  0  0  0  0  0  0  0  0
   -1.1440   -0.1150    4.0640 O   0  0  0  0  0  0  0  0  0  0  0  0
   -2.4020    1.1730    2.4110 C   0  0  0  0  0  0  0  0  0  0  0  0
   -3.6880    1.0180    3.0730 N   0  0  0  0  0  0  0  0  0  0  0  0
   -4.7150    1.9670    2.9190 C   0  0  0  0  0  0  0  0  0  0  0  0
   -4.5790    2.9880    2.2100 O   0  0  0  0  0  0  0  0  0  0  0  0
   -5.9180    1.7720    3.5690 O   0  0  0  0  0  0  0  0  0  0  0  0
   -2.3770   -0.5970    0.0290 N   0  0  0  0  0  0  0  0  0  0  0  0
   -3.0480   -0.5180   -1.1780 C   0  0  0  0  0  0  0  0  0  0  0  0
   -3.8940    0.5340   -1.5180 C   0  0  0  0  0  0  0  0  0  0  0  0
   -4.5480    0.5790   -2.7310 C   0  0  0  0  0  0  0  0  0  0  0  0
   -4.3330   -0.4640   -3.6030 C   0  0  0  0  0  0  0  0  0  0  0  0
   -3.5020   -1.5090   -3.2850 C   0  0  0  0  0  0  0  0  0  0  0  0
   -2.9140   -1.4760   -2.0990 N   0  0  0  0  0  0  0  0  0  0  0  0
   -3.2160   -2.6400   -4.2040 C   0  0  0  0  0  0  0  0  0  0  0  0
   -4.1450   -2.9310   -4.9890 O   0  0  0  0  0  0  0  0  0  0  0  0
   -1.9910   -3.2850   -4.1490 O   0  0  0  0  0  0  0  0  0  0  0  0
   -1.4000   -3.9310   -3.1800 O   0  0  0  0  0  0  0  0  0  0  0  0
   -1.2150   -3.8310   -1.8610 C   0  0  0  0  0  0  0  0  0  0  0  0
   -1.9090   -4.6020   -1.0850 O   0  0  0  0  0  0  0  0  0  0  0  0
    5.8620   -0.2370    1.4080 C   0  0  0  0  0  0  0  0  0  0  0  0
    5.6420   -1.0150    2.3690 O   0  0  0  0  0  0  0  0  0  0  0  0
    7.1380    0.2800    1.2660 O   0  0  0  0  0  0  0  0  0  0  0  0
  2  1  1  6
  2  3  1  0
  2  4  1  0
  2 41  1  0
  4  5  1  0
  5  6  2  0
  7  5  1  6
  7  8  1  0
  7 12  1  0
  8  9  1  0
  9 10  1  0
 10 11  1  0
 10 39  1  0
 11 12  1  0
 12 13  1  6
 12 19  1  0
 13 14  2  0
 13 15  1  0
 15 16  1  0
 16 17  1  0
 17 18  1  0
 19 20  1  0
 19 28  2  0
 20 21  2  3
 21 22  1  0
 21 23  1  0
 23 24  1  0
 24 25  1  0
 25 26  2  0
 25 27  1  0
 28 29  1  0
 29 30  2  0
 29 34  1  0
 30 31  1  0
 31 32  2  0
 32 33  1  0
 33 34  2  0
 33 35  1  0
 35 36  2  0
 35 37  1  0
 37 38  1  0
 38 39  1  0
 39 40  2  0
 41 42  2  0
 41 43  1  0
M  END
