
     RDKit          3D

 43 45  0  0  0  0  0  0  0  0999 V2000
   -0.9900    2.1100   -1.2620 C   0  0  0  0  0  0  0  0  0  0  0  0
    0.2580    1.3790   -0.8250 C   0  0  1  0  0  0  0  0  0  0  0  0
    1.3790    2.2980   -0.6760 C   0  0  0  0  0  0  0  0  0  0  0  0
    2.7410    2.0210   -1.0880 C   0  0  0  0  0  0  0  0  0  0  0  0
    3.3660    0.7700   -0.7330 N   0  0  0  0  0  0  0  0  0  0  0  0
    4.5620    0.7420    0.0720 C   0  0  0  0  0  0  0  0  0  0  0  0
    5.8310    0.7990   -0.7150 C   0  0  0  0  0  0  0  0  0  0  0  0
    6.9840    0.7610    0.2670 C   0  0  0  0  0  0  0  0  0  0  0  0
    6.8800    1.8650    1.1200 O   0  0  0  0  0  0  0  0  0  0  0  0
    7.8560    1.8800    1.9930 O   0  0  0  0  0  0  0  0  0  0  0  0
    2.8150   -0.4830   -1.1810 C   0  0  0  0  0  0  0  0  0  0  0  0
    3.6410   -1.4230   -1.3030 O   0  0  0  0  0  0  0  0  0  0  0  0
    1.4100   -0.8070   -1.5140 N   0  0  0  0  0  0  0  0  0  0  0  0
    1.3180   -2.2260   -1.3940 C   0  0  0  0  0  0  0  0  0  0  0  0
    1.2170   -2.6940    0.0470 C   0  0  2  0  0  0  0  0  0  0  0  0
    1.9800   -3.9000    0.2850 N   0  0  0  0  0  0  0  0  0  0  0  0
    3.0810   -3.9770    1.1750 C   0  0  0  0  0  0  0  0  0  0  0  0
    3.4210   -2.9520    1.7950 O   0  0  0  0  0  0  0  0  0  0  0  0
    3.8050   -5.1370    1.3950 O   0  0  0  0  0  0  0  0  0  0  0  0
   -0.1990   -2.9440    0.4710 C   0  0  0  0  0  0  0  0  0  0  0  0
   -0.8410   -4.1340   -0.1330 C   0  0  0  0  0  0  0  0  0  0  0  0
   -2.2390   -3.7700   -0.5830 C   0  0  0  0  0  0  0  0  0  0  0  0
   -2.6320   -2.6240    0.1000 O   0  0  0  0  0  0  0  0  0  0  0  0
   -4.0050   -2.4320    0.0850 C   0  0  0  0  0  0  0  0  0  0  0  0
   -4.2800   -1.0010   -0.3040 C   0  0  0  0  0  0  0  0  0  0  0  0
   -5.4470   -0.4940    0.3920 N   0  0  0  0  0  0  0  0  0  0  0  0
   -5.7490    0.8800    0.5610 C   0  0  0  0  0  0  0  0  0  0  0  0
   -6.9360    1.2860    0.4800 O   0  0  0  0  0  0  0  0  0  0  0  0
   -4.7210    1.8980    0.8360 C   0  0  0  0  0  0  0  0  0  0  0  0
   -3.5080    1.5280    1.1670 O   0  0  0  0  0  0  0  0  0  0  0  0
   -2.7520    2.5500    1.3680 N   0  0  0  0  0  0  0  0  0  0  0  0
   -3.4300    3.6880    1.1800 C   0  0  0  0  0  0  0  0  0  0  0  0
   -2.9770    4.8490    1.2980 O   0  0  0  0  0  0  0  0  0  0  0  0
   -4.7060    3.2770    0.8350 C   0  0  0  0  0  0  0  0  0  0  0  0
   -5.8070    4.1000    0.5320 N   0  0  0  0  0  0  0  0  0  0  0  0
   -6.0960    4.5390   -0.7730 C   0  0  0  0  0  0  0  0  0  0  0  0
   -5.3500    4.1930   -1.7310 O   0  0  0  0  0  0  0  0  0  0  0  0
   -1.3630    2.2880    1.7440 C   0  0  0  0  0  0  0  0  0  0  0  0
   -0.9600    0.9230    1.3130 C   0  0  0  0  0  0  0  0  0  0  0  0
   -1.6170   -0.0180    1.8650 O   0  0  0  0  0  0  0  0  0  0  0  0
    0.0280    0.7590    0.4080 O   0  0  0  0  0  0  0  0  0  0  0  0
    0.5120    0.2300   -1.8140 C   0  0  0  0  0  0  0  0  0  0  0  0
   -0.1910    0.4170   -2.8410 O   0  0  0  0  0  0  0  0  0  0  0  0
  2  1  1  6
  2  3  1  0
  2 41  1  0
  2 42  1  0
  3  4  1  0
  4  5  1  0
  5  6  1  0
  5 11  1  0
  6  7  1  0
  7  8  1  0
  8  9  1  0
  9 10  1  0
 11 12  2  0
 11 13  1  0
 13 14  1  0
 13 42  1  0
 14 15  1  0
 15 16  1  6
 15 20  1  0
 16 17  1  0
 17 18  2  0
 17 19  1  0
 20 21  1  0
 21 22  1  0
 22 23  1  0
 23 24  1  0
 24 25  1  0
 25 26  1  0
 26 27  1  0
 27 28  2  0
 27 29  1  0
 29 30  1  0
 29 34  2  0
 30 31  1  0
 31 32  1  0
 31 38  1  0
 32 33  2  0
 32 34  1  0
 34 35  1  0
 35 36  1  0
 36 37  2  0
 38 39  1  0
 39 40  2  0
 39 41  1  0
 42 43  2  0
M  END
