
     RDKit          3D

 44 48  0  0  0  0  0  0  0  0999 V2000
   -9.9500    3.1190   -0.4410 N   0  0  0  0  0  0  0  0  0  0  0  0
   -9.4680    1.7860   -0.3370 C   0  0  0  0  0  0  0  0  0  0  0  0
  -10.1660    0.8260   -0.7430 O   0  0  0  0  0  0  0  0  0  0  0  0
   -8.1530    1.5310    0.2440 C   0  0  0  0  0  0  0  0  0  0  0  0
   -7.3760    2.5810    0.6940 C   0  0  0  0  0  0  0  0  0  0  0  0
   -6.1350    2.3490    1.2440 C   0  0  0  0  0  0  0  0  0  0  0  0
   -5.6800    1.0530    1.3390 C   0  0  0  0  0  0  0  0  0  0  0  0
   -6.4360    0.0320    0.9020 N   0  0  0  0  0  0  0  0  0  0  0  0
   -5.9240   -1.3170    1.0180 C   0  0  2  0  0  0  0  0  0  0  0  0
   -4.6800   -1.3220    1.5740 O   0  0  0  0  0  0  0  0  0  0  0  0
   -3.8480   -2.1370    0.8680 C   0  0  2  0  0  0  0  0  0  0  0  0
   -2.6610   -1.4040    0.2810 C   0  0  0  0  0  0  0  0  0  0  0  0
   -3.0630   -0.3940   -0.5930 O   0  0  0  0  0  0  0  0  0  0  0  0
   -1.6660    0.3530   -1.1850 P   0  0  1  0  0  0  0  0  0  0  0  0
   -1.2850   -0.3460   -2.4610 O   0  0  0  0  0  0  0  0  0  0  0  0
   -2.0510    1.9680   -1.5100 O   0  0  0  0  0  0  0  0  0  0  0  0
   -0.4330    0.2390   -0.0230 O   0  0  0  0  0  0  0  0  0  0  0  0
    0.7120    1.4490   -0.2530 P   0  0  1  0  0  0  0  0  0  0  0  0
    0.1560    2.4770   -1.1910 O   0  0  0  0  0  0  0  0  0  0  0  0
    0.9990    2.1670    1.2640 O   0  0  0  0  0  0  0  0  0  0  0  0
    2.1720    0.8410   -0.8370 O   0  0  0  0  0  0  0  0  0  0  0  0
    2.5700   -0.3000   -0.1850 C   0  0  0  0  0  0  0  0  0  0  0  0
    3.8790   -0.8450   -0.7080 C   0  0  1  0  0  0  0  0  0  0  0  0
    4.9180    0.0770   -0.5670 O   0  0  0  0  0  0  0  0  0  0  0  0
    6.0320   -0.7160   -0.8250 C   0  0  1  0  0  0  0  0  0  0  0  0
    7.2710   -0.0070   -0.6230 N   0  0  0  0  0  0  0  0  0  0  0  0
    8.4410   -0.4070   -1.1690 C   0  0  0  0  0  0  0  0  0  0  0  0
    9.4210    0.4320   -0.8170 N   0  0  0  0  0  0  0  0  0  0  0  0
    8.8870    1.3780   -0.0430 C   0  0  0  0  0  0  0  0  0  0  0  0
    9.4590    2.4700    0.5770 C   0  0  0  0  0  0  0  0  0  0  0  0
   10.8440    2.7090    0.4220 N   0  0  0  0  0  0  0  0  0  0  0  0
    8.6430    3.2540    1.3040 N   0  0  0  0  0  0  0  0  0  0  0  0
    7.3350    2.9630    1.4060 C   0  0  0  0  0  0  0  0  0  0  0  0
    6.7700    1.8930    0.8000 N   0  0  0  0  0  0  0  0  0  0  0  0
    7.5390    1.0950    0.0730 C   0  0  0  0  0  0  0  0  0  0  0  0
    5.8410   -1.8500    0.1600 C   0  0  2  0  0  0  0  0  0  0  0  0
    6.5330   -2.9940   -0.2310 O   0  0  0  0  0  0  0  0  0  0  0  0
    4.3250   -2.0650    0.0670 C   0  0  2  0  0  0  0  0  0  0  0  0
    4.1220   -3.2250   -0.6450 O   0  0  0  0  0  0  0  0  0  0  0  0
   -4.6110   -2.8140   -0.2170 C   0  0  1  0  0  0  0  0  0  0  0  0
   -4.9500   -4.1270    0.1370 O   0  0  0  0  0  0  0  0  0  0  0  0
   -5.8460   -1.9490   -0.3460 C   0  0  1  0  0  0  0  0  0  0  0  0
   -6.9370   -2.7980   -0.5270 O   0  0  0  0  0  0  0  0  0  0  0  0
   -7.6430    0.2760    0.3680 C   0  0  0  0  0  0  0  0  0  0  0  0
  1  2  1  0
  2  3  2  0
  2  4  1  0
  4  5  2  0
  4 44  1  0
  5  6  1  0
  6  7  2  0
  7  8  1  0
  9  8  1  6
  8 44  2  0
  9 10  1  0
  9 42  1  0
 10 11  1  0
 11 12  1  6
 11 40  1  0
 12 13  1  0
 13 14  1  0
 14 15  2  0
 14 16  1  6
 14 17  1  0
 17 18  1  0
 18 19  2  0
 18 20  1  1
 18 21  1  0
 21 22  1  0
 23 22  1  1
 23 24  1  0
 23 38  1  0
 24 25  1  0
 25 26  1  1
 25 36  1  0
 26 27  1  0
 26 35  1  0
 27 28  2  0
 28 29  1  0
 29 30  2  0
 29 35  1  0
 30 31  1  0
 30 32  1  0
 32 33  2  0
 33 34  1  0
 34 35  2  0
 36 37  1  6
 36 38  1  0
 38 39  1  6
 40 41  1  1
 40 42  1  0
 42 43  1  1
M  CHG  2   8   1  16  -1
M  END
