
     RDKit          3D

 15 16  0  0  0  0  0  0  0  0999 V2000
    2.2170   -0.2820   -1.9690 C   0  0  0  0  0  0  0  0  0  0  0  0
    2.2220   -0.0160   -0.4570 C   0  0  2  0  0  0  0  0  0  0  0  0
    3.4010   -0.8210    0.0860 C   0  0  0  0  0  0  0  0  0  0  0  0
    0.9550   -0.5670    0.1560 C   0  0  0  0  0  0  0  0  0  0  0  0
   -0.0620    0.4590    0.2010 C   0  0  0  0  0  0  0  0  0  0  0  0
   -1.4050    0.4890    0.0230 C   0  0  0  0  0  0  0  0  0  0  0  0
   -2.3000   -0.5970   -0.2930 C   0  0  2  0  0  0  0  0  0  0  0  0
   -3.7200   -0.1280   -0.5190 C   0  0  0  0  0  0  0  0  0  0  0  0
   -2.3410   -1.7290    0.6750 C   0  0  0  0  0  0  0  0  0  0  0  0
   -1.8850   -1.1420   -1.5330 O   0  0  0  0  0  0  0  0  0  0  0  0
   -1.8260    1.7700    0.1960 N   0  0  0  0  0  0  0  0  0  0  0  0
   -0.7770    2.5480    0.4780 N   0  0  0  0  0  0  0  0  0  0  0  0
    0.3140    1.7590    0.4850 C   0  0  0  0  0  0  0  0  0  0  0  0
    1.7820    1.9550    0.7190 C   0  0  0  0  0  0  0  0  0  0  0  0
    2.4560    1.3060   -0.2730 O   0  0  0  0  0  0  0  0  0  0  0  0
  2  1  1  6
  2  3  1  0
  2  4  1  0
  2 15  1  0
  4  5  1  0
  5  6  1  0
  5 13  2  0
  6  7  1  0
  6 11  2  0
  7  8  1  6
  7  9  1  0
  7 10  1  0
 11 12  1  0
 12 13  1  0
 13 14  1  0
 14 15  1  0
M  END
