
     RDKit          3D

 25 27  0  0  0  0  0  0  0  0999 V2000
    7.5000   -0.0030   -0.4700 C   0  0  0  0  0  0  0  0  0  0  0  0
    6.6520    0.5720    0.5320 O   0  0  0  0  0  0  0  0  0  0  0  0
    5.2780    0.4620    0.3910 C   0  0  0  0  0  0  0  0  0  0  0  0
    4.7130   -0.1880   -0.6900 C   0  0  0  0  0  0  0  0  0  0  0  0
    3.3280   -0.2900   -0.8160 C   0  0  0  0  0  0  0  0  0  0  0  0
    2.5060    0.2520    0.1290 C   0  0  0  0  0  0  0  0  0  0  0  0
    1.0920    0.2000    0.0870 N   0  0  0  0  0  0  0  0  0  0  0  0
    0.2820   -0.3950   -0.8930 C   0  0  0  0  0  0  0  0  0  0  0  0
    0.8370   -0.9590   -1.8660 O   0  0  0  0  0  0  0  0  0  0  0  0
   -1.1840   -0.3690   -0.7990 C   0  0  0  0  0  0  0  0  0  0  0  0
   -1.8880    0.2180    0.2180 C   0  0  0  0  0  0  0  0  0  0  0  0
   -3.2720    0.1730    0.1890 C   0  0  0  0  0  0  0  0  0  0  0  0
   -4.0520    0.8050    1.2840 C   0  0  1  0  0  0  0  0  0  0  0  0
   -4.9590    1.8550    0.6330 C   0  0  0  0  0  0  0  0  0  0  0  0
   -4.8770   -0.2800    1.9490 C   0  0  0  0  0  0  0  0  0  0  0  0
   -3.9670   -0.4400   -0.8270 C   0  0  0  0  0  0  0  0  0  0  0  0
   -3.2750   -1.0390   -1.8640 C   0  0  0  0  0  0  0  0  0  0  0  0
   -3.9740   -1.7190   -2.9910 C   0  0  0  0  0  0  0  0  0  0  0  0
   -1.9140   -0.9890   -1.8250 C   0  0  0  0  0  0  0  0  0  0  0  0
   -1.1980   -1.5890   -2.8650 O   0  0  0  0  0  0  0  0  0  0  0  0
    3.0900    0.9080    1.2190 C   0  0  0  0  0  0  0  0  0  0  0  0
    4.4600    1.0130    1.3520 C   0  0  0  0  0  0  0  0  0  0  0  0
    4.6980    1.7160    2.5350 O   0  0  0  0  0  0  0  0  0  0  0  0
    3.5180    1.7120    3.3200 C   0  0  0  0  0  0  0  0  0  0  0  0
    2.5340    1.5500    2.3250 O   0  0  0  0  0  0  0  0  0  0  0  0
  1  2  1  0
  2  3  1  0
  3  4  2  0
  3 22  1  0
  4  5  1  0
  5  6  2  0
  6  7  1  0
  6 21  1  0
  7  8  1  0
  8  9  2  0
  8 10  1  0
 10 11  2  0
 10 19  1  0
 11 12  1  0
 12 13  1  0
 12 16  2  0
 13 14  1  6
 13 15  1  0
 16 17  1  0
 17 18  1  0
 17 19  2  0
 19 20  1  0
 21 22  2  0
 21 25  1  0
 22 23  1  0
 23 24  1  0
 24 25  1  0
M  END
