
     RDKit          3D

 25 27  0  0  0  0  0  0  0  0999 V2000
    5.8190   -0.6300    0.4630 C   0  0  0  0  0  0  0  0  0  0  0  0
    4.6780   -0.5820   -0.1670 C   0  0  0  0  0  0  0  0  0  0  0  0
    4.1090   -1.7200   -0.5520 O   0  0  0  0  0  0  0  0  0  0  0  0
    2.7970   -1.9660   -0.4780 C   0  0  0  0  0  0  0  0  0  0  0  0
    2.5160   -3.1660   -0.6570 O   0  0  0  0  0  0  0  0  0  0  0  0
    1.7400   -1.1200   -0.2410 C   0  0  0  0  0  0  0  0  0  0  0  0
    0.4280   -1.5310   -0.1070 C   0  0  0  0  0  0  0  0  0  0  0  0
    0.0310   -2.7360   -0.1860 O   0  0  0  0  0  0  0  0  0  0  0  0
   -0.3970   -0.4420    0.1250 C   0  0  0  0  0  0  0  0  0  0  0  0
   -1.8510   -0.4420    0.3230 C   0  0  0  0  0  0  0  0  0  0  0  0
   -2.4730   -1.3600    1.1520 C   0  0  0  0  0  0  0  0  0  0  0  0
   -3.8350   -1.3780    1.3520 C   0  0  0  0  0  0  0  0  0  0  0  0
   -4.6120   -0.4520    0.7060 C   0  0  0  0  0  0  0  0  0  0  0  0
   -5.9920   -0.4330    0.8790 O   0  0  0  0  0  0  0  0  0  0  0  0
   -6.5960   -1.3740    1.7240 C   0  0  0  0  0  0  0  0  0  0  0  0
   -4.0390    0.5000   -0.1430 C   0  0  0  0  0  0  0  0  0  0  0  0
   -4.8610    1.4270   -0.7830 O   0  0  0  0  0  0  0  0  0  0  0  0
   -4.2360    2.3680   -1.6320 C   0  0  0  0  0  0  0  0  0  0  0  0
   -2.6720    0.4710   -0.3060 C   0  0  0  0  0  0  0  0  0  0  0  0
    0.4500    0.6480    0.1300 C   0  0  0  0  0  0  0  0  0  0  0  0
    1.7520    0.2230   -0.0950 C   0  0  0  0  0  0  0  0  0  0  0  0
    2.8230    1.0260   -0.1540 N   0  0  0  0  0  0  0  0  0  0  0  0
    4.1270    0.6600   -0.3960 C   0  0  0  0  0  0  0  0  0  0  0  0
    4.9130    1.5510   -0.9380 C   0  0  0  0  0  0  0  0  0  0  0  0
    6.3020    1.3710   -1.3300 C   0  0  0  0  0  0  0  0  0  0  0  0
  1  2  2  0
  2  3  1  0
  2 23  1  0
  3  4  1  0
  4  5  2  0
  4  6  1  0
  6  7  1  0
  6 21  2  0
  7  8  2  0
  7  9  1  0
  9 10  1  0
  9 20  2  0
 10 11  2  0
 10 19  1  0
 11 12  1  0
 12 13  2  0
 13 14  1  0
 13 16  1  0
 14 15  1  0
 16 17  1  0
 16 19  2  0
 17 18  1  0
 20 21  1  0
 21 22  1  0
 22 23  1  0
 23 24  2  3
 24 25  1  0
M  END
