
     RDKit          3D

 25 27  0  0  0  0  0  0  0  0999 V2000
   -6.3300   -0.7930    1.4250 C   0  0  0  0  0  0  0  0  0  0  0  0
   -5.2000    0.1850    1.3860 C   0  0  0  0  0  0  0  0  0  0  0  0
   -5.5790    1.4570    1.5270 C   0  0  0  0  0  0  0  0  0  0  0  0
   -4.7840    2.6720    1.5420 C   0  0  0  0  0  0  0  0  0  0  0  0
   -3.4790    2.8550    1.2770 C   0  0  0  0  0  0  0  0  0  0  0  0
   -2.5190    1.8160    0.8930 C   0  0  0  0  0  0  0  0  0  0  0  0
   -1.4810    2.2100    0.2240 C   0  0  0  0  0  0  0  0  0  0  0  0
   -1.4280    3.6200   -0.0350 O   0  0  0  0  0  0  0  0  0  0  0  0
   -0.3730    1.4670   -0.3090 C   0  0  0  0  0  0  0  0  0  0  0  0
    0.5450    2.1360   -0.9320 O   0  0  0  0  0  0  0  0  0  0  0  0
   -0.1310    0.1220   -0.2610 O   0  0  0  0  0  0  0  0  0  0  0  0
    1.0030   -0.4050   -0.8430 C   0  0  0  0  0  0  0  0  0  0  0  0
    1.0060   -0.8190   -2.1540 C   0  0  0  0  0  0  0  0  0  0  0  0
    2.1350   -1.3420   -2.7260 C   0  0  0  0  0  0  0  0  0  0  0  0
    3.3230   -1.4710   -1.9910 C   0  0  0  0  0  0  0  0  0  0  0  0
    4.5090   -1.9160   -2.2610 O   0  0  0  0  0  0  0  0  0  0  0  0
    5.2740   -1.8160   -1.2110 C   0  0  0  0  0  0  0  0  0  0  0  0
    6.7230   -2.2170   -1.0880 C   0  0  0  0  0  0  0  0  0  0  0  0
    4.5620   -1.2730   -0.1720 C   0  0  0  0  0  0  0  0  0  0  0  0
    5.0020   -0.9670    1.2220 C   0  0  0  0  0  0  0  0  0  0  0  0
    3.3000   -1.0520   -0.6850 C   0  0  0  0  0  0  0  0  0  0  0  0
    2.1470   -0.5200   -0.1070 C   0  0  0  0  0  0  0  0  0  0  0  0
   -2.6540    0.4180    1.2360 C   0  0  0  0  0  0  0  0  0  0  0  0
   -1.6320   -0.2070    1.5930 O   0  0  0  0  0  0  0  0  0  0  0  0
   -3.8880   -0.3440    1.2090 N   0  0  0  0  0  0  0  0  0  0  0  0
  1  2  1  0
  2  3  2  0
  2 25  1  0
  3  4  1  0
  4  5  2  0
  5  6  1  0
  6  7  2  3
  6 23  1  0
  7  8  1  0
  7  9  1  0
  9 10  2  0
  9 11  1  0
 11 12  1  0
 12 13  2  0
 12 22  1  0
 13 14  1  0
 14 15  2  0
 15 16  1  0
 15 21  1  0
 16 17  1  0
 17 18  1  0
 17 19  2  0
 19 20  1  0
 19 21  1  0
 21 22  2  0
 23 24  2  0
 23 25  1  0
M  END
