
     RDKit          3D

 25 27  0  0  0  0  0  0  0  0999 V2000
    6.7860    1.3550   -0.5100 C   0  0  0  0  0  0  0  0  0  0  0  0
    6.2360    0.2630    0.1790 O   0  0  0  0  0  0  0  0  0  0  0  0
    4.8620    0.1090    0.2350 C   0  0  0  0  0  0  0  0  0  0  0  0
    3.9860    0.9850   -0.3510 C   0  0  0  0  0  0  0  0  0  0  0  0
    2.6250    0.8430   -0.3090 C   0  0  0  0  0  0  0  0  0  0  0  0
    2.0540   -0.2510    0.3640 C   0  0  0  0  0  0  0  0  0  0  0  0
    0.5920   -0.3780    0.3950 C   0  0  0  0  0  0  0  0  0  0  0  0
   -0.0010   -1.4860    0.9260 C   0  0  0  0  0  0  0  0  0  0  0  0
   -1.3680   -1.5920    0.9170 C   0  0  0  0  0  0  0  0  0  0  0  0
   -2.1760   -0.5830    0.3720 C   0  0  0  0  0  0  0  0  0  0  0  0
   -3.6150   -0.8150    0.4070 C   0  0  0  0  0  0  0  0  0  0  0  0
   -4.3310   -0.7900    1.5850 C   0  0  0  0  0  0  0  0  0  0  0  0
   -5.6810   -1.0560    1.6170 C   0  0  0  0  0  0  0  0  0  0  0  0
   -6.2920   -1.3360    0.5080 O   0  0  0  0  0  0  0  0  0  0  0  0
   -5.6610   -1.3790   -0.6700 C   0  0  0  0  0  0  0  0  0  0  0  0
   -6.3660   -1.6630   -1.6690 O   0  0  0  0  0  0  0  0  0  0  0  0
   -4.3210   -1.1170   -0.7210 C   0  0  0  0  0  0  0  0  0  0  0  0
   -1.5560    0.5080   -0.1500 C   0  0  0  0  0  0  0  0  0  0  0  0
   -2.2350    1.6490   -0.7480 C   0  0  0  0  0  0  0  0  0  0  0  0
   -2.6270    1.5810   -2.1720 C   0  0  0  0  0  0  0  0  0  0  0  0
   -1.5270    1.3760   -3.0240 O   0  0  0  0  0  0  0  0  0  0  0  0
   -0.1890    0.5890   -0.1280 N   0  0  0  0  0  0  0  0  0  0  0  0
    2.9220   -1.1300    0.9520 C   0  0  0  0  0  0  0  0  0  0  0  0
    4.3070   -0.9520    0.8890 C   0  0  0  0  0  0  0  0  0  0  0  0
    5.1260   -1.9030    1.5230 O   0  0  0  0  0  0  0  0  0  0  0  0
  1  2  1  0
  2  3  1  0
  3  4  2  0
  3 24  1  0
  4  5  1  0
  5  6  2  0
  6  7  1  0
  6 23  1  0
  7  8  2  0
  7 22  1  0
  8  9  1  0
  9 10  2  0
 10 11  1  0
 10 18  1  0
 11 12  1  0
 11 17  2  0
 12 13  2  0
 13 14  1  0
 14 15  1  0
 15 16  2  0
 15 17  1  0
 18 19  1  0
 18 22  2  0
 19 20  1  0
 20 21  1  0
 23 24  2  0
 24 25  1  0
M  END
