
     RDKit          3D

 25 27  0  0  0  0  0  0  0  0999 V2000
    5.4020    1.3770   -0.8520 C   0  0  0  0  0  0  0  0  0  0  0  0
    4.1640    0.9340   -0.9680 C   0  0  0  0  0  0  0  0  0  0  0  0
    3.5010    0.5220   -2.1140 C   0  0  0  0  0  0  0  0  0  0  0  0
    2.2280    0.1460   -1.7420 C   0  0  0  0  0  0  0  0  0  0  0  0
    1.1850   -0.3610   -2.6700 C   0  0  0  0  0  0  0  0  0  0  0  0
   -0.0100   -0.6690   -2.0320 O   0  0  0  0  0  0  0  0  0  0  0  0
   -0.1640   -1.6020   -1.0250 C   0  0  0  0  0  0  0  0  0  0  0  0
    0.8810   -2.2120   -0.6740 O   0  0  0  0  0  0  0  0  0  0  0  0
   -1.4490   -1.9120   -0.3620 C   0  0  2  0  0  0  0  0  0  0  0  0
   -1.2340   -3.0110    0.6540 C   0  0  0  0  0  0  0  0  0  0  0  0
   -2.4750   -2.4450   -1.3510 C   0  0  0  0  0  0  0  0  0  0  0  0
   -2.0650   -0.7720    0.3220 C   0  0  0  0  0  0  0  0  0  0  0  0
   -2.5810   -0.9470    1.5910 C   0  0  0  0  0  0  0  0  0  0  0  0
   -3.1790    0.1010    2.2880 C   0  0  0  0  0  0  0  0  0  0  0  0
   -3.2640    1.3420    1.7110 C   0  0  0  0  0  0  0  0  0  0  0  0
   -3.7410    2.4910    2.0710 O   0  0  0  0  0  0  0  0  0  0  0  0
   -3.5570    3.3820    1.1050 C   0  0  0  0  0  0  0  0  0  0  0  0
   -3.9140    4.5840    1.1650 O   0  0  0  0  0  0  0  0  0  0  0  0
   -2.9320    2.8040    0.0570 N   0  0  0  0  0  0  0  0  0  0  0  0
   -2.7470    1.5070    0.4460 C   0  0  0  0  0  0  0  0  0  0  0  0
   -2.1580    0.4880   -0.2500 C   0  0  0  0  0  0  0  0  0  0  0  0
    2.1170    0.3150   -0.4600 O   0  0  0  0  0  0  0  0  0  0  0  0
    3.2440    0.7830    0.0470 C   0  0  0  0  0  0  0  0  0  0  0  0
    3.4630    1.0640    1.3200 C   0  0  0  0  0  0  0  0  0  0  0  0
    2.4120    0.8700    2.3510 C   0  0  0  0  0  0  0  0  0  0  0  0
  1  2  2  0
  2  3  1  0
  2 23  1  0
  3  4  2  0
  4  5  1  0
  4 22  1  0
  5  6  1  0
  6  7  1  0
  7  8  2  0
  7  9  1  0
  9 10  1  1
  9 11  1  0
  9 12  1  0
 12 13  2  0
 12 21  1  0
 13 14  1  0
 14 15  2  0
 15 16  1  0
 15 20  1  0
 16 17  1  0
 17 18  2  0
 17 19  1  0
 19 20  1  0
 20 21  2  0
 22 23  1  0
 23 24  2  3
 24 25  1  0
M  END
