
     RDKit          3D

 31 33  0  0  0  0  0  0  0  0999 V2000
   -0.9690    1.4170    0.5550 O   0  0  0  0  0  0  0  0  0  0  0  0
   -1.9550    0.6520    0.6790 C   0  0  0  0  0  0  0  0  0  0  0  0
   -3.2110    1.3090    0.9280 N   0  0  0  0  0  0  0  0  0  0  0  0
   -3.2970    2.7340    1.0210 C   0  0  0  0  0  0  0  0  0  0  0  0
   -2.8620    3.4650   -0.2070 C   0  0  0  0  0  0  0  0  0  0  0  0
   -3.0140    4.8440    0.0680 O   0  0  0  0  0  0  0  0  0  0  0  0
   -1.8580   -0.7910    0.5830 C   0  0  0  0  0  0  0  0  0  0  0  0
   -0.6960   -1.3670    0.3550 C   0  0  0  0  0  0  0  0  0  0  0  0
    0.4780   -0.5840    0.1990 N   0  0  0  0  0  0  0  0  0  0  0  0
    0.8180   -0.0600   -0.9200 C   0  0  0  0  0  0  0  0  0  0  0  0
    0.1430   -0.1650   -2.0710 N   0  0  0  0  0  0  0  0  0  0  0  0
    0.5530    0.4060   -3.2110 C   0  0  0  0  0  0  0  0  0  0  0  0
    1.6800    1.1240   -3.2490 N   0  0  0  0  0  0  0  0  0  0  0  0
    2.4080    1.2700   -2.1200 C   0  0  0  0  0  0  0  0  0  0  0  0
    2.0010    0.6880   -0.9420 C   0  0  0  0  0  0  0  0  0  0  0  0
    2.7060    0.8510    0.2940 C   0  0  0  0  0  0  0  0  0  0  0  0
    1.9800    0.9670    1.3430 O   0  0  0  0  0  0  0  0  0  0  0  0
    4.1300    0.8970    0.4990 C   0  0  0  0  0  0  0  0  0  0  0  0
    4.6530    1.1150    1.7170 C   0  0  0  0  0  0  0  0  0  0  0  0
    6.0810    1.1790    2.0220 C   0  0  0  0  0  0  0  0  0  0  0  0
    6.9070    0.8910    0.9300 O   0  0  0  0  0  0  0  0  0  0  0  0
    6.3960    0.6650   -0.3140 C   0  0  0  0  0  0  0  0  0  0  0  0
    5.0920    0.6580   -0.5620 C   0  0  0  0  0  0  0  0  0  0  0  0
   -0.5840   -2.7720    0.2580 O   0  0  0  0  0  0  0  0  0  0  0  0
   -1.5810   -3.5150    0.9310 C   0  0  0  0  0  0  0  0  0  0  0  0
   -2.9200   -2.9950    0.3940 C   0  0  1  0  0  0  0  0  0  0  0  0
   -3.9420   -3.7090    0.9710 O   0  0  0  0  0  0  0  0  0  0  0  0
   -4.7860   -4.5860   -0.2420 P   0  0  0  0  0  0  0  0  0  0  0  0
   -5.8370   -3.5720   -1.1830 O   0  0  0  0  0  0  0  0  0  0  0  0
   -3.7080   -5.3800   -1.3490 O   0  0  0  0  0  0  0  0  0  0  0  0
   -2.9590   -1.6250    0.7230 O   0  0  0  0  0  0  0  0  0  0  0  0
  1  2  2  0
  2  3  1  0
  2  7  1  0
  3  4  1  0
  4  5  1  0
  5  6  1  0
  7  8  2  0
  7 31  1  0
  8  9  1  0
  8 24  1  0
  9 10  2  3
 10 11  1  0
 10 15  1  0
 11 12  2  0
 12 13  1  0
 13 14  1  0
 14 15  2  0
 15 16  1  0
 16 17  2  0
 16 18  1  0
 18 19  2  0
 18 23  1  0
 19 20  1  0
 20 21  1  0
 21 22  1  0
 22 23  2  0
 24 25  1  0
 25 26  1  0
 26 27  1  1
 26 31  1  0
 27 28  1  0
 28 29  1  0
 28 30  1  0
M  END
