
     RDKit          3D

 30 32  0  0  0  0  0  0  0  0999 V2000
    0.7960   -0.4670    4.1540 C   0  0  0  0  0  0  0  0  0  0  0  0
    0.3970   -0.0800    2.8510 O   0  0  0  0  0  0  0  0  0  0  0  0
   -0.0070   -0.9990    1.8860 C   0  0  0  0  0  0  0  0  0  0  0  0
   -0.0160   -2.1930    2.1820 O   0  0  0  0  0  0  0  0  0  0  0  0
   -0.4000   -0.4960    0.5710 C   0  0  2  0  0  0  0  0  0  0  0  0
    0.8130    0.2130   -0.0250 C   0  0  0  0  0  0  0  0  0  0  0  0
    2.0810   -0.2260   -0.0310 N   0  0  0  0  0  0  0  0  0  0  0  0
    2.8810    0.6640   -0.6460 C   0  0  0  0  0  0  0  0  0  0  0  0
    4.3070    0.6130   -0.8840 C   0  0  0  0  0  0  0  0  0  0  0  0
    4.9610    1.6270   -1.5370 C   0  0  0  0  0  0  0  0  0  0  0  0
    6.3280    1.5900   -1.7720 C   0  0  0  0  0  0  0  0  0  0  0  0
    7.0350    0.5030   -1.3340 C   0  0  0  0  0  0  0  0  0  0  0  0
    8.4030    0.3970   -1.5330 O   0  0  0  0  0  0  0  0  0  0  0  0
    6.3680   -0.5060   -0.6810 C   0  0  0  0  0  0  0  0  0  0  0  0
    5.0160   -0.4440   -0.4610 N   0  0  0  0  0  0  0  0  0  0  0  0
    2.0350    1.6700   -1.0140 N   0  0  0  0  0  0  0  0  0  0  0  0
    0.8140    1.3720   -0.6320 O   0  0  0  0  0  0  0  0  0  0  0  0
   -1.4890    0.5660    0.7380 C   0  0  0  0  0  0  0  0  0  0  0  0
   -2.5730    0.2070   -0.1100 N   0  0  0  0  0  0  0  0  0  0  0  0
   -3.8710    0.4310    0.4860 C   0  0  0  0  0  0  0  0  0  0  0  0
   -4.0540    1.9440    0.6140 C   0  0  1  0  0  0  0  0  0  0  0  0
   -3.9900    2.5540   -0.6370 O   0  0  0  0  0  0  0  0  0  0  0  0
   -5.7320    2.3370    1.3170 P   0  0  0  0  0  0  0  0  0  0  0  0
   -6.8620    1.0560    0.9160 O   0  0  0  0  0  0  0  0  0  0  0  0
   -6.3700    3.7850    0.5580 O   0  0  0  0  0  0  0  0  0  0  0  0
   -2.3800   -1.1220   -0.5790 C   0  0  0  0  0  0  0  0  0  0  0  0
   -0.9200   -1.4890   -0.3770 C   0  0  1  0  0  0  0  0  0  0  0  0
   -0.2390   -1.3310   -1.7390 C   0  0  0  0  0  0  0  0  0  0  0  0
   -0.9100   -2.9350    0.0350 C   0  0  0  0  0  0  0  0  0  0  0  0
   -1.4480   -3.6990   -1.0290 O   0  0  0  0  0  0  0  0  0  0  0  0
  1  2  1  0
  2  3  1  0
  3  4  2  0
  5  3  1  1
  5  6  1  0
  5 18  1  0
  5 27  1  0
  6  7  2  0
  6 17  1  0
  7  8  1  0
  8  9  1  0
  8 16  2  0
  9 10  2  0
  9 15  1  0
 10 11  1  0
 11 12  2  0
 12 13  1  0
 12 14  1  0
 14 15  2  0
 16 17  1  0
 18 19  1  0
 19 20  1  0
 19 26  1  0
 20 21  1  0
 21 22  1  6
 21 23  1  0
 23 24  1  0
 23 25  1  0
 26 27  1  0
 27 28  1  6
 27 29  1  0
 29 30  1  0
M  END
