
     RDKit          3D

 30 32  0  0  0  0  0  0  0  0999 V2000
   -3.2410    3.7290    0.1480 O   0  0  0  0  0  0  0  0  0  0  0  0
   -3.5090    2.6040    0.6140 C   0  0  0  0  0  0  0  0  0  0  0  0
   -2.7620    2.0690    1.6990 N   0  0  0  0  0  0  0  0  0  0  0  0
   -2.9700    0.6670    1.9630 C   0  0  0  0  0  0  0  0  0  0  0  0
   -3.0160    0.2660    3.1280 O   0  0  0  0  0  0  0  0  0  0  0  0
   -3.1190   -0.2130    0.7650 C   0  0  2  0  0  0  0  0  0  0  0  0
   -1.7090   -0.3610    0.2380 C   0  0  0  0  0  0  0  0  0  0  0  0
   -1.4720    0.4220   -0.7380 O   0  0  0  0  0  0  0  0  0  0  0  0
   -0.7720   -1.2610    0.7700 N   0  0  0  0  0  0  0  0  0  0  0  0
   -1.1750   -2.1600    1.8430 C   0  0  0  0  0  0  0  0  0  0  0  0
   -0.2150   -1.8830    2.9770 C   0  0  0  0  0  0  0  0  0  0  0  0
    0.6010   -0.8110    2.7270 O   0  0  0  0  0  0  0  0  0  0  0  0
    1.4050   -0.9320    1.5930 C   0  0  0  0  0  0  0  0  0  0  0  0
    0.6100   -1.4040    0.3640 C   0  0  1  0  0  0  0  0  0  0  0  0
    0.9710   -2.8500    0.0620 C   0  0  0  0  0  0  0  0  0  0  0  0
    2.3140   -2.9120   -0.3370 O   0  0  0  0  0  0  0  0  0  0  0  0
    0.9650   -0.6150   -0.8680 C   0  0  0  0  0  0  0  0  0  0  0  0
    2.2850   -0.7500   -1.3610 N   0  0  0  0  0  0  0  0  0  0  0  0
    3.3890   -0.2260   -0.6820 C   0  0  0  0  0  0  0  0  0  0  0  0
    3.4360    1.2920   -0.6460 C   0  0  0  0  0  0  0  0  0  0  0  0
    4.6510    1.7570    0.1110 C   0  0  0  0  0  0  0  0  0  0  0  0
    6.2470    1.2140   -0.6040 P   0  0  0  0  0  0  0  0  0  0  0  0
    6.5070   -0.4740   -0.6030 O   0  0  0  0  0  0  0  0  0  0  0  0
    6.5810    1.8940   -2.1440 O   0  0  0  0  0  0  0  0  0  0  0  0
   -3.9470    0.4670   -0.2210 N   0  0  0  0  0  0  0  0  0  0  0  0
   -4.2930    0.1740   -1.5630 C   0  0  0  0  0  0  0  0  0  0  0  0
   -3.7840   -0.7540   -2.2840 O   0  0  0  0  0  0  0  0  0  0  0  0
   -5.3370    1.0660   -2.0850 C   0  0  0  0  0  0  0  0  0  0  0  0
   -5.2850    2.2190   -1.0910 C   0  0  0  0  0  0  0  0  0  0  0  0
   -4.5980    1.7070    0.1220 C   0  0  2  0  0  0  0  0  0  0  0  0
  1  2  2  0
  2  3  1  0
  2 30  1  0
  3  4  1  0
  4  5  2  0
  4  6  1  0
  6  7  1  6
  6 25  1  0
  7  8  2  0
  7  9  1  0
  9 10  1  0
  9 14  1  0
 10 11  1  0
 11 12  1  0
 12 13  1  0
 13 14  1  0
 14 15  1  6
 14 17  1  0
 15 16  1  0
 17 18  1  0
 18 19  1  0
 19 20  1  0
 20 21  1  0
 21 22  1  0
 22 23  1  0
 22 24  1  0
 25 26  1  0
 25 30  1  0
 26 27  2  0
 26 28  1  0
 28 29  1  0
 30 29  1  6
M  END
