
     RDKit          3D

 31 33  0  0  0  0  0  0  0  0999 V2000
    7.1370   -1.2520    2.3540 O   0  0  0  0  0  0  0  0  0  0  0  0
    6.3820   -1.6470    1.4630 C   0  0  0  0  0  0  0  0  0  0  0  0
    6.6890   -2.7900    0.7490 O   0  0  0  0  0  0  0  0  0  0  0  0
    5.1530   -0.9380    1.1260 C   0  0  0  0  0  0  0  0  0  0  0  0
    4.7720    0.2130    1.7910 C   0  0  0  0  0  0  0  0  0  0  0  0
    3.6160    0.8680    1.4660 C   0  0  0  0  0  0  0  0  0  0  0  0
    2.7490    0.4280    0.4520 C   0  0  0  0  0  0  0  0  0  0  0  0
    1.6060    1.2050    0.2370 N   0  0  0  0  0  0  0  0  0  0  0  0
    0.5840    0.9940   -0.7190 C   0  0  0  0  0  0  0  0  0  0  0  0
    0.6950    0.0020   -1.4780 O   0  0  0  0  0  0  0  0  0  0  0  0
   -0.6000    1.9220   -0.8320 C   0  0  2  0  0  0  0  0  0  0  0  0
   -1.1470    2.2340    0.5050 C   0  0  0  0  0  0  0  0  0  0  0  0
   -1.6290    1.0400    1.3030 C   0  0  0  0  0  0  0  0  0  0  0  0
   -2.2590    1.6540    2.9700 P   0  0  0  0  0  0  0  0  0  0  0  0
   -1.0530    2.7020    3.6510 O   0  0  0  0  0  0  0  0  0  0  0  0
   -3.6920    2.5710    2.6580 O   0  0  0  0  0  0  0  0  0  0  0  0
   -1.5170    1.5610   -1.8410 N   0  0  0  0  0  0  0  0  0  0  0  0
   -2.2190    0.3480   -1.8860 C   0  0  0  0  0  0  0  0  0  0  0  0
   -1.7840   -0.7670   -1.4740 N   0  0  0  0  0  0  0  0  0  0  0  0
   -2.7580   -1.7850   -1.6740 C   0  0  0  0  0  0  0  0  0  0  0  0
   -2.8190   -3.1080   -1.4270 N   0  0  0  0  0  0  0  0  0  0  0  0
   -3.9100   -3.8320   -1.7360 C   0  0  0  0  0  0  0  0  0  0  0  0
   -3.9470   -5.0660   -1.4970 O   0  0  0  0  0  0  0  0  0  0  0  0
   -4.9750   -3.2750   -2.2980 O   0  0  0  0  0  0  0  0  0  0  0  0
   -4.9800   -1.9970   -2.5630 C   0  0  0  0  0  0  0  0  0  0  0  0
   -5.9740   -1.4150   -3.0990 O   0  0  0  0  0  0  0  0  0  0  0  0
   -3.8920   -1.2260   -2.2650 C   0  0  0  0  0  0  0  0  0  0  0  0
   -3.5820    0.1840   -2.4250 C   0  0  0  0  0  0  0  0  0  0  0  0
   -4.3360    1.0760   -2.9250 O   0  0  0  0  0  0  0  0  0  0  0  0
    3.1230   -0.7030   -0.2010 C   0  0  0  0  0  0  0  0  0  0  0  0
    4.3020   -1.3670    0.1340 C   0  0  0  0  0  0  0  0  0  0  0  0
  1  2  2  0
  2  3  1  0
  2  4  1  0
  4  5  2  0
  4 31  1  0
  5  6  1  0
  6  7  2  0
  7  8  1  0
  7 30  1  0
  8  9  1  0
  9 10  2  0
  9 11  1  0
 11 12  1  1
 11 17  1  0
 12 13  1  0
 13 14  1  0
 14 15  1  0
 14 16  1  0
 17 18  1  0
 18 19  2  0
 18 28  1  0
 19 20  1  0
 20 21  1  0
 20 27  2  0
 21 22  1  0
 22 23  2  0
 22 24  1  0
 24 25  1  0
 25 26  2  0
 25 27  1  0
 27 28  1  0
 28 29  2  0
 30 31  2  0
M  END
