
     RDKit          3D

 25 27  0  0  0  0  0  0  0  0999 V2000
   -7.2190    2.3880    0.1140 C   0  0  0  0  0  0  0  0  0  0  0  0
   -5.7220    2.3320   -0.1080 C   0  0  0  0  0  0  0  0  0  0  0  0
   -5.1360    1.3960    0.9190 C   0  0  0  0  0  0  0  0  0  0  0  0
   -3.6700    1.2630    0.7970 C   0  0  0  0  0  0  0  0  0  0  0  0
   -3.1560    0.0690    0.5610 C   0  0  0  0  0  0  0  0  0  0  0  0
   -3.9930   -1.1440    0.4130 C   0  0  0  0  0  0  0  0  0  0  0  0
   -1.7030   -0.0960    0.4380 C   0  0  0  0  0  0  0  0  0  0  0  0
   -0.7630   -1.6060    0.1170 S   0  0  0  0  0  0  0  0  0  0  0  0
    0.8540   -0.7420    0.1570 C   0  0  0  0  0  0  0  0  0  0  0  0
    2.1100   -1.4100   -0.0420 C   0  0  0  0  0  0  0  0  0  0  0  0
    2.1100   -2.6270   -0.2510 O   0  0  0  0  0  0  0  0  0  0  0  0
    3.2940   -0.6470    0.0100 N   0  0  0  0  0  0  0  0  0  0  0  0
    4.6180   -1.1420   -0.1630 C   0  0  0  0  0  0  0  0  0  0  0  0
    4.8810   -2.4690   -0.4090 C   0  0  0  0  0  0  0  0  0  0  0  0
    6.1730   -2.9540   -0.5790 C   0  0  0  0  0  0  0  0  0  0  0  0
    6.4450   -4.3150   -0.8310 N   0  0  0  0  0  0  0  0  0  0  0  0
    7.1990   -2.0430   -0.4900 C   0  0  0  0  0  0  0  0  0  0  0  0
    6.9530   -0.7160   -0.2450 C   0  0  0  0  0  0  0  0  0  0  0  0
    5.6570   -0.2150   -0.0720 C   0  0  0  0  0  0  0  0  0  0  0  0
    5.4610    1.1170    0.1700 O   0  0  0  0  0  0  0  0  0  0  0  0
    0.5180    0.5380    0.3990 C   0  0  0  0  0  0  0  0  0  0  0  0
   -0.7780    0.8780    0.5430 C   0  0  0  0  0  0  0  0  0  0  0  0
   -1.2800    2.2800    0.8200 C   0  0  0  0  0  0  0  0  0  0  0  0
   -2.7280    2.3530    0.9150 C   0  0  0  0  0  0  0  0  0  0  0  0
   -3.2320    3.4970    1.1270 O   0  0  0  0  0  0  0  0  0  0  0  0
  1  2  1  0
  2  3  1  0
  3  4  1  0
  4  5  2  0
  4 24  1  0
  5  6  1  0
  5  7  1  0
  7  8  1  0
  7 22  2  0
  8  9  1  0
  9 10  1  0
  9 21  2  0
 10 11  2  0
 10 12  1  0
 12 13  1  0
 13 14  2  0
 13 19  1  0
 14 15  1  0
 15 16  1  0
 15 17  2  0
 17 18  1  0
 18 19  2  0
 19 20  1  0
 21 22  1  0
 22 23  1  0
 23 24  1  0
 24 25  2  0
M  END
