
     RDKit          3D

 25 27  0  0  0  0  0  0  0  0999 V2000
   -7.6980   -0.3620    0.0170 C   0  0  0  0  0  0  0  0  0  0  0  0
   -6.2080   -0.3590   -0.1350 C   0  0  0  0  0  0  0  0  0  0  0  0
   -5.5050   -1.5150   -0.3930 C   0  0  0  0  0  0  0  0  0  0  0  0
   -4.1210   -1.5290   -0.5370 C   0  0  0  0  0  0  0  0  0  0  0  0
   -3.4100   -0.3520   -0.4210 C   0  0  0  0  0  0  0  0  0  0  0  0
   -1.9170   -0.2960   -0.5650 C   0  0  0  0  0  0  0  0  0  0  0  0
   -1.2480   -0.4960    0.7550 C   0  0  0  0  0  0  0  0  0  0  0  0
    0.1430   -0.4480    0.6220 O   0  0  0  0  0  0  0  0  0  0  0  0
    0.7710    0.6920    0.1860 C   0  0  0  0  0  0  0  0  0  0  0  0
    0.1030    1.6990   -0.0910 O   0  0  0  0  0  0  0  0  0  0  0  0
    2.2550    0.6920    0.0540 C   0  0  0  0  0  0  0  0  0  0  0  0
    2.8890   -0.3920    0.3600 C   0  0  0  0  0  0  0  0  0  0  0  0
    4.3620   -0.4720    0.2560 C   0  0  0  0  0  0  0  0  0  0  0  0
    4.9390   -1.6850    0.6090 C   0  0  0  0  0  0  0  0  0  0  0  0
    6.2990   -1.7810    0.5210 C   0  0  0  0  0  0  0  0  0  0  0  0
    7.0400   -0.6850    0.0900 C   0  0  0  0  0  0  0  0  0  0  0  0
    8.7870   -0.4170   -0.1540 S   0  0  0  0  0  0  0  0  0  0  0  0
    8.6050    1.3510   -0.7290 C   0  0  0  0  0  0  0  0  0  0  0  0
    9.5460    2.0350   -1.0400 O   0  0  0  0  0  0  0  0  0  0  0  0
    7.2970    1.4830   -0.6560 N   0  0  0  0  0  0  0  0  0  0  0  0
    6.5080    0.5220   -0.2660 C   0  0  0  0  0  0  0  0  0  0  0  0
    5.0980    0.5740   -0.1580 C   0  0  0  0  0  0  0  0  0  0  0  0
   -4.1030    0.8020   -0.1650 C   0  0  0  0  0  0  0  0  0  0  0  0
   -5.4940    0.8160   -0.0200 C   0  0  0  0  0  0  0  0  0  0  0  0
   -6.1730    2.0470    0.2470 N   0  0  0  0  0  0  0  0  0  0  0  0
  1  2  1  0
  2  3  2  0
  2 24  1  0
  3  4  1  0
  4  5  2  0
  5  6  1  0
  5 23  1  0
  6  7  1  0
  7  8  1  0
  8  9  1  0
  9 10  2  0
  9 11  1  0
 11 12  2  3
 12 13  1  0
 13 14  2  0
 13 22  1  0
 14 15  1  0
 15 16  2  0
 16 17  1  0
 16 21  1  0
 17 18  1  0
 18 19  2  0
 18 20  1  0
 20 21  1  0
 21 22  2  0
 23 24  2  0
 24 25  1  0
M  END
