
     RDKit          3D

 25 27  0  0  0  0  0  0  0  0999 V2000
   -4.7320   -2.5040   -0.8870 C   0  0  0  0  0  0  0  0  0  0  0  0
   -4.0560   -1.2610   -0.4630 C   0  0  0  0  0  0  0  0  0  0  0  0
   -4.7460   -0.1340   -0.0940 C   0  0  0  0  0  0  0  0  0  0  0  0
   -4.1050    1.0200    0.3000 C   0  0  0  0  0  0  0  0  0  0  0  0
   -4.8970    2.2290    0.6960 C   0  0  0  0  0  0  0  0  0  0  0  0
   -2.7400    1.0890    0.3380 C   0  0  0  0  0  0  0  0  0  0  0  0
   -2.0700    2.3380    0.7640 C   0  0  0  0  0  0  0  0  0  0  0  0
   -2.0030   -0.0510   -0.0350 C   0  0  0  0  0  0  0  0  0  0  0  0
   -0.6050    0.1050    0.0320 N   0  0  0  0  0  0  0  0  0  0  0  0
    0.3780   -0.8650   -0.2780 C   0  0  0  0  0  0  0  0  0  0  0  0
   -0.0080   -2.0190   -0.6630 O   0  0  0  0  0  0  0  0  0  0  0  0
    1.8130   -0.6340   -0.1870 C   0  0  0  0  0  0  0  0  0  0  0  0
    2.3880    0.5420    0.2070 C   0  0  0  0  0  0  0  0  0  0  0  0
    3.7630    0.7510    0.2900 C   0  0  0  0  0  0  0  0  0  0  0  0
    4.1980    2.0620    0.7260 C   0  0  0  0  0  0  0  0  0  0  0  0
    5.4120    2.3700    0.8430 O   0  0  0  0  0  0  0  0  0  0  0  0
    3.2430    3.0610    1.0430 O   0  0  0  0  0  0  0  0  0  0  0  0
    4.6410   -0.3040   -0.0480 C   0  0  0  0  0  0  0  0  0  0  0  0
    5.9820   -0.2600   -0.0190 C   0  0  0  0  0  0  0  0  0  0  0  0
    6.7110   -1.3620   -0.3750 C   0  0  0  0  0  0  0  0  0  0  0  0
    5.3630   -2.5460   -0.7790 S   0  0  0  0  0  0  0  0  0  0  0  0
    4.0290   -1.4450   -0.4300 C   0  0  0  0  0  0  0  0  0  0  0  0
    2.6700   -1.6600   -0.5150 C   0  0  0  0  0  0  0  0  0  0  0  0
    2.2110   -2.9290   -0.9380 N   0  0  0  0  0  0  0  0  0  0  0  0
   -2.6580   -1.1960   -0.4250 C   0  0  0  0  0  0  0  0  0  0  0  0
  1  2  1  0
  2  3  2  0
  2 25  1  0
  3  4  1  0
  4  5  1  0
  4  6  2  0
  6  7  1  0
  6  8  1  0
  8  9  1  0
  8 25  2  0
  9 10  1  0
 10 11  2  0
 10 12  1  0
 12 13  2  0
 12 23  1  0
 13 14  1  0
 14 15  1  0
 14 18  2  0
 15 16  2  0
 15 17  1  0
 18 19  1  0
 18 22  1  0
 19 20  2  0
 20 21  1  0
 21 22  1  0
 22 23  2  0
 23 24  1  0
M  END
