
     RDKit          3D

 25 27  0  0  0  0  0  0  0  0999 V2000
   -2.3950   -2.4480    0.6540 C   0  0  0  0  0  0  0  0  0  0  0  0
   -3.2850   -1.2820    0.3560 C   0  0  0  0  0  0  0  0  0  0  0  0
   -3.2750   -0.0810    0.9380 C   0  0  0  0  0  0  0  0  0  0  0  0
   -2.1980    0.3790    2.1920 S   0  0  1  0  0  0  0  0  0  0  0  0
   -2.9720    1.2950    3.1430 O   0  0  0  0  0  0  0  0  0  0  0  0
   -1.8750   -0.8640    3.0060 O   0  0  0  0  0  0  0  0  0  0  0  0
   -0.7920    1.2020    1.7420 N   0  0  0  0  0  0  0  0  0  0  0  0
    0.1720    0.6210    0.8980 C   0  0  0  0  0  0  0  0  0  0  0  0
   -0.1290    0.0950   -0.3350 C   0  0  0  0  0  0  0  0  0  0  0  0
    0.8470   -0.4470   -1.1550 C   0  0  0  0  0  0  0  0  0  0  0  0
    2.1420   -0.4430   -0.6940 C   0  0  0  0  0  0  0  0  0  0  0  0
    2.4810    0.0790    0.5430 C   0  0  0  0  0  0  0  0  0  0  0  0
    1.4930    0.6110    1.3380 C   0  0  0  0  0  0  0  0  0  0  0  0
    3.7360    0.2360    1.3150 C   0  0  0  0  0  0  0  0  0  0  0  0
    5.0160    0.3670    1.0230 C   0  0  0  0  0  0  0  0  0  0  0  0
    5.7740    0.4170   -0.2520 C   0  0  0  0  0  0  0  0  0  0  0  0
    5.3380   -0.6230   -1.2350 C   0  0  0  0  0  0  0  0  0  0  0  0
    4.1290   -0.1720   -2.0390 C   0  0  0  0  0  0  0  0  0  0  0  0
    2.9520   -1.0760   -1.7600 C   0  0  0  0  0  0  0  0  0  0  0  0
   -4.3430    0.7080    0.3190 C   0  0  0  0  0  0  0  0  0  0  0  0
   -4.6610    1.9480    0.6140 C   0  0  0  0  0  0  0  0  0  0  0  0
   -5.7180    2.5900   -0.0660 N   0  0  0  0  0  0  0  0  0  0  0  0
   -4.9700   -0.1300   -0.6670 C   0  0  0  0  0  0  0  0  0  0  0  0
   -6.0320    0.1890   -1.5050 O   0  0  0  0  0  0  0  0  0  0  0  0
   -4.3340   -1.2860   -0.6240 C   0  0  0  0  0  0  0  0  0  0  0  0
  1  2  1  0
  2  3  2  0
  2 25  1  0
  3  4  1  0
  3 20  1  0
  4  5  2  0
  4  6  2  0
  4  7  1  6
  7  8  1  0
  8  9  2  0
  8 13  1  0
  9 10  1  0
 10 11  2  0
 11 12  1  0
 11 19  1  0
 12 13  2  0
 12 14  1  0
 14 15  2  0
 15 16  1  0
 16 17  1  0
 17 18  1  0
 18 19  1  0
 20 21  2  3
 20 23  1  0
 21 22  1  0
 23 24  1  0
 23 25  2  0
M  END
