
     RDKit          3D

 25 28  0  0  0  0  0  0  0  0999 V2000
   -0.6250    0.6880   -2.7800 N   0  0  0  0  0  0  0  0  0  0  0  0
    0.2660    0.3160   -1.7360 C   0  0  0  0  0  0  0  0  0  0  0  0
    1.6070    0.6480   -1.8160 C   0  0  0  0  0  0  0  0  0  0  0  0
    2.4690    0.2830   -0.7960 C   0  0  0  0  0  0  0  0  0  0  0  0
    3.8130    0.5870   -0.8230 C   0  0  0  0  0  0  0  0  0  0  0  0
    4.2770    1.2190   -1.8070 O   0  0  0  0  0  0  0  0  0  0  0  0
    4.6760    0.2210    0.1990 C   0  0  0  0  0  0  0  0  0  0  0  0
    6.0220    0.5290    0.1680 C   0  0  0  0  0  0  0  0  0  0  0  0
    6.8890    0.1690    1.1800 C   0  0  0  0  0  0  0  0  0  0  0  0
    6.3610   -0.5230    2.2500 C   0  0  0  0  0  0  0  0  0  0  0  0
    5.0090   -0.8380    2.2930 C   0  0  0  0  0  0  0  0  0  0  0  0
    4.1470   -0.4680    1.2640 C   0  0  0  0  0  0  0  0  0  0  0  0
    2.8310   -0.7720    1.3020 N   0  0  0  0  0  0  0  0  0  0  0  0
    1.9870   -0.4100    0.2940 C   0  0  0  0  0  0  0  0  0  0  0  0
    0.6400   -0.7420    0.3700 C   0  0  0  0  0  0  0  0  0  0  0  0
   -0.2250   -0.3800   -0.6450 C   0  0  0  0  0  0  0  0  0  0  0  0
   -1.9430   -0.7760   -0.5960 S   0  0  0  0  0  0  0  0  0  0  0  0
   -2.9380    0.4980    0.1980 C   0  0  0  0  0  0  0  0  0  0  0  0
   -4.3590    0.0510    0.1770 C   0  0  0  0  0  0  0  0  0  0  0  0
   -4.7120   -1.0970   -0.3560 C   0  0  0  0  0  0  0  0  0  0  0  0
   -6.1010   -1.6130   -0.4150 C   0  0  0  0  0  0  0  0  0  0  0  0
   -7.0450   -0.7600    0.1560 O   0  0  0  0  0  0  0  0  0  0  0  0
   -6.6760    0.4510    0.7180 C   0  0  0  0  0  0  0  0  0  0  0  0
   -5.4250    0.8800    0.7540 C   0  0  0  0  0  0  0  0  0  0  0  0
   -5.1160    2.1050    1.3330 O   0  0  0  0  0  0  0  0  0  0  0  0
  1  2  1  0
  2  3  2  0
  2 16  1  0
  3  4  1  0
  4  5  1  0
  4 14  2  0
  5  6  2  0
  5  7  1  0
  7  8  2  0
  7 12  1  0
  8  9  1  0
  9 10  2  0
 10 11  1  0
 11 12  2  0
 12 13  1  0
 13 14  1  0
 14 15  1  0
 15 16  2  0
 16 17  1  0
 17 18  1  0
 18 19  1  0
 19 20  2  0
 19 24  1  0
 20 21  1  0
 21 22  1  0
 22 23  1  0
 23 24  2  0
 24 25  1  0
M  END
