
     RDKit          3D

 25 27  0  0  0  0  0  0  0  0999 V2000
    4.8140    0.0040   -1.7520 C   0  0  0  0  0  0  0  0  0  0  0  0
    4.0150   -0.8550   -1.1650 C   0  0  0  0  0  0  0  0  0  0  0  0
    4.2450   -2.3030   -1.3660 C   0  0  0  0  0  0  0  0  0  0  0  0
    3.3150   -3.1640   -0.5790 C   0  0  0  0  0  0  0  0  0  0  0  0
    2.9600   -2.5710    0.7650 C   0  0  0  0  0  0  0  0  0  0  0  0
    2.3990   -1.2020    0.6280 C   0  0  0  0  0  0  0  0  0  0  0  0
    1.3840   -0.7220    1.3970 C   0  0  0  0  0  0  0  0  0  0  0  0
    0.8430    0.5700    1.2770 C   0  0  0  0  0  0  0  0  0  0  0  0
   -0.4960    1.0510    2.2910 S   0  0  2  0  0  0  0  0  0  0  0  0
   -0.0490    2.2150    3.1230 O   0  0  0  0  0  0  0  0  0  0  0  0
   -0.6720   -0.0770    3.2950 O   0  0  0  0  0  0  0  0  0  0  0  0
   -1.8920    1.4250    1.4660 N   0  0  0  0  0  0  0  0  0  0  0  0
   -2.5550    0.4570    0.6730 C   0  0  1  0  0  0  0  0  0  0  0  0
   -2.9210   -0.7670    1.5240 C   0  0  0  0  0  0  0  0  0  0  0  0
   -3.8860    1.0880    0.3080 C   0  0  0  0  0  0  0  0  0  0  0  0
   -4.4980    0.5680   -0.9320 C   0  0  0  0  0  0  0  0  0  0  0  0
   -3.5140    0.4480   -2.0820 C   0  0  0  0  0  0  0  0  0  0  0  0
   -2.5010   -0.5790   -1.6200 C   0  0  0  0  0  0  0  0  0  0  0  0
   -1.7390    0.0310   -0.4710 C   0  0  0  0  0  0  0  0  0  0  0  0
    1.3580    1.4230    0.3270 C   0  0  0  0  0  0  0  0  0  0  0  0
    0.9790    2.7860    0.0950 C   0  0  0  0  0  0  0  0  0  0  0  0
    0.2700    3.6320    0.9440 N   0  0  0  0  0  0  0  0  0  0  0  0
    1.3270    3.3160   -1.0200 O   0  0  0  0  0  0  0  0  0  0  0  0
    2.4110    0.9060   -0.4630 C   0  0  0  0  0  0  0  0  0  0  0  0
    2.9250   -0.3530   -0.3330 C   0  0  0  0  0  0  0  0  0  0  0  0
  1  2  2  0
  2  3  1  0
  2 25  1  0
  3  4  1  0
  4  5  1  0
  5  6  1  0
  6  7  2  0
  6 25  1  0
  7  8  1  0
  8  9  1  0
  8 20  2  0
  9 10  2  0
  9 11  2  0
  9 12  1  6
 12 13  1  0
 13 14  1  1
 13 15  1  0
 13 19  1  0
 15 16  1  0
 16 17  1  0
 17 18  1  0
 18 19  1  0
 20 21  1  0
 20 24  1  0
 21 22  1  0
 21 23  2  0
 24 25  2  0
M  END
