
     RDKit          3D

 14 14  0  0  0  0  0  0  0  0999 V2000
    0.8450    2.3590   -0.1850 C   0  0  0  0  0  0  0  0  0  0  0  0
    0.2870    0.9840   -0.5710 C   0  0  2  0  0  0  0  0  0  0  0  0
   -1.0460    1.0110   -0.3400 O   0  0  0  0  0  0  0  0  0  0  0  0
   -1.6810   -0.1790   -0.1750 C   0  0  2  0  0  0  0  0  0  0  0  0
   -2.9630   -0.1470   -1.0070 C   0  0  0  0  0  0  0  0  0  0  0  0
   -2.1310   -0.3290    1.2800 C   0  0  0  0  0  0  0  0  0  0  0  0
   -0.9060   -1.3850   -0.6090 C   0  0  2  0  0  0  0  0  0  0  0  0
   -1.6560   -2.5160   -0.2590 O   0  0  0  0  0  0  0  0  0  0  0  0
    0.4130   -1.4150    0.1110 C   0  0  0  0  0  0  0  0  0  0  0  0
    1.0630   -0.0530    0.1670 C   0  0  1  0  0  0  0  0  0  0  0  0
    2.4010   -0.0850   -0.4240 N   0  0  0  0  0  0  0  0  0  0  0  0
    3.6140    0.3920    0.6840 S   0  0  1  0  0  0  0  0  0  0  0  0
    3.2890    0.1120    2.0940 O   0  0  0  0  0  0  0  0  0  0  0  0
    4.9190   -0.2290    0.2860 O   0  0  0  0  0  0  0  0  0  0  0  0
  2  1  1  1
  2  3  1  0
  2 10  1  0
  3  4  1  0
  4  5  1  6
  4  6  1  0
  4  7  1  0
  7  8  1  1
  7  9  1  0
  9 10  1  0
 10 11  1  6
 12 11  1  6
 12 13  2  0
 12 14  2  0
M  END
