
     RDKit          3D

 14 15  0  0  0  0  0  0  0  0999 V2000
    4.0220    0.4190    0.8560 C   0  0  0  0  0  0  0  0  0  0  0  0
    2.6380   -0.0090    0.5200 C   0  0  0  0  0  0  0  0  0  0  0  0
    2.1500   -0.4930   -0.5270 N   0  0  0  0  0  0  0  0  0  0  0  0
    0.7870   -0.8170   -0.5910 C   0  0  1  0  0  0  0  0  0  0  0  0
    0.2780   -1.1910    0.7700 C   0  0  2  0  0  0  0  0  0  0  0  0
   -1.0340   -1.1420    0.9960 O   0  0  0  0  0  0  0  0  0  0  0  0
   -1.7770   -0.1600    0.4440 C   0  0  2  0  0  0  0  0  0  0  0  0
   -2.8510   -0.6890   -0.5160 C   0  0  0  0  0  0  0  0  0  0  0  0
   -3.5650    0.3890   -1.0340 O   0  0  0  0  0  0  0  0  0  0  0  0
   -1.0220    0.9150   -0.2650 C   0  0  1  0  0  0  0  0  0  0  0  0
   -0.5940    1.9400    0.5980 O   0  0  0  0  0  0  0  0  0  0  0  0
    0.0620    0.3970   -1.1420 C   0  0  2  0  0  0  0  0  0  0  0  0
   -0.4400    0.0640   -2.3990 O   0  0  0  0  0  0  0  0  0  0  0  0
    1.2530    0.0780    1.6970 S   0  0  0  0  0  0  0  0  0  0  0  0
  1  2  1  0
  2  3  2  0
  2 14  1  0
  4  3  1  1
  4  5  1  0
  4 12  1  0
  5  6  1  6
  5 14  1  0
  6  7  1  0
  7  8  1  6
  7 10  1  0
  8  9  1  0
 10 11  1  1
 10 12  1  0
 12 13  1  6
M  END
