
     RDKit          3D

 12 12  0  0  0  0  0  0  0  0999 V2000
   -0.1150    2.2790    1.3060 O   0  0  0  0  0  0  0  0  0  0  0  0
   -0.2660    1.8560    0.0090 C   0  0  0  0  0  0  0  0  0  0  0  0
   -0.3320    0.3340    0.0270 C   0  0  1  0  0  0  0  0  0  0  0  0
    0.8350   -0.2610    0.7710 C   0  0  1  0  0  0  0  0  0  0  0  0
    0.6770   -1.6370    0.9170 O   0  0  0  0  0  0  0  0  0  0  0  0
    2.1520   -0.0180    0.1240 C   0  0  1  0  0  0  0  0  0  0  0  0
    2.4750    1.2960   -0.0960 O   0  0  0  0  0  0  0  0  0  0  0  0
    3.1370   -0.5360    1.0000 O   0  0  0  0  0  0  0  0  0  0  0  0
   -1.6510   -0.0110    0.6920 C   0  0  0  0  0  0  0  0  0  0  0  0
   -2.2990   -1.0610   -0.1390 C   0  0  0  0  0  0  0  0  0  0  0  0
   -1.3340   -1.3580   -1.2430 C   0  0  0  0  0  0  0  0  0  0  0  0
   -0.4880   -0.2120   -1.2850 N   0  0  0  0  0  0  0  0  0  0  0  0
  1  2  1  0
  3  2  1  6
  3  4  1  0
  3  9  1  0
  3 12  1  0
  4  5  1  6
  4  6  1  0
  6  7  1  1
  6  8  1  0
  9 10  1  0
 10 11  1  0
 11 12  1  0
M  CHG  1  12   1
M  END
