
     RDKit          3D

 21 23  0  0  0  0  0  0  0  0999 V2000
    6.3370   -2.3220    0.7170 O   0  0  0  0  0  0  0  0  0  0  0  0
    6.1560   -1.0790    0.9320 C   0  0  0  0  0  0  0  0  0  0  0  0
    4.8830   -0.4860    0.5650 C   0  0  0  0  0  0  0  0  0  0  0  0
    4.5380    0.8380    0.7330 C   0  0  0  0  0  0  0  0  0  0  0  0
    3.2470    1.0350    0.2670 C   0  0  0  0  0  0  0  0  0  0  0  0
    2.4170    2.1300    0.1910 C   0  0  0  0  0  0  0  0  0  0  0  0
    1.1590    1.9810   -0.3420 C   0  0  0  0  0  0  0  0  0  0  0  0
    0.7060    0.7630   -0.8030 C   0  0  0  0  0  0  0  0  0  0  0  0
   -0.5350    0.5720   -1.3380 O   0  0  0  0  0  0  0  0  0  0  0  0
   -1.6670    0.2250   -0.6320 C   0  0  0  0  0  0  0  0  0  0  0  0
   -1.5770    0.0670    0.5920 O   0  0  0  0  0  0  0  0  0  0  0  0
   -2.8850    0.0630   -1.3320 N   0  0  0  0  0  0  0  0  0  0  0  0
   -4.0940   -0.2930   -0.6820 C   0  0  0  0  0  0  0  0  0  0  0  0
   -4.3600   -0.5430    0.6440 C   0  0  0  0  0  0  0  0  0  0  0  0
   -5.6800   -0.8480    0.7790 N   0  0  0  0  0  0  0  0  0  0  0  0
   -6.2980   -0.8100   -0.4080 C   0  0  0  0  0  0  0  0  0  0  0  0
   -7.6130   -1.0660   -0.6060 F   0  0  0  0  0  0  0  0  0  0  0  0
   -5.3220   -0.4670   -1.3170 C   0  0  0  0  0  0  0  0  0  0  0  0
    1.5670   -0.3090   -0.7090 C   0  0  0  0  0  0  0  0  0  0  0  0
    2.8350   -0.2120   -0.1840 C   0  0  0  0  0  0  0  0  0  0  0  0
    3.8380   -1.0870    0.0120 N   0  0  0  0  0  0  0  0  0  0  0  0
  1  2  2  0
  2  3  1  0
  3  4  2  0
  3 21  1  0
  4  5  1  0
  5  6  2  0
  5 20  1  0
  6  7  1  0
  7  8  2  0
  8  9  1  0
  8 19  1  0
  9 10  1  0
 10 11  2  0
 10 12  1  0
 12 13  1  0
 13 14  2  0
 13 18  1  0
 14 15  1  0
 15 16  1  0
 16 17  1  0
 16 18  2  0
 19 20  2  0
 20 21  1  0
M  END
