
     RDKit          3D

 21 23  0  0  0  0  0  0  0  0999 V2000
    7.1780    0.6690   -0.3750 C   0  0  0  0  0  0  0  0  0  0  0  0
    5.8670    0.1960   -0.2580 O   0  0  0  0  0  0  0  0  0  0  0  0
    4.7360    0.9810   -0.3420 C   0  0  0  0  0  0  0  0  0  0  0  0
    4.8750    2.2090   -0.5360 O   0  0  0  0  0  0  0  0  0  0  0  0
    3.3920    0.4340   -0.2130 C   0  0  0  0  0  0  0  0  0  0  0  0
    3.0580   -0.8780    0.0000 C   0  0  0  0  0  0  0  0  0  0  0  0
    1.6980   -1.0120    0.0660 N   0  0  0  0  0  0  0  0  0  0  0  0
    1.1510    0.1940   -0.1020 C   0  0  0  0  0  0  0  0  0  0  0  0
   -0.2630    0.5770   -0.1100 C   0  0  0  0  0  0  0  0  0  0  0  0
   -0.5010    1.8280   -0.3050 O   0  0  0  0  0  0  0  0  0  0  0  0
   -1.3640   -0.2650    0.0700 N   0  0  0  0  0  0  0  0  0  0  0  0
   -1.3670   -1.6720    0.3080 C   0  0  0  0  0  0  0  0  0  0  0  0
   -2.7660   -2.1400    0.5390 C   0  0  0  0  0  0  0  0  0  0  0  0
   -3.5980   -0.9590    0.3180 C   0  0  0  0  0  0  0  0  0  0  0  0
   -4.9310   -0.8760    0.3560 C   0  0  0  0  0  0  0  0  0  0  0  0
   -5.6820   -1.9690    0.6260 F   0  0  0  0  0  0  0  0  0  0  0  0
   -5.5390    0.3700    0.1110 N   0  0  0  0  0  0  0  0  0  0  0  0
   -4.7800    1.5440   -0.1760 C   0  0  0  0  0  0  0  0  0  0  0  0
   -3.3150    1.3300   -0.1940 C   0  0  0  0  0  0  0  0  0  0  0  0
   -2.7280    0.1570    0.0370 C   0  0  0  0  0  0  0  0  0  0  0  0
    2.2090    1.1080   -0.2780 C   0  0  0  0  0  0  0  0  0  0  0  0
  1  2  1  0
  2  3  1  0
  3  4  2  0
  3  5  1  0
  5  6  2  0
  5 21  1  0
  6  7  1  0
  7  8  1  0
  8  9  1  0
  8 21  2  0
  9 10  2  0
  9 11  1  0
 11 12  1  0
 11 20  1  0
 12 13  1  0
 13 14  1  0
 14 15  2  0
 14 20  1  0
 15 16  1  0
 15 17  1  0
 17 18  1  0
 18 19  1  0
 19 20  2  0
M  END
