
     RDKit          3D

 21 23  0  0  0  0  0  0  0  0999 V2000
    5.7820   -0.2410    0.0040 C   0  0  0  0  0  0  0  0  0  0  0  0
    4.5970    0.2880   -0.5350 O   0  0  0  0  0  0  0  0  0  0  0  0
    3.3590   -0.0910    0.0150 C   0  0  0  0  0  0  0  0  0  0  0  0
    3.2720   -0.9650    1.0640 C   0  0  0  0  0  0  0  0  0  0  0  0
    2.0810   -1.3540    1.6200 C   0  0  0  0  0  0  0  0  0  0  0  0
    0.9160   -0.8110    1.0640 C   0  0  0  0  0  0  0  0  0  0  0  0
   -0.2970   -1.1670    1.5840 C   0  0  0  0  0  0  0  0  0  0  0  0
   -0.3430   -1.9800    2.5560 O   0  0  0  0  0  0  0  0  0  0  0  0
   -1.4600   -0.6560    1.0650 N   0  0  0  0  0  0  0  0  0  0  0  0
   -1.4160    0.1970    0.0440 C   0  0  0  0  0  0  0  0  0  0  0  0
   -0.2180    0.5870   -0.5140 C   0  0  0  0  0  0  0  0  0  0  0  0
    0.9610    0.0860   -0.0090 C   0  0  0  0  0  0  0  0  0  0  0  0
    2.1970    0.4390   -0.5260 C   0  0  0  0  0  0  0  0  0  0  0  0
    2.2860    1.3100   -1.5720 O   0  0  0  0  0  0  0  0  0  0  0  0
   -2.6570    0.7390   -0.5190 C   0  0  0  0  0  0  0  0  0  0  0  0
   -2.5660    1.6440   -1.5960 N   0  0  0  0  0  0  0  0  0  0  0  0
   -3.7280    1.7110   -2.4960 C   0  0  0  0  0  0  0  0  0  0  0  0
   -4.8660    2.0870   -1.8140 F   0  0  0  0  0  0  0  0  0  0  0  0
   -3.7430    0.3540    0.0100 N   0  0  0  0  0  0  0  0  0  0  0  0
   -3.9100   -0.5410    1.0860 C   0  0  0  0  0  0  0  0  0  0  0  0
   -2.6750   -1.0800    1.6790 C   0  0  0  0  0  0  0  0  0  0  0  0
  1  2  1  0
  2  3  1  0
  3  4  2  0
  3 13  1  0
  4  5  1  0
  5  6  2  0
  6  7  1  0
  6 12  1  0
  7  8  2  0
  7  9  1  0
  9 10  1  0
  9 21  1  0
 10 11  2  0
 10 15  1  0
 11 12  1  0
 12 13  2  0
 13 14  1  0
 15 16  1  0
 15 19  2  0
 16 17  1  0
 17 18  1  0
 19 20  1  0
 20 21  1  0
M  END
