
     RDKit          3D

 21 23  0  0  0  0  0  0  0  0999 V2000
   -3.2970    5.8190   -0.9460 N   0  0  0  0  0  0  0  0  0  0  0  0
   -2.7470    5.5090    0.3190 C   0  0  0  0  0  0  0  0  0  0  0  0
   -2.8900    6.3480    1.2450 O   0  0  0  0  0  0  0  0  0  0  0  0
   -2.0240    4.2370    0.5470 C   0  0  0  0  0  0  0  0  0  0  0  0
   -1.5030    3.8800    1.6410 N   0  0  0  0  0  0  0  0  0  0  0  0
   -0.8870    2.6350    1.5730 N   0  0  0  0  0  0  0  0  0  0  0  0
   -1.0500    2.1550    0.2480 C   0  0  0  0  0  0  0  0  0  0  0  0
   -0.6060    1.0020   -0.2280 C   0  0  0  0  0  0  0  0  0  0  0  0
   -0.8540    0.7060   -1.5190 F   0  0  0  0  0  0  0  0  0  0  0  0
    0.1230    0.0840    0.6090 C   0  0  0  0  0  0  0  0  0  0  0  0
    0.5900   -1.0770    0.1940 C   0  0  0  0  0  0  0  0  0  0  0  0
    0.3790   -1.5010   -1.1920 C   0  0  0  0  0  0  0  0  0  0  0  0
    0.9670   -2.7590   -1.4720 O   0  0  0  0  0  0  0  0  0  0  0  0
    1.6430   -3.5340   -0.5730 C   0  0  0  0  0  0  0  0  0  0  0  0
    2.1740   -4.7690   -0.9520 C   0  0  0  0  0  0  0  0  0  0  0  0
    2.8520   -5.5440   -0.0430 C   0  0  0  0  0  0  0  0  0  0  0  0
    3.0060   -5.0940    1.2500 C   0  0  0  0  0  0  0  0  0  0  0  0
    2.4850   -3.8710    1.6400 C   0  0  0  0  0  0  0  0  0  0  0  0
    1.8120   -3.1180    0.7120 C   0  0  0  0  0  0  0  0  0  0  0  0
    1.2770   -1.8760    1.0900 O   0  0  0  0  0  0  0  0  0  0  0  0
   -1.8120    3.2020   -0.4810 C   0  0  0  0  0  0  0  0  0  0  0  0
  1  2  1  0
  2  3  2  0
  2  4  1  0
  4  5  2  0
  4 21  1  0
  5  6  1  0
  6  7  1  0
  7  8  2  3
  7 21  1  0
  8  9  1  0
  8 10  1  0
 10 11  2  3
 11 12  1  0
 11 20  1  0
 12 13  1  0
 13 14  1  0
 14 15  2  0
 14 19  1  0
 15 16  1  0
 16 17  2  0
 17 18  1  0
 18 19  2  0
 19 20  1  0
M  END
