
     RDKit          3D

 20 22  0  0  0  0  0  0  0  0999 V2000
   -5.4480   -1.2670    1.6450 C   0  0  0  0  0  0  0  0  0  0  0  0
   -4.1790   -0.6390    1.1150 C   0  0  0  0  0  0  0  0  0  0  0  0
   -4.0640    0.6330    0.6430 C   0  0  0  0  0  0  0  0  0  0  0  0
   -2.7320    0.7920    0.2610 C   0  0  0  0  0  0  0  0  0  0  0  0
   -2.1870    2.0490   -0.3250 C   0  0  0  0  0  0  0  0  0  0  0  0
   -2.0550   -0.3660    0.5000 C   0  0  0  0  0  0  0  0  0  0  0  0
   -0.6730   -0.7360    0.3120 C   0  0  0  0  0  0  0  0  0  0  0  0
   -0.3610   -1.9640    0.5200 O   0  0  0  0  0  0  0  0  0  0  0  0
    0.3880    0.1050   -0.0780 N   0  0  0  0  0  0  0  0  0  0  0  0
    1.7410   -0.2320   -0.2690 C   0  0  0  0  0  0  0  0  0  0  0  0
    2.3500   -1.4310   -0.0520 C   0  0  0  0  0  0  0  0  0  0  0  0
    3.6930   -1.6710   -0.2760 C   0  0  0  0  0  0  0  0  0  0  0  0
    4.4920   -0.6560   -0.7470 C   0  0  0  0  0  0  0  0  0  0  0  0
    5.7660   -0.5530   -1.0560 O   0  0  0  0  0  0  0  0  0  0  0  0
    6.0220    0.6690   -1.4690 C   0  0  0  0  0  0  0  0  0  0  0  0
    7.1270    1.1570   -1.8530 O   0  0  0  0  0  0  0  0  0  0  0  0
    4.9000    1.4150   -1.4410 N   0  0  0  0  0  0  0  0  0  0  0  0
    3.9290    0.5840   -0.9860 C   0  0  0  0  0  0  0  0  0  0  0  0
    2.5860    0.7810   -0.7500 C   0  0  0  0  0  0  0  0  0  0  0  0
   -2.9810   -1.2170    1.0240 N   0  0  0  0  0  0  0  0  0  0  0  0
  1  2  1  0
  2  3  2  0
  2 20  1  0
  3  4  1  0
  4  5  1  0
  4  6  2  0
  6  7  1  0
  6 20  1  0
  7  8  2  0
  7  9  1  0
  9 10  1  0
 10 11  2  0
 10 19  1  0
 11 12  1  0
 12 13  2  0
 13 14  1  0
 13 18  1  0
 14 15  1  0
 15 16  2  0
 15 17  1  0
 17 18  1  0
 18 19  2  0
M  END
