
     RDKit          3D

 35 39  0  0  0  0  0  0  0  0999 V2000
    2.7200   -2.4960   -3.1650 C   0  0  0  0  0  0  0  0  0  0  0  0
    3.6480   -3.4480   -2.4500 C   0  0  2  0  0  0  0  0  0  0  0  0
    3.2630   -4.8780   -2.6140 C   0  0  0  0  0  0  0  0  0  0  0  0
    2.8400   -5.3530   -1.3890 O   0  0  0  0  0  0  0  0  0  0  0  0
    3.5910   -4.6650   -0.4400 C   0  0  0  0  0  0  0  0  0  0  0  0
    3.6310   -3.2590   -0.9550 C   0  0  2  0  0  0  0  0  0  0  0  0
    2.5890   -2.4480   -0.5010 O   0  0  0  0  0  0  0  0  0  0  0  0
    2.7860   -1.3090    0.2360 C   0  0  0  0  0  0  0  0  0  0  0  0
    3.9610   -0.9790    0.5170 O   0  0  0  0  0  0  0  0  0  0  0  0
    1.6020   -0.5310    0.6610 C   0  0  0  0  0  0  0  0  0  0  0  0
    0.4080   -0.9540    0.3200 C   0  0  0  0  0  0  0  0  0  0  0  0
   -0.8320   -0.2990    0.6610 C   0  0  0  0  0  0  0  0  0  0  0  0
   -2.0110   -0.7460    0.3090 C   0  0  0  0  0  0  0  0  0  0  0  0
   -2.2170   -1.9890   -0.4910 C   0  0  0  0  0  0  0  0  0  0  0  0
   -2.7570   -1.4760   -1.8340 C   0  0  0  0  0  0  0  0  0  0  0  0
   -4.0470   -0.7630   -1.6330 C   0  0  0  0  0  0  0  0  0  0  0  0
   -3.9000    0.4040   -0.6580 C   0  0  1  0  0  0  0  0  0  0  0  0
   -5.2230    1.1020   -0.4740 C   0  0  0  0  0  0  0  0  0  0  0  0
   -6.0770    0.4810    0.5800 C   0  0  0  0  0  0  0  0  0  0  0  0
   -5.3060    0.0820    1.8120 C   0  0  1  0  0  0  0  0  0  0  0  0
   -4.2730   -0.9640    1.3670 C   0  0  0  0  0  0  0  0  0  0  0  0
   -3.2870   -0.0450    0.6470 C   0  0  1  0  0  0  0  0  0  0  0  0
   -3.1060    1.0850    1.5770 C   0  0  0  0  0  0  0  0  0  0  0  0
   -4.4430    1.1980    2.3180 C   0  0  1  0  0  0  0  0  0  0  0  0
   -5.1610    2.7980    2.1200 Cl  0  0  0  0  0  0  0  0  0  0  0  0
   -4.2190    0.9130    4.0760 Cl  0  0  0  0  0  0  0  0  0  0  0  0
    1.8090    0.6800    1.4520 C   0  0  0  0  0  0  0  0  0  0  0  0
    2.6260    1.6980    0.7230 C   0  0  0  0  0  0  0  0  0  0  0  0
    3.0590    1.4830   -0.4360 O   0  0  0  0  0  0  0  0  0  0  0  0
    2.9290    2.9160    1.3110 O   0  0  0  0  0  0  0  0  0  0  0  0
    3.6960    3.9000    0.6540 C   0  0  1  0  0  0  0  0  0  0  0  0
    2.9700    5.2130    0.5890 C   0  0  0  0  0  0  0  0  0  0  0  0
    3.7230    6.0700    1.5950 C   0  0  0  0  0  0  0  0  0  0  0  0
    4.4380    5.1630    2.3890 O   0  0  0  0  0  0  0  0  0  0  0  0
    4.9110    4.2190    1.4840 C   0  0  0  0  0  0  0  0  0  0  0  0
  2  1  1  6
  2  3  1  0
  2  6  1  0
  3  4  1  0
  4  5  1  0
  5  6  1  0
  6  7  1  6
  7  8  1  0
  8  9  2  0
  8 10  1  0
 10 11  2  3
 10 27  1  0
 11 12  1  0
 12 13  2  3
 13 14  1  0
 13 22  1  0
 14 15  1  0
 15 16  1  0
 17 16  1  6
 17 18  1  0
 17 22  1  0
 18 19  1  0
 20 19  1  6
 20 21  1  0
 20 24  1  0
 21 22  1  0
 22 23  1  1
 23 24  1  0
 24 25  1  1
 24 26  1  0
 27 28  1  0
 28 29  2  0
 28 30  1  0
 31 30  1  1
 31 32  1  0
 31 35  1  0
 32 33  1  0
 33 34  1  0
 34 35  1  0
M  END
