
     RDKit          3D

 35 38  0  0  0  0  0  0  0  0999 V2000
    6.5680    0.7190   -2.5300 C   0  0  0  0  0  0  0  0  0  0  0  0
    5.2750    0.4820   -2.3810 C   0  0  0  0  0  0  0  0  0  0  0  0
    4.7360   -0.9050   -2.4640 C   0  0  0  0  0  0  0  0  0  0  0  0
    4.1210   -1.2130   -1.2530 O   0  0  0  0  0  0  0  0  0  0  0  0
    3.0650   -0.5630   -0.6760 C   0  0  0  0  0  0  0  0  0  0  0  0
    2.6310    0.4280   -1.3630 O   0  0  0  0  0  0  0  0  0  0  0  0
    2.4860   -0.9500    0.5850 C   0  0  0  0  0  0  0  0  0  0  0  0
    2.9360   -1.9700    1.2840 C   0  0  0  0  0  0  0  0  0  0  0  0
    4.0560   -2.8610    0.9340 C   0  0  0  0  0  0  0  0  0  0  0  0
    3.5290   -4.5520    0.7350 Cl  0  0  0  0  0  0  0  0  0  0  0  0
    2.2870   -2.2300    2.4790 O   0  0  0  0  0  0  0  0  0  0  0  0
    0.9310   -2.0470    2.6290 C   0  0  0  0  0  0  0  0  0  0  0  0
    0.2970   -0.9790    1.7540 C   0  0  2  0  0  0  0  0  0  0  0  0
   -0.7430   -1.5920    0.9220 C   0  0  0  0  0  0  0  0  0  0  0  0
   -0.5510   -1.7800   -0.5330 C   0  0  0  0  0  0  0  0  0  0  0  0
   -1.8090   -1.7610   -1.3540 C   0  0  1  0  0  0  0  0  0  0  0  0
   -3.0450   -2.0890   -0.5820 C   0  0  0  0  0  0  0  0  0  0  0  0
   -3.0160   -3.3230   -0.0010 O   0  0  0  0  0  0  0  0  0  0  0  0
   -2.9010   -4.4150   -0.8270 C   0  0  0  0  0  0  0  0  0  0  0  0
   -2.0010   -0.6300   -2.2960 C   0  0  0  0  0  0  0  0  0  0  0  0
   -1.9230    0.6690   -2.0580 C   0  0  0  0  0  0  0  0  0  0  0  0
   -1.6140    1.1530   -0.7380 C   0  0  0  0  0  0  0  0  0  0  0  0
   -1.4840    2.6140   -0.4370 C   0  0  2  0  0  0  0  0  0  0  0  0
   -0.9600    2.5520    0.9930 C   0  0  0  0  0  0  0  0  0  0  0  0
   -1.8470    2.8890    1.9140 C   0  0  0  0  0  0  0  0  0  0  0  0
   -1.3980    3.1500    3.5930 Cl  0  0  0  0  0  0  0  0  0  0  0  0
   -3.3080    3.0920    1.6350 C   0  0  1  0  0  0  0  0  0  0  0  0
   -3.4230    4.6070    1.3930 C   0  0  0  0  0  0  0  0  0  0  0  0
   -2.8860    4.6720   -0.0300 C   0  0  0  0  0  0  0  0  0  0  0  0
   -2.8340    3.2410   -0.4440 C   0  0  2  0  0  0  0  0  0  0  0  0
   -3.6530    2.5090    0.4410 O   0  0  0  0  0  0  0  0  0  0  0  0
    0.3650    2.1790    1.3840 C   0  0  0  0  0  0  0  0  0  0  0  0
    0.7790    2.9750    2.3400 O   0  0  0  0  0  0  0  0  0  0  0  0
    1.3080    1.1810    0.9900 C   0  0  0  0  0  0  0  0  0  0  0  0
    1.3390   -0.1390    1.1060 C   0  0  0  0  0  0  0  0  0  0  0  0
  1  2  2  0
  2  3  1  0
  3  4  1  0
  4  5  1  0
  5  6  2  0
  5  7  1  0
  7  8  2  0
  7 35  1  0
  8  9  1  0
  8 11  1  0
  9 10  1  0
 11 12  1  0
 13 12  1  6
 13 14  1  0
 13 35  1  0
 14 15  1  0
 15 16  1  0
 16 17  1  1
 16 20  1  0
 17 18  1  0
 18 19  1  0
 20 21  2  0
 21 22  1  0
 23 22  1  1
 23 24  1  0
 23 30  1  0
 24 25  2  0
 24 32  1  0
 25 26  1  0
 25 27  1  0
 27 28  1  6
 27 31  1  0
 28 29  1  0
 30 29  1  1
 30 31  1  0
 32 33  2  0
 32 34  1  0
 34 35  2  0
M  END
