
     RDKit          3D

 35 36  0  0  0  0  0  0  0  0999 V2000
    6.8780   -1.8740    0.2810 N   0  0  0  0  0  0  0  0  0  0  0  0
    5.8450   -1.1110   -0.3690 C   0  0  0  0  0  0  0  0  0  0  0  0
    4.9530   -0.4900    0.7350 C   0  0  1  0  0  0  0  0  0  0  0  0
    5.8460    0.3060    1.4710 O   0  0  0  0  0  0  0  0  0  0  0  0
    3.9580    0.4100    0.1140 C   0  0  0  0  0  0  0  0  0  0  0  0
    2.9630    1.0920    0.9560 C   0  0  1  0  0  0  0  0  0  0  0  0
    2.0330    0.1420    1.7260 C   0  0  0  0  0  0  0  0  0  0  0  0
    1.3260   -0.6310    0.7260 N   0  0  0  0  0  0  0  0  0  0  0  0
   -0.1730    0.0810    0.1160 S   0  0  0  0  0  0  0  0  0  0  0  0
   -1.4910    0.1030    1.3700 C   0  0  1  0  0  0  0  0  0  0  0  0
   -1.1130   -0.7470    2.3960 F   0  0  0  0  0  0  0  0  0  0  0  0
   -1.1950    1.7250    2.1940 S   0  0  0  0  0  0  0  0  0  0  0  0
   -1.9080    2.8240    0.9140 C   0  0  1  0  0  0  0  0  0  0  0  0
   -1.7130    4.1180    1.3980 O   0  0  0  0  0  0  0  0  0  0  0  0
   -0.4100    4.3530    1.5710 O   0  0  0  0  0  0  0  0  0  0  0  0
   -1.2270    2.5850   -0.2330 O   0  0  0  0  0  0  0  0  0  0  0  0
   -1.5810    3.2970   -1.2530 O   0  0  0  0  0  0  0  0  0  0  0  0
   -3.3410    2.5120    0.9870 C   0  0  0  0  0  0  0  0  0  0  0  0
   -3.7500    1.0600    1.1130 C   0  0  0  0  0  0  0  0  0  0  0  0
   -4.8700    1.1240    1.6900 O   0  0  0  0  0  0  0  0  0  0  0  0
   -2.9370   -0.1110    0.6310 S   0  0  0  0  0  0  0  0  0  0  0  0
   -4.0240   -1.2830    1.6640 O   0  0  0  0  0  0  0  0  0  0  0  0
   -3.3320   -0.1900   -0.9380 C   0  0  2  0  0  0  0  0  0  0  0  0
   -4.2330    0.8060   -1.6380 C   0  0  0  0  0  0  0  0  0  0  0  0
   -5.5670    0.8980   -1.1410 N   0  0  0  0  0  0  0  0  0  0  0  0
   -3.9340   -1.5300   -1.4730 C   0  0  0  0  0  0  0  0  0  0  0  0
   -2.8070   -2.5320   -1.6160 C   0  0  0  0  0  0  0  0  0  0  0  0
   -1.6280   -1.9790   -2.0590 O   0  0  0  0  0  0  0  0  0  0  0  0
   -0.5200   -2.7140   -1.5720 C   0  0  0  0  0  0  0  0  0  0  0  0
    0.7770   -2.1330   -2.0160 C   0  0  0  0  0  0  0  0  0  0  0  0
    1.8130   -2.2810   -1.0730 O   0  0  0  0  0  0  0  0  0  0  0  0
    1.7850   -1.8800    0.2260 C   0  0  0  0  0  0  0  0  0  0  0  0
    2.2090   -2.6910    1.1230 O   0  0  0  0  0  0  0  0  0  0  0  0
    3.6780    2.3160    2.0450 S   0  0  0  0  0  0  0  0  0  0  0  0
    4.7620    1.5050    3.6190 Cl  0  0  0  0  0  0  0  0  0  0  0  0
  1  2  1  0
  2  3  1  0
  3  4  1  1
  3  5  1  0
  6  5  1  1
  6  7  1  0
  6 34  1  0
  7  8  1  0
  8  9  1  0
  8 32  1  0
  9 10  1  0
 10 11  1  1
 10 12  1  0
 10 21  1  0
 12 13  1  0
 13 14  1  1
 13 16  1  0
 13 18  1  0
 14 15  1  0
 16 17  1  0
 18 19  1  0
 19 20  2  0
 19 21  1  0
 21 22  2  0
 21 23  1  0
 23 24  1  1
 23 26  1  0
 24 25  1  0
 26 27  1  0
 27 28  1  0
 28 29  1  0
 29 30  1  0
 30 31  1  0
 31 32  1  0
 32 33  2  0
 34 35  1  0
M  CHG  2   1   1  25   1
M  END
