
     RDKit          3D

 35 38  0  0  0  0  0  0  0  0999 V2000
    2.7420    2.4500    2.6740 O   0  0  0  0  0  0  0  0  0  0  0  0
    2.4350    2.7470    1.4780 C   0  0  0  0  0  0  0  0  0  0  0  0
    3.3250    2.2350    0.4080 C   0  0  0  0  0  0  0  0  0  0  0  0
    3.8730    1.0110    0.8660 O   0  0  0  0  0  0  0  0  0  0  0  0
    4.3770   -0.0070    0.0420 C   0  0  0  0  0  0  0  0  0  0  0  0
    5.6970   -0.4540    0.1660 C   0  0  0  0  0  0  0  0  0  0  0  0
    6.2460   -1.4440   -0.6100 C   0  0  0  0  0  0  0  0  0  0  0  0
    5.4310   -2.0110   -1.5550 C   0  0  0  0  0  0  0  0  0  0  0  0
    6.0830   -3.2740   -2.5690 Cl  0  0  0  0  0  0  0  0  0  0  0  0
    4.1160   -1.5960   -1.7100 C   0  0  0  0  0  0  0  0  0  0  0  0
    3.5950   -0.6020   -0.9160 C   0  0  0  0  0  0  0  0  0  0  0  0
    2.1600   -0.2280   -1.1430 C   0  0  0  0  0  0  0  0  0  0  0  0
    1.3800   -1.3900   -1.5210 N   0  0  0  0  0  0  0  0  0  0  0  0
    0.5110   -2.0850   -0.6580 C   0  0  0  0  0  0  0  0  0  0  0  0
   -0.2620   -2.9390   -1.1890 O   0  0  0  0  0  0  0  0  0  0  0  0
    0.4240   -1.9050    0.8020 C   0  0  2  0  0  0  0  0  0  0  0  0
    1.1980   -3.0560    1.4220 C   0  0  0  0  0  0  0  0  0  0  0  0
    0.1420   -4.1300    1.5290 C   0  0  0  0  0  0  0  0  0  0  0  0
   -1.2050   -3.4830    1.4930 C   0  0  0  0  0  0  0  0  0  0  0  0
   -0.9340   -2.0610    1.2920 N   0  0  0  0  0  0  0  0  0  0  0  0
   -1.7670   -0.9450    1.5080 C   0  0  0  0  0  0  0  0  0  0  0  0
   -2.5740   -0.8870    2.4670 O   0  0  0  0  0  0  0  0  0  0  0  0
   -1.7360    0.2540    0.5890 C   0  0  1  0  0  0  0  0  0  0  0  0
   -2.6280   -0.0810   -0.5740 C   0  0  2  0  0  0  0  0  0  0  0  0
   -2.6810    1.0090   -1.6020 C   0  0  0  0  0  0  0  0  0  0  0  0
   -3.8120    1.9460   -1.2850 C   0  0  0  0  0  0  0  0  0  0  0  0
   -5.1150    1.2400   -1.5630 C   0  0  0  0  0  0  0  0  0  0  0  0
   -5.0820   -0.1500   -1.0400 C   0  0  0  0  0  0  0  0  0  0  0  0
   -3.9860   -0.4610   -0.0660 C   0  0  0  0  0  0  0  0  0  0  0  0
   -2.1550    1.4130    1.3400 N   0  0  0  0  0  0  0  0  0  0  0  0
   -1.4730    2.6320    1.5010 C   0  0  0  0  0  0  0  0  0  0  0  0
   -1.2510    3.0100    2.7090 O   0  0  0  0  0  0  0  0  0  0  0  0
   -0.9780    3.5370    0.4450 C   0  0  0  0  0  0  0  0  0  0  0  0
    0.4750    3.2620    0.0730 C   0  0  0  0  0  0  0  0  0  0  0  0
    1.3100    3.5200    1.1970 N   0  0  0  0  0  0  0  0  0  0  0  0
  1  2  2  0
  2  3  1  0
  2 35  1  0
  3  4  1  0
  4  5  1  0
  5  6  2  0
  5 11  1  0
  6  7  1  0
  7  8  2  0
  8  9  1  0
  8 10  1  0
 10 11  2  0
 11 12  1  0
 12 13  1  0
 13 14  1  0
 14 15  2  0
 14 16  1  0
 16 17  1  1
 16 20  1  0
 17 18  1  0
 18 19  1  0
 19 20  1  0
 20 21  1  0
 21 22  2  0
 21 23  1  0
 23 24  1  0
 23 30  1  1
 24 25  1  6
 24 29  1  0
 25 26  1  0
 26 27  1  0
 27 28  1  0
 28 29  1  0
 30 31  1  0
 31 32  2  0
 31 33  1  0
 33 34  1  0
 34 35  1  0
M  END
