
     RDKit          3D

 35 38  0  0  0  0  0  0  0  0999 V2000
    7.4030    1.6940   -0.5140 C   0  0  0  0  0  0  0  0  0  0  0  0
    6.9700    0.2910   -0.7660 C   0  0  0  0  0  0  0  0  0  0  0  0
    5.5990   -0.0260   -0.3250 C   0  0  0  0  0  0  0  0  0  0  0  0
    4.5380    0.1570   -1.1860 C   0  0  0  0  0  0  0  0  0  0  0  0
    3.2230   -0.1220   -0.8520 C   0  0  0  0  0  0  0  0  0  0  0  0
    2.9320   -0.6020    0.3830 C   0  0  0  0  0  0  0  0  0  0  0  0
    1.6280   -0.9590    0.9240 C   0  0  1  0  0  0  0  0  0  0  0  0
    1.6180   -2.3470    1.5080 C   0  0  0  0  0  0  0  0  0  0  0  0
    1.2640    0.1450    1.9270 C   0  0  2  0  0  0  0  0  0  0  0  0
    0.1400   -0.4540    3.1220 Cl  0  0  0  0  0  0  0  0  0  0  0  0
    0.6370    0.7920    0.6730 C   0  0  2  0  0  0  0  0  0  0  0  0
   -0.5400    1.6850    0.9980 C   0  0  1  0  0  0  0  0  0  0  0  0
   -0.0260    2.5700    2.1540 C   0  0  0  0  0  0  0  0  0  0  0  0
   -0.5880    2.6690   -0.1750 C   0  0  0  0  0  0  0  0  0  0  0  0
   -1.8960    3.8530   -0.0200 Cl  0  0  0  0  0  0  0  0  0  0  0  0
   -1.6100    0.9380    1.2360 O   0  0  0  0  0  0  0  0  0  0  0  0
   -2.7700    0.6640    1.7580 C   0  0  0  0  0  0  0  0  0  0  0  0
   -3.0380    0.5650    3.0110 O   0  0  0  0  0  0  0  0  0  0  0  0
   -3.9710    0.4210    0.9030 C   0  0  1  0  0  0  0  0  0  0  0  0
   -4.9300    1.5710    1.0460 C   0  0  0  0  0  0  0  0  0  0  0  0
   -5.4310    1.7820    2.4540 C   0  0  0  0  0  0  0  0  0  0  0  0
   -3.6470    0.1810   -0.4260 O   0  0  0  0  0  0  0  0  0  0  0  0
   -4.4010   -0.8570   -0.9670 C   0  0  0  0  0  0  0  0  0  0  0  0
   -3.5890   -1.7630   -1.8400 C   0  0  1  0  0  0  0  0  0  0  0  0
   -4.2760   -1.9260   -3.0430 O   0  0  0  0  0  0  0  0  0  0  0  0
   -3.3160   -2.6610   -3.7680 C   0  0  0  0  0  0  0  0  0  0  0  0
   -2.0670   -1.7910   -3.6220 C   0  0  0  0  0  0  0  0  0  0  0  0
   -2.2640   -1.1440   -2.2480 C   0  0  2  0  0  0  0  0  0  0  0  0
   -1.2000   -1.6300   -1.3690 C   0  0  0  0  0  0  0  0  0  0  0  0
   -1.3780   -2.6790   -0.7770 O   0  0  0  0  0  0  0  0  0  0  0  0
    0.1150   -0.9150   -1.1430 C   0  0  0  0  0  0  0  0  0  0  0  0
    0.3540   -0.5870    0.2610 C   0  0  1  0  0  0  0  0  0  0  0  0
   -0.7070   -1.1070    1.0490 O   0  0  0  0  0  0  0  0  0  0  0  0
    4.0090   -0.7910    1.2670 C   0  0  0  0  0  0  0  0  0  0  0  0
    5.2950   -0.5160    0.9330 C   0  0  0  0  0  0  0  0  0  0  0  0
  1  2  1  0
  2  3  1  0
  3  4  2  0
  3 35  1  0
  4  5  1  0
  5  6  2  0
  6  7  1  0
  6 34  1  0
  7  8  1  1
  7  9  1  0
  7 32  1  0
  9 10  1  1
  9 11  1  0
 11 12  1  1
 11 32  1  0
 12 13  1  1
 12 14  1  0
 12 16  1  0
 14 15  1  0
 16 17  1  0
 17 18  2  0
 17 19  1  0
 19 20  1  6
 19 22  1  0
 20 21  1  0
 22 23  1  0
 24 23  1  1
 24 25  1  0
 24 28  1  0
 25 26  1  0
 26 27  1  0
 28 27  1  6
 28 29  1  0
 29 30  2  0
 29 31  1  0
 31 32  1  0
 32 33  1  1
 34 35  2  0
M  END
