
     RDKit          3D

 34 35  0  0  0  0  0  0  0  0999 V2000
   -9.0470   -0.9340    0.7410 C   0  0  0  0  0  0  0  0  0  0  0  0
   -8.1110   -1.0570   -0.0750 O   0  0  0  0  0  0  0  0  0  0  0  0
   -7.1830   -1.1770   -0.8830 C   0  0  0  0  0  0  0  0  0  0  0  0
   -6.1550   -0.1240   -1.1610 C   0  0  0  0  0  0  0  0  0  0  0  0
   -5.2180    0.2100   -0.0750 C   0  0  1  0  0  0  0  0  0  0  0  0
   -4.3380    1.2130   -0.5600 O   0  0  0  0  0  0  0  0  0  0  0  0
   -2.6750    0.5390   -0.3940 S   0  0  0  0  0  0  0  0  0  0  0  0
   -2.8950    0.7720   -2.0100 O   0  0  0  0  0  0  0  0  0  0  0  0
   -2.8870    0.6240    0.9610 O   0  0  0  0  0  0  0  0  0  0  0  0
   -2.5690   -1.0860   -0.5890 C   0  0  0  0  0  0  0  0  0  0  0  0
   -2.2580   -1.9650    0.6100 C   0  0  0  0  0  0  0  0  0  0  0  0
   -2.2180   -3.3140    0.2600 O   0  0  0  0  0  0  0  0  0  0  0  0
   -1.4660    1.6370   -0.5090 C   0  0  1  0  0  0  0  0  0  0  0  0
   -2.1470    3.2300   -1.0630 Cl  0  0  0  0  0  0  0  0  0  0  0  0
   -0.6550    2.0460    0.6990 C   0  0  0  0  0  0  0  0  0  0  0  0
    0.4120    0.6600    1.1460 S   0  0  0  0  0  0  0  0  0  0  0  0
    1.6420    0.4880   -0.1740 C   0  0  2  0  0  0  0  0  0  0  0  0
    1.3510    1.3410   -1.2400 O   0  0  0  0  0  0  0  0  0  0  0  0
   -0.2280    1.2210   -1.7880 S   0  0  0  0  0  0  0  0  0  0  0  0
    1.7420   -1.2090   -0.7790 S   0  0  0  0  0  0  0  0  0  0  0  0
    3.1420   -1.3590   -1.7540 O   0  0  0  0  0  0  0  0  0  0  0  0
    3.9170   -0.2270   -1.7950 C   0  0  0  0  0  0  0  0  0  0  0  0
    4.5170    0.1510   -0.4550 C   0  0  2  0  0  0  0  0  0  0  0  0
    4.9830   -1.1420    0.2100 C   0  0  0  0  0  0  0  0  0  0  0  0
    5.9030   -1.7410   -0.5550 O   0  0  0  0  0  0  0  0  0  0  0  0
    7.0670   -1.2430   -0.9310 C   0  0  0  0  0  0  0  0  0  0  0  0
    8.0870   -0.9070    0.1000 C   0  0  1  0  0  0  0  0  0  0  0  0
    9.2500   -0.5320   -0.6820 O   0  0  0  0  0  0  0  0  0  0  0  0
    7.7630    0.4050    0.8030 C   0  0  0  0  0  0  0  0  0  0  0  0
    8.9130    0.8270    1.6120 N   0  0  0  0  0  0  0  0  0  0  0  0
    3.2430    0.9720    0.5310 S   0  0  0  0  0  0  0  0  0  0  0  0
   -5.8550    0.8190    1.0960 C   0  0  0  0  0  0  0  0  0  0  0  0
   -6.5510    0.1490    2.1150 N   0  0  0  0  0  0  0  0  0  0  0  0
   -5.7660    2.1020    1.2200 O   0  0  0  0  0  0  0  0  0  0  0  0
  1  2  1  0
  2  3  1  0
  3  4  1  0
  5  4  1  6
  5  6  1  0
  5 32  1  0
  6  7  1  0
  7  8  2  0
  7  9  1  0
  7 10  1  0
  7 13  1  0
 10 11  1  0
 11 12  1  0
 13 14  1  6
 13 15  1  0
 13 19  1  0
 15 16  1  0
 16 17  1  0
 17 18  1  6
 17 20  1  0
 17 31  1  0
 18 19  1  0
 20 21  1  0
 21 22  1  0
 22 23  1  0
 23 24  1  1
 23 31  1  0
 24 25  1  0
 25 26  1  0
 26 27  1  0
 27 28  1  6
 27 29  1  0
 29 30  1  0
 32 33  1  0
 32 34  2  0
M  CHG  1  30   1
M  END
