
     RDKit          3D

 13 13  0  0  0  0  0  0  0  0999 V2000
   -0.0790   -1.3110   -1.5310 O   0  0  0  0  0  0  0  0  0  0  0  0
   -0.9150   -0.8550   -0.7140 C   0  0  0  0  0  0  0  0  0  0  0  0
   -2.3170   -1.2600   -0.8390 C   0  0  0  0  0  0  0  0  0  0  0  0
   -3.2050   -0.6320    0.2130 C   0  0  0  0  0  0  0  0  0  0  0  0
   -3.2000    0.7980    0.1560 N   0  0  0  0  0  0  0  0  0  0  0  0
   -2.8240    1.4630    1.1330 O   0  0  0  0  0  0  0  0  0  0  0  0
   -3.6060    1.4620   -0.9670 O   0  0  0  0  0  0  0  0  0  0  0  0
   -0.4730    0.0110    0.2700 O   0  0  0  0  0  0  0  0  0  0  0  0
    0.8760    0.3280    0.2980 C   0  0  0  0  0  0  0  0  0  0  0  0
    1.4420    1.3320   -0.3350 C   0  0  0  0  0  0  0  0  0  0  0  0
    2.8880    1.3360   -0.0560 C   0  0  0  0  0  0  0  0  0  0  0  0
    3.1710   -0.1110    0.2770 C   0  0  0  0  0  0  0  0  0  0  0  0
    1.9100   -0.4470    1.0710 C   0  0  0  0  0  0  0  0  0  0  0  0
  1  2  2  0
  2  3  1  0
  2  8  1  0
  3  4  1  0
  4  5  1  0
  5  6  2  0
  5  7  1  0
  8  9  1  0
  9 10  2  0
  9 13  1  0
 10 11  1  0
 11 12  1  0
 12 13  1  0
M  CHG  2   5   1   7  -1
M  END
