
     RDKit          3D

 12 12  0  0  0  0  0  0  0  0999 V2000
    4.1090   -0.3660    0.2150 C   0  0  0  0  0  0  0  0  0  0  0  0
    2.8010   -0.7510    0.6220 O   0  0  0  0  0  0  0  0  0  0  0  0
    1.7140   -0.0860    0.0390 C   0  0  0  0  0  0  0  0  0  0  0  0
    1.9320    0.8140   -0.8090 O   0  0  0  0  0  0  0  0  0  0  0  0
    0.3480   -0.4100    0.3910 C   0  0  0  0  0  0  0  0  0  0  0  0
   -0.6490    0.2270   -0.1690 C   0  0  0  0  0  0  0  0  0  0  0  0
   -0.5560    1.2370   -1.1160 O   0  0  0  0  0  0  0  0  0  0  0  0
   -1.8200    1.6660   -1.4710 C   0  0  0  0  0  0  0  0  0  0  0  0
   -2.0980    2.5650   -2.3010 O   0  0  0  0  0  0  0  0  0  0  0  0
   -2.7700    0.8850   -0.7070 C   0  0  0  0  0  0  0  0  0  0  0  0
   -2.0920    0.0510    0.0480 C   0  0  0  0  0  0  0  0  0  0  0  0
   -2.6110   -0.9630    1.0140 C   0  0  0  0  0  0  0  0  0  0  0  0
  1  2  1  0
  2  3  1  0
  3  4  2  0
  3  5  1  0
  5  6  2  3
  6  7  1  0
  6 11  1  0
  7  8  1  0
  8  9  2  0
  8 10  1  0
 10 11  2  0
 11 12  1  0
M  END
