
     RDKit          3D

 13 13  0  0  0  0  0  0  0  0999 V2000
    3.2420    1.1500    0.6750 C   0  0  0  0  0  0  0  0  0  0  0  0
    2.8580   -0.1450   -0.0070 C   0  0  0  0  0  0  0  0  0  0  0  0
    1.3900   -0.4110    0.0890 C   0  0  0  0  0  0  0  0  0  0  0  0
    0.7690   -1.4920   -0.4670 C   0  0  0  0  0  0  0  0  0  0  0  0
   -0.5950   -1.3880   -0.1590 C   0  0  0  0  0  0  0  0  0  0  0  0
   -1.5420   -2.3360   -0.5610 N   0  0  0  0  0  0  0  0  0  0  0  0
   -1.1550   -3.5350   -0.7510 O   0  0  0  0  0  0  0  0  0  0  0  0
   -2.8600   -2.1360   -0.7850 O   0  0  0  0  0  0  0  0  0  0  0  0
   -0.7240   -0.2470    0.5680 C   0  0  0  0  0  0  0  0  0  0  0  0
   -1.9490    0.3470    1.1500 C   0  0  0  0  0  0  0  0  0  0  0  0
   -2.7880    1.1130    0.1600 C   0  0  0  0  0  0  0  0  0  0  0  0
   -2.0190    2.1730   -0.3810 O   0  0  0  0  0  0  0  0  0  0  0  0
    0.4750    0.2890    0.6840 O   0  0  0  0  0  0  0  0  0  0  0  0
  1  2  1  0
  2  3  1  0
  3  4  2  0
  3 13  1  0
  4  5  1  0
  5  6  1  0
  5  9  2  0
  6  7  2  0
  6  8  1  0
  9 10  1  0
  9 13  1  0
 10 11  1  0
 11 12  1  0
M  CHG  2   6   1   8  -1
M  END
