
     RDKit          3D

 13 13  0  0  0  0  0  0  0  0999 V2000
   -3.1300   -1.8570    1.0900 O   0  0  0  0  0  0  0  0  0  0  0  0
   -2.4420   -0.8790    0.7310 C   0  0  0  0  0  0  0  0  0  0  0  0
   -1.0010   -0.9560    0.5160 C   0  0  0  0  0  0  0  0  0  0  0  0
   -0.3900   -0.1260   -0.3070 C   0  0  0  0  0  0  0  0  0  0  0  0
    0.9560   -0.1410   -0.5570 O   0  0  0  0  0  0  0  0  0  0  0  0
    1.8730   -1.0430    0.0210 C   0  0  0  0  0  0  0  0  0  0  0  0
    3.2760   -0.7680   -0.4810 C   0  0  0  0  0  0  0  0  0  0  0  0
    3.7310    0.5500   -0.1720 N   0  0  0  0  0  0  0  0  0  0  0  0
    4.7480    0.6850    0.5290 O   0  0  0  0  0  0  0  0  0  0  0  0
    3.1140    1.6980   -0.6000 O   0  0  0  0  0  0  0  0  0  0  0  0
   -1.2250    0.8790   -0.9990 C   0  0  0  0  0  0  0  0  0  0  0  0
   -2.1770    1.4770    0.0050 C   0  0  0  0  0  0  0  0  0  0  0  0
   -3.1350    0.4200    0.5160 C   0  0  0  0  0  0  0  0  0  0  0  0
  1  2  2  0
  2  3  1  0
  2 13  1  0
  3  4  2  0
  4  5  1  0
  4 11  1  0
  5  6  1  0
  6  7  1  0
  7  8  1  0
  8  9  2  0
  8 10  1  0
 11 12  1  0
 12 13  1  0
M  CHG  2   8   1  10  -1
M  END
