
     RDKit          3D

 13 13  0  0  0  0  0  0  0  0999 V2000
    3.6760   -0.6790   -0.0160 C   0  0  0  0  0  0  0  0  0  0  0  0
    2.3480   -1.0920   -0.0190 O   0  0  0  0  0  0  0  0  0  0  0  0
    1.2590   -0.2550    0.0780 C   0  0  0  0  0  0  0  0  0  0  0  0
    1.4050    1.1000    0.1900 C   0  0  0  0  0  0  0  0  0  0  0  0
    0.2910    1.9170    0.2860 C   0  0  0  0  0  0  0  0  0  0  0  0
   -0.9450    1.3430    0.2670 C   0  0  0  0  0  0  0  0  0  0  0  0
   -2.0910    2.1250    0.3610 O   0  0  0  0  0  0  0  0  0  0  0  0
   -1.1670   -0.0480    0.1540 C   0  0  0  0  0  0  0  0  0  0  0  0
   -2.5570   -0.5290    0.1470 C   0  0  0  0  0  0  0  0  0  0  0  0
   -2.8270   -1.9050    0.0370 N   0  0  0  0  0  0  0  0  0  0  0  0
   -1.9870   -2.7850   -0.0580 O   0  0  0  0  0  0  0  0  0  0  0  0
   -4.2020   -2.2360    0.0420 O   0  0  0  0  0  0  0  0  0  0  0  0
   -0.0310   -0.8000    0.0630 C   0  0  0  0  0  0  0  0  0  0  0  0
  1  2  1  0
  2  3  1  0
  3  4  2  0
  3 13  1  0
  4  5  1  0
  5  6  2  0
  6  7  1  0
  6  8  1  0
  8  9  1  0
  8 13  2  0
  9 10  1  0
 10 11  2  0
 10 12  1  0
M  CHG  2  10   1  12  -1
M  END
