
     RDKit          3D

 13 13  0  0  0  0  0  0  0  0999 V2000
    4.1670   -0.3540    0.1670 C   0  0  0  0  0  0  0  0  0  0  0  0
    3.0000    0.2410   -0.3310 O   0  0  0  0  0  0  0  0  0  0  0  0
    1.7190   -0.0730    0.1100 C   0  0  0  0  0  0  0  0  0  0  0  0
    1.6610   -0.9540    1.0160 O   0  0  0  0  0  0  0  0  0  0  0  0
    0.5340    0.5740   -0.4400 C   0  0  0  0  0  0  0  0  0  0  0  0
   -0.6650    0.2620   -0.0090 C   0  0  0  0  0  0  0  0  0  0  0  0
   -1.9270    0.8670   -0.5080 C   0  0  0  0  0  0  0  0  0  0  0  0
   -2.8420   -0.3390   -0.5600 C   0  0  0  0  0  0  0  0  0  0  0  0
   -2.5570   -0.9340    0.8250 C   0  0  0  0  0  0  0  0  0  0  0  0
   -1.0580   -0.7150    1.0250 C   0  0  0  0  0  0  0  0  0  0  0  0
    0.7250    1.5470   -1.4520 N   0  0  0  0  0  0  0  0  0  0  0  0
    0.8540    2.7550   -1.1930 O   0  0  0  0  0  0  0  0  0  0  0  0
    0.7700    1.1480   -2.7620 O   0  0  0  0  0  0  0  0  0  0  0  0
  1  2  1  0
  2  3  1  0
  3  4  2  0
  3  5  1  0
  5  6  2  3
  5 11  1  0
  6  7  1  0
  6 10  1  0
  7  8  1  0
  8  9  1  0
  9 10  1  0
 11 12  2  0
 11 13  1  0
M  CHG  2  11   1  13  -1
M  END
