
     RDKit          3D

 19 21  0  0  0  0  0  0  0  0999 V2000
   -4.9160    1.4770    1.2060 O   0  0  0  0  0  0  0  0  0  0  0  0
   -4.2070    0.5080    0.8320 C   0  0  0  0  0  0  0  0  0  0  0  0
   -4.6680   -0.7410    0.8930 N   0  0  0  0  0  0  0  0  0  0  0  0
   -3.8820   -1.7460    0.4830 C   0  0  0  0  0  0  0  0  0  0  0  0
   -2.6320   -1.5540    0.0060 N   0  0  0  0  0  0  0  0  0  0  0  0
   -2.1210   -0.3020   -0.0750 C   0  0  0  0  0  0  0  0  0  0  0  0
   -0.9170    0.1850   -0.5270 C   0  0  0  0  0  0  0  0  0  0  0  0
    0.2500   -0.5530   -1.0600 C   0  0  2  0  0  0  0  0  0  0  0  0
    1.0870   -1.1300   -0.0140 N   0  0  0  0  0  0  0  0  0  0  0  0
    2.4260   -0.6300   -0.2080 C   0  0  2  0  0  0  0  0  0  0  0  0
    3.2240   -0.5970    1.0660 C   0  0  0  0  0  0  0  0  0  0  0  0
    4.5050   -0.0960    0.8240 O   0  0  0  0  0  0  0  0  0  0  0  0
    2.1250    0.7910   -0.7000 C   0  0  1  0  0  0  0  0  0  0  0  0
    3.2760    1.3930   -1.1950 O   0  0  0  0  0  0  0  0  0  0  0  0
    1.1430    0.4560   -1.7920 C   0  0  1  0  0  0  0  0  0  0  0  0
    1.8280   -0.2590   -2.7730 O   0  0  0  0  0  0  0  0  0  0  0  0
   -1.0240    1.5650   -0.3630 C   0  0  0  0  0  0  0  0  0  0  0  0
   -2.2270    1.8730    0.1590 N   0  0  0  0  0  0  0  0  0  0  0  0
   -2.9190    0.7430    0.3430 C   0  0  0  0  0  0  0  0  0  0  0  0
  1  2  2  0
  2  3  1  0
  2 19  1  0
  3  4  1  0
  4  5  2  0
  5  6  1  0
  6  7  1  0
  6 19  2  0
  8  7  1  1
  7 17  2  0
  8  9  1  0
  8 15  1  0
  9 10  1  0
 10 11  1  1
 10 13  1  0
 11 12  1  0
 13 14  1  6
 13 15  1  0
 15 16  1  6
 17 18  1  0
 18 19  1  0
M  CHG  1   9   1
M  END
