
     RDKit          3D

 13 13  0  0  0  0  0  0  0  0999 V2000
    4.1710    1.1130    0.7360 O   0  0  0  0  0  0  0  0  0  0  0  0
    3.5050    0.1680    0.2790 N   0  0  0  0  0  0  0  0  0  0  0  0
    4.1080   -0.7410   -0.5550 O   0  0  0  0  0  0  0  0  0  0  0  0
    2.1080    0.0640    0.6490 C   0  0  0  0  0  0  0  0  0  0  0  0
    1.2680    0.1350   -0.6090 C   0  0  0  0  0  0  0  0  0  0  0  0
   -0.1780    0.0340   -0.3140 C   0  0  0  0  0  0  0  0  0  0  0  0
   -0.9810    1.1600   -0.2850 C   0  0  0  0  0  0  0  0  0  0  0  0
   -2.3180    1.0640    0.0090 C   0  0  0  0  0  0  0  0  0  0  0  0
   -3.1770    2.1420    0.0560 O   0  0  0  0  0  0  0  0  0  0  0  0
   -2.8570   -0.1790    0.2770 C   0  0  0  0  0  0  0  0  0  0  0  0
   -2.0660   -1.3070    0.2500 C   0  0  0  0  0  0  0  0  0  0  0  0
   -0.7110   -1.2050   -0.0480 C   0  0  0  0  0  0  0  0  0  0  0  0
   -0.0050   -2.3960   -0.0530 O   0  0  0  0  0  0  0  0  0  0  0  0
  1  2  2  0
  2  3  1  0
  2  4  1  0
  4  5  1  0
  5  6  1  0
  6  7  2  0
  6 12  1  0
  7  8  1  0
  8  9  1  0
  8 10  2  0
 10 11  1  0
 11 12  2  0
 12 13  1  0
M  CHG  2   2   1   3  -1
M  END
