
     RDKit          3D

 26 27  0  0  0  0  0  0  0  0999 V2000
    8.4480    1.5250   -0.5980 C   0  0  0  0  0  0  0  0  0  0  0  0
    7.4220    1.2540    0.4950 C   0  0  1  0  0  0  0  0  0  0  0  0
    6.9040    2.4550    0.9770 O   0  0  0  0  0  0  0  0  0  0  0  0
    6.3440    0.3940   -0.0780 C   0  0  0  0  0  0  0  0  0  0  0  0
    6.5090   -0.2600   -1.2680 C   0  0  0  0  0  0  0  0  0  0  0  0
    5.4940   -1.0480   -1.7790 C   0  0  0  0  0  0  0  0  0  0  0  0
    4.3070   -1.1800   -1.0910 C   0  0  0  0  0  0  0  0  0  0  0  0
    3.2490   -1.9780   -1.5870 N   0  0  0  0  0  0  0  0  0  0  0  0
    2.0560   -2.0700   -0.8780 N   0  0  0  0  0  0  0  0  0  0  0  0
    1.1500   -0.9860   -0.7450 C   0  0  0  0  0  0  0  0  0  0  0  0
    1.4390    0.1050   -1.2930 O   0  0  0  0  0  0  0  0  0  0  0  0
   -0.0670   -1.1930    0.0200 C   0  0  0  0  0  0  0  0  0  0  0  0
   -0.3000   -2.2870    0.5300 O   0  0  0  0  0  0  0  0  0  0  0  0
   -1.0290   -0.1500    0.2080 N   0  0  0  0  0  0  0  0  0  0  0  0
   -2.2470   -0.2800    0.9470 C   0  0  1  0  0  0  0  0  0  0  0  0
   -2.8240    0.8000    1.7520 C   0  0  0  0  0  0  0  0  0  0  0  0
   -3.5110    0.3750    0.4560 C   0  0  2  0  0  0  0  0  0  0  0  0
   -5.0640   -0.4860    0.6010 S   0  0  0  0  0  0  0  0  0  0  0  0
   -5.3160   -0.7720    2.0730 O   0  0  0  0  0  0  0  0  0  0  0  0
   -6.4360    0.4480   -0.0310 C   0  0  2  0  0  0  0  0  0  0  0  0
   -7.7040   -0.3590    0.1350 C   0  0  0  0  0  0  0  0  0  0  0  0
   -7.9580   -0.6680    1.5200 N   0  0  0  0  0  0  0  0  0  0  0  0
   -6.2940    0.7700   -1.5030 C   0  0  0  0  0  0  0  0  0  0  0  0
   -7.3870    1.4970   -1.9440 O   0  0  0  0  0  0  0  0  0  0  0  0
    4.2110   -0.5040    0.0800 N   0  0  0  0  0  0  0  0  0  0  0  0
    5.1860    0.2450    0.5580 N   0  0  0  0  0  0  0  0  0  0  0  0
  2  1  1  6
  2  3  1  0
  2  4  1  0
  4  5  2  0
  4 26  1  0
  5  6  1  0
  6  7  2  0
  7  8  1  0
  7 25  1  0
  8  9  1  0
  9 10  1  0
 10 11  2  0
 10 12  1  0
 12 13  2  0
 12 14  1  0
 15 14  1  6
 15 16  1  0
 15 17  1  0
 17 16  1  1
 17 18  1  0
 18 19  2  0
 18 20  1  1
 20 21  1  6
 20 23  1  0
 21 22  1  0
 23 24  1  0
 25 26  2  0
M  CHG  1  25   1
M  END
