
     RDKit          3D

 26 28  0  0  0  0  0  0  0  0999 V2000
   -0.1450    1.4280   -0.5360 C   0  0  0  0  0  0  0  0  0  0  0  0
    0.0710    0.4170    0.5600 C   0  0  2  0  0  0  0  0  0  0  0  0
    1.4140    0.3500    1.1290 C   0  0  0  0  0  0  0  0  0  0  0  0
    2.5910   -0.0030    0.3250 C   0  0  1  0  0  0  0  0  0  0  0  0
    2.8970    0.9040   -0.8420 C   0  0  0  0  0  0  0  0  0  0  0  0
    4.0630    0.4680   -1.5200 O   0  0  0  0  0  0  0  0  0  0  0  0
    3.8010    0.1220    1.2650 C   0  0  0  0  0  0  0  0  0  0  0  0
    5.0140   -0.1980    0.6710 O   0  0  0  0  0  0  0  0  0  0  0  0
    5.3310   -1.4430    0.1410 C   0  0  0  0  0  0  0  0  0  0  0  0
    4.7120   -2.4670    0.5700 N   0  0  0  0  0  0  0  0  0  0  0  0
    6.3500   -1.5330   -0.8740 N   0  0  0  0  0  0  0  0  0  0  0  0
   -0.4650   -0.8460    0.0940 N   0  0  0  0  0  0  0  0  0  0  0  0
   -1.6190   -0.5410   -0.6290 N   0  0  0  0  0  0  0  0  0  0  0  0
   -2.7150    0.0430    0.1670 C   0  0  0  0  0  0  0  0  0  0  0  0
   -2.2380    0.6890    1.2790 C   0  0  0  0  0  0  0  0  0  0  0  0
   -3.7380    1.2930    2.0440 S   0  0  0  0  0  0  0  0  0  0  0  0
   -4.8600    0.6470    0.8420 C   0  0  0  0  0  0  0  0  0  0  0  0
   -6.2450    0.7110    0.7470 C   0  0  0  0  0  0  0  0  0  0  0  0
   -6.8370    1.3260    1.6590 O   0  0  0  0  0  0  0  0  0  0  0  0
   -6.8560    0.1230   -0.2940 N   0  0  0  0  0  0  0  0  0  0  0  0
   -6.0530   -0.4940   -1.1790 C   0  0  0  0  0  0  0  0  0  0  0  0
   -6.6730   -1.0420   -2.1570 O   0  0  0  0  0  0  0  0  0  0  0  0
   -4.7180   -0.5610   -1.0960 N   0  0  0  0  0  0  0  0  0  0  0  0
   -4.0420    0.0280   -0.0450 C   0  0  0  0  0  0  0  0  0  0  0  0
   -0.8620    0.8420    1.7110 C   0  0  1  0  0  0  0  0  0  0  0  0
   -0.5460    0.1200    2.8480 O   0  0  0  0  0  0  0  0  0  0  0  0
  2  1  1  6
  2  3  1  0
  2 12  1  0
  2 25  1  0
  4  3  1  1
  4  5  1  0
  4  7  1  0
  5  6  1  0
  7  8  1  0
  8  9  1  0
  9 10  2  0
  9 11  1  0
 12 13  1  0
 13 14  1  0
 14 15  2  0
 14 24  1  0
 15 16  1  0
 15 25  1  0
 16 17  1  0
 17 18  1  0
 17 24  2  0
 18 19  2  0
 18 20  1  0
 20 21  1  0
 21 22  2  0
 21 23  1  0
 23 24  1  0
 25 26  1  1
M  CHG  1  12   1
M  END
