
     RDKit          3D

 26 27  0  0  0  0  0  0  0  0999 V2000
   -4.7060   -1.0400   -0.6350 C   0  0  0  0  0  0  0  0  0  0  0  0
   -3.4130   -0.2850   -0.5600 C   0  0  2  0  0  0  0  0  0  0  0  0
   -3.5380    0.9480    0.3090 C   0  0  0  0  0  0  0  0  0  0  0  0
   -3.1350    0.0960   -1.9030 O   0  0  0  0  0  0  0  0  0  0  0  0
   -2.5820   -1.0400   -2.4730 C   0  0  0  0  0  0  0  0  0  0  0  0
   -1.9540   -1.7480   -1.4750 O   0  0  0  0  0  0  0  0  0  0  0  0
   -2.2660   -1.1540   -0.2600 C   0  0  2  0  0  0  0  0  0  0  0  0
   -2.3930   -2.1330    0.8610 C   0  0  0  0  0  0  0  0  0  0  0  0
   -3.3350   -3.1750    0.7740 N   0  0  0  0  0  0  0  0  0  0  0  0
   -1.0250   -0.3310    0.0740 C   0  0  0  0  0  0  0  0  0  0  0  0
    0.2640   -0.6300   -0.1050 N   0  0  0  0  0  0  0  0  0  0  0  0
    1.0520    0.3560    0.3630 C   0  0  0  0  0  0  0  0  0  0  0  0
    2.5320    0.4920    0.4270 C   0  0  2  0  0  0  0  0  0  0  0  0
    2.9510    0.8860    1.7060 O   0  0  0  0  0  0  0  0  0  0  0  0
    3.1060    1.3350   -0.6470 C   0  0  0  0  0  0  0  0  0  0  0  0
    4.8730    1.5180   -0.4900 S   0  0  0  0  0  0  0  0  0  0  0  0
    5.8590    0.0720   -0.7780 C   0  0  0  0  0  0  0  0  0  0  0  0
    5.6950   -0.9640    0.2870 C   0  0  0  0  0  0  0  0  0  0  0  0
    5.4010   -2.3290    0.0280 N   0  0  0  0  0  0  0  0  0  0  0  0
    5.8210   -0.6700    1.5330 O   0  0  0  0  0  0  0  0  0  0  0  0
    0.1960    1.3010    0.8430 N   0  0  0  0  0  0  0  0  0  0  0  0
    0.4700    2.5870    1.4360 C   0  0  0  0  0  0  0  0  0  0  0  0
    0.4630    3.7130    0.4800 C   0  0  0  0  0  0  0  0  0  0  0  0
    0.1870    3.6440   -0.8940 N   0  0  0  0  0  0  0  0  0  0  0  0
    0.7390    4.8520    1.0240 O   0  0  0  0  0  0  0  0  0  0  0  0
   -1.0350    0.8670    0.6610 N   0  0  0  0  0  0  0  0  0  0  0  0
  2  1  1  6
  2  3  1  0
  2  4  1  0
  2  7  1  0
  4  5  1  0
  5  6  1  0
  6  7  1  0
  7  8  1  1
  7 10  1  0
  8  9  1  0
 10 11  1  0
 10 26  2  0
 11 12  2  0
 12 13  1  0
 12 21  1  0
 13 14  1  1
 13 15  1  0
 15 16  1  0
 16 17  1  0
 17 18  1  0
 18 19  1  0
 18 20  2  0
 21 22  1  0
 21 26  1  0
 22 23  1  0
 23 24  1  0
 23 25  2  0
M  CHG  1   9   1
M  END
