
     RDKit          3D

 26 27  0  0  0  0  0  0  0  0999 V2000
    4.0580    0.1320    0.3340 C   0  0  0  0  0  0  0  0  0  0  0  0
    3.9820    0.7180   -1.0470 C   0  0  1  0  0  0  0  0  0  0  0  0
    2.7020    1.9280   -1.1480 S   0  0  0  0  0  0  0  0  0  0  0  0
    1.0350    1.3690   -1.1470 C   0  0  0  0  0  0  0  0  0  0  0  0
    0.6480    0.6710    0.1340 C   0  0  0  0  0  0  0  0  0  0  0  0
   -0.7040    0.3130    0.2320 N   0  0  0  0  0  0  0  0  0  0  0  0
   -1.6990    1.2600    0.7390 C   0  0  0  0  0  0  0  0  0  0  0  0
   -1.4380    1.9340    1.7300 O   0  0  0  0  0  0  0  0  0  0  0  0
   -2.9960    1.3750    0.0320 C   0  0  2  0  0  0  0  0  0  0  0  0
   -4.0210    1.6200    1.0230 N   0  0  0  0  0  0  0  0  0  0  0  0
   -4.7520    2.8250    1.0020 C   0  0  0  0  0  0  0  0  0  0  0  0
   -5.7690    3.1260    1.9440 N   0  0  0  0  0  0  0  0  0  0  0  0
   -4.4720    3.6630    0.0950 O   0  0  0  0  0  0  0  0  0  0  0  0
   -3.2630    0.1360   -0.8000 C   0  0  0  0  0  0  0  0  0  0  0  0
   -2.7290   -1.0810   -0.0370 C   0  0  1  0  0  0  0  0  0  0  0  0
   -3.2570   -2.2490   -0.4210 O   0  0  0  0  0  0  0  0  0  0  0  0
   -2.5200   -3.3390   -0.7580 C   0  0  0  0  0  0  0  0  0  0  0  0
   -3.0650   -4.4180   -1.0480 O   0  0  0  0  0  0  0  0  0  0  0  0
   -1.1250   -3.2050   -0.7670 N   0  0  0  0  0  0  0  0  0  0  0  0
   -0.4500   -1.9520   -0.4300 C   0  0  0  0  0  0  0  0  0  0  0  0
    0.9950   -1.8740   -0.4470 C   0  0  0  0  0  0  0  0  0  0  0  0
    1.6480   -2.7720    0.5050 N   0  0  0  0  0  0  0  0  0  0  0  0
   -1.2180   -0.9500   -0.1130 C   0  0  0  0  0  0  0  0  0  0  0  0
    5.3060    1.2060   -1.4870 C   0  0  0  0  0  0  0  0  0  0  0  0
    6.3890    0.3110   -1.5710 N   0  0  0  0  0  0  0  0  0  0  0  0
    5.4570    2.4040   -1.7810 O   0  0  0  0  0  0  0  0  0  0  0  0
  2  1  1  1
  2  3  1  0
  2 24  1  0
  3  4  1  0
  4  5  1  0
  5  6  1  0
  6  7  1  0
  6 23  1  0
  7  8  2  0
  7  9  1  0
  9 10  1  1
  9 14  1  0
 10 11  1  0
 11 12  1  0
 11 13  2  0
 15 14  1  6
 15 16  1  0
 15 23  1  0
 16 17  1  0
 17 18  2  0
 17 19  1  0
 19 20  1  0
 20 21  1  0
 20 23  2  0
 21 22  1  0
 24 25  1  0
 24 26  2  0
M  CHG  1  22   1
M  END
