
     RDKit          3D

 26 27  0  0  0  0  0  0  0  0999 V2000
   -7.5440   -0.2600   -0.3450 C   0  0  0  0  0  0  0  0  0  0  0  0
   -7.4180    0.2590    0.9040 O   0  0  0  0  0  0  0  0  0  0  0  0
   -6.3770   -0.1280    1.6700 C   0  0  0  0  0  0  0  0  0  0  0  0
   -5.0750    0.2970    1.0480 C   0  0  0  0  0  0  0  0  0  0  0  0
   -5.1320    0.9600    0.0240 O   0  0  0  0  0  0  0  0  0  0  0  0
   -3.8450   -0.0450    1.6090 N   0  0  0  0  0  0  0  0  0  0  0  0
   -2.5120    0.2180    1.2390 C   0  0  0  0  0  0  0  0  0  0  0  0
   -1.8950    0.8430    0.2900 C   0  0  0  0  0  0  0  0  0  0  0  0
   -2.6020    1.5280   -0.7890 N   0  0  0  0  0  0  0  0  0  0  0  0
   -0.4270    0.8750    0.2950 C   0  0  0  0  0  0  0  0  0  0  0  0
    0.1230   -0.3390    0.9630 C   0  0  2  0  0  0  0  0  0  0  0  0
    1.4340   -0.1680    1.5020 N   0  0  0  0  0  0  0  0  0  0  0  0
    2.5160   -1.0070    1.0540 C   0  0  0  0  0  0  0  0  0  0  0  0
    3.4230   -1.3730    1.8550 O   0  0  0  0  0  0  0  0  0  0  0  0
    2.4940   -1.4060   -0.3890 C   0  0  2  0  0  0  0  0  0  0  0  0
    3.3680   -2.6120   -0.6300 C   0  0  0  0  0  0  0  0  0  0  0  0
    2.9640   -0.2200   -1.2080 C   0  0  0  0  0  0  0  0  0  0  0  0
    4.3410    0.1950   -0.8450 C   0  0  0  0  0  0  0  0  0  0  0  0
    5.0290   -0.3810    0.0340 O   0  0  0  0  0  0  0  0  0  0  0  0
    4.8670    1.3200   -1.5650 N   0  0  0  0  0  0  0  0  0  0  0  0
    6.2130    1.7390   -1.2210 C   0  0  0  0  0  0  0  0  0  0  0  0
    6.2230    2.0990    0.1730 N   0  0  0  0  0  0  0  0  0  0  0  0
    1.1450   -1.7800   -0.7760 N   0  0  0  0  0  0  0  0  0  0  0  0
    0.0540   -1.4930    0.0660 C   0  0  0  0  0  0  0  0  0  0  0  0
   -0.9520   -2.2320    0.0280 O   0  0  0  0  0  0  0  0  0  0  0  0
   -1.1340   -0.4490    2.2980 S   0  0  0  0  0  0  0  0  0  0  0  0
  1  2  1  0
  2  3  1  0
  3  4  1  0
  4  5  2  0
  4  6  1  0
  6  7  1  0
  7  8  2  0
  7 26  1  0
  8  9  1  0
  8 10  1  0
 11 10  1  6
 11 12  1  0
 11 24  1  0
 11 26  1  0
 12 13  1  0
 13 14  2  0
 13 15  1  0
 15 16  1  1
 15 17  1  0
 15 23  1  0
 17 18  1  0
 18 19  2  0
 18 20  1  0
 20 21  1  0
 21 22  1  0
 23 24  1  0
 24 25  2  0
M  CHG  1   9   1
M  END
