
     RDKit          3D

 21 24  0  0  0  0  0  0  0  0999 V2000
    4.0060    0.9720   -0.3110 C   0  0  0  0  0  0  0  0  0  0  0  0
    2.4920    1.0820   -0.5610 C   0  0  2  0  0  0  0  0  0  0  0  0
    2.0500    2.0840    0.2520 O   0  0  0  0  0  0  0  0  0  0  0  0
    1.6580    1.5180    1.4630 C   0  0  0  0  0  0  0  0  0  0  0  0
    0.2710    0.9250    1.1060 C   0  0  1  0  0  0  0  0  0  0  0  0
   -0.4130    2.0630    0.4870 C   0  0  0  0  0  0  0  0  0  0  0  0
   -1.7270    1.8510   -0.1200 C   0  0  0  0  0  0  0  0  0  0  0  0
   -2.8140    2.5840    0.1450 C   0  0  0  0  0  0  0  0  0  0  0  0
   -3.9040    2.0420   -0.6690 C   0  0  0  0  0  0  0  0  0  0  0  0
   -3.3300    0.9200   -1.4320 C   0  0  0  0  0  0  0  0  0  0  0  0
   -2.0730    0.8310   -1.0970 C   0  0  0  0  0  0  0  0  0  0  0  0
   -1.0930   -0.1820   -1.6280 C   0  0  0  0  0  0  0  0  0  0  0  0
   -0.6120   -0.9090   -0.3930 C   0  0  1  0  0  0  0  0  0  0  0  0
   -1.7490   -1.0580    0.6230 C   0  0  0  0  0  0  0  0  0  0  0  0
   -1.4340   -2.3710    1.3510 C   0  0  0  0  0  0  0  0  0  0  0  0
   -0.5800   -3.1810    0.4400 C   0  0  0  0  0  0  0  0  0  0  0  0
   -0.4650   -2.3380   -0.7880 C   0  0  0  0  0  0  0  0  0  0  0  0
    0.5550   -0.3040    0.3060 C   0  0  2  0  0  0  0  0  0  0  0  0
    0.8790   -1.2820    1.2950 O   0  0  0  0  0  0  0  0  0  0  0  0
    1.7970   -0.2140   -0.5330 C   0  0  2  0  0  0  0  0  0  0  0  0
    2.8480   -1.2760   -0.1740 C   0  0  0  0  0  0  0  0  0  0  0  0
  2  1  1  1
  2  3  1  0
  2 20  1  0
  3  4  1  0
  5  4  1  6
  5  6  1  0
  5 18  1  0
  6  7  1  0
  7  8  2  0
  7 11  1  0
  8  9  1  0
  9 10  1  0
 10 11  2  0
 11 12  1  0
 13 12  1  6
 13 14  1  0
 13 17  1  0
 13 18  1  0
 14 15  1  0
 15 16  1  0
 16 17  1  0
 18 19  1  1
 18 20  1  0
 20 21  1  1
M  END
