
     RDKit          3D

 26 28  0  0  0  0  0  0  0  0999 V2000
   -5.0860    2.5600    2.5520 N   0  0  0  0  0  0  0  0  0  0  0  0
   -4.7910    1.8820    1.3410 C   0  0  0  0  0  0  0  0  0  0  0  0
   -5.5750    2.0030    0.2310 N   0  0  0  0  0  0  0  0  0  0  0  0
   -5.2650    1.3460   -0.9000 C   0  0  0  0  0  0  0  0  0  0  0  0
   -4.1880    0.5440   -1.0100 N   0  0  0  0  0  0  0  0  0  0  0  0
   -3.3800    0.3840    0.0430 C   0  0  0  0  0  0  0  0  0  0  0  0
   -3.6910    1.0530    1.2030 C   0  0  0  0  0  0  0  0  0  0  0  0
   -2.7280    0.7170    2.0840 N   0  0  0  0  0  0  0  0  0  0  0  0
   -1.8670   -0.1240    1.4820 C   0  0  0  0  0  0  0  0  0  0  0  0
   -2.2600   -0.3400    0.2110 N   0  0  0  0  0  0  0  0  0  0  0  0
   -1.5700   -1.1840   -0.7080 C   0  0  2  0  0  0  0  0  0  0  0  0
   -0.2390   -1.3800   -0.3070 O   0  0  0  0  0  0  0  0  0  0  0  0
    0.4100   -1.9570   -1.3740 C   0  0  2  0  0  0  0  0  0  0  0  0
    1.8530   -1.5940   -1.5030 C   0  0  0  0  0  0  0  0  0  0  0  0
    2.8520   -2.0530   -0.0830 S   0  0  0  0  0  0  0  0  0  0  0  0
    2.3510   -1.0930    1.3420 C   0  0  0  0  0  0  0  0  0  0  0  0
    2.5990    0.3590    1.2940 C   0  0  0  0  0  0  0  0  0  0  0  0
    4.0220    0.8020    1.2200 C   0  0  2  0  0  0  0  0  0  0  0  0
    4.0490    2.2870    1.1860 N   0  0  0  0  0  0  0  0  0  0  0  0
    4.6810    0.3680   -0.0010 C   0  0  0  0  0  0  0  0  0  0  0  0
    4.7820    1.1000   -1.0320 O   0  0  0  0  0  0  0  0  0  0  0  0
    5.2510   -0.8860   -0.1070 O   0  0  0  0  0  0  0  0  0  0  0  0
   -0.3010   -1.5170   -2.6320 C   0  0  1  0  0  0  0  0  0  0  0  0
   -0.9660   -2.5990   -3.2110 O   0  0  0  0  0  0  0  0  0  0  0  0
   -1.3780   -0.5910   -2.0730 C   0  0  1  0  0  0  0  0  0  0  0  0
   -2.5000   -0.7220   -2.8810 O   0  0  0  0  0  0  0  0  0  0  0  0
  1  2  1  0
  2  3  2  0
  2  7  1  0
  3  4  1  0
  4  5  2  0
  5  6  1  0
  6  7  2  0
  6 10  1  0
  7  8  1  0
  8  9  2  0
  9 10  1  0
 11 10  1  1
 11 12  1  0
 11 25  1  0
 12 13  1  0
 13 14  1  6
 13 23  1  0
 14 15  1  0
 15 16  1  0
 16 17  1  0
 17 18  1  0
 18 19  1  6
 18 20  1  0
 20 21  2  0
 20 22  1  0
 23 24  1  1
 23 25  1  0
 25 26  1  6
M  CHG  1  19   1
M  END
