
     RDKit          3D

 29 31  0  0  0  0  0  0  0  0999 V2000
    5.7840   -2.6370    1.9120 C   0  0  0  0  0  0  0  0  0  0  0  0
    4.5470   -2.8200    1.0620 C   0  0  0  0  0  0  0  0  0  0  0  0
    4.0720   -1.4710    0.6960 N   0  0  0  0  0  0  0  0  0  0  0  0
    2.9270   -1.2900   -0.1010 C   0  0  0  0  0  0  0  0  0  0  0  0
    2.3690   -2.4150   -0.4550 O   0  0  0  0  0  0  0  0  0  0  0  0
    2.3090   -0.0870   -0.5630 C   0  0  0  0  0  0  0  0  0  0  0  0
    1.2040   -0.2470   -1.3200 C   0  0  0  0  0  0  0  0  0  0  0  0
    0.4600    0.8250   -1.8650 N   0  0  0  0  0  0  0  0  0  0  0  0
    0.8300    1.4600   -3.0920 C   0  0  0  0  0  0  0  0  0  0  0  0
    0.1420    2.4640   -3.6020 C   0  0  0  0  0  0  0  0  0  0  0  0
   -1.0240    2.8990   -2.8510 C   0  0  0  0  0  0  0  0  0  0  0  0
   -1.4400    2.3740   -1.7190 C   0  0  0  0  0  0  0  0  0  0  0  0
   -2.6470    2.9060   -1.0430 C   0  0  0  0  0  0  0  0  0  0  0  0
   -3.2510    3.8630   -1.5790 O   0  0  0  0  0  0  0  0  0  0  0  0
   -3.1220    2.3970    0.1340 O   0  0  0  0  0  0  0  0  0  0  0  0
   -4.2670    2.8780    0.8070 C   0  0  0  0  0  0  0  0  0  0  0  0
   -0.7080    1.2390   -1.1280 C   0  0  1  0  0  0  0  0  0  0  0  0
   -1.6130    0.0270   -1.0370 C   0  0  0  0  0  0  0  0  0  0  0  0
   -1.9470   -0.5130    0.1060 C   0  0  0  0  0  0  0  0  0  0  0  0
   -1.5840   -0.1430    1.4920 C   0  0  0  0  0  0  0  0  0  0  0  0
   -2.8050   -0.5990    2.2760 C   0  0  0  0  0  0  0  0  0  0  0  0
   -3.3280   -1.7490    1.5210 C   0  0  0  0  0  0  0  0  0  0  0  0
   -4.1340   -2.8830    1.5650 C   0  0  0  0  0  0  0  0  0  0  0  0
   -4.1180   -3.4860    0.3790 N   0  0  0  0  0  0  0  0  0  0  0  0
   -3.3300   -2.7790   -0.4280 C   0  0  0  0  0  0  0  0  0  0  0  0
   -2.8190   -1.6880    0.2500 C   0  0  0  0  0  0  0  0  0  0  0  0
    2.7400    1.2340   -0.3030 C   0  0  0  0  0  0  0  0  0  0  0  0
    3.8890    1.7030    0.4750 C   0  0  0  0  0  0  0  0  0  0  0  0
    2.0350    2.1980   -0.8150 O   0  0  0  0  0  0  0  0  0  0  0  0
  1  2  1  0
  2  3  1  0
  3  4  1  0
  4  5  2  0
  4  6  1  0
  6  7  2  3
  6 27  1  0
  7  8  1  0
  8  9  1  0
  8 17  1  0
  9 10  2  0
 10 11  1  0
 11 12  2  0
 12 13  1  0
 12 17  1  0
 13 14  2  0
 13 15  1  0
 15 16  1  0
 17 18  1  6
 18 19  2  3
 19 20  1  0
 19 26  1  0
 20 21  1  0
 21 22  1  0
 22 23  2  0
 22 26  1  0
 23 24  1  0
 24 25  1  0
 25 26  2  0
 27 28  1  0
 27 29  2  0
M  END
