
     RDKit          3D

 30 34  0  0  0  0  0  0  0  0999 V2000
   -6.4790    2.2300   -1.4810 C   0  0  0  0  0  0  0  0  0  0  0  0
   -5.7290    1.6550   -0.2940 C   0  0  0  0  0  0  0  0  0  0  0  0
   -5.8400    0.2040   -0.2610 N   0  0  0  0  0  0  0  0  0  0  0  0
   -6.5840   -0.3950    0.7790 C   0  0  0  0  0  0  0  0  0  0  0  0
   -6.3690   -1.6420    1.1190 C   0  0  0  0  0  0  0  0  0  0  0  0
   -5.3590   -2.4700    0.4460 C   0  0  0  0  0  0  0  0  0  0  0  0
   -4.5090   -1.7690   -0.5550 C   0  0  2  0  0  0  0  0  0  0  0  0
   -3.2070   -1.2680    0.0110 C   0  0  0  0  0  0  0  0  0  0  0  0
   -3.0500   -0.2250    0.8340 N   0  0  0  0  0  0  0  0  0  0  0  0
   -1.7330   -0.0870    1.1240 C   0  0  0  0  0  0  0  0  0  0  0  0
   -1.0990   -1.1000    0.4360 C   0  0  0  0  0  0  0  0  0  0  0  0
    0.3530   -1.3530    0.4430 C   0  0  0  0  0  0  0  0  0  0  0  0
    1.2410   -0.4130    0.3990 C   0  0  0  0  0  0  0  0  0  0  0  0
    0.8210    0.9110    0.3420 O   0  0  0  0  0  0  0  0  0  0  0  0
    2.6680   -0.6810    0.4090 C   0  0  0  0  0  0  0  0  0  0  0  0
    3.2230   -1.9430    0.4790 C   0  0  0  0  0  0  0  0  0  0  0  0
    4.6070   -2.1130    0.4810 C   0  0  0  0  0  0  0  0  0  0  0  0
    5.4850   -1.0600    0.4150 C   0  0  0  0  0  0  0  0  0  0  0  0
    6.8360   -0.9610    0.4000 N   0  0  0  0  0  0  0  0  0  0  0  0
    7.1640    0.3400    0.3210 C   0  0  0  0  0  0  0  0  0  0  0  0
    8.4050    0.9460    0.2760 C   0  0  0  0  0  0  0  0  0  0  0  0
    8.5110    2.3200    0.1940 C   0  0  0  0  0  0  0  0  0  0  0  0
    7.3640    3.0740    0.1580 C   0  0  0  0  0  0  0  0  0  0  0  0
    7.4390    4.8130    0.0550 Cl  0  0  0  0  0  0  0  0  0  0  0  0
    6.1110    2.4460    0.2040 C   0  0  0  0  0  0  0  0  0  0  0  0
    6.0080    1.0890    0.2850 C   0  0  0  0  0  0  0  0  0  0  0  0
    4.9440    0.2230    0.3430 C   0  0  0  0  0  0  0  0  0  0  0  0
    3.5720    0.3860    0.3420 C   0  0  0  0  0  0  0  0  0  0  0  0
   -2.0220   -1.7650   -0.2040 O   0  0  0  0  0  0  0  0  0  0  0  0
   -5.2180   -0.6380   -1.2540 C   0  0  0  0  0  0  0  0  0  0  0  0
  1  2  1  0
  2  3  1  0
  3  4  1  0
  3 30  1  0
  4  5  2  0
  5  6  1  0
  6  7  1  0
  7  8  1  1
  7 30  1  0
  8  9  2  0
  8 29  1  0
  9 10  1  0
 10 11  2  0
 11 12  1  0
 11 29  1  0
 12 13  2  3
 13 14  1  0
 13 15  1  0
 15 16  2  0
 15 28  1  0
 16 17  1  0
 17 18  2  0
 18 19  1  0
 18 27  1  0
 19 20  1  0
 20 21  2  0
 20 26  1  0
 21 22  1  0
 22 23  2  0
 23 24  1  0
 23 25  1  0
 25 26  2  0
 26 27  1  0
 27 28  2  0
M  END
