
     RDKit          3D

 30 34  0  0  0  0  0  0  0  0999 V2000
   -0.7850   -2.0040    1.8510 O   0  0  0  0  0  0  0  0  0  0  0  0
   -1.4060   -1.3090    0.9690 C   0  0  0  0  0  0  0  0  0  0  0  0
   -2.8700   -1.1730    1.1110 C   0  0  0  0  0  0  0  0  0  0  0  0
   -3.4940   -0.3650    0.0890 C   0  0  0  0  0  0  0  0  0  0  0  0
   -2.8070    0.1850   -0.8800 C   0  0  0  0  0  0  0  0  0  0  0  0
   -1.3700    0.0200   -0.9880 C   0  0  0  0  0  0  0  0  0  0  0  0
   -0.6500   -0.7070   -0.0990 C   0  0  0  0  0  0  0  0  0  0  0  0
    0.7760   -0.8280   -0.2750 C   0  0  0  0  0  0  0  0  0  0  0  0
    1.3390   -0.2410   -1.2800 O   0  0  0  0  0  0  0  0  0  0  0  0
    1.6280   -1.5450    0.5670 N   0  0  0  0  0  0  0  0  0  0  0  0
    3.0460   -1.5970    0.3060 C   0  0  0  0  0  0  0  0  0  0  0  0
    3.6880   -0.2740    0.4730 C   0  0  0  0  0  0  0  0  0  0  0  0
    2.9820    0.8100    0.9150 C   0  0  0  0  0  0  0  0  0  0  0  0
    3.6400    2.0370    1.0850 C   0  0  0  0  0  0  0  0  0  0  0  0
    4.9860    2.1330    0.8060 C   0  0  0  0  0  0  0  0  0  0  0  0
    5.7170    1.0530    0.3610 C   0  0  0  0  0  0  0  0  0  0  0  0
    7.0490    1.1370    0.0820 C   0  0  0  0  0  0  0  0  0  0  0  0
    7.7250    0.0330   -0.3590 C   0  0  0  0  0  0  0  0  0  0  0  0
    9.4260    0.0490   -0.7400 Cl  0  0  0  0  0  0  0  0  0  0  0  0
    7.0280   -1.1510   -0.5100 C   0  0  0  0  0  0  0  0  0  0  0  0
    5.7190   -1.2240   -0.2320 N   0  0  0  0  0  0  0  0  0  0  0  0
    5.0720   -0.1480    0.1940 C   0  0  0  0  0  0  0  0  0  0  0  0
   -3.4490    0.9980   -1.9600 C   0  0  0  0  0  0  0  0  0  0  0  0
   -4.8650    1.3080   -1.7990 C   0  0  0  0  0  0  0  0  0  0  0  0
   -5.5810    0.6160   -0.7180 C   0  0  0  0  0  0  0  0  0  0  0  0
   -6.9780    0.7720   -0.6020 C   0  0  0  0  0  0  0  0  0  0  0  0
   -7.6180    0.1660    0.3860 N   0  0  0  0  0  0  0  0  0  0  0  0
   -7.0170   -0.6100    1.3150 C   0  0  0  0  0  0  0  0  0  0  0  0
   -5.6560   -0.7710    1.2140 C   0  0  0  0  0  0  0  0  0  0  0  0
   -4.9510   -0.1590    0.2000 C   0  0  0  0  0  0  0  0  0  0  0  0
  1  2  2  0
  2  3  1  0
  2  7  1  0
  3  4  1  0
  4  5  2  0
  4 30  1  0
  5  6  1  0
  5 23  1  0
  6  7  2  0
  7  8  1  0
  8  9  2  0
  8 10  1  0
 10 11  1  0
 11 12  1  0
 12 13  2  0
 12 22  1  0
 13 14  1  0
 14 15  2  0
 15 16  1  0
 16 17  2  0
 16 22  1  0
 17 18  1  0
 18 19  1  0
 18 20  2  0
 20 21  1  0
 21 22  2  0
 23 24  1  0
 24 25  1  0
 25 26  2  0
 25 30  1  0
 26 27  1  0
 27 28  2  0
 28 29  1  0
 29 30  2  0
M  END
