
     RDKit          3D

 30 34  0  0  0  0  0  0  0  0999 V2000
   -1.4120   -4.5430   -0.7680 C   0  0  0  0  0  0  0  0  0  0  0  0
   -1.5190   -3.2190   -0.4220 O   0  0  0  0  0  0  0  0  0  0  0  0
   -0.5510   -2.3220   -0.1150 C   0  0  0  0  0  0  0  0  0  0  0  0
    0.7600   -2.7070   -0.1270 C   0  0  0  0  0  0  0  0  0  0  0  0
    1.7970   -1.8490    0.1740 C   0  0  0  0  0  0  0  0  0  0  0  0
    1.5060   -0.5480    0.5020 C   0  0  0  0  0  0  0  0  0  0  0  0
    0.2030   -0.1270    0.5240 C   0  0  0  0  0  0  0  0  0  0  0  0
   -0.8590   -0.9790    0.2230 C   0  0  0  0  0  0  0  0  0  0  0  0
   -2.1340   -0.6810    0.2140 O   0  0  0  0  0  0  0  0  0  0  0  0
   -3.1020    0.1960    0.3810 C   0  0  0  0  0  0  0  0  0  0  0  0
   -2.9560    1.5200    0.7450 C   0  0  0  0  0  0  0  0  0  0  0  0
   -4.0510    2.3430    0.8890 C   0  0  0  0  0  0  0  0  0  0  0  0
   -5.3140    1.8930    0.6810 C   0  0  0  0  0  0  0  0  0  0  0  0
   -6.3740    2.7460    0.8360 C   0  0  0  0  0  0  0  0  0  0  0  0
   -7.6700    2.2880    0.6240 C   0  0  0  0  0  0  0  0  0  0  0  0
   -7.8230    0.9670    0.2600 C   0  0  0  0  0  0  0  0  0  0  0  0
   -6.7530    0.1290    0.1100 C   0  0  0  0  0  0  0  0  0  0  0  0
   -5.4610    0.5750    0.3190 C   0  0  0  0  0  0  0  0  0  0  0  0
   -4.4170   -0.2090    0.1810 N   0  0  0  0  0  0  0  0  0  0  0  0
    2.6100    0.3950    0.8330 C   0  0  0  0  0  0  0  0  0  0  0  0
    3.8360    0.0470    0.1770 N   0  0  0  0  0  0  0  0  0  0  0  0
    4.8200    1.0680    0.0620 C   0  0  0  0  0  0  0  0  0  0  0  0
    5.9660    0.8110   -0.6320 C   0  0  0  0  0  0  0  0  0  0  0  0
    6.9280    1.7680   -0.7580 C   0  0  0  0  0  0  0  0  0  0  0  0
    6.7560    3.0060   -0.1860 C   0  0  0  0  0  0  0  0  0  0  0  0
    8.0240    4.1900   -0.3810 Cl  0  0  0  0  0  0  0  0  0  0  0  0
    5.6270    3.2380    0.4900 N   0  0  0  0  0  0  0  0  0  0  0  0
    4.6630    2.3230    0.6320 C   0  0  0  0  0  0  0  0  0  0  0  0
    4.1390   -1.2490   -0.3610 C   0  0  0  0  0  0  0  0  0  0  0  0
    3.2070   -2.3250    0.1420 C   0  0  0  0  0  0  0  0  0  0  0  0
  1  2  1  0
  2  3  1  0
  3  4  2  0
  3  8  1  0
  4  5  1  0
  5  6  2  0
  5 30  1  0
  6  7  1  0
  6 20  1  0
  7  8  2  0
  8  9  1  0
  9 10  1  0
 10 11  2  0
 10 19  1  0
 11 12  1  0
 12 13  2  0
 13 14  1  0
 13 18  1  0
 14 15  2  0
 15 16  1  0
 16 17  2  0
 17 18  1  0
 18 19  2  0
 20 21  1  0
 21 22  1  0
 21 29  1  0
 22 23  2  0
 22 28  1  0
 23 24  1  0
 24 25  2  0
 25 26  1  0
 25 27  1  0
 27 28  2  0
 29 30  1  0
M  END
