
     RDKit          3D

 31 32  0  0  0  0  0  0  0  0999 V2000
  -11.0000    0.8670    1.9270 C   0  0  0  0  0  0  0  0  0  0  0  0
   -9.6250    1.1980    1.3970 C   0  0  0  0  0  0  0  0  0  0  0  0
   -8.8220    1.8680    2.0970 O   0  0  0  0  0  0  0  0  0  0  0  0
   -9.2290    0.7570    0.1080 N   0  0  0  0  0  0  0  0  0  0  0  0
   -7.9420    1.0170   -0.4840 C   0  0  0  0  0  0  0  0  0  0  0  0
   -6.8670    0.4170    0.3530 C   0  0  0  0  0  0  0  0  0  0  0  0
   -5.2130    0.7010   -0.3300 S   0  0  0  0  0  0  0  0  0  0  0  0
   -3.7950   -0.2070    0.9660 S   0  0  0  0  0  0  0  0  0  0  0  0
   -3.4790   -1.9280    0.4780 C   0  0  0  0  0  0  0  0  0  0  0  0
   -2.8070   -1.8830   -0.8730 C   0  0  0  0  0  0  0  0  0  0  0  0
   -1.5720   -1.1360   -0.7750 N   0  0  0  0  0  0  0  0  0  0  0  0
   -0.5030   -1.5340    0.0630 C   0  0  0  0  0  0  0  0  0  0  0  0
   -0.6320   -2.5780    0.7430 O   0  0  0  0  0  0  0  0  0  0  0  0
    0.7670   -0.7430    0.1530 C   0  0  1  0  0  0  0  0  0  0  0  0
    1.7160   -1.4300    1.1060 C   0  0  0  0  0  0  0  0  0  0  0  0
    3.0790   -1.4700    0.4990 C   0  0  0  0  0  0  0  0  0  0  0  0
    3.5390   -0.0990    0.0460 C   0  0  1  0  0  0  0  0  0  0  0  0
    4.8650   -0.2470   -0.5100 N   0  0  0  0  0  0  0  0  0  0  0  0
    5.9990    0.4660    0.0230 C   0  0  0  0  0  0  0  0  0  0  0  0
    5.7330    1.1950    0.9770 O   0  0  0  0  0  0  0  0  0  0  0  0
    7.3110    0.2780   -0.5800 C   0  0  0  0  0  0  0  0  0  0  0  0
    7.4230   -0.6600   -1.5790 N   0  0  0  0  0  0  0  0  0  0  0  0
    8.5380   -0.9250   -2.2020 C   0  0  0  0  0  0  0  0  0  0  0  0
    9.6700   -0.2330   -1.8470 C   0  0  0  0  0  0  0  0  0  0  0  0
    9.6010    0.6810   -0.8860 N   0  0  0  0  0  0  0  0  0  0  0  0
    8.4210    0.9710   -0.2170 C   0  0  0  0  0  0  0  0  0  0  0  0
    8.4850    2.0090    0.8020 C   0  0  0  0  0  0  0  0  0  0  0  0
    9.6180    2.5650    1.0390 O   0  0  0  0  0  0  0  0  0  0  0  0
    7.4470    2.4530    1.5370 O   0  0  0  0  0  0  0  0  0  0  0  0
    2.5880    0.3970   -0.9920 C   0  0  0  0  0  0  0  0  0  0  0  0
    1.4180   -0.5450   -1.1770 C   0  0  0  0  0  0  0  0  0  0  0  0
  1  2  1  0
  2  3  2  0
  2  4  1  0
  4  5  1  0
  5  6  1  0
  6  7  1  0
  7  8  1  0
  8  9  1  0
  9 10  1  0
 10 11  1  0
 11 12  1  0
 12 13  2  0
 14 12  1  6
 14 15  1  0
 14 31  1  0
 15 16  1  0
 16 17  1  0
 17 18  1  6
 17 30  1  0
 18 19  1  0
 19 20  2  0
 19 21  1  0
 21 22  2  0
 21 26  1  0
 22 23  1  0
 23 24  2  0
 24 25  1  0
 25 26  2  0
 26 27  1  0
 27 28  2  0
 27 29  1  0
 30 31  1  0
M  END
