
     RDKit          3D

 30 34  0  0  0  0  0  0  0  0999 V2000
    0.8660   -0.8050   -2.7760 C   0  0  0  0  0  0  0  0  0  0  0  0
    0.3090   -0.8360   -1.3920 C   0  0  2  0  0  0  0  0  0  0  0  0
   -0.4640   -2.0030   -1.1790 O   0  0  0  0  0  0  0  0  0  0  0  0
   -0.4780    0.3940   -1.0850 C   0  0  0  0  0  0  0  0  0  0  0  0
   -1.3760    0.3920    0.0620 C   0  0  1  0  0  0  0  0  0  0  0  0
   -2.5920   -0.5060   -0.2240 C   0  0  0  0  0  0  0  0  0  0  0  0
   -3.6220   -0.0480    0.6730 N   0  0  0  0  0  0  0  0  0  0  0  0
   -4.9200    0.2230    0.1260 C   0  0  0  0  0  0  0  0  0  0  0  0
   -5.3130    1.3420   -0.4600 C   0  0  0  0  0  0  0  0  0  0  0  0
   -6.7100    1.2200   -0.8810 C   0  0  0  0  0  0  0  0  0  0  0  0
   -7.0950   -0.1400   -0.4590 C   0  0  0  0  0  0  0  0  0  0  0  0
   -6.0510   -0.6920    0.1160 C   0  0  0  0  0  0  0  0  0  0  0  0
   -6.0520   -2.3310    0.7810 Cl  0  0  0  0  0  0  0  0  0  0  0  0
   -3.2990    0.1150    2.0620 C   0  0  0  0  0  0  0  0  0  0  0  0
   -1.9020    0.5990    2.3140 C   0  0  0  0  0  0  0  0  0  0  0  0
   -0.9400    0.1520    1.3470 N   0  0  0  0  0  0  0  0  0  0  0  0
   -0.1600   -0.9440    1.7020 C   0  0  0  0  0  0  0  0  0  0  0  0
    1.1640   -0.9600    0.9870 C   0  0  0  0  0  0  0  0  0  0  0  0
    2.2280   -1.0300    1.8310 C   0  0  0  0  0  0  0  0  0  0  0  0
    3.5170   -1.0540    1.3450 C   0  0  0  0  0  0  0  0  0  0  0  0
    3.7370   -1.0060   -0.0140 C   0  0  0  0  0  0  0  0  0  0  0  0
    5.0340   -1.0300   -0.5070 O   0  0  0  0  0  0  0  0  0  0  0  0
    5.7240    0.1770   -0.7050 C   0  0  0  0  0  0  0  0  0  0  0  0
    7.0120    0.1510   -1.1950 C   0  0  0  0  0  0  0  0  0  0  0  0
    7.7090    1.3290   -1.3960 C   0  0  0  0  0  0  0  0  0  0  0  0
    7.1020    2.4880   -1.1050 N   0  0  0  0  0  0  0  0  0  0  0  0
    5.8450    2.5440   -0.6250 C   0  0  0  0  0  0  0  0  0  0  0  0
    5.1370    1.3780   -0.4180 C   0  0  0  0  0  0  0  0  0  0  0  0
    2.6640   -0.9350   -0.8900 C   0  0  0  0  0  0  0  0  0  0  0  0
    1.3900   -0.9130   -0.3730 C   0  0  0  0  0  0  0  0  0  0  0  0
  2  1  1  6
  2  3  1  0
  2  4  1  0
  2 30  1  0
  5  4  1  6
  5  6  1  0
  5 16  1  0
  6  7  1  0
  7  8  1  0
  7 14  1  0
  8  9  2  0
  8 12  1  0
  9 10  1  0
 10 11  1  0
 11 12  2  0
 12 13  1  0
 14 15  1  0
 15 16  1  0
 16 17  1  0
 17 18  1  0
 18 19  2  0
 18 30  1  0
 19 20  1  0
 20 21  2  0
 21 22  1  0
 21 29  1  0
 22 23  1  0
 23 24  2  0
 23 28  1  0
 24 25  1  0
 25 26  2  0
 26 27  1  0
 27 28  2  0
 29 30  2  0
M  END
