
     RDKit          3D

 29 31  0  0  0  0  0  0  0  0999 V2000
    7.5400   -0.3680    1.4430 C   0  0  0  0  0  0  0  0  0  0  0  0
    6.5080   -0.8930    0.6280 O   0  0  0  0  0  0  0  0  0  0  0  0
    5.2310   -0.3860    0.6170 C   0  0  0  0  0  0  0  0  0  0  0  0
    4.9810    0.5830    1.3650 O   0  0  0  0  0  0  0  0  0  0  0  0
    4.2020   -0.9120   -0.2000 N   0  0  0  0  0  0  0  0  0  0  0  0
    4.4800   -2.0580   -1.0920 C   0  0  0  0  0  0  0  0  0  0  0  0
    4.4770   -1.4890   -2.4930 C   0  0  0  0  0  0  0  0  0  0  0  0
    3.7040   -0.2210   -2.6130 C   0  0  0  0  0  0  0  0  0  0  0  0
    2.5190   -0.1200   -1.7120 C   0  0  0  0  0  0  0  0  0  0  0  0
    2.8470   -0.4390   -0.2670 C   0  0  2  0  0  0  0  0  0  0  0  0
    2.5080    0.6770    0.6560 C   0  0  0  0  0  0  0  0  0  0  0  0
    1.1240    1.0540    0.4790 N   0  0  0  0  0  0  0  0  0  0  0  0
    0.0280    0.1390    0.7310 C   0  0  0  0  0  0  0  0  0  0  0  0
    0.2900   -0.9750    1.1110 O   0  0  0  0  0  0  0  0  0  0  0  0
   -1.2710    0.5540    0.5340 N   0  0  0  0  0  0  0  0  0  0  0  0
   -2.5340   -0.0420    0.6850 C   0  0  0  0  0  0  0  0  0  0  0  0
   -2.7880   -1.4630    0.7920 C   0  0  0  0  0  0  0  0  0  0  0  0
   -2.0350   -2.4360    1.2810 C   0  0  0  0  0  0  0  0  0  0  0  0
   -2.6850   -3.7580    1.1560 C   0  0  0  0  0  0  0  0  0  0  0  0
   -3.8320   -3.6380    0.5800 C   0  0  0  0  0  0  0  0  0  0  0  0
   -3.9820   -2.2020    0.3020 C   0  0  0  0  0  0  0  0  0  0  0  0
   -4.9890   -1.7440   -0.2790 O   0  0  0  0  0  0  0  0  0  0  0  0
   -3.5300    0.7920    0.3460 C   0  0  0  0  0  0  0  0  0  0  0  0
   -3.4840    2.1460   -0.1670 C   0  0  0  0  0  0  0  0  0  0  0  0
   -4.6840    2.7160   -0.0720 C   0  0  0  0  0  0  0  0  0  0  0  0
   -5.0220    4.0930   -0.4960 C   0  0  0  0  0  0  0  0  0  0  0  0
   -5.5930    1.7550    0.5170 C   0  0  0  0  0  0  0  0  0  0  0  0
   -7.0310    2.0020    0.7940 C   0  0  0  0  0  0  0  0  0  0  0  0
   -4.9150    0.6160    0.7680 C   0  0  0  0  0  0  0  0  0  0  0  0
  1  2  1  0
  2  3  1  0
  3  4  2  0
  3  5  1  0
  5  6  1  0
  5 10  1  0
  6  7  1  0
  7  8  1  0
  8  9  1  0
  9 10  1  0
 10 11  1  1
 11 12  1  0
 12 13  1  0
 13 14  2  0
 13 15  1  0
 15 16  1  0
 16 17  1  0
 16 23  2  3
 17 18  2  0
 17 21  1  0
 18 19  1  0
 19 20  2  0
 20 21  1  0
 21 22  2  0
 23 24  1  0
 23 29  1  0
 24 25  2  0
 25 26  1  0
 25 27  1  0
 27 28  1  0
 27 29  2  0
M  END
