
     RDKit          3D

 30 33  0  0  0  0  0  0  0  0999 V2000
    4.3110    0.0590   -3.9940 C   0  0  0  0  0  0  0  0  0  0  0  0
    3.7170   -0.4900   -2.9420 C   0  0  0  0  0  0  0  0  0  0  0  0
    4.1790   -0.1790   -1.5840 C   0  0  0  0  0  0  0  0  0  0  0  0
    3.0650    0.4630   -0.7910 C   0  0  0  0  0  0  0  0  0  0  0  0
    1.9090   -0.5090   -0.7210 C   0  0  0  0  0  0  0  0  0  0  0  0
    0.7970    0.0820    0.0560 N   0  0  0  0  0  0  0  0  0  0  0  0
    0.7970   -0.1560    1.4310 C   0  0  0  0  0  0  0  0  0  0  0  0
    0.3070   -1.4350    1.9510 C   0  0  0  0  0  0  0  0  0  0  0  0
   -0.1770   -1.4450    3.1300 O   0  0  0  0  0  0  0  0  0  0  0  0
    0.3110   -2.6790    1.2780 N   0  0  0  0  0  0  0  0  0  0  0  0
    0.8210   -3.9500    1.8140 C   0  0  0  0  0  0  0  0  0  0  0  0
    1.6860   -4.2410    0.5660 C   0  0  0  0  0  0  0  0  0  0  0  0
    0.6940   -3.9170   -0.4770 C   0  0  0  0  0  0  0  0  0  0  0  0
   -0.1630   -2.9530   -0.0460 C   0  0  0  0  0  0  0  0  0  0  0  0
   -1.3060   -2.3850   -0.7340 C   0  0  0  0  0  0  0  0  0  0  0  0
   -2.2890   -1.6240   -0.2950 C   0  0  0  0  0  0  0  0  0  0  0  0
   -2.6490   -1.0430    0.9720 C   0  0  0  0  0  0  0  0  0  0  0  0
   -2.6300    0.1840    1.4960 C   0  0  0  0  0  0  0  0  0  0  0  0
   -2.2100    1.4620    0.9100 C   0  0  0  0  0  0  0  0  0  0  0  0
   -1.2100    1.7260    0.0340 C   0  0  0  0  0  0  0  0  0  0  0  0
   -1.2950    3.0780   -0.2400 N   0  0  0  0  0  0  0  0  0  0  0  0
   -2.2920    3.6420    0.4280 C   0  0  0  0  0  0  0  0  0  0  0  0
   -2.7860    4.9520    0.4990 C   0  0  0  0  0  0  0  0  0  0  0  0
   -3.8630    5.2830    1.2920 C   0  0  0  0  0  0  0  0  0  0  0  0
   -4.4880    4.3080    2.0460 C   0  0  0  0  0  0  0  0  0  0  0  0
   -5.8640    4.6590    3.0760 Cl  0  0  0  0  0  0  0  0  0  0  0  0
   -3.9850    3.0400    1.9560 C   0  0  0  0  0  0  0  0  0  0  0  0
   -2.8920    2.6820    1.1580 C   0  0  0  0  0  0  0  0  0  0  0  0
   -0.2040    0.8630   -0.5810 C   0  0  0  0  0  0  0  0  0  0  0  0
   -0.1670    0.7560   -1.8730 O   0  0  0  0  0  0  0  0  0  0  0  0
  1  2  2  0
  2  3  1  0
  3  4  1  0
  4  5  1  0
  5  6  1  0
  6  7  1  0
  6 29  1  0
  7  8  1  0
  8  9  2  0
  8 10  1  0
 10 11  1  0
 10 14  1  0
 11 12  1  0
 12 13  1  0
 13 14  2  0
 14 15  1  0
 15 16  2  0
 16 17  1  0
 17 18  2  0
 18 19  1  0
 19 20  2  0
 19 28  1  0
 20 21  1  0
 20 29  1  0
 21 22  1  0
 22 23  2  0
 22 28  1  0
 23 24  1  0
 24 25  2  0
 25 26  1  0
 25 27  1  0
 27 28  2  0
 29 30  2  0
M  END
