
     RDKit          3D

 47 48  0  0  0  0  0  0  0  0999 V2000
   -3.6950   -2.3330   -0.6120 C   0  0  0  0  0  0  0  0  0  0  0  0
   -4.7420   -1.2730   -0.2880 C   0  0  0  0  0  0  0  0  0  0  0  0
   -4.2440   -0.3430    0.7570 C   0  0  0  0  0  0  0  0  0  0  0  0
   -2.9940   -0.6090    1.3320 C   0  0  0  0  0  0  0  0  0  0  0  0
   -2.4400    0.1910    2.2960 C   0  0  0  0  0  0  0  0  0  0  0  0
   -1.1430   -0.1260    2.8600 C   0  0  0  0  0  0  0  0  0  0  0  0
    0.0570    0.4960    2.2530 C   0  0  2  0  0  0  0  0  0  0  0  0
    0.0240    1.9500    2.3010 N   0  0  0  0  0  0  0  0  0  0  0  0
    0.8940    2.7280    3.0860 C   0  0  0  0  0  0  0  0  0  0  0  0
    0.7450    4.2030    3.0300 C   0  0  0  0  0  0  0  0  0  0  0  0
    1.7530    2.2140    3.7970 O   0  0  0  0  0  0  0  0  0  0  0  0
    0.4140    0.0200    0.8890 C   0  0  0  0  0  0  0  0  0  0  0  0
    0.6460    0.8460   -0.0410 O   0  0  0  0  0  0  0  0  0  0  0  0
    0.5100   -1.3550    0.5750 N   0  0  0  0  0  0  0  0  0  0  0  0
    0.8680   -1.9790   -0.6380 C   0  0  0  0  0  0  0  0  0  0  0  0
    2.2920   -1.8790   -1.0740 C   0  0  0  0  0  0  0  0  0  0  0  0
    2.9120   -0.5600   -1.2620 C   0  0  0  0  0  0  0  0  0  0  0  0
    4.3120   -0.5340   -1.7960 C   0  0  0  0  0  0  0  0  0  0  0  0
    5.2680   -1.2120   -0.9230 C   0  0  0  0  0  0  0  0  0  0  0  0
    4.9520   -1.8620    0.0900 O   0  0  0  0  0  0  0  0  0  0  0  0
    6.6750   -1.1610   -1.1990 N   0  0  0  0  0  0  0  0  0  0  0  0
    7.6980   -1.7950   -0.4310 C   0  0  1  0  0  0  0  0  0  0  0  0
    8.9040   -2.1940   -1.2350 C   0  0  0  0  0  0  0  0  0  0  0  0
    9.5610   -0.9890   -1.8870 C   0  0  0  0  0  0  0  0  0  0  0  0
   10.9960   -1.5910   -2.8220 S   0  0  0  0  0  0  0  0  0  0  0  0
   11.8690   -0.2250   -3.6400 C   0  0  0  0  0  0  0  0  0  0  0  0
    8.1200   -0.9350    0.7300 C   0  0  0  0  0  0  0  0  0  0  0  0
    7.5480    0.1740    0.8540 O   0  0  0  0  0  0  0  0  0  0  0  0
    9.0780   -1.2850    1.6470 O   0  0  0  0  0  0  0  0  0  0  0  0
   -3.1540    1.2930    2.7000 C   0  0  0  0  0  0  0  0  0  0  0  0
   -4.3780    1.5580    2.1410 C   0  0  0  0  0  0  0  0  0  0  0  0
   -4.9710    0.7450    1.1440 C   0  0  0  0  0  0  0  0  0  0  0  0
   -6.2510    1.1390    0.6510 N   0  0  0  0  0  0  0  0  0  0  0  0
   -7.1980    1.6610    1.5590 C   0  0  0  0  0  0  0  0  0  0  0  0
   -6.9600    1.6480    2.7880 O   0  0  0  0  0  0  0  0  0  0  0  0
   -8.4600    2.2320    1.1240 C   0  0  0  0  0  0  0  0  0  0  0  0
   -8.8160    2.3530   -0.0780 O   0  0  0  0  0  0  0  0  0  0  0  0
   -9.3820    2.6950    2.0680 O   0  0  0  0  0  0  0  0  0  0  0  0
   -6.6290    1.0440   -0.7030 C   0  0  0  0  0  0  0  0  0  0  0  0
   -6.0020    1.9160   -1.5920 C   0  0  0  0  0  0  0  0  0  0  0  0
   -6.3370    1.9020   -2.9160 C   0  0  0  0  0  0  0  0  0  0  0  0
   -7.3070    1.0080   -3.3490 C   0  0  0  0  0  0  0  0  0  0  0  0
   -7.9420    0.1410   -2.5130 C   0  0  0  0  0  0  0  0  0  0  0  0
   -7.5870    0.1660   -1.1550 C   0  0  0  0  0  0  0  0  0  0  0  0
   -8.2610   -0.7700   -0.2980 C   0  0  0  0  0  0  0  0  0  0  0  0
   -9.1530   -1.5600   -0.7160 O   0  0  0  0  0  0  0  0  0  0  0  0
   -7.9680   -0.8670    1.0480 O   0  0  0  0  0  0  0  0  0  0  0  0
  1  2  1  0
  2  3  1  0
  3  4  2  0
  3 32  1  0
  4  5  1  0
  5  6  1  0
  5 30  2  0
  7  6  1  6
  7  8  1  0
  7 12  1  0
  8  9  1  0
  9 10  1  0
  9 11  2  0
 12 13  2  0
 12 14  1  0
 14 15  1  0
 15 16  1  0
 16 17  1  0
 17 18  1  0
 18 19  1  0
 19 20  2  0
 19 21  1  0
 21 22  1  0
 22 23  1  6
 22 27  1  0
 23 24  1  0
 24 25  1  0
 25 26  1  0
 27 28  2  0
 27 29  1  0
 30 31  1  0
 31 32  2  0
 32 33  1  0
 33 34  1  0
 33 39  1  0
 34 35  2  0
 34 36  1  0
 36 37  2  0
 36 38  1  0
 39 40  2  0
 39 44  1  0
 40 41  1  0
 41 42  2  0
 42 43  1  0
 43 44  2  0
 44 45  1  0
 45 46  2  0
 45 47  1  0
M  END
