
     RDKit          3D

 46 48  0  0  0  0  0  0  0  0999 V2000
  -12.3410    4.0350   -3.4680 C   0  0  0  0  0  0  0  0  0  0  0  0
  -11.7280    3.1180   -2.5860 O   0  0  0  0  0  0  0  0  0  0  0  0
  -12.3900    2.1280   -1.9270 C   0  0  0  0  0  0  0  0  0  0  0  0
  -13.6580    2.0460   -2.1190 O   0  0  0  0  0  0  0  0  0  0  0  0
  -11.7740    1.1430   -1.0140 C   0  0  2  0  0  0  0  0  0  0  0  0
  -12.2810    1.3860    0.4100 C   0  0  0  0  0  0  0  0  0  0  0  0
  -10.3580    1.3530   -0.9920 O   0  0  0  0  0  0  0  0  0  0  0  0
   -9.4220    0.3610   -1.1140 C   0  0  0  0  0  0  0  0  0  0  0  0
   -9.8610   -0.8360   -1.2420 O   0  0  0  0  0  0  0  0  0  0  0  0
   -7.9610    0.6100   -1.1040 C   0  0  2  0  0  0  0  0  0  0  0  0
   -7.6640    1.2160   -2.5000 C   0  0  0  0  0  0  0  0  0  0  0  0
   -7.1970   -0.6150   -0.9690 N   0  0  0  0  0  0  0  0  0  0  0  0
   -5.9460   -0.5440   -0.3080 C   0  0  0  0  0  0  0  0  0  0  0  0
   -5.5470    0.5660    0.1180 O   0  0  0  0  0  0  0  0  0  0  0  0
   -5.1010   -1.7770   -0.1180 C   0  0  0  0  0  0  0  0  0  0  0  0
   -3.7390   -1.4820    0.0910 C   0  0  0  0  0  0  0  0  0  0  0  0
   -2.5530   -1.2320    0.2940 C   0  0  0  0  0  0  0  0  0  0  0  0
   -1.1250   -0.9510    0.5480 C   0  0  0  0  0  0  0  0  0  0  0  0
   -0.1570   -1.6000   -0.1710 C   0  0  0  0  0  0  0  0  0  0  0  0
    1.2130   -1.3140    0.0810 C   0  0  0  0  0  0  0  0  0  0  0  0
    2.1880   -2.0590   -0.7680 C   0  0  0  0  0  0  0  0  0  0  0  0
    3.5310   -1.9170   -0.2820 N   0  0  0  0  0  0  0  0  0  0  0  0
    4.0400   -2.6200    0.8450 C   0  0  0  0  0  0  0  0  0  0  0  0
    3.2570   -3.4150    1.4460 O   0  0  0  0  0  0  0  0  0  0  0  0
    5.4150   -2.4320    1.2860 C   0  0  0  0  0  0  0  0  0  0  0  0
    6.3740   -1.9830    0.3550 C   0  0  0  0  0  0  0  0  0  0  0  0
    7.6840   -1.7840    0.8190 C   0  0  0  0  0  0  0  0  0  0  0  0
    8.0090   -2.0030    2.0780 C   0  0  0  0  0  0  0  0  0  0  0  0
    9.3260   -1.7900    2.5750 O   0  0  0  0  0  0  0  0  0  0  0  0
   10.2650   -1.1350    1.7520 C   0  0  0  0  0  0  0  0  0  0  0  0
   11.4580   -1.6680    1.3860 C   0  0  0  0  0  0  0  0  0  0  0  0
   12.3100   -0.9120    0.5640 C   0  0  0  0  0  0  0  0  0  0  0  0
   12.0020    0.3270    0.1140 C   0  0  0  0  0  0  0  0  0  0  0  0
   10.7560    0.8960    0.4890 C   0  0  0  0  0  0  0  0  0  0  0  0
    9.9150    0.1330    1.3080 C   0  0  0  0  0  0  0  0  0  0  0  0
    8.6910    0.6330    1.6950 O   0  0  0  0  0  0  0  0  0  0  0  0
    8.0690    1.8270    1.4040 C   0  0  0  0  0  0  0  0  0  0  0  0
    7.8430    2.0800   -0.0260 C   0  0  0  0  0  0  0  0  0  0  0  0
    7.2680    3.2720   -0.5040 N   0  0  0  0  0  0  0  0  0  0  0  0
    8.1610    1.2230   -0.9240 O   0  0  0  0  0  0  0  0  0  0  0  0
    7.0840   -2.4530    3.0340 C   0  0  0  0  0  0  0  0  0  0  0  0
    5.7660   -2.6540    2.5610 C   0  0  0  0  0  0  0  0  0  0  0  0
    1.5050   -0.4050    1.0280 C   0  0  0  0  0  0  0  0  0  0  0  0
    0.5630    0.2510    1.7530 N   0  0  0  0  0  0  0  0  0  0  0  0
   -0.7570   -0.0320    1.5020 C   0  0  0  0  0  0  0  0  0  0  0  0
   -1.6380    0.5640    2.1610 O   0  0  0  0  0  0  0  0  0  0  0  0
  1  2  1  0
  2  3  1  0
  3  4  2  0
  3  5  1  0
  5  6  1  1
  5  7  1  0
  7  8  1  0
  8  9  2  0
  8 10  1  0
 10 11  1  6
 10 12  1  0
 12 13  1  0
 13 14  2  0
 13 15  1  0
 15 16  1  0
 16 17  3  0
 17 18  1  0
 18 19  2  0
 18 45  1  0
 19 20  1  0
 20 21  1  0
 20 43  2  0
 21 22  1  0
 22 23  1  0
 23 24  2  0
 23 25  1  0
 25 26  2  0
 25 42  1  0
 26 27  1  0
 27 28  2  0
 28 29  1  0
 28 41  1  0
 29 30  1  0
 30 31  2  0
 30 35  1  0
 31 32  1  0
 32 33  2  0
 33 34  1  0
 34 35  2  0
 35 36  1  0
 36 37  1  0
 37 38  1  0
 38 39  1  0
 38 40  2  0
 41 42  2  0
 43 44  1  0
 44 45  1  0
 45 46  2  0
M  END
