
     RDKit          3D

 46 49  0  0  0  0  0  0  0  0999 V2000
   -4.3520    0.8180    0.1680 C   0  0  0  0  0  0  0  0  0  0  0  0
   -3.1430    0.1630   -0.3990 C   0  0  0  0  0  0  0  0  0  0  0  0
   -2.0570   -0.1040    0.4450 C   0  0  0  0  0  0  0  0  0  0  0  0
   -0.9080   -0.7020    0.0270 C   0  0  0  0  0  0  0  0  0  0  0  0
    0.2220   -0.9770    0.8560 N   0  0  0  0  0  0  0  0  0  0  0  0
    0.4520   -0.4750    2.1380 C   0  0  0  0  0  0  0  0  0  0  0  0
   -0.3750    0.2900    2.6730 O   0  0  0  0  0  0  0  0  0  0  0  0
    1.6560   -0.7810    2.9940 C   0  0  1  0  0  0  0  0  0  0  0  0
    1.0420   -1.9290    3.9430 C   0  0  0  0  0  0  0  0  0  0  0  0
    2.6860   -1.3440    2.4160 O   0  0  0  0  0  0  0  0  0  0  0  0
    3.4750   -0.8900    1.4580 C   0  0  0  0  0  0  0  0  0  0  0  0
    4.5010    0.1590    1.6760 C   0  0  0  0  0  0  0  0  0  0  0  0
    5.6370   -0.1720    2.5620 C   0  0  0  0  0  0  0  0  0  0  0  0
    6.5600   -1.2680    2.0870 C   0  0  0  0  0  0  0  0  0  0  0  0
    7.2580   -0.9390    0.8640 N   0  0  0  0  0  0  0  0  0  0  0  0
    6.8990   -1.1890   -0.4750 C   0  0  0  0  0  0  0  0  0  0  0  0
    5.8910   -1.7650   -0.9540 O   0  0  0  0  0  0  0  0  0  0  0  0
    7.9710   -0.6290   -1.3080 C   0  0  0  0  0  0  0  0  0  0  0  0
    8.1460   -0.5870   -2.6870 C   0  0  0  0  0  0  0  0  0  0  0  0
    9.2670    0.0110   -3.2170 C   0  0  0  0  0  0  0  0  0  0  0  0
   10.2420    0.5800   -2.4030 C   0  0  0  0  0  0  0  0  0  0  0  0
   10.0690    0.5380   -1.0450 C   0  0  0  0  0  0  0  0  0  0  0  0
    8.9450   -0.0610   -0.5130 C   0  0  0  0  0  0  0  0  0  0  0  0
    8.5160   -0.2460    0.8530 C   0  0  0  0  0  0  0  0  0  0  0  0
    9.1550    0.1460    1.8610 O   0  0  0  0  0  0  0  0  0  0  0  0
    1.8860    0.2810    3.9640 C   0  0  0  0  0  0  0  0  0  0  0  0
    3.1130    0.7240    4.4710 N   0  0  0  0  0  0  0  0  0  0  0  0
    0.8340    0.8890    4.4190 O   0  0  0  0  0  0  0  0  0  0  0  0
   -0.8580   -1.0480   -1.3230 C   0  0  0  0  0  0  0  0  0  0  0  0
   -1.9280   -0.7930   -2.1860 C   0  0  0  0  0  0  0  0  0  0  0  0
   -3.0710   -0.1930   -1.7480 C   0  0  0  0  0  0  0  0  0  0  0  0
   -4.2150    0.1130   -2.5280 N   0  0  0  0  0  0  0  0  0  0  0  0
   -4.3890   -0.1530   -3.9040 C   0  0  0  0  0  0  0  0  0  0  0  0
   -3.4580   -0.7040   -4.5400 O   0  0  0  0  0  0  0  0  0  0  0  0
   -5.6410    0.1990   -4.6420 C   0  0  0  0  0  0  0  0  0  0  0  0
   -6.6460    0.6460   -3.7790 O   0  0  0  0  0  0  0  0  0  0  0  0
   -7.1590   -0.2180   -2.8280 C   0  0  0  0  0  0  0  0  0  0  0  0
   -6.7010   -1.3850   -2.7770 O   0  0  0  0  0  0  0  0  0  0  0  0
   -8.2010    0.1650   -1.8900 C   0  0  0  0  0  0  0  0  0  0  0  0
   -8.6810   -0.7190   -0.9490 C   0  0  0  0  0  0  0  0  0  0  0  0
   -9.6760   -0.3450   -0.0640 C   0  0  0  0  0  0  0  0  0  0  0  0
  -10.2250    0.9250   -0.0900 C   0  0  0  0  0  0  0  0  0  0  0  0
  -11.2290    1.2710    0.8180 O   0  0  0  0  0  0  0  0  0  0  0  0
   -9.7500    1.8150   -1.0290 C   0  0  0  0  0  0  0  0  0  0  0  0
  -10.4440    3.4600   -1.0830 S   0  0  0  0  0  0  0  0  0  0  0  0
   -8.7580    1.4280   -1.9040 C   0  0  0  0  0  0  0  0  0  0  0  0
  1  2  1  0
  2  3  2  0
  2 31  1  0
  3  4  1  0
  4  5  1  0
  4 29  2  0
  5  6  1  0
  6  7  2  0
  6  8  1  0
  8  9  1  1
  8 10  1  0
  8 26  1  0
 10 11  1  0
 11 12  1  0
 12 13  1  0
 13 14  1  0
 14 15  1  0
 15 16  1  0
 15 24  1  0
 16 17  2  0
 16 18  1  0
 18 19  2  0
 18 23  1  0
 19 20  1  0
 20 21  2  0
 21 22  1  0
 22 23  2  0
 23 24  1  0
 24 25  2  0
 26 27  1  0
 26 28  2  0
 29 30  1  0
 30 31  2  0
 31 32  1  0
 32 33  1  0
 33 34  2  0
 33 35  1  0
 35 36  1  0
 36 37  1  0
 37 38  2  0
 37 39  1  0
 39 40  2  0
 39 46  1  0
 40 41  1  0
 41 42  2  0
 42 43  1  0
 42 44  1  0
 44 45  1  0
 44 46  2  0
M  END
