
     RDKit          3D

 46 49  0  0  0  0  0  0  0  0999 V2000
   -8.7730    4.3810   -1.7170 C   0  0  0  0  0  0  0  0  0  0  0  0
   -8.8140    3.2290   -2.5120 O   0  0  0  0  0  0  0  0  0  0  0  0
   -8.8950    1.9360   -2.0730 C   0  0  0  0  0  0  0  0  0  0  0  0
   -8.9240    0.9140   -2.9960 C   0  0  0  0  0  0  0  0  0  0  0  0
   -9.0070   -0.4130   -2.5880 C   0  0  0  0  0  0  0  0  0  0  0  0
   -9.0610   -0.6960   -1.2430 C   0  0  0  0  0  0  0  0  0  0  0  0
   -9.1430   -2.0010   -0.8130 O   0  0  0  0  0  0  0  0  0  0  0  0
   -9.1740   -3.0530   -1.7570 C   0  0  0  0  0  0  0  0  0  0  0  0
   -9.0310    0.3430   -0.3120 C   0  0  0  0  0  0  0  0  0  0  0  0
   -9.0890   -0.0150    1.0090 O   0  0  0  0  0  0  0  0  0  0  0  0
   -9.0750    0.8800    2.0920 C   0  0  0  0  0  0  0  0  0  0  0  0
   -7.9340    1.6830    2.1710 O   0  0  0  0  0  0  0  0  0  0  0  0
   -6.6440    1.2410    2.3030 C   0  0  0  0  0  0  0  0  0  0  0  0
   -6.3170   -0.0860    2.3720 C   0  0  0  0  0  0  0  0  0  0  0  0
   -4.9840   -0.4520    2.5060 C   0  0  0  0  0  0  0  0  0  0  0  0
   -3.9550    0.4500    2.5730 C   0  0  0  0  0  0  0  0  0  0  0  0
   -2.5780    0.1420    2.7010 N   0  0  0  0  0  0  0  0  0  0  0  0
   -1.9840   -1.1310    2.6330 C   0  0  0  0  0  0  0  0  0  0  0  0
   -2.6820   -2.1450    2.4350 O   0  0  0  0  0  0  0  0  0  0  0  0
   -0.5090   -1.2600    2.7990 C   0  0  1  0  0  0  0  0  0  0  0  0
   -0.0460   -2.6160    2.7010 N   0  0  0  0  0  0  0  0  0  0  0  0
    0.7730   -2.9100    1.5920 C   0  0  0  0  0  0  0  0  0  0  0  0
    0.7440   -4.0560    1.0400 O   0  0  0  0  0  0  0  0  0  0  0  0
    1.5840   -1.8130    1.1960 C   0  0  0  0  0  0  0  0  0  0  0  0
    2.7750   -1.5800    0.8460 C   0  0  0  0  0  0  0  0  0  0  0  0
    3.8920   -2.4660    0.7130 C   0  0  0  0  0  0  0  0  0  0  0  0
    3.6960   -3.9230    1.0930 C   0  0  0  0  0  0  0  0  0  0  0  0
    5.1010   -2.0910    0.3160 C   0  0  0  0  0  0  0  0  0  0  0  0
    5.5590   -0.7780   -0.0580 C   0  0  0  0  0  0  0  0  0  0  0  0
    4.8960    0.2800   -0.0920 O   0  0  0  0  0  0  0  0  0  0  0  0
    6.9490   -0.5990   -0.4520 N   0  0  0  0  0  0  0  0  0  0  0  0
    7.4600    0.6960   -0.8370 C   0  0  0  0  0  0  0  0  0  0  0  0
    8.9290    0.4940   -1.1510 C   0  0  0  0  0  0  0  0  0  0  0  0
    9.4370   -0.6460   -1.0430 O   0  0  0  0  0  0  0  0  0  0  0  0
    9.7180    1.5810   -1.5600 N   0  0  0  0  0  0  0  0  0  0  0  0
   11.0940    1.5350   -1.8760 C   0  0  0  0  0  0  0  0  0  0  0  0
   11.7010    2.7330   -2.2810 C   0  0  0  0  0  0  0  0  0  0  0  0
   13.0390    2.7930   -2.6010 C   0  0  0  0  0  0  0  0  0  0  0  0
   13.8590    1.6900   -2.5440 C   0  0  0  0  0  0  0  0  0  0  0  0
   15.2150    1.7280   -2.8630 O   0  0  0  0  0  0  0  0  0  0  0  0
   13.2780    0.5060   -2.1490 C   0  0  0  0  0  0  0  0  0  0  0  0
   11.9170    0.4540   -1.8250 C   0  0  0  0  0  0  0  0  0  0  0  0
    0.3410   -0.4490    1.3990 S   0  0  0  0  0  0  0  0  0  0  0  0
   -4.3190    1.7870    2.5000 C   0  0  0  0  0  0  0  0  0  0  0  0
   -5.6230    2.1790    2.3690 C   0  0  0  0  0  0  0  0  0  0  0  0
   -8.9490    1.6520   -0.7340 C   0  0  0  0  0  0  0  0  0  0  0  0
  1  2  1  0
  2  3  1  0
  3  4  2  0
  3 46  1  0
  4  5  1  0
  5  6  2  0
  6  7  1  0
  6  9  1  0
  7  8  1  0
  9 10  1  0
  9 46  2  0
 10 11  1  0
 11 12  1  0
 12 13  1  0
 13 14  2  0
 13 45  1  0
 14 15  1  0
 15 16  2  0
 16 17  1  0
 16 44  1  0
 17 18  1  0
 18 19  2  0
 20 18  1  6
 20 21  1  0
 20 43  1  0
 21 22  1  0
 22 23  2  0
 22 24  1  0
 24 25  2  3
 24 43  1  0
 25 26  1  0
 26 27  1  0
 26 28  2  3
 28 29  1  0
 29 30  2  0
 29 31  1  0
 31 32  1  0
 32 33  1  0
 33 34  2  0
 33 35  1  0
 35 36  1  0
 36 37  2  0
 36 42  1  0
 37 38  1  0
 38 39  2  0
 39 40  1  0
 39 41  1  0
 41 42  2  0
 44 45  2  0
M  END
