
     RDKit          3D

 46 50  0  0  0  0  0  0  0  0999 V2000
   -9.1050    3.7720    1.0990 C   0  0  0  0  0  0  0  0  0  0  0  0
   -7.9430    3.0170    0.8020 O   0  0  0  0  0  0  0  0  0  0  0  0
   -8.0630    1.6440    0.5990 C   0  0  0  0  0  0  0  0  0  0  0  0
   -9.2620    1.0170    0.6800 C   0  0  0  0  0  0  0  0  0  0  0  0
   -9.3630   -0.3340    0.4770 C   0  0  0  0  0  0  0  0  0  0  0  0
   -8.2330   -1.0270    0.1950 C   0  0  0  0  0  0  0  0  0  0  0  0
   -6.9820   -0.4130    0.1050 C   0  0  0  0  0  0  0  0  0  0  0  0
   -6.8900    0.9280    0.3060 C   0  0  0  0  0  0  0  0  0  0  0  0
   -5.7220    1.6090    0.2340 O   0  0  0  0  0  0  0  0  0  0  0  0
   -4.4300    1.2810   -0.0520 C   0  0  0  0  0  0  0  0  0  0  0  0
   -4.2480    0.7900   -1.4640 C   0  0  0  0  0  0  0  0  0  0  0  0
   -2.8800    0.4530   -1.7420 O   0  0  0  0  0  0  0  0  0  0  0  0
   -2.2360   -0.5170   -1.0030 C   0  0  0  0  0  0  0  0  0  0  0  0
   -1.4740   -0.2090    0.1050 C   0  0  0  0  0  0  0  0  0  0  0  0
   -1.3500    1.1060    0.4830 O   0  0  0  0  0  0  0  0  0  0  0  0
   -0.5830    1.5180    1.5740 C   0  0  0  0  0  0  0  0  0  0  0  0
    0.8590    1.2050    1.3090 C   0  0  0  0  0  0  0  0  0  0  0  0
    1.6350    1.3460    2.2900 O   0  0  0  0  0  0  0  0  0  0  0  0
    1.3080    0.7860    0.0410 N   0  0  0  0  0  0  0  0  0  0  0  0
    2.6980    0.4700   -0.2610 C   0  0  0  0  0  0  0  0  0  0  0  0
    3.7300    0.5720    0.5940 C   0  0  0  0  0  0  0  0  0  0  0  0
    4.9680    0.2680    0.1970 C   0  0  0  0  0  0  0  0  0  0  0  0
    6.2360    0.2640    0.9510 C   0  0  0  0  0  0  0  0  0  0  0  0
    7.2900    0.8340    0.4270 C   0  0  0  0  0  0  0  0  0  0  0  0
    7.5430    1.5320   -0.8150 C   0  0  0  0  0  0  0  0  0  0  0  0
    6.6700    1.7490   -1.7150 O   0  0  0  0  0  0  0  0  0  0  0  0
    8.9040    1.9390   -0.8780 N   0  0  0  0  0  0  0  0  0  0  0  0
    9.5150    1.5000    0.3230 C   0  0  0  0  0  0  0  0  0  0  0  0
   10.7350    1.5250    0.9370 N   0  0  0  0  0  0  0  0  0  0  0  0
   10.5720    0.8880    2.1050 C   0  0  0  0  0  0  0  0  0  0  0  0
    9.2690    0.4500    2.2600 C   0  0  0  0  0  0  0  0  0  0  0  0
    8.6620   -0.2920    3.3810 C   0  0  0  0  0  0  0  0  0  0  0  0
    8.6000    0.8460    1.1170 C   0  0  0  0  0  0  0  0  0  0  0  0
    4.7760   -0.2110   -1.4930 S   0  0  0  0  0  0  0  0  0  0  0  0
    2.9900    0.0420   -1.5410 C   0  0  0  0  0  0  0  0  0  0  0  0
    2.1870   -0.1940   -2.7260 C   0  0  0  0  0  0  0  0  0  0  0  0
    2.7870   -0.6520   -3.9480 N   0  0  0  0  0  0  0  0  0  0  0  0
    0.9670   -0.0090   -2.7250 O   0  0  0  0  0  0  0  0  0  0  0  0
   -0.8530   -1.1950    0.8110 C   0  0  0  0  0  0  0  0  0  0  0  0
   -1.0010   -2.5080    0.3980 C   0  0  0  0  0  0  0  0  0  0  0  0
   -1.7530   -2.8600   -0.7040 C   0  0  0  0  0  0  0  0  0  0  0  0
   -1.8530   -4.1880   -1.0530 O   0  0  0  0  0  0  0  0  0  0  0  0
   -1.2460   -5.2440   -0.3740 C   0  0  0  0  0  0  0  0  0  0  0  0
   -2.3730   -1.8510   -1.4050 C   0  0  0  0  0  0  0  0  0  0  0  0
   -3.1350   -2.1940   -2.5190 O   0  0  0  0  0  0  0  0  0  0  0  0
   -2.6190   -2.2890   -3.8210 C   0  0  0  0  0  0  0  0  0  0  0  0
  1  2  1  0
  2  3  1  0
  3  4  2  0
  3  8  1  0
  4  5  1  0
  5  6  2  0
  6  7  1  0
  7  8  2  0
  8  9  1  0
  9 10  1  0
 10 11  1  0
 11 12  1  0
 12 13  1  0
 13 14  1  0
 13 44  2  0
 14 15  1  0
 14 39  2  0
 15 16  1  0
 16 17  1  0
 17 18  2  0
 17 19  1  0
 19 20  1  0
 20 21  1  0
 20 35  2  0
 21 22  2  0
 22 23  1  0
 22 34  1  0
 23 24  2  3
 24 25  1  0
 24 33  1  0
 25 26  2  0
 25 27  1  0
 27 28  1  0
 28 29  1  0
 28 33  2  0
 29 30  1  0
 30 31  2  0
 31 32  1  0
 31 33  1  0
 34 35  1  0
 35 36  1  0
 36 37  1  0
 36 38  2  0
 39 40  1  0
 40 41  2  0
 41 42  1  0
 41 44  1  0
 42 43  1  0
 44 45  1  0
 45 46  1  0
M  END
