
     RDKit          3D

 46 47  0  0  0  0  0  0  0  0999 V2000
   -6.4970    3.7760   -1.2470 C   0  0  0  0  0  0  0  0  0  0  0  0
   -6.2040    4.3250    0.1400 C   0  0  0  0  0  0  0  0  0  0  0  0
   -5.0510    3.5640    0.7150 C   0  0  1  0  0  0  0  0  0  0  0  0
   -4.7660    4.0800    1.9930 O   0  0  0  0  0  0  0  0  0  0  0  0
   -5.2670    2.0950    0.7550 C   0  0  2  0  0  0  0  0  0  0  0  0
   -6.4050    1.7390    1.7270 C   0  0  0  0  0  0  0  0  0  0  0  0
   -4.0600    1.3920    1.2250 N   0  0  0  0  0  0  0  0  0  0  0  0
   -3.8300    0.0420    0.8490 C   0  0  0  0  0  0  0  0  0  0  0  0
   -4.6870   -0.5290    0.1160 O   0  0  0  0  0  0  0  0  0  0  0  0
   -2.6590   -0.6890    1.2710 C   0  0  0  0  0  0  0  0  0  0  0  0
   -2.4890   -1.9760    0.9400 C   0  0  0  0  0  0  0  0  0  0  0  0
   -1.3080   -2.6800    1.3720 C   0  0  0  0  0  0  0  0  0  0  0  0
   -1.0970   -3.9290    1.1240 C   0  0  0  0  0  0  0  0  0  0  0  0
   -1.9850   -4.8150    0.3930 C   0  0  0  0  0  0  0  0  0  0  0  0
   -1.4410   -5.5820   -0.6270 C   0  0  0  0  0  0  0  0  0  0  0  0
   -2.2120   -6.4530   -1.3410 C   0  0  0  0  0  0  0  0  0  0  0  0
   -3.5600   -6.6000   -1.0710 C   0  0  0  0  0  0  0  0  0  0  0  0
   -4.3710   -7.4690   -1.7720 O   0  0  0  0  0  0  0  0  0  0  0  0
   -3.9820   -8.3060   -2.8220 C   0  0  0  0  0  0  0  0  0  0  0  0
   -4.1050   -5.8450   -0.0630 C   0  0  0  0  0  0  0  0  0  0  0  0
   -3.3190   -4.9690    0.6510 C   0  0  0  0  0  0  0  0  0  0  0  0
   -0.2980   -1.9170    2.0680 N   0  0  0  0  0  0  0  0  0  0  0  0
    0.3800   -0.9080    1.3100 C   0  0  0  0  0  0  0  0  0  0  0  0
   -0.0040   -0.8270    0.0990 O   0  0  0  0  0  0  0  0  0  0  0  0
    1.3920   -0.0710    1.8350 N   0  0  0  0  0  0  0  0  0  0  0  0
    2.0250    0.8820    0.9590 C   0  0  1  0  0  0  0  0  0  0  0  0
    1.0230    1.8830    0.4850 C   0  0  0  0  0  0  0  0  0  0  0  0
    3.1950    1.5390    1.6200 C   0  0  0  0  0  0  0  0  0  0  0  0
    3.4640    1.3080    2.8190 O   0  0  0  0  0  0  0  0  0  0  0  0
    4.0120    2.4300    0.8960 N   0  0  0  0  0  0  0  0  0  0  0  0
    5.1390    3.1360    1.4250 C   0  0  0  0  0  0  0  0  0  0  0  0
    5.3910    2.9730    2.6450 O   0  0  0  0  0  0  0  0  0  0  0  0
    5.9050    3.9580    0.6100 O   0  0  0  0  0  0  0  0  0  0  0  0
    6.9990    4.6450    1.1680 C   0  0  0  0  0  0  0  0  0  0  0  0
    7.7420    5.4160    0.1530 C   0  0  0  0  0  0  0  0  0  0  0  0
    7.3630    5.3930   -1.0370 O   0  0  0  0  0  0  0  0  0  0  0  0
    8.8480    6.1600    0.4950 O   0  0  0  0  0  0  0  0  0  0  0  0
    9.6030    6.9220   -0.4460 C   0  0  0  0  0  0  0  0  0  0  0  0
    2.5470    0.0850   -0.1890 C   0  0  0  0  0  0  0  0  0  0  0  0
    1.9870    0.1900   -1.4290 C   0  0  0  0  0  0  0  0  0  0  0  0
    2.4980   -0.6100   -2.4410 C   0  0  0  0  0  0  0  0  0  0  0  0
    3.5450   -1.5020   -2.2440 C   0  0  0  0  0  0  0  0  0  0  0  0
    3.9430   -2.2300   -3.3430 O   0  0  0  0  0  0  0  0  0  0  0  0
    4.9640   -3.1820   -3.3830 C   0  0  0  0  0  0  0  0  0  0  0  0
    4.0880   -1.5870   -0.9960 C   0  0  0  0  0  0  0  0  0  0  0  0
    3.5840   -0.7860    0.0410 C   0  0  0  0  0  0  0  0  0  0  0  0
  1  2  1  0
  2  3  1  0
  3  4  1  1
  3  5  1  0
  5  6  1  1
  5  7  1  0
  7  8  1  0
  8  9  2  0
  8 10  1  0
 10 11  2  3
 11 12  1  0
 12 13  2  3
 12 22  1  0
 13 14  1  0
 14 15  2  0
 14 21  1  0
 15 16  1  0
 16 17  2  0
 17 18  1  0
 17 20  1  0
 18 19  1  0
 20 21  2  0
 22 23  1  0
 23 24  2  0
 23 25  1  0
 25 26  1  0
 26 27  1  6
 26 28  1  0
 26 39  1  0
 28 29  2  0
 28 30  1  0
 30 31  1  0
 31 32  2  0
 31 33  1  0
 33 34  1  0
 34 35  1  0
 35 36  2  0
 35 37  1  0
 37 38  1  0
 39 40  2  0
 39 46  1  0
 40 41  1  0
 41 42  2  0
 42 43  1  0
 42 45  1  0
 43 44  1  0
 45 46  2  0
M  END
