
     RDKit          3D

 33 36  0  0  0  0  0  0  0  0999 V2000
   -2.8800    3.0080   -0.6090 C   0  0  0  0  0  0  0  0  0  0  0  0
   -1.7400    2.6650    0.3420 C   0  0  0  0  0  0  0  0  0  0  0  0
   -2.2010    1.5730    1.3230 C   0  0  0  0  0  0  0  0  0  0  0  0
   -2.5790    0.3550    0.6020 C   0  0  0  0  0  0  0  0  0  0  0  0
   -1.8010   -0.6120    0.0110 C   0  0  0  0  0  0  0  0  0  0  0  0
   -0.3590   -0.7670   -0.0960 C   0  0  0  0  0  0  0  0  0  0  0  0
   -0.0490   -1.7070   -1.0110 O   0  0  0  0  0  0  0  0  0  0  0  0
    0.7580   -0.2490    0.4560 N   0  0  0  0  0  0  0  0  0  0  0  0
    2.0650   -0.7450   -0.1080 C   0  0  0  0  0  0  0  0  0  0  0  0
    3.0140    0.4190   -0.0410 C   0  0  0  0  0  0  0  0  0  0  0  0
    3.3920    0.7060    1.3230 N   0  0  0  0  0  0  0  0  0  0  0  0
    4.6810   -0.2820    1.8730 S   0  0  2  0  0  0  0  0  0  0  0  0
    4.2610   -1.7300    1.8310 O   0  0  0  0  0  0  0  0  0  0  0  0
    4.9830    0.1330    3.3010 O   0  0  0  0  0  0  0  0  0  0  0  0
    6.0840   -0.0080    0.9350 N   0  0  0  0  0  0  0  0  0  0  0  0
    6.2380   -0.9100   -0.1620 C   0  0  1  0  0  0  0  0  0  0  0  0
    6.6340   -0.1730   -1.4030 C   0  0  0  0  0  0  0  0  0  0  0  0
    8.0260    0.1950   -1.2100 N   0  0  0  0  0  0  0  0  0  0  0  0
    8.5670   -0.7750   -0.3370 C   0  0  0  0  0  0  0  0  0  0  0  0
    9.7240   -0.8240    0.0060 O   0  0  0  0  0  0  0  0  0  0  0  0
    7.5180   -1.7250    0.1000 C   0  0  0  0  0  0  0  0  0  0  0  0
    2.2950    0.5430    2.2330 C   0  0  0  0  0  0  0  0  0  0  0  0
    0.9240    0.6350    1.5510 C   0  0  0  0  0  0  0  0  0  0  0  0
   -2.6990   -1.4620   -0.5940 N   0  0  0  0  0  0  0  0  0  0  0  0
   -3.9450   -1.0660   -0.3980 C   0  0  0  0  0  0  0  0  0  0  0  0
   -3.9060    0.0570    0.3410 C   0  0  0  0  0  0  0  0  0  0  0  0
   -5.2040    0.6620    0.6850 C   0  0  0  0  0  0  0  0  0  0  0  0
   -5.3100    1.3050    1.7320 O   0  0  0  0  0  0  0  0  0  0  0  0
   -6.3100    0.4670   -0.2430 C   0  0  0  0  0  0  0  0  0  0  0  0
   -6.3490   -0.8250   -0.9440 C   0  0  2  0  0  0  0  0  0  0  0  0
   -6.6430   -0.5260   -2.4270 C   0  0  0  0  0  0  0  0  0  0  0  0
   -7.6100   -1.5800   -0.4800 C   0  0  0  0  0  0  0  0  0  0  0  0
   -5.1800   -1.7190   -0.8940 C   0  0  0  0  0  0  0  0  0  0  0  0
  1  2  1  0
  2  3  1  0
  3  4  1  0
  4  5  2  0
  4 26  1  0
  5  6  1  0
  5 24  1  0
  6  7  2  0
  6  8  1  0
  8  9  1  0
  8 23  1  0
  9 10  1  0
 10 11  1  0
 11 12  1  0
 11 22  1  0
 12 13  2  0
 12 14  2  0
 12 15  1  6
 16 15  1  1
 16 17  1  0
 16 21  1  0
 17 18  1  0
 18 19  1  0
 19 20  2  0
 19 21  1  0
 22 23  1  0
 24 25  1  0
 25 26  2  0
 25 33  1  0
 26 27  1  0
 27 28  2  0
 27 29  1  0
 29 30  1  0
 30 31  1  6
 30 32  1  0
 30 33  1  0
M  CHG  1  18   1
M  END
