
     RDKit          3D

 33 37  0  0  0  0  0  0  0  0999 V2000
    2.9950   -1.2200   -3.9070 O   0  0  0  0  0  0  0  0  0  0  0  0
    2.2240   -1.2500   -2.8650 C   0  0  0  0  0  0  0  0  0  0  0  0
    1.9290    0.0070   -2.1930 C   0  0  0  0  0  0  0  0  0  0  0  0
    2.4600    0.2090   -0.8640 N   0  0  0  0  0  0  0  0  0  0  0  0
    1.9950    1.1160    0.0100 C   0  0  0  0  0  0  0  0  0  0  0  0
    2.7620    0.9560    1.2020 C   0  0  0  0  0  0  0  0  0  0  0  0
    2.6360    1.6420    2.3220 C   0  0  0  0  0  0  0  0  0  0  0  0
    3.4310    1.3970    3.4000 O   0  0  0  0  0  0  0  0  0  0  0  0
    3.6740   -0.0510    1.0020 C   0  0  0  0  0  0  0  0  0  0  0  0
    4.6600   -0.6040    1.8190 C   0  0  0  0  0  0  0  0  0  0  0  0
    5.4790   -1.6290    1.3700 C   0  0  0  0  0  0  0  0  0  0  0  0
    5.2930   -2.0860    0.0950 C   0  0  0  0  0  0  0  0  0  0  0  0
    4.3070   -1.5230   -0.7020 C   0  0  0  0  0  0  0  0  0  0  0  0
    3.4690   -0.4930   -0.2780 C   0  0  0  0  0  0  0  0  0  0  0  0
    1.0750    2.0230   -0.1730 C   0  0  0  0  0  0  0  0  0  0  0  0
    0.2540    2.3760   -1.3330 C   0  0  0  0  0  0  0  0  0  0  0  0
   -1.0710    1.8540   -1.2910 N   0  0  0  0  0  0  0  0  0  0  0  0
   -1.4150    1.1080   -0.1060 C   0  0  1  0  0  0  0  0  0  0  0  0
   -2.4310    1.8660    0.6640 C   0  0  0  0  0  0  0  0  0  0  0  0
   -3.5460    2.3420    0.0280 C   0  0  0  0  0  0  0  0  0  0  0  0
   -4.5210    3.0610    0.6860 C   0  0  0  0  0  0  0  0  0  0  0  0
   -4.3370    3.2850    2.0050 N   0  0  0  0  0  0  0  0  0  0  0  0
   -3.2470    2.8320    2.6730 C   0  0  0  0  0  0  0  0  0  0  0  0
   -2.2680    2.1160    2.0320 C   0  0  0  0  0  0  0  0  0  0  0  0
   -1.9110   -0.2810   -0.4490 C   0  0  2  0  0  0  0  0  0  0  0  0
   -3.3410   -0.5330   -0.0210 C   0  0  0  0  0  0  0  0  0  0  0  0
   -3.5170   -2.0030    0.3230 C   0  0  0  0  0  0  0  0  0  0  0  0
   -2.6010   -2.9050   -0.4640 C   0  0  0  0  0  0  0  0  0  0  0  0
   -1.1960   -2.6020   -0.2990 N   0  0  0  0  0  0  0  0  0  0  0  0
   -0.4840   -2.7550   -1.5540 C   0  0  0  0  0  0  0  0  0  0  0  0
    1.0330   -2.8420   -1.3420 C   0  0  0  0  0  0  0  0  0  0  0  0
    1.7360   -2.4430   -2.4650 O   0  0  0  0  0  0  0  0  0  0  0  0
   -1.0030   -1.2780    0.2630 C   0  0  0  0  0  0  0  0  0  0  0  0
  1  2  2  0
  2  3  1  0
  2 32  1  0
  3  4  1  0
  4  5  1  0
  4 14  1  0
  5  6  1  0
  5 15  2  0
  6  7  2  3
  6  9  1  0
  7  8  1  0
  9 10  2  0
  9 14  1  0
 10 11  1  0
 11 12  2  0
 12 13  1  0
 13 14  2  0
 15 16  1  0
 16 17  1  0
 17 18  1  0
 18 19  1  6
 18 25  1  0
 19 20  2  0
 19 24  1  0
 20 21  1  0
 21 22  2  0
 22 23  1  0
 23 24  2  0
 25 26  1  1
 25 33  1  0
 26 27  1  0
 27 28  1  0
 28 29  1  0
 29 30  1  0
 29 33  1  0
 30 31  1  0
 31 32  1  0
M  CHG  2  17   1  22   1
M  END
