
     RDKit          3D

 33 36  0  0  0  0  0  0  0  0999 V2000
   -4.6850    3.2370   -1.6410 C   0  0  0  0  0  0  0  0  0  0  0  0
   -5.2460    3.2150   -0.2230 C   0  0  0  0  0  0  0  0  0  0  0  0
   -4.0900    3.0170    0.7060 C   0  0  0  0  0  0  0  0  0  0  0  0
   -3.4340    1.8210    0.4370 O   0  0  0  0  0  0  0  0  0  0  0  0
   -3.9790    0.5590    0.4940 C   0  0  0  0  0  0  0  0  0  0  0  0
   -5.2110    0.5280    0.8320 O   0  0  0  0  0  0  0  0  0  0  0  0
   -3.2320   -0.6060    0.1970 C   0  0  0  0  0  0  0  0  0  0  0  0
   -3.8660   -1.8020    0.2430 C   0  0  0  0  0  0  0  0  0  0  0  0
   -5.5330   -2.3320    0.6150 S   0  0  0  0  0  0  0  0  0  0  0  0
   -5.1120   -4.1120    0.7970 C   0  0  2  0  0  0  0  0  0  0  0  0
   -5.4620   -4.5740    2.1920 C   0  0  0  0  0  0  0  0  0  0  0  0
   -3.6420   -4.1170    0.6430 C   0  0  0  0  0  0  0  0  0  0  0  0
   -2.9330   -5.0580    1.1220 O   0  0  0  0  0  0  0  0  0  0  0  0
   -3.1560   -2.9850   -0.0770 N   0  0  0  0  0  0  0  0  0  0  0  0
   -2.0900   -2.8690   -1.0520 C   0  0  0  0  0  0  0  0  0  0  0  0
   -1.4330   -1.5440   -1.1480 C   0  0  0  0  0  0  0  0  0  0  0  0
   -1.8470   -0.6040   -0.1220 N   0  0  0  0  0  0  0  0  0  0  0  0
   -0.9710    0.2630    0.5320 C   0  0  0  0  0  0  0  0  0  0  0  0
   -1.3740    1.0090    1.4550 O   0  0  0  0  0  0  0  0  0  0  0  0
    0.4550    0.3810    0.2120 C   0  0  0  0  0  0  0  0  0  0  0  0
    1.2170    1.2300    0.8850 C   0  0  0  0  0  0  0  0  0  0  0  0
    2.6300    1.3350    0.5550 C   0  0  0  0  0  0  0  0  0  0  0  0
    3.2220    0.5980   -0.4210 C   0  0  0  0  0  0  0  0  0  0  0  0
    4.5850    0.7560   -0.6790 C   0  0  0  0  0  0  0  0  0  0  0  0
    5.2860    1.6550    0.0670 C   0  0  0  0  0  0  0  0  0  0  0  0
    4.6970    2.3910    1.0410 N   0  0  0  0  0  0  0  0  0  0  0  0
    3.3920    2.2420    1.2890 C   0  0  0  0  0  0  0  0  0  0  0  0
    2.8020    2.9100    2.1910 O   0  0  0  0  0  0  0  0  0  0  0  0
    6.7420    1.9920   -0.0270 C   0  0  0  0  0  0  0  0  0  0  0  0
    7.5530    0.7990    0.1500 N   0  0  0  0  0  0  0  0  0  0  0  0
    6.7350   -0.4070   -0.0470 C   0  0  0  0  0  0  0  0  0  0  0  0
    6.3950   -0.5710   -1.4330 N   0  0  0  0  0  0  0  0  0  0  0  0
    5.0650   -0.1140   -1.7620 C   0  0  0  0  0  0  0  0  0  0  0  0
  1  2  1  0
  2  3  1  0
  3  4  1  0
  4  5  1  0
  5  6  2  0
  5  7  1  0
  7  8  2  0
  7 17  1  0
  8  9  1  0
  8 14  1  0
  9 10  1  0
 10 11  1  1
 10 12  1  0
 12 13  2  0
 12 14  1  0
 14 15  1  0
 15 16  1  0
 16 17  1  0
 17 18  1  0
 18 19  2  0
 18 20  1  0
 20 21  2  3
 21 22  1  0
 22 23  2  0
 22 27  1  0
 23 24  1  0
 24 25  2  0
 24 33  1  0
 25 26  1  0
 25 29  1  0
 26 27  1  0
 27 28  2  0
 29 30  1  0
 30 31  1  0
 31 32  1  0
 32 33  1  0
M  CHG  1  32   1
M  END
