
     RDKit          3D

 33 36  0  0  0  0  0  0  0  0999 V2000
    1.7880    0.6910   -0.3880 O   0  0  0  0  0  0  0  0  0  0  0  0
    1.4190    0.9920   -1.5240 C   0  0  0  0  0  0  0  0  0  0  0  0
    0.0060    1.2370   -1.7370 C   0  0  0  0  0  0  0  0  0  0  0  0
   -0.9330    1.1730   -0.8460 C   0  0  0  0  0  0  0  0  0  0  0  0
   -0.8280    0.8600    0.5140 N   0  0  0  0  0  0  0  0  0  0  0  0
   -2.0730    0.5310    1.1060 C   0  0  0  0  0  0  0  0  0  0  0  0
   -2.2680   -0.3950    1.9510 O   0  0  0  0  0  0  0  0  0  0  0  0
   -3.1710    1.4060    0.6260 C   0  0  2  0  0  0  0  0  0  0  0  0
   -4.5250    0.8060    0.6850 C   0  0  0  0  0  0  0  0  0  0  0  0
   -5.0120    0.4120    2.0040 C   0  0  0  0  0  0  0  0  0  0  0  0
   -4.3800    0.5850    3.0890 O   0  0  0  0  0  0  0  0  0  0  0  0
   -6.3080   -0.2200    2.0690 N   0  0  0  0  0  0  0  0  0  0  0  0
   -7.1970   -0.5120    0.9630 C   0  0  0  0  0  0  0  0  0  0  0  0
   -8.5870   -0.3590    1.5370 C   0  0  0  0  0  0  0  0  0  0  0  0
   -8.4570   -0.6580    3.0010 C   0  0  0  0  0  0  0  0  0  0  0  0
   -6.9770   -0.6920    3.2730 C   0  0  0  0  0  0  0  0  0  0  0  0
   -2.6720    1.4780   -1.1470 S   0  0  0  0  0  0  0  0  0  0  0  0
    2.3880    1.0930   -2.5970 C   0  0  0  0  0  0  0  0  0  0  0  0
    3.6500    0.8580   -2.4490 C   0  0  0  0  0  0  0  0  0  0  0  0
    4.2300    0.4570   -1.1800 C   0  0  0  0  0  0  0  0  0  0  0  0
    3.9580   -0.7120   -0.5110 C   0  0  0  0  0  0  0  0  0  0  0  0
    4.5440   -0.9610    0.6710 N   0  0  0  0  0  0  0  0  0  0  0  0
    5.4050   -0.1140    1.2580 C   0  0  0  0  0  0  0  0  0  0  0  0
    6.0110   -0.3710    2.4800 O   0  0  0  0  0  0  0  0  0  0  0  0
    5.7390   -1.5620    3.1660 C   0  0  0  0  0  0  0  0  0  0  0  0
    6.1080   -2.8130    2.4150 C   0  0  0  0  0  0  0  0  0  0  0  0
    5.7610   -3.8910    3.2630 O   0  0  0  0  0  0  0  0  0  0  0  0
    5.6830    1.0780    0.5750 C   0  0  0  0  0  0  0  0  0  0  0  0
    5.0980    1.3240   -0.6010 N   0  0  0  0  0  0  0  0  0  0  0  0
    4.5810    1.0070   -3.6520 C   0  0  0  0  0  0  0  0  0  0  0  0
    3.7820    0.5470   -4.8340 C   0  0  0  0  0  0  0  0  0  0  0  0
    2.7200    1.5460   -5.0020 N   0  0  0  0  0  0  0  0  0  0  0  0
    1.7960    1.5010   -3.9350 C   0  0  0  0  0  0  0  0  0  0  0  0
  1  2  2  0
  2  3  1  0
  2 18  1  0
  3  4  2  3
  4  5  1  0
  4 17  1  0
  5  6  1  0
  6  7  2  0
  6  8  1  0
  8  9  1  6
  8 17  1  0
  9 10  1  0
 10 11  2  0
 10 12  1  0
 12 13  1  0
 12 16  1  0
 13 14  1  0
 14 15  1  0
 15 16  1  0
 18 19  2  0
 18 33  1  0
 19 20  1  0
 19 30  1  0
 20 21  2  0
 20 29  1  0
 21 22  1  0
 22 23  2  0
 23 24  1  0
 23 28  1  0
 24 25  1  0
 25 26  1  0
 26 27  1  0
 28 29  2  0
 30 31  1  0
 31 32  1  0
 32 33  1  0
M  CHG  1  32   1
M  END
