
     RDKit          3D

 33 36  0  0  0  0  0  0  0  0999 V2000
   -5.2510   -3.2940   -1.7360 C   0  0  0  0  0  0  0  0  0  0  0  0
   -4.9990   -1.9160   -1.1810 C   0  0  0  0  0  0  0  0  0  0  0  0
   -3.7090   -1.7850   -0.5510 N   0  0  2  0  0  0  0  0  0  0  0  0
   -3.7620   -1.8210    0.9010 C   0  0  0  0  0  0  0  0  0  0  0  0
   -2.4330   -1.1920    1.2750 C   0  0  0  0  0  0  0  0  0  0  0  0
   -2.2270   -0.0860    0.2320 C   0  0  2  0  0  0  0  0  0  0  0  0
   -0.9040   -0.4920   -0.4340 C   0  0  0  0  0  0  0  0  0  0  0  0
   -0.4230    0.3030   -1.4550 N   0  0  0  0  0  0  0  0  0  0  0  0
    0.6580    1.1600   -1.0010 C   0  0  0  0  0  0  0  0  0  0  0  0
    0.5290    2.4290   -1.0630 N   0  0  0  0  0  0  0  0  0  0  0  0
    1.5240    3.3380   -0.6580 C   0  0  0  0  0  0  0  0  0  0  0  0
    1.3680    4.6470   -0.7210 O   0  0  0  0  0  0  0  0  0  0  0  0
    2.2940    5.4960   -0.3430 C   0  0  0  0  0  0  0  0  0  0  0  0
    3.5170    5.0910    0.1550 C   0  0  0  0  0  0  0  0  0  0  0  0
    3.7440    3.7340    0.2460 C   0  0  0  0  0  0  0  0  0  0  0  0
    4.8390    3.3040    0.6920 O   0  0  0  0  0  0  0  0  0  0  0  0
    2.7230    2.8760   -0.1700 C   0  0  0  0  0  0  0  0  0  0  0  0
    2.9040    1.4810   -0.1040 N   0  0  0  0  0  0  0  0  0  0  0  0
    1.8720    0.5520   -0.4380 C   0  0  2  0  0  0  0  0  0  0  0  0
    2.3910   -0.5780   -1.3180 C   0  0  1  0  0  0  0  0  0  0  0  0
    2.8740    0.0740   -2.4790 O   0  0  0  0  0  0  0  0  0  0  0  0
    3.5470   -1.2830   -0.7430 C   0  0  0  0  0  0  0  0  0  0  0  0
    3.8000   -1.3110    0.6000 C   0  0  0  0  0  0  0  0  0  0  0  0
    4.9290   -2.0000    1.0600 C   0  0  0  0  0  0  0  0  0  0  0  0
    5.7890   -2.6470    0.2100 C   0  0  0  0  0  0  0  0  0  0  0  0
    6.9980   -3.3800    0.7350 C   0  0  0  0  0  0  0  0  0  0  0  0
    5.5290   -2.6150   -1.1360 C   0  0  0  0  0  0  0  0  0  0  0  0
    4.4200   -1.9390   -1.6020 C   0  0  0  0  0  0  0  0  0  0  0  0
   -2.1720    1.2190    0.8710 C   0  0  0  0  0  0  0  0  0  0  0  0
   -3.2420    1.7970    1.6760 C   0  0  1  0  0  0  0  0  0  0  0  0
   -4.5780    2.0230    1.0180 C   0  0  0  0  0  0  0  0  0  0  0  0
   -3.4460    1.2690    3.0710 C   0  0  0  0  0  0  0  0  0  0  0  0
   -3.2830   -0.3860   -0.7610 C   0  0  0  0  0  0  0  0  0  0  0  0
  1  2  1  0
  3  2  1  6
  3  4  1  0
  3 33  1  0
  4  5  1  0
  5  6  1  0
  6  7  1  6
  6 29  1  0
  6 33  1  0
  7  8  1  0
  8  9  1  0
  9 10  2  0
  9 19  1  0
 10 11  1  0
 11 12  1  0
 11 17  2  0
 12 13  1  0
 13 14  2  0
 14 15  1  0
 15 16  2  0
 15 17  1  0
 17 18  1  0
 19 18  1  6
 19 20  1  0
 20 21  1  6
 20 22  1  0
 22 23  2  0
 22 28  1  0
 23 24  1  0
 24 25  2  0
 25 26  1  0
 25 27  1  0
 27 28  2  0
 29 30  1  0
 30 31  1  6
 30 32  1  0
M  CHG  2   3   1   8   1
M  END
