
     RDKit          3D

 33 35  0  0  0  0  0  0  0  0999 V2000
    7.2430    1.0970   -0.4940 C   0  0  0  0  0  0  0  0  0  0  0  0
    6.3520    0.2410    0.2780 N   0  0  0  0  0  0  0  0  0  0  0  0
    5.6490   -0.7640   -0.3170 C   0  0  0  0  0  0  0  0  0  0  0  0
    4.9150   -1.3630    0.6820 C   0  0  0  0  0  0  0  0  0  0  0  0
    3.9980   -2.5240    0.5360 C   0  0  0  0  0  0  0  0  0  0  0  0
    2.9750   -2.3400   -0.4500 N   0  0  0  0  0  0  0  0  0  0  0  0
    1.8160   -1.5140   -0.1380 C   0  0  0  0  0  0  0  0  0  0  0  0
    1.8380   -1.0390    1.0030 O   0  0  0  0  0  0  0  0  0  0  0  0
    0.7870   -1.3310   -1.1420 C   0  0  0  0  0  0  0  0  0  0  0  0
    0.8980   -1.8040   -2.4630 C   0  0  0  0  0  0  0  0  0  0  0  0
   -0.2370   -1.4780   -3.1480 C   0  0  0  0  0  0  0  0  0  0  0  0
   -1.0490   -0.8080   -2.2640 C   0  0  0  0  0  0  0  0  0  0  0  0
   -0.3990   -0.7380   -1.0620 N   0  0  0  0  0  0  0  0  0  0  0  0
   -0.9810   -0.1040    0.0990 C   0  0  0  0  0  0  0  0  0  0  0  0
   -0.3770   -0.0570    1.1770 O   0  0  0  0  0  0  0  0  0  0  0  0
   -2.3010    0.4980    0.0230 C   0  0  1  0  0  0  0  0  0  0  0  0
   -3.3930   -0.5630    0.3150 C   0  0  0  0  0  0  0  0  0  0  0  0
   -4.7520    0.0650    0.2340 C   0  0  1  0  0  0  0  0  0  0  0  0
   -4.9900    0.6150   -1.1360 C   0  0  0  0  0  0  0  0  0  0  0  0
   -6.3400    0.1780   -1.6920 C   0  0  0  0  0  0  0  0  0  0  0  0
   -6.2580   -1.3510   -1.7220 C   0  0  0  0  0  0  0  0  0  0  0  0
   -6.3570   -1.8050   -0.3090 C   0  0  0  0  0  0  0  0  0  0  0  0
   -5.7970   -0.8820    0.7220 C   0  0  0  0  0  0  0  0  0  0  0  0
   -2.6480    1.6360    0.7360 N   0  0  0  0  0  0  0  0  0  0  0  0
   -2.1620    2.9140    0.5250 C   0  0  0  0  0  0  0  0  0  0  0  0
   -0.8330    3.3550    0.8270 C   0  0  0  0  0  0  0  0  0  0  0  0
    0.0900    2.7420    1.3490 O   0  0  0  0  0  0  0  0  0  0  0  0
   -0.5190    4.7030    0.4770 O   0  0  0  0  0  0  0  0  0  0  0  0
    5.1890   -0.7110    1.8510 C   0  0  0  0  0  0  0  0  0  0  0  0
    6.1030    0.3030    1.5730 C   0  0  0  0  0  0  0  0  0  0  0  0
    6.6180    1.1780    2.5960 C   0  0  0  0  0  0  0  0  0  0  0  0
    7.4680    2.0680    2.3850 N   0  0  0  0  0  0  0  0  0  0  0  0
    6.1340    1.0360    3.9570 N   0  0  0  0  0  0  0  0  0  0  0  0
  1  2  1  0
  2  3  1  0
  2 30  1  0
  3  4  2  0
  4  5  1  0
  4 29  1  0
  5  6  1  0
  6  7  1  0
  7  8  2  0
  7  9  1  0
  9 10  2  0
  9 13  1  0
 10 11  1  0
 11 12  2  0
 12 13  1  0
 13 14  1  0
 14 15  2  0
 14 16  1  0
 16 17  1  1
 16 24  1  0
 18 17  1  6
 18 19  1  0
 18 23  1  0
 19 20  1  0
 20 21  1  0
 21 22  1  0
 22 23  1  0
 24 25  1  0
 25 26  1  0
 26 27  2  0
 26 28  1  0
 29 30  2  0
 30 31  1  0
 31 32  2  0
 31 33  1  0
M  END
