
     RDKit          3D

 33 35  0  0  0  0  0  0  0  0999 V2000
   -0.9510    3.2640   -2.2640 C   0  0  0  0  0  0  0  0  0  0  0  0
   -1.1700    2.3590   -1.1120 C   0  0  0  0  0  0  0  0  0  0  0  0
   -0.4190    2.4090   -0.1790 O   0  0  0  0  0  0  0  0  0  0  0  0
   -2.3080    1.4360   -1.1710 C   0  0  2  0  0  0  0  0  0  0  0  0
   -3.5630    2.3150   -1.2300 C   0  0  0  0  0  0  0  0  0  0  0  0
   -2.4720    0.5690   -0.0170 N   0  0  2  0  0  0  0  0  0  0  0  0
   -1.3370   -0.2760    0.2480 C   0  0  0  0  0  0  0  0  0  0  0  0
   -0.9470   -0.1810    1.6880 C   0  0  0  0  0  0  0  0  0  0  0  0
    0.2290   -1.0490    2.0420 C   0  0  0  0  0  0  0  0  0  0  0  0
   -0.0670   -2.0240    2.7960 O   0  0  0  0  0  0  0  0  0  0  0  0
    1.5400   -0.8160    1.5890 N   0  0  0  0  0  0  0  0  0  0  0  0
    2.4610   -1.7890    2.0860 C   0  0  0  0  0  0  0  0  0  0  0  0
    1.9870   -3.1780    2.3480 C   0  0  0  0  0  0  0  0  0  0  0  0
    3.7810   -1.4410    2.3070 C   0  0  0  0  0  0  0  0  0  0  0  0
    4.8390   -1.0340    1.4790 C   0  0  0  0  0  0  0  0  0  0  0  0
    5.3000   -1.4440    0.2790 C   0  0  0  0  0  0  0  0  0  0  0  0
    5.6400   -0.8290   -0.8690 N   0  0  0  0  0  0  0  0  0  0  0  0
    6.4200    0.1610   -1.2830 C   0  0  0  0  0  0  0  0  0  0  0  0
    6.3060    1.5250   -1.4200 C   0  0  0  0  0  0  0  0  0  0  0  0
    5.0620    2.2380   -1.5840 C   0  0  0  0  0  0  0  0  0  0  0  0
    5.2440    3.2290   -2.3280 O   0  0  0  0  0  0  0  0  0  0  0  0
    3.9620    1.6540   -0.8760 C   0  0  0  0  0  0  0  0  0  0  0  0
    3.7510    1.9030    0.4630 C   0  0  0  0  0  0  0  0  0  0  0  0
    2.8760    1.1640    1.3110 C   0  0  0  0  0  0  0  0  0  0  0  0
    2.1860    0.1190    0.7570 C   0  0  0  0  0  0  0  0  0  0  0  0
    2.3890   -0.1120   -0.5870 C   0  0  0  0  0  0  0  0  0  0  0  0
    3.2600    0.6260   -1.4350 C   0  0  0  0  0  0  0  0  0  0  0  0
   -3.6840   -0.1860   -0.2520 C   0  0  2  0  0  0  0  0  0  0  0  0
   -4.5390   -0.3240    0.9800 C   0  0  0  0  0  0  0  0  0  0  0  0
   -5.8560   -0.9000    0.5690 C   0  0  0  0  0  0  0  0  0  0  0  0
   -5.9210   -1.2350   -0.8280 N   0  0  0  0  0  0  0  0  0  0  0  0
   -4.8370   -2.0140   -1.3280 C   0  0  0  0  0  0  0  0  0  0  0  0
   -3.4780   -1.5680   -0.7890 C   0  0  0  0  0  0  0  0  0  0  0  0
  1  2  1  0
  2  3  2  0
  2  4  1  0
  4  5  1  1
  4  6  1  0
  6  7  1  6
  6 28  1  0
  7  8  1  0
  8  9  1  0
  9 10  2  0
  9 11  1  0
 11 12  1  0
 11 25  1  0
 12 13  1  0
 12 14  2  0
 14 15  1  0
 15 16  2  0
 16 17  1  0
 17 18  1  0
 18 19  2  0
 19 20  1  0
 20 21  2  0
 20 22  1  0
 22 23  2  0
 22 27  1  0
 23 24  1  0
 24 25  2  0
 25 26  1  0
 26 27  2  0
 28 29  1  1
 28 33  1  0
 29 30  1  0
 30 31  1  0
 31 32  1  0
 32 33  1  0
M  CHG  2   6   1  31   1
M  END
