
     RDKit          3D

 33 37  0  0  0  0  0  0  0  0999 V2000
   -9.9560   -0.4550    0.5590 C   0  0  0  0  0  0  0  0  0  0  0  0
   -9.0430    0.5620    1.2480 C   0  0  0  0  0  0  0  0  0  0  0  0
   -7.6420    0.1440    0.9680 C   0  0  0  0  0  0  0  0  0  0  0  0
   -6.9600   -0.7160    1.8030 C   0  0  0  0  0  0  0  0  0  0  0  0
   -5.6550   -1.0930    1.5260 C   0  0  0  0  0  0  0  0  0  0  0  0
   -4.9980   -0.6180    0.4020 C   0  0  0  0  0  0  0  0  0  0  0  0
   -5.6820    0.2420   -0.4320 C   0  0  0  0  0  0  0  0  0  0  0  0
   -6.9980    0.6160   -0.1420 C   0  0  0  0  0  0  0  0  0  0  0  0
   -4.7620    0.5740   -1.5130 C   0  0  0  0  0  0  0  0  0  0  0  0
   -5.0520    1.3440   -2.4650 O   0  0  0  0  0  0  0  0  0  0  0  0
   -3.5300   -0.0880   -1.3220 N   0  0  0  0  0  0  0  0  0  0  0  0
   -2.3750    0.0230   -2.2260 C   0  0  0  0  0  0  0  0  0  0  0  0
   -1.5800    1.1490   -1.7420 C   0  0  0  0  0  0  0  0  0  0  0  0
   -0.3900    1.2770   -1.3050 C   0  0  0  0  0  0  0  0  0  0  0  0
    0.6550    0.3430   -1.1110 N   0  0  0  0  0  0  0  0  0  0  0  0
    0.7520   -1.0410   -1.2700 C   0  0  0  0  0  0  0  0  0  0  0  0
    1.9420   -1.5030   -0.9510 N   0  0  0  0  0  0  0  0  0  0  0  0
    2.7890   -0.4470   -0.5330 C   0  0  0  0  0  0  0  0  0  0  0  0
    4.0610   -0.5470   -0.1370 C   0  0  0  0  0  0  0  0  0  0  0  0
    4.6660   -1.8420   -0.1210 N   0  0  0  0  0  0  0  0  0  0  0  0
    6.0170   -1.9590    0.2980 C   0  0  0  0  0  0  0  0  0  0  0  0
    6.5660   -3.0990    0.3170 O   0  0  0  0  0  0  0  0  0  0  0  0
    6.7520   -0.7830    0.6960 C   0  0  0  0  0  0  0  0  0  0  0  0
    6.1760    0.3880    0.6720 C   0  0  0  0  0  0  0  0  0  0  0  0
    6.9750    1.5920    1.0950 C   0  0  0  0  0  0  0  0  0  0  0  0
    8.3380    1.4160    0.4120 C   0  0  0  0  0  0  0  0  0  0  0  0
    8.9980    0.2410    1.0520 C   0  0  0  0  0  0  0  0  0  0  0  0
    8.1640   -0.9910    1.1220 C   0  0  0  0  0  0  0  0  0  0  0  0
    4.8360    0.5610    0.2640 N   0  0  0  0  0  0  0  0  0  0  0  0
    1.9730    0.7410   -0.6320 C   0  0  0  0  0  0  0  0  0  0  0  0
    2.2920    1.9390   -0.3640 O   0  0  0  0  0  0  0  0  0  0  0  0
   -3.6430   -0.8460   -0.1290 C   0  0  0  0  0  0  0  0  0  0  0  0
   -2.7660   -1.5820    0.3980 O   0  0  0  0  0  0  0  0  0  0  0  0
  1  2  1  0
  2  3  1  0
  3  4  2  0
  3  8  1  0
  4  5  1  0
  5  6  2  0
  6  7  1  0
  6 32  1  0
  7  8  2  0
  7  9  1  0
  9 10  2  0
  9 11  1  0
 11 12  1  0
 11 32  1  0
 12 13  1  0
 13 14  2  3
 14 15  1  0
 15 16  1  0
 15 30  1  0
 16 17  2  0
 17 18  1  0
 18 19  2  3
 18 30  1  0
 19 20  1  0
 19 29  1  0
 20 21  1  0
 21 22  2  0
 21 23  1  0
 23 24  2  0
 23 28  1  0
 24 25  1  0
 24 29  1  0
 25 26  1  0
 26 27  1  0
 27 28  1  0
 30 31  2  0
 32 33  2  0
M  END
