
     RDKit          3D

 33 37  0  0  0  0  0  0  0  0999 V2000
    8.6840    0.9460   -0.3930 C   0  0  0  0  0  0  0  0  0  0  0  0
    8.0830    1.9020   -1.3920 C   0  0  0  0  0  0  0  0  0  0  0  0
    6.9950    2.6020   -0.8750 O   0  0  0  0  0  0  0  0  0  0  0  0
    5.8390    2.0370   -0.4150 C   0  0  0  0  0  0  0  0  0  0  0  0
    4.7920    2.7910    0.0940 C   0  0  0  0  0  0  0  0  0  0  0  0
    3.6500    2.2640    0.5500 N   0  0  0  0  0  0  0  0  0  0  0  0
    3.4520    0.9520    0.5410 C   0  0  0  0  0  0  0  0  0  0  0  0
    2.3420    0.3680    0.9790 N   0  0  0  0  0  0  0  0  0  0  0  0
    2.1360   -0.9610    0.9720 C   0  0  0  0  0  0  0  0  0  0  0  0
    0.9250   -1.5210    1.4560 N   0  0  0  0  0  0  0  0  0  0  0  0
    0.8720   -2.9910    1.3720 C   0  0  0  0  0  0  0  0  0  0  0  0
   -0.3520   -3.3440    0.4990 C   0  0  0  0  0  0  0  0  0  0  0  0
   -0.4000   -2.2400   -0.5220 C   0  0  0  0  0  0  0  0  0  0  0  0
   -1.3190   -1.2060   -0.0370 N   0  0  0  0  0  0  0  0  0  0  0  0
   -2.6440   -1.3870   -0.4740 C   0  0  0  0  0  0  0  0  0  0  0  0
   -2.8410   -2.4820   -1.1310 O   0  0  0  0  0  0  0  0  0  0  0  0
   -3.7510   -0.4860   -0.2540 C   0  0  0  0  0  0  0  0  0  0  0  0
   -3.6250    0.9010   -0.2220 C   0  0  0  0  0  0  0  0  0  0  0  0
   -4.6740    1.7670   -0.1270 C   0  0  0  0  0  0  0  0  0  0  0  0
   -5.9350    1.2220   -0.0620 C   0  0  0  0  0  0  0  0  0  0  0  0
   -6.1140   -0.1400   -0.0920 C   0  0  0  0  0  0  0  0  0  0  0  0
   -7.4690   -0.7490   -0.0240 C   0  0  0  0  0  0  0  0  0  0  0  0
   -5.0370   -1.0250   -0.1870 C   0  0  0  0  0  0  0  0  0  0  0  0
   -5.2690   -2.3760   -0.2070 O   0  0  0  0  0  0  0  0  0  0  0  0
   -6.8920    2.3520    0.0290 C   0  0  0  0  0  0  0  0  0  0  0  0
   -6.1290    3.3920    0.4860 O   0  0  0  0  0  0  0  0  0  0  0  0
   -4.8560    3.2420   -0.0660 C   0  0  0  0  0  0  0  0  0  0  0  0
   -0.9920   -0.1270    0.8510 C   0  0  0  0  0  0  0  0  0  0  0  0
   -0.0620   -0.6210    1.9530 C   0  0  0  0  0  0  0  0  0  0  0  0
    3.1290   -1.7250    0.4860 N   0  0  0  0  0  0  0  0  0  0  0  0
    4.2900   -1.2250    0.0190 C   0  0  0  0  0  0  0  0  0  0  0  0
    4.4520    0.1460    0.0490 C   0  0  0  0  0  0  0  0  0  0  0  0
    5.6530    0.6790   -0.4330 C   0  0  0  0  0  0  0  0  0  0  0  0
  1  2  1  0
  2  3  1  0
  3  4  1  0
  4  5  2  0
  4 33  1  0
  5  6  1  0
  6  7  2  0
  7  8  1  0
  7 32  1  0
  8  9  2  0
  9 10  1  0
  9 30  1  0
 10 11  1  0
 10 29  1  0
 11 12  1  0
 12 13  1  0
 13 14  1  0
 14 15  1  0
 14 28  1  0
 15 16  2  0
 15 17  1  0
 17 18  2  0
 17 23  1  0
 18 19  1  0
 19 20  2  0
 19 27  1  0
 20 21  1  0
 20 25  1  0
 21 22  1  0
 21 23  2  0
 23 24  1  0
 25 26  1  0
 26 27  1  0
 28 29  1  0
 30 31  2  0
 31 32  1  0
 32 33  2  0
M  END
