
     RDKit          3D

 33 36  0  0  0  0  0  0  0  0999 V2000
    8.5640    2.8820    0.9780 C   0  0  0  0  0  0  0  0  0  0  0  0
    9.4620    2.0240    0.1180 C   0  0  0  0  0  0  0  0  0  0  0  0
    8.7230    0.8350   -0.4140 C   0  0  0  0  0  0  0  0  0  0  0  0
    7.4700    0.6400   -0.1260 C   0  0  0  0  0  0  0  0  0  0  0  0
    6.7440   -0.5070   -0.6350 C   0  0  0  0  0  0  0  0  0  0  0  0
    7.2760   -1.4760   -1.4450 C   0  0  0  0  0  0  0  0  0  0  0  0
    6.5440   -2.5630   -1.9130 C   0  0  0  0  0  0  0  0  0  0  0  0
    5.2250   -2.6740   -1.5460 C   0  0  0  0  0  0  0  0  0  0  0  0
    4.6300   -1.7330   -0.7330 C   0  0  0  0  0  0  0  0  0  0  0  0
    3.2330   -1.8760   -0.3620 C   0  0  0  0  0  0  0  0  0  0  0  0
    2.5860   -2.8630   -0.7920 O   0  0  0  0  0  0  0  0  0  0  0  0
    2.5620   -0.9850    0.4450 O   0  0  0  0  0  0  0  0  0  0  0  0
    1.2210   -1.1450    0.7860 C   0  0  0  0  0  0  0  0  0  0  0  0
    0.8780   -1.8580    1.9160 C   0  0  0  0  0  0  0  0  0  0  0  0
   -0.4320   -2.0410    2.2910 C   0  0  0  0  0  0  0  0  0  0  0  0
   -1.4230   -1.4780    1.4870 C   0  0  0  0  0  0  0  0  0  0  0  0
   -1.1480   -0.7570    0.3500 C   0  0  0  0  0  0  0  0  0  0  0  0
   -2.1770   -0.1650   -0.4870 C   0  0  0  0  0  0  0  0  0  0  0  0
   -1.8670    0.2550   -1.6250 O   0  0  0  0  0  0  0  0  0  0  0  0
   -3.4950   -0.0550   -0.0470 N   0  0  0  0  0  0  0  0  0  0  0  0
   -4.5940    0.4900   -0.7400 C   0  0  0  0  0  0  0  0  0  0  0  0
   -4.5710    1.0230   -2.0050 C   0  0  0  0  0  0  0  0  0  0  0  0
   -5.7010    1.5390   -2.6130 C   0  0  0  0  0  0  0  0  0  0  0  0
   -6.9160    1.5340   -1.9580 C   0  0  0  0  0  0  0  0  0  0  0  0
   -6.9720    1.0060   -0.6870 C   0  0  0  0  0  0  0  0  0  0  0  0
   -8.0250    0.8710    0.1880 C   0  0  0  0  0  0  0  0  0  0  0  0
   -9.4450    1.2860   -0.0300 C   0  0  0  0  0  0  0  0  0  0  0  0
   -7.5440    0.2750    1.3330 C   0  0  0  0  0  0  0  0  0  0  0  0
   -8.3590   -0.0560    2.5420 C   0  0  0  0  0  0  0  0  0  0  0  0
   -6.2360    0.0660    1.1280 N   0  0  0  0  0  0  0  0  0  0  0  0
   -5.8360    0.4910   -0.0830 C   0  0  0  0  0  0  0  0  0  0  0  0
    0.2050   -0.6120    0.0310 C   0  0  0  0  0  0  0  0  0  0  0  0
    5.3910   -0.6930   -0.3070 C   0  0  0  0  0  0  0  0  0  0  0  0
  1  2  1  0
  2  3  1  0
  3  4  2  3
  4  5  1  0
  5  6  2  0
  5 33  1  0
  6  7  1  0
  7  8  2  0
  8  9  1  0
  9 10  1  0
  9 33  2  0
 10 11  2  0
 10 12  1  0
 12 13  1  0
 13 14  2  0
 13 32  1  0
 14 15  1  0
 15 16  2  0
 16 17  1  0
 17 18  1  0
 17 32  2  0
 18 19  2  0
 18 20  1  0
 20 21  1  0
 21 22  2  0
 21 31  1  0
 22 23  1  0
 23 24  2  0
 24 25  1  0
 25 26  1  0
 25 31  2  0
 26 27  1  0
 26 28  2  0
 28 29  1  0
 28 30  1  0
 30 31  1  0
M  END
