
     RDKit          3D

 33 35  0  0  0  0  0  0  0  0999 V2000
    6.4490    1.1700    2.2390 C   0  0  0  0  0  0  0  0  0  0  0  0
    6.0310    0.1690    1.2650 N   0  0  0  0  0  0  0  0  0  0  0  0
    4.7680   -0.1230    0.8700 C   0  0  0  0  0  0  0  0  0  0  0  0
    3.5330    0.5560    1.3450 C   0  0  0  0  0  0  0  0  0  0  0  0
    2.3570    0.0410    0.6360 N   0  0  0  0  0  0  0  0  0  0  0  0
    2.3040    0.1920   -0.7670 C   0  0  0  0  0  0  0  0  0  0  0  0
    3.2780    0.7590   -1.3860 O   0  0  0  0  0  0  0  0  0  0  0  0
    1.2150   -0.2580   -1.6170 C   0  0  0  0  0  0  0  0  0  0  0  0
    1.4430   -0.9590   -2.8330 C   0  0  0  0  0  0  0  0  0  0  0  0
    0.2390   -1.2130   -3.4270 C   0  0  0  0  0  0  0  0  0  0  0  0
   -0.7190   -0.6750   -2.5870 C   0  0  0  0  0  0  0  0  0  0  0  0
   -0.1090   -0.1080   -1.5140 N   0  0  0  0  0  0  0  0  0  0  0  0
   -0.8130    0.5850   -0.4750 C   0  0  0  0  0  0  0  0  0  0  0  0
   -0.2560    1.1370    0.4790 O   0  0  0  0  0  0  0  0  0  0  0  0
   -2.3250    0.6520   -0.5520 C   0  0  1  0  0  0  0  0  0  0  0  0
   -2.9150   -0.6590   -0.1310 C   0  0  0  0  0  0  0  0  0  0  0  0
   -4.3790   -0.8160   -0.2270 C   0  0  2  0  0  0  0  0  0  0  0  0
   -4.8850   -0.6640   -1.6670 C   0  0  0  0  0  0  0  0  0  0  0  0
   -6.1330   -1.5610   -1.7490 C   0  0  0  0  0  0  0  0  0  0  0  0
   -6.9390   -1.4610   -0.4840 C   0  0  0  0  0  0  0  0  0  0  0  0
   -6.7090   -0.1840    0.2850 C   0  0  0  0  0  0  0  0  0  0  0  0
   -5.2340    0.0500    0.6150 C   0  0  0  0  0  0  0  0  0  0  0  0
   -2.8330    1.6980    0.2600 N   0  0  0  0  0  0  0  0  0  0  0  0
   -2.6240    1.7190    1.6480 C   0  0  0  0  0  0  0  0  0  0  0  0
   -3.4110    2.8820    2.1960 C   0  0  0  0  0  0  0  0  0  0  0  0
   -4.0670    3.6150    1.4600 O   0  0  0  0  0  0  0  0  0  0  0  0
   -3.3750    3.0990    3.5560 O   0  0  0  0  0  0  0  0  0  0  0  0
    4.8740   -1.1470   -0.0570 C   0  0  0  0  0  0  0  0  0  0  0  0
    6.2090   -1.4790   -0.2290 C   0  0  0  0  0  0  0  0  0  0  0  0
    6.8960   -0.6350    0.6140 C   0  0  0  0  0  0  0  0  0  0  0  0
    8.3640   -0.6680    0.7390 C   0  0  0  0  0  0  0  0  0  0  0  0
    9.0720   -1.4700    0.0220 N   0  0  0  0  0  0  0  0  0  0  0  0
    9.0670    0.1650    1.6450 N   0  0  0  0  0  0  0  0  0  0  0  0
  1  2  1  0
  2  3  1  0
  2 30  1  0
  3  4  1  0
  3 28  2  0
  4  5  1  0
  5  6  1  0
  6  7  2  0
  6  8  1  0
  8  9  2  0
  8 12  1  0
  9 10  1  0
 10 11  2  0
 11 12  1  0
 12 13  1  0
 13 14  2  0
 13 15  1  0
 15 16  1  1
 15 23  1  0
 17 16  1  6
 17 18  1  0
 17 22  1  0
 18 19  1  0
 19 20  1  0
 20 21  1  0
 21 22  1  0
 23 24  1  0
 24 25  1  0
 25 26  2  0
 25 27  1  0
 28 29  1  0
 29 30  2  0
 30 31  1  0
 31 32  2  0
 31 33  1  0
M  END
