
     RDKit          3D

 33 37  0  0  0  0  0  0  0  0999 V2000
   -0.2380    8.4270    5.4700 N   0  0  0  0  0  0  0  0  0  0  0  0
   -0.9470    7.6290    5.3020 C   0  0  0  0  0  0  0  0  0  0  0  0
   -2.0160    6.4000    5.0690 C   0  0  0  0  0  0  0  0  0  0  0  0
   -1.3260    5.7630    4.0740 O   0  0  0  0  0  0  0  0  0  0  0  0
   -1.3110    4.6520    3.3400 C   0  0  0  0  0  0  0  0  0  0  0  0
   -0.2500    4.5600    2.3980 C   0  0  0  0  0  0  0  0  0  0  0  0
   -0.1450    3.4650    1.6080 C   0  0  0  0  0  0  0  0  0  0  0  0
   -1.0460    2.4090    1.6810 C   0  0  0  0  0  0  0  0  0  0  0  0
   -0.8000    1.2500    0.8610 C   0  0  0  0  0  0  0  0  0  0  0  0
    0.4270    0.9870    0.2230 C   0  0  0  0  0  0  0  0  0  0  0  0
    0.6920   -0.1100   -0.4970 C   0  0  0  0  0  0  0  0  0  0  0  0
    2.0170   -0.3110   -1.1460 C   0  0  0  0  0  0  0  0  0  0  0  0
    2.3210   -1.4680   -1.8180 C   0  0  0  0  0  0  0  0  0  0  0  0
    3.5760   -1.6220   -2.4420 C   0  0  0  0  0  0  0  0  0  0  0  0
    4.4940   -0.5670   -2.3510 C   0  0  0  0  0  0  0  0  0  0  0  0
    4.1040    0.5490   -1.6470 C   0  0  0  0  0  0  0  0  0  0  0  0
    4.9560    1.5120   -1.5570 O   0  0  0  0  0  0  0  0  0  0  0  0
    2.9140    0.6140   -1.0990 O   0  0  0  0  0  0  0  0  0  0  0  0
    5.7620   -0.6390   -3.0460 N   0  0  0  0  0  0  0  0  0  0  0  0
    5.7620   -1.6040   -4.1580 C   0  0  0  0  0  0  0  0  0  0  0  0
    5.3520   -2.9210   -3.4720 C   0  0  0  0  0  0  0  0  0  0  0  0
    3.9610   -2.7410   -3.1330 O   0  0  0  0  0  0  0  0  0  0  0  0
   -0.2650   -1.0710   -0.6610 N   0  0  0  0  0  0  0  0  0  0  0  0
   -1.4850   -0.8430   -0.0500 C   0  0  0  0  0  0  0  0  0  0  0  0
   -2.5340   -1.8980   -0.2560 C   0  0  1  0  0  0  0  0  0  0  0  0
   -2.0860   -2.9600   -1.2430 C   0  0  0  0  0  0  0  0  0  0  0  0
   -3.2440   -3.8480   -1.5680 C   0  0  0  0  0  0  0  0  0  0  0  0
   -4.4260   -3.5680   -0.6850 C   0  0  0  0  0  0  0  0  0  0  0  0
   -4.1160   -3.4130    0.7570 C   0  0  0  0  0  0  0  0  0  0  0  0
   -2.8570   -2.6290    1.0460 C   0  0  0  0  0  0  0  0  0  0  0  0
   -1.6960    0.2410    0.6450 N   0  0  0  0  0  0  0  0  0  0  0  0
   -2.0380    2.5470    2.5940 C   0  0  0  0  0  0  0  0  0  0  0  0
   -2.1490    3.6140    3.3680 N   0  0  0  0  0  0  0  0  0  0  0  0
  1  2  3  0
  2  3  1  0
  3  4  1  0
  4  5  1  0
  5  6  2  0
  5 33  1  0
  6  7  1  0
  7  8  2  0
  8  9  1  0
  8 32  1  0
  9 10  2  0
  9 31  1  0
 10 11  1  0
 11 12  1  0
 11 23  2  0
 12 13  2  0
 12 18  1  0
 13 14  1  0
 14 15  2  0
 14 22  1  0
 15 16  1  0
 15 19  1  0
 16 17  2  0
 16 18  1  0
 19 20  1  0
 20 21  1  0
 21 22  1  0
 23 24  1  0
 25 24  1  1
 24 31  2  0
 25 26  1  0
 25 30  1  0
 26 27  1  0
 27 28  1  0
 28 29  1  0
 29 30  1  0
 32 33  2  0
M  END
