
     RDKit          3D

 33 37  0  0  0  0  0  0  0  0999 V2000
    0.8260    3.9850    2.4320 C   0  0  0  0  0  0  0  0  0  0  0  0
    1.7330    3.9740    1.2220 C   0  0  0  0  0  0  0  0  0  0  0  0
    1.9970    2.5890    0.7950 N   0  0  0  0  0  0  0  0  0  0  0  0
    0.9370    1.7900    0.3400 C   0  0  0  0  0  0  0  0  0  0  0  0
   -0.2660    2.4100    0.2590 N   0  0  0  0  0  0  0  0  0  0  0  0
   -1.4000    1.8390   -0.1870 C   0  0  0  0  0  0  0  0  0  0  0  0
   -2.6350    2.6190   -0.2350 C   0  0  0  0  0  0  0  0  0  0  0  0
   -3.8230    2.2890   -0.5980 C   0  0  0  0  0  0  0  0  0  0  0  0
   -4.7860    3.4520   -0.4730 C   0  0  0  0  0  0  0  0  0  0  0  0
   -3.9020    4.5200    0.0350 C   0  0  0  0  0  0  0  0  0  0  0  0
   -2.6900    4.0450    0.1670 C   0  0  0  0  0  0  0  0  0  0  0  0
   -1.2670    0.5340   -0.5730 C   0  0  0  0  0  0  0  0  0  0  0  0
   -0.0400   -0.1630   -0.5100 C   0  0  0  0  0  0  0  0  0  0  0  0
    1.0890    0.4660   -0.0480 C   0  0  0  0  0  0  0  0  0  0  0  0
    2.3530   -0.2210    0.0690 C   0  0  0  0  0  0  0  0  0  0  0  0
    3.3620    0.3750    0.6240 O   0  0  0  0  0  0  0  0  0  0  0  0
    2.6930   -1.5170   -0.3520 N   0  0  0  0  0  0  0  0  0  0  0  0
    4.0390   -2.0310   -0.1320 C   0  0  0  0  0  0  0  0  0  0  0  0
    4.8600   -2.4210   -1.0770 C   0  0  0  0  0  0  0  0  0  0  0  0
    6.1540   -2.8890   -0.5010 C   0  0  0  0  0  0  0  0  0  0  0  0
    5.9350   -2.6990    0.9460 C   0  0  0  0  0  0  0  0  0  0  0  0
    4.7030   -2.2010    1.1280 C   0  0  0  0  0  0  0  0  0  0  0  0
    0.1460   -1.4930   -0.8860 O   0  0  0  0  0  0  0  0  0  0  0  0
   -0.7840   -2.5510   -0.7780 C   0  0  0  0  0  0  0  0  0  0  0  0
   -0.1990   -3.7200   -0.5460 N   0  0  0  0  0  0  0  0  0  0  0  0
   -0.9800   -4.8100   -0.4220 C   0  0  0  0  0  0  0  0  0  0  0  0
   -2.2940   -4.7510   -0.5230 N   0  0  0  0  0  0  0  0  0  0  0  0
   -2.9960   -3.5890   -0.7630 C   0  0  0  0  0  0  0  0  0  0  0  0
   -4.4490   -3.5550   -0.8660 C   0  0  0  0  0  0  0  0  0  0  0  0
   -2.1570   -2.5070   -0.8820 C   0  0  0  0  0  0  0  0  0  0  0  0
   -2.9210   -1.2950   -1.1360 C   0  0  0  0  0  0  0  0  0  0  0  0
   -4.0780   -1.5050   -1.4940 O   0  0  0  0  0  0  0  0  0  0  0  0
   -2.4640    0.0400   -1.0110 O   0  0  0  0  0  0  0  0  0  0  0  0
  1  2  1  0
  2  3  1  0
  3  4  1  0
  4  5  2  0
  4 14  1  0
  5  6  1  0
  6  7  1  0
  6 12  2  0
  7  8  2  0
  7 11  1  0
  8  9  1  0
  9 10  1  0
 10 11  2  0
 12 13  1  0
 12 33  1  0
 13 14  2  0
 13 23  1  0
 14 15  1  0
 15 16  2  0
 15 17  1  0
 17 18  1  0
 18 19  2  0
 18 22  1  0
 19 20  1  0
 20 21  1  0
 21 22  2  0
 23 24  1  0
 24 25  2  0
 24 30  1  0
 25 26  1  0
 26 27  2  0
 27 28  1  0
 28 29  1  0
 28 30  2  0
 30 31  1  0
 31 32  2  0
 31 33  1  0
M  END
