
     RDKit          3D

 33 36  0  0  0  0  0  0  0  0999 V2000
   10.1410    1.9890   -0.0240 C   0  0  0  0  0  0  0  0  0  0  0  0
   10.2760    0.9090    1.0080 C   0  0  0  0  0  0  0  0  0  0  0  0
    8.9560    0.3870    1.4060 C   0  0  0  0  0  0  0  0  0  0  0  0
    8.7720   -0.6130    2.3400 C   0  0  0  0  0  0  0  0  0  0  0  0
    7.4130   -0.7980    2.4170 C   0  0  0  0  0  0  0  0  0  0  0  0
    6.8510    0.0870    1.5370 C   0  0  0  0  0  0  0  0  0  0  0  0
    5.4160    0.2430    1.2840 C   0  0  0  0  0  0  0  0  0  0  0  0
    4.9490   -0.6430    0.2200 N   0  0  0  0  0  0  0  0  0  0  0  0
    3.5750   -0.6500   -0.1830 C   0  0  0  0  0  0  0  0  0  0  0  0
    2.8200    0.1370    0.4240 O   0  0  0  0  0  0  0  0  0  0  0  0
    3.1010   -1.5000   -1.2110 N   0  0  0  0  0  0  0  0  0  0  0  0
    1.7650   -1.5660   -1.6530 C   0  0  0  0  0  0  0  0  0  0  0  0
    1.5220   -2.3220   -2.8060 C   0  0  0  0  0  0  0  0  0  0  0  0
    0.2510   -2.4580   -3.3120 C   0  0  0  0  0  0  0  0  0  0  0  0
   -0.8430   -1.8660   -2.7220 C   0  0  0  0  0  0  0  0  0  0  0  0
   -0.6490   -1.1130   -1.5840 C   0  0  0  0  0  0  0  0  0  0  0  0
   -1.5890   -0.4970   -0.9210 O   0  0  0  0  0  0  0  0  0  0  0  0
   -2.8130   -0.1360   -0.6730 C   0  0  0  0  0  0  0  0  0  0  0  0
   -3.8730   -0.5570   -1.4740 C   0  0  0  0  0  0  0  0  0  0  0  0
   -5.1500   -0.1470   -1.1700 C   0  0  0  0  0  0  0  0  0  0  0  0
   -5.4590    0.6630   -0.1140 C   0  0  0  0  0  0  0  0  0  0  0  0
   -6.8200    1.0820    0.1870 C   0  0  0  0  0  0  0  0  0  0  0  0
   -7.0720    2.3000    0.7720 C   0  0  0  0  0  0  0  0  0  0  0  0
   -8.3700    2.6940    1.0560 C   0  0  0  0  0  0  0  0  0  0  0  0
   -9.4410    1.8790    0.7620 C   0  0  0  0  0  0  0  0  0  0  0  0
   -9.2000    0.6560    0.1750 C   0  0  0  0  0  0  0  0  0  0  0  0
  -10.3710   -0.2100   -0.1350 C   0  0  0  0  0  0  0  0  0  0  0  0
   -7.9030    0.2780   -0.1010 C   0  0  0  0  0  0  0  0  0  0  0  0
   -4.4060    1.0760    0.6740 C   0  0  0  0  0  0  0  0  0  0  0  0
   -3.1130    0.7140    0.4400 C   0  0  0  0  0  0  0  0  0  0  0  0
   -1.9920    1.1690    1.2990 C   0  0  0  0  0  0  0  0  0  0  0  0
    0.6860   -0.9900   -1.0820 C   0  0  0  0  0  0  0  0  0  0  0  0
    7.7990    0.7800    0.9500 O   0  0  0  0  0  0  0  0  0  0  0  0
  1  2  1  0
  2  3  1  0
  3  4  2  0
  3 33  1  0
  4  5  1  0
  5  6  2  0
  6  7  1  0
  6 33  1  0
  7  8  1  0
  8  9  1  0
  9 10  2  0
  9 11  1  0
 11 12  1  0
 12 13  2  0
 12 32  1  0
 13 14  1  0
 14 15  2  0
 15 16  1  0
 16 17  1  0
 16 32  2  0
 17 18  1  0
 18 19  2  0
 18 30  1  0
 19 20  1  0
 20 21  2  0
 21 22  1  0
 21 29  1  0
 22 23  2  0
 22 28  1  0
 23 24  1  0
 24 25  2  0
 25 26  1  0
 26 27  1  0
 26 28  2  0
 29 30  2  0
 30 31  1  0
M  END
