
     RDKit          3D

 33 36  0  0  0  0  0  0  0  0999 V2000
    9.0030    0.7500   -0.8990 C   0  0  0  0  0  0  0  0  0  0  0  0
    7.5960    0.2760   -0.8230 C   0  0  0  0  0  0  0  0  0  0  0  0
    7.1640   -0.9920   -0.8360 N   0  0  0  0  0  0  0  0  0  0  0  0
    5.8060   -1.0370   -0.7510 C   0  0  0  0  0  0  0  0  0  0  0  0
    4.8900   -2.0540   -0.7250 C   0  0  0  0  0  0  0  0  0  0  0  0
    3.5340   -1.8340   -0.6320 C   0  0  0  0  0  0  0  0  0  0  0  0
    3.0630   -0.5600   -0.5620 C   0  0  0  0  0  0  0  0  0  0  0  0
    1.6630   -0.2160   -0.4850 N   0  0  0  0  0  0  0  0  0  0  0  0
    0.6290   -1.0140   -0.9420 C   0  0  0  0  0  0  0  0  0  0  0  0
    0.9910   -2.1340   -1.4820 O   0  0  0  0  0  0  0  0  0  0  0  0
   -0.8090   -0.7600   -0.8940 C   0  0  0  0  0  0  0  0  0  0  0  0
   -1.6740   -1.6920   -1.4220 C   0  0  0  0  0  0  0  0  0  0  0  0
   -3.0560   -1.5590   -1.4370 C   0  0  0  0  0  0  0  0  0  0  0  0
   -3.7830   -2.5010   -1.9610 O   0  0  0  0  0  0  0  0  0  0  0  0
   -4.6820   -3.3000   -2.4220 C   0  0  0  0  0  0  0  0  0  0  0  0
   -5.6380   -3.7600   -1.3450 C   0  0  0  0  0  0  0  0  0  0  0  0
   -5.8940   -4.9790   -0.9220 C   0  0  0  0  0  0  0  0  0  0  0  0
   -6.9070   -4.9370    0.1560 C   0  0  0  0  0  0  0  0  0  0  0  0
   -7.2070   -3.5030    0.2970 C   0  0  0  0  0  0  0  0  0  0  0  0
   -6.4590   -2.8570   -0.5810 C   0  0  0  0  0  0  0  0  0  0  0  0
   -3.5860   -0.3880   -0.8720 C   0  0  0  0  0  0  0  0  0  0  0  0
   -2.7640    0.5620   -0.3380 C   0  0  0  0  0  0  0  0  0  0  0  0
   -1.3730    0.3720   -0.3510 C   0  0  0  0  0  0  0  0  0  0  0  0
   -0.5730    1.3210    0.1780 O   0  0  0  0  0  0  0  0  0  0  0  0
   -0.6970    2.5150    0.8020 C   0  0  0  0  0  0  0  0  0  0  0  0
   -1.3940    2.4240    2.1320 C   0  0  0  0  0  0  0  0  0  0  0  0
   -1.5160    3.7910    2.7980 C   0  0  1  0  0  0  0  0  0  0  0  0
   -2.3070    4.7090    1.9070 C   0  0  0  0  0  0  0  0  0  0  0  0
   -2.2780    3.5880    4.0810 C   0  0  0  0  0  0  0  0  0  0  0  0
    3.9830    0.4860   -0.5870 C   0  0  0  0  0  0  0  0  0  0  0  0
    5.3370    0.2590   -0.6800 C   0  0  0  0  0  0  0  0  0  0  0  0
    6.4650    1.0620   -0.7260 C   0  0  0  0  0  0  0  0  0  0  0  0
    6.4680    2.5290   -0.6830 C   0  0  0  0  0  0  0  0  0  0  0  0
  1  2  1  0
  2  3  1  0
  2 32  2  0
  3  4  1  0
  4  5  2  0
  4 31  1  0
  5  6  1  0
  6  7  2  0
  7  8  1  0
  7 30  1  0
  8  9  1  0
  9 10  2  0
  9 11  1  0
 11 12  2  0
 11 23  1  0
 12 13  1  0
 13 14  1  0
 13 21  2  0
 14 15  1  0
 15 16  1  0
 16 17  2  0
 16 20  1  0
 17 18  1  0
 18 19  1  0
 19 20  2  0
 21 22  1  0
 22 23  2  0
 23 24  1  0
 24 25  1  0
 25 26  1  0
 26 27  1  0
 27 28  1  6
 27 29  1  0
 30 31  2  0
 31 32  1  0
 32 33  1  0
M  END
