
     RDKit          3D

 33 36  0  0  0  0  0  0  0  0999 V2000
    5.8540   -1.7590   -3.2140 C   0  0  0  0  0  0  0  0  0  0  0  0
    6.0580   -1.3220   -1.9890 C   0  0  0  0  0  0  0  0  0  0  0  0
    5.7460   -2.1780   -0.8300 C   0  0  0  0  0  0  0  0  0  0  0  0
    5.2280   -1.3550    0.2430 N   0  0  0  0  0  0  0  0  0  0  0  0
    4.2370   -1.8130    1.1810 C   0  0  0  0  0  0  0  0  0  0  0  0
    2.8530   -1.4700    0.7670 C   0  0  0  0  0  0  0  0  0  0  0  0
    2.7190   -0.8080   -0.3050 O   0  0  0  0  0  0  0  0  0  0  0  0
    1.7120   -1.8300    1.4900 N   0  0  0  0  0  0  0  0  0  0  0  0
    0.3680   -1.5390    1.2110 C   0  0  0  0  0  0  0  0  0  0  0  0
   -0.6560   -2.0530    1.9980 C   0  0  0  0  0  0  0  0  0  0  0  0
   -1.9570   -1.7650    1.8230 C   0  0  0  0  0  0  0  0  0  0  0  0
   -2.3870   -0.8920    0.7900 C   0  0  0  0  0  0  0  0  0  0  0  0
   -3.7330   -0.6550    0.6960 O   0  0  0  0  0  0  0  0  0  0  0  0
   -4.4950    0.4440    0.6570 C   0  0  0  0  0  0  0  0  0  0  0  0
   -4.1810    1.5140    1.5100 C   0  0  0  0  0  0  0  0  0  0  0  0
   -3.0190    1.4140    2.4290 C   0  0  0  0  0  0  0  0  0  0  0  0
   -4.9800    2.6290    1.4980 C   0  0  0  0  0  0  0  0  0  0  0  0
   -6.0760    2.7300    0.6780 C   0  0  0  0  0  0  0  0  0  0  0  0
   -6.9500    3.9600    0.6410 C   0  0  0  0  0  0  0  0  0  0  0  0
   -6.3590    1.6760   -0.1440 C   0  0  0  0  0  0  0  0  0  0  0  0
   -5.5760    0.5020   -0.1800 C   0  0  0  0  0  0  0  0  0  0  0  0
   -5.9200   -0.4860   -1.2070 C   0  0  2  0  0  0  0  0  0  0  0  0
   -7.4550   -0.7150   -1.1350 C   0  0  0  0  0  0  0  0  0  0  0  0
   -5.1930   -1.7250   -1.3620 C   0  0  0  0  0  0  0  0  0  0  0  0
   -1.3920   -0.3870    0.0090 C   0  0  0  0  0  0  0  0  0  0  0  0
   -0.0390   -0.7040    0.2140 C   0  0  0  0  0  0  0  0  0  0  0  0
    5.7730   -0.0260    0.3750 C   0  0  0  0  0  0  0  0  0  0  0  0
    5.2410    0.8600    1.0600 O   0  0  0  0  0  0  0  0  0  0  0  0
    7.0410    0.2660   -0.3620 C   0  0  2  0  0  0  0  0  0  0  0  0
    7.5490    1.6390   -0.3000 C   0  0  0  0  0  0  0  0  0  0  0  0
    7.4620    2.1590   -1.7210 C   0  0  0  0  0  0  0  0  0  0  0  0
    6.8620    1.0610   -2.5370 C   0  0  0  0  0  0  0  0  0  0  0  0
    6.6160    0.0030   -1.8000 C   0  0  0  0  0  0  0  0  0  0  0  0
  1  2  2  0
  2  3  1  0
  2 33  1  0
  3  4  1  0
  4  5  1  0
  4 27  1  0
  5  6  1  0
  6  7  2  0
  6  8  1  0
  8  9  1  0
  9 10  2  0
  9 26  1  0
 10 11  1  0
 11 12  2  0
 12 13  1  0
 12 25  1  0
 13 14  1  0
 14 15  2  0
 14 21  1  0
 15 16  1  0
 15 17  1  0
 17 18  2  0
 18 19  1  0
 18 20  1  0
 20 21  2  0
 21 22  1  0
 22 23  1  1
 22 24  1  0
 25 26  2  0
 27 28  2  0
 27 29  1  0
 29 30  1  6
 29 33  1  0
 30 31  1  0
 31 32  1  0
 32 33  2  0
M  END
