
     RDKit          3D

 33 35  0  0  0  0  0  0  0  0999 V2000
   -8.7510   -1.1850   -0.4170 C   0  0  0  0  0  0  0  0  0  0  0  0
   -7.5370   -1.6560   -0.5860 C   0  0  0  0  0  0  0  0  0  0  0  0
   -6.3890   -0.7680   -0.3360 C   0  0  0  0  0  0  0  0  0  0  0  0
   -5.1810   -1.2360   -0.5040 C   0  0  0  0  0  0  0  0  0  0  0  0
   -5.0570   -2.6720   -0.9490 C   0  0  0  0  0  0  0  0  0  0  0  0
   -4.0060   -0.4300   -0.2800 C   0  0  0  0  0  0  0  0  0  0  0  0
   -3.8610    0.7430    0.0790 N   0  0  0  0  0  0  0  0  0  0  0  0
   -4.7240    1.7600    0.4090 C   0  0  0  0  0  0  0  0  0  0  0  0
   -5.2390    2.7130   -0.3870 C   0  0  0  0  0  0  0  0  0  0  0  0
   -6.1260    3.6080    0.3860 C   0  0  0  0  0  0  0  0  0  0  0  0
   -6.0610    3.1180    1.7260 N   0  0  0  0  0  0  0  0  0  0  0  0
   -5.2320    1.9900    1.7760 C   0  0  0  0  0  0  0  0  0  0  0  0
   -4.9500    1.2610    2.8380 C   0  0  0  0  0  0  0  0  0  0  0  0
   -2.7670   -1.1310   -0.5200 O   0  0  0  0  0  0  0  0  0  0  0  0
   -1.5500   -0.4880   -0.3460 C   0  0  0  0  0  0  0  0  0  0  0  0
   -1.5490    0.6960    0.0190 O   0  0  0  0  0  0  0  0  0  0  0  0
   -0.3130   -1.2720   -0.6120 C   0  0  2  0  0  0  0  0  0  0  0  0
   -0.6240   -2.5770   -1.0070 O   0  0  0  0  0  0  0  0  0  0  0  0
    0.6390   -1.2710    0.5580 C   0  0  0  0  0  0  0  0  0  0  0  0
    2.0970   -1.4140    0.0830 C   0  0  0  0  0  0  0  0  0  0  0  0
    2.5340   -0.1660   -0.6180 C   0  0  1  0  0  0  0  0  0  0  0  0
    3.4540   -0.3480   -1.7650 C   0  0  0  0  0  0  0  0  0  0  0  0
    4.7650   -0.9850   -1.5050 C   0  0  0  0  0  0  0  0  0  0  0  0
    5.6630   -0.3170   -0.5780 C   0  0  0  0  0  0  0  0  0  0  0  0
    6.5450    0.6480   -1.0050 C   0  0  0  0  0  0  0  0  0  0  0  0
    7.4160    1.2890   -0.1290 C   0  0  0  0  0  0  0  0  0  0  0  0
    8.3570    2.3300   -0.6260 C   0  0  0  0  0  0  0  0  0  0  0  0
    7.3920    0.9440    1.2090 C   0  0  0  0  0  0  0  0  0  0  0  0
    6.5190   -0.0190    1.6620 C   0  0  0  0  0  0  0  0  0  0  0  0
    6.4520   -0.4280    3.0900 C   0  0  0  0  0  0  0  0  0  0  0  0
    5.6600   -0.6410    0.7540 C   0  0  0  0  0  0  0  0  0  0  0  0
    1.2660    0.5060   -1.1560 C   0  0  0  0  0  0  0  0  0  0  0  0
    0.4200   -0.5910   -1.7610 C   0  0  0  0  0  0  0  0  0  0  0  0
  1  2  2  0
  2  3  1  0
  3  4  2  3
  4  5  1  0
  4  6  1  0
  6  7  2  3
  6 14  1  0
  7  8  1  0
  8  9  2  0
  8 12  1  0
  9 10  1  0
 10 11  1  0
 11 12  1  0
 12 13  2  0
 14 15  1  0
 15 16  2  0
 15 17  1  0
 17 18  1  6
 17 19  1  0
 17 33  1  0
 19 20  1  0
 20 21  1  0
 21 22  1  6
 21 32  1  0
 22 23  1  0
 23 24  1  0
 24 25  2  0
 24 31  1  0
 25 26  1  0
 26 27  1  0
 26 28  2  0
 28 29  1  0
 29 30  1  0
 29 31  2  0
 32 33  1  0
M  END
