
     RDKit          3D

 20 21  0  0  0  0  0  0  0  0999 V2000
    0.2760    0.1870    0.0160 O   0  0  0  0  0  0  0  0  0  0  0  0
   -0.0950   -0.7610   -0.7190 C   0  0  0  0  0  0  0  0  0  0  0  0
   -1.3890   -0.8560   -1.2210 N   0  0  0  0  0  0  0  0  0  0  0  0
   -2.2770    0.1720   -0.8370 C   0  0  0  0  0  0  0  0  0  0  0  0
   -3.3360   -0.1650   -0.1390 C   0  0  0  0  0  0  0  0  0  0  0  0
   -4.3150    0.8340    0.3060 C   0  0  0  0  0  0  0  0  0  0  0  0
   -4.0160    2.1310   -0.0760 O   0  0  0  0  0  0  0  0  0  0  0  0
   -2.9260    2.5120   -0.8000 C   0  0  0  0  0  0  0  0  0  0  0  0
   -2.0610    1.5640   -1.1830 C   0  0  0  0  0  0  0  0  0  0  0  0
    0.9230   -1.6570   -0.9440 N   0  0  0  0  0  0  0  0  0  0  0  0
    2.2350   -1.5040   -0.4180 C   0  0  0  0  0  0  0  0  0  0  0  0
    2.8940   -2.5220   -0.7270 N   0  0  0  0  0  0  0  0  0  0  0  0
    4.1860   -2.3970   -0.2200 C   0  0  0  0  0  0  0  0  0  0  0  0
    5.0770   -3.2360   -0.3520 O   0  0  0  0  0  0  0  0  0  0  0  0
    4.3500   -1.2220    0.4490 O   0  0  0  0  0  0  0  0  0  0  0  0
    3.0810   -0.5750    0.3110 C   0  0  2  0  0  0  0  0  0  0  0  0
    2.6900   -0.3370    1.6640 O   0  0  0  0  0  0  0  0  0  0  0  0
    2.5830    0.9370    2.1730 C   0  0  0  0  0  0  0  0  0  0  0  0
    2.8390    1.8890    1.4070 O   0  0  0  0  0  0  0  0  0  0  0  0
    2.2030    1.1350    3.4890 O   0  0  0  0  0  0  0  0  0  0  0  0
  1  2  2  0
  2  3  1  0
  2 10  1  0
  3  4  1  0
  4  5  2  0
  4  9  1  0
  5  6  1  0
  6  7  1  0
  7  8  1  0
  8  9  2  0
 10 11  1  0
 11 12  2  0
 11 16  1  0
 12 13  1  0
 13 14  2  0
 13 15  1  0
 15 16  1  0
 16 17  1  1
 17 18  1  0
 18 19  2  0
 18 20  1  0
M  END
