
     RDKit          3D

 21 21  0  0  0  0  0  0  0  0999 V2000
   -2.2170   -0.6200   -0.5270 O   0  0  0  0  0  0  0  0  0  0  0  0
   -2.2920   -0.0150    0.5640 C   0  0  0  0  0  0  0  0  0  0  0  0
   -1.2030    0.2980    1.3270 O   0  0  0  0  0  0  0  0  0  0  0  0
    0.1190    0.0290    1.0430 C   0  0  0  0  0  0  0  0  0  0  0  0
    0.5680    0.6800   -0.0740 O   0  0  0  0  0  0  0  0  0  0  0  0
   -0.0690    0.3490   -1.1380 O   0  0  0  0  0  0  0  0  0  0  0  0
    0.7510   -0.4990   -1.8980 C   0  0  0  0  0  0  0  0  0  0  0  0
    1.9010    0.2050   -2.2070 O   0  0  0  0  0  0  0  0  0  0  0  0
    2.5060    0.5570   -1.1050 O   0  0  0  0  0  0  0  0  0  0  0  0
    3.7220   -0.1210   -1.0480 C   0  0  0  0  0  0  0  0  0  0  0  0
    4.4540    0.2660    0.2240 C   0  0  0  0  0  0  0  0  0  0  0  0
    5.6560   -0.4410    0.2260 O   0  0  0  0  0  0  0  0  0  0  0  0
    6.3330   -0.1380    1.3150 O   0  0  0  0  0  0  0  0  0  0  0  0
    7.2050    0.8310    1.0310 O   0  0  0  0  0  0  0  0  0  0  0  0
   -3.6000    0.3290    0.9600 O   0  0  0  0  0  0  0  0  0  0  0  0
   -4.6980    0.0010    0.1680 C   0  0  1  0  0  0  0  0  0  0  0  0
   -5.6720   -0.8030    1.0390 C   0  0  0  0  0  0  0  0  0  0  0  0
   -6.2820    0.2210    1.7600 O   0  0  0  0  0  0  0  0  0  0  0  0
   -6.4650    1.2390    0.9220 O   0  0  0  0  0  0  0  0  0  0  0  0
   -5.5000    1.2280   -0.0780 C   0  0  0  0  0  0  0  0  0  0  0  0
   -5.3580    2.0750   -0.9760 O   0  0  0  0  0  0  0  0  0  0  0  0
  1  2  2  0
  2  3  1  0
  2 15  1  0
  3  4  1  0
  4  5  1  0
  5  6  1  0
  6  7  1  0
  7  8  1  0
  8  9  1  0
  9 10  1  0
 10 11  1  0
 11 12  1  0
 12 13  1  0
 13 14  1  0
 16 15  1  1
 16 17  1  0
 16 20  1  0
 17 18  1  0
 18 19  1  0
 19 20  1  0
 20 21  2  0
M  END
