
     RDKit          3D

 21 21  0  0  0  0  0  0  0  0999 V2000
   -4.0600   -1.6510    0.5210 O   0  0  0  0  0  0  0  0  0  0  0  0
   -3.7270   -0.7020   -0.2270 C   0  0  0  0  0  0  0  0  0  0  0  0
   -3.4360    0.5960    0.4240 C   0  0  0  0  0  0  0  0  0  0  0  0
   -2.9820    0.4650    1.7460 O   0  0  0  0  0  0  0  0  0  0  0  0
   -2.0640    1.1740    2.4390 C   0  0  0  0  0  0  0  0  0  0  0  0
   -2.3180    1.8300    3.4810 O   0  0  0  0  0  0  0  0  0  0  0  0
   -0.7540    1.2090    2.0160 O   0  0  0  0  0  0  0  0  0  0  0  0
    0.0330    0.1980    1.5030 C   0  0  0  0  0  0  0  0  0  0  0  0
    0.2940    0.3130    0.1460 O   0  0  0  0  0  0  0  0  0  0  0  0
    1.1510   -0.6400   -0.3330 C   0  0  2  0  0  0  0  0  0  0  0  0
    2.4960    0.0410   -0.5560 C   0  0  0  0  0  0  0  0  0  0  0  0
    3.4400   -0.8550   -1.0470 O   0  0  0  0  0  0  0  0  0  0  0  0
    4.5580   -0.1780   -1.2050 O   0  0  0  0  0  0  0  0  0  0  0  0
    5.1820    0.0240   -0.0670 O   0  0  0  0  0  0  0  0  0  0  0  0
    5.5200    1.2950    0.0840 O   0  0  0  0  0  0  0  0  0  0  0  0
    0.6940   -1.3670   -1.5170 C   0  0  0  0  0  0  0  0  0  0  0  0
    1.4270   -2.3380   -1.9040 O   0  0  0  0  0  0  0  0  0  0  0  0
   -0.4350   -1.1240   -2.2630 O   0  0  0  0  0  0  0  0  0  0  0  0
   -1.4500   -0.3290   -1.6900 C   0  0  0  0  0  0  0  0  0  0  0  0
   -2.6390   -0.3470   -2.3620 O   0  0  0  0  0  0  0  0  0  0  0  0
   -3.6210   -0.8040   -1.5910 O   0  0  0  0  0  0  0  0  0  0  0  0
  1  2  2  0
  2  3  1  0
  2 21  1  0
  3  4  1  0
  4  5  1  0
  5  6  2  0
  5  7  1  0
  7  8  1  0
  8  9  1  0
  9 10  1  0
 10 11  1  6
 10 16  1  0
 11 12  1  0
 12 13  1  0
 13 14  1  0
 14 15  1  0
 16 17  2  0
 16 18  1  0
 18 19  1  0
 19 20  1  0
 20 21  1  0
M  END
