
     RDKit          3D

 21 22  0  0  0  0  0  0  0  0999 V2000
   -4.5030    3.0420   -1.5870 O   0  0  0  0  0  0  0  0  0  0  0  0
   -4.5000    2.0820   -0.7480 C   0  0  0  0  0  0  0  0  0  0  0  0
   -4.8550    0.7540   -1.0180 O   0  0  0  0  0  0  0  0  0  0  0  0
   -4.3500   -0.0880   -0.0180 C   0  0  0  0  0  0  0  0  0  0  0  0
   -3.5830    0.8500    0.8980 C   0  0  1  0  0  0  0  0  0  0  0  0
   -2.2310    0.8170    0.5300 O   0  0  0  0  0  0  0  0  0  0  0  0
   -1.5090    0.4710    1.5510 O   0  0  0  0  0  0  0  0  0  0  0  0
   -0.3920   -0.1190    1.2740 O   0  0  0  0  0  0  0  0  0  0  0  0
   -0.1990   -0.3890   -0.0800 C   0  0  2  0  0  0  0  0  0  0  0  0
   -0.0220   -1.9070   -0.1800 C   0  0  0  0  0  0  0  0  0  0  0  0
    1.0080   -2.2290    0.7680 O   0  0  0  0  0  0  0  0  0  0  0  0
    2.2990   -1.7010    0.7290 C   0  0  0  0  0  0  0  0  0  0  0  0
    3.0000   -1.8370    1.7900 O   0  0  0  0  0  0  0  0  0  0  0  0
    2.9650   -0.9960   -0.3950 C   0  0  2  0  0  0  0  0  0  0  0  0
    3.8230   -0.0170    0.0880 O   0  0  0  0  0  0  0  0  0  0  0  0
    5.0530   -0.1490   -0.3210 O   0  0  0  0  0  0  0  0  0  0  0  0
    5.3110    0.7630   -1.2240 O   0  0  0  0  0  0  0  0  0  0  0  0
    5.5720    1.9210   -0.6770 O   0  0  0  0  0  0  0  0  0  0  0  0
    1.9530   -0.4530   -1.1970 O   0  0  0  0  0  0  0  0  0  0  0  0
    1.0680    0.3220   -0.4940 C   0  0  0  0  0  0  0  0  0  0  0  0
   -4.1570    2.1050    0.5950 O   0  0  0  0  0  0  0  0  0  0  0  0
  1  2  2  0
  2  3  1  0
  2 21  1  0
  3  4  1  0
  4  5  1  0
  5  6  1  6
  5 21  1  0
  6  7  1  0
  7  8  1  0
  9  8  1  1
  9 10  1  0
  9 20  1  0
 10 11  1  0
 11 12  1  0
 12 13  2  0
 12 14  1  0
 14 15  1  1
 14 19  1  0
 15 16  1  0
 16 17  1  0
 17 18  1  0
 19 20  1  0
M  END
