
     RDKit          3D

 20 21  0  0  0  0  0  0  0  0999 V2000
    4.5220    0.0270   -2.2750 N   0  0  0  0  0  0  0  0  0  0  0  0
    3.4860   -0.8850   -2.5910 C   0  0  0  0  0  0  0  0  0  0  0  0
    3.6740   -1.6140   -3.6130 O   0  0  0  0  0  0  0  0  0  0  0  0
    2.2840   -0.9860   -1.7990 C   0  0  0  0  0  0  0  0  0  0  0  0
    2.1550   -0.1880   -0.7370 C   0  0  0  0  0  0  0  0  0  0  0  0
    0.9840   -0.2430    0.0860 N   0  0  0  0  0  0  0  0  0  0  0  0
    0.6100    0.9170    0.9110 C   0  0  2  0  0  0  0  0  0  0  0  0
   -0.2520    0.4210    2.0070 C   0  0  0  0  0  0  0  0  0  0  0  0
   -1.6220    0.2410    1.5880 N   0  0  0  0  0  0  0  0  0  0  0  0
   -1.9520    0.4920    0.2360 C   0  0  0  0  0  0  0  0  0  0  0  0
   -2.7700   -0.2680   -0.4270 C   0  0  0  0  0  0  0  0  0  0  0  0
   -3.4140   -1.4440    0.1700 C   0  0  0  0  0  0  0  0  0  0  0  0
   -4.8080   -1.1980    0.0830 O   0  0  0  0  0  0  0  0  0  0  0  0
   -5.4970   -2.1900    0.5890 O   0  0  0  0  0  0  0  0  0  0  0  0
   -1.3380    1.6240   -0.3510 O   0  0  0  0  0  0  0  0  0  0  0  0
   -0.0230    1.9610    0.0430 C   0  0  0  0  0  0  0  0  0  0  0  0
    1.8590    1.4710    1.4930 C   0  0  0  0  0  0  0  0  0  0  0  0
    1.8960    1.8880    2.6870 O   0  0  0  0  0  0  0  0  0  0  0  0
    2.9850    1.5220    0.6980 O   0  0  0  0  0  0  0  0  0  0  0  0
    3.1300    0.7200   -0.3800 O   0  0  0  0  0  0  0  0  0  0  0  0
  1  2  1  0
  2  3  2  0
  2  4  1  0
  4  5  2  3
  5  6  1  0
  5 20  1  0
  6  7  1  0
  7  8  1  1
  7 16  1  0
  7 17  1  0
  8  9  1  0
  9 10  1  0
 10 11  2  3
 10 15  1  0
 11 12  1  0
 12 13  1  0
 13 14  1  0
 15 16  1  0
 17 18  2  0
 17 19  1  0
 19 20  1  0
M  END
