
     RDKit          3D

 19 20  0  0  0  0  0  0  0  0999 V2000
   -1.8340    1.2280    0.5790 C   0  0  0  0  0  0  0  0  0  0  0  0
   -1.4740    0.2160   -0.4860 C   0  0  1  0  0  0  0  0  0  0  0  0
   -0.1660    0.5520   -1.1090 C   0  0  0  0  0  0  0  0  0  0  0  0
    0.7710    0.2120   -0.0260 N   0  0  0  0  0  0  0  0  0  0  0  0
    2.1100    0.6790    0.0200 C   0  0  0  0  0  0  0  0  0  0  0  0
    2.5890    1.4160   -0.8620 O   0  0  0  0  0  0  0  0  0  0  0  0
    2.9060    0.3080    1.0690 O   0  0  0  0  0  0  0  0  0  0  0  0
    4.1950    0.6720    1.2480 O   0  0  0  0  0  0  0  0  0  0  0  0
    5.1580    0.5090    0.2750 C   0  0  0  0  0  0  0  0  0  0  0  0
    4.8110    0.0000   -0.8210 O   0  0  0  0  0  0  0  0  0  0  0  0
    6.4750    0.8940    0.4900 O   0  0  0  0  0  0  0  0  0  0  0  0
    0.1140   -0.6540    0.9540 C   0  0  0  0  0  0  0  0  0  0  0  0
   -1.0920   -1.1020    0.2140 C   0  0  1  0  0  0  0  0  0  0  0  0
   -2.2080   -1.5270    0.9690 N   0  0  0  0  0  0  0  0  0  0  0  0
   -3.4770   -1.5830    0.3290 C   0  0  0  0  0  0  0  0  0  0  0  0
   -4.4410   -2.2560    0.7690 O   0  0  0  0  0  0  0  0  0  0  0  0
   -3.6790   -0.8330   -0.8890 N   0  0  0  0  0  0  0  0  0  0  0  0
   -2.5820   -0.0750   -1.3800 C   0  0  0  0  0  0  0  0  0  0  0  0
   -2.5880    0.3260   -2.5610 O   0  0  0  0  0  0  0  0  0  0  0  0
  2  1  1  1
  2  3  1  0
  2 13  1  0
  2 18  1  0
  3  4  1  0
  4  5  1  0
  4 12  1  0
  5  6  2  0
  5  7  1  0
  7  8  1  0
  8  9  1  0
  9 10  2  0
  9 11  1  0
 13 12  1  1
 13 14  1  0
 14 15  1  0
 15 16  2  0
 15 17  1  0
 17 18  1  0
 18 19  2  0
M  END
