
     RDKit          3D

 20 21  0  0  0  0  0  0  0  0999 V2000
   -0.6580    2.2590    1.5460 O   0  0  0  0  0  0  0  0  0  0  0  0
   -0.6300    1.1140    2.0510 C   0  0  0  0  0  0  0  0  0  0  0  0
   -0.9500   -0.0830    1.3610 N   0  0  0  0  0  0  0  0  0  0  0  0
   -1.3470    0.0130   -0.0530 C   0  0  2  0  0  0  0  0  0  0  0  0
   -2.5700    0.8680   -0.0970 C   0  0  0  0  0  0  0  0  0  0  0  0
   -3.7570    0.2130   -0.3810 O   0  0  0  0  0  0  0  0  0  0  0  0
   -3.8720   -1.0770   -0.8630 C   0  0  0  0  0  0  0  0  0  0  0  0
   -4.9610   -1.5920   -1.2280 O   0  0  0  0  0  0  0  0  0  0  0  0
   -2.6790   -1.8760   -0.9520 C   0  0  0  0  0  0  0  0  0  0  0  0
   -1.5260   -1.3440   -0.5700 C   0  0  0  0  0  0  0  0  0  0  0  0
   -0.3440   -2.1580   -0.6680 N   0  0  0  0  0  0  0  0  0  0  0  0
    0.9440   -1.5760   -0.8110 C   0  0  0  0  0  0  0  0  0  0  0  0
    1.9580   -2.3070   -0.8940 O   0  0  0  0  0  0  0  0  0  0  0  0
    1.0050   -0.1470   -0.8530 N   0  0  0  0  0  0  0  0  0  0  0  0
    2.2800    0.5310   -0.9990 C   0  0  0  0  0  0  0  0  0  0  0  0
    2.8970    0.8190    0.3530 C   0  0  0  0  0  0  0  0  0  0  0  0
    4.1220    1.4700    0.2250 O   0  0  0  0  0  0  0  0  0  0  0  0
    4.5710    1.6730    1.4490 O   0  0  0  0  0  0  0  0  0  0  0  0
   -0.1900    0.6320   -0.7530 C   0  0  0  0  0  0  0  0  0  0  0  0
   -0.2630    1.7710   -1.2260 O   0  0  0  0  0  0  0  0  0  0  0  0
  1  2  2  0
  2  3  1  0
  4  3  1  1
  4  5  1  0
  4 10  1  0
  4 19  1  0
  5  6  1  0
  6  7  1  0
  7  8  2  0
  7  9  1  0
  9 10  2  0
 10 11  1  0
 11 12  1  0
 12 13  2  0
 12 14  1  0
 14 15  1  0
 14 19  1  0
 15 16  1  0
 16 17  1  0
 17 18  1  0
 19 20  2  0
M  END
