
     RDKit          3D

 27 29  0  0  0  0  0  0  0  0999 V2000
    6.2850    2.4090    0.7890 N   0  0  0  0  0  0  0  0  0  0  0  0
    4.9500    2.2810    0.3320 C   0  0  0  0  0  0  0  0  0  0  0  0
    4.1310    3.3050    0.1150 N   0  0  0  0  0  0  0  0  0  0  0  0
    2.8650    3.1050   -0.3230 C   0  0  0  0  0  0  0  0  0  0  0  0
    2.3770    1.8720   -0.5580 N   0  0  0  0  0  0  0  0  0  0  0  0
    3.1610    0.8010   -0.3560 C   0  0  0  0  0  0  0  0  0  0  0  0
    4.4570    1.0050    0.0920 C   0  0  0  0  0  0  0  0  0  0  0  0
    4.9950   -0.2160    0.2030 N   0  0  0  0  0  0  0  0  0  0  0  0
    4.0990   -1.1480   -0.1530 C   0  0  0  0  0  0  0  0  0  0  0  0
    2.9580   -0.5250   -0.5010 N   0  0  0  0  0  0  0  0  0  0  0  0
    1.7840   -1.2120   -0.9360 C   0  0  2  0  0  0  0  0  0  0  0  0
    0.6950   -0.4010   -1.1350 O   0  0  0  0  0  0  0  0  0  0  0  0
   -0.4440   -1.1950   -1.0450 C   0  0  2  0  0  0  0  0  0  0  0  0
   -1.5540   -0.4980   -0.2940 C   0  0  0  0  0  0  0  0  0  0  0  0
   -2.6200   -1.3990   -0.2800 O   0  0  0  0  0  0  0  0  0  0  0  0
   -3.9020   -0.9640    0.4230 P   0  0  0  0  0  0  0  0  0  0  0  0
   -3.0510   -0.6940    1.8330 O   0  0  0  0  0  0  0  0  0  0  0  0
   -4.5790   -2.4640    0.2190 O   0  0  0  0  0  0  0  0  0  0  0  0
   -4.1890    0.1960   -0.6630 O   0  0  0  0  0  0  0  0  0  0  0  0
   -4.1820    1.7090   -0.1080 P   0  0  0  0  0  0  0  0  0  0  0  0
   -5.3090    2.8380   -0.7590 O   0  0  0  0  0  0  0  0  0  0  0  0
   -3.0350    2.3240    0.8670 O   0  0  0  0  0  0  0  0  0  0  0  0
   -5.1910    1.4200    0.9970 O   0  0  0  0  0  0  0  0  0  0  0  0
   -0.0770   -2.4270   -0.2570 C   0  0  1  0  0  0  0  0  0  0  0  0
    0.0050   -3.4970   -1.1460 O   0  0  0  0  0  0  0  0  0  0  0  0
    1.3000   -2.0560    0.2530 C   0  0  1  0  0  0  0  0  0  0  0  0
    2.1110   -3.1460    0.4690 O   0  0  0  0  0  0  0  0  0  0  0  0
  1  2  1  0
  2  3  2  0
  2  7  1  0
  3  4  1  0
  4  5  2  0
  5  6  1  0
  6  7  2  0
  6 10  1  0
  7  8  1  0
  8  9  2  0
  9 10  1  0
 11 10  1  1
 11 12  1  0
 11 26  1  0
 12 13  1  0
 13 14  1  1
 13 24  1  0
 14 15  1  0
 15 16  1  0
 16 17  1  0
 16 18  1  0
 16 19  1  0
 19 20  1  0
 20 21  1  0
 20 22  1  0
 20 23  1  0
 24 25  1  6
 24 26  1  0
 26 27  1  6
M  END
