
     RDKit          3D

 21 22  0  0  0  0  0  0  0  0999 V2000
    6.1770    1.4640   -0.1000 O   0  0  0  0  0  0  0  0  0  0  0  0
    4.7760    1.8710   -0.6840 P   0  0  0  0  0  0  0  0  0  0  0  0
    3.3910    1.1490    0.1170 O   0  0  0  0  0  0  0  0  0  0  0  0
    3.7400   -0.1670    0.4150 C   0  0  0  0  0  0  0  0  0  0  0  0
    2.6030   -0.8800    1.1120 C   0  0  0  0  0  0  0  0  0  0  0  0
    1.4110   -0.9310    0.3210 N   0  0  0  0  0  0  0  0  0  0  0  0
    1.1470   -2.0040   -0.5740 C   0  0  0  0  0  0  0  0  0  0  0  0
    1.9720   -2.9720   -0.7050 O   0  0  0  0  0  0  0  0  0  0  0  0
   -0.0370   -1.9670   -1.3000 O   0  0  0  0  0  0  0  0  0  0  0  0
   -0.9710   -0.9570   -1.2100 C   0  0  0  0  0  0  0  0  0  0  0  0
   -1.8510   -0.7420   -2.0770 O   0  0  0  0  0  0  0  0  0  0  0  0
   -0.9380   -0.0710   -0.0190 C   0  0  2  0  0  0  0  0  0  0  0  0
   -1.7590   -0.7610    1.0720 C   0  0  0  0  0  0  0  0  0  0  0  0
   -3.0620   -0.4230    0.6430 O   0  0  0  0  0  0  0  0  0  0  0  0
   -2.9310    0.9390    0.3960 C   0  0  2  0  0  0  0  0  0  0  0  0
   -4.0370    1.4190   -0.4970 C   0  0  0  0  0  0  0  0  0  0  0  0
   -3.7960    1.9390   -1.6170 O   0  0  0  0  0  0  0  0  0  0  0  0
   -5.3680    1.3100   -0.1290 O   0  0  0  0  0  0  0  0  0  0  0  0
   -1.6440    1.1540   -0.1930 N   0  0  0  0  0  0  0  0  0  0  0  0
    0.4630    0.1220    0.4310 C   0  0  0  0  0  0  0  0  0  0  0  0
    0.8250    1.2230    0.9170 O   0  0  0  0  0  0  0  0  0  0  0  0
  1  2  2  0
  2  3  1  0
  3  4  1  0
  4  5  1  0
  5  6  1  0
  6  7  1  0
  6 20  1  0
  7  8  2  0
  7  9  1  0
  9 10  1  0
 10 11  2  0
 10 12  1  0
 12 13  1  1
 12 19  1  0
 12 20  1  0
 13 14  1  0
 14 15  1  0
 15 16  1  6
 15 19  1  0
 16 17  2  0
 16 18  1  0
 20 21  2  0
M  END
