
     RDKit          3D

 20 21  0  0  0  0  0  0  0  0999 V2000
   -5.4320    2.2300   -0.6120 O   0  0  0  0  0  0  0  0  0  0  0  0
   -4.7900    1.2340   -0.1880 C   0  0  0  0  0  0  0  0  0  0  0  0
   -3.5560    0.6350   -0.7850 C   0  0  0  0  0  0  0  0  0  0  0  0
   -3.1970   -0.4400    0.1810 C   0  0  2  0  0  0  0  0  0  0  0  0
   -4.3130   -0.5740    1.1540 C   0  0  0  0  0  0  0  0  0  0  0  0
   -5.1660    0.5280    0.9450 O   0  0  0  0  0  0  0  0  0  0  0  0
   -1.9710   -0.1030    0.7950 O   0  0  0  0  0  0  0  0  0  0  0  0
   -1.0770   -0.4240   -0.2240 C   0  0  1  0  0  0  0  0  0  0  0  0
    0.3300   -0.3350    0.2090 C   0  0  0  0  0  0  0  0  0  0  0  0
    1.0630   -1.3310    0.2830 O   0  0  0  0  0  0  0  0  0  0  0  0
    0.9100    0.9290    0.5670 N   0  0  0  0  0  0  0  0  0  0  0  0
    2.2630    1.0700    0.9910 C   0  0  0  0  0  0  0  0  0  0  0  0
    3.2650    0.6120   -0.0430 C   0  0  0  0  0  0  0  0  0  0  0  0
    4.5360    0.8070    0.5050 O   0  0  0  0  0  0  0  0  0  0  0  0
    5.7820    0.3160   -0.5950 P   0  0  0  0  0  0  0  0  0  0  0  0
    7.2450   -0.0450    0.2980 O   0  0  0  0  0  0  0  0  0  0  0  0
    5.3250   -1.1570   -1.4170 O   0  0  0  0  0  0  0  0  0  0  0  0
   -1.4680   -1.7850   -0.5400 N   0  0  0  0  0  0  0  0  0  0  0  0
   -2.8970   -1.7490   -0.4950 C   0  0  0  0  0  0  0  0  0  0  0  0
   -3.6920   -2.6130   -0.9210 O   0  0  0  0  0  0  0  0  0  0  0  0
  1  2  2  0
  2  3  1  0
  2  6  1  0
  4  3  1  6
  4  5  1  0
  4  7  1  0
  4 19  1  0
  5  6  1  0
  7  8  1  0
  8  9  1  1
  8 18  1  0
  9 10  2  0
  9 11  1  0
 11 12  1  0
 12 13  1  0
 13 14  1  0
 14 15  1  0
 15 16  1  0
 15 17  1  0
 18 19  1  0
 19 20  2  0
M  END
