
     RDKit          3D

 21 21  0  0  0  0  0  0  0  0999 V2000
   -0.8440   -1.6860   -0.2050 O   0  0  0  0  0  0  0  0  0  0  0  0
   -1.2020   -0.7920   -0.9800 C   0  0  0  0  0  0  0  0  0  0  0  0
   -2.4720   -0.7760   -1.6040 N   0  0  0  0  0  0  0  0  0  0  0  0
   -3.4420   -1.7970   -1.3800 C   0  0  0  0  0  0  0  0  0  0  0  0
   -3.8300   -1.8710    0.0600 C   0  0  0  0  0  0  0  0  0  0  0  0
   -4.3670   -0.6280    0.4180 O   0  0  0  0  0  0  0  0  0  0  0  0
   -4.8500   -0.6280    2.0960 P   0  0  0  0  0  0  0  0  0  0  0  0
   -6.3400   -1.5120    2.2130 O   0  0  0  0  0  0  0  0  0  0  0  0
   -3.6000   -1.4130    3.0060 O   0  0  0  0  0  0  0  0  0  0  0  0
   -0.2870    0.2620   -1.2480 N   0  0  0  0  0  0  0  0  0  0  0  0
    1.0150    0.3170   -0.6560 C   0  0  2  0  0  0  0  0  0  0  0  0
    1.2120    1.5290    0.2240 C   0  0  0  0  0  0  0  0  0  0  0  0
    1.9690    1.2110    1.3430 O   0  0  0  0  0  0  0  0  0  0  0  0
    3.1740    0.6130    1.0390 C   0  0  0  0  0  0  0  0  0  0  0  0
    3.9190    1.3260   -0.0680 C   0  0  1  0  0  0  0  0  0  0  0  0
    4.0710    2.6720    0.2730 O   0  0  0  0  0  0  0  0  0  0  0  0
    5.1990    0.7770   -0.1220 O   0  0  0  0  0  0  0  0  0  0  0  0
    5.7420    0.9960    1.0700 O   0  0  0  0  0  0  0  0  0  0  0  0
    3.2320    1.1580   -1.3770 C   0  0  0  0  0  0  0  0  0  0  0  0
    3.6320    1.8790   -2.2600 O   0  0  0  0  0  0  0  0  0  0  0  0
    2.1220    0.2090   -1.7050 C   0  0  0  0  0  0  0  0  0  0  0  0
  1  2  2  0
  2  3  1  0
  2 10  1  0
  3  4  1  0
  4  5  1  0
  5  6  1  0
  6  7  1  0
  7  8  1  0
  7  9  1  0
 11 10  1  6
 11 12  1  0
 11 21  1  0
 12 13  1  0
 13 14  1  0
 14 15  1  0
 15 16  1  1
 15 17  1  0
 15 19  1  0
 17 18  1  0
 19 20  2  0
 19 21  1  0
M  END
