
     RDKit          3D

 21 22  0  0  0  0  0  0  0  0999 V2000
    1.5360    0.6450   -1.1200 O   0  0  0  0  0  0  0  0  0  0  0  0
    0.7890   -0.1100   -0.4560 C   0  0  0  0  0  0  0  0  0  0  0  0
    1.3310   -1.2430    0.0710 O   0  0  0  0  0  0  0  0  0  0  0  0
    2.6170   -1.7320    0.0100 C   0  0  0  0  0  0  0  0  0  0  0  0
    3.6930   -0.9070    0.6220 C   0  0  0  0  0  0  0  0  0  0  0  0
    3.7900    0.3270    0.0410 O   0  0  0  0  0  0  0  0  0  0  0  0
    5.0230    1.3130    0.7200 P   0  0  0  0  0  0  0  0  0  0  0  0
    6.2760    0.3670    1.4500 O   0  0  0  0  0  0  0  0  0  0  0  0
    5.6460    2.4780   -0.3820 O   0  0  0  0  0  0  0  0  0  0  0  0
   -0.5730    0.2700   -0.3000 N   0  0  0  0  0  0  0  0  0  0  0  0
   -1.0330    1.4980   -0.9080 C   0  0  0  0  0  0  0  0  0  0  0  0
   -2.3720    1.1960   -1.5530 C   0  0  0  0  0  0  0  0  0  0  0  0
   -3.2980    0.7970   -0.4680 C   0  0  1  0  0  0  0  0  0  0  0  0
   -4.6190    0.7040   -0.8090 O   0  0  0  0  0  0  0  0  0  0  0  0
   -5.4180    0.6730    0.1940 O   0  0  0  0  0  0  0  0  0  0  0  0
   -4.9730   -0.0240    1.2580 N   0  0  0  0  0  0  0  0  0  0  0  0
   -3.7840   -0.7710    1.2370 C   0  0  0  0  0  0  0  0  0  0  0  0
   -3.5180   -1.5850    2.1260 O   0  0  0  0  0  0  0  0  0  0  0  0
   -2.8700   -0.5410    0.1090 C   0  0  1  0  0  0  0  0  0  0  0  0
   -3.2010   -1.5030   -0.8750 O   0  0  0  0  0  0  0  0  0  0  0  0
   -1.4310   -0.6010    0.4650 C   0  0  0  0  0  0  0  0  0  0  0  0
  1  2  2  0
  2  3  1  0
  2 10  1  0
  3  4  1  0
  4  5  1  0
  5  6  1  0
  6  7  1  0
  7  8  1  0
  7  9  1  0
 10 11  1  0
 10 21  1  0
 11 12  1  0
 13 12  1  6
 13 14  1  0
 13 19  1  0
 14 15  1  0
 15 16  1  0
 16 17  1  0
 17 18  2  0
 17 19  1  0
 19 20  1  6
 19 21  1  0
M  END
