
     RDKit          3D

 20 21  0  0  0  0  0  0  0  0999 V2000
   -0.3700   -0.3340   -1.2660 O   0  0  0  0  0  0  0  0  0  0  0  0
   -1.4830   -0.3590   -0.7290 C   0  0  0  0  0  0  0  0  0  0  0  0
   -2.7100   -0.4180   -1.4910 N   0  0  0  0  0  0  0  0  0  0  0  0
   -3.8950   -0.6010   -0.6820 C   0  0  0  0  0  0  0  0  0  0  0  0
   -3.5770   -1.6850    0.3260 C   0  0  2  0  0  0  0  0  0  0  0  0
   -4.6990   -2.1190    1.0160 O   0  0  0  0  0  0  0  0  0  0  0  0
   -2.5390   -1.2330    1.3100 C   0  0  0  0  0  0  0  0  0  0  0  0
   -1.5440   -0.3300    0.6970 N   0  0  0  0  0  0  0  0  0  0  0  0
   -0.7280    0.4790    1.5090 C   0  0  0  0  0  0  0  0  0  0  0  0
   -0.8980    0.3520    2.7590 O   0  0  0  0  0  0  0  0  0  0  0  0
    0.2610    1.4200    1.0470 C   0  0  0  0  0  0  0  0  0  0  0  0
    1.0280    2.1750    1.8390 C   0  0  0  0  0  0  0  0  0  0  0  0
    1.8650    2.9640    1.0680 O   0  0  0  0  0  0  0  0  0  0  0  0
    1.9420    2.3540   -0.2060 C   0  0  1  0  0  0  0  0  0  0  0  0
    3.0140    1.2890   -0.1220 C   0  0  0  0  0  0  0  0  0  0  0  0
    3.1600    0.6310   -1.3410 O   0  0  0  0  0  0  0  0  0  0  0  0
    4.3760   -0.5880   -1.2680 P   0  0  0  0  0  0  0  0  0  0  0  0
    5.9740    0.0820   -1.1620 O   0  0  0  0  0  0  0  0  0  0  0  0
    4.2940   -1.4980   -2.7570 O   0  0  0  0  0  0  0  0  0  0  0  0
    0.6410    1.7590   -0.2600 O   0  0  0  0  0  0  0  0  0  0  0  0
  1  2  2  0
  2  3  1  0
  2  8  1  0
  3  4  1  0
  4  5  1  0
  5  6  1  1
  5  7  1  0
  7  8  1  0
  8  9  1  0
  9 10  2  0
  9 11  1  0
 11 12  2  0
 11 20  1  0
 12 13  1  0
 13 14  1  0
 14 15  1  1
 14 20  1  0
 15 16  1  0
 16 17  1  0
 17 18  1  0
 17 19  1  0
M  END
