
     RDKit          3D

 20 20  0  0  0  0  0  0  0  0999 V2000
   -2.2220   -2.4120   -0.6820 N   0  0  0  0  0  0  0  0  0  0  0  0
   -2.5160   -1.2190    0.1090 C   0  0  2  0  0  0  0  0  0  0  0  0
   -3.4010   -0.2610   -0.6300 C   0  0  0  0  0  0  0  0  0  0  0  0
   -4.5310    0.0980    0.0990 O   0  0  0  0  0  0  0  0  0  0  0  0
   -4.1630    0.8910    1.5730 P   0  0  0  0  0  0  0  0  0  0  0  0
   -4.1610    2.6170    1.4150 O   0  0  0  0  0  0  0  0  0  0  0  0
   -2.6690    0.3690    2.2650 O   0  0  0  0  0  0  0  0  0  0  0  0
   -1.6580    0.7000    1.3400 C   0  0  0  0  0  0  0  0  0  0  0  0
   -1.2690   -0.6000    0.6660 C   0  0  1  0  0  0  0  0  0  0  0  0
   -0.7670   -1.4360    1.6370 O   0  0  0  0  0  0  0  0  0  0  0  0
   -0.2750   -0.2690   -0.3830 C   0  0  0  0  0  0  0  0  0  0  0  0
   -0.5690    0.4820   -1.3440 O   0  0  0  0  0  0  0  0  0  0  0  0
    1.0540   -0.8000   -0.3280 N   0  0  0  0  0  0  0  0  0  0  0  0
    2.0700   -0.5170   -1.3150 C   0  0  0  0  0  0  0  0  0  0  0  0
    2.4350    0.8960   -1.4860 C   0  0  0  0  0  0  0  0  0  0  0  0
    2.9770    1.6850   -0.3620 C   0  0  0  0  0  0  0  0  0  0  0  0
    4.1390    1.3640    0.2560 O   0  0  0  0  0  0  0  0  0  0  0  0
    4.4910    0.3290    1.0420 C   0  0  0  0  0  0  0  0  0  0  0  0
    3.6630   -0.5480    1.3290 O   0  0  0  0  0  0  0  0  0  0  0  0
    5.7770    0.1620    1.5820 O   0  0  0  0  0  0  0  0  0  0  0  0
  2  1  1  6
  2  3  1  0
  2  9  1  0
  3  4  1  0
  4  5  1  0
  5  6  1  0
  5  7  1  0
  7  8  1  0
  8  9  1  0
  9 10  1  1
  9 11  1  0
 11 12  2  0
 11 13  1  0
 13 14  1  0
 14 15  1  0
 15 16  1  0
 16 17  1  0
 17 18  1  0
 18 19  2  0
 18 20  1  0
M  END
