
     RDKit          3D

 10  9  0  0  0  0  0  0  0  0999 V2000
    0.8710   -1.0220    1.2260 N   0  0  0  0  0  0  0  0  0  0  0  0
    0.8370   -0.5520   -0.1000 C   0  0  0  0  0  0  0  0  0  0  0  0
    1.9670   -0.5230   -0.7600 C   0  0  0  0  0  0  0  0  0  0  0  0
    3.4090   -0.0090   -1.4170 P   0  0  0  0  0  0  0  0  0  0  0  0
    3.9250    1.6360   -1.0830 O   0  0  0  0  0  0  0  0  0  0  0  0
   -0.3970   -0.1130   -0.7020 C   0  0  0  0  0  0  0  0  0  0  0  0
   -0.3630    0.3380   -2.0110 O   0  0  0  0  0  0  0  0  0  0  0  0
   -1.5610   -0.1120   -0.0860 C   0  0  0  0  0  0  0  0  0  0  0  0
   -1.6280   -0.5580    1.2250 O   0  0  0  0  0  0  0  0  0  0  0  0
   -3.0840    0.4600   -0.9140 P   0  0  0  0  0  0  0  0  0  0  0  0
  1  2  1  0
  2  3  2  0
  2  6  1  0
  3  4  2  0
  4  5  1  0
  6  7  1  0
  6  8  2  3
  8  9  1  0
  8 10  1  0
M  END
