
     RDKit          3D

 10 10  0  0  0  0  0  0  0  0999 V2000
    2.6090   -0.0800   -0.5790 C   0  0  0  0  0  0  0  0  0  0  0  0
    1.3370    0.6640   -0.5440 N   0  0  0  0  0  0  0  0  0  0  0  0
    0.4540   -0.1450    0.2620 C   0  0  2  0  0  0  0  0  0  0  0  0
    0.9350   -0.2150    1.5740 O   0  0  0  0  0  0  0  0  0  0  0  0
    0.4730   -1.4270   -0.2970 O   0  0  0  0  0  0  0  0  0  0  0  0
   -0.7620   -1.9200   -0.2220 N   0  0  0  0  0  0  0  0  0  0  0  0
   -1.5880   -0.7770   -0.6450 C   0  0  0  0  0  0  0  0  0  0  0  0
   -0.9670    0.2970    0.2670 C   0  0  2  0  0  0  0  0  0  0  0  0
   -1.2260    1.6610   -0.2410 C   0  0  0  0  0  0  0  0  0  0  0  0
   -1.5040    0.0730    1.5380 O   0  0  0  0  0  0  0  0  0  0  0  0
  1  2  1  0
  2  3  1  0
  3  4  1  1
  3  5  1  0
  3  8  1  0
  5  6  1  0
  6  7  1  0
  7  8  1  0
  8  9  1  6
  8 10  1  0
M  END
