
     RDKit          3D

 25 27  0  0  0  0  0  0  0  0999 V2000
   -6.7970    2.2760    0.9910 C   0  0  0  0  0  0  0  0  0  0  0  0
   -6.4110    0.8460    0.7520 C   0  0  0  0  0  0  0  0  0  0  0  0
   -5.3500    0.7900   -0.1700 O   0  0  0  0  0  0  0  0  0  0  0  0
   -4.9920   -0.5600   -0.3740 C   0  0  2  0  0  0  0  0  0  0  0  0
   -3.5750   -0.6700    0.0320 C   0  0  0  0  0  0  0  0  0  0  0  0
   -2.6090   -0.9970   -0.7970 C   0  0  0  0  0  0  0  0  0  0  0  0
   -1.2660   -1.0700   -0.2890 N   0  0  0  0  0  0  0  0  0  0  0  0
   -0.2680   -0.1970   -0.8130 C   0  0  0  0  0  0  0  0  0  0  0  0
   -0.6540    0.6190   -1.7190 O   0  0  0  0  0  0  0  0  0  0  0  0
    1.1210   -0.2060   -0.3730 C   0  0  0  0  0  0  0  0  0  0  0  0
    1.6110   -1.2920    0.3130 C   0  0  0  0  0  0  0  0  0  0  0  0
    2.9260   -1.3610    0.7450 C   0  0  0  0  0  0  0  0  0  0  0  0
    3.7360   -0.2890    0.4580 C   0  0  0  0  0  0  0  0  0  0  0  0
    5.1070   -0.2270    0.8150 N   0  0  0  0  0  0  0  0  0  0  0  0
    6.1320    0.1280   -0.1680 C   0  0  0  0  0  0  0  0  0  0  0  0
    7.2130    0.9650    0.4010 C   0  0  0  0  0  0  0  0  0  0  0  0
    7.4270    0.8620    1.7510 O   0  0  0  0  0  0  0  0  0  0  0  0
    6.9470   -0.2660    2.3120 O   0  0  0  0  0  0  0  0  0  0  0  0
    5.5750   -0.5010    2.1220 C   0  0  0  0  0  0  0  0  0  0  0  0
    4.8010   -0.9190    3.0090 O   0  0  0  0  0  0  0  0  0  0  0  0
    3.2560    0.8220   -0.2360 C   0  0  0  0  0  0  0  0  0  0  0  0
    1.9500    0.8740   -0.6570 C   0  0  0  0  0  0  0  0  0  0  0  0
   -2.9280   -1.3040   -2.1740 C   0  0  0  0  0  0  0  0  0  0  0  0
   -4.1710   -1.2610   -2.6000 C   0  0  0  0  0  0  0  0  0  0  0  0
   -5.2120   -0.9180   -1.7300 O   0  0  0  0  0  0  0  0  0  0  0  0
  1  2  1  0
  2  3  1  0
  4  3  1  6
  4  5  1  0
  4 25  1  0
  5  6  2  0
  6  7  1  0
  6 23  1  0
  7  8  1  0
  8  9  2  0
  8 10  1  0
 10 11  2  0
 10 22  1  0
 11 12  1  0
 12 13  2  0
 13 14  1  0
 13 21  1  0
 14 15  1  0
 14 19  1  0
 15 16  1  0
 16 17  1  0
 17 18  1  0
 18 19  1  0
 19 20  2  0
 21 22  2  0
 23 24  2  0
 24 25  1  0
M  END
