
     RDKit          3D

 10  9  0  0  0  0  0  0  0  0999 V2000
   -2.4200   -0.9450    0.5250 C   0  0  0  0  0  0  0  0  0  0  0  0
   -1.7150    0.2890    0.6440 N   0  0  0  0  0  0  0  0  0  0  0  0
   -2.5230    1.3920    0.2390 C   0  0  0  0  0  0  0  0  0  0  0  0
   -0.4340    0.3060   -0.0280 C   0  0  0  0  0  0  0  0  0  0  0  0
    0.4600   -0.7110    0.4930 N   0  0  0  0  0  0  0  0  0  0  0  0
   -0.0420   -1.9610    0.3470 O   0  0  0  0  0  0  0  0  0  0  0  0
    1.9820   -0.6490   -0.4470 P   0  0  0  0  0  0  0  0  0  0  0  0
    2.8240   -2.1820   -0.3090 O   0  0  0  0  0  0  0  0  0  0  0  0
    3.1390    0.6530    0.1940 C   0  0  0  0  0  0  0  0  0  0  0  0
    2.8210    1.9130   -0.2940 O   0  0  0  0  0  0  0  0  0  0  0  0
  1  2  1  0
  2  3  1  0
  2  4  1  0
  4  5  1  0
  5  6  1  0
  5  7  1  0
  7  8  1  0
  7  9  1  0
  9 10  1  0
M  END
