
     RDKit          3D

 10  9  0  0  0  0  0  0  0  0999 V2000
   -3.0340   -2.0950    0.2990 C   0  0  0  0  0  0  0  0  0  0  0  0
   -1.8910   -1.3700    0.6760 O   0  0  0  0  0  0  0  0  0  0  0  0
   -2.0420    0.1910   -0.0690 P   0  0  0  0  0  0  0  0  0  0  0  0
   -0.6590    0.9290   -0.5990 C   0  0  0  0  0  0  0  0  0  0  0  0
    0.6410    0.2970   -0.4490 C   0  0  0  0  0  0  0  0  0  0  0  0
    0.7540   -0.8620    0.1040 N   0  0  0  0  0  0  0  0  0  0  0  0
    2.0050   -1.5340    0.2800 C   0  0  0  0  0  0  0  0  0  0  0  0
    3.0590   -0.6150   -0.1280 N   0  0  0  0  0  0  0  0  0  0  0  0
   -0.7570    2.1830   -1.2000 O   0  0  0  0  0  0  0  0  0  0  0  0
   -0.3320    3.2930   -0.4060 C   0  0  0  0  0  0  0  0  0  0  0  0
  1  2  1  0
  2  3  1  0
  3  4  2  3
  4  5  1  0
  4  9  1  0
  5  6  2  3
  6  7  1  0
  7  8  1  0
  9 10  1  0
M  END
