
     RDKit          3D

 10 11  0  0  0  0  0  0  0  0999 V2000
    1.8880    1.9600    0.1070 O   0  0  0  0  0  0  0  0  0  0  0  0
    1.5030    0.6460    0.0310 C   0  0  0  0  0  0  0  0  0  0  0  0
    2.2740   -0.4640   -0.1800 C   0  0  0  0  0  0  0  0  0  0  0  0
    1.4890   -1.5780   -0.1840 N   0  0  0  0  0  0  0  0  0  0  0  0
    0.2150   -1.2100    0.0220 C   0  0  0  0  0  0  0  0  0  0  0  0
   -1.0670   -1.8340    0.1320 N   0  0  0  0  0  0  0  0  0  0  0  0
   -2.1260   -0.6090    0.3920 P   0  0  0  0  0  0  0  0  0  0  0  0
   -3.8590   -0.4960    0.0370 O   0  0  0  0  0  0  0  0  0  0  0  0
   -1.0270    0.7340    0.3770 O   0  0  0  0  0  0  0  0  0  0  0  0
    0.1790    0.1760    0.1620 C   0  0  0  0  0  0  0  0  0  0  0  0
  1  2  1  0
  2  3  1  0
  2 10  2  0
  3  4  2  0
  4  5  1  0
  5  6  2  0
  5 10  1  0
  6  7  1  0
  7  8  1  0
  7  9  1  0
  9 10  1  0
M  END
