
     RDKit          3D

 17 17  0  0  0  0  0  0  0  0999 V2000
   -5.9090    1.4960   -1.5200 O   0  0  0  0  0  0  0  0  0  0  0  0
   -5.1590    0.7350   -0.8600 C   0  0  0  0  0  0  0  0  0  0  0  0
   -3.7860    0.9920   -0.7360 N   0  0  0  0  0  0  0  0  0  0  0  0
   -3.0240    0.3420    0.2920 C   0  0  2  0  0  0  0  0  0  0  0  0
   -1.6060    0.1850   -0.1760 C   0  0  0  0  0  0  0  0  0  0  0  0
   -1.2310    0.5890   -1.3080 O   0  0  0  0  0  0  0  0  0  0  0  0
   -0.6570   -0.4160    0.6350 O   0  0  0  0  0  0  0  0  0  0  0  0
    0.6210   -0.5860    0.2780 O   0  0  0  0  0  0  0  0  0  0  0  0
    1.2360    0.6590    0.3380 C   0  0  0  0  0  0  0  0  0  0  0  0
    2.5820    0.5940   -0.0180 O   0  0  0  0  0  0  0  0  0  0  0  0
    3.2930   -0.2620    0.8340 C   0  0  0  0  0  0  0  0  0  0  0  0
    4.7370   -0.2630    0.3650 C   0  0  0  0  0  0  0  0  0  0  0  0
    4.7930   -0.7240   -0.9630 O   0  0  0  0  0  0  0  0  0  0  0  0
    6.0540   -0.7080   -1.3230 O   0  0  0  0  0  0  0  0  0  0  0  0
   -3.6200   -1.0300    0.5110 C   0  0  0  0  0  0  0  0  0  0  0  0
   -4.9700   -0.9400    0.7710 O   0  0  0  0  0  0  0  0  0  0  0  0
   -5.6690   -0.3940   -0.2280 O   0  0  0  0  0  0  0  0  0  0  0  0
  1  2  2  0
  2  3  1  0
  2 17  1  0
  3  4  1  0
  4  5  1  6
  4 15  1  0
  5  6  2  0
  5  7  1  0
  7  8  1  0
  8  9  1  0
  9 10  1  0
 10 11  1  0
 11 12  1  0
 12 13  1  0
 13 14  1  0
 15 16  1  0
 16 17  1  0
M  END
