
     RDKit          3D

 18 18  0  0  0  0  0  0  0  0999 V2000
   -2.6960   -1.1920    1.1650 O   0  0  0  0  0  0  0  0  0  0  0  0
   -2.2350   -1.0280    0.0230 C   0  0  0  0  0  0  0  0  0  0  0  0
   -2.7670   -0.0430   -0.8430 N   0  0  0  0  0  0  0  0  0  0  0  0
   -3.8690    0.8220   -0.4540 C   0  0  0  0  0  0  0  0  0  0  0  0
   -3.5180    1.5730    0.6620 O   0  0  0  0  0  0  0  0  0  0  0  0
   -2.4720    2.3080    0.3780 O   0  0  0  0  0  0  0  0  0  0  0  0
   -1.1170   -1.8580   -0.4610 C   0  0  2  0  0  0  0  0  0  0  0  0
   -0.6870   -2.7820    0.4780 O   0  0  0  0  0  0  0  0  0  0  0  0
   -0.2460   -2.1270    1.5840 O   0  0  0  0  0  0  0  0  0  0  0  0
    0.3710   -0.9130    1.3500 C   0  0  0  0  0  0  0  0  0  0  0  0
    0.5450   -0.1090    2.2900 O   0  0  0  0  0  0  0  0  0  0  0  0
    0.7990   -0.6270   -0.0330 C   0  0  1  0  0  0  0  0  0  0  0  0
    2.0160   -1.2060   -0.3530 O   0  0  0  0  0  0  0  0  0  0  0  0
    2.9780   -0.2820   -0.7250 C   0  0  0  0  0  0  0  0  0  0  0  0
    3.3600    0.9520    0.5790 P   0  0  0  0  0  0  0  0  0  0  0  0
    3.3980    2.5750   -0.0090 O   0  0  0  0  0  0  0  0  0  0  0  0
    4.8000    0.5630    1.4490 O   0  0  0  0  0  0  0  0  0  0  0  0
   -0.1340   -1.0380   -0.9430 O   0  0  0  0  0  0  0  0  0  0  0  0
  1  2  2  0
  2  3  1  0
  7  2  1  1
  3  4  1  0
  4  5  1  0
  5  6  1  0
  7  8  1  0
  7 18  1  0
  8  9  1  0
  9 10  1  0
 10 11  2  0
 10 12  1  0
 12 13  1  6
 12 18  1  0
 13 14  1  0
 14 15  1  0
 15 16  1  0
 15 17  1  0
M  END
