
     RDKit          3D

 17 16  0  0  0  0  0  0  0  0999 V2000
    4.1580    0.0160    1.8960 O   0  0  0  0  0  0  0  0  0  0  0  0
    4.1240    1.2300    1.5850 C   0  0  0  0  0  0  0  0  0  0  0  0
    4.7740    2.1100    2.4550 O   0  0  0  0  0  0  0  0  0  0  0  0
    3.4720    1.6490    0.4410 O   0  0  0  0  0  0  0  0  0  0  0  0
    2.8430    0.7180   -0.3830 C   0  0  0  0  0  0  0  0  0  0  0  0
    1.8330    0.0160    0.3150 O   0  0  0  0  0  0  0  0  0  0  0  0
    1.2830   -0.8720   -0.5950 C   0  0  0  0  0  0  0  0  0  0  0  0
    0.1810   -1.7060   -0.0080 C   0  0  2  0  0  0  0  0  0  0  0  0
   -0.2820   -2.5530   -1.0280 O   0  0  0  0  0  0  0  0  0  0  0  0
   -0.1420   -3.8110   -0.6670 O   0  0  0  0  0  0  0  0  0  0  0  0
   -0.9770   -0.8790    0.4220 C   0  0  0  0  0  0  0  0  0  0  0  0
   -0.7780   -0.0470    1.3340 O   0  0  0  0  0  0  0  0  0  0  0  0
   -2.2630   -0.9970   -0.1500 N   0  0  0  0  0  0  0  0  0  0  0  0
   -3.4060   -0.2030    0.2500 C   0  0  0  0  0  0  0  0  0  0  0  0
   -3.1450    1.2760    0.0370 C   0  0  0  0  0  0  0  0  0  0  0  0
   -4.2230    2.0510    0.4110 O   0  0  0  0  0  0  0  0  0  0  0  0
   -3.9340    3.3130    0.2030 O   0  0  0  0  0  0  0  0  0  0  0  0
  1  2  2  0
  2  3  1  0
  2  4  1  0
  4  5  1  0
  5  6  1  0
  6  7  1  0
  8  7  1  6
  8  9  1  0
  8 11  1  0
  9 10  1  0
 11 12  2  0
 11 13  1  0
 13 14  1  0
 14 15  1  0
 15 16  1  0
 16 17  1  0
M  END
