
     RDKit          3D

 17 16  0  0  0  0  0  0  0  0999 V2000
   -0.8660    3.4900   -1.3600 O   0  0  0  0  0  0  0  0  0  0  0  0
    0.0570    3.4400   -0.5370 C   0  0  0  0  0  0  0  0  0  0  0  0
    0.5650    4.5580    0.0950 O   0  0  0  0  0  0  0  0  0  0  0  0
    0.6810    2.1530   -0.1360 N   0  0  0  0  0  0  0  0  0  0  0  0
    0.0790    1.0600   -0.6630 C   0  0  0  0  0  0  0  0  0  0  0  0
   -0.8100    1.0010   -1.5230 O   0  0  0  0  0  0  0  0  0  0  0  0
    0.5310   -0.3890   -0.1040 C   0  0  2  0  0  0  0  0  0  0  0  0
    1.7100   -0.6370   -0.8940 C   0  0  0  0  0  0  0  0  0  0  0  0
    2.9530   -0.4480   -0.2210 O   0  0  0  0  0  0  0  0  0  0  0  0
    3.6400   -1.5520    0.2400 C   0  0  0  0  0  0  0  0  0  0  0  0
    3.1730   -2.6950    0.0000 O   0  0  0  0  0  0  0  0  0  0  0  0
    4.7850   -1.4820    0.9400 O   0  0  0  0  0  0  0  0  0  0  0  0
   -0.6490   -1.0590   -0.5770 O   0  0  0  0  0  0  0  0  0  0  0  0
   -1.5180   -0.8660    0.4370 C   0  0  0  0  0  0  0  0  0  0  0  0
   -2.9320   -1.2140   -0.1000 C   0  0  0  0  0  0  0  0  0  0  0  0
   -3.7200   -0.9380    1.0390 O   0  0  0  0  0  0  0  0  0  0  0  0
   -4.3550   -1.8750    1.4710 O   0  0  0  0  0  0  0  0  0  0  0  0
  1  2  2  0
  2  3  1  0
  2  4  1  0
  4  5  1  0
  5  6  2  0
  5  7  1  0
  7  8  1  6
  7 13  1  0
  8  9  1  0
  9 10  1  0
 10 11  2  0
 10 12  1  0
 13 14  1  0
 14 15  1  0
 15 16  1  0
 16 17  1  0
M  END
