
     RDKit          3D

 17 16  0  0  0  0  0  0  0  0999 V2000
    1.6500   -0.9700   -0.5830 O   0  0  0  0  0  0  0  0  0  0  0  0
    1.2780   -0.4070    0.4630 C   0  0  0  0  0  0  0  0  0  0  0  0
    2.2850    0.0610    1.3570 N   0  0  0  0  0  0  0  0  0  0  0  0
    3.6780   -0.0940    1.0930 C   0  0  0  0  0  0  0  0  0  0  0  0
    4.1350    0.5770   -0.1770 C   0  0  0  0  0  0  0  0  0  0  0  0
    5.5230    0.3240   -0.2770 O   0  0  0  0  0  0  0  0  0  0  0  0
    6.0270    0.8710   -1.3630 O   0  0  0  0  0  0  0  0  0  0  0  0
   -0.0630   -0.2220    0.7820 O   0  0  0  0  0  0  0  0  0  0  0  0
   -1.0580   -0.6740   -0.0800 C   0  0  0  0  0  0  0  0  0  0  0  0
   -0.7180   -1.2380   -1.1290 O   0  0  0  0  0  0  0  0  0  0  0  0
   -2.4650   -0.4380    0.3330 C   0  0  2  0  0  0  0  0  0  0  0  0
   -2.6460   -1.1530    1.6690 C   0  0  0  0  0  0  0  0  0  0  0  0
   -1.7800   -0.6150    2.5960 O   0  0  0  0  0  0  0  0  0  0  0  0
   -3.3130   -0.9440   -0.6290 O   0  0  0  0  0  0  0  0  0  0  0  0
   -4.1940   -0.0230   -1.1370 C   0  0  0  0  0  0  0  0  0  0  0  0
   -3.5430    1.0610   -1.7430 O   0  0  0  0  0  0  0  0  0  0  0  0
   -4.4080    1.9260   -2.2190 O   0  0  0  0  0  0  0  0  0  0  0  0
  1  2  2  0
  2  3  1  0
  2  8  1  0
  3  4  1  0
  4  5  1  0
  5  6  1  0
  6  7  1  0
  8  9  1  0
  9 10  2  0
  9 11  1  0
 11 12  1  1
 11 14  1  0
 12 13  1  0
 14 15  1  0
 15 16  1  0
 16 17  1  0
M  END
