
     RDKit          3D

 17 17  0  0  0  0  0  0  0  0999 V2000
    0.9620    0.2300    0.8250 O   0  0  0  0  0  0  0  0  0  0  0  0
    1.1330    0.1430   -0.4090 C   0  0  0  0  0  0  0  0  0  0  0  0
    2.3220   -0.3670   -1.1030 C   0  0  0  0  0  0  0  0  0  0  0  0
    3.3440   -0.7240   -0.2640 O   0  0  0  0  0  0  0  0  0  0  0  0
    3.8260    0.3560    0.4380 C   0  0  0  0  0  0  0  0  0  0  0  0
    4.3070    1.3260   -0.4650 O   0  0  0  0  0  0  0  0  0  0  0  0
    5.2870    0.8130   -1.2040 O   0  0  0  0  0  0  0  0  0  0  0  0
    5.4430   -0.4820   -0.9200 O   0  0  0  0  0  0  0  0  0  0  0  0
    0.0600    0.5870   -1.2060 O   0  0  0  0  0  0  0  0  0  0  0  0
   -1.0400    1.0580   -0.6150 O   0  0  0  0  0  0  0  0  0  0  0  0
   -1.9960    0.0480   -0.6460 C   0  0  0  0  0  0  0  0  0  0  0  0
   -3.2600    0.5510    0.0180 C   0  0  2  0  0  0  0  0  0  0  0  0
   -2.9580    0.7480    1.4780 C   0  0  0  0  0  0  0  0  0  0  0  0
   -4.2240    0.5090    2.0770 O   0  0  0  0  0  0  0  0  0  0  0  0
   -4.8380   -0.5070    1.3210 C   0  0  0  0  0  0  0  0  0  0  0  0
   -5.7130   -1.2910    1.7750 O   0  0  0  0  0  0  0  0  0  0  0  0
   -4.2810   -0.4500    0.0150 N   0  0  0  0  0  0  0  0  0  0  0  0
  1  2  2  0
  2  3  1  0
  2  9  1  0
  3  4  1  0
  4  5  1  0
  5  6  1  0
  6  7  1  0
  7  8  1  0
  9 10  1  0
 10 11  1  0
 12 11  1  6
 12 13  1  0
 12 17  1  0
 13 14  1  0
 14 15  1  0
 15 16  2  0
 15 17  1  0
M  END
