
     RDKit          3D

 41 43  0  0  0  0  0  0  0  0999 V2000
   -7.7040    2.2380    1.6400 C   0  0  0  0  0  0  0  0  0  0  0  0
   -7.9510    0.7230    1.5770 C   0  0  0  0  0  0  0  0  0  0  0  0
   -6.6400    0.1710    1.6430 O   0  0  0  0  0  0  0  0  0  0  0  0
   -6.0840    0.4730   -0.0390 P   0  0  0  0  0  0  0  0  0  0  0  0
   -4.3590    1.2910    0.1580 C   0  0  0  0  0  0  0  0  0  0  0  0
   -3.4330    0.4050   -0.4900 N   0  0  0  0  0  0  0  0  0  0  0  0
   -3.4780    0.4130   -1.9620 C   0  0  0  0  0  0  0  0  0  0  0  0
   -2.5530   -0.4980    0.1250 C   0  0  0  0  0  0  0  0  0  0  0  0
   -2.7160   -1.7010    0.1930 O   0  0  0  0  0  0  0  0  0  0  0  0
   -1.2300    0.0560    0.7350 C   0  0  2  0  0  0  0  0  0  0  0  0
   -1.2410   -0.3780    2.1530 C   0  0  0  0  0  0  0  0  0  0  0  0
   -1.4560    1.5200    0.6300 C   0  0  0  0  0  0  0  0  0  0  0  0
   -0.2250    2.2510    0.2510 C   0  0  0  0  0  0  0  0  0  0  0  0
   -0.1180    3.3920    0.6490 O   0  0  0  0  0  0  0  0  0  0  0  0
    0.7980    1.6170   -0.5660 C   0  0  0  0  0  0  0  0  0  0  0  0
    1.1150    0.1890   -0.3310 C   0  0  1  0  0  0  0  0  0  0  0  0
    1.6040   -0.3100   -1.7060 C   0  0  0  0  0  0  0  0  0  0  0  0
    2.3870   -1.5660   -1.6630 C   0  0  0  0  0  0  0  0  0  0  0  0
    2.0750   -2.6780   -2.3090 C   0  0  0  0  0  0  0  0  0  0  0  0
    2.9510   -3.8380   -2.1840 C   0  0  0  0  0  0  0  0  0  0  0  0
    2.9670   -4.8610   -1.2840 C   0  0  0  0  0  0  0  0  0  0  0  0
    4.0000   -5.6600   -1.6530 C   0  0  0  0  0  0  0  0  0  0  0  0
    4.5960   -5.0550   -2.8260 C   0  0  0  0  0  0  0  0  0  0  0  0
    3.9340   -3.9790   -3.0840 O   0  0  0  0  0  0  0  0  0  0  0  0
    3.5000   -1.5310   -0.7450 N   0  0  0  0  0  0  0  0  0  0  0  0
    3.5090   -0.4440    0.2140 C   0  0  1  0  0  0  0  0  0  0  0  0
    4.6420    0.4350    0.0730 C   0  0  0  0  0  0  0  0  0  0  0  0
    5.8230   -0.1410    0.0600 O   0  0  0  0  0  0  0  0  0  0  0  0
    4.7560    1.8160   -0.0540 N   0  0  0  0  0  0  0  0  0  0  0  0
    6.0690    2.4950   -0.1110 C   0  0  0  0  0  0  0  0  0  0  0  0
    6.7720    2.3570    1.2120 C   0  0  0  0  0  0  0  0  0  0  0  0
    7.9920    2.9490    1.1700 O   0  0  0  0  0  0  0  0  0  0  0  0
    7.9670    4.2950    0.8560 C   0  0  0  0  0  0  0  0  0  0  0  0
    2.1930   -0.0450    0.6920 C   0  0  1  0  0  0  0  0  0  0  0  0
    2.2620    0.8670    1.8360 C   0  0  0  0  0  0  0  0  0  0  0  0
    2.2500    2.1110    1.8140 O   0  0  0  0  0  0  0  0  0  0  0  0
    2.3560    0.3910    3.1790 O   0  0  0  0  0  0  0  0  0  0  0  0
   -0.1670   -0.5610   -0.1250 C   0  0  0  0  0  0  0  0  0  0  0  0
   -5.8340   -1.0190   -0.8460 O   0  0  0  0  0  0  0  0  0  0  0  0
   -6.9770   -1.7870   -1.0200 C   0  0  0  0  0  0  0  0  0  0  0  0
   -6.6410   -3.0820   -0.2360 C   0  0  0  0  0  0  0  0  0  0  0  0
  1  2  1  0
  2  3  1  0
  3  4  1  0
  4  5  1  0
  4 39  1  0
  5  6  1  0
  6  7  1  0
  6  8  1  0
  8  9  2  0
  8 10  1  0
 10 11  1  1
 10 12  1  0
 10 38  1  0
 12 13  1  0
 13 14  2  0
 13 15  1  0
 16 15  1  6
 16 17  1  0
 16 34  1  0
 16 38  1  0
 17 18  1  0
 18 19  2  3
 18 25  1  0
 19 20  1  0
 20 21  2  0
 20 24  1  0
 21 22  1  0
 22 23  2  0
 23 24  1  0
 25 26  1  0
 26 27  1  6
 26 34  1  0
 27 28  2  0
 27 29  1  0
 29 30  1  0
 30 31  1  0
 31 32  1  0
 32 33  1  0
 34 35  1  6
 35 36  2  0
 35 37  1  0
 39 40  1  0
 40 41  1  0
M  END
