
     RDKit          3D

 42 44  0  0  0  0  0  0  0  0999 V2000
    3.7200    3.7660   -2.0040 C   0  0  0  0  0  0  0  0  0  0  0  0
    2.3300    3.8620   -1.4310 C   0  0  0  0  0  0  0  0  0  0  0  0
    1.3110    3.8320   -2.5530 C   0  0  0  0  0  0  0  0  0  0  0  0
   -0.1030    3.9290   -2.0010 C   0  0  0  0  0  0  0  0  0  0  0  0
   -0.3040    2.7880   -1.1340 N   0  0  0  0  0  0  0  0  0  0  0  0
   -0.2470    1.4440   -1.5280 C   0  0  0  0  0  0  0  0  0  0  0  0
   -0.0050    1.1760   -2.7310 O   0  0  0  0  0  0  0  0  0  0  0  0
   -0.4740    0.3740   -0.5100 C   0  0  2  0  0  0  0  0  0  0  0  0
    0.6530    0.5000    0.4820 C   0  0  0  0  0  0  0  0  0  0  0  0
    0.4590    0.7330    1.6750 O   0  0  0  0  0  0  0  0  0  0  0  0
    1.9550    0.3350   -0.0410 N   0  0  0  0  0  0  0  0  0  0  0  0
    3.1670    0.4040    0.6860 C   0  0  0  0  0  0  0  0  0  0  0  0
    4.3850    0.3010    0.0140 C   0  0  0  0  0  0  0  0  0  0  0  0
    5.5990    0.3560    0.6620 C   0  0  0  0  0  0  0  0  0  0  0  0
    5.6800    0.5170    2.0220 C   0  0  0  0  0  0  0  0  0  0  0  0
    7.2850    0.5950    2.9090 P   0  0  0  0  0  0  0  0  0  0  0  0
    8.7120    0.6260    1.7500 C   0  0  0  0  0  0  0  0  0  0  0  0
    7.3950   -0.7080    4.0340 O   0  0  0  0  0  0  0  0  0  0  0  0
    4.5020    0.6220    2.7190 C   0  0  0  0  0  0  0  0  0  0  0  0
    3.2700    0.5630    2.0410 C   0  0  0  0  0  0  0  0  0  0  0  0
   -0.3360   -1.0110   -1.0960 C   0  0  0  0  0  0  0  0  0  0  0  0
   -1.1830   -1.8910   -0.2130 C   0  0  0  0  0  0  0  0  0  0  0  0
   -0.4880   -2.7360    0.5090 C   0  0  0  0  0  0  0  0  0  0  0  0
   -1.1870   -3.6590    1.4190 C   0  0  1  0  0  0  0  0  0  0  0  0
   -0.8770   -5.0000    1.1740 O   0  0  0  0  0  0  0  0  0  0  0  0
    0.4730   -5.2720    1.2970 C   0  0  0  0  0  0  0  0  0  0  0  0
   -0.7830   -3.3190    2.7650 O   0  0  0  0  0  0  0  0  0  0  0  0
   -1.2560   -3.9950    3.8550 C   0  0  0  0  0  0  0  0  0  0  0  0
   -2.0750   -4.9520    3.6510 O   0  0  0  0  0  0  0  0  0  0  0  0
   -0.9210   -3.7290    5.1740 O   0  0  0  0  0  0  0  0  0  0  0  0
   -2.5730   -3.5450    1.4120 O   0  0  0  0  0  0  0  0  0  0  0  0
   -3.3430   -2.6370    0.6430 C   0  0  0  0  0  0  0  0  0  0  0  0
   -4.6470   -2.5870    0.7010 O   0  0  0  0  0  0  0  0  0  0  0  0
   -5.9260   -2.4960    0.7870 C   0  0  0  0  0  0  0  0  0  0  0  0
   -2.6390   -1.8410   -0.1430 C   0  0  0  0  0  0  0  0  0  0  0  0
   -3.5680   -0.9240   -0.9080 C   0  0  0  0  0  0  0  0  0  0  0  0
   -2.8830    0.4250   -0.9680 C   0  0  1  0  0  0  0  0  0  0  0  0
   -3.6760    1.5440   -0.9800 N   0  0  0  0  0  0  0  0  0  0  0  0
   -4.5600    2.0350   -1.8990 C   0  0  0  0  0  0  0  0  0  0  0  0
   -5.8610    1.4060   -2.2360 C   0  0  0  0  0  0  0  0  0  0  0  0
   -5.8430    0.0630   -2.8850 C   0  0  0  0  0  0  0  0  0  0  0  0
   -1.8000    0.4990    0.1380 C   0  0  0  0  0  0  0  0  0  0  0  0
  1  2  1  0
  2  3  1  0
  3  4  1  0
  4  5  1  0
  5  6  1  0
  6  7  2  0
  8  6  1  6
  8  9  1  0
  8 21  1  0
  8 42  1  0
  9 10  2  0
  9 11  1  0
 11 12  1  0
 12 13  2  0
 12 20  1  0
 13 14  1  0
 14 15  2  0
 15 16  1  0
 15 19  1  0
 16 17  1  0
 16 18  1  0
 19 20  2  0
 21 22  1  0
 22 23  2  0
 22 35  1  0
 23 24  1  0
 24 25  1  6
 24 27  1  0
 24 31  1  0
 25 26  1  0
 27 28  1  0
 28 29  2  0
 28 30  1  0
 31 32  1  0
 32 33  1  0
 32 35  2  0
 33 34  1  0
 35 36  1  0
 36 37  1  0
 37 38  1  1
 37 42  1  0
 38 39  1  0
 39 40  1  0
 40 41  1  0
M  END
