
     RDKit          3D

 42 44  0  0  0  0  0  0  0  0999 V2000
   -7.4740   -4.7320    0.9520 C   0  0  0  0  0  0  0  0  0  0  0  0
   -6.0930   -4.4490    1.2720 O   0  0  0  0  0  0  0  0  0  0  0  0
   -5.4220   -3.4530    0.5800 C   0  0  0  0  0  0  0  0  0  0  0  0
   -6.1280   -2.8720   -0.2890 O   0  0  0  0  0  0  0  0  0  0  0  0
   -4.0030   -3.0790    0.8130 C   0  0  1  0  0  0  0  0  0  0  0  0
   -3.4810   -3.8520    1.8940 O   0  0  0  0  0  0  0  0  0  0  0  0
   -3.2230   -3.5980   -0.3930 C   0  0  0  0  0  0  0  0  0  0  0  0
   -3.3450   -2.6770   -1.5550 C   0  0  0  0  0  0  0  0  0  0  0  0
   -3.7700   -1.3040   -1.2310 C   0  0  0  0  0  0  0  0  0  0  0  0
   -3.2920   -0.8070    0.0750 N   0  0  0  0  0  0  0  0  0  0  0  0
   -1.8910   -0.6940   -0.0880 C   0  0  0  0  0  0  0  0  0  0  0  0
   -1.1180    0.3420    0.6210 C   0  0  2  0  0  0  0  0  0  0  0  0
   -1.4230    1.7180    0.4490 N   0  0  0  0  0  0  0  0  0  0  0  0
   -2.8070    1.9780    0.8930 C   0  0  0  0  0  0  0  0  0  0  0  0
   -3.5950    2.3660   -0.3030 C   0  0  0  0  0  0  0  0  0  0  0  0
   -3.1240    3.7030   -0.8300 C   0  0  0  0  0  0  0  0  0  0  0  0
   -3.3850    4.8050    0.1820 C   0  0  0  0  0  0  0  0  0  0  0  0
   -2.8840    6.4790   -0.4460 P   0  0  0  0  0  0  0  0  0  0  0  0
   -1.9160    7.3150    0.7390 O   0  0  0  0  0  0  0  0  0  0  0  0
   -4.3170    7.4390   -0.7120 O   0  0  0  0  0  0  0  0  0  0  0  0
    0.2880    0.0980    0.1840 C   0  0  0  0  0  0  0  0  0  0  0  0
    0.9350   -1.1130    0.4560 C   0  0  0  0  0  0  0  0  0  0  0  0
    2.2650   -1.2690    0.1600 C   0  0  0  0  0  0  0  0  0  0  0  0
    2.9820   -2.5410    0.4770 C   0  0  0  0  0  0  0  0  0  0  0  0
    4.3950   -2.3450    0.1120 N   0  0  0  0  0  0  0  0  0  0  0  0
    5.2380   -1.5910    1.0050 C   0  0  0  0  0  0  0  0  0  0  0  0
    4.7020   -1.1880    2.0700 O   0  0  0  0  0  0  0  0  0  0  0  0
    6.6380   -1.2980    0.6970 C   0  0  0  0  0  0  0  0  0  0  0  0
    7.5440   -1.1080    1.7220 C   0  0  0  0  0  0  0  0  0  0  0  0
    8.8180   -0.7630    1.3640 C   0  0  0  0  0  0  0  0  0  0  0  0
    9.1680   -0.6160    0.0260 C   0  0  0  0  0  0  0  0  0  0  0  0
   10.4820   -0.2620   -0.2290 O   0  0  0  0  0  0  0  0  0  0  0  0
   10.8040    1.0930   -0.2010 C   0  0  0  0  0  0  0  0  0  0  0  0
    9.9490    1.9930    0.0490 O   0  0  0  0  0  0  0  0  0  0  0  0
    8.2440   -0.8140   -0.9700 C   0  0  0  0  0  0  0  0  0  0  0  0
    6.9690   -1.1580   -0.6340 C   0  0  0  0  0  0  0  0  0  0  0  0
    2.9900   -0.2560   -0.4060 C   0  0  0  0  0  0  0  0  0  0  0  0
    2.3800    0.9440   -0.6820 C   0  0  0  0  0  0  0  0  0  0  0  0
    1.0240    1.0990   -0.3780 C   0  0  0  0  0  0  0  0  0  0  0  0
    0.4730    2.3220   -0.6930 O   0  0  0  0  0  0  0  0  0  0  0  0
    1.0370    3.4320   -1.2730 C   0  0  0  0  0  0  0  0  0  0  0  0
   -3.7600   -1.6570    1.1360 C   0  0  0  0  0  0  0  0  0  0  0  0
  1  2  1  0
  2  3  1  0
  3  4  2  0
  3  5  1  0
  5  6  1  1
  5  7  1  0
  5 42  1  0
  7  8  1  0
  8  9  1  0
  9 10  1  0
 10 11  1  0
 10 42  1  0
 12 11  1  6
 12 13  1  0
 12 21  1  0
 13 14  1  0
 14 15  1  0
 15 16  1  0
 16 17  1  0
 17 18  1  0
 18 19  1  0
 18 20  1  0
 21 22  2  0
 21 39  1  0
 22 23  1  0
 23 24  1  0
 23 37  2  0
 24 25  1  0
 25 26  1  0
 26 27  2  0
 26 28  1  0
 28 29  2  0
 28 36  1  0
 29 30  1  0
 30 31  2  0
 31 32  1  0
 31 35  1  0
 32 33  1  0
 33 34  2  0
 35 36  2  0
 37 38  1  0
 38 39  2  0
 39 40  1  0
 40 41  1  0
M  END
