
     RDKit          3D

 41 43  0  0  0  0  0  0  0  0999 V2000
    9.9060   -1.3040   -0.3750 C   0  0  0  0  0  0  0  0  0  0  0  0
    8.6470   -1.3910    0.4930 C   0  0  1  0  0  0  0  0  0  0  0  0
    8.8510   -2.2590    1.5510 O   0  0  0  0  0  0  0  0  0  0  0  0
    8.2730   -0.0800    0.9260 O   0  0  0  0  0  0  0  0  0  0  0  0
    7.0520    0.4780    0.5650 C   0  0  0  0  0  0  0  0  0  0  0  0
    6.3150   -0.2270   -0.1500 O   0  0  0  0  0  0  0  0  0  0  0  0
    6.6220    1.8000    0.9710 C   0  0  0  0  0  0  0  0  0  0  0  0
    5.4480    2.2500    0.5810 C   0  0  0  0  0  0  0  0  0  0  0  0
    4.6570    1.4210   -0.2200 O   0  0  0  0  0  0  0  0  0  0  0  0
    3.7220    0.5580    0.3460 C   0  0  0  0  0  0  0  0  0  0  0  0
    3.6180    0.5640    1.5970 O   0  0  0  0  0  0  0  0  0  0  0  0
    2.9180   -0.2960   -0.4620 N   0  0  0  0  0  0  0  0  0  0  0  0
    1.9320   -1.1990    0.1270 C   0  0  0  0  0  0  0  0  0  0  0  0
    0.7640   -0.3480    0.4720 C   0  0  0  0  0  0  0  0  0  0  0  0
    0.8650    0.8480    1.0670 N   0  0  0  0  0  0  0  0  0  0  0  0
   -0.3530    1.3170    1.2010 N   0  0  0  0  0  0  0  0  0  0  0  0
   -1.2510    0.4270    0.6940 C   0  0  0  0  0  0  0  0  0  0  0  0
   -2.6790    0.7040    0.6410 C   0  0  0  0  0  0  0  0  0  0  0  0
   -3.1090    1.8950    1.0910 N   0  0  0  0  0  0  0  0  0  0  0  0
   -4.3900    2.2730    1.0770 C   0  0  0  0  0  0  0  0  0  0  0  0
   -4.8000    3.5120    1.5450 O   0  0  0  0  0  0  0  0  0  0  0  0
   -3.9470    4.4830    2.0870 C   0  0  0  0  0  0  0  0  0  0  0  0
   -3.2700    4.0100    3.2340 O   0  0  0  0  0  0  0  0  0  0  0  0
   -5.3010    1.3700    0.5670 C   0  0  0  0  0  0  0  0  0  0  0  0
   -4.9490    0.1250    0.0870 C   0  0  0  0  0  0  0  0  0  0  0  0
   -3.5880   -0.2060    0.1310 C   0  0  0  0  0  0  0  0  0  0  0  0
   -3.0930   -1.4980   -0.3180 C   0  0  0  0  0  0  0  0  0  0  0  0
   -2.3340   -2.0830    0.5450 O   0  0  0  0  0  0  0  0  0  0  0  0
   -3.3750   -2.1180   -1.5650 N   0  0  0  0  0  0  0  0  0  0  0  0
   -3.6390   -1.4490   -2.8000 C   0  0  0  0  0  0  0  0  0  0  0  0
   -4.2890   -2.3980   -3.7740 C   0  0  0  0  0  0  0  0  0  0  0  0
   -5.6170   -2.0660   -4.0160 O   0  0  0  0  0  0  0  0  0  0  0  0
   -6.4180   -2.9730   -3.4850 O   0  0  0  0  0  0  0  0  0  0  0  0
   -6.0210   -3.2690   -2.2580 O   0  0  0  0  0  0  0  0  0  0  0  0
   -6.8650   -2.7710   -1.3020 C   0  0  0  0  0  0  0  0  0  0  0  0
   -6.1670   -2.1190   -0.1250 C   0  0  0  0  0  0  0  0  0  0  0  0
   -5.9580   -0.7260   -0.3960 N   0  0  0  0  0  0  0  0  0  0  0  0
   -0.5290   -0.6160    0.2400 N   0  0  0  0  0  0  0  0  0  0  0  0
    4.9900    3.5740    0.9730 C   0  0  0  0  0  0  0  0  0  0  0  0
    3.8720    3.9780    0.5900 O   0  0  0  0  0  0  0  0  0  0  0  0
    5.7810    4.3790    1.7620 O   0  0  0  0  0  0  0  0  0  0  0  0
  2  1  1  1
  2  3  1  0
  2  4  1  0
  4  5  1  0
  5  6  2  0
  5  7  1  0
  7  8  2  3
  8  9  1  0
  8 39  1  0
  9 10  1  0
 10 11  2  0
 10 12  1  0
 12 13  1  0
 13 14  1  0
 14 15  2  0
 14 38  1  0
 15 16  1  0
 16 17  1  0
 17 18  1  0
 17 38  2  0
 18 19  2  0
 18 26  1  0
 19 20  1  0
 20 21  1  0
 20 24  2  0
 21 22  1  0
 22 23  1  0
 24 25  1  0
 25 26  2  0
 25 37  1  0
 26 27  1  0
 27 28  2  0
 27 29  1  0
 29 30  1  0
 30 31  1  0
 31 32  1  0
 32 33  1  0
 33 34  1  0
 34 35  1  0
 35 36  1  0
 36 37  1  0
 39 40  2  0
 39 41  1  0
M  END
