
     RDKit          3D

 25 28  0  0  0  0  0  0  0  0999 V2000
   -3.3200   -1.7710    0.2840 C   0  0  0  0  0  0  0  0  0  0  0  0
   -2.3880   -0.9780   -0.5970 C   0  0  0  0  0  0  0  0  0  0  0  0
   -2.2370   -1.3450   -1.7630 O   0  0  0  0  0  0  0  0  0  0  0  0
   -1.7480    0.1740    0.0180 C   0  0  0  0  0  0  0  0  0  0  0  0
   -2.6330    1.2650    0.0520 C   0  0  0  0  0  0  0  0  0  0  0  0
   -2.2120    2.4450    0.5770 C   0  0  0  0  0  0  0  0  0  0  0  0
   -0.9430    2.5210    1.0470 C   0  0  0  0  0  0  0  0  0  0  0  0
   -0.0130    1.4490    1.0320 C   0  0  0  0  0  0  0  0  0  0  0  0
   -0.4660    0.1980    0.4800 C   0  0  0  0  0  0  0  0  0  0  0  0
    0.3220   -1.0260    0.5380 C   0  0  0  0  0  0  0  0  0  0  0  0
    0.1830   -2.1070   -0.2450 N   0  0  2  0  0  0  0  0  0  0  0  0
    0.9920   -3.1620    0.6490 C   0  0  0  0  0  0  0  0  0  0  0  0
    0.4690   -2.5520   -1.5200 C   0  0  0  0  0  0  0  0  0  0  0  0
    1.2730   -2.0880   -2.5420 C   0  0  0  0  0  0  0  0  0  0  0  0
    1.9930   -0.7780   -2.1240 C   0  0  0  0  0  0  0  0  0  0  0  0
    3.0400   -0.8830   -1.2490 C   0  0  0  0  0  0  0  0  0  0  0  0
    3.3980    0.1670   -0.3290 C   0  0  0  0  0  0  0  0  0  0  0  0
    2.6230    1.2920   -0.3760 C   0  0  0  0  0  0  0  0  0  0  0  0
    1.5960    1.4350   -1.2730 C   0  0  0  0  0  0  0  0  0  0  0  0
    1.2580    0.3730   -2.1850 C   0  0  0  0  0  0  0  0  0  0  0  0
    2.4860    2.1130    0.9530 C   0  0  0  0  0  0  0  0  0  0  0  0
    1.2240    1.6660    1.5330 O   0  0  0  0  0  0  0  0  0  0  0  0
   -0.8680    3.8590    1.5050 O   0  0  0  0  0  0  0  0  0  0  0  0
   -2.1800    4.2780    1.8530 C   0  0  0  0  0  0  0  0  0  0  0  0
   -2.8810    3.6930    0.7420 O   0  0  0  0  0  0  0  0  0  0  0  0
  1  2  1  0
  2  3  2  0
  2  4  1  0
  4  5  2  0
  4  9  1  0
  5  6  1  0
  6  7  2  0
  6 25  1  0
  7  8  1  0
  7 23  1  0
  8  9  2  0
  8 22  1  0
  9 10  1  0
 10 11  1  0
 11 12  1  1
 11 13  1  0
 13 14  2  0
 14 15  1  0
 15 16  2  0
 15 20  1  0
 16 17  1  0
 17 18  2  0
 18 19  1  0
 18 21  1  0
 19 20  2  0
 21 22  1  0
 23 24  1  0
 24 25  1  0
M  CHG  1  11   1
M  END
