
     RDKit          3D

 25 28  0  0  0  0  0  0  0  0999 V2000
   -2.4290    2.8790    1.5090 C   0  0  0  0  0  0  0  0  0  0  0  0
   -2.3060    2.8490    0.0540 N   0  0  2  0  0  0  0  0  0  0  0  0
   -3.4160    2.3130   -0.6200 C   0  0  0  0  0  0  0  0  0  0  0  0
   -3.5260    0.8670   -0.8450 C   0  0  0  0  0  0  0  0  0  0  0  0
   -3.1750   -0.0350    0.2890 C   0  0  2  0  0  0  0  0  0  0  0  0
   -3.5790   -1.4800   -0.0440 C   0  0  0  0  0  0  0  0  0  0  0  0
   -4.0260   -1.6120    1.3970 C   0  0  0  0  0  0  0  0  0  0  0  0
   -4.0990   -0.0870    1.4480 C   0  0  0  0  0  0  0  0  0  0  0  0
   -1.7280    0.0070    0.5670 C   0  0  0  0  0  0  0  0  0  0  0  0
   -1.2530   -0.8540    1.3260 O   0  0  0  0  0  0  0  0  0  0  0  0
   -0.7530    0.9810    0.0320 C   0  0  0  0  0  0  0  0  0  0  0  0
    0.4960    0.5180   -0.1230 C   0  0  0  0  0  0  0  0  0  0  0  0
    1.5020    1.4020   -0.6400 C   0  0  0  0  0  0  0  0  0  0  0  0
    2.7520    1.2280   -0.8800 C   0  0  0  0  0  0  0  0  0  0  0  0
    3.6300    0.0940   -0.7280 C   0  0  0  0  0  0  0  0  0  0  0  0
    3.3790   -1.1640   -0.2780 C   0  0  0  0  0  0  0  0  0  0  0  0
    4.5790   -1.8880   -0.3270 C   0  0  0  0  0  0  0  0  0  0  0  0
    4.9110   -3.1120   -0.0210 O   0  0  0  0  0  0  0  0  0  0  0  0
    6.1590   -3.5460   -0.1710 C   0  0  0  0  0  0  0  0  0  0  0  0
    6.4150   -4.7210    0.1370 O   0  0  0  0  0  0  0  0  0  0  0  0
    7.1430   -2.7340   -0.6490 C   0  0  0  0  0  0  0  0  0  0  0  0
    6.8320   -1.4340   -0.9840 C   0  0  0  0  0  0  0  0  0  0  0  0
    5.5120   -1.0110   -0.8130 C   0  0  0  0  0  0  0  0  0  0  0  0
    4.9400    0.1140   -1.0330 O   0  0  0  0  0  0  0  0  0  0  0  0
   -0.9960    2.3710   -0.3320 C   0  0  0  0  0  0  0  0  0  0  0  0
  2  1  1  1
  2  3  1  0
  2 25  1  0
  3  4  1  0
  5  4  1  6
  5  6  1  0
  5  8  1  0
  5  9  1  0
  6  7  1  0
  7  8  1  0
  9 10  2  0
  9 11  1  0
 11 12  2  3
 11 25  1  0
 12 13  1  0
 13 14  2  3
 14 15  1  0
 15 16  2  0
 15 24  1  0
 16 17  1  0
 17 18  1  0
 17 23  2  0
 18 19  1  0
 19 20  2  0
 19 21  1  0
 21 22  2  0
 22 23  1  0
 23 24  1  0
M  CHG  1   2   1
M  END
