
     RDKit          3D

 25 27  0  0  0  0  0  0  0  0999 V2000
    6.8970   -2.5340   -0.8990 N   0  0  0  0  0  0  0  0  0  0  0  0
    6.9960   -1.1540   -0.6150 C   0  0  0  0  0  0  0  0  0  0  0  0
    8.1660   -0.6130   -0.6280 N   0  0  0  0  0  0  0  0  0  0  0  0
    5.8410   -0.3610   -0.3170 N   0  0  0  0  0  0  0  0  0  0  0  0
    5.6370    0.6080    0.7320 C   0  0  0  0  0  0  0  0  0  0  0  0
    4.1480    0.6940    0.8550 C   0  0  0  0  0  0  0  0  0  0  0  0
    3.5600    0.1150   -0.1690 C   0  0  0  0  0  0  0  0  0  0  0  0
    2.1750   -0.0260   -0.4390 N   0  0  0  0  0  0  0  0  0  0  0  0
    1.1230    0.4490    0.3740 C   0  0  0  0  0  0  0  0  0  0  0  0
    1.4050    1.0520    1.4330 O   0  0  0  0  0  0  0  0  0  0  0  0
   -0.2970    0.2490   -0.0010 C   0  0  0  0  0  0  0  0  0  0  0  0
   -0.5110   -0.3560   -1.0640 O   0  0  0  0  0  0  0  0  0  0  0  0
   -1.2830    0.7450    0.8490 N   0  0  0  0  0  0  0  0  0  0  0  0
   -2.6740    0.6220    0.6020 C   0  0  0  0  0  0  0  0  0  0  0  0
   -3.5800    1.0170    1.5990 C   0  0  0  0  0  0  0  0  0  0  0  0
   -4.9220    0.9150    1.3800 C   0  0  0  0  0  0  0  0  0  0  0  0
   -5.4750    0.4380    0.2130 C   0  0  0  0  0  0  0  0  0  0  0  0
   -6.8840    0.3670    0.0730 N   0  0  0  0  0  0  0  0  0  0  0  0
   -7.5410   -0.8260    0.0650 C   0  0  0  0  0  0  0  0  0  0  0  0
   -8.8610   -0.5360   -0.0840 C   0  0  0  0  0  0  0  0  0  0  0  0
   -8.9680    0.7990   -0.1620 N   0  0  0  0  0  0  0  0  0  0  0  0
   -7.7580    1.3610   -0.0660 C   0  0  0  0  0  0  0  0  0  0  0  0
   -4.6030    0.0490   -0.7690 C   0  0  0  0  0  0  0  0  0  0  0  0
   -3.2310    0.1480   -0.5560 C   0  0  0  0  0  0  0  0  0  0  0  0
    4.6200   -0.4090   -1.0690 C   0  0  0  0  0  0  0  0  0  0  0  0
  1  2  1  0
  2  3  2  0
  2  4  1  0
  4  5  1  0
  4 25  1  0
  5  6  1  0
  6  7  2  0
  7  8  1  0
  7 25  1  0
  8  9  1  0
  9 10  2  0
  9 11  1  0
 11 12  2  0
 11 13  1  0
 13 14  1  0
 14 15  2  0
 14 24  1  0
 15 16  1  0
 16 17  2  0
 17 18  1  0
 17 23  1  0
 18 19  1  0
 18 22  1  0
 19 20  2  0
 20 21  1  0
 21 22  2  0
 23 24  2  0
M  CHG  1   3   1
M  END
