
     RDKit          3D

 25 29  0  0  0  0  0  0  0  0999 V2000
    7.6370    1.6310    0.0760 C   0  0  0  0  0  0  0  0  0  0  0  0
    6.6450    0.5560    0.4720 C   0  0  2  0  0  0  0  0  0  0  0  0
    6.0870   -0.1630   -0.7190 C   0  0  0  0  0  0  0  0  0  0  0  0
    4.6840   -0.4300   -0.3210 C   0  0  0  0  0  0  0  0  0  0  0  0
    3.7020   -1.3090   -0.7710 C   0  0  0  0  0  0  0  0  0  0  0  0
    2.4480   -1.3450   -0.2030 C   0  0  0  0  0  0  0  0  0  0  0  0
    2.1330   -0.4970    0.8410 C   0  0  0  0  0  0  0  0  0  0  0  0
    3.1020    0.3670    1.2810 C   0  0  0  0  0  0  0  0  0  0  0  0
    4.3680    0.4150    0.7190 C   0  0  0  0  0  0  0  0  0  0  0  0
    5.4840    1.2030    1.0080 O   0  0  0  0  0  0  0  0  0  0  0  0
    0.7990   -0.7640    1.2040 O   0  0  0  0  0  0  0  0  0  0  0  0
    0.2170   -1.3270    0.0440 C   0  0  1  0  0  0  0  0  0  0  0  0
   -0.9090   -2.2500    0.3180 C   0  0  0  0  0  0  0  0  0  0  0  0
   -2.2740   -1.6660    0.0170 C   0  0  0  0  0  0  0  0  0  0  0  0
   -2.2050   -0.2520    0.2240 N   0  0  2  0  0  0  0  0  0  0  0  0
   -3.4700    0.4180    0.2480 C   0  0  1  0  0  0  0  0  0  0  0  0
   -4.3570    0.0200   -0.9270 C   0  0  0  0  0  0  0  0  0  0  0  0
   -5.7440    0.5740   -0.6990 C   0  0  0  0  0  0  0  0  0  0  0  0
   -5.7940    1.6650    0.3420 C   0  0  0  0  0  0  0  0  0  0  0  0
   -5.3930    1.1150    1.7190 C   0  0  0  0  0  0  0  0  0  0  0  0
   -4.2610    0.2160    1.4640 C   0  0  0  0  0  0  0  0  0  0  0  0
   -3.9920   -0.6580    2.2310 O   0  0  0  0  0  0  0  0  0  0  0  0
   -1.4440    0.3190   -0.8730 C   0  0  0  0  0  0  0  0  0  0  0  0
   -0.0560   -0.2610   -0.9600 C   0  0  0  0  0  0  0  0  0  0  0  0
    1.3120   -2.1070   -0.4550 O   0  0  0  0  0  0  0  0  0  0  0  0
  2  1  1  6
  2  3  1  0
  2 10  1  0
  3  4  1  0
  4  5  2  0
  4  9  1  0
  5  6  1  0
  6  7  2  0
  6 25  1  0
  7  8  1  0
  7 11  1  0
  8  9  2  0
  9 10  1  0
 11 12  1  0
 12 13  1  1
 12 24  1  0
 12 25  1  0
 13 14  1  0
 15 14  1  6
 15 16  1  0
 15 23  1  0
 16 17  1  6
 16 21  1  0
 17 18  1  0
 18 19  1  0
 19 20  1  0
 20 21  1  0
 21 22  2  0
 23 24  1  0
M  CHG  1  15   1
M  END
