
     RDKit          3D

 25 27  0  0  0  0  0  0  0  0999 V2000
    8.3950   -0.2540   -0.3780 C   0  0  0  0  0  0  0  0  0  0  0  0
    6.9360   -0.2540   -0.1900 C   0  0  0  0  0  0  0  0  0  0  0  0
    6.1880   -0.4240    0.9530 C   0  0  0  0  0  0  0  0  0  0  0  0
    4.8610   -0.3420    0.6160 C   0  0  0  0  0  0  0  0  0  0  0  0
    3.7200   -0.4550    1.4560 N   0  0  0  0  0  0  0  0  0  0  0  0
    2.4190   -0.3410    0.9200 C   0  0  0  0  0  0  0  0  0  0  0  0
    2.2500   -0.1370   -0.3170 O   0  0  0  0  0  0  0  0  0  0  0  0
    1.2550   -0.4460    1.7150 N   0  0  0  0  0  0  0  0  0  0  0  0
   -0.0570   -0.3240    1.1310 N   0  0  0  0  0  0  0  0  0  0  0  0
   -0.4780    0.8620    0.5430 C   0  0  0  0  0  0  0  0  0  0  0  0
    0.4500    1.7830    0.5560 O   0  0  0  0  0  0  0  0  0  0  0  0
   -1.7360    1.1830   -0.0260 C   0  0  0  0  0  0  0  0  0  0  0  0
   -2.8000    0.4240    0.0660 C   0  0  0  0  0  0  0  0  0  0  0  0
   -2.8070   -0.8140    0.7790 N   0  0  0  0  0  0  0  0  0  0  0  0
   -3.6060   -1.9180    0.3070 C   0  0  1  0  0  0  0  0  0  0  0  0
   -3.5900   -3.0610    1.2860 C   0  0  0  0  0  0  0  0  0  0  0  0
   -5.0580   -1.3800    0.1600 C   0  0  0  0  0  0  0  0  0  0  0  0
   -5.0720   -0.1030   -0.5640 C   0  0  0  0  0  0  0  0  0  0  0  0
   -4.0660    0.7390   -0.6300 C   0  0  0  0  0  0  0  0  0  0  0  0
   -4.1550    2.0110   -1.3650 C   0  0  0  0  0  0  0  0  0  0  0  0
   -2.9250    2.7520   -1.3840 N   0  0  0  0  0  0  0  0  0  0  0  0
   -1.8290    2.4500   -0.8220 C   0  0  0  0  0  0  0  0  0  0  0  0
   -0.6640    3.2470   -0.9010 N   0  0  0  0  0  0  0  0  0  0  0  0
    4.8530   -0.1260   -0.7200 N   0  0  0  0  0  0  0  0  0  0  0  0
    6.0670   -0.0760   -1.1820 O   0  0  0  0  0  0  0  0  0  0  0  0
  1  2  1  0
  2  3  2  0
  2 25  1  0
  3  4  1  0
  4  5  1  0
  4 24  2  0
  5  6  1  0
  6  7  2  0
  6  8  1  0
  8  9  1  0
  9 10  1  0
 10 11  2  0
 10 12  1  0
 12 13  2  0
 12 22  1  0
 13 14  1  0
 13 19  1  0
 14 15  1  0
 15 16  1  1
 15 17  1  0
 17 18  1  0
 18 19  2  0
 19 20  1  0
 20 21  1  0
 21 22  2  0
 22 23  1  0
 24 25  1  0
M  CHG  1  21   1
M  END
