
     RDKit          3D

 25 27  0  0  0  0  0  0  0  0999 V2000
   -3.5130   -0.0360    2.2360 N   0  0  0  0  0  0  0  0  0  0  0  0
   -2.9600    0.8420    1.2520 C   0  0  1  0  0  0  0  0  0  0  0  0
   -1.5360    0.7110    1.1610 N   0  0  0  0  0  0  0  0  0  0  0  0
   -0.8330   -0.4770    0.8190 C   0  0  0  0  0  0  0  0  0  0  0  0
   -1.5000   -1.6500    0.4950 C   0  0  0  0  0  0  0  0  0  0  0  0
   -0.8520   -2.7950    0.1600 C   0  0  0  0  0  0  0  0  0  0  0  0
    0.4880   -2.7840    0.1440 N   0  0  0  0  0  0  0  0  0  0  0  0
    1.1880   -1.6800    0.4490 C   0  0  0  0  0  0  0  0  0  0  0  0
    0.5420   -0.4850    0.7980 C   0  0  0  0  0  0  0  0  0  0  0  0
    1.3340    0.6480    1.1270 N   0  0  0  0  0  0  0  0  0  0  0  0
    2.7790    0.5580    0.9940 C   0  0  0  0  0  0  0  0  0  0  0  0
    3.1300    0.3940   -0.4190 C   0  0  0  0  0  0  0  0  0  0  0  0
    2.2370    0.3700   -1.3040 O   0  0  0  0  0  0  0  0  0  0  0  0
    4.4840    0.2570   -0.8450 N   0  0  0  0  0  0  0  0  0  0  0  0
    5.5250    0.2650   -0.0240 N   0  0  0  0  0  0  0  0  0  0  0  0
    6.6250    0.1150   -0.7680 C   0  0  0  0  0  0  0  0  0  0  0  0
    7.8280    0.0670   -0.3940 O   0  0  0  0  0  0  0  0  0  0  0  0
    6.2760    0.0120   -2.0620 N   0  0  0  0  0  0  0  0  0  0  0  0
    4.9410    0.1030   -2.0920 C   0  0  0  0  0  0  0  0  0  0  0  0
    4.2000    0.0540   -3.1150 O   0  0  0  0  0  0  0  0  0  0  0  0
   -3.6370    0.7570   -0.0830 C   0  0  0  0  0  0  0  0  0  0  0  0
   -3.0530    0.5820   -1.2530 C   0  0  0  0  0  0  0  0  0  0  0  0
   -4.0850    0.5590   -2.3090 C   0  0  0  0  0  0  0  0  0  0  0  0
   -5.3450    0.7530   -1.5850 C   0  0  0  0  0  0  0  0  0  0  0  0
   -5.0800    0.8660   -0.2990 C   0  0  0  0  0  0  0  0  0  0  0  0
  2  1  1  1
  2  3  1  0
  2 21  1  0
  3  4  1  0
  4  5  2  0
  4  9  1  0
  5  6  1  0
  6  7  2  0
  7  8  1  0
  8  9  2  0
  9 10  1  0
 10 11  1  0
 11 12  1  0
 12 13  2  0
 12 14  1  0
 14 15  1  0
 14 19  1  0
 15 16  1  0
 16 17  2  0
 16 18  1  0
 18 19  1  0
 19 20  2  0
 21 22  2  0
 21 25  1  0
 22 23  1  0
 23 24  1  0
 24 25  2  0
M  CHG  1   1   1
M  END
