
     RDKit          3D

 25 29  0  0  0  0  0  0  0  0999 V2000
    3.2440    3.3730    1.7240 C   0  0  0  0  0  0  0  0  0  0  0  0
    4.0240    2.2780    1.3650 O   0  0  0  0  0  0  0  0  0  0  0  0
    3.5100    1.1200    0.7740 C   0  0  0  0  0  0  0  0  0  0  0  0
    2.1690    0.9560    0.4920 C   0  0  0  0  0  0  0  0  0  0  0  0
    1.6560   -0.1910   -0.0940 C   0  0  0  0  0  0  0  0  0  0  0  0
    0.3870   -0.5880   -0.4680 C   0  0  0  0  0  0  0  0  0  0  0  0
    0.5190   -1.8320   -0.9950 C   0  0  0  0  0  0  0  0  0  0  0  0
    1.7810   -2.1710   -0.9460 O   0  0  0  0  0  0  0  0  0  0  0  0
    2.5100   -1.2210   -0.4130 C   0  0  0  0  0  0  0  0  0  0  0  0
    3.8590   -1.0820   -0.1400 C   0  0  0  0  0  0  0  0  0  0  0  0
    4.3440    0.0740    0.4450 C   0  0  0  0  0  0  0  0  0  0  0  0
    5.6920    0.2140    0.7180 O   0  0  0  0  0  0  0  0  0  0  0  0
    6.6560   -0.7200    0.2730 C   0  0  0  0  0  0  0  0  0  0  0  0
    6.0980   -2.0830    0.0250 C   0  0  0  0  0  0  0  0  0  0  0  0
    4.7600   -2.0750   -0.4360 O   0  0  0  0  0  0  0  0  0  0  0  0
   -0.7190   -2.5200   -1.4920 C   0  0  0  0  0  0  0  0  0  0  0  0
   -1.8200   -1.5390   -1.7470 C   0  0  0  0  0  0  0  0  0  0  0  0
   -2.0380   -0.6550   -0.6050 N   0  0  2  0  0  0  0  0  0  0  0  0
   -3.1610    0.2000   -0.8780 C   0  0  1  0  0  0  0  0  0  0  0  0
   -4.4840   -0.5160   -0.6960 C   0  0  0  0  0  0  0  0  0  0  0  0
   -5.5410    0.4610   -0.2030 C   0  0  0  0  0  0  0  0  0  0  0  0
   -5.2070    0.9020    1.2080 C   0  0  0  0  0  0  0  0  0  0  0  0
   -3.7080    1.0920    1.3410 C   0  0  0  0  0  0  0  0  0  0  0  0
   -3.1950    1.4440   -0.0510 C   0  0  0  0  0  0  0  0  0  0  0  0
   -0.8860    0.1580   -0.3390 C   0  0  0  0  0  0  0  0  0  0  0  0
  1  2  1  0
  2  3  1  0
  3  4  2  0
  3 11  1  0
  4  5  1  0
  5  6  1  0
  5  9  2  0
  6  7  2  0
  6 25  1  0
  7  8  1  0
  7 16  1  0
  8  9  1  0
  9 10  1  0
 10 11  2  0
 10 15  1  0
 11 12  1  0
 12 13  1  0
 13 14  1  0
 14 15  1  0
 16 17  1  0
 18 17  1  6
 18 19  1  0
 18 25  1  0
 19 20  1  1
 19 24  1  0
 20 21  1  0
 21 22  1  0
 22 23  1  0
 23 24  1  0
M  CHG  1  18   1
M  END
