
     RDKit          3D

 23 25  0  0  0  0  0  0  0  0999 V2000
    5.5800   -1.8230   -0.5190 C   0  0  0  0  0  0  0  0  0  0  0  0
    5.2100   -0.4770   -1.0720 C   0  0  2  0  0  0  0  0  0  0  0  0
    6.1110    0.4820   -0.7170 O   0  0  0  0  0  0  0  0  0  0  0  0
    5.4660    1.6070   -0.2870 C   0  0  0  0  0  0  0  0  0  0  0  0
    4.0190    1.5000   -0.6940 C   0  0  2  0  0  0  0  0  0  0  0  0
    3.0890    2.2130    0.2300 C   0  0  0  0  0  0  0  0  0  0  0  0
    3.8350   -0.0230   -0.6470 C   0  0  1  0  0  0  0  0  0  0  0  0
    2.8160   -0.3580   -1.5870 N   0  0  0  0  0  0  0  0  0  0  0  0
    1.5720   -0.5620   -1.3290 C   0  0  0  0  0  0  0  0  0  0  0  0
    0.7370   -0.8710   -2.3380 N   0  0  0  0  0  0  0  0  0  0  0  0
   -0.5860   -1.0950   -2.1210 C   0  0  0  0  0  0  0  0  0  0  0  0
   -1.1060   -1.0140   -0.8830 N   0  0  0  0  0  0  0  0  0  0  0  0
   -0.2730   -0.7040    0.1320 C   0  0  0  0  0  0  0  0  0  0  0  0
   -0.8440   -0.6160    1.4800 C   0  0  0  0  0  0  0  0  0  0  0  0
   -2.0780   -0.8180    1.7250 N   0  0  0  0  0  0  0  0  0  0  0  0
   -3.0480   -1.1400    0.8020 N   0  0  0  0  0  0  0  0  0  0  0  0
   -3.2310   -2.5370    0.4600 C   0  0  0  0  0  0  0  0  0  0  0  0
   -3.8870   -0.1590    0.1620 C   0  0  1  0  0  0  0  0  0  0  0  0
   -5.3600   -0.3910    0.4480 C   0  0  0  0  0  0  0  0  0  0  0  0
   -5.9640    0.9080   -0.0660 C   0  0  0  0  0  0  0  0  0  0  0  0
   -4.9480    1.9680    0.2710 C   0  0  0  0  0  0  0  0  0  0  0  0
   -3.6780    1.2270    0.6820 C   0  0  0  0  0  0  0  0  0  0  0  0
    1.0330   -0.4850   -0.0990 N   0  0  0  0  0  0  0  0  0  0  0  0
  2  1  1  1
  2  3  1  0
  2  7  1  0
  3  4  1  0
  4  5  1  0
  5  6  1  1
  5  7  1  0
  7  8  1  6
  8  9  2  3
  9 10  1  0
  9 23  1  0
 10 11  2  0
 11 12  1  0
 12 13  2  0
 13 14  1  0
 13 23  1  0
 14 15  2  3
 15 16  1  0
 16 17  1  0
 18 16  1  1
 18 19  1  0
 18 22  1  0
 19 20  1  0
 20 21  1  0
 21 22  1  0
M  END
