
     RDKit          3D

 23 25  0  0  0  0  0  0  0  0999 V2000
    3.9780    2.3160   -1.5420 C   0  0  0  0  0  0  0  0  0  0  0  0
    3.7920    0.8450   -1.7490 C   0  0  0  0  0  0  0  0  0  0  0  0
    2.8290    0.2400   -0.7970 C   0  0  0  0  0  0  0  0  0  0  0  0
    1.5050    0.1300   -1.0090 N   0  0  0  0  0  0  0  0  0  0  0  0
    0.9620   -0.4530    0.0370 N   0  0  0  0  0  0  0  0  0  0  0  0
   -0.2100   -0.8810    0.5470 C   0  0  0  0  0  0  0  0  0  0  0  0
   -1.5650   -0.8210   -0.0320 C   0  0  1  0  0  0  0  0  0  0  0  0
   -2.2170   -2.1680   -0.1580 C   0  0  0  0  0  0  0  0  0  0  0  0
   -3.6470   -2.0570    0.2860 C   0  0  0  0  0  0  0  0  0  0  0  0
   -4.2560   -1.0040   -0.3770 O   0  0  0  0  0  0  0  0  0  0  0  0
   -3.7540    0.2350    0.0550 C   0  0  1  0  0  0  0  0  0  0  0  0
   -3.4260    1.0490   -1.1780 C   0  0  0  0  0  0  0  0  0  0  0  0
   -4.8540    0.8940    0.8450 C   0  0  0  0  0  0  0  0  0  0  0  0
   -4.4930    2.2350    1.3870 C   0  0  0  0  0  0  0  0  0  0  0  0
   -2.4950    0.0400    0.8320 C   0  0  0  0  0  0  0  0  0  0  0  0
    0.0790   -1.4060    1.7500 N   0  0  0  0  0  0  0  0  0  0  0  0
    1.3930   -1.3020    1.9720 N   0  0  0  0  0  0  0  0  0  0  0  0
    1.9500   -0.7090    0.9080 C   0  0  0  0  0  0  0  0  0  0  0  0
    3.1190   -0.2850    0.4060 N   0  0  0  0  0  0  0  0  0  0  0  0
    4.4410   -0.3390    0.9620 C   0  0  0  0  0  0  0  0  0  0  0  0
    5.1930   -1.5820    0.6180 C   0  0  0  0  0  0  0  0  0  0  0  0
    6.5190   -1.4830    1.2610 C   0  0  0  0  0  0  0  0  0  0  0  0
    7.5530   -1.4150    1.7810 N   0  0  0  0  0  0  0  0  0  0  0  0
  1  2  1  0
  2  3  1  0
  3  4  2  0
  3 19  1  0
  4  5  1  0
  5  6  1  0
  5 18  1  0
  7  6  1  1
  6 16  2  0
  7  8  1  0
  7 15  1  0
  8  9  1  0
  9 10  1  0
 10 11  1  0
 11 12  1  6
 11 13  1  0
 11 15  1  0
 13 14  1  0
 16 17  1  0
 17 18  2  0
 18 19  1  0
 19 20  1  0
 20 21  1  0
 21 22  1  0
 22 23  3  0
M  END
