
     RDKit          3D

 19 19  0  0  0  0  0  0  0  0999 V2000
   -2.8360    2.8870    1.3840 C   0  0  0  0  0  0  0  0  0  0  0  0
   -1.8010    1.8530    1.1530 C   0  0  0  0  0  0  0  0  0  0  0  0
   -0.0290    2.1910    1.6950 Br  0  0  0  0  0  0  0  0  0  0  0  0
   -2.1580    0.7010    0.6230 C   0  0  0  0  0  0  0  0  0  0  0  0
   -3.5970    0.5490    0.3110 C   0  0  0  0  0  0  0  0  0  0  0  0
   -3.9740   -0.7990   -0.0700 C   0  0  0  0  0  0  0  0  0  0  0  0
   -3.1350   -1.7750   -0.2200 C   0  0  0  0  0  0  0  0  0  0  0  0
   -1.6930   -1.5500    0.0140 C   0  0  0  0  0  0  0  0  0  0  0  0
   -0.7570   -2.7060   -0.1390 C   0  0  0  0  0  0  0  0  0  0  0  0
   -1.2090   -0.3830    0.3980 C   0  0  0  0  0  0  0  0  0  0  0  0
    0.1510   -0.2330    0.5610 O   0  0  0  0  0  0  0  0  0  0  0  0
    1.1140    0.0970   -0.3720 C   0  0  2  0  0  0  0  0  0  0  0  0
    1.2380   -0.8880   -1.5480 C   0  0  0  0  0  0  0  0  0  0  0  0
    2.4600    0.0790    0.2590 C   0  0  0  0  0  0  0  0  0  0  0  0
    2.5460   -0.2130    1.4730 O   0  0  0  0  0  0  0  0  0  0  0  0
    3.6390    0.3760   -0.4550 N   0  0  0  0  0  0  0  0  0  0  0  0
    4.9350    0.3640    0.1310 C   0  0  0  0  0  0  0  0  0  0  0  0
    6.1120    0.6650   -0.5990 N   0  0  0  0  0  0  0  0  0  0  0  0
    5.0330    0.0720    1.3520 O   0  0  0  0  0  0  0  0  0  0  0  0
  1  2  1  0
  2  3  1  0
  2  4  2  3
  4  5  1  0
  4 10  1  0
  5  6  1  0
  6  7  2  0
  7  8  1  0
  8  9  1  0
  8 10  2  0
 10 11  1  0
 11 12  1  0
 12 13  1  6
 12 14  1  0
 14 15  2  0
 14 16  1  0
 16 17  1  0
 17 18  1  0
 17 19  2  0
M  END
