
     RDKit          3D

 23 25  0  0  0  0  0  0  0  0999 V2000
   -0.2590    2.4760    1.4620 C   0  0  0  0  0  0  0  0  0  0  0  0
    0.4050    2.1720    0.1970 N   0  0  0  0  0  0  0  0  0  0  0  0
    0.3320    3.2520   -0.8040 C   0  0  0  0  0  0  0  0  0  0  0  0
    1.0740    0.9720   -0.0640 C   0  0  0  0  0  0  0  0  0  0  0  0
    2.1820    0.7630    0.5900 N   0  0  0  0  0  0  0  0  0  0  0  0
    2.9650   -0.4340    0.4120 C   0  0  0  0  0  0  0  0  0  0  0  0
    4.2640   -0.5220    0.2380 C   0  0  0  0  0  0  0  0  0  0  0  0
    4.6340   -1.9380    0.1000 C   0  0  1  0  0  0  0  0  0  0  0  0
    5.5300   -2.3550    1.0810 O   0  0  0  0  0  0  0  0  0  0  0  0
    3.3740   -2.6300    0.2200 N   0  0  0  0  0  0  0  0  0  0  0  0
    2.4240   -1.7810    0.3970 C   0  0  0  0  0  0  0  0  0  0  0  0
    0.6320   -0.0050   -1.0340 C   0  0  0  0  0  0  0  0  0  0  0  0
    1.5610   -0.4220   -2.0020 C   0  0  0  0  0  0  0  0  0  0  0  0
    1.2160   -1.3540   -2.8820 N   0  0  0  0  0  0  0  0  0  0  0  0
    0.0150   -1.9420   -2.9150 C   0  0  0  0  0  0  0  0  0  0  0  0
   -0.8760   -1.5550   -2.0020 N   0  0  0  0  0  0  0  0  0  0  0  0
   -0.5940   -0.6030   -1.0660 C   0  0  0  0  0  0  0  0  0  0  0  0
   -1.6530   -0.2930   -0.1740 N   0  0  0  0  0  0  0  0  0  0  0  0
   -2.5460    0.7880   -0.4640 C   0  0  0  0  0  0  0  0  0  0  0  0
   -3.4270    0.9740    0.7580 C   0  0  0  0  0  0  0  0  0  0  0  0
   -4.2080   -0.3190    0.9090 C   0  0  0  0  0  0  0  0  0  0  0  0
   -3.2770   -1.4650    1.2410 C   0  0  0  0  0  0  0  0  0  0  0  0
   -1.8280   -1.0890    1.0310 C   0  0  0  0  0  0  0  0  0  0  0  0
  1  2  1  0
  2  3  1  0
  2  4  1  0
  4  5  2  3
  4 12  1  0
  5  6  1  0
  6  7  2  0
  6 11  1  0
  7  8  1  0
  8  9  1  1
  8 10  1  0
 10 11  2  0
 12 13  2  0
 12 17  1  0
 13 14  1  0
 14 15  2  0
 15 16  1  0
 16 17  2  0
 17 18  1  0
 18 19  1  0
 18 23  1  0
 19 20  1  0
 20 21  1  0
 21 22  1  0
 22 23  1  0
M  END
