
     RDKit          3D

 23 25  0  0  0  0  0  0  0  0999 V2000
   -5.6940    0.5600   -1.2120 C   0  0  0  0  0  0  0  0  0  0  0  0
   -4.5810    0.5220   -0.5220 C   0  0  0  0  0  0  0  0  0  0  0  0
   -3.4960   -0.2830   -0.7320 N   0  0  0  0  0  0  0  0  0  0  0  0
   -2.5700    0.0030    0.2080 C   0  0  0  0  0  0  0  0  0  0  0  0
   -1.2180   -0.6420    0.3580 C   0  0  1  0  0  0  0  0  0  0  0  0
   -1.4290   -2.1270    0.5140 C   0  0  0  0  0  0  0  0  0  0  0  0
   -0.2910   -2.9600    0.0360 C   0  0  0  0  0  0  0  0  0  0  0  0
    1.0100   -2.2540   -0.1230 C   0  0  0  0  0  0  0  0  0  0  0  0
    0.9420   -0.9100   -0.5610 N   0  0  0  0  0  0  0  0  0  0  0  0
    1.6690   -0.0350    0.3300 C   0  0  0  0  0  0  0  0  0  0  0  0
    3.1080   -0.4120    0.3960 C   0  0  0  0  0  0  0  0  0  0  0  0
    3.6760   -1.2510    1.2600 N   0  0  0  0  0  0  0  0  0  0  0  0
    4.9640   -1.3420    1.0200 N   0  0  0  0  0  0  0  0  0  0  0  0
    5.2110   -0.5360   -0.0270 C   0  0  0  0  0  0  0  0  0  0  0  0
    6.3640   -0.3760   -0.5350 O   0  0  0  0  0  0  0  0  0  0  0  0
    4.0660    0.0460   -0.4210 N   0  0  0  0  0  0  0  0  0  0  0  0
    3.9480    0.9840   -1.5280 C   0  0  0  0  0  0  0  0  0  0  0  0
    4.1530    2.3900   -1.0010 C   0  0  0  0  0  0  0  0  0  0  0  0
   -0.3870   -0.4240   -0.8580 C   0  0  0  0  0  0  0  0  0  0  0  0
   -3.0830    0.9720    0.9850 N   0  0  0  0  0  0  0  0  0  0  0  0
   -2.4320    1.5910    2.1280 C   0  0  0  0  0  0  0  0  0  0  0  0
   -4.3080    1.3280    0.5870 C   0  0  0  0  0  0  0  0  0  0  0  0
   -5.1310    2.2320    1.0830 C   0  0  0  0  0  0  0  0  0  0  0  0
  1  2  2  0
  2  3  1  0
  2 22  1  0
  3  4  2  0
  5  4  1  6
  4 20  1  0
  5  6  1  0
  5 19  1  0
  6  7  1  0
  7  8  1  0
  8  9  1  0
  9 10  1  0
  9 19  1  0
 10 11  1  0
 11 12  2  0
 11 16  1  0
 12 13  1  0
 13 14  1  0
 14 15  2  0
 14 16  1  0
 16 17  1  0
 17 18  1  0
 20 21  1  0
 20 22  1  0
 22 23  2  0
M  END
