
     RDKit          3D

 23 25  0  0  0  0  0  0  0  0999 V2000
   -6.2860    0.7290   -1.0010 C   0  0  0  0  0  0  0  0  0  0  0  0
   -6.1760   -0.6730   -0.5220 C   0  0  0  0  0  0  0  0  0  0  0  0
   -5.3490   -0.9030    0.6860 C   0  0  0  0  0  0  0  0  0  0  0  0
   -3.9340   -0.5190    0.6070 C   0  0  0  0  0  0  0  0  0  0  0  0
   -3.0270   -1.4960    0.2900 N   0  0  0  0  0  0  0  0  0  0  0  0
   -1.7350   -1.2690    0.1600 N   0  0  0  0  0  0  0  0  0  0  0  0
   -1.2200   -0.0370    0.3360 C   0  0  0  0  0  0  0  0  0  0  0  0
    0.1770    0.1380    0.1800 N   0  0  0  0  0  0  0  0  0  0  0  0
    0.7200    1.4620    0.3730 C   0  0  0  0  0  0  0  0  0  0  0  0
    1.7900    1.2730    1.4590 C   0  0  0  0  0  0  0  0  0  0  0  0
    2.9010    0.5230    0.7870 C   0  0  0  0  0  0  0  0  0  0  0  0
    2.4850   -0.7640    0.1720 C   0  0  2  0  0  0  0  0  0  0  0  0
    3.2730   -0.9020   -1.0630 N   0  0  0  0  0  0  0  0  0  0  0  0
    4.6930   -0.9420   -1.0250 C   0  0  0  0  0  0  0  0  0  0  0  0
    5.4550    0.0050   -1.5390 C   0  0  0  0  0  0  0  0  0  0  0  0
    6.9390   -0.0450   -1.4950 C   0  0  0  0  0  0  0  0  0  0  0  0
    7.4040   -1.1980   -0.8530 O   0  0  0  0  0  0  0  0  0  0  0  0
    6.5950   -2.1810   -0.3200 C   0  0  0  0  0  0  0  0  0  0  0  0
    5.3110   -2.0580   -0.4020 N   0  0  0  0  0  0  0  0  0  0  0  0
    1.0540   -0.9320   -0.1580 C   0  0  0  0  0  0  0  0  0  0  0  0
   -2.0700    0.9300    0.6440 N   0  0  0  0  0  0  0  0  0  0  0  0
   -3.4170    0.7280    0.7870 C   0  0  0  0  0  0  0  0  0  0  0  0
   -4.2870    1.8590    1.1670 C   0  0  0  0  0  0  0  0  0  0  0  0
  1  2  1  0
  2  3  1  0
  3  4  1  0
  4  5  2  0
  4 22  1  0
  5  6  1  0
  6  7  2  0
  7  8  1  0
  7 21  1  0
  8  9  1  0
  8 20  1  0
  9 10  1  0
 10 11  1  0
 11 12  1  0
 12 13  1  6
 12 20  1  0
 13 14  1  0
 14 15  2  0
 14 19  1  0
 15 16  1  0
 16 17  1  0
 17 18  1  0
 18 19  2  0
 21 22  2  0
 22 23  1  0
M  END
