
     RDKit          3D

 23 25  0  0  0  0  0  0  0  0999 V2000
    5.3810    0.3160    0.4420 C   0  0  0  0  0  0  0  0  0  0  0  0
    4.0660   -0.2270   -0.0550 C   0  0  0  0  0  0  0  0  0  0  0  0
    2.9310   -0.1470    0.9170 C   0  0  1  0  0  0  0  0  0  0  0  0
    1.7200   -0.8120    0.2160 C   0  0  0  0  0  0  0  0  0  0  0  0
    0.6500   -1.0320    1.1520 N   0  0  0  0  0  0  0  0  0  0  0  0
   -0.7020   -0.5820    0.8510 C   0  0  0  0  0  0  0  0  0  0  0  0
   -1.6000   -1.5290    1.1840 C   0  0  0  0  0  0  0  0  0  0  0  0
   -1.3090   -2.7400    1.6580 C   0  0  0  0  0  0  0  0  0  0  0  0
   -1.0600   -3.8640    2.0940 N   0  0  0  0  0  0  0  0  0  0  0  0
   -3.1150   -1.2200    1.1190 C   0  0  2  0  0  0  0  0  0  0  0  0
   -3.8890   -2.5450    1.1020 C   0  0  0  0  0  0  0  0  0  0  0  0
   -3.4390   -0.3480    0.1940 N   0  0  0  0  0  0  0  0  0  0  0  0
   -3.0340    0.5420   -0.6290 C   0  0  0  0  0  0  0  0  0  0  0  0
   -3.7430    1.3130   -1.5320 N   0  0  0  0  0  0  0  0  0  0  0  0
   -2.9350    2.2250   -2.0760 C   0  0  0  0  0  0  0  0  0  0  0  0
   -3.2430    3.1610   -3.1670 C   0  0  0  0  0  0  0  0  0  0  0  0
   -1.6440    2.0560   -1.5090 N   0  0  0  0  0  0  0  0  0  0  0  0
   -0.5290    2.8530   -1.8680 C   0  0  0  0  0  0  0  0  0  0  0  0
   -1.8030    1.0300   -0.6820 C   0  0  0  0  0  0  0  0  0  0  0  0
   -0.7550    0.5240   -0.0290 N   0  0  0  0  0  0  0  0  0  0  0  0
    1.0830   -1.6960    2.3560 C   0  0  0  0  0  0  0  0  0  0  0  0
    2.1460   -0.7320    2.9640 C   0  0  0  0  0  0  0  0  0  0  0  0
    3.2530   -0.7220    2.1110 O   0  0  0  0  0  0  0  0  0  0  0  0
  1  2  1  0
  3  2  1  6
  3  4  1  0
  3 23  1  0
  4  5  1  0
  5  6  1  0
  5 21  1  0
  6  7  2  0
  6 20  1  0
  7  8  1  0
  7 10  1  0
  8  9  3  0
 10 11  1  6
 10 12  1  0
 12 13  2  0
 13 14  1  0
 13 19  1  0
 14 15  2  0
 15 16  1  0
 15 17  1  0
 17 18  1  0
 17 19  1  0
 19 20  2  0
 21 22  1  0
 22 23  1  0
M  END
