
     RDKit          3D

 24 26  0  0  0  0  0  0  0  0999 V2000
    5.4950    1.5120   -1.0490 C   0  0  0  0  0  0  0  0  0  0  0  0
    5.8220    0.0700   -0.6970 C   0  0  1  0  0  0  0  0  0  0  0  0
    6.3200   -0.1300    0.6860 C   0  0  0  0  0  0  0  0  0  0  0  0
    4.7740   -0.8930   -1.1630 C   0  0  0  0  0  0  0  0  0  0  0  0
    3.5170   -0.7890   -0.7510 O   0  0  0  0  0  0  0  0  0  0  0  0
    2.7020   -0.8320    0.3080 C   0  0  0  0  0  0  0  0  0  0  0  0
    3.0550   -1.0810    1.6040 C   0  0  0  0  0  0  0  0  0  0  0  0
    2.1090   -1.0900    2.5950 C   0  0  0  0  0  0  0  0  0  0  0  0
    0.7850   -0.8510    2.3110 C   0  0  0  0  0  0  0  0  0  0  0  0
    0.3740   -0.5920    1.0040 C   0  0  0  0  0  0  0  0  0  0  0  0
   -1.0620   -0.3410    0.7560 C   0  0  0  0  0  0  0  0  0  0  0  0
   -1.6910   -0.0740   -0.3960 N   0  0  0  0  0  0  0  0  0  0  0  0
   -3.0240    0.0910   -0.1760 C   0  0  0  0  0  0  0  0  0  0  0  0
   -4.0960    0.3690   -0.9620 C   0  0  0  0  0  0  0  0  0  0  0  0
   -5.3710    0.4770   -0.4300 C   0  0  0  0  0  0  0  0  0  0  0  0
   -6.4670    0.7740   -1.3140 C   0  0  0  0  0  0  0  0  0  0  0  0
   -6.1710    0.9440   -2.7280 N   0  0  0  0  0  0  0  0  0  0  0  0
   -7.6640    0.8890   -0.9010 N   0  0  0  0  0  0  0  0  0  0  0  0
   -5.5850    0.3060    0.9140 C   0  0  0  0  0  0  0  0  0  0  0  0
   -4.4970    0.0220    1.7200 C   0  0  0  0  0  0  0  0  0  0  0  0
   -3.2370   -0.0820    1.1750 C   0  0  0  0  0  0  0  0  0  0  0  0
   -2.0150   -0.3430    1.7020 N   0  0  0  0  0  0  0  0  0  0  0  0
    1.3270   -0.5870    0.0370 C   0  0  0  0  0  0  0  0  0  0  0  0
    0.9730   -0.3350   -1.2780 O   0  0  0  0  0  0  0  0  0  0  0  0
  2  1  1  1
  2  3  1  0
  2  4  1  0
  4  5  1  0
  5  6  1  0
  6  7  2  0
  6 23  1  0
  7  8  1  0
  8  9  2  0
  9 10  1  0
 10 11  1  0
 10 23  2  0
 11 12  2  0
 11 22  1  0
 12 13  1  0
 13 14  2  0
 13 21  1  0
 14 15  1  0
 15 16  1  0
 15 19  2  0
 16 17  1  0
 16 18  2  0
 19 20  1  0
 20 21  2  0
 21 22  1  0
 23 24  1  0
M  CHG  1  18   1
M  END
