
     RDKit          3D

 19 19  0  0  0  0  0  0  0  0999 V2000
   -4.8270    0.7940    0.9050 C   0  0  0  0  0  0  0  0  0  0  0  0
   -4.3000   -0.2200   -0.0750 C   0  0  2  0  0  0  0  0  0  0  0  0
   -4.4740    0.3020   -1.4780 C   0  0  0  0  0  0  0  0  0  0  0  0
   -5.1160   -1.4890    0.0440 C   0  0  0  0  0  0  0  0  0  0  0  0
   -2.8470   -0.5530    0.1720 C   0  0  0  0  0  0  0  0  0  0  0  0
   -1.9470    0.6290    0.0630 C   0  0  0  0  0  0  0  0  0  0  0  0
   -0.5480    0.2010    0.3200 C   0  0  0  0  0  0  0  0  0  0  0  0
   -0.3100   -0.9990    0.5770 O   0  0  0  0  0  0  0  0  0  0  0  0
    0.5430    1.1160    0.2840 N   0  0  0  0  0  0  0  0  0  0  0  0
    1.8210    0.6200    0.5380 N   0  0  0  0  0  0  0  0  0  0  0  0
    2.3580   -0.4440   -0.2290 C   0  0  0  0  0  0  0  0  0  0  0  0
    1.7290   -0.9920   -1.1620 O   0  0  0  0  0  0  0  0  0  0  0  0
    3.7290   -0.9180    0.1000 C   0  0  1  0  0  0  0  0  0  0  0  0
    4.6800   -0.7010   -1.0580 C   0  0  0  0  0  0  0  0  0  0  0  0
    5.9840   -0.4590   -0.3270 C   0  0  0  0  0  0  0  0  0  0  0  0
    5.5160    0.3240    0.8450 C   0  0  0  0  0  0  0  0  0  0  0  0
    6.1810    1.3070    1.4270 C   0  0  0  0  0  0  0  0  0  0  0  0
    5.4280    2.2080    2.9280 Br  0  0  0  0  0  0  0  0  0  0  0  0
    4.2730   -0.1810    1.1850 O   0  0  0  0  0  0  0  0  0  0  0  0
  2  1  1  1
  2  3  1  0
  2  4  1  0
  2  5  1  0
  5  6  1  0
  6  7  1  0
  7  8  2  0
  7  9  1  0
  9 10  1  0
 10 11  1  0
 11 12  2  0
 13 11  1  6
 13 14  1  0
 13 19  1  0
 14 15  1  0
 15 16  1  0
 16 17  2  3
 16 19  1  0
 17 18  1  0
M  END
