
     RDKit          3D

  8  8  0  0  0  0  0  0  0  0999 V2000
    2.7780    0.1210    1.0300 O   0  0  0  0  0  0  0  0  0  0  0  0
    1.9910   -0.3910    0.0010 C   0  0  0  0  0  0  0  0  0  0  0  0
    0.5620   -0.1680    0.1930 C   0  0  0  0  0  0  0  0  0  0  0  0
   -0.1610    0.5200   -0.6690 C   0  0  0  0  0  0  0  0  0  0  0  0
   -1.6120    0.7650   -0.5010 C   0  0  0  0  0  0  0  0  0  0  0  0
   -2.3440   -0.2740    0.1220 N   0  0  0  0  0  0  0  0  0  0  0  0
   -1.9740   -1.0630    1.0270 C   0  0  0  0  0  0  0  0  0  0  0  0
   -0.2910   -0.8500    1.6140 S   0  0  0  0  0  0  0  0  0  0  0  0
  1  2  1  0
  2  3  1  0
  3  4  2  0
  3  8  1  0
  4  5  1  0
  5  6  1  0
  6  7  2  0
  7  8  1  0
M  END
