
     RDKit          3D

 26 29  0  0  0  0  0  0  0  0999 V2000
    5.3170    2.4030   -1.7410 N   0  0  0  0  0  0  0  0  0  0  0  0
    5.7950    1.3430   -0.8590 C   0  0  0  0  0  0  0  0  0  0  0  0
    7.0360    1.2730   -0.7510 N   0  0  0  0  0  0  0  0  0  0  0  0
    4.7740    0.5290   -0.2380 C   0  0  0  0  0  0  0  0  0  0  0  0
    3.4130    0.8070   -0.5190 C   0  0  0  0  0  0  0  0  0  0  0  0
    2.4040    0.0720    0.0380 C   0  0  0  0  0  0  0  0  0  0  0  0
    1.0510    0.1290   -0.0620 N   0  0  0  0  0  0  0  0  0  0  0  0
    0.4740   -0.8170    0.6840 C   0  0  0  0  0  0  0  0  0  0  0  0
   -0.9420   -1.1260    0.8780 C   0  0  0  0  0  0  0  0  0  0  0  0
   -1.3090   -2.1810    1.7230 C   0  0  0  0  0  0  0  0  0  0  0  0
   -2.6060   -2.5500    1.9710 C   0  0  0  0  0  0  0  0  0  0  0  0
   -3.5960   -1.8280    1.3430 C   0  0  0  0  0  0  0  0  0  0  0  0
   -3.2810   -0.7820    0.5030 C   0  0  0  0  0  0  0  0  0  0  0  0
   -4.3200   -0.0060   -0.1720 C   0  0  0  0  0  0  0  0  0  0  0  0
   -5.4200    0.4130    0.5400 C   0  0  0  0  0  0  0  0  0  0  0  0
   -6.3890    1.1410   -0.1070 C   0  0  0  0  0  0  0  0  0  0  0  0
   -6.2770    1.4540   -1.4430 C   0  0  0  0  0  0  0  0  0  0  0  0
   -5.1910    1.0500   -2.1780 C   0  0  0  0  0  0  0  0  0  0  0  0
   -4.2300    0.3200   -1.5060 C   0  0  0  0  0  0  0  0  0  0  0  0
   -1.9440   -0.4170    0.2610 C   0  0  0  0  0  0  0  0  0  0  0  0
   -1.7190    0.6350   -0.5870 O   0  0  0  0  0  0  0  0  0  0  0  0
    1.4810   -1.4780    1.2640 N   0  0  0  0  0  0  0  0  0  0  0  0
    2.6890   -0.9630    0.8940 C   0  0  0  0  0  0  0  0  0  0  0  0
    3.9850   -1.2700    1.1960 C   0  0  0  0  0  0  0  0  0  0  0  0
    5.0110   -0.5150    0.6220 C   0  0  0  0  0  0  0  0  0  0  0  0
    6.6580   -0.9580    1.0510 Cl  0  0  0  0  0  0  0  0  0  0  0  0
  1  2  1  0
  2  3  2  0
  2  4  1  0
  4  5  2  0
  4 25  1  0
  5  6  1  0
  6  7  1  0
  6 23  2  0
  7  8  2  0
  8  9  1  0
  8 22  1  0
  9 10  2  0
  9 20  1  0
 10 11  1  0
 11 12  2  0
 12 13  1  0
 13 14  1  0
 13 20  2  0
 14 15  2  0
 14 19  1  0
 15 16  1  0
 16 17  2  0
 17 18  1  0
 18 19  2  0
 20 21  1  0
 22 23  1  0
 23 24  1  0
 24 25  2  0
 25 26  1  0
M  CHG  1   3   1
M  END
