
     RDKit          3D

 22 24  0  0  0  0  0  0  0  0999 V2000
   -4.9860   -0.4630   -0.8340 C   0  0  0  0  0  0  0  0  0  0  0  0
   -4.3170   -0.1080    0.2460 C   0  0  0  0  0  0  0  0  0  0  0  0
   -4.8430    0.3970    1.5050 C   0  0  0  0  0  0  0  0  0  0  0  0
   -3.8110    0.6200    2.2960 C   0  0  0  0  0  0  0  0  0  0  0  0
   -2.5720    0.2760    1.6050 C   0  0  0  0  0  0  0  0  0  0  0  0
   -2.8470   -0.1570    0.3910 C   0  0  0  0  0  0  0  0  0  0  0  0
   -1.9910   -0.5940   -0.6210 O   0  0  0  0  0  0  0  0  0  0  0  0
   -0.6280   -0.4010   -0.5600 C   0  0  0  0  0  0  0  0  0  0  0  0
   -0.1420    0.7890   -1.1160 C   0  0  0  0  0  0  0  0  0  0  0  0
   -0.9980    1.7070   -1.6900 O   0  0  0  0  0  0  0  0  0  0  0  0
   -0.4460    2.8870   -2.2330 C   0  0  0  0  0  0  0  0  0  0  0  0
    1.2110    1.0370   -1.0840 C   0  0  0  0  0  0  0  0  0  0  0  0
    2.0790    0.1230   -0.5110 C   0  0  0  0  0  0  0  0  0  0  0  0
    3.4360    0.2910   -0.4390 O   0  0  0  0  0  0  0  0  0  0  0  0
    4.1700    1.3760   -0.9090 C   0  0  0  0  0  0  0  0  0  0  0  0
    3.6940    2.6220   -0.1960 C   0  0  0  0  0  0  0  0  0  0  0  0
    1.5480   -1.0490    0.0300 C   0  0  0  0  0  0  0  0  0  0  0  0
    0.2180   -1.3240    0.0150 C   0  0  0  0  0  0  0  0  0  0  0  0
   -0.3660   -2.5640    0.5840 C   0  0  0  0  0  0  0  0  0  0  0  0
    0.6190   -3.4200    1.2870 C   0  0  0  0  0  0  0  0  0  0  0  0
    1.8060   -2.7120    1.7180 N   0  0  0  0  0  0  0  0  0  0  0  0
    2.4670   -2.0360    0.6460 C   0  0  0  0  0  0  0  0  0  0  0  0
  1  2  2  0
  2  3  1  0
  2  6  1  0
  3  4  2  0
  4  5  1  0
  5  6  2  0
  6  7  1  0
  7  8  1  0
  8  9  2  0
  8 18  1  0
  9 10  1  0
  9 12  1  0
 10 11  1  0
 12 13  2  0
 13 14  1  0
 13 17  1  0
 14 15  1  0
 15 16  1  0
 17 18  2  0
 17 22  1  0
 18 19  1  0
 19 20  1  0
 20 21  1  0
 21 22  1  0
M  END
