
     RDKit          3D

  7  7  0  0  0  0  0  0  0  0999 V2000
    3.3550   -0.1780   -0.9560 C   0  0  0  0  0  0  0  0  0  0  0  0
    2.1960   -0.1460   -0.6000 C   0  0  0  0  0  0  0  0  0  0  0  0
    0.8260   -0.0950   -0.1720 C   0  0  0  0  0  0  0  0  0  0  0  0
    0.1520    0.8960    0.1550 N   0  0  0  0  0  0  0  0  0  0  0  0
   -1.1600    0.7940    0.5460 C   0  0  0  0  0  0  0  0  0  0  0  0
   -1.7330   -0.5600    0.4460 C   0  0  0  0  0  0  0  0  0  0  0  0
   -0.2500   -1.5410   -0.0160 S   0  0  0  0  0  0  0  0  0  0  0  0
  1  2  3  0
  2  3  1  0
  3  4  2  0
  3  7  1  0
  4  5  1  0
  5  6  1  0
  6  7  1  0
M  END
