
     RDKit          3D

  8  8  0  0  0  0  0  0  0  0999 V2000
    1.9890   -0.2670   -0.4380 C   0  0  0  0  0  0  0  0  0  0  0  0
    0.9090   -0.0270    0.6940 S   0  0  0  0  0  0  0  0  0  0  0  0
    2.1840    0.0300    1.8320 O   0  0  0  0  0  0  0  0  0  0  0  0
    0.2730    1.3900    0.1200 C   0  0  0  0  0  0  0  0  0  0  0  0
   -1.2620    1.2280    0.0230 C   0  0  0  0  0  0  0  0  0  0  0  0
   -1.4880   -0.0580   -0.7490 C   0  0  0  0  0  0  0  0  0  0  0  0
   -1.1970   -1.2690    0.1140 C   0  0  0  0  0  0  0  0  0  0  0  0
    0.1550   -1.4450    0.4380 N   0  0  0  0  0  0  0  0  0  0  0  0
  1  2  1  0
  2  3  2  0
  2  4  1  0
  2  8  1  0
  4  5  1  0
  5  6  1  0
  6  7  1  0
  7  8  1  0
M  END
