
     RDKit          3D

 22 24  0  0  0  0  0  0  0  0999 V2000
    4.6530    2.8210    0.7180 C   0  0  0  0  0  0  0  0  0  0  0  0
    3.6900    1.9370    0.4420 C   0  0  0  0  0  0  0  0  0  0  0  0
    4.0460    0.5950    0.0740 C   0  0  0  0  0  0  0  0  0  0  0  0
    3.2410   -0.3970   -0.2310 C   0  0  0  0  0  0  0  0  0  0  0  0
    3.8670   -1.6940   -0.5750 C   0  0  0  0  0  0  0  0  0  0  0  0
    5.0740   -1.6390   -0.8490 O   0  0  0  0  0  0  0  0  0  0  0  0
    3.2840   -3.0060   -0.6390 N   0  0  0  0  0  0  0  0  0  0  0  0
    1.9130   -3.2880   -0.3950 C   0  0  0  0  0  0  0  0  0  0  0  0
    1.5060   -4.3370   -0.9960 O   0  0  0  0  0  0  0  0  0  0  0  0
    0.9470   -2.5550    0.4270 C   0  0  0  0  0  0  0  0  0  0  0  0
    0.7900   -1.1460    0.0550 C   0  0  0  0  0  0  0  0  0  0  0  0
    1.7940   -0.2100   -0.2320 C   0  0  0  0  0  0  0  0  0  0  0  0
    1.2440    0.9450   -0.5250 O   0  0  0  0  0  0  0  0  0  0  0  0
   -0.0540    0.8220   -0.4480 C   0  0  0  0  0  0  0  0  0  0  0  0
   -1.0920    1.7140   -0.6540 C   0  0  0  0  0  0  0  0  0  0  0  0
   -2.4160    1.3170   -0.5010 C   0  0  0  0  0  0  0  0  0  0  0  0
   -3.5100    2.2930   -0.7280 C   0  0  0  0  0  0  0  0  0  0  0  0
   -2.7620    0.0310   -0.1420 C   0  0  0  0  0  0  0  0  0  0  0  0
   -4.1770   -0.3540    0.0110 C   0  0  0  0  0  0  0  0  0  0  0  0
   -4.8110    0.1350    1.2670 C   0  0  0  0  0  0  0  0  0  0  0  0
   -1.7190   -0.8540    0.0620 C   0  0  0  0  0  0  0  0  0  0  0  0
   -0.3970   -0.4640   -0.0890 C   0  0  0  0  0  0  0  0  0  0  0  0
  1  2  2  0
  2  3  1  0
  3  4  2  3
  4  5  1  0
  4 12  1  0
  5  6  2  0
  5  7  1  0
  7  8  1  0
  8  9  2  0
  8 10  1  0
 10 11  1  0
 11 12  2  0
 11 22  1  0
 12 13  1  0
 13 14  1  0
 14 15  2  0
 14 22  1  0
 15 16  1  0
 16 17  1  0
 16 18  2  0
 18 19  1  0
 18 21  1  0
 19 20  1  0
 21 22  2  0
M  END
