
     RDKit          3D

 22 24  0  0  0  0  0  0  0  0999 V2000
   -3.9010    3.4460   -0.7830 C   0  0  0  0  0  0  0  0  0  0  0  0
   -3.1270    2.2320   -0.2910 C   0  0  0  0  0  0  0  0  0  0  0  0
   -2.3650    1.5960   -1.4320 C   0  0  0  0  0  0  0  0  0  0  0  0
   -1.6180    0.4080   -0.9470 C   0  0  0  0  0  0  0  0  0  0  0  0
   -0.2510    0.5410   -0.6930 C   0  0  0  0  0  0  0  0  0  0  0  0
    0.4690   -0.5080   -0.2320 C   0  0  0  0  0  0  0  0  0  0  0  0
    1.8620   -0.4560    0.0330 N   0  0  0  0  0  0  0  0  0  0  0  0
    2.7340    0.5830   -0.3420 C   0  0  0  0  0  0  0  0  0  0  0  0
    2.3440    1.5750   -0.9620 O   0  0  0  0  0  0  0  0  0  0  0  0
    4.1530    0.4840    0.0170 C   0  0  0  0  0  0  0  0  0  0  0  0
    5.1050    1.3680   -0.2570 C   0  0  0  0  0  0  0  0  0  0  0  0
    6.3970    0.8970    0.2740 C   0  0  0  0  0  0  0  0  0  0  0  0
    6.0650   -0.3990    0.9040 C   0  0  0  0  0  0  0  0  0  0  0  0
    4.7750   -0.6030    0.7380 C   0  0  0  0  0  0  0  0  0  0  0  0
   -0.2280   -1.7120   -0.0290 C   0  0  0  0  0  0  0  0  0  0  0  0
   -1.5560   -1.8860   -0.2620 C   0  0  0  0  0  0  0  0  0  0  0  0
   -2.2680   -0.7850   -0.7380 C   0  0  0  0  0  0  0  0  0  0  0  0
   -3.6590   -1.1750   -0.9370 C   0  0  0  0  0  0  0  0  0  0  0  0
   -4.6450   -0.5160   -1.3480 O   0  0  0  0  0  0  0  0  0  0  0  0
   -3.7500   -2.5070   -0.5740 O   0  0  0  0  0  0  0  0  0  0  0  0
   -2.5030   -3.0030   -0.1390 C   0  0  2  0  0  0  0  0  0  0  0  0
   -2.6920   -3.4800    1.2850 C   0  0  0  0  0  0  0  0  0  0  0  0
  1  2  1  0
  2  3  1  0
  3  4  1  0
  4  5  2  0
  4 17  1  0
  5  6  1  0
  6  7  1  0
  6 15  2  0
  7  8  1  0
  8  9  2  0
  8 10  1  0
 10 11  2  0
 10 14  1  0
 11 12  1  0
 12 13  1  0
 13 14  2  0
 15 16  1  0
 16 17  2  0
 16 21  1  0
 17 18  1  0
 18 19  2  0
 18 20  1  0
 20 21  1  0
 21 22  1  1
M  END
