
     RDKit          3D

 25 27  0  0  0  0  0  0  0  0999 V2000
   -7.2540   -0.4060   -0.1340 C   0  0  0  0  0  0  0  0  0  0  0  0
   -5.7360   -0.5470   -0.2930 C   0  0  1  0  0  0  0  0  0  0  0  0
   -5.5050   -0.6610   -1.8020 C   0  0  0  0  0  0  0  0  0  0  0  0
   -5.0840    0.6830    0.2400 C   0  0  0  0  0  0  0  0  0  0  0  0
   -3.7240    0.7630    0.1950 O   0  0  0  0  0  0  0  0  0  0  0  0
   -2.7140    0.0530    0.7480 C   0  0  0  0  0  0  0  0  0  0  0  0
   -2.8600   -1.0090    1.5840 C   0  0  0  0  0  0  0  0  0  0  0  0
   -1.7280   -1.6300    2.0640 C   0  0  0  0  0  0  0  0  0  0  0  0
   -0.4720   -1.2120    1.7280 C   0  0  0  0  0  0  0  0  0  0  0  0
   -0.2790   -0.1090    0.8620 C   0  0  0  0  0  0  0  0  0  0  0  0
    1.1130    0.2240    0.5510 C   0  0  0  0  0  0  0  0  0  0  0  0
    2.1520   -0.6460    0.6980 N   0  0  0  0  0  0  0  0  0  0  0  0
    3.2840   -0.0750    0.2790 C   0  0  0  0  0  0  0  0  0  0  0  0
    4.5810   -0.5410    0.2240 C   0  0  0  0  0  0  0  0  0  0  0  0
    5.5940    0.2940   -0.2760 C   0  0  0  0  0  0  0  0  0  0  0  0
    6.9590   -0.2090   -0.3310 C   0  0  0  0  0  0  0  0  0  0  0  0
    7.1730   -1.5510    0.1420 N   0  0  0  0  0  0  0  0  0  0  0  0
    7.9520    0.4440   -0.7600 N   0  0  0  0  0  0  0  0  0  0  0  0
    5.2510    1.5600   -0.6960 C   0  0  0  0  0  0  0  0  0  0  0  0
    6.1200    2.4520   -1.1920 F   0  0  0  0  0  0  0  0  0  0  0  0
    3.9250    2.0040   -0.6270 C   0  0  0  0  0  0  0  0  0  0  0  0
    2.9480    1.1790   -0.1380 C   0  0  0  0  0  0  0  0  0  0  0  0
    1.6040    1.3340    0.0430 N   0  0  0  0  0  0  0  0  0  0  0  0
   -1.3980    0.5060    0.3840 C   0  0  0  0  0  0  0  0  0  0  0  0
   -1.3320    1.5600   -0.4570 O   0  0  0  0  0  0  0  0  0  0  0  0
  2  1  1  6
  2  3  1  0
  2  4  1  0
  4  5  1  0
  5  6  1  0
  6  7  2  0
  6 24  1  0
  7  8  1  0
  8  9  2  0
  9 10  1  0
 10 11  1  0
 10 24  2  0
 11 12  2  0
 11 23  1  0
 12 13  1  0
 13 14  2  0
 13 22  1  0
 14 15  1  0
 15 16  1  0
 15 19  2  0
 16 17  1  0
 16 18  2  0
 19 20  1  0
 19 21  1  0
 21 22  2  0
 22 23  1  0
 24 25  1  0
M  CHG  1  18   1
M  END
