
     RDKit          3D

 21 22  0  0  0  0  0  0  0  0999 V2000
    6.2210    1.1530    0.6130 O   0  0  0  0  0  0  0  0  0  0  0  0
    6.0720   -0.2200    0.4300 C   0  0  0  0  0  0  0  0  0  0  0  0
    4.8500   -0.5860   -0.3550 C   0  0  0  0  0  0  0  0  0  0  0  0
    3.5590   -0.1270    0.2970 C   0  0  0  0  0  0  0  0  0  0  0  0
    2.5260   -0.5400   -0.5630 O   0  0  0  0  0  0  0  0  0  0  0  0
    1.1900   -0.3470   -0.4140 C   0  0  0  0  0  0  0  0  0  0  0  0
    0.6620    0.3150    0.6710 C   0  0  0  0  0  0  0  0  0  0  0  0
   -0.7210    0.5000    0.7930 C   0  0  0  0  0  0  0  0  0  0  0  0
   -1.2650    1.1670    1.8840 O   0  0  0  0  0  0  0  0  0  0  0  0
   -1.5140   -0.0030   -0.2070 C   0  0  0  0  0  0  0  0  0  0  0  0
   -2.9730    0.1450   -0.1000 C   0  0  0  0  0  0  0  0  0  0  0  0
   -3.6590   -0.3460    0.9950 C   0  0  0  0  0  0  0  0  0  0  0  0
   -5.0510   -0.2880    1.1030 C   0  0  0  0  0  0  0  0  0  0  0  0
   -5.7350   -0.7800    2.2030 O   0  0  0  0  0  0  0  0  0  0  0  0
   -5.7230    0.2940    0.0470 C   0  0  0  0  0  0  0  0  0  0  0  0
   -5.0600    0.7880   -1.0480 C   0  0  0  0  0  0  0  0  0  0  0  0
   -3.6700    0.7300   -1.1540 C   0  0  0  0  0  0  0  0  0  0  0  0
   -3.0280    1.2380   -2.2570 O   0  0  0  0  0  0  0  0  0  0  0  0
   -0.9770   -0.6740   -1.3030 C   0  0  0  0  0  0  0  0  0  0  0  0
    0.3750   -0.8590   -1.4290 C   0  0  0  0  0  0  0  0  0  0  0  0
    0.9230   -1.5270   -2.5190 O   0  0  0  0  0  0  0  0  0  0  0  0
  1  2  1  0
  2  3  1  0
  3  4  1  0
  4  5  1  0
  5  6  1  0
  6  7  2  0
  6 20  1  0
  7  8  1  0
  8  9  1  0
  8 10  2  0
 10 11  1  0
 10 19  1  0
 11 12  2  0
 11 17  1  0
 12 13  1  0
 13 14  1  0
 13 15  2  0
 15 16  1  0
 16 17  2  0
 17 18  1  0
 19 20  2  0
 20 21  1  0
M  END
