
     RDKit          3D

 20 21  0  0  0  0  0  0  0  0999 V2000
    3.4030   -3.5750   -0.3950 C   0  0  0  0  0  0  0  0  0  0  0  0
    3.2840   -2.3640    0.3240 O   0  0  0  0  0  0  0  0  0  0  0  0
    2.1740   -1.5450    0.1410 C   0  0  0  0  0  0  0  0  0  0  0  0
    1.3710   -1.3220    1.1640 C   0  0  0  0  0  0  0  0  0  0  0  0
    0.1870   -0.4550    0.9890 C   0  0  0  0  0  0  0  0  0  0  0  0
   -0.5550   -0.2800    2.0110 O   0  0  0  0  0  0  0  0  0  0  0  0
   -0.0650    0.1330   -0.3030 C   0  0  0  0  0  0  0  0  0  0  0  0
   -1.0650    0.9290   -0.5130 C   0  0  0  0  0  0  0  0  0  0  0  0
   -2.0800    1.4020    0.3760 C   0  0  0  0  0  0  0  0  0  0  0  0
   -1.8070    2.0760    1.5460 C   0  0  0  0  0  0  0  0  0  0  0  0
   -2.8160    2.5040    2.4150 C   0  0  0  0  0  0  0  0  0  0  0  0
   -2.4350    3.1780    3.5760 O   0  0  0  0  0  0  0  0  0  0  0  0
   -4.1340    2.2540    2.1110 C   0  0  0  0  0  0  0  0  0  0  0  0
   -4.4030    1.5810    0.9380 C   0  0  0  0  0  0  0  0  0  0  0  0
   -3.4120    1.1520    0.0720 C   0  0  0  0  0  0  0  0  0  0  0  0
   -3.6750    0.4740   -1.1080 O   0  0  0  0  0  0  0  0  0  0  0  0
    0.8960   -0.1860   -1.3650 C   0  0  0  0  0  0  0  0  0  0  0  0
    1.9440   -0.9640   -1.1780 C   0  0  0  0  0  0  0  0  0  0  0  0
    2.8470   -1.2520   -2.2150 O   0  0  0  0  0  0  0  0  0  0  0  0
    3.9950   -0.4140   -2.2690 C   0  0  0  0  0  0  0  0  0  0  0  0
  1  2  1  0
  2  3  1  0
  3  4  2  0
  3 18  1  0
  4  5  1  0
  5  6  2  0
  5  7  1  0
  7  8  2  3
  7 17  1  0
  8  9  1  0
  9 10  2  0
  9 15  1  0
 10 11  1  0
 11 12  1  0
 11 13  2  0
 13 14  1  0
 14 15  2  0
 15 16  1  0
 17 18  2  0
 18 19  1  0
 19 20  1  0
M  END
