
     RDKit          3D

 16 15  0  0  0  0  0  0  0  0999 V2000
   -2.7540   -4.7330    0.4010 C   0  0  0  0  0  0  0  0  0  0  0  0
   -1.8810   -3.7100   -0.2100 C   0  0  0  0  0  0  0  0  0  0  0  0
   -1.9860   -2.4470    0.1610 C   0  0  0  0  0  0  0  0  0  0  0  0
   -1.1520   -1.3900   -0.4060 C   0  0  0  0  0  0  0  0  0  0  0  0
   -1.3060   -0.1640    0.0040 C   0  0  0  0  0  0  0  0  0  0  0  0
   -0.5190    0.9470   -0.5080 C   0  0  0  0  0  0  0  0  0  0  0  0
   -0.7830    2.1470    0.0160 C   0  0  0  0  0  0  0  0  0  0  0  0
   -0.1480    3.3900   -0.3160 C   0  0  0  0  0  0  0  0  0  0  0  0
   -0.4710    4.5490    0.2500 C   0  0  0  0  0  0  0  0  0  0  0  0
    0.1490    5.7690   -0.0720 N   0  0  0  0  0  0  0  0  0  0  0  0
    0.6560    0.6920   -1.7310 S   0  0  1  0  0  0  0  0  0  0  0  0
    0.2760   -0.3940   -2.7300 O   0  0  0  0  0  0  0  0  0  0  0  0
    0.8890    1.9070   -2.6160 O   0  0  0  0  0  0  0  0  0  0  0  0
    2.1830    0.3390   -1.0150 N   0  0  0  0  0  0  0  0  0  0  0  0
    2.1900   -0.8530   -0.2160 C   0  0  0  0  0  0  0  0  0  0  0  0
    3.5770   -1.0950    0.3840 C   0  0  0  0  0  0  0  0  0  0  0  0
  1  2  1  0
  2  3  2  3
  3  4  1  0
  4  5  2  3
  5  6  1  0
  6  7  2  3
  6 11  1  0
  7  8  1  0
  8  9  2  3
  9 10  1  0
 11 12  2  0
 11 13  2  0
 11 14  1  1
 14 15  1  0
 15 16  1  0
M  END
