
     RDKit          3D

 16 16  0  0  0  0  0  0  0  0999 V2000
    4.5950    2.7180   -1.6400 N   0  0  0  0  0  0  0  0  0  0  0  0
    4.0330    1.5290   -1.6820 C   0  0  0  0  0  0  0  0  0  0  0  0
    3.4740    0.2910   -1.7200 C   0  0  0  0  0  0  0  0  0  0  0  0
    2.0960    0.1930   -2.3390 C   0  0  0  0  0  0  0  0  0  0  0  0
    1.0840    1.0760   -1.6850 C   0  0  0  0  0  0  0  0  0  0  0  0
    1.0080    0.7820   -0.1800 C   0  0  0  0  0  0  0  0  0  0  0  0
    0.6500   -0.6000    0.1630 C   0  0  0  0  0  0  0  0  0  0  0  0
   -0.6380   -1.1170   -0.1670 N   0  0  0  0  0  0  0  0  0  0  0  0
   -1.7980   -0.7650    0.6220 C   0  0  0  0  0  0  0  0  0  0  0  0
   -2.9310   -1.4000    0.3890 C   0  0  0  0  0  0  0  0  0  0  0  0
   -4.1870   -1.1670    1.0950 C   0  0  0  0  0  0  0  0  0  0  0  0
   -5.2490   -1.6330    0.6760 O   0  0  0  0  0  0  0  0  0  0  0  0
   -4.1070   -0.1890    2.5640 S   0  0  0  0  0  0  0  0  0  0  0  0
   -4.6290   -0.8360    3.7940 O   0  0  0  0  0  0  0  0  0  0  0  0
   -2.5470    0.5050    2.5980 C   0  0  0  0  0  0  0  0  0  0  0  0
   -1.5970    0.2020    1.7320 C   0  0  0  0  0  0  0  0  0  0  0  0
  1  2  3  0
  2  3  1  0
  3  4  1  0
  4  5  1  0
  5  6  1  0
  6  7  1  0
  7  8  1  0
  8  9  1  0
  9 10  2  0
  9 16  1  0
 10 11  1  0
 11 12  2  0
 11 13  1  0
 13 14  2  0
 13 15  1  1
 15 16  2  0
M  END
