
     RDKit          3D

 16 16  0  0  0  0  0  0  0  0999 V2000
   -0.1130   -2.3200   -0.2950 C   0  0  0  0  0  0  0  0  0  0  0  0
   -0.9450   -1.1110   -0.1280 C   0  0  0  0  0  0  0  0  0  0  0  0
   -2.2630   -1.3260   -0.1930 C   0  0  0  0  0  0  0  0  0  0  0  0
   -3.5220   -0.5770   -0.1080 C   0  0  0  0  0  0  0  0  0  0  0  0
   -3.5590    0.6010   -0.9140 N   0  0  0  0  0  0  0  0  0  0  0  0
   -2.7870    1.7800   -1.0790 C   0  0  0  0  0  0  0  0  0  0  0  0
   -1.5440    2.1150   -0.7940 C   0  0  0  0  0  0  0  0  0  0  0  0
   -0.4060    1.4030   -0.1750 C   0  0  0  0  0  0  0  0  0  0  0  0
   -0.1940    0.1240    0.0780 C   0  0  0  0  0  0  0  0  0  0  0  0
    1.1030   -0.1790    0.7330 C   0  0  2  0  0  0  0  0  0  0  0  0
    0.7950   -0.7940    2.0700 C   0  0  0  0  0  0  0  0  0  0  0  0
    1.9330    0.9620    0.9150 N   0  0  0  0  0  0  0  0  0  0  0  0
    3.3960    0.8280    0.0310 S   0  0  1  0  0  0  0  0  0  0  0  0
    3.1770    0.7110   -1.6940 C   0  0  0  0  0  0  0  0  0  0  0  0
    4.2200    2.0710    0.3310 O   0  0  0  0  0  0  0  0  0  0  0  0
    4.2410   -0.3320    0.5300 O   0  0  0  0  0  0  0  0  0  0  0  0
  1  2  1  0
  2  3  2  0
  2  9  1  0
  3  4  1  0
  4  5  1  0
  5  6  1  0
  6  7  2  0
  7  8  1  0
  8  9  2  0
  9 10  1  0
 10 11  1  1
 10 12  1  0
 12 13  1  0
 13 14  1  6
 13 15  2  0
 13 16  2  0
M  END
