
     RDKit          3D

 21 22  0  0  0  0  0  0  0  0999 V2000
   -3.0450   -1.1430   -1.2180 C   0  0  0  0  0  0  0  0  0  0  0  0
   -3.3840    0.1360   -0.9720 C   0  0  0  0  0  0  0  0  0  0  0  0
   -4.2630    0.8810   -1.7310 O   0  0  0  0  0  0  0  0  0  0  0  0
   -4.3570    2.1570   -1.1620 C   0  0  0  0  0  0  0  0  0  0  0  0
   -3.4540    2.1120    0.0080 C   0  0  0  0  0  0  0  0  0  0  0  0
   -2.8710    0.9380    0.1420 C   0  0  0  0  0  0  0  0  0  0  0  0
   -1.8960    0.4730    1.1790 C   0  0  2  0  0  0  0  0  0  0  0  0
   -1.6140    1.4930    2.0860 O   0  0  0  0  0  0  0  0  0  0  0  0
   -0.6080    0.0550    0.5810 C   0  0  0  0  0  0  0  0  0  0  0  0
   -0.0080    0.8310   -0.3890 C   0  0  0  0  0  0  0  0  0  0  0  0
    1.1950    0.4790   -0.9750 C   0  0  0  0  0  0  0  0  0  0  0  0
    1.8110    1.2490   -1.9520 O   0  0  0  0  0  0  0  0  0  0  0  0
    1.8270   -0.6840   -0.5870 C   0  0  0  0  0  0  0  0  0  0  0  0
    3.0520   -1.0600   -1.1710 O   0  0  0  0  0  0  0  0  0  0  0  0
    4.2600   -0.6560   -0.6320 C   0  0  0  0  0  0  0  0  0  0  0  0
    4.2250    0.0550    0.3940 O   0  0  0  0  0  0  0  0  0  0  0  0
    5.5720   -1.0260   -1.2090 C   0  0  0  0  0  0  0  0  0  0  0  0
    6.5880   -0.4800   -0.4590 O   0  0  0  0  0  0  0  0  0  0  0  0
    1.2360   -1.4530    0.3710 C   0  0  0  0  0  0  0  0  0  0  0  0
    0.0380   -1.1030    0.9560 C   0  0  0  0  0  0  0  0  0  0  0  0
   -0.5390   -1.9870    1.9860 C   0  0  0  0  0  0  0  0  0  0  0  0
  1  2  2  0
  2  3  1  0
  2  6  1  0
  3  4  1  0
  4  5  1  0
  5  6  2  0
  6  7  1  0
  7  8  1  1
  7  9  1  0
  9 10  2  0
  9 20  1  0
 10 11  1  0
 11 12  1  0
 11 13  2  0
 13 14  1  0
 13 19  1  0
 14 15  1  0
 15 16  2  0
 15 17  1  0
 17 18  1  0
 19 20  2  0
 20 21  1  0
M  END
