
     RDKit          3D

 16 16  0  0  0  0  0  0  0  0999 V2000
   -3.6840   -0.7620   -2.5920 C   0  0  0  0  0  0  0  0  0  0  0  0
   -3.2760   -0.3540   -1.2080 C   0  0  0  0  0  0  0  0  0  0  0  0
   -1.9920   -0.9420   -0.8650 N   0  0  0  0  0  0  0  0  0  0  0  0
   -1.3630   -0.7210    0.3760 C   0  0  0  0  0  0  0  0  0  0  0  0
   -0.1730   -0.1510    0.6280 C   0  0  0  0  0  0  0  0  0  0  0  0
    0.7630    0.3910   -0.3610 C   0  0  0  0  0  0  0  0  0  0  0  0
    0.3220    0.3140   -1.8260 C   0  0  0  0  0  0  0  0  0  0  0  0
    1.9100    0.9600   -0.1830 C   0  0  0  0  0  0  0  0  0  0  0  0
    2.6870    1.4240   -1.4250 C   0  0  0  0  0  0  0  0  0  0  0  0
    2.6880    1.3160    1.3060 S   0  0  1  0  0  0  0  0  0  0  0  0
    3.7020   -0.0020    1.9280 C   0  0  0  0  0  0  0  0  0  0  0  0
    3.7310    2.4450    0.9790 O   0  0  0  0  0  0  0  0  0  0  0  0
    1.8230    1.8480    2.3930 O   0  0  0  0  0  0  0  0  0  0  0  0
    0.0290   -0.2570    2.1040 C   0  0  0  0  0  0  0  0  0  0  0  0
   -0.7750   -1.5010    2.4030 N   0  0  0  0  0  0  0  0  0  0  0  0
   -1.9720   -1.0770    1.7190 C   0  0  0  0  0  0  0  0  0  0  0  0
  1  2  1  0
  2  3  1  0
  3  4  1  0
  4  5  2  0
  4 16  1  0
  5  6  1  0
  5 14  1  0
  6  7  1  0
  6  8  2  3
  8  9  1  0
  8 10  1  0
 10 11  1  1
 10 12  2  0
 10 13  2  0
 14 15  1  0
 15 16  1  0
M  END
