
     RDKit          3D

 28 30  0  0  0  0  0  0  0  0999 V2000
   -7.2740   -0.0850    1.8980 C   0  0  0  0  0  0  0  0  0  0  0  0
   -6.3840    0.9720    2.3140 N   0  0  0  0  0  0  0  0  0  0  0  0
   -5.1820    1.0350    1.5370 C   0  0  0  0  0  0  0  0  0  0  0  0
   -4.3800   -0.2370    1.5960 C   0  0  0  0  0  0  0  0  0  0  0  0
   -3.1640   -0.1840    0.7980 N   0  0  0  0  0  0  0  0  0  0  0  0
   -3.1880   -0.1750   -0.6160 C   0  0  0  0  0  0  0  0  0  0  0  0
   -4.4210   -0.4060   -1.2540 C   0  0  0  0  0  0  0  0  0  0  0  0
   -4.5520   -0.4520   -2.6170 C   0  0  0  0  0  0  0  0  0  0  0  0
   -5.8630   -0.6970   -3.2790 C   0  0  0  0  0  0  0  0  0  0  0  0
   -3.4130   -0.2610   -3.3560 C   0  0  0  0  0  0  0  0  0  0  0  0
   -2.1870   -0.0320   -2.7190 C   0  0  0  0  0  0  0  0  0  0  0  0
   -2.0460    0.0170   -1.3510 C   0  0  0  0  0  0  0  0  0  0  0  0
   -0.8070    0.2680   -0.7030 N   0  0  0  0  0  0  0  0  0  0  0  0
    0.4500    0.4380   -1.3020 C   0  0  0  0  0  0  0  0  0  0  0  0
    0.5680    0.3700   -2.5450 O   0  0  0  0  0  0  0  0  0  0  0  0
    1.6610    0.6980   -0.4840 C   0  0  0  0  0  0  0  0  0  0  0  0
    1.5550    0.7670    0.7570 O   0  0  0  0  0  0  0  0  0  0  0  0
    2.9340    0.8710   -1.0700 N   0  0  0  0  0  0  0  0  0  0  0  0
    4.1440    1.1240   -0.3490 C   0  0  0  0  0  0  0  0  0  0  0  0
    4.4920    0.0250    0.6340 C   0  0  1  0  0  0  0  0  0  0  0  0
    4.6700   -1.2750   -0.0820 C   0  0  0  0  0  0  0  0  0  0  0  0
    6.1040   -1.3060   -0.5470 C   0  0  0  0  0  0  0  0  0  0  0  0
    6.7870   -0.4520    0.4540 C   0  0  0  0  0  0  0  0  0  0  0  0
    8.1370   -0.3640    0.7380 C   0  0  0  0  0  0  0  0  0  0  0  0
    8.6080    0.5030    1.7230 C   0  0  0  0  0  0  0  0  0  0  0  0
    7.6980    1.2700    2.4050 C   0  0  0  0  0  0  0  0  0  0  0  0
    6.3600    1.1660    2.1060 C   0  0  0  0  0  0  0  0  0  0  0  0
    5.8690    0.3110    1.1310 C   0  0  0  0  0  0  0  0  0  0  0  0
  1  2  1  0
  2  3  1  0
  3  4  1  0
  4  5  1  0
  5  6  1  0
  6  7  2  0
  6 12  1  0
  7  8  1  0
  8  9  1  0
  8 10  2  0
 10 11  1  0
 11 12  2  0
 12 13  1  0
 13 14  1  0
 14 15  2  0
 14 16  1  0
 16 17  2  0
 16 18  1  0
 18 19  1  0
 20 19  1  6
 20 21  1  0
 20 28  1  0
 21 22  1  0
 22 23  1  0
 23 24  2  0
 23 28  1  0
 24 25  1  0
 25 26  2  0
 26 27  1  0
 27 28  2  0
M  CHG  1   2   1
M  END
