
     RDKit          3D

 28 30  0  0  0  0  0  0  0  0999 V2000
    5.0850   -3.0860   -0.8520 C   0  0  0  0  0  0  0  0  0  0  0  0
    5.1490   -1.6040   -0.6610 C   0  0  0  0  0  0  0  0  0  0  0  0
    3.9500   -0.9070   -0.8510 C   0  0  0  0  0  0  0  0  0  0  0  0
    3.9100    0.4500   -0.6980 C   0  0  0  0  0  0  0  0  0  0  0  0
    2.6710    1.2470   -0.8820 C   0  0  0  0  0  0  0  0  0  0  0  0
    2.0760    1.6730    0.4410 C   0  0  0  0  0  0  0  0  0  0  0  0
    1.6770    0.5470    1.3300 C   0  0  0  0  0  0  0  0  0  0  0  0
    0.6410   -0.3740    0.7960 C   0  0  0  0  0  0  0  0  0  0  0  0
   -0.6490    0.3020    0.4980 C   0  0  0  0  0  0  0  0  0  0  0  0
   -0.7580    1.5030    0.7250 O   0  0  0  0  0  0  0  0  0  0  0  0
   -1.7320   -0.4020   -0.0320 N   0  0  0  0  0  0  0  0  0  0  0  0
   -3.0360    0.0810   -0.3730 C   0  0  1  0  0  0  0  0  0  0  0  0
   -3.7760   -1.1250   -0.9440 C   0  0  0  0  0  0  0  0  0  0  0  0
   -3.9430   -2.3250   -0.1610 C   0  0  2  0  0  0  0  0  0  0  0  0
   -4.7210   -3.3020   -1.1000 C   0  0  0  0  0  0  0  0  0  0  0  0
   -4.7660   -2.3100    1.0220 N   0  0  0  0  0  0  0  0  0  0  0  0
   -3.7740    0.5120    0.8350 C   0  0  0  0  0  0  0  0  0  0  0  0
   -3.9980    1.9910    1.0190 C   0  0  0  0  0  0  0  0  0  0  0  0
   -4.5400    2.5190   -0.3040 C   0  0  0  0  0  0  0  0  0  0  0  0
   -3.2820    2.4860   -1.1870 C   0  0  0  0  0  0  0  0  0  0  0  0
   -3.0370    1.0640   -1.5170 C   0  0  0  0  0  0  0  0  0  0  0  0
    5.1060    1.0940   -0.3500 C   0  0  0  0  0  0  0  0  0  0  0  0
    5.3980    2.3790   -0.1330 N   0  0  0  0  0  0  0  0  0  0  0  0
    6.7230    2.4570    0.1770 C   0  0  0  0  0  0  0  0  0  0  0  0
    7.3640    3.5200    0.4470 O   0  0  0  0  0  0  0  0  0  0  0  0
    7.2710    1.2310    0.1570 N   0  0  0  0  0  0  0  0  0  0  0  0
    6.2700    0.3990   -0.1680 C   0  0  0  0  0  0  0  0  0  0  0  0
    6.3160   -0.9760   -0.3220 C   0  0  0  0  0  0  0  0  0  0  0  0
  1  2  1  0
  2  3  2  0
  2 28  1  0
  3  4  1  0
  4  5  1  0
  4 22  2  0
  5  6  1  0
  6  7  1  0
  7  8  1  0
  8  9  1  0
  9 10  2  0
  9 11  1  0
 11 12  1  0
 12 13  1  6
 12 17  1  0
 12 21  1  0
 13 14  1  0
 14 15  1  6
 14 16  1  0
 17 18  1  0
 18 19  1  0
 19 20  1  0
 20 21  1  0
 22 23  1  0
 22 27  1  0
 23 24  1  0
 24 25  2  0
 24 26  1  0
 26 27  1  0
 27 28  2  0
M  CHG  1  16   1
M  END
