
     RDKit          3D

 28 30  0  0  0  0  0  0  0  0999 V2000
   -1.3640    1.5200    4.4130 C   0  0  0  0  0  0  0  0  0  0  0  0
   -1.2360    1.2650    2.9570 C   0  0  0  0  0  0  0  0  0  0  0  0
   -0.0400    0.9890    2.3560 C   0  0  0  0  0  0  0  0  0  0  0  0
    0.1140    0.7280    1.0120 C   0  0  0  0  0  0  0  0  0  0  0  0
    1.4090    0.5980    0.4160 C   0  0  0  0  0  0  0  0  0  0  0  0
    1.7040    1.3230   -0.6020 O   0  0  0  0  0  0  0  0  0  0  0  0
    2.4530   -0.2600    0.8170 N   0  0  0  0  0  0  0  0  0  0  0  0
    3.7150   -0.2470    0.0420 C   0  0  0  0  0  0  0  0  0  0  0  0
    4.7900   -1.0930    0.6090 C   0  0  0  0  0  0  0  0  0  0  0  0
    6.0130   -0.8660   -0.3180 C   0  0  0  0  0  0  0  0  0  0  0  0
    7.2180   -1.5490    0.1380 C   0  0  0  0  0  0  0  0  0  0  0  0
    8.5250   -0.9630   -0.0140 N   0  0  0  0  0  0  0  0  0  0  0  0
    7.0920   -2.6680    0.6690 O   0  0  0  0  0  0  0  0  0  0  0  0
   -1.0700    0.7500    0.2360 C   0  0  0  0  0  0  0  0  0  0  0  0
   -0.8710    0.3960   -1.1570 C   0  0  0  0  0  0  0  0  0  0  0  0
   -1.5120   -0.8490   -1.6210 N   0  0  0  0  0  0  0  0  0  0  0  0
   -0.7100   -1.9400   -0.9650 C   0  0  0  0  0  0  0  0  0  0  0  0
   -1.4390   -3.1660   -1.4310 C   0  0  0  0  0  0  0  0  0  0  0  0
   -2.8720   -2.7230   -1.5090 C   0  0  0  0  0  0  0  0  0  0  0  0
   -2.7720   -1.1910   -1.1840 C   0  0  0  0  0  0  0  0  0  0  0  0
   -2.2660    1.0340    0.7900 C   0  0  0  0  0  0  0  0  0  0  0  0
   -3.4180    1.4770    0.0150 C   0  0  0  0  0  0  0  0  0  0  0  0
   -3.1140    2.5800   -0.8340 C   0  0  0  0  0  0  0  0  0  0  0  0
   -4.0680    3.1860   -1.6210 C   0  0  0  0  0  0  0  0  0  0  0  0
   -5.3370    2.7520   -1.6130 N   0  0  0  0  0  0  0  0  0  0  0  0
   -5.6320    1.7030   -0.8050 C   0  0  0  0  0  0  0  0  0  0  0  0
   -4.6910    1.0780   -0.0020 C   0  0  0  0  0  0  0  0  0  0  0  0
   -2.3710    1.2940    2.1790 C   0  0  0  0  0  0  0  0  0  0  0  0
  1  2  1  0
  2  3  2  0
  2 28  1  0
  3  4  1  0
  4  5  1  0
  4 14  2  0
  5  6  2  0
  5  7  1  0
  7  8  1  0
  8  9  1  0
  9 10  1  0
 10 11  1  0
 11 12  1  0
 11 13  2  0
 14 15  1  0
 14 21  1  0
 15 16  1  0
 16 17  1  0
 16 20  1  0
 17 18  1  0
 18 19  1  0
 19 20  1  0
 21 22  1  0
 21 28  2  0
 22 23  2  0
 22 27  1  0
 23 24  1  0
 24 25  2  0
 25 26  1  0
 26 27  2  0
M  CHG  1  25   1
M  END
