
     RDKit          3D

 28 30  0  0  0  0  0  0  0  0999 V2000
    8.9720   -0.8240    0.8870 C   0  0  0  0  0  0  0  0  0  0  0  0
    8.3900   -0.6090   -0.4970 C   0  0  2  0  0  0  0  0  0  0  0  0
    9.2710    0.2330   -1.3660 C   0  0  0  0  0  0  0  0  0  0  0  0
    7.0590    0.0450   -0.3590 C   0  0  0  0  0  0  0  0  0  0  0  0
    5.8100   -0.4900   -0.6540 C   0  0  0  0  0  0  0  0  0  0  0  0
    4.8320    0.4420   -0.3950 C   0  0  0  0  0  0  0  0  0  0  0  0
    3.3840    0.2820   -0.5590 C   0  0  0  0  0  0  0  0  0  0  0  0
    2.5760    1.2040   -0.3130 O   0  0  0  0  0  0  0  0  0  0  0  0
    2.8520   -0.9310   -1.0020 O   0  0  0  0  0  0  0  0  0  0  0  0
    1.4620   -1.0880   -1.1560 C   0  0  0  0  0  0  0  0  0  0  0  0
    0.7320   -0.8860    0.1150 C   0  0  0  0  0  0  0  0  0  0  0  0
    1.3330   -0.7870    1.3400 C   0  0  0  0  0  0  0  0  0  0  0  0
    0.5650   -0.5900    2.4600 C   0  0  0  0  0  0  0  0  0  0  0  0
   -0.7990   -0.4890    2.3710 C   0  0  0  0  0  0  0  0  0  0  0  0
   -1.4540   -0.5850    1.1360 C   0  0  0  0  0  0  0  0  0  0  0  0
   -2.8530   -0.4860    1.0870 N   0  0  0  0  0  0  0  0  0  0  0  0
   -3.5900   -0.4710   -0.1360 C   0  0  2  0  0  0  0  0  0  0  0  0
   -3.2860    0.7440   -0.9690 C   0  0  0  0  0  0  0  0  0  0  0  0
   -4.5730    1.4890   -1.2350 C   0  0  0  0  0  0  0  0  0  0  0  0
   -5.2630    1.7340    0.0900 C   0  0  0  0  0  0  0  0  0  0  0  0
   -5.6180    0.5130    0.7390 N   0  0  0  0  0  0  0  0  0  0  0  0
   -6.9080    0.4130    1.2690 C   0  0  0  0  0  0  0  0  0  0  0  0
   -8.0670    0.3490    0.3400 C   0  0  0  0  0  0  0  0  0  0  0  0
   -8.0990   -0.7680   -0.5570 N   0  0  0  0  0  0  0  0  0  0  0  0
   -5.0900   -0.6510    0.1160 C   0  0  0  0  0  0  0  0  0  0  0  0
   -0.6620   -0.7830    0.0330 C   0  0  0  0  0  0  0  0  0  0  0  0
    5.4900    1.5610    0.0630 C   0  0  0  0  0  0  0  0  0  0  0  0
    6.8130    1.2970    0.0740 N   0  0  0  0  0  0  0  0  0  0  0  0
  2  1  1  1
  2  3  1  0
  2  4  1  0
  4  5  2  0
  4 28  1  0
  5  6  1  0
  6  7  1  0
  6 27  2  0
  7  8  2  0
  7  9  1  0
  9 10  1  0
 10 11  1  0
 11 12  2  0
 11 26  1  0
 12 13  1  0
 13 14  2  0
 14 15  1  0
 15 16  1  0
 15 26  2  0
 17 16  1  1
 17 18  1  0
 17 25  1  0
 18 19  1  0
 19 20  1  0
 20 21  1  0
 21 22  1  0
 21 25  1  0
 22 23  1  0
 23 24  1  0
 27 28  1  0
M  CHG  1  24   1
M  END
