
     RDKit          3D

 28 30  0  0  0  0  0  0  0  0999 V2000
    8.6740    0.4610    1.7590 C   0  0  0  0  0  0  0  0  0  0  0  0
    7.6010    0.7580    0.9800 C   0  0  0  0  0  0  0  0  0  0  0  0
    6.6670    1.6750    1.4770 N   0  0  0  0  0  0  0  0  0  0  0  0
    7.4990    0.1230   -0.3380 C   0  0  0  0  0  0  0  0  0  0  0  0
    6.3990   -0.7190   -0.6150 N   0  0  0  0  0  0  0  0  0  0  0  0
    5.0210   -0.3710   -0.6830 C   0  0  0  0  0  0  0  0  0  0  0  0
    4.7700    0.8410   -0.4820 O   0  0  0  0  0  0  0  0  0  0  0  0
    3.9870   -1.3410   -0.9540 C   0  0  0  0  0  0  0  0  0  0  0  0
    2.7030   -1.2220   -1.0880 C   0  0  0  0  0  0  0  0  0  0  0  0
    1.8060   -2.3910   -1.3580 C   0  0  0  0  0  0  0  0  0  0  0  0
    0.4240   -2.1410   -0.8560 C   0  0  0  0  0  0  0  0  0  0  0  0
    0.3980   -1.1450    0.2560 C   0  0  2  0  0  0  0  0  0  0  0  0
   -0.8470   -1.0940    1.0600 C   0  0  0  0  0  0  0  0  0  0  0  0
   -2.0610   -0.7620    0.3000 C   0  0  0  0  0  0  0  0  0  0  0  0
   -1.9540   -0.5410   -0.9330 O   0  0  0  0  0  0  0  0  0  0  0  0
   -3.3490   -0.6780    0.8920 N   0  0  0  0  0  0  0  0  0  0  0  0
   -4.5560   -0.3610    0.2030 C   0  0  1  0  0  0  0  0  0  0  0  0
   -5.5770   -1.4670    0.2080 C   0  0  0  0  0  0  0  0  0  0  0  0
   -6.9150   -0.8400   -0.1130 C   0  0  0  0  0  0  0  0  0  0  0  0
   -6.7430    0.3240   -1.0640 C   0  0  0  0  0  0  0  0  0  0  0  0
   -6.0190    1.4760   -0.4460 C   0  0  1  0  0  0  0  0  0  0  0  0
   -6.9550    2.5630    0.0370 C   0  0  0  0  0  0  0  0  0  0  0  0
   -5.1530    0.9480    0.6790 C   0  0  0  0  0  0  0  0  0  0  0  0
    0.8220    0.1460   -0.3170 C   0  0  0  0  0  0  0  0  0  0  0  0
    0.3550    1.3990   -0.3710 C   0  0  0  0  0  0  0  0  0  0  0  0
    1.2580    2.1420   -1.1380 C   0  0  0  0  0  0  0  0  0  0  0  0
    2.2490    1.2900   -1.5190 N   0  0  0  0  0  0  0  0  0  0  0  0
    2.0240    0.0830   -1.0440 C   0  0  0  0  0  0  0  0  0  0  0  0
  1  2  2  0
  2  3  1  0
  2  4  1  0
  4  5  1  0
  5  6  1  0
  6  7  2  0
  6  8  1  0
  8  9  2  3
  9 10  1  0
  9 28  1  0
 10 11  1  0
 11 12  1  0
 12 13  1  6
 12 24  1  0
 13 14  1  0
 14 15  2  0
 14 16  1  0
 17 16  1  1
 17 18  1  0
 17 23  1  0
 18 19  1  0
 19 20  1  0
 20 21  1  0
 21 22  1  1
 21 23  1  0
 24 25  1  0
 24 28  2  0
 25 26  2  0
 26 27  1  0
 27 28  1  0
M  CHG  1   3   1
M  END
