
     RDKit          3D

 28 30  0  0  0  0  0  0  0  0999 V2000
   -3.5440    6.2890   -1.5790 C   0  0  0  0  0  0  0  0  0  0  0  0
   -3.2470    5.0970   -1.0180 C   0  0  0  0  0  0  0  0  0  0  0  0
   -2.9340    3.9160   -0.4760 C   0  0  0  0  0  0  0  0  0  0  0  0
   -2.3430    3.7850    0.7860 C   0  0  0  0  0  0  0  0  0  0  0  0
   -1.8170    2.5850    1.1500 C   0  0  0  0  0  0  0  0  0  0  0  0
   -1.8190    1.4230    0.3380 C   0  0  0  0  0  0  0  0  0  0  0  0
   -1.1110    0.2430    0.9070 C   0  0  1  0  0  0  0  0  0  0  0  0
   -1.5390   -1.0490    0.5830 N   0  0  0  0  0  0  0  0  0  0  0  0
   -2.9030   -1.4340    0.5170 C   0  0  0  0  0  0  0  0  0  0  0  0
   -3.7710   -0.5550    0.7630 O   0  0  0  0  0  0  0  0  0  0  0  0
   -3.3180   -2.7670    0.1770 N   0  0  0  0  0  0  0  0  0  0  0  0
   -4.6960   -3.1630    0.0220 C   0  0  2  0  0  0  0  0  0  0  0  0
   -5.0490   -4.6080    0.2820 C   0  0  0  0  0  0  0  0  0  0  0  0
   -4.8720   -4.1460   -1.1320 C   0  0  0  0  0  0  0  0  0  0  0  0
    0.2860    0.5760    1.1300 C   0  0  0  0  0  0  0  0  0  0  0  0
    0.6220    1.1720    2.2080 O   0  0  0  0  0  0  0  0  0  0  0  0
    1.3430    0.3070    0.2200 N   0  0  0  0  0  0  0  0  0  0  0  0
    2.6430    0.8050    0.3210 C   0  0  0  0  0  0  0  0  0  0  0  0
    2.6890    2.2430    0.4270 C   0  0  0  0  0  0  0  0  0  0  0  0
    3.8210    2.9420    0.1620 C   0  0  0  0  0  0  0  0  0  0  0  0
    4.9500    2.2700   -0.2160 C   0  0  0  0  0  0  0  0  0  0  0  0
    4.9430    0.8800   -0.3170 C   0  0  0  0  0  0  0  0  0  0  0  0
    3.7960    0.1620   -0.0450 C   0  0  0  0  0  0  0  0  0  0  0  0
    3.7950   -1.3190    0.0180 C   0  0  0  0  0  0  0  0  0  0  0  0
    5.0280   -1.9230   -0.3570 N   0  0  0  0  0  0  0  0  0  0  0  0
    5.5190   -2.8960    0.6570 C   0  0  0  0  0  0  0  0  0  0  0  0
   -2.4030    1.5530   -0.8750 C   0  0  0  0  0  0  0  0  0  0  0  0
   -2.9470    2.7450   -1.2850 C   0  0  0  0  0  0  0  0  0  0  0  0
  1  2  3  0
  2  3  1  0
  3  4  2  0
  3 28  1  0
  4  5  1  0
  5  6  2  0
  6  7  1  0
  6 27  1  0
  7  8  1  6
  7 15  1  0
  8  9  1  0
  9 10  2  0
  9 11  1  0
 12 11  1  1
 12 13  1  0
 12 14  1  0
 13 14  1  0
 15 16  2  0
 15 17  1  0
 17 18  1  0
 18 19  2  0
 18 23  1  0
 19 20  1  0
 20 21  2  0
 21 22  1  0
 22 23  2  0
 23 24  1  0
 24 25  1  0
 25 26  1  0
 27 28  2  0
M  CHG  1  25   1
M  END
