
     RDKit          3D

 28 30  0  0  0  0  0  0  0  0999 V2000
   -8.8770    0.6310   -1.8830 C   0  0  0  0  0  0  0  0  0  0  0  0
   -7.5330    0.7350   -1.5180 O   0  0  0  0  0  0  0  0  0  0  0  0
   -6.8770   -0.3020   -0.8830 C   0  0  0  0  0  0  0  0  0  0  0  0
   -7.4720   -1.5020   -0.5600 C   0  0  0  0  0  0  0  0  0  0  0  0
   -6.7440   -2.4990    0.0800 C   0  0  0  0  0  0  0  0  0  0  0  0
   -5.4250   -2.2970    0.3970 C   0  0  0  0  0  0  0  0  0  0  0  0
   -4.8010   -1.1130    0.0900 C   0  0  0  0  0  0  0  0  0  0  0  0
   -3.4420   -0.9020    0.4140 N   0  0  0  0  0  0  0  0  0  0  0  0
   -2.8170    0.3340    0.0860 C   0  0  0  0  0  0  0  0  0  0  0  0
   -1.3310    0.2930    0.5540 C   0  0  0  0  0  0  0  0  0  0  0  0
   -1.1700    0.0970    1.9470 N   0  0  0  0  0  0  0  0  0  0  0  0
   -0.4660    0.4420   -0.3780 C   0  0  0  0  0  0  0  0  0  0  0  0
    0.9300    0.4760   -0.4410 C   0  0  0  0  0  0  0  0  0  0  0  0
    1.3330    0.6650   -1.7120 O   0  0  0  0  0  0  0  0  0  0  0  0
    2.0100    0.3590    0.5060 C   0  0  0  0  0  0  0  0  0  0  0  0
    1.9760    0.1700    1.8100 C   0  0  0  0  0  0  0  0  0  0  0  0
    3.3890    0.1090    2.3800 C   0  0  2  0  0  0  0  0  0  0  0  0
    3.8680    1.4410    2.8380 C   0  0  0  0  0  0  0  0  0  0  0  0
    4.0810   -0.3740    1.1700 N   0  0  0  0  0  0  0  0  0  0  0  0
    3.4750    0.4680    0.1690 C   0  0  1  0  0  0  0  0  0  0  0  0
    3.8610    0.1480   -1.2120 C   0  0  0  0  0  0  0  0  0  0  0  0
    5.3440    0.2570   -1.4250 C   0  0  0  0  0  0  0  0  0  0  0  0
    5.9680    1.3960   -1.8220 C   0  0  0  0  0  0  0  0  0  0  0  0
    7.3360    1.4250   -1.9980 C   0  0  0  0  0  0  0  0  0  0  0  0
    8.0650    0.3090   -1.7740 N   0  0  0  0  0  0  0  0  0  0  0  0
    7.4610   -0.8220   -1.3830 C   0  0  0  0  0  0  0  0  0  0  0  0
    6.0920   -0.8750   -1.2000 C   0  0  0  0  0  0  0  0  0  0  0  0
   -5.5510   -0.1240   -0.5540 C   0  0  0  0  0  0  0  0  0  0  0  0
  1  2  1  0
  2  3  1  0
  3  4  2  0
  3 28  1  0
  4  5  1  0
  5  6  2  0
  6  7  1  0
  7  8  1  0
  7 28  2  0
  8  9  1  0
  9 10  1  0
 10 11  1  0
 10 12  2  3
 12 13  1  0
 13 14  2  0
 13 15  1  0
 15 16  2  0
 15 20  1  0
 16 17  1  0
 17 18  1  6
 17 19  1  0
 19 20  1  0
 20 21  1  6
 21 22  1  0
 22 23  2  0
 22 27  1  0
 23 24  1  0
 24 25  2  0
 25 26  1  0
 26 27  2  0
M  CHG  1  19   1
M  END
