
     RDKit          3D

 28 30  0  0  0  0  0  0  0  0999 V2000
    6.7360   -1.9990   -0.2540 C   0  0  0  0  0  0  0  0  0  0  0  0
    6.2000   -0.7990   -0.4140 C   0  0  0  0  0  0  0  0  0  0  0  0
    4.8250   -0.5780   -0.0090 C   0  0  0  0  0  0  0  0  0  0  0  0
    4.0570   -1.6070    0.5480 C   0  0  0  0  0  0  0  0  0  0  0  0
    2.7400   -1.3570    0.9260 C   0  0  0  0  0  0  0  0  0  0  0  0
    1.9570   -2.3910    1.4890 N   0  0  0  0  0  0  0  0  0  0  0  0
    2.2250   -0.0960    0.7410 C   0  0  0  0  0  0  0  0  0  0  0  0
    0.9230    0.1700    1.1090 O   0  0  0  0  0  0  0  0  0  0  0  0
   -0.0790   -0.0380    0.1200 C   0  0  0  0  0  0  0  0  0  0  0  0
    0.3480   -0.4430   -0.9780 O   0  0  0  0  0  0  0  0  0  0  0  0
   -1.4640    0.2140    0.4160 C   0  0  0  0  0  0  0  0  0  0  0  0
   -2.4520    0.0650   -0.3930 C   0  0  0  0  0  0  0  0  0  0  0  0
   -2.3520   -0.3950   -1.7860 C   0  0  0  0  0  0  0  0  0  0  0  0
   -3.0920   -1.6590   -1.8880 N   0  0  0  0  0  0  0  0  0  0  0  0
   -3.8180    0.3540    0.0990 C   0  0  0  0  0  0  0  0  0  0  0  0
   -4.0780    0.6190    1.4140 C   0  0  0  0  0  0  0  0  0  0  0  0
   -5.3680    0.9290    1.8360 C   0  0  0  0  0  0  0  0  0  0  0  0
   -6.4000    0.9730    0.9380 C   0  0  0  0  0  0  0  0  0  0  0  0
   -7.7850    1.3030    1.3770 C   0  0  0  0  0  0  0  0  0  0  0  0
   -6.1670    0.7100   -0.3920 C   0  0  0  0  0  0  0  0  0  0  0  0
   -4.8530    0.3970   -0.8070 C   0  0  0  0  0  0  0  0  0  0  0  0
    2.9700    0.9210    0.1950 C   0  0  0  0  0  0  0  0  0  0  0  0
    4.2770    0.6750   -0.1800 C   0  0  0  0  0  0  0  0  0  0  0  0
    5.0920    1.7360   -0.7620 C   0  0  0  0  0  0  0  0  0  0  0  0
    4.4610    3.0320   -0.9180 N   0  0  0  0  0  0  0  0  0  0  0  0
    6.2790    1.5120   -1.1030 N   0  0  0  0  0  0  0  0  0  0  0  0
    6.9950    0.3000   -1.0000 C   0  0  2  0  0  0  0  0  0  0  0  0
    7.5750   -0.0730   -2.2030 F   0  0  0  0  0  0  0  0  0  0  0  0
  1  2  2  0
  2  3  1  0
  2 27  1  0
  3  4  2  0
  3 23  1  0
  4  5  1  0
  5  6  1  0
  5  7  2  0
  7  8  1  0
  7 22  1  0
  8  9  1  0
  9 10  2  0
  9 11  1  0
 11 12  2  3
 12 13  1  0
 12 15  1  0
 13 14  1  0
 15 16  2  0
 15 21  1  0
 16 17  1  0
 17 18  2  0
 18 19  1  0
 18 20  1  0
 20 21  2  0
 22 23  2  0
 23 24  1  0
 24 25  1  0
 24 26  2  0
 26 27  1  0
 27 28  1  6
M  CHG  1  14   1
M  END
