
     RDKit          3D

 28 31  0  0  0  0  0  0  0  0999 V2000
   -5.4640    0.7230   -0.3430 C   0  0  0  0  0  0  0  0  0  0  0  0
   -4.1540    0.2750   -0.9370 C   0  0  1  0  0  0  0  0  0  0  0  0
   -3.6420   -0.8520   -0.0940 C   0  0  0  0  0  0  0  0  0  0  0  0
   -4.4070   -1.8090    0.0530 O   0  0  0  0  0  0  0  0  0  0  0  0
   -2.3620   -0.8350    0.5050 N   0  0  0  0  0  0  0  0  0  0  0  0
   -1.7780   -1.8340    1.3130 C   0  0  0  0  0  0  0  0  0  0  0  0
   -2.4340   -3.0250    1.5890 C   0  0  0  0  0  0  0  0  0  0  0  0
   -1.8380   -4.0140    2.3860 C   0  0  0  0  0  0  0  0  0  0  0  0
   -2.4840   -5.1710    2.6510 F   0  0  0  0  0  0  0  0  0  0  0  0
   -0.5790   -3.7720    2.8900 C   0  0  0  0  0  0  0  0  0  0  0  0
    0.0900   -2.5960    2.6270 C   0  0  0  0  0  0  0  0  0  0  0  0
   -0.5230   -1.6250    1.8310 C   0  0  0  0  0  0  0  0  0  0  0  0
    0.1840   -0.4460    1.6090 N   0  0  0  0  0  0  0  0  0  0  0  0
    1.5680   -0.2540    2.0970 C   0  0  1  0  0  0  0  0  0  0  0  0
    2.4320   -1.1990    1.3570 C   0  0  0  0  0  0  0  0  0  0  0  0
    3.3280   -0.5600    0.3230 C   0  0  1  0  0  0  0  0  0  0  0  0
    3.6540   -1.5320   -0.6730 N   0  0  0  0  0  0  0  0  0  0  0  0
    2.5810    0.6370   -0.2800 C   0  0  2  0  0  0  0  0  0  0  0  0
    3.2430    1.1390   -1.5200 C   0  0  0  0  0  0  0  0  0  0  0  0
    4.4840    1.9460   -1.2560 C   0  0  0  0  0  0  0  0  0  0  0  0
    4.4430    2.7050    0.0270 C   0  0  0  0  0  0  0  0  0  0  0  0
    3.0510    2.8440    0.6080 C   0  0  0  0  0  0  0  0  0  0  0  0
    2.4850    1.5830    0.7500 N   0  0  0  0  0  0  0  0  0  0  0  0
    1.8910    1.2050    1.9520 C   0  0  0  0  0  0  0  0  0  0  0  0
   -4.3700   -0.1540   -2.3570 C   0  0  0  0  0  0  0  0  0  0  0  0
   -4.3400    1.1730   -3.0950 C   0  0  0  0  0  0  0  0  0  0  0  0
   -3.6530    2.0680   -2.0970 C   0  0  0  0  0  0  0  0  0  0  0  0
   -3.2350    1.2930   -1.0440 O   0  0  0  0  0  0  0  0  0  0  0  0
  2  1  1  1
  2  3  1  0
  2 25  1  0
  2 28  1  0
  3  4  2  0
  3  5  1  0
  5  6  1  0
  6  7  2  0
  6 12  1  0
  7  8  1  0
  8  9  1  0
  8 10  2  0
 10 11  1  0
 11 12  2  0
 12 13  1  0
 14 13  1  6
 14 15  1  0
 14 24  1  0
 15 16  1  0
 16 17  1  6
 16 18  1  0
 18 19  1  6
 18 23  1  0
 19 20  1  0
 20 21  1  0
 21 22  1  0
 22 23  1  0
 23 24  1  0
 25 26  1  0
 26 27  1  0
 27 28  1  0
M  CHG  1  17   1
M  END
