
     RDKit          3D

 28 31  0  0  0  0  0  0  0  0999 V2000
   -4.6600   -0.3840    2.0630 C   0  0  0  0  0  0  0  0  0  0  0  0
   -4.7940   -0.6560    0.5810 C   0  0  1  0  0  0  0  0  0  0  0  0
   -6.1940   -0.5400    0.0830 C   0  0  0  0  0  0  0  0  0  0  0  0
   -6.7010    0.8820    0.0470 C   0  0  0  0  0  0  0  0  0  0  0  0
   -5.6040    1.8550   -0.3350 C   0  0  0  0  0  0  0  0  0  0  0  0
   -4.6330    1.0910   -1.1940 C   0  0  0  0  0  0  0  0  0  0  0  0
   -3.8050    0.2130   -0.2250 C   0  0  2  0  0  0  0  0  0  0  0  0
   -2.8930   -0.4760   -0.8230 O   0  0  0  0  0  0  0  0  0  0  0  0
   -1.7140   -0.8970   -1.1460 C   0  0  0  0  0  0  0  0  0  0  0  0
   -1.6360   -1.9270   -2.1260 C   0  0  0  0  0  0  0  0  0  0  0  0
   -0.4170   -2.3950   -2.4920 C   0  0  0  0  0  0  0  0  0  0  0  0
    0.7460   -1.9030   -1.9430 C   0  0  0  0  0  0  0  0  0  0  0  0
    0.7310   -0.9040   -0.9880 C   0  0  0  0  0  0  0  0  0  0  0  0
    1.9760   -0.3970   -0.4170 C   0  0  0  0  0  0  0  0  0  0  0  0
    3.2080   -0.8740   -0.7900 N   0  0  0  0  0  0  0  0  0  0  0  0
    4.1730   -0.2380   -0.1150 C   0  0  0  0  0  0  0  0  0  0  0  0
    5.5450   -0.3440   -0.1230 C   0  0  0  0  0  0  0  0  0  0  0  0
    6.3520    0.4550    0.6980 C   0  0  0  0  0  0  0  0  0  0  0  0
    7.7780    0.2510    0.6010 C   0  0  0  0  0  0  0  0  0  0  0  0
    8.2730   -0.7480   -0.3240 N   0  0  0  0  0  0  0  0  0  0  0  0
    8.6450    0.8750    1.2600 N   0  0  0  0  0  0  0  0  0  0  0  0
    5.7010    1.3410    1.5020 C   0  0  0  0  0  0  0  0  0  0  0  0
    6.4440    2.1430    2.3210 F   0  0  0  0  0  0  0  0  0  0  0  0
    4.3120    1.4930    1.5530 C   0  0  0  0  0  0  0  0  0  0  0  0
    3.5700    0.6760    0.7190 C   0  0  0  0  0  0  0  0  0  0  0  0
    2.2410    0.5340    0.4920 N   0  0  0  0  0  0  0  0  0  0  0  0
   -0.5020   -0.4200   -0.6080 C   0  0  0  0  0  0  0  0  0  0  0  0
   -0.4900    0.5740    0.3450 O   0  0  0  0  0  0  0  0  0  0  0  0
  2  1  1  1
  2  3  1  0
  2  7  1  0
  3  4  1  0
  4  5  1  0
  5  6  1  0
  6  7  1  0
  7  8  1  6
  8  9  1  0
  9 10  2  0
  9 27  1  0
 10 11  1  0
 11 12  2  0
 12 13  1  0
 13 14  1  0
 13 27  2  0
 14 15  2  0
 14 26  1  0
 15 16  1  0
 16 17  2  0
 16 25  1  0
 17 18  1  0
 18 19  1  0
 18 22  2  0
 19 20  1  0
 19 21  2  0
 22 23  1  0
 22 24  1  0
 24 25  2  0
 25 26  1  0
 27 28  1  0
M  CHG  1  21   1
M  END
