
     RDKit          3D

 27 30  0  0  0  0  0  0  0  0999 V2000
   -6.9420   -0.2710    0.1140 C   0  0  0  0  0  0  0  0  0  0  0  0
   -6.0700    0.5740    0.9850 C   0  0  0  0  0  0  0  0  0  0  0  0
   -4.6320    0.4900    0.6380 C   0  0  0  0  0  0  0  0  0  0  0  0
   -3.7790   -0.4360    1.1970 C   0  0  0  0  0  0  0  0  0  0  0  0
   -2.4270   -0.4780    0.8370 C   0  0  0  0  0  0  0  0  0  0  0  0
   -1.5350   -1.3970    1.4370 N   0  0  0  0  0  0  0  0  0  0  0  0
   -1.9580    0.4170   -0.0830 C   0  0  0  0  0  0  0  0  0  0  0  0
   -2.8060    1.3520   -0.6490 C   0  0  0  0  0  0  0  0  0  0  0  0
   -4.1430    1.3820   -0.2830 C   0  0  0  0  0  0  0  0  0  0  0  0
   -2.3330    2.3620   -1.6180 C   0  0  0  0  0  0  0  0  0  0  0  0
   -0.9310    2.1260   -2.0160 C   0  0  0  0  0  0  0  0  0  0  0  0
   -0.0240    1.6580   -0.8930 C   0  0  0  0  0  0  0  0  0  0  0  0
   -0.5520    0.3450   -0.4520 N   0  0  0  0  0  0  0  0  0  0  0  0
    0.1380   -0.8560   -0.5100 C   0  0  0  0  0  0  0  0  0  0  0  0
   -0.4810   -1.9180   -0.7940 O   0  0  0  0  0  0  0  0  0  0  0  0
    1.5570   -1.0020   -0.2640 C   0  0  0  0  0  0  0  0  0  0  0  0
    2.2710    0.0460    0.2570 C   0  0  0  0  0  0  0  0  0  0  0  0
    3.6230   -0.1600    0.5420 C   0  0  0  0  0  0  0  0  0  0  0  0
    4.2700   -1.3510    0.3290 C   0  0  0  0  0  0  0  0  0  0  0  0
    3.5320   -2.3850   -0.1930 C   0  0  0  0  0  0  0  0  0  0  0  0
    2.2020   -2.2160   -0.4840 C   0  0  0  0  0  0  0  0  0  0  0  0
    1.4280   -3.2660   -1.0210 N   0  0  0  0  0  0  0  0  0  0  0  0
    5.7000   -1.5070    0.6490 C   0  0  0  0  0  0  0  0  0  0  0  0
    6.1770   -2.6530    0.7820 O   0  0  0  0  0  0  0  0  0  0  0  0
    6.4920   -0.2630    0.7960 C   0  0  0  0  0  0  0  0  0  0  0  0
    5.6550    0.9210    0.3860 C   0  0  0  0  0  0  0  0  0  0  0  0
    4.3760    0.9230    1.0830 N   0  0  0  0  0  0  0  0  0  0  0  0
  1  2  1  0
  2  3  1  0
  3  4  2  0
  3  9  1  0
  4  5  1  0
  5  6  1  0
  5  7  2  0
  7  8  1  0
  7 13  1  0
  8  9  2  0
  8 10  1  0
 10 11  1  0
 11 12  1  0
 12 13  1  0
 13 14  1  0
 14 15  2  0
 14 16  1  0
 16 17  2  0
 16 21  1  0
 17 18  1  0
 18 19  2  0
 18 27  1  0
 19 20  1  0
 19 23  1  0
 20 21  2  0
 21 22  1  0
 23 24  2  0
 23 25  1  0
 25 26  1  0
 26 27  1  0
M  CHG  1  27   1
M  END
