
     RDKit          3D

 27 30  0  0  0  0  0  0  0  0999 V2000
   -6.5800   -1.8100    1.7510 C   0  0  0  0  0  0  0  0  0  0  0  0
   -5.3910   -0.9130    1.4110 C   0  0  0  0  0  0  0  0  0  0  0  0
   -4.7800   -1.2920    0.0990 C   0  0  0  0  0  0  0  0  0  0  0  0
   -3.6310   -0.4550   -0.2870 C   0  0  0  0  0  0  0  0  0  0  0  0
   -2.3510   -0.8940    0.0770 C   0  0  0  0  0  0  0  0  0  0  0  0
   -1.2450   -0.1560   -0.2090 C   0  0  0  0  0  0  0  0  0  0  0  0
   -1.4350    1.0320   -0.8680 C   0  0  0  0  0  0  0  0  0  0  0  0
   -2.6910    1.5060   -1.2500 C   0  0  0  0  0  0  0  0  0  0  0  0
   -2.8050    2.7900   -1.9470 C   0  0  0  0  0  0  0  0  0  0  0  0
   -3.8220    0.7460   -0.9550 C   0  0  0  0  0  0  0  0  0  0  0  0
   -5.1890    1.1430   -1.3530 C   0  0  0  0  0  0  0  0  0  0  0  0
   -5.2330    2.3920   -2.0670 N   0  0  0  0  0  0  0  0  0  0  0  0
    0.0130    1.2310   -0.8310 C   0  0  0  0  0  0  0  0  0  0  0  0
    1.1720    1.9650   -1.1120 C   0  0  0  0  0  0  0  0  0  0  0  0
    2.4290    1.5120   -0.7450 C   0  0  0  0  0  0  0  0  0  0  0  0
    2.5650    0.3110   -0.0840 C   0  0  0  0  0  0  0  0  0  0  0  0
    3.8600   -0.1270    0.2720 N   0  0  0  0  0  0  0  0  0  0  0  0
    4.1070   -1.3740    0.9680 C   0  0  0  0  0  0  0  0  0  0  0  0
    5.5660   -1.6430    1.2120 C   0  0  2  0  0  0  0  0  0  0  0  0
    6.1930   -0.5760    2.0370 C   0  0  0  0  0  0  0  0  0  0  0  0
    7.0870    0.3010    1.3420 N   0  0  0  0  0  0  0  0  0  0  0  0
    7.5610    0.0270    0.0390 C   0  0  0  0  0  0  0  0  0  0  0  0
    8.5730    0.6310   -0.4250 O   0  0  0  0  0  0  0  0  0  0  0  0
    6.8830   -0.9240   -0.7170 O   0  0  0  0  0  0  0  0  0  0  0  0
    6.3130   -2.0180   -0.0330 C   0  0  0  0  0  0  0  0  0  0  0  0
    1.4490   -0.3840    0.1800 N   0  0  0  0  0  0  0  0  0  0  0  0
    0.2210    0.0400   -0.1690 C   0  0  0  0  0  0  0  0  0  0  0  0
  1  2  1  0
  2  3  1  0
  3  4  1  0
  4  5  2  0
  4 10  1  0
  5  6  1  0
  6  7  2  0
  6 27  1  0
  7  8  1  0
  7 13  1  0
  8  9  1  0
  8 10  2  0
 10 11  1  0
 11 12  1  0
 13 14  2  0
 13 27  1  0
 14 15  1  0
 15 16  2  0
 16 17  1  0
 16 26  1  0
 17 18  1  0
 19 18  1  6
 19 20  1  0
 19 25  1  0
 20 21  1  0
 21 22  1  0
 22 23  2  0
 22 24  1  0
 24 25  1  0
 26 27  2  0
M  CHG  1  26   1
M  END
