
     RDKit          3D

 27 30  0  0  0  0  0  0  0  0999 V2000
   -1.0680    2.8990   -0.8570 C   0  0  0  0  0  0  0  0  0  0  0  0
   -2.0540    1.8370   -0.5280 C   0  0  0  0  0  0  0  0  0  0  0  0
   -1.6600    0.6880    0.1340 C   0  0  0  0  0  0  0  0  0  0  0  0
   -0.2910    0.5630    0.4950 N   0  0  0  0  0  0  0  0  0  0  0  0
    0.6950    0.0170   -0.3720 C   0  0  0  0  0  0  0  0  0  0  0  0
    0.2580   -0.3520   -1.5020 O   0  0  0  0  0  0  0  0  0  0  0  0
    2.1000   -0.1230   -0.0220 C   0  0  0  0  0  0  0  0  0  0  0  0
    2.9560   -0.6450   -0.9760 C   0  0  0  0  0  0  0  0  0  0  0  0
    4.2990   -0.8050   -0.7090 C   0  0  0  0  0  0  0  0  0  0  0  0
    5.2000   -1.3180   -1.6160 C   0  0  0  0  0  0  0  0  0  0  0  0
    6.5370   -1.4710   -1.3350 C   0  0  0  0  0  0  0  0  0  0  0  0
    7.0030   -1.0980   -0.0930 C   0  0  0  0  0  0  0  0  0  0  0  0
    6.1230   -0.5840    0.8280 C   0  0  0  0  0  0  0  0  0  0  0  0
    4.7730   -0.4310    0.5390 C   0  0  0  0  0  0  0  0  0  0  0  0
    3.8880    0.0850    1.4610 C   0  0  0  0  0  0  0  0  0  0  0  0
    4.3020    0.4250    2.5880 O   0  0  0  0  0  0  0  0  0  0  0  0
    2.5850    0.2270    1.1660 N   0  0  0  0  0  0  0  0  0  0  0  0
   -2.6320   -0.2480    0.4030 C   0  0  0  0  0  0  0  0  0  0  0  0
   -2.2450   -1.4850    1.1100 C   0  0  1  0  0  0  0  0  0  0  0  0
   -3.5220   -2.2630    1.4620 C   0  0  0  0  0  0  0  0  0  0  0  0
   -1.4730   -2.3960    0.2600 N   0  0  0  0  0  0  0  0  0  0  0  0
   -3.9620   -0.0420    0.0210 C   0  0  0  0  0  0  0  0  0  0  0  0
   -4.3380    1.1090   -0.6390 C   0  0  0  0  0  0  0  0  0  0  0  0
   -5.5290    1.5650   -1.1180 N   0  0  0  0  0  0  0  0  0  0  0  0
   -5.3450    2.7590   -1.6830 C   0  0  0  0  0  0  0  0  0  0  0  0
   -4.0210    3.0860   -1.5710 C   0  0  0  0  0  0  0  0  0  0  0  0
   -3.3690    2.0490   -0.9100 C   0  0  0  0  0  0  0  0  0  0  0  0
  1  2  1  0
  2  3  2  0
  2 27  1  0
  3  4  1  0
  3 18  1  0
  4  5  1  0
  5  6  2  0
  5  7  1  0
  7  8  2  0
  7 17  1  0
  8  9  1  0
  9 10  2  0
  9 14  1  0
 10 11  1  0
 11 12  2  0
 12 13  1  0
 13 14  2  0
 14 15  1  0
 15 16  2  0
 15 17  1  0
 18 19  1  0
 18 22  2  0
 19 20  1  6
 19 21  1  0
 22 23  1  0
 23 24  1  0
 23 27  2  0
 24 25  1  0
 25 26  2  0
 26 27  1  0
M  CHG  1  21   1
M  END
