
     RDKit          3D

 28 31  0  0  0  0  0  0  0  0999 V2000
    6.5170    0.2860   -0.7490 C   0  0  0  0  0  0  0  0  0  0  0  0
    5.4550   -0.7150   -0.4410 C   0  0  0  0  0  0  0  0  0  0  0  0
    5.6830   -2.0500   -0.6710 C   0  0  0  0  0  0  0  0  0  0  0  0
    6.8880   -2.4590   -1.1900 F   0  0  0  0  0  0  0  0  0  0  0  0
    4.7110   -2.9810   -0.3880 C   0  0  0  0  0  0  0  0  0  0  0  0
    3.4970   -2.5680    0.1340 C   0  0  0  0  0  0  0  0  0  0  0  0
    3.2220   -1.2250    0.3840 C   0  0  0  0  0  0  0  0  0  0  0  0
    1.8960   -0.8480    0.9370 C   0  0  2  0  0  0  0  0  0  0  0  0
    1.2350   -2.1080    1.5120 C   0  0  0  0  0  0  0  0  0  0  0  0
    1.0030   -0.2860   -0.0670 N   0  0  0  0  0  0  0  0  0  0  0  0
    0.2100    0.7360    0.5550 C   0  0  0  0  0  0  0  0  0  0  0  0
   -1.2680    0.5590    0.3280 C   0  0  0  0  0  0  0  0  0  0  0  0
   -2.2210    1.5490    0.5470 C   0  0  0  0  0  0  0  0  0  0  0  0
   -3.4610    1.0420    0.2440 C   0  0  0  0  0  0  0  0  0  0  0  0
   -3.2680   -0.2580   -0.1600 C   0  0  0  0  0  0  0  0  0  0  0  0
   -1.9400   -0.5160   -0.0980 N   0  0  0  0  0  0  0  0  0  0  0  0
   -4.4060   -1.1370   -0.5720 C   0  0  0  0  0  0  0  0  0  0  0  0
   -5.6910   -0.6770    0.0320 C   0  0  0  0  0  0  0  0  0  0  0  0
   -5.9510    0.7890   -0.1580 C   0  0  2  0  0  0  0  0  0  0  0  0
   -7.3550    1.2300    0.2180 C   0  0  0  0  0  0  0  0  0  0  0  0
   -6.8730    1.2710   -1.2150 C   0  0  0  0  0  0  0  0  0  0  0  0
   -4.8210    1.6180    0.2820 C   0  0  0  0  0  0  0  0  0  0  0  0
   -4.9340    2.7850    0.6890 O   0  0  0  0  0  0  0  0  0  0  0  0
    4.2280   -0.3360    0.0820 C   0  0  0  0  0  0  0  0  0  0  0  0
    4.0380    1.0330    0.3450 N   0  0  0  0  0  0  0  0  0  0  0  0
    3.6620    1.9290   -0.6890 C   0  0  0  0  0  0  0  0  0  0  0  0
    3.4640    3.3280   -0.4090 N   0  0  0  0  0  0  0  0  0  0  0  0
    3.4770    1.5950   -1.8890 O   0  0  0  0  0  0  0  0  0  0  0  0
  1  2  1  0
  2  3  2  0
  2 24  1  0
  3  4  1  0
  3  5  1  0
  5  6  2  0
  6  7  1  0
  7  8  1  0
  7 24  2  0
  8  9  1  6
  8 10  1  0
 10 11  1  0
 11 12  1  0
 12 13  2  0
 12 16  1  0
 13 14  1  0
 14 15  2  0
 14 22  1  0
 15 16  1  0
 15 17  1  0
 17 18  1  0
 19 18  1  6
 19 20  1  0
 19 21  1  0
 19 22  1  0
 20 21  1  0
 22 23  2  0
 24 25  1  0
 25 26  1  0
 26 27  1  0
 26 28  2  0
M  CHG  1  10   1
M  END
