
     RDKit          3D

 19 20  0  0  0  0  0  0  0  0999 V2000
    4.4430    0.9520   -0.0190 C   0  0  0  0  0  0  0  0  0  0  0  0
    3.3860   -0.1220    0.1300 C   0  0  2  0  0  0  0  0  0  0  0  0
    3.4780   -0.7580    1.4830 C   0  0  0  0  0  0  0  0  0  0  0  0
    3.5090   -1.1460   -0.9780 C   0  0  0  0  0  0  0  0  0  0  0  0
    2.0890    0.5440   -0.0670 N   0  0  0  0  0  0  0  0  0  0  0  0
    0.8870   -0.2260    0.0170 C   0  0  0  0  0  0  0  0  0  0  0  0
    0.9930   -1.4300    0.2540 O   0  0  0  0  0  0  0  0  0  0  0  0
   -0.3760    0.3780   -0.1670 N   0  0  0  0  0  0  0  0  0  0  0  0
   -1.6260   -0.2820   -0.1070 C   0  0  0  0  0  0  0  0  0  0  0  0
   -2.7510    0.4110   -0.3000 C   0  0  0  0  0  0  0  0  0  0  0  0
   -2.7810    1.7980   -0.5690 N   0  0  0  0  0  0  0  0  0  0  0  0
   -4.0210    2.4690   -0.7640 C   0  0  0  0  0  0  0  0  0  0  0  0
   -3.9600    4.3430   -1.1210 Br  0  0  0  0  0  0  0  0  0  0  0  0
   -5.1600    1.8270   -0.7020 C   0  0  0  0  0  0  0  0  0  0  0  0
   -5.1570    0.4400   -0.4350 N   0  0  0  0  0  0  0  0  0  0  0  0
   -4.0830   -0.2400   -0.2470 C   0  0  0  0  0  0  0  0  0  0  0  0
   -4.1640   -1.6390    0.0180 N   0  0  0  0  0  0  0  0  0  0  0  0
   -2.9500   -2.3310    0.2160 C   0  0  0  0  0  0  0  0  0  0  0  0
   -1.7740   -1.6940    0.1560 C   0  0  0  0  0  0  0  0  0  0  0  0
  2  1  1  6
  2  3  1  0
  2  4  1  0
  2  5  1  0
  5  6  1  0
  6  7  2  0
  6  8  1  0
  8  9  1  0
  9 10  2  0
  9 19  1  0
 10 11  1  0
 10 16  1  0
 11 12  1  0
 12 13  1  0
 12 14  2  0
 14 15  1  0
 15 16  2  0
 16 17  1  0
 17 18  1  0
 18 19  2  0
M  END
