
     RDKit          3D

 19 21  0  0  0  0  0  0  0  0999 V2000
    3.0770    2.2200   -0.9220 O   0  0  0  0  0  0  0  0  0  0  0  0
    3.4110    1.2130   -0.2610 C   0  0  0  0  0  0  0  0  0  0  0  0
    4.5780    1.2200    0.3910 N   0  0  0  0  0  0  0  0  0  0  0  0
    4.9230    0.1310    1.0970 C   0  0  0  0  0  0  0  0  0  0  0  0
    4.1250   -0.9610    1.1620 N   0  0  0  0  0  0  0  0  0  0  0  0
    2.9420   -0.9580    0.4960 C   0  0  0  0  0  0  0  0  0  0  0  0
    2.5520    0.1410   -0.2400 C   0  0  0  0  0  0  0  0  0  0  0  0
    1.3100    0.1260   -0.9320 N   0  0  0  0  0  0  0  0  0  0  0  0
    0.4710   -0.9660   -0.8900 N   0  0  0  0  0  0  0  0  0  0  0  0
   -0.7470   -0.9460   -0.4730 C   0  0  0  0  0  0  0  0  0  0  0  0
   -1.5610   -2.1740   -0.4710 C   0  0  0  0  0  0  0  0  0  0  0  0
   -2.9820   -1.9550   -0.0810 C   0  0  0  0  0  0  0  0  0  0  0  0
   -3.5640   -0.6570   -0.5250 C   0  0  0  0  0  0  0  0  0  0  0  0
   -2.7340    0.4500   -0.0040 C   0  0  0  0  0  0  0  0  0  0  0  0
   -3.0400    1.6680    0.4930 N   0  0  0  0  0  0  0  0  0  0  0  0
   -1.8750    2.2700    0.8200 C   0  0  0  0  0  0  0  0  0  0  0  0
   -1.7350    4.0180    1.5690 Br  0  0  0  0  0  0  0  0  0  0  0  0
   -0.8290    1.4440    0.5350 C   0  0  0  0  0  0  0  0  0  0  0  0
   -1.3660    0.2820    0.0090 C   0  0  0  0  0  0  0  0  0  0  0  0
  1  2  2  0
  2  3  1  0
  2  7  1  0
  3  4  1  0
  4  5  2  0
  5  6  1  0
  6  7  2  0
  7  8  1  0
  8  9  1  0
  9 10  2  3
 10 11  1  0
 10 19  1  0
 11 12  1  0
 12 13  1  0
 13 14  1  0
 14 15  1  0
 14 19  2  0
 15 16  1  0
 16 17  1  0
 16 18  2  0
 18 19  1  0
M  END
