
     RDKit          3D

 19 21  0  0  0  0  0  0  0  0999 V2000
   -3.1710    1.1860   -1.6260 N   0  0  0  0  0  0  0  0  0  0  0  0
   -2.6760    1.7030   -0.3920 C   0  0  0  0  0  0  0  0  0  0  0  0
   -2.9310    2.9420    0.1180 N   0  0  0  0  0  0  0  0  0  0  0  0
   -2.3090    3.0780    1.2780 N   0  0  0  0  0  0  0  0  0  0  0  0
   -1.6510    1.9040    1.5030 C   0  0  0  0  0  0  0  0  0  0  0  0
   -1.8760    1.0740    0.4890 N   0  0  0  0  0  0  0  0  0  0  0  0
   -1.4030   -0.2580    0.2790 C   0  0  0  0  0  0  0  0  0  0  0  0
   -2.2760   -1.3340    0.2000 C   0  0  0  0  0  0  0  0  0  0  0  0
   -1.8570   -2.6230   -0.0010 C   0  0  0  0  0  0  0  0  0  0  0  0
   -3.1070   -4.0610   -0.1000 Br  0  0  0  0  0  0  0  0  0  0  0  0
   -0.5010   -2.8430   -0.1280 C   0  0  0  0  0  0  0  0  0  0  0  0
    0.4230   -1.8040   -0.0580 C   0  0  0  0  0  0  0  0  0  0  0  0
   -0.0450   -0.5210    0.1450 C   0  0  0  0  0  0  0  0  0  0  0  0
    0.8020    0.5550    0.2260 O   0  0  0  0  0  0  0  0  0  0  0  0
    2.1650    0.5200    0.1230 C   0  0  0  0  0  0  0  0  0  0  0  0
    3.0690    0.3550    1.1500 C   0  0  0  0  0  0  0  0  0  0  0  0
    4.3460    0.3820    0.5980 C   0  0  0  0  0  0  0  0  0  0  0  0
    4.2240    0.5590   -0.7310 N   0  0  0  0  0  0  0  0  0  0  0  0
    2.9080    0.6430   -1.0280 C   0  0  0  0  0  0  0  0  0  0  0  0
  1  2  1  0
  2  3  2  0
  2  6  1  0
  3  4  1  0
  4  5  2  0
  5  6  1  0
  6  7  1  0
  7  8  2  0
  7 13  1  0
  8  9  1  0
  9 10  1  0
  9 11  2  0
 11 12  1  0
 12 13  2  0
 13 14  1  0
 14 15  1  0
 15 16  1  0
 15 19  2  0
 16 17  2  0
 17 18  1  0
 18 19  1  0
M  END
