
     RDKit          3D

 19 21  0  0  0  0  0  0  0  0999 V2000
   -4.7860    0.6350    0.6580 C   0  0  0  0  0  0  0  0  0  0  0  0
   -3.5650    0.0790    0.0450 C   0  0  0  0  0  0  0  0  0  0  0  0
   -3.6030   -0.2900   -1.2790 C   0  0  0  0  0  0  0  0  0  0  0  0
   -2.4910   -0.8180   -1.9110 C   0  0  0  0  0  0  0  0  0  0  0  0
   -2.5940   -1.3110   -3.7330 Br  0  0  0  0  0  0  0  0  0  0  0  0
   -1.3160   -0.9670   -1.1610 C   0  0  0  0  0  0  0  0  0  0  0  0
   -1.2500   -0.6070    0.1550 C   0  0  0  0  0  0  0  0  0  0  0  0
   -0.0850   -0.7130    0.9180 N   0  0  0  0  0  0  0  0  0  0  0  0
    1.2360   -0.3660    0.5600 C   0  0  0  0  0  0  0  0  0  0  0  0
    2.2700   -0.5590    1.4240 N   0  0  0  0  0  0  0  0  0  0  0  0
    3.5290   -0.2280    1.1730 C   0  0  0  0  0  0  0  0  0  0  0  0
    4.7400   -0.2990    1.8270 C   0  0  0  0  0  0  0  0  0  0  0  0
    5.7180    0.2040    1.0630 N   0  0  0  0  0  0  0  0  0  0  0  0
    5.1450    0.5940   -0.0670 N   0  0  0  0  0  0  0  0  0  0  0  0
    3.8140    0.3500   -0.0450 C   0  0  0  0  0  0  0  0  0  0  0  0
    2.7790    0.5510   -0.9280 C   0  0  0  0  0  0  0  0  0  0  0  0
    3.0320    1.0800   -2.0430 O   0  0  0  0  0  0  0  0  0  0  0  0
    1.4930    0.1930   -0.6220 N   0  0  0  0  0  0  0  0  0  0  0  0
   -2.3920   -0.0870    0.7310 C   0  0  0  0  0  0  0  0  0  0  0  0
  1  2  1  0
  2  3  2  0
  2 19  1  0
  3  4  1  0
  4  5  1  0
  4  6  2  0
  6  7  1  0
  7  8  1  0
  7 19  2  0
  8  9  1  0
  9 10  2  0
  9 18  1  0
 10 11  1  0
 11 12  1  0
 11 15  2  0
 12 13  2  0
 13 14  1  0
 14 15  1  0
 15 16  1  0
 16 17  2  0
 16 18  1  0
M  END
