
     RDKit          3D

 19 21  0  0  0  0  0  0  0  0999 V2000
   -4.7000    1.8620    1.5160 N   0  0  0  0  0  0  0  0  0  0  0  0
   -4.1570    0.9180    0.7870 C   0  0  0  0  0  0  0  0  0  0  0  0
   -2.7260    0.7760    0.7000 C   0  0  0  0  0  0  0  0  0  0  0  0
   -2.1460   -0.1610   -0.0230 C   0  0  0  0  0  0  0  0  0  0  0  0
   -0.6820   -0.2120   -0.0380 C   0  0  0  0  0  0  0  0  0  0  0  0
   -0.0150   -1.1210   -0.7380 N   0  0  0  0  0  0  0  0  0  0  0  0
    1.2930   -0.9280   -0.5640 N   0  0  0  0  0  0  0  0  0  0  0  0
    1.4680    0.1080    0.2460 C   0  0  0  0  0  0  0  0  0  0  0  0
    2.6330    0.6220    0.8100 N   0  0  0  0  0  0  0  0  0  0  0  0
    3.9690    0.3410    0.5480 C   0  0  0  0  0  0  0  0  0  0  0  0
    4.9260    0.5410    1.4980 O   0  0  0  0  0  0  0  0  0  0  0  0
    6.0850    0.2330    1.0590 C   0  0  0  0  0  0  0  0  0  0  0  0
    5.9750   -0.1950   -0.2250 C   0  0  0  0  0  0  0  0  0  0  0  0
    4.6100   -0.1190   -0.5460 C   0  0  0  0  0  0  0  0  0  0  0  0
    3.9630   -0.4780   -2.3200 Br  0  0  0  0  0  0  0  0  0  0  0  0
    0.2000    0.5460    0.5690 N   0  0  0  0  0  0  0  0  0  0  0  0
   -2.9740   -1.0930   -0.7650 C   0  0  0  0  0  0  0  0  0  0  0  0
   -4.2990   -1.0220   -0.7310 C   0  0  0  0  0  0  0  0  0  0  0  0
   -5.0380   -0.0140    0.0440 C   0  0  0  0  0  0  0  0  0  0  0  0
  1  2  2  0
  2  3  1  0
  2 19  1  0
  3  4  2  0
  4  5  1  0
  4 17  1  0
  5  6  2  0
  5 16  1  0
  6  7  1  0
  7  8  1  0
  8  9  1  0
  8 16  2  0
  9 10  1  0
 10 11  1  0
 10 14  2  0
 11 12  1  0
 12 13  2  0
 13 14  1  0
 14 15  1  0
 17 18  2  0
 18 19  1  0
M  END
