
     RDKit          3D

 19 21  0  0  0  0  0  0  0  0999 V2000
   -3.2810    2.0800    1.0160 N   0  0  0  0  0  0  0  0  0  0  0  0
   -3.5510    0.7360    0.6750 C   0  0  0  0  0  0  0  0  0  0  0  0
   -4.8490    0.2770    0.5520 N   0  0  0  0  0  0  0  0  0  0  0  0
   -5.1340   -0.9940    0.1490 C   0  0  0  0  0  0  0  0  0  0  0  0
   -4.1060   -1.8510   -0.1450 C   0  0  0  0  0  0  0  0  0  0  0  0
   -2.8730   -1.4240   -0.0280 N   0  0  0  0  0  0  0  0  0  0  0  0
   -2.5720   -0.1370    0.3760 C   0  0  0  0  0  0  0  0  0  0  0  0
   -1.1160    0.1440    0.2650 C   0  0  0  0  0  0  0  0  0  0  0  0
   -0.2150   -0.4750    1.0840 C   0  0  0  0  0  0  0  0  0  0  0  0
    1.1080   -0.5010    0.7940 N   0  0  0  0  0  0  0  0  0  0  0  0
    1.5780    0.1130   -0.3490 C   0  0  0  0  0  0  0  0  0  0  0  0
    2.9170    0.0560   -0.8690 C   0  0  2  0  0  0  0  0  0  0  0  0
    3.0120    0.0440   -2.2790 O   0  0  0  0  0  0  0  0  0  0  0  0
    3.7090   -1.1260   -0.3070 C   0  0  0  0  0  0  0  0  0  0  0  0
    4.1050   -0.1780    0.8130 C   0  0  0  0  0  0  0  0  0  0  0  0
    3.9270    0.9380   -0.1770 C   0  0  0  0  0  0  0  0  0  0  0  0
    0.6800    0.7590   -1.1900 N   0  0  0  0  0  0  0  0  0  0  0  0
   -0.6570    0.7740   -0.8780 C   0  0  0  0  0  0  0  0  0  0  0  0
   -1.8500    1.7650   -1.9730 Br  0  0  0  0  0  0  0  0  0  0  0  0
  1  2  1  0
  2  3  2  0
  2  7  1  0
  3  4  1  0
  4  5  2  0
  5  6  1  0
  6  7  2  0
  7  8  1  0
  8  9  2  0
  8 18  1  0
  9 10  1  0
 10 11  2  0
 11 12  1  0
 11 17  1  0
 12 13  1  6
 12 14  1  0
 12 16  1  0
 14 15  1  0
 15 16  1  0
 17 18  2  0
 18 19  1  0
M  END
