
     RDKit          3D

 19 21  0  0  0  0  0  0  0  0999 V2000
   -1.9380    1.9780    1.4390 C   0  0  0  0  0  0  0  0  0  0  0  0
   -1.7630    0.8770    0.5050 N   0  0  0  0  0  0  0  0  0  0  0  0
   -0.6880    0.6840   -0.2400 N   0  0  0  0  0  0  0  0  0  0  0  0
   -0.8450   -0.4130   -0.9870 C   0  0  0  0  0  0  0  0  0  0  0  0
    0.1060   -0.9200   -1.9010 N   0  0  0  0  0  0  0  0  0  0  0  0
    1.3690   -0.2710   -2.1110 C   0  0  0  0  0  0  0  0  0  0  0  0
    2.2090   -0.1800   -0.8900 C   0  0  0  0  0  0  0  0  0  0  0  0
    2.3520    0.9780   -0.1590 C   0  0  0  0  0  0  0  0  0  0  0  0
    3.1430    1.0420    0.9880 C   0  0  0  0  0  0  0  0  0  0  0  0
    3.2440    2.2360    1.6780 O   0  0  0  0  0  0  0  0  0  0  0  0
    3.8000   -0.1000    1.3930 C   0  0  0  0  0  0  0  0  0  0  0  0
    3.6370   -1.2410    0.6390 C   0  0  0  0  0  0  0  0  0  0  0  0
    2.8730   -1.2890   -0.4610 N   0  0  0  0  0  0  0  0  0  0  0  0
   -2.0890   -0.9150   -0.6750 C   0  0  0  0  0  0  0  0  0  0  0  0
   -3.0200   -1.9050   -0.9100 C   0  0  0  0  0  0  0  0  0  0  0  0
   -4.1390   -1.7010   -0.1320 C   0  0  0  0  0  0  0  0  0  0  0  0
   -5.7270   -2.7880   -0.0740 Br  0  0  0  0  0  0  0  0  0  0  0  0
   -3.8880   -0.5810    0.5800 N   0  0  0  0  0  0  0  0  0  0  0  0
   -2.6740   -0.0870    0.2800 C   0  0  0  0  0  0  0  0  0  0  0  0
  1  2  1  0
  2  3  1  0
  2 19  1  0
  3  4  2  0
  4  5  1  0
  4 14  1  0
  5  6  1  0
  6  7  1  0
  7  8  2  0
  7 13  1  0
  8  9  1  0
  9 10  1  0
  9 11  2  0
 11 12  1  0
 12 13  2  0
 14 15  1  0
 14 19  2  0
 15 16  2  0
 16 17  1  0
 16 18  1  0
 18 19  1  0
M  END
