
     RDKit          3D

 35 39  0  0  0  0  0  0  0  0999 V2000
   -5.0660   -1.7270    1.6780 C   0  0  0  0  0  0  0  0  0  0  0  0
   -4.7500   -1.8620    0.2040 C   0  0  0  0  0  0  0  0  0  0  0  0
   -4.9390   -3.1100   -0.3590 C   0  0  0  0  0  0  0  0  0  0  0  0
   -4.7400   -3.2540   -1.7070 C   0  0  0  0  0  0  0  0  0  0  0  0
   -4.9870   -4.8280   -2.4380 Cl  0  0  0  0  0  0  0  0  0  0  0  0
   -4.3520   -2.1380   -2.4320 C   0  0  0  0  0  0  0  0  0  0  0  0
   -4.0740   -2.3610   -4.1550 Cl  0  0  0  0  0  0  0  0  0  0  0  0
   -4.1620   -0.9030   -1.8750 C   0  0  0  0  0  0  0  0  0  0  0  0
   -4.3630   -0.7300   -0.5030 C   0  0  0  0  0  0  0  0  0  0  0  0
   -4.0450    0.5310    0.1610 C   0  0  1  0  0  0  0  0  0  0  0  0
   -2.6430    0.7930    0.4490 N   0  0  0  0  0  0  0  0  0  0  0  0
   -1.9090    1.8720   -0.0920 C   0  0  0  0  0  0  0  0  0  0  0  0
   -2.5470    2.5890   -0.9400 O   0  0  0  0  0  0  0  0  0  0  0  0
   -0.5270    2.2760    0.2010 C   0  0  0  0  0  0  0  0  0  0  0  0
    0.3240    1.4950    1.0110 N   0  0  0  0  0  0  0  0  0  0  0  0
    0.0880    1.1350    2.2960 N   0  0  0  0  0  0  0  0  0  0  0  0
    1.1230    0.4150    2.7270 C   0  0  0  0  0  0  0  0  0  0  0  0
    2.0420    0.2960    1.7310 C   0  0  0  0  0  0  0  0  0  0  0  0
    3.2990   -0.1520    1.3530 C   0  0  0  0  0  0  0  0  0  0  0  0
    4.2720   -0.8280    2.0420 C   0  0  0  0  0  0  0  0  0  0  0  0
    5.4780   -1.0820    1.4380 C   0  0  0  0  0  0  0  0  0  0  0  0
    5.7090   -0.6700    0.1610 C   0  0  0  0  0  0  0  0  0  0  0  0
    7.0420   -0.8490   -0.4620 C   0  0  0  0  0  0  0  0  0  0  0  0
    8.0810   -1.4800    0.1430 C   0  0  0  0  0  0  0  0  0  0  0  0
    9.3130   -1.5730   -0.4760 C   0  0  0  0  0  0  0  0  0  0  0  0
    9.5190   -1.0360   -1.7070 C   0  0  0  0  0  0  0  0  0  0  0  0
    8.4150   -0.3890   -2.3040 C   0  0  0  0  0  0  0  0  0  0  0  0
    7.2310   -0.3110   -1.6910 N   0  0  0  0  0  0  0  0  0  0  0  0
    4.7540   -0.0160   -0.5090 N   0  0  0  0  0  0  0  0  0  0  0  0
    3.5570    0.2390    0.0880 C   0  0  0  0  0  0  0  0  0  0  0  0
    2.4530    0.9280   -0.3310 N   0  0  0  0  0  0  0  0  0  0  0  0
    1.5300    0.9770    0.6510 C   0  0  0  0  0  0  0  0  0  0  0  0
   -4.8680    1.6970   -0.2560 C   0  0  2  0  0  0  0  0  0  0  0  0
   -5.0470    2.2620   -1.5710 C   0  0  0  0  0  0  0  0  0  0  0  0
   -4.6990    2.8110    0.8190 C   0  0  0  0  0  0  0  0  0  0  0  0
  1  2  1  0
  2  3  2  0
  2  9  1  0
  3  4  1  0
  4  5  1  0
  4  6  2  0
  6  7  1  0
  6  8  1  0
  8  9  2  0
  9 10  1  0
 10 11  1  6
 10 33  1  0
 11 12  1  0
 12 13  2  0
 12 14  1  0
 14 15  1  0
 15 16  1  0
 15 32  1  0
 16 17  2  0
 17 18  1  0
 18 19  1  0
 18 32  2  0
 19 20  2  0
 19 30  1  0
 20 21  1  0
 21 22  2  0
 22 23  1  0
 22 29  1  0
 23 24  2  0
 23 28  1  0
 24 25  1  0
 25 26  2  0
 26 27  1  0
 27 28  2  0
 29 30  2  0
 30 31  1  0
 31 32  1  0
 33 34  1  6
 33 35  1  0
M  END
