
     RDKit          3D

 34 38  0  0  0  0  0  0  0  0999 V2000
   -1.3060   -0.6200    4.9410 C   0  0  0  0  0  0  0  0  0  0  0  0
   -1.7810   -0.0400    3.7010 N   0  0  0  0  0  0  0  0  0  0  0  0
   -2.8830    0.8040    3.4650 C   0  0  0  0  0  0  0  0  0  0  0  0
   -3.6940    1.2260    4.3320 O   0  0  0  0  0  0  0  0  0  0  0  0
   -2.9580    1.1290    2.0460 C   0  0  0  0  0  0  0  0  0  0  0  0
   -3.8550    1.9110    1.3550 C   0  0  0  0  0  0  0  0  0  0  0  0
   -3.6440    2.0190   -0.0110 C   0  0  0  0  0  0  0  0  0  0  0  0
   -4.5540    2.8230   -0.7680 N   0  0  0  0  0  0  0  0  0  0  0  0
   -4.3510    2.9460   -2.1840 C   0  0  0  0  0  0  0  0  0  0  0  0
   -5.6410    3.4860   -0.1080 C   0  0  0  0  0  0  0  0  0  0  0  0
   -2.6190    1.3880   -0.5920 N   0  0  0  0  0  0  0  0  0  0  0  0
   -1.7150    0.6170    0.0110 C   0  0  0  0  0  0  0  0  0  0  0  0
   -0.6290   -0.0270   -0.6210 N   0  0  0  0  0  0  0  0  0  0  0  0
   -0.3960    0.0470   -2.0030 C   0  0  0  0  0  0  0  0  0  0  0  0
   -1.2800    0.5170   -2.9490 C   0  0  0  0  0  0  0  0  0  0  0  0
   -1.0260    0.5070   -4.3150 C   0  0  0  0  0  0  0  0  0  0  0  0
    0.1540    0.0110   -4.7660 C   0  0  0  0  0  0  0  0  0  0  0  0
    1.0780   -0.4750   -3.8460 C   0  0  0  0  0  0  0  0  0  0  0  0
    0.8200   -0.4620   -2.4930 C   0  0  0  0  0  0  0  0  0  0  0  0
    1.7980   -0.8940   -1.5720 N   0  0  0  0  0  0  0  0  0  0  0  0
    2.9750   -1.6090   -1.8180 C   0  0  0  0  0  0  0  0  0  0  0  0
    3.2360   -1.9400   -3.0010 O   0  0  0  0  0  0  0  0  0  0  0  0
    3.9640   -2.0280   -0.8270 C   0  0  0  0  0  0  0  0  0  0  0  0
    5.0980   -2.7450   -1.2390 C   0  0  0  0  0  0  0  0  0  0  0  0
    6.0580   -3.1630   -0.3560 C   0  0  0  0  0  0  0  0  0  0  0  0
    5.8900   -2.8620    0.9780 C   0  0  0  0  0  0  0  0  0  0  0  0
    4.8020   -2.1640    1.4440 C   0  0  0  0  0  0  0  0  0  0  0  0
    3.8510   -1.7570    0.5180 C   0  0  0  0  0  0  0  0  0  0  0  0
    2.8510   -1.0750    1.2150 O   0  0  0  0  0  0  0  0  0  0  0  0
    3.2970   -0.7100    2.5100 C   0  0  0  0  0  0  0  0  0  0  0  0
    4.3890   -1.7170    2.8020 C   0  0  0  0  0  0  0  0  0  0  0  0
   -1.9060    0.4900    1.4040 C   0  0  0  0  0  0  0  0  0  0  0  0
   -1.1650   -0.2400    2.4120 C   0  0  0  0  0  0  0  0  0  0  0  0
   -0.1400   -0.9470    2.2290 O   0  0  0  0  0  0  0  0  0  0  0  0
  1  2  1  0
  2  3  1  0
  2 33  1  0
  3  4  2  0
  3  5  1  0
  5  6  2  0
  5 32  1  0
  6  7  1  0
  7  8  1  0
  7 11  2  0
  8  9  1  0
  8 10  1  0
 11 12  1  0
 12 13  1  0
 12 32  2  0
 13 14  1  0
 14 15  2  0
 14 19  1  0
 15 16  1  0
 16 17  2  0
 17 18  1  0
 18 19  2  0
 19 20  1  0
 20 21  1  0
 21 22  2  0
 21 23  1  0
 23 24  2  0
 23 28  1  0
 24 25  1  0
 25 26  2  0
 26 27  1  0
 27 28  2  0
 27 31  1  0
 28 29  1  0
 29 30  1  0
 30 31  1  0
 32 33  1  0
 33 34  2  0
M  END
