
     RDKit          3D

 35 39  0  0  0  0  0  0  0  0999 V2000
    9.4310   -0.4760    1.0530 C   0  0  0  0  0  0  0  0  0  0  0  0
    9.8840   -1.4420   -0.0040 C   0  0  1  0  0  0  0  0  0  0  0  0
    9.5210   -3.1020    0.5180 Cl  0  0  0  0  0  0  0  0  0  0  0  0
    9.1900   -1.1610   -1.3220 C   0  0  0  0  0  0  0  0  0  0  0  0
    7.7290   -1.3080   -1.0990 C   0  0  0  0  0  0  0  0  0  0  0  0
    6.9000   -0.3030   -0.7170 N   0  0  0  0  0  0  0  0  0  0  0  0
    5.6670   -0.8050   -0.6180 C   0  0  0  0  0  0  0  0  0  0  0  0
    4.4650   -0.0560   -0.2300 C   0  0  0  0  0  0  0  0  0  0  0  0
    4.5180    1.2860    0.0770 C   0  0  0  0  0  0  0  0  0  0  0  0
    3.3460    1.9560    0.4410 C   0  0  0  0  0  0  0  0  0  0  0  0
    2.1330    1.3010    0.5010 C   0  0  0  0  0  0  0  0  0  0  0  0
    0.9240    1.9830    0.8740 N   0  0  0  0  0  0  0  0  0  0  0  0
   -0.2930    1.2430    0.9140 C   0  0  1  0  0  0  0  0  0  0  0  0
   -1.4210    2.1580    1.3280 C   0  0  0  0  0  0  0  0  0  0  0  0
   -2.6130    1.2840    1.6540 C   0  0  0  0  0  0  0  0  0  0  0  0
   -2.9390    0.3890    0.4960 C   0  0  1  0  0  0  0  0  0  0  0  0
   -4.3700    0.6460    0.1260 C   0  0  0  0  0  0  0  0  0  0  0  0
   -4.7280    1.9320   -0.2160 C   0  0  0  0  0  0  0  0  0  0  0  0
   -6.0370    2.2030   -0.5620 C   0  0  0  0  0  0  0  0  0  0  0  0
   -6.5340    3.8200   -1.0030 Cl  0  0  0  0  0  0  0  0  0  0  0  0
   -6.9790    1.1770   -0.5620 C   0  0  0  0  0  0  0  0  0  0  0  0
   -6.6000   -0.0930   -0.2180 C   0  0  0  0  0  0  0  0  0  0  0  0
   -7.5180   -1.2050   -0.1950 C   0  0  0  0  0  0  0  0  0  0  0  0
   -7.1000   -2.4680    0.1560 C   0  0  0  0  0  0  0  0  0  0  0  0
   -7.9550   -3.5490    0.1870 C   0  0  0  0  0  0  0  0  0  0  0  0
   -9.2730   -3.3460   -0.1470 C   0  0  0  0  0  0  0  0  0  0  0  0
   -9.6960   -2.1040   -0.4940 N   0  0  0  0  0  0  0  0  0  0  0  0
   -8.8360   -1.0380   -0.5210 C   0  0  0  0  0  0  0  0  0  0  0  0
   -5.2930   -0.3040    0.1150 N   0  0  0  0  0  0  0  0  0  0  0  0
   -2.1110    0.6840   -0.7270 C   0  0  0  0  0  0  0  0  0  0  0  0
   -0.6410    0.6930   -0.4570 C   0  0  0  0  0  0  0  0  0  0  0  0
    2.1190   -0.0070    0.1950 N   0  0  0  0  0  0  0  0  0  0  0  0
    3.2380   -0.6790   -0.1600 C   0  0  0  0  0  0  0  0  0  0  0  0
    5.7570   -2.1060   -0.9400 N   0  0  0  0  0  0  0  0  0  0  0  0
    6.9930   -2.3860   -1.2240 O   0  0  0  0  0  0  0  0  0  0  0  0
  2  1  1  1
  2  3  1  0
  2  4  1  0
  4  5  1  0
  5  6  2  0
  5 35  1  0
  6  7  1  0
  7  8  1  0
  7 34  2  0
  8  9  2  0
  8 33  1  0
  9 10  1  0
 10 11  2  0
 11 12  1  0
 11 32  1  0
 13 12  1  6
 13 14  1  0
 13 31  1  0
 14 15  1  0
 15 16  1  0
 16 17  1  6
 16 30  1  0
 17 18  2  0
 17 29  1  0
 18 19  1  0
 19 20  1  0
 19 21  2  0
 21 22  1  0
 22 23  1  0
 22 29  2  0
 23 24  2  0
 23 28  1  0
 24 25  1  0
 25 26  2  0
 26 27  1  0
 27 28  2  0
 30 31  1  0
 32 33  2  0
 34 35  1  0
M  END
