
     RDKit          3D

 34 38  0  0  0  0  0  0  0  0999 V2000
    2.7230   -2.8820    2.7080 C   0  0  0  0  0  0  0  0  0  0  0  0
    2.6610   -1.9010    1.5970 C   0  0  0  0  0  0  0  0  0  0  0  0
    1.5260   -1.1190    1.3610 C   0  0  0  0  0  0  0  0  0  0  0  0
    1.4050   -0.1970    0.3550 C   0  0  0  0  0  0  0  0  0  0  0  0
    0.2730    0.6450    0.0900 C   0  0  0  0  0  0  0  0  0  0  0  0
    0.3520    1.3530   -0.9860 O   0  0  0  0  0  0  0  0  0  0  0  0
   -0.9050    0.8140    0.8240 N   0  0  0  0  0  0  0  0  0  0  0  0
   -1.2490    0.1850    2.0680 C   0  0  0  0  0  0  0  0  0  0  0  0
   -2.5120    0.8390    2.6650 C   0  0  0  0  0  0  0  0  0  0  0  0
   -3.5960    0.7080    1.6810 C   0  0  0  0  0  0  0  0  0  0  0  0
   -3.2490    1.1890    0.4030 C   0  0  0  0  0  0  0  0  0  0  0  0
   -4.1610    1.1150   -0.5470 N   0  0  0  0  0  0  0  0  0  0  0  0
   -5.4070    0.5890   -0.3150 C   0  0  0  0  0  0  0  0  0  0  0  0
   -5.7590    0.1160    0.9260 C   0  0  0  0  0  0  0  0  0  0  0  0
   -4.8220    0.1800    1.9480 C   0  0  0  0  0  0  0  0  0  0  0  0
   -5.1470   -0.2540    3.0820 O   0  0  0  0  0  0  0  0  0  0  0  0
   -7.0850   -0.4370    1.1470 C   0  0  0  0  0  0  0  0  0  0  0  0
   -7.3150   -0.8580    2.3300 O   0  0  0  0  0  0  0  0  0  0  0  0
   -8.1020   -0.5110    0.0850 C   0  0  0  0  0  0  0  0  0  0  0  0
   -7.6030    0.0240   -1.1840 C   0  0  0  0  0  0  0  0  0  0  0  0
   -6.3910    0.5250   -1.3890 C   0  0  0  0  0  0  0  0  0  0  0  0
   -6.0210    1.0390   -2.7530 C   0  0  0  0  0  0  0  0  0  0  0  0
   -4.9330    0.3350   -3.2610 O   0  0  0  0  0  0  0  0  0  0  0  0
   -1.8920    1.7430    0.2120 C   0  0  0  0  0  0  0  0  0  0  0  0
    2.5600   -0.0940   -0.4600 C   0  0  0  0  0  0  0  0  0  0  0  0
    3.6590   -0.8590   -0.2230 C   0  0  0  0  0  0  0  0  0  0  0  0
    4.7950   -0.7130   -1.0670 N   0  0  0  0  0  0  0  0  0  0  0  0
    5.9250   -1.5680   -0.8910 C   0  0  0  0  0  0  0  0  0  0  0  0
    7.2580   -0.9310   -1.0790 C   0  0  0  0  0  0  0  0  0  0  0  0
    7.2250    0.4190   -1.5670 N   0  0  0  0  0  0  0  0  0  0  0  0
    7.2300    1.4050   -0.5130 C   0  0  0  0  0  0  0  0  0  0  0  0
    6.2120    0.6560   -2.5550 C   0  0  0  0  0  0  0  0  0  0  0  0
    4.8320    0.2920   -2.1080 C   0  0  0  0  0  0  0  0  0  0  0  0
    3.7110   -1.7420    0.7810 N   0  0  0  0  0  0  0  0  0  0  0  0
  1  2  1  0
  2  3  2  0
  2 34  1  0
  3  4  1  0
  4  5  1  0
  4 25  2  0
  5  6  2  0
  5  7  1  0
  7  8  1  0
  7 24  1  0
  8  9  1  0
  9 10  1  0
 10 11  2  0
 10 15  1  0
 11 12  1  0
 11 24  1  0
 12 13  1  0
 13 14  2  0
 13 21  1  0
 14 15  1  0
 14 17  1  0
 15 16  2  0
 17 18  2  0
 17 19  1  0
 19 20  1  0
 20 21  2  0
 21 22  1  0
 22 23  1  0
 25 26  1  0
 26 27  1  0
 26 34  2  0
 27 28  1  0
 27 33  1  0
 28 29  1  0
 29 30  1  0
 30 31  1  0
 30 32  1  0
 32 33  1  0
M  END
