
     RDKit          3D

 34 38  0  0  0  0  0  0  0  0999 V2000
   -8.4610   -0.5180   -1.3030 C   0  0  0  0  0  0  0  0  0  0  0  0
   -7.9810    0.5100   -0.3100 C   0  0  0  0  0  0  0  0  0  0  0  0
   -6.8340    0.0680    0.4670 N   0  0  0  0  0  0  0  0  0  0  0  0
   -6.9820   -0.6170    1.7050 C   0  0  0  0  0  0  0  0  0  0  0  0
   -8.0200   -0.4470    2.3760 O   0  0  0  0  0  0  0  0  0  0  0  0
   -5.8760   -1.5060    2.1300 C   0  0  0  0  0  0  0  0  0  0  0  0
   -4.5360   -0.8100    2.0700 C   0  0  0  0  0  0  0  0  0  0  0  0
   -4.3970   -0.1110    0.7660 C   0  0  0  0  0  0  0  0  0  0  0  0
   -5.4900    0.3010    0.0310 C   0  0  0  0  0  0  0  0  0  0  0  0
   -5.2980    0.9500   -1.1680 C   0  0  0  0  0  0  0  0  0  0  0  0
   -4.0010    1.1600   -1.5820 C   0  0  0  0  0  0  0  0  0  0  0  0
   -2.9520    0.7460   -0.8420 N   0  0  0  0  0  0  0  0  0  0  0  0
   -1.5980    0.8350   -1.0340 C   0  0  0  0  0  0  0  0  0  0  0  0
   -1.0010    1.4670   -2.2510 C   0  0  0  0  0  0  0  0  0  0  0  0
   -0.9200    0.2660    0.0020 C   0  0  0  0  0  0  0  0  0  0  0  0
    0.5170    0.1260    0.2830 C   0  0  0  0  0  0  0  0  0  0  0  0
    0.8340   -0.6190    1.2800 O   0  0  0  0  0  0  0  0  0  0  0  0
    1.5650    0.7130   -0.4120 N   0  0  0  0  0  0  0  0  0  0  0  0
    2.9630    0.5780   -0.1580 C   0  0  0  0  0  0  0  0  0  0  0  0
    3.5390   -0.3550    0.6560 C   0  0  0  0  0  0  0  0  0  0  0  0
    4.9340   -0.3820    0.8470 C   0  0  0  0  0  0  0  0  0  0  0  0
    5.7740    0.5130    0.2330 C   0  0  0  0  0  0  0  0  0  0  0  0
    7.2150    0.5370    0.3490 C   0  0  0  0  0  0  0  0  0  0  0  0
    8.0490   -0.4490    0.1860 C   0  0  0  0  0  0  0  0  0  0  0  0
    9.5360   -0.2600    0.3480 C   0  0  0  0  0  0  0  0  0  0  0  0
   10.1220   -1.3460   -0.4490 C   0  0  0  0  0  0  0  0  0  0  0  0
   11.3050   -1.2970   -0.9240 O   0  0  0  0  0  0  0  0  0  0  0  0
    9.1700   -2.3860   -0.5720 N   0  0  0  0  0  0  0  0  0  0  0  0
    7.8990   -1.8340   -0.1830 C   0  0  0  0  0  0  0  0  0  0  0  0
    6.8280   -2.4800   -0.1740 O   0  0  0  0  0  0  0  0  0  0  0  0
    5.2010    1.4680   -0.5980 C   0  0  0  0  0  0  0  0  0  0  0  0
    3.8420    1.4800   -0.7720 C   0  0  0  0  0  0  0  0  0  0  0  0
   -1.9040   -0.1860    0.8530 N   0  0  0  0  0  0  0  0  0  0  0  0
   -3.0940    0.1130    0.3260 C   0  0  0  0  0  0  0  0  0  0  0  0
  1  2  1  0
  2  3  1  0
  3  4  1  0
  3  9  1  0
  4  5  2  0
  4  6  1  0
  6  7  1  0
  7  8  1  0
  8  9  2  0
  8 34  1  0
  9 10  1  0
 10 11  2  0
 11 12  1  0
 12 13  1  0
 12 34  1  0
 13 14  1  0
 13 15  2  0
 15 16  1  0
 15 33  1  0
 16 17  2  0
 16 18  1  0
 18 19  1  0
 19 20  2  0
 19 32  1  0
 20 21  1  0
 21 22  2  0
 22 23  1  0
 22 31  1  0
 23 24  2  3
 24 25  1  0
 24 29  1  0
 25 26  1  0
 26 27  2  0
 26 28  1  0
 28 29  1  0
 29 30  2  0
 31 32  2  0
 33 34  2  0
M  END
