
     RDKit          3D

 35 38  0  0  0  0  0  0  0  0999 V2000
   -4.9600    1.7900   -2.4470 C   0  0  0  0  0  0  0  0  0  0  0  0
   -3.9260    1.4880   -1.5020 O   0  0  0  0  0  0  0  0  0  0  0  0
   -3.8610    2.2530   -0.3460 C   0  0  0  0  0  0  0  0  0  0  0  0
   -4.7500    3.2730   -0.0950 C   0  0  0  0  0  0  0  0  0  0  0  0
   -4.6860    4.0390    1.0610 C   0  0  0  0  0  0  0  0  0  0  0  0
   -3.7060    3.7900    2.0110 C   0  0  0  0  0  0  0  0  0  0  0  0
   -2.8140    2.7650    1.7580 C   0  0  0  0  0  0  0  0  0  0  0  0
   -2.8850    2.0060    0.6010 C   0  0  0  0  0  0  0  0  0  0  0  0
   -1.9600    0.9170    0.3560 C   0  0  0  0  0  0  0  0  0  0  0  0
   -2.4300   -0.3290    0.0750 C   0  0  0  0  0  0  0  0  0  0  0  0
   -1.6100   -1.4270   -0.1170 C   0  0  0  0  0  0  0  0  0  0  0  0
   -2.1010   -2.7650   -0.4270 C   0  0  1  0  0  0  0  0  0  0  0  0
   -3.2720   -3.2290    0.3980 C   0  0  0  0  0  0  0  0  0  0  0  0
   -3.6090   -4.5950   -0.0720 C   0  0  0  0  0  0  0  0  0  0  0  0
   -4.2440   -4.8110   -1.1340 O   0  0  0  0  0  0  0  0  0  0  0  0
   -3.1990   -5.6660    0.7040 O   0  0  0  0  0  0  0  0  0  0  0  0
   -2.5230   -2.8930   -1.8590 C   0  0  0  0  0  0  0  0  0  0  0  0
   -1.9800   -3.7270   -2.6350 O   0  0  0  0  0  0  0  0  0  0  0  0
   -3.5260   -2.1020   -2.3970 O   0  0  0  0  0  0  0  0  0  0  0  0
   -0.2620   -1.2070   -0.0130 C   0  0  0  0  0  0  0  0  0  0  0  0
    0.2960    0.0540    0.2730 C   0  0  0  0  0  0  0  0  0  0  0  0
    1.7400    0.1920    0.3570 C   0  0  0  0  0  0  0  0  0  0  0  0
    2.6560   -0.8030    0.1990 N   0  0  0  0  0  0  0  0  0  0  0  0
    3.8870   -0.2980    0.3430 C   0  0  0  0  0  0  0  0  0  0  0  0
    5.1570   -0.8420    0.2820 C   0  0  0  0  0  0  0  0  0  0  0  0
    6.2750   -0.0740    0.4690 C   0  0  0  0  0  0  0  0  0  0  0  0
    7.6220   -0.5820    0.4250 C   0  0  0  0  0  0  0  0  0  0  0  0
    8.7150    0.3000    0.6070 N   0  0  0  0  0  0  0  0  0  0  0  0
    7.8540   -1.8300    0.2200 N   0  0  0  0  0  0  0  0  0  0  0  0
    6.0960    1.2880    0.7260 C   0  0  0  0  0  0  0  0  0  0  0  0
    4.8520    1.8630    0.7940 C   0  0  0  0  0  0  0  0  0  0  0  0
    3.7490    1.0390    0.5960 C   0  0  0  0  0  0  0  0  0  0  0  0
    2.4270    1.2980    0.5970 N   0  0  0  0  0  0  0  0  0  0  0  0
   -0.5800    1.0900    0.4500 C   0  0  0  0  0  0  0  0  0  0  0  0
   -0.1110    2.3400    0.7230 O   0  0  0  0  0  0  0  0  0  0  0  0
  1  2  1  0
  2  3  1  0
  3  4  2  0
  3  8  1  0
  4  5  1  0
  5  6  2  0
  6  7  1  0
  7  8  2  0
  8  9  1  0
  9 10  2  0
  9 34  1  0
 10 11  1  0
 11 12  1  0
 11 20  2  0
 12 13  1  1
 12 17  1  0
 13 14  1  0
 14 15  2  0
 14 16  1  0
 17 18  2  0
 17 19  1  0
 20 21  1  0
 21 22  1  0
 21 34  2  0
 22 23  2  0
 22 33  1  0
 23 24  1  0
 24 25  2  0
 24 32  1  0
 25 26  1  0
 26 27  1  0
 26 30  2  0
 27 28  1  0
 27 29  2  0
 30 31  1  0
 31 32  2  0
 32 33  1  0
 34 35  1  0
M  CHG  1  29   1
M  END
