
     RDKit          3D

 34 38  0  0  0  0  0  0  0  0999 V2000
   -6.0350    1.0410   -2.9090 C   0  0  0  0  0  0  0  0  0  0  0  0
   -5.6700    1.5850   -1.6390 O   0  0  0  0  0  0  0  0  0  0  0  0
   -4.7730    0.9350   -0.8020 C   0  0  0  0  0  0  0  0  0  0  0  0
   -4.2050   -0.2640   -1.1770 C   0  0  0  0  0  0  0  0  0  0  0  0
   -3.3050   -0.9110   -0.3300 C   0  0  0  0  0  0  0  0  0  0  0  0
   -2.7620   -2.1960   -0.7400 C   0  0  0  0  0  0  0  0  0  0  0  0
   -3.6120   -3.1860   -1.1320 N   0  0  0  0  0  0  0  0  0  0  0  0
   -3.1710   -4.3790   -1.5040 C   0  0  0  0  0  0  0  0  0  0  0  0
   -1.8570   -4.5870   -1.4840 N   0  0  0  0  0  0  0  0  0  0  0  0
   -0.9430   -3.6300   -1.1000 C   0  0  0  0  0  0  0  0  0  0  0  0
    0.4970   -3.9630   -1.1390 C   0  0  0  0  0  0  0  0  0  0  0  0
   -1.3760   -2.3910   -0.7130 C   0  0  0  0  0  0  0  0  0  0  0  0
   -0.5230   -1.3080   -0.3720 C   0  0  0  0  0  0  0  0  0  0  0  0
    0.7280   -1.2010   -0.1040 C   0  0  0  0  0  0  0  0  0  0  0  0
    1.2940    0.1360    0.2170 C   0  0  0  0  0  0  0  0  0  0  0  0
    0.5370    1.1380    0.2210 O   0  0  0  0  0  0  0  0  0  0  0  0
    2.6630    0.3080    0.5180 N   0  0  0  0  0  0  0  0  0  0  0  0
    3.5230   -0.8460    0.5120 C   0  0  0  0  0  0  0  0  0  0  0  0
    4.8890   -0.5830    1.0700 C   0  0  0  0  0  0  0  0  0  0  0  0
    5.4690    0.6880    0.5460 C   0  0  0  0  0  0  0  0  0  0  0  0
    4.5990    1.7590    0.4340 C   0  0  0  0  0  0  0  0  0  0  0  0
    5.1270    2.9350   -0.0490 C   0  0  0  0  0  0  0  0  0  0  0  0
    6.4640    3.0380   -0.4040 C   0  0  0  0  0  0  0  0  0  0  0  0
    7.2740    1.9560   -0.2750 N   0  0  0  0  0  0  0  0  0  0  0  0
    6.8000    0.7860    0.1930 C   0  0  0  0  0  0  0  0  0  0  0  0
    7.6250   -0.3710    0.3420 N   0  0  0  0  0  0  0  0  0  0  0  0
    3.1710    1.6170    0.8230 C   0  0  0  0  0  0  0  0  0  0  0  0
   -3.0300   -0.2920    0.8660 C   0  0  0  0  0  0  0  0  0  0  0  0
   -3.5990    0.9120    1.2430 C   0  0  0  0  0  0  0  0  0  0  0  0
   -4.4880    1.5460    0.4020 C   0  0  0  0  0  0  0  0  0  0  0  0
   -5.0660    2.7590    0.7740 O   0  0  0  0  0  0  0  0  0  0  0  0
   -5.1560    3.0170    2.1820 C   0  0  0  0  0  0  0  0  0  0  0  0
   -3.7510    2.8110    2.7370 C   0  0  0  0  0  0  0  0  0  0  0  0
   -3.3030    1.5170    2.4600 O   0  0  0  0  0  0  0  0  0  0  0  0
  1  2  1  0
  2  3  1  0
  3  4  2  0
  3 30  1  0
  4  5  1  0
  5  6  1  0
  5 28  2  0
  6  7  2  0
  6 12  1  0
  7  8  1  0
  8  9  2  0
  9 10  1  0
 10 11  1  0
 10 12  2  0
 12 13  1  0
 13 14  2  3
 14 15  1  0
 15 16  2  0
 15 17  1  0
 17 18  1  0
 17 27  1  0
 18 19  1  0
 19 20  1  0
 20 21  2  0
 20 25  1  0
 21 22  1  0
 21 27  1  0
 22 23  2  0
 23 24  1  0
 24 25  2  0
 25 26  1  0
 28 29  1  0
 29 30  2  0
 29 34  1  0
 30 31  1  0
 31 32  1  0
 32 33  1  0
 33 34  1  0
M  END
