
     RDKit          3D

 35 39  0  0  0  0  0  0  0  0999 V2000
   -4.5820    3.0170   -1.3250 C   0  0  0  0  0  0  0  0  0  0  0  0
   -4.1680    1.5990   -1.0930 C   0  0  0  0  0  0  0  0  0  0  0  0
   -4.4330    0.6160   -2.0220 C   0  0  0  0  0  0  0  0  0  0  0  0
   -4.0290   -0.6720   -1.7530 C   0  0  0  0  0  0  0  0  0  0  0  0
   -3.3700   -0.9820   -0.5790 C   0  0  0  0  0  0  0  0  0  0  0  0
   -2.9750   -2.3980   -0.3600 C   0  0  0  0  0  0  0  0  0  0  0  0
   -3.9830   -3.0270    0.5670 C   0  0  0  0  0  0  0  0  0  0  0  0
   -5.6170   -2.9520   -0.1700 Cl  0  0  0  0  0  0  0  0  0  0  0  0
   -3.1230    0.0290    0.3260 C   0  0  0  0  0  0  0  0  0  0  0  0
   -2.4480   -0.2540    1.5730 C   0  0  0  0  0  0  0  0  0  0  0  0
   -2.9620   -0.4110    2.8050 N   0  0  0  0  0  0  0  0  0  0  0  0
   -2.0120   -0.6710    3.6760 N   0  0  0  0  0  0  0  0  0  0  0  0
   -0.8170   -0.7010    3.0650 C   0  0  0  0  0  0  0  0  0  0  0  0
    0.4750   -0.9240    3.4570 C   0  0  0  0  0  0  0  0  0  0  0  0
    1.4870   -0.8780    2.4910 C   0  0  0  0  0  0  0  0  0  0  0  0
    1.2740   -0.6230    1.1630 C   0  0  0  0  0  0  0  0  0  0  0  0
    2.3110   -0.5800    0.1390 C   0  0  0  0  0  0  0  0  0  0  0  0
    1.8820   -0.3220   -1.0710 O   0  0  0  0  0  0  0  0  0  0  0  0
    3.6910   -0.7810    0.3020 N   0  0  0  0  0  0  0  0  0  0  0  0
    4.5290   -1.0820    1.4060 C   0  0  0  0  0  0  0  0  0  0  0  0
    5.9490   -1.3440    0.9310 C   0  0  0  0  0  0  0  0  0  0  0  0
    5.7590   -1.5750   -0.5560 C   0  0  0  0  0  0  0  0  0  0  0  0
    4.5900   -0.6680   -0.8800 C   0  0  2  0  0  0  0  0  0  0  0  0
    5.1180    0.7480   -0.9780 C   0  0  0  0  0  0  0  0  0  0  0  0
   -0.0670   -0.3960    0.7910 C   0  0  0  0  0  0  0  0  0  0  0  0
   -0.3630   -0.1190   -0.5670 N   0  0  0  0  0  0  0  0  0  0  0  0
   -0.3430    1.2260   -1.0130 C   0  0  0  0  0  0  0  0  0  0  0  0
   -0.0300    2.2540   -0.1630 C   0  0  0  0  0  0  0  0  0  0  0  0
    0.0050    3.5460   -0.5300 N   0  0  0  0  0  0  0  0  0  0  0  0
   -0.2830    3.8570   -1.8070 C   0  0  0  0  0  0  0  0  0  0  0  0
   -0.6020    2.8460   -2.6920 C   0  0  0  0  0  0  0  0  0  0  0  0
   -0.6310    1.5550   -2.3020 N   0  0  0  0  0  0  0  0  0  0  0  0
   -1.0670   -0.4370    1.7250 C   0  0  0  0  0  0  0  0  0  0  0  0
   -3.5160    1.3340    0.0890 C   0  0  0  0  0  0  0  0  0  0  0  0
   -3.1670    2.5370    1.3050 Cl  0  0  0  0  0  0  0  0  0  0  0  0
  1  2  1  0
  2  3  2  0
  2 34  1  0
  3  4  1  0
  4  5  2  0
  5  6  1  0
  5  9  1  0
  6  7  1  0
  7  8  1  0
  9 10  1  0
  9 34  2  0
 10 11  2  0
 10 33  1  0
 11 12  1  0
 12 13  1  0
 13 14  2  0
 13 33  1  0
 14 15  1  0
 15 16  2  0
 16 17  1  0
 16 25  1  0
 17 18  2  0
 17 19  1  0
 19 20  1  0
 19 23  1  0
 20 21  1  0
 21 22  1  0
 22 23  1  0
 23 24  1  1
 25 26  1  0
 25 33  2  0
 26 27  1  0
 27 28  2  0
 27 32  1  0
 28 29  1  0
 29 30  2  0
 30 31  1  0
 31 32  2  0
 34 35  1  0
M  END
