
     RDKit          3D

 34 38  0  0  0  0  0  0  0  0999 V2000
    5.5500   -3.0500    2.3680 C   0  0  0  0  0  0  0  0  0  0  0  0
    5.8720   -2.3080    1.1140 C   0  0  0  0  0  0  0  0  0  0  0  0
    6.3020   -2.8900   -0.0480 C   0  0  0  0  0  0  0  0  0  0  0  0
    6.4840   -1.8820   -0.9500 C   0  0  0  0  0  0  0  0  0  0  0  0
    6.1580   -0.7060   -0.3070 C   0  0  0  0  0  0  0  0  0  0  0  0
    6.1960    0.6400   -0.8660 C   0  0  0  0  0  0  0  0  0  0  0  0
    6.7280    0.7490   -2.1230 N   0  0  0  0  0  0  0  0  0  0  0  0
    6.8990    1.8980   -2.7480 C   0  0  0  0  0  0  0  0  0  0  0  0
    6.5270    3.0710   -2.1160 C   0  0  0  0  0  0  0  0  0  0  0  0
    5.9860    3.0270   -0.8560 C   0  0  0  0  0  0  0  0  0  0  0  0
    5.8150    1.7810   -0.2170 C   0  0  0  0  0  0  0  0  0  0  0  0
    5.1640    1.7620    1.0840 C   0  0  0  0  0  0  0  0  0  0  0  0
    3.6940    1.6740    1.1360 C   0  0  0  0  0  0  0  0  0  0  0  0
    3.0280    0.5950    0.5330 N   0  0  0  0  0  0  0  0  0  0  0  0
    1.5910    0.4380    0.6480 C   0  0  0  0  0  0  0  0  0  0  0  0
    0.7190   -0.2580    0.3260 N   0  0  0  0  0  0  0  0  0  0  0  0
   -0.5230   -0.1240    0.6010 N   0  0  0  0  0  0  0  0  0  0  0  0
   -0.9890    0.8060    1.2770 C   0  0  0  0  0  0  0  0  0  0  0  0
   -2.5260    1.4100    1.9030 S   0  0  0  0  0  0  0  0  0  0  0  0
   -3.2970    2.5260    0.7770 C   0  0  0  0  0  0  0  0  0  0  0  0
   -3.9220    1.9740   -0.4720 C   0  0  0  0  0  0  0  0  0  0  0  0
   -5.0380    1.0630   -0.2810 C   0  0  0  0  0  0  0  0  0  0  0  0
   -6.3320    1.6450   -0.2640 C   0  0  0  0  0  0  0  0  0  0  0  0
   -7.4260    0.8420   -0.0290 C   0  0  0  0  0  0  0  0  0  0  0  0
   -7.2760   -0.5100    0.1870 C   0  0  0  0  0  0  0  0  0  0  0  0
   -8.4500   -1.3830    0.4420 C   0  0  0  0  0  0  0  0  0  0  0  0
   -6.0080   -1.0720    0.1680 C   0  0  0  0  0  0  0  0  0  0  0  0
   -4.8870   -0.2680   -0.0710 C   0  0  0  0  0  0  0  0  0  0  0  0
   -3.5950   -0.9210   -0.1390 C   0  0  0  0  0  0  0  0  0  0  0  0
   -3.8340   -2.2600   -0.8800 C   0  0  0  0  0  0  0  0  0  0  0  0
   -4.6290   -3.0920   -0.0050 N   0  0  0  0  0  0  0  0  0  0  0  0
   -5.8680   -2.5180    0.4020 C   0  0  0  0  0  0  0  0  0  0  0  0
    0.6250    1.7310    1.6360 S   0  0  0  0  0  0  0  0  0  0  0  0
    5.8110   -1.0360    0.8930 O   0  0  0  0  0  0  0  0  0  0  0  0
  1  2  1  0
  2  3  2  0
  2 34  1  0
  3  4  1  0
  4  5  2  0
  5  6  1  0
  5 34  1  0
  6  7  2  0
  6 11  1  0
  7  8  1  0
  8  9  2  0
  9 10  1  0
 10 11  2  0
 11 12  1  0
 12 13  1  0
 13 14  1  0
 14 15  1  0
 15 16  2  0
 15 33  1  0
 16 17  1  0
 17 18  2  0
 18 19  1  0
 18 33  1  0
 19 20  1  0
 20 21  1  0
 21 22  1  0
 22 23  2  0
 22 28  1  0
 23 24  1  0
 24 25  2  0
 25 26  1  0
 25 27  1  0
 27 28  2  0
 27 32  1  0
 28 29  1  0
 29 30  1  0
 30 31  1  0
 31 32  1  0
M  END
