
     RDKit          3D

 35 37  0  0  0  0  0  0  0  0999 V2000
   -5.9140    4.0430   -1.6330 C   0  0  0  0  0  0  0  0  0  0  0  0
   -6.2870    2.9350   -0.6940 C   0  0  0  0  0  0  0  0  0  0  0  0
   -7.4270    2.9400   -0.2230 O   0  0  0  0  0  0  0  0  0  0  0  0
   -5.2790    1.8920   -0.3770 C   0  0  0  0  0  0  0  0  0  0  0  0
   -4.1060    1.9910   -0.9500 C   0  0  0  0  0  0  0  0  0  0  0  0
   -2.9600    1.1680   -0.8360 C   0  0  0  0  0  0  0  0  0  0  0  0
   -2.1610    0.5320   -1.7460 C   0  0  0  0  0  0  0  0  0  0  0  0
   -1.0800   -0.1240   -1.3090 C   0  0  0  0  0  0  0  0  0  0  0  0
   -0.7740   -0.1620   -0.0100 C   0  0  0  0  0  0  0  0  0  0  0  0
    0.2800   -0.7390    0.8190 C   0  0  0  0  0  0  0  0  0  0  0  0
    1.2720   -1.4690    0.0600 N   0  0  0  0  0  0  0  0  0  0  0  0
    2.4390   -0.7920   -0.4490 C   0  0  0  0  0  0  0  0  0  0  0  0
    3.2860   -1.4890   -1.0480 O   0  0  0  0  0  0  0  0  0  0  0  0
    2.6970    0.6360   -0.3160 C   0  0  2  0  0  0  0  0  0  0  0  0
    2.2420    1.2630   -1.6590 C   0  0  0  0  0  0  0  0  0  0  0  0
    4.0840    1.0200   -0.2150 N   0  0  0  0  0  0  0  0  0  0  0  0
    4.5130    1.9700    0.7440 C   0  0  0  0  0  0  0  0  0  0  0  0
    3.5950    2.4380    1.4860 O   0  0  0  0  0  0  0  0  0  0  0  0
    5.8740    2.4260    0.9270 C   0  0  0  0  0  0  0  0  0  0  0  0
    6.2690    3.3510    1.8730 C   0  0  0  0  0  0  0  0  0  0  0  0
    7.6280    3.5600    1.7770 C   0  0  0  0  0  0  0  0  0  0  0  0
    8.0200    2.7290    0.7450 C   0  0  0  0  0  0  0  0  0  0  0  0
    6.9630    2.0840    0.2760 O   0  0  0  0  0  0  0  0  0  0  0  0
    1.0420   -2.8630   -0.1480 C   0  0  1  0  0  0  0  0  0  0  0  0
    0.8230   -3.3040   -1.5570 C   0  0  0  0  0  0  0  0  0  0  0  0
    1.8310   -3.0670   -2.4430 O   0  0  0  0  0  0  0  0  0  0  0  0
    2.1010   -3.6630    0.5560 C   0  0  0  0  0  0  0  0  0  0  0  0
    1.9550   -5.1490    0.4100 C   0  0  0  0  0  0  0  0  0  0  0  0
    0.7690   -5.6580    0.9040 O   0  0  0  0  0  0  0  0  0  0  0  0
   -2.0690    0.7760    0.7180 S   0  0  0  0  0  0  0  0  0  0  0  0
   -5.7490    0.8030    0.4580 C   0  0  0  0  0  0  0  0  0  0  0  0
   -5.1400   -0.4260    0.5880 C   0  0  0  0  0  0  0  0  0  0  0  0
   -5.8420   -1.2030    1.5220 C   0  0  0  0  0  0  0  0  0  0  0  0
   -6.8600   -0.4560    1.9480 N   0  0  0  0  0  0  0  0  0  0  0  0
   -6.8210    0.7510    1.3210 C   0  0  0  0  0  0  0  0  0  0  0  0
  1  2  1  0
  2  3  2  0
  2  4  1  0
  4  5  2  3
  4 31  1  0
  5  6  1  0
  6  7  2  0
  6 30  1  0
  7  8  1  0
  8  9  2  0
  9 10  1  0
  9 30  1  0
 10 11  1  0
 11 12  1  0
 11 24  1  0
 12 13  2  0
 12 14  1  0
 14 15  1  6
 14 16  1  0
 16 17  1  0
 17 18  2  0
 17 19  1  0
 19 20  2  0
 19 23  1  0
 20 21  1  0
 21 22  2  0
 22 23  1  0
 24 25  1  6
 24 27  1  0
 25 26  1  0
 27 28  1  0
 28 29  1  0
 31 32  1  0
 31 35  2  0
 32 33  2  0
 33 34  1  0
 34 35  1  0
M  END
