
     RDKit          3D

 34 37  0  0  0  0  0  0  0  0999 V2000
    7.1460   -1.0330   -0.1040 N   0  0  0  0  0  0  0  0  0  0  0  0
    6.8090    0.3470    0.1230 C   0  0  0  0  0  0  0  0  0  0  0  0
    7.7540    1.1820    0.3200 N   0  0  0  0  0  0  0  0  0  0  0  0
    5.4130    0.7460    0.1090 C   0  0  0  0  0  0  0  0  0  0  0  0
    5.0230    2.0470    0.2640 C   0  0  0  0  0  0  0  0  0  0  0  0
    3.6670    2.3580    0.2560 C   0  0  0  0  0  0  0  0  0  0  0  0
    2.7160    1.3900    0.0970 C   0  0  0  0  0  0  0  0  0  0  0  0
    1.3870    1.4360    0.0590 N   0  0  0  0  0  0  0  0  0  0  0  0
    0.8930    0.1910   -0.1180 C   0  0  0  0  0  0  0  0  0  0  0  0
   -0.5450   -0.0770   -0.2160 C   0  0  0  0  0  0  0  0  0  0  0  0
   -1.4560    0.9870   -0.2280 C   0  0  0  0  0  0  0  0  0  0  0  0
   -2.8140    0.8130   -0.2960 C   0  0  0  0  0  0  0  0  0  0  0  0
   -3.7880    1.9270   -0.2970 C   0  0  1  0  0  0  0  0  0  0  0  0
   -3.9550    2.5540    1.0720 C   0  0  0  0  0  0  0  0  0  0  0  0
   -2.7540    3.1280    1.6480 C   0  0  0  0  0  0  0  0  0  0  0  0
   -1.9820    2.4350    2.3500 O   0  0  0  0  0  0  0  0  0  0  0  0
   -2.4280    4.4550    1.4370 O   0  0  0  0  0  0  0  0  0  0  0  0
   -3.5080    2.9320   -1.3370 C   0  0  0  0  0  0  0  0  0  0  0  0
   -4.3700    3.1480   -2.2270 O   0  0  0  0  0  0  0  0  0  0  0  0
   -2.3560    3.6900   -1.4380 O   0  0  0  0  0  0  0  0  0  0  0  0
   -3.2450   -0.5070   -0.3540 C   0  0  0  0  0  0  0  0  0  0  0  0
   -2.3790   -1.5620   -0.3440 C   0  0  0  0  0  0  0  0  0  0  0  0
   -2.8740   -2.9420   -0.3690 C   0  0  0  0  0  0  0  0  0  0  0  0
   -2.3470   -3.7910    0.6080 C   0  0  0  0  0  0  0  0  0  0  0  0
   -2.7540   -5.0960    0.6890 C   0  0  0  0  0  0  0  0  0  0  0  0
   -3.6750   -5.6090   -0.1680 C   0  0  0  0  0  0  0  0  0  0  0  0
   -4.1950   -4.7510   -1.1410 C   0  0  0  0  0  0  0  0  0  0  0  0
   -3.7930   -3.4320   -1.2320 C   0  0  0  0  0  0  0  0  0  0  0  0
   -4.3140   -2.6290   -2.1870 F   0  0  0  0  0  0  0  0  0  0  0  0
   -0.9870   -1.3750   -0.2740 C   0  0  0  0  0  0  0  0  0  0  0  0
   -0.1670   -2.4920   -0.2680 O   0  0  0  0  0  0  0  0  0  0  0  0
    1.9400   -0.6410   -0.1910 N   0  0  0  0  0  0  0  0  0  0  0  0
    3.0720    0.0600   -0.0630 C   0  0  0  0  0  0  0  0  0  0  0  0
    4.4220   -0.2330   -0.0530 C   0  0  0  0  0  0  0  0  0  0  0  0
  1  2  1  0
  2  3  2  0
  2  4  1  0
  4  5  2  0
  4 34  1  0
  5  6  1  0
  6  7  2  0
  7  8  1  0
  7 33  1  0
  8  9  1  0
  9 10  1  0
  9 32  2  0
 10 11  2  0
 10 30  1  0
 11 12  1  0
 12 13  1  0
 12 21  2  0
 13 14  1  1
 13 18  1  0
 14 15  1  0
 15 16  2  0
 15 17  1  0
 18 19  2  0
 18 20  1  0
 21 22  1  0
 22 23  1  0
 22 30  2  0
 23 24  2  0
 23 28  1  0
 24 25  1  0
 25 26  2  0
 26 27  1  0
 27 28  2  0
 28 29  1  0
 30 31  1  0
 32 33  1  0
 33 34  2  0
M  CHG  1   3   1
M  END
