
     RDKit          3D

 35 37  0  0  0  0  0  0  0  0999 V2000
   10.4160    2.0650    1.2360 C   0  0  0  0  0  0  0  0  0  0  0  0
    9.1220    1.9060    1.7790 O   0  0  0  0  0  0  0  0  0  0  0  0
    8.0620    1.5870    0.9640 C   0  0  0  0  0  0  0  0  0  0  0  0
    8.2120    1.4130   -0.3820 C   0  0  0  0  0  0  0  0  0  0  0  0
    7.1230    1.0970   -1.1440 C   0  0  0  0  0  0  0  0  0  0  0  0
    5.8370    0.9420   -0.5900 C   0  0  0  0  0  0  0  0  0  0  0  0
    4.7950    0.5980   -1.4740 N   0  0  0  0  0  0  0  0  0  0  0  0
    3.4370    0.6780   -1.0980 C   0  0  0  0  0  0  0  0  0  0  0  0
    3.0310    1.0620    0.0280 O   0  0  0  0  0  0  0  0  0  0  0  0
    2.4520    0.2910   -2.0780 N   0  0  0  0  0  0  0  0  0  0  0  0
    1.0680    0.3470   -1.7560 C   0  0  0  0  0  0  0  0  0  0  0  0
    0.6300   -0.5230   -0.6110 C   0  0  1  0  0  0  0  0  0  0  0  0
   -0.8270   -0.2740   -0.3820 C   0  0  0  0  0  0  0  0  0  0  0  0
   -1.5890   -1.5720   -0.4970 C   0  0  2  0  0  0  0  0  0  0  0  0
   -1.7210   -2.0450   -1.9130 C   0  0  0  0  0  0  0  0  0  0  0  0
   -2.4940   -3.3430   -1.9170 C   0  0  0  0  0  0  0  0  0  0  0  0
   -2.6600   -3.8370   -3.2120 O   0  0  0  0  0  0  0  0  0  0  0  0
   -2.9910   -1.2540   -0.0270 C   0  0  0  0  0  0  0  0  0  0  0  0
   -3.5350   -1.8800    0.9850 C   0  0  0  0  0  0  0  0  0  0  0  0
   -4.9110   -1.5200    1.3920 C   0  0  0  0  0  0  0  0  0  0  0  0
   -5.4550   -2.0970    2.3510 O   0  0  0  0  0  0  0  0  0  0  0  0
   -5.6390   -0.4880    0.6730 C   0  0  0  0  0  0  0  0  0  0  0  0
   -6.8530   -0.1350    0.9920 C   0  0  0  0  0  0  0  0  0  0  0  0
   -7.7520    1.1150    0.1310 S   0  0  0  0  0  0  0  0  0  0  0  0
   -7.1370    2.7790    0.4980 C   0  0  0  0  0  0  0  0  0  0  0  0
   -7.3770    3.1520    1.9210 C   0  0  0  0  0  0  0  0  0  0  0  0
   -7.9530    2.4020    2.7740 N   0  0  0  0  0  0  0  0  0  0  0  0
   -6.9280    4.4140    2.3040 O   0  0  0  0  0  0  0  0  0  0  0  0
   -4.9630    0.1600   -0.4420 C   0  0  0  0  0  0  0  0  0  0  0  0
   -3.7320   -0.2220   -0.7380 C   0  0  0  0  0  0  0  0  0  0  0  0
   -0.9460   -2.5550    0.4360 C   0  0  0  0  0  0  0  0  0  0  0  0
    0.4900   -2.7490    0.0120 C   0  0  0  0  0  0  0  0  0  0  0  0
    0.9260   -1.8510   -0.9300 O   0  0  0  0  0  0  0  0  0  0  0  0
    5.7230    1.1200    0.7450 C   0  0  0  0  0  0  0  0  0  0  0  0
    6.8220    1.4410    1.5250 C   0  0  0  0  0  0  0  0  0  0  0  0
  1  2  1  0
  2  3  1  0
  3  4  2  0
  3 35  1  0
  4  5  1  0
  5  6  2  0
  6  7  1  0
  6 34  1  0
  7  8  1  0
  8  9  2  0
  8 10  1  0
 10 11  1  0
 12 11  1  6
 12 13  1  0
 12 33  1  0
 13 14  1  0
 14 15  1  6
 14 18  1  0
 14 31  1  0
 15 16  1  0
 16 17  1  0
 18 19  2  0
 18 30  1  0
 19 20  1  0
 20 21  2  0
 20 22  1  0
 22 23  2  3
 22 29  1  0
 23 24  1  0
 24 25  1  0
 25 26  1  0
 26 27  2  0
 26 28  1  0
 29 30  2  0
 31 32  1  0
 32 33  1  0
 34 35  2  0
M  END
