
     RDKit          3D

 33 37  0  0  0  0  0  0  0  0999 V2000
   -7.0640    2.4760   -2.1080 C   0  0  0  0  0  0  0  0  0  0  0  0
   -6.8830    1.1640   -1.3950 C   0  0  0  0  0  0  0  0  0  0  0  0
   -7.9500    0.3100   -1.2570 C   0  0  0  0  0  0  0  0  0  0  0  0
   -7.7390   -0.8670   -0.5920 C   0  0  0  0  0  0  0  0  0  0  0  0
   -8.7490   -1.7900   -0.4000 C   0  0  0  0  0  0  0  0  0  0  0  0
   -8.5760   -2.9940    0.2690 C   0  0  0  0  0  0  0  0  0  0  0  0
   -7.3120   -3.2300    0.7460 C   0  0  0  0  0  0  0  0  0  0  0  0
   -6.2710   -2.3380    0.5800 C   0  0  0  0  0  0  0  0  0  0  0  0
   -6.4620   -1.1430   -0.0880 C   0  0  0  0  0  0  0  0  0  0  0  0
   -5.3990   -0.2690   -0.2350 C   0  0  0  0  0  0  0  0  0  0  0  0
   -4.1300   -0.4860    0.3440 N   0  0  0  0  0  0  0  0  0  0  0  0
   -3.0580    0.4310    0.1590 C   0  0  0  0  0  0  0  0  0  0  0  0
   -3.1660    1.4650   -0.6850 N   0  0  0  0  0  0  0  0  0  0  0  0
   -2.1070    2.3070   -0.8520 C   0  0  0  0  0  0  0  0  0  0  0  0
   -0.9420    2.0820   -0.1480 C   0  0  0  0  0  0  0  0  0  0  0  0
   -0.7860    1.0800    0.6960 N   0  0  0  0  0  0  0  0  0  0  0  0
    0.3460    0.8590    1.5490 C   0  0  0  0  0  0  0  0  0  0  0  0
    1.3050   -0.1760    1.1890 C   0  0  0  0  0  0  0  0  0  0  0  0
    2.1390   -0.1280   -0.0040 C   0  0  0  0  0  0  0  0  0  0  0  0
    3.1390    0.8760   -0.1550 N   0  0  0  0  0  0  0  0  0  0  0  0
    4.1750    0.7790    0.8320 C   0  0  0  0  0  0  0  0  0  0  0  0
    5.5020    0.4500    0.3660 C   0  0  0  0  0  0  0  0  0  0  0  0
    5.9770   -0.1370   -0.7550 C   0  0  0  0  0  0  0  0  0  0  0  0
    7.2860   -0.4060   -0.8790 C   0  0  0  0  0  0  0  0  0  0  0  0
    8.1350   -0.0780    0.1460 C   0  0  0  0  0  0  0  0  0  0  0  0
    7.0310    0.6670    1.3840 S   0  0  0  0  0  0  0  0  0  0  0  0
    9.5770   -0.3210    0.2190 C   0  0  0  0  0  0  0  0  0  0  0  0
   10.4020    0.0730   -0.9520 C   0  0  0  0  0  0  0  0  0  0  0  0
    9.3850    0.0210   -2.4460 S   0  0  0  0  0  0  0  0  0  0  0  0
    7.9750   -1.0640   -2.0600 C   0  0  0  0  0  0  0  0  0  0  0  0
   -1.8610    0.2540    0.8380 C   0  0  0  0  0  0  0  0  0  0  0  0
   -1.8180   -0.7520    1.6270 O   0  0  0  0  0  0  0  0  0  0  0  0
   -5.6630    0.8880   -0.9080 N   0  0  0  0  0  0  0  0  0  0  0  0
  1  2  1  0
  2  3  2  0
  2 33  1  0
  3  4  1  0
  4  5  2  0
  4  9  1  0
  5  6  1  0
  6  7  2  0
  7  8  1  0
  8  9  2  0
  9 10  1  0
 10 11  1  0
 10 33  2  0
 11 12  1  0
 12 13  2  0
 12 31  1  0
 13 14  1  0
 14 15  2  0
 15 16  1  0
 16 17  1  0
 16 31  1  0
 17 18  1  0
 18 19  1  0
 19 20  1  0
 20 21  1  0
 21 22  1  0
 22 23  2  0
 22 26  1  0
 23 24  1  0
 24 25  2  0
 24 30  1  0
 25 26  1  0
 25 27  1  0
 27 28  1  0
 28 29  1  0
 29 30  1  0
 31 32  2  0
M  END
