
     RDKit          3D

 33 37  0  0  0  0  0  0  0  0999 V2000
   -7.5840   -3.2470   -1.5640 C   0  0  0  0  0  0  0  0  0  0  0  0
   -6.7970   -2.5460   -0.4820 C   0  0  1  0  0  0  0  0  0  0  0  0
   -7.0190   -3.2970    0.8460 C   0  0  0  0  0  0  0  0  0  0  0  0
   -5.2950   -2.6230   -0.7480 C   0  0  0  0  0  0  0  0  0  0  0  0
   -4.4180   -1.7410    0.5770 S   0  0  0  0  0  0  0  0  0  0  0  0
   -4.7760    0.0420    0.3730 C   0  0  0  0  0  0  0  0  0  0  0  0
   -4.0740    0.5620   -0.8890 C   0  0  0  0  0  0  0  0  0  0  0  0
   -2.6380    0.3970   -0.7620 N   0  0  0  0  0  0  0  0  0  0  0  0
   -1.9420    1.0840    0.2440 C   0  0  0  0  0  0  0  0  0  0  0  0
   -2.6370    1.8810    0.9980 O   0  0  0  0  0  0  0  0  0  0  0  0
   -0.5690    1.0270    0.5500 N   0  0  0  0  0  0  0  0  0  0  0  0
   -0.0730    2.1600    1.3430 C   0  0  0  0  0  0  0  0  0  0  0  0
    0.3530    3.2690    0.4410 C   0  0  0  0  0  0  0  0  0  0  0  0
    0.8450    4.4880    1.1840 C   0  0  0  0  0  0  0  0  0  0  0  0
    2.1010    4.6690    1.5270 C   0  0  0  0  0  0  0  0  0  0  0  0
    2.5140    5.8120    2.2040 C   0  0  0  0  0  0  0  0  0  0  0  0
    0.9210    6.7030    2.3500 S   0  0  0  0  0  0  0  0  0  0  0  0
   -0.0910    5.4750    1.5100 C   0  0  0  0  0  0  0  0  0  0  0  0
    0.2640   -0.0150    0.1090 C   0  0  0  0  0  0  0  0  0  0  0  0
   -0.0590   -1.2770   -0.3430 C   0  0  0  0  0  0  0  0  0  0  0  0
    1.0890   -1.9240   -0.6310 N   0  0  0  0  0  0  0  0  0  0  0  0
    2.1380   -1.1710   -0.3960 N   0  0  0  0  0  0  0  0  0  0  0  0
    1.6660    0.0030    0.0590 C   0  0  0  0  0  0  0  0  0  0  0  0
    2.7430    0.7580    0.3210 N   0  0  0  0  0  0  0  0  0  0  0  0
    3.8990    0.0840    0.0390 C   0  0  0  0  0  0  0  0  0  0  0  0
    5.2290    0.4420    0.1560 C   0  0  0  0  0  0  0  0  0  0  0  0
    6.2280   -0.4520   -0.1960 C   0  0  0  0  0  0  0  0  0  0  0  0
    5.8290   -1.6820   -0.6560 C   0  0  0  0  0  0  0  0  0  0  0  0
    4.4800   -2.0440   -0.7730 C   0  0  0  0  0  0  0  0  0  0  0  0
    3.4970   -1.1450   -0.4180 C   0  0  0  0  0  0  0  0  0  0  0  0
    7.0380   -2.4820   -0.9900 C   0  0  0  0  0  0  0  0  0  0  0  0
    8.0950   -1.8480   -0.1200 C   0  0  0  0  0  0  0  0  0  0  0  0
    7.7280   -0.3580   -0.1580 C   0  0  0  0  0  0  0  0  0  0  0  0
  2  1  1  6
  2  3  1  0
  2  4  1  0
  4  5  1  0
  5  6  1  0
  6  7  1  0
  7  8  1  0
  8  9  1  0
  9 10  2  0
  9 11  1  0
 11 12  1  0
 11 19  1  0
 12 13  1  0
 13 14  1  0
 14 15  1  0
 14 18  2  0
 15 16  2  0
 16 17  1  0
 17 18  1  0
 19 20  1  0
 19 23  2  0
 20 21  2  0
 21 22  1  0
 22 23  1  0
 22 30  1  0
 23 24  1  0
 24 25  1  0
 25 26  2  0
 25 30  1  0
 26 27  1  0
 27 28  2  0
 27 33  1  0
 28 29  1  0
 28 31  1  0
 29 30  2  0
 31 32  1  0
 32 33  1  0
M  END
