
     RDKit          3D

 18 19  0  0  0  0  0  0  0  0999 V2000
    6.2430    0.2980   -0.5980 C   0  0  0  0  0  0  0  0  0  0  0  0
    4.9590    0.5990    0.0780 C   0  0  0  0  0  0  0  0  0  0  0  0
    3.8090    0.3420   -0.5310 C   0  0  0  0  0  0  0  0  0  0  0  0
    3.5820   -0.3650   -2.1580 S   0  0  0  0  0  0  0  0  0  0  0  0
    1.8040   -0.3190   -2.1240 C   0  0  0  0  0  0  0  0  0  0  0  0
    1.4150    0.1720   -0.9750 C   0  0  0  0  0  0  0  0  0  0  0  0
   -0.0690    0.3110   -0.7070 C   0  0  0  0  0  0  0  0  0  0  0  0
   -0.5680   -0.6100    0.3420 C   0  0  2  0  0  0  0  0  0  0  0  0
   -0.2990   -1.9260   -0.1210 O   0  0  0  0  0  0  0  0  0  0  0  0
   -2.0720   -0.5440    0.4330 C   0  0  1  0  0  0  0  0  0  0  0  0
   -2.5230   -1.5960    1.4130 C   0  0  0  0  0  0  0  0  0  0  0  0
   -2.5820    0.7940    0.8630 C   0  0  0  0  0  0  0  0  0  0  0  0
   -4.0170    0.7660    0.3800 C   0  0  2  0  0  0  0  0  0  0  0  0
   -4.9160    0.7130    1.4440 O   0  0  0  0  0  0  0  0  0  0  0  0
   -4.0480   -0.5030   -0.4400 C   0  0  0  0  0  0  0  0  0  0  0  0
   -2.7000   -0.7630   -0.7710 O   0  0  0  0  0  0  0  0  0  0  0  0
    2.4500    0.5580   -0.0530 C   0  0  0  0  0  0  0  0  0  0  0  0
    2.2820    1.0900    1.1410 N   0  0  0  0  0  0  0  0  0  0  0  0
  1  2  1  0
  2  3  2  3
  3  4  1  0
  3 17  1  0
  4  5  1  0
  5  6  2  0
  6  7  1  0
  6 17  1  0
  7  8  1  0
  8  9  1  6
  8 10  1  0
 10 11  1  1
 10 12  1  0
 10 16  1  0
 12 13  1  0
 13 14  1  1
 13 15  1  0
 15 16  1  0
 17 18  2  0
M  CHG  1  18   1
M  END
