
     RDKit          3D

 18 19  0  0  0  0  0  0  0  0999 V2000
    4.6160    2.2350    0.0720 C   0  0  0  0  0  0  0  0  0  0  0  0
    4.4970    0.7370    0.2160 C   0  0  0  0  0  0  0  0  0  0  0  0
    3.2690    0.3600   -0.3430 O   0  0  0  0  0  0  0  0  0  0  0  0
    3.0760   -1.0260   -0.2520 C   0  0  2  0  0  0  0  0  0  0  0  0
    3.0290   -1.5530   -1.6690 C   0  0  0  0  0  0  0  0  0  0  0  0
    1.7000   -2.8130   -1.6860 S   0  0  0  0  0  0  0  0  0  0  0  0
    0.1650   -1.8570   -1.2850 C   0  0  0  0  0  0  0  0  0  0  0  0
    0.5790   -0.8020   -0.3040 C   0  0  1  0  0  0  0  0  0  0  0  0
   -0.4440   -0.3530    0.6560 C   0  0  0  0  0  0  0  0  0  0  0  0
   -1.6900    0.2700    0.1620 C   0  0  1  0  0  0  0  0  0  0  0  0
   -1.4780    1.4220   -0.5940 O   0  0  0  0  0  0  0  0  0  0  0  0
   -2.6540   -0.6140   -0.5680 C   0  0  0  0  0  0  0  0  0  0  0  0
   -3.8440    0.2620   -0.9650 C   0  0  0  0  0  0  0  0  0  0  0  0
   -4.5550    0.7800    0.1550 N   0  0  0  0  0  0  0  0  0  0  0  0
   -3.7030    1.4520    1.1150 C   0  0  0  0  0  0  0  0  0  0  0  0
   -2.4690    0.6860    1.4430 C   0  0  1  0  0  0  0  0  0  0  0  0
   -2.7510   -0.5060    2.1010 O   0  0  0  0  0  0  0  0  0  0  0  0
    1.7970   -1.2380    0.5000 C   0  0  0  0  0  0  0  0  0  0  0  0
  1  2  1  0
  2  3  1  0
  4  3  1  6
  4  5  1  0
  4 18  1  0
  5  6  1  0
  6  7  1  0
  7  8  1  0
  8  9  1  1
  8 18  1  0
  9 10  1  0
 10 11  1  6
 10 12  1  0
 10 16  1  0
 12 13  1  0
 13 14  1  0
 14 15  1  0
 15 16  1  0
 16 17  1  6
M  CHG  1  14   1
M  END
