
     RDKit          3D

 18 19  0  0  0  0  0  0  0  0999 V2000
    4.2380    1.6190    1.2200 C   0  0  0  0  0  0  0  0  0  0  0  0
    3.6510    1.4370   -0.4460 S   0  0  0  0  0  0  0  0  0  0  0  0
    2.5630    0.0280   -0.7430 C   0  0  1  0  0  0  0  0  0  0  0  0
    3.3070   -1.2830   -0.5300 C   0  0  0  0  0  0  0  0  0  0  0  0
    1.2650    0.0980    0.0380 C   0  0  2  0  0  0  0  0  0  0  0  0
    1.4660    0.0780    1.4400 N   0  0  0  0  0  0  0  0  0  0  0  0
    0.2500   -0.7410   -0.5780 C   0  0  1  0  0  0  0  0  0  0  0  0
    0.4690   -2.2050   -0.7000 C   0  0  0  0  0  0  0  0  0  0  0  0
   -0.9410   -2.6170   -1.1910 C   0  0  0  0  0  0  0  0  0  0  0  0
   -1.8300   -1.7690   -0.5920 O   0  0  0  0  0  0  0  0  0  0  0  0
   -1.1640   -0.6240   -0.1610 C   0  0  1  0  0  0  0  0  0  0  0  0
   -1.4710   -0.4560    1.2800 C   0  0  0  0  0  0  0  0  0  0  0  0
   -3.0040   -0.2710    1.3500 C   0  0  0  0  0  0  0  0  0  0  0  0
   -3.3720    0.9630    0.8760 O   0  0  0  0  0  0  0  0  0  0  0  0
   -2.4120    1.5560    0.0680 C   0  0  2  0  0  0  0  0  0  0  0  0
   -3.1740    2.5550   -0.8140 C   0  0  0  0  0  0  0  0  0  0  0  0
   -4.1320    1.9220   -1.5880 O   0  0  0  0  0  0  0  0  0  0  0  0
   -1.8190    0.5450   -0.8880 C   0  0  0  0  0  0  0  0  0  0  0  0
  1  2  1  0
  2  3  1  0
  3  4  1  1
  3  5  1  0
  5  6  1  1
  5  7  1  0
  7  8  1  1
  7 11  1  0
  8  9  1  0
  9 10  1  0
 10 11  1  0
 11 12  1  1
 11 18  1  0
 12 13  1  0
 13 14  1  0
 14 15  1  0
 15 16  1  6
 15 18  1  0
 16 17  1  0
M  CHG  1   6   1
M  END
