
     RDKit          3D

 19 21  0  0  0  0  0  0  0  0999 V2000
    5.4940   -0.4780   -0.3160 N   0  0  0  0  0  0  0  0  0  0  0  0
    4.4220    0.1680    0.3570 C   0  0  0  0  0  0  0  0  0  0  0  0
    4.6940    0.9940    1.2900 N   0  0  0  0  0  0  0  0  0  0  0  0
    3.0620   -0.1170   -0.0230 C   0  0  0  0  0  0  0  0  0  0  0  0
    2.8340   -1.0350   -1.0560 C   0  0  0  0  0  0  0  0  0  0  0  0
    1.5840   -1.3780   -1.4950 C   0  0  0  0  0  0  0  0  0  0  0  0
    0.4730   -0.8230   -0.9250 C   0  0  0  0  0  0  0  0  0  0  0  0
   -0.8670   -0.9420   -1.1180 N   0  0  0  0  0  0  0  0  0  0  0  0
   -1.5220   -0.1440   -0.2560 C   0  0  0  0  0  0  0  0  0  0  0  0
   -2.9870    0.0090   -0.1510 C   0  0  0  0  0  0  0  0  0  0  0  0
   -3.8110   -0.6700   -0.9450 N   0  0  0  0  0  0  0  0  0  0  0  0
   -5.1530   -0.5810   -0.9050 C   0  0  0  0  0  0  0  0  0  0  0  0
   -5.6880    0.2840    0.0360 C   0  0  0  0  0  0  0  0  0  0  0  0
   -4.8630    1.0110    0.8830 C   0  0  0  0  0  0  0  0  0  0  0  0
   -3.4890    0.8780    0.7950 C   0  0  0  0  0  0  0  0  0  0  0  0
   -2.6060    1.5700    1.6070 O   0  0  0  0  0  0  0  0  0  0  0  0
   -0.5900    0.4780    0.4790 N   0  0  0  0  0  0  0  0  0  0  0  0
    0.6430    0.0830    0.0940 C   0  0  0  0  0  0  0  0  0  0  0  0
    1.9280    0.4240    0.5310 C   0  0  0  0  0  0  0  0  0  0  0  0
  1  2  1  0
  2  3  2  0
  2  4  1  0
  4  5  2  0
  4 19  1  0
  5  6  1  0
  6  7  2  0
  7  8  1  0
  7 18  1  0
  8  9  1  0
  9 10  1  0
  9 17  2  0
 10 11  2  0
 10 15  1  0
 11 12  1  0
 12 13  2  0
 13 14  1  0
 14 15  2  0
 15 16  1  0
 17 18  1  0
 18 19  2  0
M  CHG  1   3   1
M  END
