
     RDKit          3D

 18 19  0  0  0  0  0  0  0  0999 V2000
    5.2110   -1.7930    0.8420 C   0  0  0  0  0  0  0  0  0  0  0  0
    4.4090   -1.0600   -0.2160 C   0  0  1  0  0  0  0  0  0  0  0  0
    3.0120   -1.0330    0.0750 N   0  0  0  0  0  0  0  0  0  0  0  0
    2.6340    0.1820    0.1980 C   0  0  0  0  0  0  0  0  0  0  0  0
    1.2000    0.5540    0.5090 C   0  0  0  0  0  0  0  0  0  0  0  0
    0.5990    1.5590   -0.8340 S   0  0  0  0  0  0  0  0  0  0  0  0
   -1.0940    2.0720   -0.6860 C   0  0  0  0  0  0  0  0  0  0  0  0
   -2.1480    1.1250   -0.9950 C   0  0  0  0  0  0  0  0  0  0  0  0
   -2.3540   -0.1650   -0.3760 C   0  0  1  0  0  0  0  0  0  0  0  0
   -1.3230   -1.0670   -0.5570 O   0  0  0  0  0  0  0  0  0  0  0  0
   -2.7340   -0.1700    1.0810 C   0  0  0  0  0  0  0  0  0  0  0  0
   -4.1370    0.3890    1.1020 C   0  0  0  0  0  0  0  0  0  0  0  0
   -4.6980    0.0810   -0.2530 C   0  0  0  0  0  0  0  0  0  0  0  0
   -3.6620   -0.7420   -0.9650 C   0  0  2  0  0  0  0  0  0  0  0  0
   -3.7780   -2.0530   -0.5390 O   0  0  0  0  0  0  0  0  0  0  0  0
    3.7600    1.0760   -0.0040 C   0  0  0  0  0  0  0  0  0  0  0  0
    4.8240    0.3540   -0.2520 C   0  0  0  0  0  0  0  0  0  0  0  0
    6.1100    0.8710   -0.5010 O   0  0  0  0  0  0  0  0  0  0  0  0
  2  1  1  1
  2  3  1  0
  2 17  1  0
  3  4  2  0
  4  5  1  0
  4 16  1  0
  5  6  1  0
  6  7  1  0
  7  8  1  0
  8  9  1  0
  9 10  1  1
  9 11  1  0
  9 14  1  0
 11 12  1  0
 12 13  1  0
 13 14  1  0
 14 15  1  1
 16 17  2  0
 17 18  1  0
M  CHG  1   3   1
M  END
