
     RDKit          3D

 18 19  0  0  0  0  0  0  0  0999 V2000
   -3.0130   -1.4800    1.7290 C   0  0  0  0  0  0  0  0  0  0  0  0
   -2.4600   -0.8440    0.4450 C   0  0  2  0  0  0  0  0  0  0  0  0
   -3.4570   -1.1600   -0.6440 C   0  0  0  0  0  0  0  0  0  0  0  0
   -3.5060   -2.5450   -0.7970 O   0  0  0  0  0  0  0  0  0  0  0  0
   -1.1120   -1.4080    0.1320 C   0  0  0  0  0  0  0  0  0  0  0  0
   -0.3550   -0.1750   -0.3730 C   0  0  2  0  0  0  0  0  0  0  0  0
    1.0220   -0.2680    0.2300 C   0  0  2  0  0  0  0  0  0  0  0  0
    0.8850   -0.2640    1.6160 O   0  0  0  0  0  0  0  0  0  0  0  0
    1.9190    0.8680   -0.1480 C   0  0  0  0  0  0  0  0  0  0  0  0
    3.1450    0.8120    0.7010 C   0  0  0  0  0  0  0  0  0  0  0  0
    4.4140    0.6080   -0.0770 C   0  0  0  0  0  0  0  0  0  0  0  0
    4.4580   -0.6410   -0.8740 C   0  0  0  0  0  0  0  0  0  0  0  0
    2.8740   -1.1700   -1.5270 S   0  0  0  0  0  0  0  0  0  0  0  0
    1.6750   -1.5550   -0.2550 C   0  0  0  0  0  0  0  0  0  0  0  0
   -1.1650    0.9540    0.1390 C   0  0  1  0  0  0  0  0  0  0  0  0
   -1.5340    1.9600   -0.9520 C   0  0  0  0  0  0  0  0  0  0  0  0
   -2.2800    3.0580   -0.3920 N   0  0  0  0  0  0  0  0  0  0  0  0
   -2.3220    0.4940    0.6890 O   0  0  0  0  0  0  0  0  0  0  0  0
  2  1  1  1
  2  3  1  0
  2  5  1  0
  2 18  1  0
  3  4  1  0
  6  5  1  1
  6  7  1  0
  6 15  1  0
  7  8  1  1
  7  9  1  0
  7 14  1  0
  9 10  1  0
 10 11  1  0
 11 12  1  0
 12 13  1  0
 13 14  1  0
 15 16  1  6
 15 18  1  0
 16 17  1  0
M  CHG  1  17   1
M  END
