
     RDKit          3D

 18 19  0  0  0  0  0  0  0  0999 V2000
   -3.9050    1.7280    1.3700 C   0  0  0  0  0  0  0  0  0  0  0  0
   -2.9520    0.6890    0.8550 C   0  0  0  0  0  0  0  0  0  0  0  0
   -3.3530   -0.0990   -0.1160 C   0  0  0  0  0  0  0  0  0  0  0  0
   -4.6650    0.0640   -0.6370 N   0  0  0  0  0  0  0  0  0  0  0  0
   -2.4130   -1.1430   -0.6450 C   0  0  0  0  0  0  0  0  0  0  0  0
   -1.0410   -0.5240   -0.6370 C   0  0  2  0  0  0  0  0  0  0  0  0
    0.0240   -1.3730   -1.2370 C   0  0  0  0  0  0  0  0  0  0  0  0
    1.2870   -1.5080   -0.4690 C   0  0  0  0  0  0  0  0  0  0  0  0
    1.7560   -0.3060    0.2580 C   0  0  1  0  0  0  0  0  0  0  0  0
    3.0270    0.3100   -0.2520 C   0  0  0  0  0  0  0  0  0  0  0  0
    4.1970   -0.6420   -0.1880 C   0  0  0  0  0  0  0  0  0  0  0  0
    5.6860    0.1080   -0.7940 S   0  0  2  0  0  0  0  0  0  0  0  0
    6.7260   -0.9820   -0.8860 O   0  0  0  0  0  0  0  0  0  0  0  0
    6.2100    1.1380    0.1650 O   0  0  0  0  0  0  0  0  0  0  0  0
    0.6700    0.7430    0.4550 C   0  0  2  0  0  0  0  0  0  0  0  0
    0.9450    1.5940    1.4960 O   0  0  0  0  0  0  0  0  0  0  0  0
   -0.5940   -0.0890    0.7170 C   0  0  1  0  0  0  0  0  0  0  0  0
   -1.6180    0.6510    1.5080 C   0  0  0  0  0  0  0  0  0  0  0  0
  1  2  1  0
  2  3  2  0
  2 18  1  0
  3  4  1  0
  3  5  1  0
  6  5  1  1
  6  7  1  0
  6 17  1  0
  7  8  1  0
  8  9  1  0
  9 10  1  6
  9 15  1  0
 10 11  1  0
 12 11  1  1
 12 13  2  0
 12 14  2  0
 15 16  1  1
 15 17  1  0
 17 18  1  6
M  CHG  1   4   1
M  END
