
     RDKit          3D

 18 19  0  0  0  0  0  0  0  0999 V2000
   -2.5610    2.4410    1.0090 O   0  0  0  0  0  0  0  0  0  0  0  0
   -1.3930    2.6740    0.3720 C   0  0  0  0  0  0  0  0  0  0  0  0
   -0.9050    1.8000   -0.6960 C   0  0  0  0  0  0  0  0  0  0  0  0
   -0.6670    0.3610   -0.4420 C   0  0  1  0  0  0  0  0  0  0  0  0
    0.2540    0.0950    0.6130 N   0  0  0  0  0  0  0  0  0  0  0  0
    1.6300    0.0830    0.2100 C   0  0  1  0  0  0  0  0  0  0  0  0
    2.4030    1.1420    0.9720 C   0  0  0  0  0  0  0  0  0  0  0  0
    3.8310    0.7490    0.7700 C   0  0  0  0  0  0  0  0  0  0  0  0
    3.8380   -0.7040    0.3480 C   0  0  2  0  0  0  0  0  0  0  0  0
    4.2410   -0.8960   -1.4110 S   0  0  0  0  0  0  0  0  0  0  0  0
    2.3830   -1.1600    0.5250 C   0  0  0  0  0  0  0  0  0  0  0  0
   -1.8050   -0.5580   -0.4710 C   0  0  0  0  0  0  0  0  0  0  0  0
   -3.0190   -0.1290   -0.7560 C   0  0  0  0  0  0  0  0  0  0  0  0
   -4.2470   -0.9500   -0.8130 C   0  0  0  0  0  0  0  0  0  0  0  0
   -3.9590   -2.2880   -0.6030 O   0  0  0  0  0  0  0  0  0  0  0  0
   -2.7340   -2.7860   -0.3110 C   0  0  0  0  0  0  0  0  0  0  0  0
   -1.6600   -1.9890   -0.2360 C   0  0  0  0  0  0  0  0  0  0  0  0
   -0.4490   -2.5940    0.0670 O   0  0  0  0  0  0  0  0  0  0  0  0
  1  2  1  0
  2  3  1  0
  4  3  1  1
  4  5  1  0
  4 12  1  0
  6  5  1  1
  6  7  1  0
  6 11  1  0
  7  8  1  0
  8  9  1  0
  9 10  1  6
  9 11  1  0
 12 13  2  0
 12 17  1  0
 13 14  1  0
 14 15  1  0
 15 16  1  0
 16 17  2  0
 17 18  1  0
M  CHG  1   5   1
M  END
