
     RDKit          3D

  9  8  0  0  0  0  0  0  0  0999 V2000
    3.4110    0.4490    0.8720 C   0  0  0  0  0  0  0  0  0  0  0  0
    3.1940    0.1310   -0.5810 C   0  0  0  0  0  0  0  0  0  0  0  0
    1.9120   -0.6160   -0.8350 C   0  0  0  0  0  0  0  0  0  0  0  0
    0.6980    0.1750   -0.3860 C   0  0  0  0  0  0  0  0  0  0  0  0
   -0.5040   -0.6720   -0.6910 C   0  0  0  0  0  0  0  0  0  0  0  0
   -1.8080   -0.0450   -0.3110 C   0  0  1  0  0  0  0  0  0  0  0  0
   -2.8840   -1.0640   -0.7050 C   0  0  0  0  0  0  0  0  0  0  0  0
   -1.9610    0.1970    1.1600 C   0  0  0  0  0  0  0  0  0  0  0  0
   -2.1110    1.2140   -1.0630 C   0  0  0  0  0  0  0  0  0  0  0  0
  1  2  1  0
  2  3  1  0
  3  4  1  0
  4  5  1  0
  5  6  1  0
  6  7  1  6
  6  8  1  0
  6  9  1  0
M  END
