
     RDKit          3D

 20 22  0  0  0  0  0  0  0  0999 V2000
    5.6220    0.4980   -0.2790 N   0  0  0  0  0  0  0  0  0  0  0  0
    4.5010   -0.2300   -0.7640 C   0  0  0  0  0  0  0  0  0  0  0  0
    4.7160   -1.1910   -1.5840 N   0  0  0  0  0  0  0  0  0  0  0  0
    3.1510    0.1410   -0.3120 C   0  0  0  0  0  0  0  0  0  0  0  0
    2.9740    1.1860    0.5730 C   0  0  0  0  0  0  0  0  0  0  0  0
    1.7300    1.5720    1.0250 C   0  0  0  0  0  0  0  0  0  0  0  0
    0.5900    0.9160    0.6020 C   0  0  0  0  0  0  0  0  0  0  0  0
   -0.7200    1.0810    0.8780 N   0  0  0  0  0  0  0  0  0  0  0  0
   -1.3830    0.1410    0.1670 C   0  0  0  0  0  0  0  0  0  0  0  0
   -2.8190   -0.0620    0.1510 C   0  0  0  0  0  0  0  0  0  0  0  0
   -3.6310    0.7460    0.9080 C   0  0  0  0  0  0  0  0  0  0  0  0
   -5.0140    0.5470    0.8890 C   0  0  0  0  0  0  0  0  0  0  0  0
   -5.8090    1.3500    1.6400 F   0  0  0  0  0  0  0  0  0  0  0  0
   -5.5900   -0.4470    0.1260 C   0  0  0  0  0  0  0  0  0  0  0  0
   -4.7630   -1.2600   -0.6370 C   0  0  0  0  0  0  0  0  0  0  0  0
   -3.3890   -1.0530   -0.6100 C   0  0  0  0  0  0  0  0  0  0  0  0
   -2.5690   -1.8600   -1.3670 O   0  0  0  0  0  0  0  0  0  0  0  0
   -0.4940   -0.5860   -0.5300 N   0  0  0  0  0  0  0  0  0  0  0  0
    0.7470   -0.1300   -0.2830 C   0  0  0  0  0  0  0  0  0  0  0  0
    2.0160   -0.5130   -0.7360 C   0  0  0  0  0  0  0  0  0  0  0  0
  1  2  1  0
  2  3  2  0
  2  4  1  0
  4  5  2  0
  4 20  1  0
  5  6  1  0
  6  7  2  0
  7  8  1  0
  7 19  1  0
  8  9  1  0
  9 10  1  0
  9 18  2  0
 10 11  2  0
 10 16  1  0
 11 12  1  0
 12 13  1  0
 12 14  2  0
 14 15  1  0
 15 16  2  0
 16 17  1  0
 18 19  1  0
 19 20  2  0
M  CHG  1   3   1
M  END
