
     RDKit          3D

  9  9  0  0  0  0  0  0  0  0999 V2000
    2.1490    0.0380    0.0610 C   0  0  0  0  0  0  0  0  0  0  0  0
    0.6990    0.0620    0.0170 N   0  0  0  0  0  0  0  0  0  0  0  0
    0.0060    1.2100    0.1070 C   0  0  0  0  0  0  0  0  0  0  0  0
   -1.3840    1.1310    0.0550 C   0  0  0  0  0  0  0  0  0  0  0  0
   -2.0410   -0.0220   -0.0790 N   0  0  0  0  0  0  0  0  0  0  0  0
   -1.3370   -1.1600   -0.1680 C   0  0  0  0  0  0  0  0  0  0  0  0
   -1.9450   -2.2620   -0.2960 O   0  0  0  0  0  0  0  0  0  0  0  0
    0.0540   -1.1080   -0.1190 C   0  0  0  0  0  0  0  0  0  0  0  0
    0.6980   -2.1960   -0.2050 O   0  0  0  0  0  0  0  0  0  0  0  0
  1  2  1  0
  2  3  1  0
  2  8  1  0
  3  4  2  0
  4  5  1  0
  5  6  1  0
  6  7  2  0
  6  8  1  0
  8  9  2  0
M  END
