
     RDKit          3D

  9  9  0  0  0  0  0  0  0  0999 V2000
    1.7040    0.6410    0.5370 C   0  0  0  0  0  0  0  0  0  0  0  0
    0.7670    0.2390   -0.4280 N   0  0  0  0  0  0  0  0  0  0  0  0
   -0.2460    1.1160   -0.7980 C   0  0  0  0  0  0  0  0  0  0  0  0
   -1.5010    1.1170   -0.0140 C   0  0  0  0  0  0  0  0  0  0  0  0
   -1.5510    0.1620    1.0200 O   0  0  0  0  0  0  0  0  0  0  0  0
   -1.1980   -1.1900    1.0470 C   0  0  0  0  0  0  0  0  0  0  0  0
   -1.7660   -1.9260    1.8930 O   0  0  0  0  0  0  0  0  0  0  0  0
   -0.2380   -1.7740    0.1750 N   0  0  0  0  0  0  0  0  0  0  0  0
    0.6840   -1.1170   -0.7610 C   0  0  0  0  0  0  0  0  0  0  0  0
  1  2  1  0
  2  3  1  0
  2  9  1  0
  3  4  1  0
  4  5  1  0
  5  6  1  0
  6  7  2  0
  6  8  1  0
  8  9  1  0
M  END
