
     RDKit          3D

  9  9  0  0  0  0  0  0  0  0999 V2000
    2.9490    0.2130    0.1930 C   0  0  0  0  0  0  0  0  0  0  0  0
    1.6550   -0.3320    0.4240 O   0  0  0  0  0  0  0  0  0  0  0  0
    0.5180    0.1810   -0.1870 C   0  0  0  0  0  0  0  0  0  0  0  0
    0.6890    1.1570   -0.9590 O   0  0  0  0  0  0  0  0  0  0  0  0
   -0.7830   -0.4060    0.0750 C   0  0  0  0  0  0  0  0  0  0  0  0
   -2.0290   -0.1490   -0.3440 C   0  0  0  0  0  0  0  0  0  0  0  0
   -2.6060    0.7990   -1.2180 N   0  0  0  0  0  0  0  0  0  0  0  0
   -2.4600   -1.2400    0.4790 N   0  0  0  0  0  0  0  0  0  0  0  0
   -1.2730   -1.5000    0.8900 C   0  0  0  0  0  0  0  0  0  0  0  0
  1  2  1  0
  2  3  1  0
  3  4  2  0
  3  5  1  0
  5  6  2  0
  5  9  1  0
  6  7  1  0
  6  8  1  0
  8  9  2  0
M  END
