
     RDKit          3D

 10 10  0  0  0  0  0  0  0  0999 V2000
   -2.2400   -0.5280    1.3370 C   0  0  0  0  0  0  0  0  0  0  0  0
   -1.2350   -0.3030    0.1980 C   0  0  1  0  0  0  0  0  0  0  0  0
   -1.7520   -1.1680   -0.9310 C   0  0  0  0  0  0  0  0  0  0  0  0
   -1.3750    1.1530   -0.1520 C   0  0  0  0  0  0  0  0  0  0  0  0
   -0.2470    1.6460   -1.0080 C   0  0  0  0  0  0  0  0  0  0  0  0
    1.1000    1.3140   -0.4950 C   0  0  0  0  0  0  0  0  0  0  0  0
    1.2780   -0.0330    0.0890 C   0  0  2  0  0  0  0  0  0  0  0  0
    2.3630    0.1190    1.1740 C   0  0  0  0  0  0  0  0  0  0  0  0
    1.9510   -0.9550   -0.9390 C   0  0  0  0  0  0  0  0  0  0  0  0
    0.1110   -0.6900    0.6860 C   0  0  0  0  0  0  0  0  0  0  0  0
  2  1  1  1
  2  3  1  0
  2  4  1  0
  2 10  1  0
  4  5  1  0
  5  6  1  0
  6  7  1  0
  7  8  1  1
  7  9  1  0
  7 10  1  0
M  END
