
     RDKit          3D

  9  9  0  0  0  0  0  0  0  0999 V2000
    3.1780    0.0540    0.0650 C   0  0  0  0  0  0  0  0  0  0  0  0
    1.7900    0.2530    0.3080 O   0  0  0  0  0  0  0  0  0  0  0  0
    0.7970   -0.2270   -0.5190 C   0  0  0  0  0  0  0  0  0  0  0  0
    1.1150   -0.8720   -1.5390 O   0  0  0  0  0  0  0  0  0  0  0  0
   -0.6300   -0.0100   -0.2490 C   0  0  0  0  0  0  0  0  0  0  0  0
   -1.6990   -0.4420   -1.0030 C   0  0  0  0  0  0  0  0  0  0  0  0
   -2.8500   -0.0350   -0.4120 N   0  0  0  0  0  0  0  0  0  0  0  0
   -2.5210    0.6470    0.7030 C   0  0  0  0  0  0  0  0  0  0  0  0
   -1.1760    0.6560    0.7920 N   0  0  0  0  0  0  0  0  0  0  0  0
  1  2  1  0
  2  3  1  0
  3  4  2  0
  3  5  1  0
  5  6  2  0
  5  9  1  0
  6  7  1  0
  7  8  1  0
  8  9  2  0
M  END
