
     RDKit          3D

 28 31  0  0  0  0  0  0  0  0999 V2000
    7.9680   -0.5160   -0.0620 N   0  0  0  0  0  0  0  0  0  0  0  0
    6.8880    0.3430    0.1930 C   0  0  0  0  0  0  0  0  0  0  0  0
    7.1140    1.5210    0.6480 N   0  0  0  0  0  0  0  0  0  0  0  0
    5.5400   -0.1450   -0.0730 C   0  0  0  0  0  0  0  0  0  0  0  0
    5.3350   -1.4340   -0.5680 C   0  0  0  0  0  0  0  0  0  0  0  0
    4.0940   -1.9540   -0.8390 C   0  0  0  0  0  0  0  0  0  0  0  0
    2.9710   -1.1740   -0.6160 C   0  0  0  0  0  0  0  0  0  0  0  0
    1.6660   -1.3930   -0.7790 N   0  0  0  0  0  0  0  0  0  0  0  0
    0.9600   -0.2980   -0.4130 C   0  0  0  0  0  0  0  0  0  0  0  0
   -0.4760   -0.1330   -0.4390 C   0  0  0  0  0  0  0  0  0  0  0  0
   -1.2120   -1.2300   -0.8950 C   0  0  0  0  0  0  0  0  0  0  0  0
   -2.5730   -1.1840   -0.9620 C   0  0  0  0  0  0  0  0  0  0  0  0
   -3.3520   -2.3650   -1.4520 C   0  0  0  0  0  0  0  0  0  0  0  0
   -3.6570   -3.2120   -0.2190 C   0  0  0  0  0  0  0  0  0  0  0  0
   -4.4130   -4.3770   -0.6250 N   0  0  0  0  0  0  0  0  0  0  0  0
   -3.2050   -0.0270   -0.5680 C   0  0  0  0  0  0  0  0  0  0  0  0
   -2.5460    1.0800   -0.1130 C   0  0  0  0  0  0  0  0  0  0  0  0
   -3.2250    2.2960    0.3000 C   0  0  0  0  0  0  0  0  0  0  0  0
   -2.8690    2.9410    1.4500 C   0  0  0  0  0  0  0  0  0  0  0  0
   -3.5250    4.0900    1.8210 C   0  0  0  0  0  0  0  0  0  0  0  0
   -4.5530    4.6430    1.0730 C   0  0  0  0  0  0  0  0  0  0  0  0
   -4.9110    3.9900   -0.0870 C   0  0  0  0  0  0  0  0  0  0  0  0
   -4.2620    2.8480   -0.4600 C   0  0  0  0  0  0  0  0  0  0  0  0
   -1.1330    1.0050   -0.0540 C   0  0  0  0  0  0  0  0  0  0  0  0
   -0.4700    2.1100    0.4000 O   0  0  0  0  0  0  0  0  0  0  0  0
    1.8720    0.5830   -0.0270 N   0  0  0  0  0  0  0  0  0  0  0  0
    3.1230    0.1060   -0.1280 C   0  0  0  0  0  0  0  0  0  0  0  0
    4.3940    0.5900    0.1310 C   0  0  0  0  0  0  0  0  0  0  0  0
  1  2  1  0
  2  3  2  0
  2  4  1  0
  4  5  2  0
  4 28  1  0
  5  6  1  0
  6  7  2  0
  7  8  1  0
  7 27  1  0
  8  9  1  0
  9 10  1  0
  9 26  2  0
 10 11  2  0
 10 24  1  0
 11 12  1  0
 12 13  1  0
 12 16  2  0
 13 14  1  0
 14 15  1  0
 16 17  1  0
 17 18  1  0
 17 24  2  0
 18 19  2  0
 18 23  1  0
 19 20  1  0
 20 21  2  0
 21 22  1  0
 22 23  2  0
 24 25  1  0
 26 27  1  0
 27 28  2  0
M  CHG  2   3   1  15   1
M  END
