
     RDKit          3D

 12 12  0  0  0  0  0  0  0  0999 V2000
    4.2050    0.3090    0.1830 C   0  0  0  0  0  0  0  0  0  0  0  0
    2.8300    0.6270    0.0600 O   0  0  0  0  0  0  0  0  0  0  0  0
    1.8700   -0.3540    0.1570 C   0  0  0  0  0  0  0  0  0  0  0  0
    2.1430   -1.5550    0.3530 O   0  0  0  0  0  0  0  0  0  0  0  0
    0.4530   -0.0040    0.0270 C   0  0  0  0  0  0  0  0  0  0  0  0
   -0.1790    1.5840   -0.2470 S   0  0  0  0  0  0  0  0  0  0  0  0
   -1.8880    1.1530   -0.2750 C   0  0  0  0  0  0  0  0  0  0  0  0
   -3.0660    2.0600   -0.4730 C   0  0  0  0  0  0  0  0  0  0  0  0
   -1.8640   -0.2220   -0.0650 C   0  0  0  0  0  0  0  0  0  0  0  0
   -3.1160   -0.8920   -0.0320 O   0  0  0  0  0  0  0  0  0  0  0  0
   -0.6610   -0.7860    0.0850 C   0  0  0  0  0  0  0  0  0  0  0  0
   -0.4990   -2.2120    0.3100 N   0  0  0  0  0  0  0  0  0  0  0  0
  1  2  1  0
  2  3  1  0
  3  4  2  0
  3  5  1  0
  5  6  1  0
  5 11  2  0
  6  7  1  0
  7  8  1  0
  7  9  2  0
  9 10  1  0
  9 11  1  0
 11 12  1  0
M  END
