
     RDKit          3D

 12 12  0  0  0  0  0  0  0  0999 V2000
    4.0610    0.6590    0.7550 C   0  0  0  0  0  0  0  0  0  0  0  0
    2.6550    0.5920    0.6140 O   0  0  0  0  0  0  0  0  0  0  0  0
    2.0300   -0.3870   -0.1470 C   0  0  0  0  0  0  0  0  0  0  0  0
    2.7360   -1.2240   -0.7180 O   0  0  0  0  0  0  0  0  0  0  0  0
    0.5850   -0.4420   -0.2820 C   0  0  0  0  0  0  0  0  0  0  0  0
   -0.1960   -1.3590   -1.0090 C   0  0  0  0  0  0  0  0  0  0  0  0
   -1.5160   -1.1790   -0.9620 C   0  0  0  0  0  0  0  0  0  0  0  0
   -2.0760   -0.1880   -0.2680 C   0  0  0  0  0  0  0  0  0  0  0  0
   -3.4260    0.2340   -0.0440 C   0  0  0  0  0  0  0  0  0  0  0  0
   -3.7080    1.3570    0.7650 N   0  0  0  0  0  0  0  0  0  0  0  0
   -4.3660   -0.3950   -0.5690 O   0  0  0  0  0  0  0  0  0  0  0  0
   -0.6170    0.6410    0.4380 S   0  0  0  0  0  0  0  0  0  0  0  0
  1  2  1  0
  2  3  1  0
  3  4  2  0
  3  5  1  0
  5  6  2  0
  5 12  1  0
  6  7  1  0
  7  8  2  0
  8  9  1  0
  8 12  1  0
  9 10  1  0
  9 11  2  0
M  END
