
     RDKit          3D

 12 13  0  0  0  0  0  0  0  0999 V2000
    4.3750    0.5230   -0.5320 O   0  0  0  0  0  0  0  0  0  0  0  0
    3.1670    0.4620   -0.4900 C   0  0  0  0  0  0  0  0  0  0  0  0
    2.2810   -0.1680    0.2790 N   0  0  0  0  0  0  0  0  0  0  0  0
    1.0010   -0.0550    0.0990 C   0  0  0  0  0  0  0  0  0  0  0  0
   -0.0110   -0.6780    0.8550 C   0  0  0  0  0  0  0  0  0  0  0  0
   -1.3320   -0.4920    0.5820 C   0  0  0  0  0  0  0  0  0  0  0  0
   -2.3220   -1.1320    1.3590 O   0  0  0  0  0  0  0  0  0  0  0  0
   -1.7840    0.3040   -0.4350 C   0  0  0  0  0  0  0  0  0  0  0  0
   -3.1080    0.4610   -0.6720 O   0  0  0  0  0  0  0  0  0  0  0  0
   -0.8120    0.9320   -1.1990 C   0  0  0  0  0  0  0  0  0  0  0  0
    0.5250    0.7400   -0.9180 C   0  0  0  0  0  0  0  0  0  0  0  0
    2.0170    1.3450   -1.6380 S   0  0  0  0  0  0  0  0  0  0  0  0
  1  2  2  0
  2  3  1  0
  2 12  1  0
  3  4  1  0
  4  5  2  0
  4 11  1  0
  5  6  1  0
  6  7  1  0
  6  8  2  0
  8  9  1  0
  8 10  1  0
 10 11  2  0
 11 12  1  0
M  END
