
     RDKit          3D

 12 13  0  0  0  0  0  0  0  0999 V2000
    3.6180    1.2440    0.3270 O   0  0  0  0  0  0  0  0  0  0  0  0
    2.9900   -0.1190    0.3860 S   0  0  1  0  0  0  0  0  0  0  0  0
    3.2680   -0.6560    1.7800 O   0  0  0  0  0  0  0  0  0  0  0  0
    1.2600    0.0930    0.1750 C   0  0  0  0  0  0  0  0  0  0  0  0
    0.6740    1.3400    0.2600 C   0  0  0  0  0  0  0  0  0  0  0  0
   -0.6980    1.5150    0.0930 C   0  0  0  0  0  0  0  0  0  0  0  0
   -1.5310    0.4490   -0.1640 C   0  0  0  0  0  0  0  0  0  0  0  0
   -2.8640    0.3490   -0.3620 N   0  0  0  0  0  0  0  0  0  0  0  0
   -3.1380   -0.9460   -0.5720 N   0  0  0  0  0  0  0  0  0  0  0  0
   -2.0000   -1.6550   -0.5090 C   0  0  0  0  0  0  0  0  0  0  0  0
   -0.9490   -0.8000   -0.2500 C   0  0  0  0  0  0  0  0  0  0  0  0
    0.4160   -0.9670   -0.0830 C   0  0  0  0  0  0  0  0  0  0  0  0
  1  2  2  0
  2  3  2  0
  2  4  1  1
  4  5  2  0
  4 12  1  0
  5  6  1  0
  6  7  2  0
  7  8  1  0
  7 11  1  0
  8  9  1  0
  9 10  2  0
 10 11  1  0
 11 12  2  0
M  END
