
     RDKit          3D

 25 28  0  0  0  0  0  0  0  0999 V2000
   -7.1910    0.7900   -0.4860 N   0  0  0  0  0  0  0  0  0  0  0  0
   -5.8720    1.1370   -0.8690 C   0  0  0  0  0  0  0  0  0  0  0  0
   -5.6980    2.0400   -1.7450 N   0  0  0  0  0  0  0  0  0  0  0  0
   -4.7450    0.4610   -0.2610 C   0  0  0  0  0  0  0  0  0  0  0  0
   -5.0150   -0.5160    0.6900 C   0  0  0  0  0  0  0  0  0  0  0  0
   -3.9840   -1.1820    1.2910 C   0  0  0  0  0  0  0  0  0  0  0  0
   -2.6810   -0.8850    0.9560 C   0  0  0  0  0  0  0  0  0  0  0  0
   -1.4760   -1.3450    1.3530 N   0  0  0  0  0  0  0  0  0  0  0  0
   -0.4700   -0.7210    0.7150 C   0  0  0  0  0  0  0  0  0  0  0  0
    0.9630   -0.9960    0.9260 C   0  0  0  0  0  0  0  0  0  0  0  0
    1.3390   -1.9720    1.8510 C   0  0  0  0  0  0  0  0  0  0  0  0
    2.6660   -2.2720    2.0900 C   0  0  0  0  0  0  0  0  0  0  0  0
    3.6250   -1.5770    1.3840 C   0  0  0  0  0  0  0  0  0  0  0  0
    3.2980   -0.6110    0.4670 C   0  0  0  0  0  0  0  0  0  0  0  0
    4.3550    0.0930   -0.2510 C   0  0  0  0  0  0  0  0  0  0  0  0
    5.4240   -0.5850   -0.7950 C   0  0  0  0  0  0  0  0  0  0  0  0
    6.4380    0.0730   -1.4820 C   0  0  0  0  0  0  0  0  0  0  0  0
    6.4000    1.4290   -1.6360 C   0  0  0  0  0  0  0  0  0  0  0  0
    5.3370    2.1250   -1.0980 C   0  0  0  0  0  0  0  0  0  0  0  0
    4.3170    1.4610   -0.4070 C   0  0  0  0  0  0  0  0  0  0  0  0
    1.9560   -0.3330    0.2500 C   0  0  0  0  0  0  0  0  0  0  0  0
    1.6780    0.6320   -0.6680 O   0  0  0  0  0  0  0  0  0  0  0  0
   -1.0550    0.1610   -0.1120 N   0  0  0  0  0  0  0  0  0  0  0  0
   -2.3930    0.0890    0.0080 C   0  0  0  0  0  0  0  0  0  0  0  0
   -3.4460    0.7500   -0.5880 C   0  0  0  0  0  0  0  0  0  0  0  0
  1  2  1  0
  2  3  2  0
  2  4  1  0
  4  5  2  0
  4 25  1  0
  5  6  1  0
  6  7  2  0
  7  8  1  0
  7 24  1  0
  8  9  1  0
  9 10  1  0
  9 23  2  0
 10 11  2  0
 10 21  1  0
 11 12  1  0
 12 13  2  0
 13 14  1  0
 14 15  1  0
 14 21  2  0
 15 16  2  0
 15 20  1  0
 16 17  1  0
 17 18  2  0
 18 19  1  0
 19 20  2  0
 21 22  1  0
 23 24  1  0
 24 25  2  0
M  CHG  1   3   1
M  END
