
     RDKit          3D

 24 27  0  0  0  0  0  0  0  0999 V2000
    2.0690   -0.8420    3.0390 C   0  0  0  0  0  0  0  0  0  0  0  0
    2.8450   -0.5650    1.7850 C   0  0  0  0  0  0  0  0  0  0  0  0
    4.2110   -0.5740    1.6510 N   0  0  0  0  0  0  0  0  0  0  0  0
    4.5290   -0.2570    0.3480 C   0  0  0  0  0  0  0  0  0  0  0  0
    3.3670   -0.0450   -0.2850 C   0  0  0  0  0  0  0  0  0  0  0  0
    3.4080    0.2690   -1.5890 C   0  0  0  0  0  0  0  0  0  0  0  0
    2.1300    0.4040   -2.1720 C   0  0  0  0  0  0  0  0  0  0  0  0
    0.9860    0.2110   -1.3820 C   0  0  0  0  0  0  0  0  0  0  0  0
    1.0340   -0.1050   -0.0410 C   0  0  0  0  0  0  0  0  0  0  0  0
   -0.0800   -0.3610    0.8720 C   0  0  0  0  0  0  0  0  0  0  0  0
   -1.4050   -0.4440    0.4690 N   0  0  0  0  0  0  0  0  0  0  0  0
   -2.4420    0.3830    0.0010 C   0  0  0  0  0  0  0  0  0  0  0  0
   -3.0770    0.0300   -1.1910 C   0  0  0  0  0  0  0  0  0  0  0  0
   -2.5280   -1.2170   -1.8930 C   0  0  0  0  0  0  0  0  0  0  0  0
   -3.6120   -2.2090   -1.8320 N   0  0  0  0  0  0  0  0  0  0  0  0
   -4.1070    0.7360   -1.6770 C   0  0  0  0  0  0  0  0  0  0  0  0
   -4.5590    1.8330   -0.9840 C   0  0  0  0  0  0  0  0  0  0  0  0
   -3.9450    2.1960    0.2140 C   0  0  0  0  0  0  0  0  0  0  0  0
   -2.8870    1.4820    0.7240 C   0  0  0  0  0  0  0  0  0  0  0  0
   -2.2710    1.7740    2.0530 C   0  0  0  0  0  0  0  0  0  0  0  0
   -2.4240    0.5920    2.8570 O   0  0  0  0  0  0  0  0  0  0  0  0
    2.3100   -0.2350    0.5400 C   0  0  0  0  0  0  0  0  0  0  0  0
    4.8250    0.3670   -1.9270 C   0  0  0  0  0  0  0  0  0  0  0  0
    5.5710   -0.1270   -0.7120 C   0  0  0  0  0  0  0  0  0  0  0  0
  1  2  1  0
  2  3  1  0
  2 22  2  0
  3  4  1  0
  4  5  2  0
  4 24  1  0
  5  6  1  0
  5 22  1  0
  6  7  2  0
  6 23  1  0
  7  8  1  0
  8  9  2  0
  9 10  1  0
  9 22  1  0
 10 11  1  0
 11 12  1  0
 12 13  2  0
 12 19  1  0
 13 14  1  0
 13 16  1  0
 14 15  1  0
 16 17  2  0
 17 18  1  0
 18 19  2  0
 19 20  1  0
 20 21  1  0
 23 24  1  0
M  CHG  1  15   1
M  END
