
     RDKit          3D

 25 27  0  0  0  0  0  0  0  0999 V2000
    5.2720   -1.0760   -1.6730 C   0  0  0  0  0  0  0  0  0  0  0  0
    4.9410   -0.0300   -0.6300 C   0  0  2  0  0  0  0  0  0  0  0  0
    5.3360    1.3150   -1.2320 C   0  0  0  0  0  0  0  0  0  0  0  0
    5.7720   -0.3180    0.5880 C   0  0  0  0  0  0  0  0  0  0  0  0
    3.4930   -0.0200   -0.3680 C   0  0  0  0  0  0  0  0  0  0  0  0
    2.6700   -0.8940   -1.0470 C   0  0  0  0  0  0  0  0  0  0  0  0
    1.3010   -0.9460   -0.8590 C   0  0  0  0  0  0  0  0  0  0  0  0
    0.7060   -0.0930    0.0460 C   0  0  0  0  0  0  0  0  0  0  0  0
   -0.7370   -0.1570    0.2350 C   0  0  0  0  0  0  0  0  0  0  0  0
   -1.3290   -1.2650    0.0700 N   0  0  0  0  0  0  0  0  0  0  0  0
   -2.7450   -1.4420    0.2290 C   0  0  0  0  0  0  0  0  0  0  0  0
   -3.3030   -2.7700    0.0090 C   0  0  0  0  0  0  0  0  0  0  0  0
   -2.6310   -3.9130   -0.3430 C   0  0  0  0  0  0  0  0  0  0  0  0
   -3.5470   -4.9120   -0.4380 C   0  0  0  0  0  0  0  0  0  0  0  0
   -4.7690   -4.3500   -0.1390 C   0  0  0  0  0  0  0  0  0  0  0  0
   -4.5630   -3.0790    0.1180 O   0  0  0  0  0  0  0  0  0  0  0  0
   -3.5210   -0.4260    0.5670 C   0  0  0  0  0  0  0  0  0  0  0  0
   -2.9270    0.9010    0.7820 C   0  0  0  0  0  0  0  0  0  0  0  0
   -3.6850    1.9120    1.1150 C   0  0  0  0  0  0  0  0  0  0  0  0
   -5.0940    1.6830    1.2600 N   0  0  0  0  0  0  0  0  0  0  0  0
   -3.2160    3.2900    1.3610 C   0  0  0  0  0  0  0  0  0  0  0  0
   -3.8460    4.2140    0.4370 N   0  0  0  0  0  0  0  0  0  0  0  0
   -1.5280    0.9870    0.6040 N   0  0  0  0  0  0  0  0  0  0  0  0
    1.5110    0.7770    0.7250 C   0  0  0  0  0  0  0  0  0  0  0  0
    2.8850    0.8270    0.5330 C   0  0  0  0  0  0  0  0  0  0  0  0
  2  1  1  6
  2  3  1  0
  2  4  1  0
  2  5  1  0
  5  6  2  0
  5 25  1  0
  6  7  1  0
  7  8  2  0
  8  9  1  0
  8 24  1  0
  9 10  2  0
  9 23  1  0
 10 11  1  0
 11 12  1  0
 11 17  2  0
 12 13  2  0
 12 16  1  0
 13 14  1  0
 14 15  2  0
 15 16  1  0
 17 18  1  0
 18 19  2  3
 18 23  1  0
 19 20  1  0
 19 21  1  0
 21 22  1  0
 24 25  2  0
M  CHG  1  22   1
M  END
