
     RDKit          3D

 25 27  0  0  0  0  0  0  0  0999 V2000
   -4.8940    0.4760   -0.4510 C   0  0  0  0  0  0  0  0  0  0  0  0
   -4.7520    0.2370    0.8240 C   0  0  0  0  0  0  0  0  0  0  0  0
   -3.4750    0.0080    1.3460 C   0  0  0  0  0  0  0  0  0  0  0  0
   -3.3330   -0.2510    2.6660 C   0  0  0  0  0  0  0  0  0  0  0  0
   -2.1890    0.1450    0.6610 N   0  0  0  0  0  0  0  0  0  0  0  0
   -1.6000    1.3610    0.6490 N   0  0  0  0  0  0  0  0  0  0  0  0
   -0.3270    1.2280    0.2120 C   0  0  0  0  0  0  0  0  0  0  0  0
    0.5400    2.3900   -0.0030 C   0  0  0  0  0  0  0  0  0  0  0  0
    0.9050    2.7700   -1.2850 C   0  0  0  0  0  0  0  0  0  0  0  0
    1.6790    3.9110   -1.4600 C   0  0  0  0  0  0  0  0  0  0  0  0
    2.0860    4.6630   -0.4000 C   0  0  0  0  0  0  0  0  0  0  0  0
    1.7160    4.2780    0.8890 C   0  0  0  0  0  0  0  0  0  0  0  0
    0.9440    3.1440    1.0470 C   0  0  0  0  0  0  0  0  0  0  0  0
   -0.0600   -0.0440   -0.0640 C   0  0  0  0  0  0  0  0  0  0  0  0
    1.1480   -0.7860   -0.4130 C   0  0  0  0  0  0  0  0  0  0  0  0
    1.4030   -1.4080   -1.6070 C   0  0  0  0  0  0  0  0  0  0  0  0
    2.5470   -2.1530   -1.7400 C   0  0  0  0  0  0  0  0  0  0  0  0
    3.4560   -2.2790   -0.6950 C   0  0  0  0  0  0  0  0  0  0  0  0
    4.6760   -3.0560   -0.8500 N   0  0  0  0  0  0  0  0  0  0  0  0
    3.2350   -1.6780    0.4890 C   0  0  0  0  0  0  0  0  0  0  0  0
    4.1450   -1.8340    1.5340 O   0  0  0  0  0  0  0  0  0  0  0  0
    2.0950   -0.9460    0.6160 C   0  0  0  0  0  0  0  0  0  0  0  0
   -1.3090   -0.6790    0.2420 C   0  0  0  0  0  0  0  0  0  0  0  0
   -1.4110   -2.1730    0.0280 C   0  0  0  0  0  0  0  0  0  0  0  0
   -2.4510   -2.4440   -0.9770 N   0  0  0  0  0  0  0  0  0  0  0  0
  1  2  2  0
  2  3  1  0
  3  4  2  0
  3  5  1  0
  5  6  1  0
  5 23  1  0
  6  7  2  0
  7  8  1  0
  7 14  1  0
  8  9  2  0
  8 13  1  0
  9 10  1  0
 10 11  2  0
 11 12  1  0
 12 13  2  0
 14 15  1  0
 14 23  2  0
 15 16  2  0
 15 22  1  0
 16 17  1  0
 17 18  2  0
 18 19  1  0
 18 20  1  0
 20 21  1  0
 20 22  2  0
 23 24  1  0
 24 25  1  0
M  CHG  1  25   1
M  END
