
     RDKit          3D

 25 27  0  0  0  0  0  0  0  0999 V2000
   -3.6890    2.6490    0.9850 C   0  0  0  0  0  0  0  0  0  0  0  0
   -3.4860    1.2530    0.5110 C   0  0  0  0  0  0  0  0  0  0  0  0
   -4.4870    0.6570   -0.0980 C   0  0  0  0  0  0  0  0  0  0  0  0
   -5.8530    1.2260   -0.3840 C   0  0  0  0  0  0  0  0  0  0  0  0
   -6.7090   -0.0300   -0.2790 C   0  0  0  0  0  0  0  0  0  0  0  0
   -5.7910   -1.1020   -0.7410 C   0  0  0  0  0  0  0  0  0  0  0  0
   -4.5130   -0.7020   -0.6380 C   0  0  0  0  0  0  0  0  0  0  0  0
   -3.6460   -1.7740   -1.1110 C   0  0  0  0  0  0  0  0  0  0  0  0
   -2.3990   -1.6780   -1.5020 C   0  0  0  0  0  0  0  0  0  0  0  0
   -1.6230   -0.5130   -1.5510 N   0  0  0  0  0  0  0  0  0  0  0  0
   -0.2680   -0.5040   -1.1220 C   0  0  0  0  0  0  0  0  0  0  0  0
    0.3370   -1.6400   -0.6420 C   0  0  0  0  0  0  0  0  0  0  0  0
    1.6490   -1.6300   -0.2270 C   0  0  0  0  0  0  0  0  0  0  0  0
    2.4290   -0.4570   -0.2760 C   0  0  0  0  0  0  0  0  0  0  0  0
    3.7510   -0.4930    0.1460 N   0  0  0  0  0  0  0  0  0  0  0  0
    4.6030    0.6100    0.2480 C   0  0  0  0  0  0  0  0  0  0  0  0
    4.2520    1.7540   -0.0300 O   0  0  0  0  0  0  0  0  0  0  0  0
    5.9770    0.4600    0.6990 N   0  0  0  0  0  0  0  0  0  0  0  0
    6.8440    1.6080    0.7990 C   0  0  0  0  0  0  0  0  0  0  0  0
    8.2080    1.1770    1.2880 C   0  0  0  0  0  0  0  0  0  0  0  0
    8.1220    0.5290    2.6360 C   0  0  0  0  0  0  0  0  0  0  0  0
    1.7930    0.6350   -0.7560 C   0  0  0  0  0  0  0  0  0  0  0  0
    0.4610    0.6500   -1.1840 C   0  0  0  0  0  0  0  0  0  0  0  0
   -4.5330   -2.9850   -1.0600 C   0  0  0  0  0  0  0  0  0  0  0  0
   -5.8670   -2.4280   -1.2500 N   0  0  0  0  0  0  0  0  0  0  0  0
  1  2  1  0
  2  3  2  3
  3  4  1  0
  3  7  1  0
  4  5  1  0
  5  6  1  0
  6  7  2  0
  6 25  1  0
  7  8  1  0
  8  9  2  3
  8 24  1  0
  9 10  1  0
 10 11  1  0
 11 12  2  0
 11 23  1  0
 12 13  1  0
 13 14  2  0
 14 15  1  0
 14 22  1  0
 15 16  1  0
 16 17  2  0
 16 18  1  0
 18 19  1  0
 19 20  1  0
 20 21  1  0
 22 23  2  0
 24 25  1  0
M  CHG  1  25   1
M  END
