
     RDKit          3D

 25 27  0  0  0  0  0  0  0  0999 V2000
   -5.3470   -3.4770   -1.1880 C   0  0  0  0  0  0  0  0  0  0  0  0
   -5.5380   -2.4700   -0.3760 C   0  0  0  0  0  0  0  0  0  0  0  0
   -4.4800   -1.5450   -0.0020 C   0  0  0  0  0  0  0  0  0  0  0  0
   -3.1730   -1.8130   -0.3570 C   0  0  0  0  0  0  0  0  0  0  0  0
   -2.1810   -0.9200    0.0120 C   0  0  0  0  0  0  0  0  0  0  0  0
   -0.8850   -1.1840   -0.3490 C   0  0  0  0  0  0  0  0  0  0  0  0
    0.1570   -0.3120   -0.0090 C   0  0  0  0  0  0  0  0  0  0  0  0
    1.4620   -0.6710   -0.4140 N   0  0  0  0  0  0  0  0  0  0  0  0
    2.6240    0.1250   -0.3400 C   0  0  0  0  0  0  0  0  0  0  0  0
    2.5690    1.2830    0.1160 O   0  0  0  0  0  0  0  0  0  0  0  0
    3.9590   -0.3670   -0.7980 C   0  0  0  0  0  0  0  0  0  0  0  0
    5.0050    0.6450   -0.6440 C   0  0  0  0  0  0  0  0  0  0  0  0
    5.6780    1.0920    0.4670 C   0  0  0  0  0  0  0  0  0  0  0  0
    5.4710    0.6060    1.8480 C   0  0  0  0  0  0  0  0  0  0  0  0
    6.5520    2.0370    0.1030 N   0  0  0  0  0  0  0  0  0  0  0  0
    6.4490    2.1970   -1.1950 N   0  0  0  0  0  0  0  0  0  0  0  0
    5.5160    1.3720   -1.7150 C   0  0  0  0  0  0  0  0  0  0  0  0
    5.1560    1.2980   -3.1340 C   0  0  0  0  0  0  0  0  0  0  0  0
   -0.1650    0.8000    0.6870 C   0  0  0  0  0  0  0  0  0  0  0  0
   -1.4790    1.1170    1.0820 C   0  0  0  0  0  0  0  0  0  0  0  0
   -2.4650    0.2360    0.7290 C   0  0  0  0  0  0  0  0  0  0  0  0
   -3.7710    0.4720    1.0660 C   0  0  0  0  0  0  0  0  0  0  0  0
   -4.1010    1.6150    1.8210 N   0  0  0  0  0  0  0  0  0  0  0  0
   -4.7780   -0.3940    0.7140 C   0  0  0  0  0  0  0  0  0  0  0  0
   -6.1910   -0.1220    1.0490 C   0  0  0  0  0  0  0  0  0  0  0  0
  1  2  2  0
  2  3  1  0
  3  4  2  0
  3 24  1  0
  4  5  1  0
  5  6  2  0
  5 21  1  0
  6  7  1  0
  7  8  1  0
  7 19  2  0
  8  9  1  0
  9 10  2  0
  9 11  1  0
 11 12  1  0
 12 13  1  0
 12 17  2  0
 13 14  1  0
 13 15  2  0
 15 16  1  0
 16 17  1  0
 17 18  1  0
 19 20  1  0
 20 21  2  0
 21 22  1  0
 22 23  1  0
 22 24  2  0
 24 25  1  0
M  CHG  1  23   1
M  END
