
     RDKit          3D

 25 28  0  0  0  0  0  0  0  0999 V2000
    3.9890   -0.5440    1.5850 N   0  0  0  0  0  0  0  0  0  0  0  0
    4.0700   -0.1450    0.2270 C   0  0  0  0  0  0  0  0  0  0  0  0
    4.6180   -1.0100   -0.6980 C   0  0  0  0  0  0  0  0  0  0  0  0
    4.6710   -0.5690   -2.0100 C   0  0  0  0  0  0  0  0  0  0  0  0
    4.2070    0.6680   -2.3980 C   0  0  0  0  0  0  0  0  0  0  0  0
    3.6640    1.5150   -1.4570 C   0  0  0  0  0  0  0  0  0  0  0  0
    3.5920    1.1110   -0.1300 C   0  0  0  0  0  0  0  0  0  0  0  0
    3.0310    1.9950    0.8230 N   0  0  0  0  0  0  0  0  0  0  0  0
    1.7450    1.9350    1.0830 C   0  0  0  0  0  0  0  0  0  0  0  0
    0.9430    0.9820    0.4010 C   0  0  0  0  0  0  0  0  0  0  0  0
   -0.3840    0.7710    0.5270 C   0  0  0  0  0  0  0  0  0  0  0  0
   -1.0760    1.6240    1.4820 C   0  0  0  0  0  0  0  0  0  0  0  0
   -2.1620    2.4100    0.8900 N   0  0  0  0  0  0  0  0  0  0  0  0
   -0.9770   -0.1870   -0.3670 C   0  0  0  0  0  0  0  0  0  0  0  0
   -0.2890   -0.5760   -1.5290 C   0  0  0  0  0  0  0  0  0  0  0  0
   -0.7730   -1.5380   -2.3990 C   0  0  0  0  0  0  0  0  0  0  0  0
   -1.9630   -2.1400   -2.1300 C   0  0  0  0  0  0  0  0  0  0  0  0
   -2.6740   -1.7870   -0.9950 C   0  0  0  0  0  0  0  0  0  0  0  0
   -3.8470   -2.2700   -0.5470 N   0  0  0  0  0  0  0  0  0  0  0  0
   -4.1230   -1.6410    0.5900 C   0  0  0  0  0  0  0  0  0  0  0  0
   -5.0300   -1.5100    1.6400 C   0  0  0  0  0  0  0  0  0  0  0  0
   -4.5450   -0.5550    2.5060 C   0  0  0  0  0  0  0  0  0  0  0  0
   -3.4170   -0.1390    2.0050 O   0  0  0  0  0  0  0  0  0  0  0  0
   -3.1040   -0.7270    0.8860 C   0  0  0  0  0  0  0  0  0  0  0  0
   -2.1730   -0.8200   -0.1330 C   0  0  0  0  0  0  0  0  0  0  0  0
  1  2  1  0
  2  3  2  0
  2  7  1  0
  3  4  1  0
  4  5  2  0
  5  6  1  0
  6  7  2  0
  7  8  1  0
  8  9  2  3
  9 10  1  0
 10 11  2  3
 11 12  1  0
 11 14  1  0
 12 13  1  0
 14 15  2  0
 14 25  1  0
 15 16  1  0
 16 17  2  0
 17 18  1  0
 18 19  1  0
 18 25  2  0
 19 20  1  0
 20 21  1  0
 20 24  2  0
 21 22  2  0
 22 23  1  0
 23 24  1  0
 24 25  1  0
M  CHG  1  13   1
M  END
