
     RDKit          3D

 25 27  0  0  0  0  0  0  0  0999 V2000
    9.6930   -0.6780   -0.2650 C   0  0  0  0  0  0  0  0  0  0  0  0
    8.4340   -1.0720   -0.2920 C   0  0  0  0  0  0  0  0  0  0  0  0
    8.1150   -2.3980   -0.4350 O   0  0  0  0  0  0  0  0  0  0  0  0
    7.3710   -0.0940   -0.1690 C   0  0  0  0  0  0  0  0  0  0  0  0
    6.1120   -0.4620   -0.1930 C   0  0  0  0  0  0  0  0  0  0  0  0
    5.0490    0.5110   -0.0700 C   0  0  0  0  0  0  0  0  0  0  0  0
    3.8000    0.1260   -0.0960 C   0  0  0  0  0  0  0  0  0  0  0  0
    2.6980    1.0660    0.0230 C   0  0  0  0  0  0  0  0  0  0  0  0
    2.8420    2.4220    0.1720 C   0  0  0  0  0  0  0  0  0  0  0  0
    1.7580    3.2420    0.2770 N   0  0  0  0  0  0  0  0  0  0  0  0
    0.5010    2.7660    0.2410 C   0  0  0  0  0  0  0  0  0  0  0  0
    0.3020    1.4210    0.0950 C   0  0  0  0  0  0  0  0  0  0  0  0
   -1.0470    0.8720    0.0510 C   0  0  0  0  0  0  0  0  0  0  0  0
   -2.2210    1.5180    0.1390 N   0  0  0  0  0  0  0  0  0  0  0  0
   -3.2580    0.6640    0.0580 C   0  0  0  0  0  0  0  0  0  0  0  0
   -4.6410    0.8120    0.0930 C   0  0  0  0  0  0  0  0  0  0  0  0
   -5.4950   -0.2660   -0.0160 C   0  0  0  0  0  0  0  0  0  0  0  0
   -6.9890   -0.1110    0.0210 C   0  0  0  0  0  0  0  0  0  0  0  0
   -7.3350    1.3030    0.1830 N   0  0  0  0  0  0  0  0  0  0  0  0
   -4.9330   -1.5170   -0.1620 C   0  0  0  0  0  0  0  0  0  0  0  0
   -5.8170   -2.7100   -0.2830 C   0  0  0  0  0  0  0  0  0  0  0  0
   -3.5600   -1.6720   -0.1980 C   0  0  0  0  0  0  0  0  0  0  0  0
   -2.7010   -0.5890   -0.0890 C   0  0  0  0  0  0  0  0  0  0  0  0
   -1.3650   -0.4320   -0.0890 N   0  0  0  0  0  0  0  0  0  0  0  0
    1.3850    0.5990   -0.0110 C   0  0  0  0  0  0  0  0  0  0  0  0
  1  2  2  0
  2  3  1  0
  2  4  1  0
  4  5  2  3
  5  6  1  0
  6  7  2  3
  7  8  1  0
  8  9  2  0
  8 25  1  0
  9 10  1  0
 10 11  2  0
 11 12  1  0
 12 13  1  0
 12 25  2  0
 13 14  2  0
 13 24  1  0
 14 15  1  0
 15 16  2  0
 15 23  1  0
 16 17  1  0
 17 18  1  0
 17 20  2  0
 18 19  1  0
 20 21  1  0
 20 22  1  0
 22 23  2  0
 23 24  1  0
M  CHG  1  19   1
M  END
