
     RDKit          3D

 24 27  0  0  0  0  0  0  0  0999 V2000
    6.8000    1.2660   -0.1140 C   0  0  0  0  0  0  0  0  0  0  0  0
    6.1470    2.5290   -0.5090 C   0  0  0  0  0  0  0  0  0  0  0  0
    4.8400    2.5950   -0.6100 C   0  0  0  0  0  0  0  0  0  0  0  0
    4.0390    1.4070   -0.3270 C   0  0  0  0  0  0  0  0  0  0  0  0
    2.7330    1.4430   -0.4200 C   0  0  0  0  0  0  0  0  0  0  0  0
    1.9050    0.2620   -0.1410 C   0  0  0  0  0  0  0  0  0  0  0  0
    2.3890   -0.9370    0.2250 N   0  0  0  0  0  0  0  0  0  0  0  0
    1.3390   -1.7910    0.3990 C   0  0  0  0  0  0  0  0  0  0  0  0
    0.2140   -1.0520    0.1200 C   0  0  0  0  0  0  0  0  0  0  0  0
    0.6040    0.1710   -0.1980 O   0  0  0  0  0  0  0  0  0  0  0  0
   -1.1420   -1.6670    0.2070 C   0  0  0  0  0  0  0  0  0  0  0  0
   -2.1600   -0.8990   -0.0720 C   0  0  0  0  0  0  0  0  0  0  0  0
   -2.0550    0.4920   -0.4560 N   0  0  0  0  0  0  0  0  0  0  0  0
   -3.3340    1.0540   -0.6940 C   0  0  0  0  0  0  0  0  0  0  0  0
   -3.7660    2.3100   -1.0730 C   0  0  0  0  0  0  0  0  0  0  0  0
   -5.0980    2.5950   -1.2370 C   0  0  0  0  0  0  0  0  0  0  0  0
   -6.0290    1.5970   -1.0160 C   0  0  0  0  0  0  0  0  0  0  0  0
   -5.6290    0.3430   -0.6400 C   0  0  0  0  0  0  0  0  0  0  0  0
   -4.2760    0.0910   -0.4840 C   0  0  0  0  0  0  0  0  0  0  0  0
   -3.5510   -1.1140   -0.1000 N   0  0  0  0  0  0  0  0  0  0  0  0
   -1.1920   -3.0480    0.5910 C   0  0  0  0  0  0  0  0  0  0  0  0
   -2.2760   -3.6850    0.7010 N   0  0  0  0  0  0  0  0  0  0  0  0
    0.0800   -3.7770    0.8760 C   0  0  0  0  0  0  0  0  0  0  0  0
    1.2400   -3.1840    0.7830 C   0  0  0  0  0  0  0  0  0  0  0  0
  1  2  1  0
  2  3  2  3
  3  4  1  0
  4  5  2  3
  5  6  1  0
  6  7  2  0
  6 10  1  0
  7  8  1  0
  8  9  2  0
  8 24  1  0
  9 10  1  0
  9 11  1  0
 11 12  2  3
 11 21  1  0
 12 13  1  0
 12 20  1  0
 13 14  1  0
 14 15  2  0
 14 19  1  0
 15 16  1  0
 16 17  2  0
 17 18  1  0
 18 19  2  0
 19 20  1  0
 21 22  2  0
 21 23  1  0
 23 24  2  0
M  CHG  1  22   1
M  END
