
     RDKit          3D

 25 28  0  0  0  0  0  0  0  0999 V2000
    2.4010    2.1410    2.4230 N   0  0  0  0  0  0  0  0  0  0  0  0
    3.1360    1.4180    1.3970 C   0  0  0  0  0  0  0  0  0  0  0  0
    2.1780    0.6920    0.5520 C   0  0  0  0  0  0  0  0  0  0  0  0
    0.8080    0.7990    0.7960 C   0  0  0  0  0  0  0  0  0  0  0  0
   -0.0910    0.1260   -0.0440 C   0  0  0  0  0  0  0  0  0  0  0  0
    0.3430   -0.6380   -1.1040 C   0  0  0  0  0  0  0  0  0  0  0  0
    1.7020   -0.7310   -1.3260 C   0  0  0  0  0  0  0  0  0  0  0  0
    2.6100   -0.0650   -0.4950 C   0  0  0  0  0  0  0  0  0  0  0  0
    4.0270   -0.2320   -0.7600 C   0  0  0  0  0  0  0  0  0  0  0  0
    4.5090    0.2250   -1.9970 C   0  0  0  0  0  0  0  0  0  0  0  0
    5.8340    0.0580   -2.2930 C   0  0  0  0  0  0  0  0  0  0  0  0
    6.7340   -0.5220   -1.4790 N   0  0  0  0  0  0  0  0  0  0  0  0
    6.2640   -0.9560   -0.2980 C   0  0  0  0  0  0  0  0  0  0  0  0
    4.9300   -0.8190    0.0670 C   0  0  0  0  0  0  0  0  0  0  0  0
   -0.5610   -1.3230   -1.9590 N   0  0  0  0  0  0  0  0  0  0  0  0
   -1.9910   -1.2480   -1.7550 C   0  0  0  0  0  0  0  0  0  0  0  0
   -2.7830   -1.8370   -2.4860 O   0  0  0  0  0  0  0  0  0  0  0  0
   -2.4540   -0.4440   -0.6400 C   0  0  0  0  0  0  0  0  0  0  0  0
   -3.7320   -0.2730   -0.3640 C   0  0  0  0  0  0  0  0  0  0  0  0
   -4.8130   -0.8640   -1.1430 C   0  0  0  0  0  0  0  0  0  0  0  0
   -5.9170   -1.2800   -0.5160 C   0  0  0  0  0  0  0  0  0  0  0  0
   -5.8730   -1.0610    0.9770 C   0  0  0  0  0  0  0  0  0  0  0  0
   -5.5410    0.4190    1.1440 C   0  0  0  0  0  0  0  0  0  0  0  0
   -4.0640    0.5620    0.8480 C   0  0  0  0  0  0  0  0  0  0  0  0
   -1.4870    0.2250    0.1900 N   0  0  0  0  0  0  0  0  0  0  0  0
  1  2  1  0
  2  3  1  0
  3  4  2  0
  3  8  1  0
  4  5  1  0
  5  6  2  0
  5 25  1  0
  6  7  1  0
  6 15  1  0
  7  8  2  0
  8  9  1  0
  9 10  2  0
  9 14  1  0
 10 11  1  0
 11 12  2  0
 12 13  1  0
 13 14  2  0
 15 16  1  0
 16 17  2  0
 16 18  1  0
 18 19  2  3
 18 25  1  0
 19 20  1  0
 19 24  1  0
 20 21  2  0
 21 22  1  0
 22 23  1  0
 23 24  1  0
M  CHG  1   1   1
M  END
