
     RDKit          3D

 27 29  0  0  0  0  0  0  0  0999 V2000
   10.8060    1.7850   -2.3130 C   0  0  0  0  0  0  0  0  0  0  0  0
    9.5450    2.1900   -2.3350 C   0  0  0  0  0  0  0  0  0  0  0  0
    8.4630    1.5500   -1.6310 C   0  0  0  0  0  0  0  0  0  0  0  0
    7.2500    2.0660   -1.7380 C   0  0  0  0  0  0  0  0  0  0  0  0
    6.1180    1.4110   -1.0120 C   0  0  0  0  0  0  0  0  0  0  0  0
    4.8020    1.8830   -1.0410 C   0  0  0  0  0  0  0  0  0  0  0  0
    3.8970    1.2360   -0.3770 C   0  0  0  0  0  0  0  0  0  0  0  0
    2.4940    1.5640   -0.2870 N   0  0  0  0  0  0  0  0  0  0  0  0
    1.5760    0.8290    0.4510 C   0  0  0  0  0  0  0  0  0  0  0  0
    1.9250   -0.1850    1.0980 O   0  0  0  0  0  0  0  0  0  0  0  0
    0.1860    1.1920    0.5120 N   0  0  0  0  0  0  0  0  0  0  0  0
   -0.7510    0.4750    1.2450 N   0  0  0  0  0  0  0  0  0  0  0  0
   -1.9850    0.0810    0.6690 C   0  0  0  0  0  0  0  0  0  0  0  0
   -2.2010    0.3940   -0.5320 O   0  0  0  0  0  0  0  0  0  0  0  0
   -3.0100   -0.6850    1.4680 C   0  0  0  0  0  0  0  0  0  0  0  0
   -4.1680   -0.9590    0.6780 N   0  0  0  0  0  0  0  0  0  0  0  0
   -5.3080   -1.5560    1.2490 C   0  0  0  0  0  0  0  0  0  0  0  0
   -5.2950   -1.8520    2.5500 N   0  0  0  0  0  0  0  0  0  0  0  0
   -6.3530   -2.4040    3.1650 C   0  0  0  0  0  0  0  0  0  0  0  0
   -7.4260   -2.6470    2.4240 N   0  0  0  0  0  0  0  0  0  0  0  0
   -7.4990   -2.3640    1.0770 C   0  0  0  0  0  0  0  0  0  0  0  0
   -6.4530   -1.8160    0.4600 C   0  0  0  0  0  0  0  0  0  0  0  0
   -6.5690   -1.5280   -0.9910 C   0  0  0  0  0  0  0  0  0  0  0  0
   -7.9810   -2.5960   -1.4270 S   0  0  0  0  0  0  0  0  0  0  0  0
   -8.7100   -2.6340    0.2600 C   0  0  0  0  0  0  0  0  0  0  0  0
    4.2970    0.0590    0.3590 N   0  0  0  0  0  0  0  0  0  0  0  0
    6.0810    0.0500   -0.0460 S   0  0  0  0  0  0  0  0  0  0  0  0
  1  2  2  0
  2  3  1  0
  3  4  2  3
  4  5  1  0
  5  6  2  0
  5 27  1  0
  6  7  1  0
  7  8  1  0
  7 26  2  0
  8  9  1  0
  9 10  2  0
  9 11  1  0
 11 12  1  0
 12 13  1  0
 13 14  2  0
 13 15  1  0
 15 16  1  0
 16 17  1  0
 17 18  2  0
 17 22  1  0
 18 19  1  0
 19 20  2  0
 20 21  1  0
 21 22  2  0
 21 25  1  0
 22 23  1  0
 23 24  1  0
 24 25  1  0
 26 27  1  0
M  END
