
     RDKit          3D

 27 29  0  0  0  0  0  0  0  0999 V2000
    3.6630    1.4130    2.6240 C   0  0  0  0  0  0  0  0  0  0  0  0
    2.9940    0.3940    1.8620 N   0  0  0  0  0  0  0  0  0  0  0  0
    3.6880   -0.7780    1.4400 C   0  0  0  0  0  0  0  0  0  0  0  0
    4.3270   -0.6580    0.1140 C   0  0  0  0  0  0  0  0  0  0  0  0
    5.6280   -0.7940   -0.0760 C   0  0  0  0  0  0  0  0  0  0  0  0
    5.9610   -0.6230   -1.4910 C   0  0  0  0  0  0  0  0  0  0  0  0
    4.6710   -0.3630   -2.1290 C   0  0  0  0  0  0  0  0  0  0  0  0
    3.7520   -0.3890   -1.1840 C   0  0  0  0  0  0  0  0  0  0  0  0
    1.6360    0.5540    1.5340 C   0  0  0  0  0  0  0  0  0  0  0  0
    0.9620    1.5640    1.8910 O   0  0  0  0  0  0  0  0  0  0  0  0
    0.9400   -0.4140    0.7810 N   0  0  0  0  0  0  0  0  0  0  0  0
   -0.4620   -0.2480    0.4440 C   0  0  0  0  0  0  0  0  0  0  0  0
   -1.0660    0.8670    0.8800 N   0  0  0  0  0  0  0  0  0  0  0  0
   -2.3260    1.2240    0.6940 C   0  0  0  0  0  0  0  0  0  0  0  0
   -2.9050    2.4270    1.1870 N   0  0  0  0  0  0  0  0  0  0  0  0
   -4.2810    2.7020    0.9180 C   0  0  0  0  0  0  0  0  0  0  0  0
   -4.8040    3.9180    1.4360 N   0  0  0  0  0  0  0  0  0  0  0  0
   -4.9860    1.9130    0.2620 O   0  0  0  0  0  0  0  0  0  0  0  0
   -3.2460    0.1020   -0.2150 S   0  0  0  0  0  0  0  0  0  0  0  0
   -2.3100   -1.2560   -0.6860 C   0  0  0  0  0  0  0  0  0  0  0  0
   -2.8200   -2.2180   -1.3790 N   0  0  0  0  0  0  0  0  0  0  0  0
   -4.2330   -2.1400   -1.7690 C   0  0  0  0  0  0  0  0  0  0  0  0
   -5.0890   -3.0900   -1.4550 C   0  0  0  0  0  0  0  0  0  0  0  0
   -6.4170   -2.9820   -1.8420 C   0  0  0  0  0  0  0  0  0  0  0  0
   -6.3930   -1.3920   -2.7110 S   0  0  0  0  0  0  0  0  0  0  0  0
   -4.6520   -1.0410   -2.4770 C   0  0  0  0  0  0  0  0  0  0  0  0
   -1.0500   -1.2150   -0.2760 N   0  0  0  0  0  0  0  0  0  0  0  0
  1  2  1  0
  2  3  1  0
  2  9  1  0
  3  4  1  0
  4  5  2  0
  4  8  1  0
  5  6  1  0
  6  7  1  0
  7  8  2  0
  9 10  2  0
  9 11  1  0
 11 12  1  0
 12 13  1  0
 12 27  2  0
 13 14  2  0
 14 15  1  0
 14 19  1  0
 15 16  1  0
 16 17  1  0
 16 18  2  0
 19 20  1  0
 20 21  2  3
 20 27  1  0
 21 22  1  0
 22 23  1  0
 22 26  2  0
 23 24  2  0
 24 25  1  0
 25 26  1  0
M  END
