
     RDKit          3D

 27 29  0  0  0  0  0  0  0  0999 V2000
   -2.3160    0.0290   -2.7720 C   0  0  0  0  0  0  0  0  0  0  0  0
   -2.2160   -0.6840   -1.5130 N   0  0  0  0  0  0  0  0  0  0  0  0
   -1.3560   -0.1100   -0.5330 C   0  0  0  0  0  0  0  0  0  0  0  0
   -0.0540   -0.5350   -0.4600 N   0  0  0  0  0  0  0  0  0  0  0  0
    0.8230   -0.0350    0.3890 C   0  0  0  0  0  0  0  0  0  0  0  0
    2.1650   -0.5600    0.3720 C   0  0  0  0  0  0  0  0  0  0  0  0
    2.7740   -1.5460   -0.3950 C   0  0  0  0  0  0  0  0  0  0  0  0
    4.0680   -1.8010   -0.1620 C   0  0  0  0  0  0  0  0  0  0  0  0
    4.7620   -1.1430    0.7700 C   0  0  0  0  0  0  0  0  0  0  0  0
    6.1110   -1.1200    1.3060 C   0  0  0  0  0  0  0  0  0  0  0  0
    6.9410   -0.1360    0.5280 C   0  0  0  0  0  0  0  0  0  0  0  0
    6.4210    1.2050    0.5860 N   0  0  0  0  0  0  0  0  0  0  0  0
    3.4900   -0.0340    1.4100 S   0  0  0  0  0  0  0  0  0  0  0  0
    0.4210    0.9310    1.2140 N   0  0  0  0  0  0  0  0  0  0  0  0
   -0.8230    1.4090    1.2160 C   0  0  0  0  0  0  0  0  0  0  0  0
   -1.2600    2.4410    2.0950 N   0  0  0  0  0  0  0  0  0  0  0  0
   -1.7540    0.8830    0.3200 C   0  0  0  0  0  0  0  0  0  0  0  0
   -3.0930    1.4200    0.3180 C   0  0  0  0  0  0  0  0  0  0  0  0
   -4.0340    0.9520    1.1920 C   0  0  0  0  0  0  0  0  0  0  0  0
   -5.2920    1.5120    1.1380 C   0  0  0  0  0  0  0  0  0  0  0  0
   -5.5660    2.4840    0.2490 N   0  0  0  0  0  0  0  0  0  0  0  0
   -4.6330    2.9300   -0.6010 N   0  0  0  0  0  0  0  0  0  0  0  0
   -3.3910    2.4210   -0.5920 C   0  0  0  0  0  0  0  0  0  0  0  0
   -3.1260   -2.1200   -1.3280 S   0  0  1  0  0  0  0  0  0  0  0  0
   -4.3190   -2.0990   -0.0500 C   0  0  0  0  0  0  0  0  0  0  0  0
   -3.7620   -2.5330   -2.6450 O   0  0  0  0  0  0  0  0  0  0  0  0
   -2.1630   -3.2650   -1.0100 O   0  0  0  0  0  0  0  0  0  0  0  0
  1  2  1  0
  2  3  1  0
  2 24  1  0
  3  4  2  0
  3 17  1  0
  4  5  1  0
  5  6  1  0
  5 14  2  0
  6  7  2  0
  6 13  1  0
  7  8  1  0
  8  9  2  0
  9 10  1  0
  9 13  1  0
 10 11  1  0
 11 12  1  0
 14 15  1  0
 15 16  1  0
 15 17  2  0
 17 18  1  0
 18 19  2  0
 18 23  1  0
 19 20  1  0
 20 21  2  0
 21 22  1  0
 22 23  2  0
 24 25  1  1
 24 26  2  0
 24 27  2  0
M  END
