
     RDKit          3D

 27 29  0  0  0  0  0  0  0  0999 V2000
   -4.7200   -1.5190   -1.3840 C   0  0  0  0  0  0  0  0  0  0  0  0
   -4.0420   -1.0680   -0.1520 C   0  0  0  0  0  0  0  0  0  0  0  0
   -3.0490   -0.1320   -0.2190 C   0  0  0  0  0  0  0  0  0  0  0  0
   -2.3620    0.3460    0.8880 C   0  0  0  0  0  0  0  0  0  0  0  0
   -1.3600    1.3150    0.8630 N   0  0  0  0  0  0  0  0  0  0  0  0
   -0.8760    1.8130   -0.3910 C   0  0  0  0  0  0  0  0  0  0  0  0
   -0.5100    1.1620   -1.2890 N   0  0  0  0  0  0  0  0  0  0  0  0
   -0.1200    0.3160   -2.2420 C   0  0  0  0  0  0  0  0  0  0  0  0
   -0.8630   -0.3370   -3.2080 N   0  0  0  0  0  0  0  0  0  0  0  0
   -0.0870   -1.0540   -4.0050 C   0  0  0  0  0  0  0  0  0  0  0  0
    1.2030   -0.8810   -3.5690 C   0  0  0  0  0  0  0  0  0  0  0  0
    1.2340   -0.0470   -2.4840 C   0  0  0  0  0  0  0  0  0  0  0  0
    2.3920    0.3310   -1.6790 C   0  0  0  0  0  0  0  0  0  0  0  0
    3.4060    0.8290   -2.2920 O   0  0  0  0  0  0  0  0  0  0  0  0
    2.4970    0.1870   -0.2830 N   0  0  0  0  0  0  0  0  0  0  0  0
    3.6300    0.5810    0.4950 C   0  0  0  0  0  0  0  0  0  0  0  0
    3.7350    0.3440    1.8000 N   0  0  0  0  0  0  0  0  0  0  0  0
    4.7440    0.7050    2.5830 C   0  0  0  0  0  0  0  0  0  0  0  0
    4.6140    0.3590    3.8240 O   0  0  0  0  0  0  0  0  0  0  0  0
    5.8690    1.3740    2.2750 N   0  0  0  0  0  0  0  0  0  0  0  0
    6.1290    1.7940    1.0070 C   0  0  0  0  0  0  0  0  0  0  0  0
    7.5290    2.6280    0.6960 S   0  0  0  0  0  0  0  0  0  0  0  0
    4.9640    1.4350   -0.1510 S   0  0  0  0  0  0  0  0  0  0  0  0
   -2.7660   -0.2100    2.0910 C   0  0  0  0  0  0  0  0  0  0  0  0
   -2.0740    0.2540    3.3390 C   0  0  0  0  0  0  0  0  0  0  0  0
   -3.7710   -1.1610    2.1830 C   0  0  0  0  0  0  0  0  0  0  0  0
   -4.3890   -1.5710    1.0570 N   0  0  0  0  0  0  0  0  0  0  0  0
  1  2  1  0
  2  3  2  0
  2 27  1  0
  3  4  1  0
  4  5  1  0
  4 24  2  0
  5  6  1  0
  6  7  2  3
  7  8  1  0
  8  9  1  0
  8 12  2  0
  9 10  1  0
 10 11  2  0
 11 12  1  0
 12 13  1  0
 13 14  2  0
 13 15  1  0
 15 16  1  0
 16 17  2  0
 16 23  1  0
 17 18  1  0
 18 19  2  0
 18 20  1  0
 20 21  1  0
 21 22  2  0
 21 23  1  0
 24 25  1  0
 24 26  1  0
 26 27  2  0
M  END
