
     RDKit          3D

 27 30  0  0  0  0  0  0  0  0999 V2000
   -2.3770   -2.6980    1.3620 C   0  0  0  0  0  0  0  0  0  0  0  0
   -3.1480   -2.2540    0.1160 C   0  0  1  0  0  0  0  0  0  0  0  0
   -3.0730   -3.2980   -0.9770 C   0  0  0  0  0  0  0  0  0  0  0  0
   -4.6170   -2.2040    0.5530 C   0  0  0  0  0  0  0  0  0  0  0  0
   -2.6780   -0.9750   -0.3100 N   0  0  0  0  0  0  0  0  0  0  0  0
   -2.0980   -0.7890   -1.6390 C   0  0  0  0  0  0  0  0  0  0  0  0
   -1.0230    0.2360   -1.6120 C   0  0  0  0  0  0  0  0  0  0  0  0
    0.0330    0.0770   -2.3970 C   0  0  0  0  0  0  0  0  0  0  0  0
    1.1250    0.9500   -2.4860 N   0  0  0  0  0  0  0  0  0  0  0  0
    2.2130    0.8490   -1.5900 C   0  0  0  0  0  0  0  0  0  0  0  0
    3.2890    1.7050   -1.6730 C   0  0  0  0  0  0  0  0  0  0  0  0
    4.3460    1.6080   -0.8020 C   0  0  0  0  0  0  0  0  0  0  0  0
    4.3850    0.6440    0.2060 C   0  0  0  0  0  0  0  0  0  0  0  0
    3.3160   -0.2020    0.2820 C   0  0  0  0  0  0  0  0  0  0  0  0
    2.2660   -0.1060   -0.5820 C   0  0  0  0  0  0  0  0  0  0  0  0
    3.6810   -1.3100    1.6350 S   0  0  0  0  0  0  0  0  0  0  0  0
    5.5050   -1.0010    1.6170 C   0  0  0  0  0  0  0  0  0  0  0  0
    5.4340    0.4490    1.1960 C   0  0  0  0  0  0  0  0  0  0  0  0
   -1.0830    1.4090   -0.7580 C   0  0  0  0  0  0  0  0  0  0  0  0
   -0.4830    2.6130   -0.7250 N   0  0  0  0  0  0  0  0  0  0  0  0
   -0.9190    3.3400    0.3120 C   0  0  0  0  0  0  0  0  0  0  0  0
   -0.4940    4.6750    0.6550 C   0  0  0  0  0  0  0  0  0  0  0  0
   -0.9650    5.2760    1.6530 O   0  0  0  0  0  0  0  0  0  0  0  0
   -1.8500    2.5590    0.9800 C   0  0  0  0  0  0  0  0  0  0  0  0
   -1.9630    1.3540    0.3260 C   0  0  0  0  0  0  0  0  0  0  0  0
   -2.7600    0.1540    0.5440 C   0  0  0  0  0  0  0  0  0  0  0  0
   -3.5390    0.1330    1.5230 O   0  0  0  0  0  0  0  0  0  0  0  0
  2  1  1  1
  2  3  1  0
  2  4  1  0
  2  5  1  0
  5  6  1  0
  5 26  1  0
  6  7  1  0
  7  8  2  3
  7 19  1  0
  8  9  1  0
  9 10  1  0
 10 11  2  0
 10 15  1  0
 11 12  1  0
 12 13  2  0
 13 14  1  0
 13 18  1  0
 14 15  2  0
 14 16  1  0
 16 17  1  0
 17 18  1  0
 19 20  1  0
 19 25  2  0
 20 21  1  0
 21 22  1  0
 21 24  2  0
 22 23  2  0
 24 25  1  0
 25 26  1  0
 26 27  2  0
M  END
