
     RDKit          3D

 27 29  0  0  0  0  0  0  0  0999 V2000
   -0.2410   -3.5250    1.7370 C   0  0  0  0  0  0  0  0  0  0  0  0
   -0.0770   -2.4660    0.6270 C   0  0  0  0  0  0  0  0  0  0  0  0
    1.1700   -2.1230    0.4460 C   0  0  0  0  0  0  0  0  0  0  0  0
    1.8870   -1.2510   -0.3690 N   0  0  0  0  0  0  0  0  0  0  0  0
    2.4040    0.0900   -0.0940 C   0  0  0  0  0  0  0  0  0  0  0  0
    3.0230    0.6770   -1.0850 N   0  0  0  0  0  0  0  0  0  0  0  0
    3.2160   -0.0630   -2.5940 S   0  0  2  0  0  0  0  0  0  0  0  0
    4.2720   -1.5080   -2.4910 C   0  0  0  0  0  0  0  0  0  0  0  0
    3.9290    0.9260   -3.5210 O   0  0  0  0  0  0  0  0  0  0  0  0
    1.9170   -0.4300   -3.2660 O   0  0  0  0  0  0  0  0  0  0  0  0
    2.3440    0.8620    1.1210 C   0  0  0  0  0  0  0  0  0  0  0  0
    1.6280    1.7400    1.7200 C   0  0  0  0  0  0  0  0  0  0  0  0
    0.4560    2.5810    1.6920 C   0  0  0  0  0  0  0  0  0  0  0  0
    0.6580    3.9220    2.1720 C   0  0  0  0  0  0  0  0  0  0  0  0
   -0.3030    4.8660    2.2910 C   0  0  0  0  0  0  0  0  0  0  0  0
   -1.5740    4.5280    1.9300 C   0  0  0  0  0  0  0  0  0  0  0  0
   -1.8700    3.2840    1.4620 C   0  0  0  0  0  0  0  0  0  0  0  0
   -0.8480    2.2980    1.3380 C   0  0  0  0  0  0  0  0  0  0  0  0
   -1.3790    1.1080    0.8010 N   0  0  0  0  0  0  0  0  0  0  0  0
   -1.0450    0.3860   -0.4260 C   0  0  2  0  0  0  0  0  0  0  0  0
   -1.5040    1.2070   -1.6700 C   0  0  0  0  0  0  0  0  0  0  0  0
   -1.7590   -0.9210   -0.5020 C   0  0  0  0  0  0  0  0  0  0  0  0
   -3.0220   -0.8590   -1.1200 C   0  0  0  0  0  0  0  0  0  0  0  0
   -3.8530   -1.9370   -1.2860 C   0  0  0  0  0  0  0  0  0  0  0  0
   -3.4480   -3.1660   -0.8300 C   0  0  0  0  0  0  0  0  0  0  0  0
   -2.2330   -3.2390   -0.2320 C   0  0  0  0  0  0  0  0  0  0  0  0
   -1.3340   -2.1380   -0.0390 C   0  0  0  0  0  0  0  0  0  0  0  0
  1  2  1  0
  2  3  2  0
  2 27  1  0
  3  4  1  0
  4  5  1  0
  5  6  2  3
  5 11  1  0
  6  7  1  0
  7  8  1  1
  7  9  2  0
  7 10  2  0
 11 12  2  0
 12 13  1  0
 13 14  2  0
 13 18  1  0
 14 15  1  0
 15 16  2  0
 16 17  1  0
 17 18  2  0
 18 19  1  0
 19 20  1  0
 20 21  1  6
 20 22  1  0
 22 23  2  0
 22 27  1  0
 23 24  1  0
 24 25  2  0
 25 26  1  0
 26 27  2  0
M  END
