
     RDKit          3D

 21 23  0  0  0  0  0  0  0  0999 V2000
   -5.3520   -1.9400    0.0180 C   0  0  0  0  0  0  0  0  0  0  0  0
   -4.5450   -0.6930   -0.0540 C   0  0  0  0  0  0  0  0  0  0  0  0
   -5.1100    0.5500   -0.1940 C   0  0  0  0  0  0  0  0  0  0  0  0
   -4.2960    1.6580   -0.2530 C   0  0  0  0  0  0  0  0  0  0  0  0
   -5.0590    3.3860   -0.4480 Br  0  0  0  0  0  0  0  0  0  0  0  0
   -2.9010    1.5520   -0.1730 C   0  0  0  0  0  0  0  0  0  0  0  0
   -2.1170    2.6870   -0.2360 O   0  0  0  0  0  0  0  0  0  0  0  0
   -2.3250    0.3120   -0.0320 C   0  0  0  0  0  0  0  0  0  0  0  0
   -0.8750    0.1290    0.0580 C   0  0  0  0  0  0  0  0  0  0  0  0
    0.1440    1.0490    0.0260 C   0  0  0  0  0  0  0  0  0  0  0  0
    1.3660    0.4030    0.1470 C   0  0  0  0  0  0  0  0  0  0  0  0
    2.6810    0.7990    0.1770 C   0  0  0  0  0  0  0  0  0  0  0  0
    3.7310   -0.0850    0.3100 C   0  0  0  0  0  0  0  0  0  0  0  0
    5.1160    0.3510    0.3410 C   0  0  0  0  0  0  0  0  0  0  0  0
    6.1460   -0.6130    0.4800 N   0  0  0  0  0  0  0  0  0  0  0  0
    5.4400    1.5870    0.2460 N   0  0  0  0  0  0  0  0  0  0  0  0
    3.4310   -1.4410    0.4180 C   0  0  0  0  0  0  0  0  0  0  0  0
    2.1140   -1.8340    0.3860 C   0  0  0  0  0  0  0  0  0  0  0  0
    1.0680   -0.9330    0.2520 C   0  0  0  0  0  0  0  0  0  0  0  0
   -0.2790   -1.0770    0.1970 N   0  0  0  0  0  0  0  0  0  0  0  0
   -3.1770   -0.7900    0.0240 C   0  0  0  0  0  0  0  0  0  0  0  0
  1  2  1  0
  2  3  2  0
  2 21  1  0
  3  4  1  0
  4  5  1  0
  4  6  2  0
  6  7  1  0
  6  8  1  0
  8  9  1  0
  8 21  2  0
  9 10  2  0
  9 20  1  0
 10 11  1  0
 11 12  2  0
 11 19  1  0
 12 13  1  0
 13 14  1  0
 13 17  2  0
 14 15  1  0
 14 16  2  0
 17 18  1  0
 18 19  2  0
 19 20  1  0
M  CHG  1  16   1
M  END
