
     RDKit          3D

 14 14  0  0  0  0  0  0  0  0999 V2000
    3.5620    0.1060    0.6920 C   0  0  0  0  0  0  0  0  0  0  0  0
    2.3300    0.9310    0.6710 C   0  0  0  0  0  0  0  0  0  0  0  0
    2.4830    2.7880    1.0280 Br  0  0  0  0  0  0  0  0  0  0  0  0
    1.1480    0.3470    0.4020 C   0  0  0  0  0  0  0  0  0  0  0  0
    1.1050   -1.0470    0.1430 N   0  0  0  0  0  0  0  0  0  0  0  0
    0.0030   -1.6410   -0.1170 C   0  0  0  0  0  0  0  0  0  0  0  0
   -1.2360   -0.8450   -0.1440 C   0  0  0  0  0  0  0  0  0  0  0  0
   -2.4290   -1.5720   -0.4360 N   0  0  0  0  0  0  0  0  0  0  0  0
   -1.2490    0.4460    0.0880 C   0  0  0  0  0  0  0  0  0  0  0  0
   -2.4990    1.2260    0.0560 C   0  0  2  0  0  0  0  0  0  0  0  0
   -2.8930    1.9970    1.8060 Br  0  0  0  0  0  0  0  0  0  0  0  0
   -4.0160    0.3110   -0.6310 Br  0  0  0  0  0  0  0  0  0  0  0  0
   -2.1730    2.7740   -1.1030 Br  0  0  0  0  0  0  0  0  0  0  0  0
   -0.0140    1.0620    0.3700 O   0  0  0  0  0  0  0  0  0  0  0  0
  1  2  1  0
  2  3  1  0
  2  4  2  3
  4  5  1  0
  4 14  1  0
  5  6  2  0
  6  7  1  0
  7  8  1  0
  7  9  2  0
  9 10  1  0
  9 14  1  0
 10 11  1  1
 10 12  1  0
 10 13  1  0
M  END
