
     RDKit          3D

 14 15  0  0  0  0  0  0  0  0999 V2000
    3.0870   -1.0710   -0.0360 O   0  0  0  0  0  0  0  0  0  0  0  0
    1.8250   -0.5070   -0.0340 C   0  0  0  0  0  0  0  0  0  0  0  0
    1.6360    0.8620   -0.1600 C   0  0  0  0  0  0  0  0  0  0  0  0
    3.1790    1.9520   -0.3390 Br  0  0  0  0  0  0  0  0  0  0  0  0
    0.3810    1.4330   -0.1590 C   0  0  0  0  0  0  0  0  0  0  0  0
    0.1260    3.3160   -0.3330 Br  0  0  0  0  0  0  0  0  0  0  0  0
   -0.7500    0.6400   -0.0290 C   0  0  0  0  0  0  0  0  0  0  0  0
   -2.0810    0.8780    0.0090 N   0  0  0  0  0  0  0  0  0  0  0  0
   -2.7160   -0.3070    0.1550 C   0  0  0  0  0  0  0  0  0  0  0  0
   -4.6090   -0.4900    0.2600 Br  0  0  0  0  0  0  0  0  0  0  0  0
   -1.7710   -1.2660    0.2060 N   0  0  0  0  0  0  0  0  0  0  0  0
   -0.5520   -0.7330    0.0980 C   0  0  0  0  0  0  0  0  0  0  0  0
    0.7040   -1.2890    0.0950 C   0  0  0  0  0  0  0  0  0  0  0  0
    0.8830   -3.1780    0.2730 Br  0  0  0  0  0  0  0  0  0  0  0  0
  1  2  1  0
  2  3  2  0
  2 13  1  0
  3  4  1  0
  3  5  1  0
  5  6  1  0
  5  7  2  0
  7  8  1  0
  7 12  1  0
  8  9  1  0
  9 10  1  0
  9 11  2  0
 11 12  1  0
 12 13  2  0
 13 14  1  0
M  END
