
     RDKit          3D

 14 14  0  0  0  0  0  0  0  0999 V2000
    3.9010    0.2340    0.5430 C   0  0  0  0  0  0  0  0  0  0  0  0
    2.7840   -0.2480    1.2930 O   0  0  0  0  0  0  0  0  0  0  0  0
    1.6010   -0.4050    0.5810 C   0  0  0  0  0  0  0  0  0  0  0  0
    0.4250    0.1810    0.8970 C   0  0  0  0  0  0  0  0  0  0  0  0
   -0.5670   -0.2230   -0.0780 C   0  0  0  0  0  0  0  0  0  0  0  0
   -1.8150    0.0930   -0.1730 C   0  0  0  0  0  0  0  0  0  0  0  0
   -2.5260   -0.5140   -1.3010 N   0  0  0  0  0  0  0  0  0  0  0  0
   -2.6460    0.9540    0.6600 C   0  0  2  0  0  0  0  0  0  0  0  0
   -3.9470   -0.1550    1.6250 Br  0  0  0  0  0  0  0  0  0  0  0  0
   -3.7830    2.0610   -0.5180 Br  0  0  0  0  0  0  0  0  0  0  0  0
   -1.7860    2.0580    1.9410 Br  0  0  0  0  0  0  0  0  0  0  0  0
    0.2010   -1.1180   -0.9880 C   0  0  0  0  0  0  0  0  0  0  0  0
   -0.5550   -1.9890   -2.5070 Br  0  0  0  0  0  0  0  0  0  0  0  0
    1.4220   -1.1910   -0.5790 N   0  0  0  0  0  0  0  0  0  0  0  0
  1  2  1  0
  2  3  1  0
  3  4  2  0
  3 14  1  0
  4  5  1  0
  5  6  2  3
  5 12  1  0
  6  7  1  0
  6  8  1  0
  8  9  1  1
  8 10  1  0
  8 11  1  0
 12 13  1  0
 12 14  2  0
M  END
