
     RDKit          3D

 27 29  0  0  0  0  0  0  0  0999 V2000
   -3.6500    4.1630   -1.8190 C   0  0  0  0  0  0  0  0  0  0  0  0
   -3.7480    2.7990   -2.4500 C   0  0  0  0  0  0  0  0  0  0  0  0
   -3.7130    1.7100   -1.4680 C   0  0  0  0  0  0  0  0  0  0  0  0
   -2.5540    1.1600   -1.0970 N   0  0  0  0  0  0  0  0  0  0  0  0
   -2.3830    0.1810   -0.2290 C   0  0  0  0  0  0  0  0  0  0  0  0
   -1.0520   -0.3250    0.0830 N   0  0  0  0  0  0  0  0  0  0  0  0
    0.0830    0.2020   -0.5190 C   0  0  0  0  0  0  0  0  0  0  0  0
   -0.2130    1.1720   -1.3670 O   0  0  0  0  0  0  0  0  0  0  0  0
    1.4830   -0.1310   -0.3690 C   0  0  0  0  0  0  0  0  0  0  0  0
    2.3080    0.6180   -1.1520 C   0  0  0  0  0  0  0  0  0  0  0  0
    3.7280    0.5200   -1.2070 C   0  0  0  0  0  0  0  0  0  0  0  0
    4.5860    0.7270   -0.1400 C   0  0  0  0  0  0  0  0  0  0  0  0
    5.8610    0.5350   -0.6110 C   0  0  0  0  0  0  0  0  0  0  0  0
    7.1120    0.6510    0.1740 C   0  0  0  0  0  0  0  0  0  0  0  0
    5.7080    0.2210   -1.9420 C   0  0  0  0  0  0  0  0  0  0  0  0
    4.4660    0.2170   -2.2690 O   0  0  0  0  0  0  0  0  0  0  0  0
    2.0670   -1.1810    0.3970 C   0  0  0  0  0  0  0  0  0  0  0  0
    3.3510   -1.4300    0.2730 O   0  0  0  0  0  0  0  0  0  0  0  0
    1.4730   -2.0490    1.3230 N   0  0  0  0  0  0  0  0  0  0  0  0
    2.2730   -3.0850    2.0120 C   0  0  0  0  0  0  0  0  0  0  0  0
   -3.5000   -0.3770    0.3990 C   0  0  0  0  0  0  0  0  0  0  0  0
   -3.5600   -1.3700    1.3050 C   0  0  0  0  0  0  0  0  0  0  0  0
   -4.7540   -1.7650    1.7950 C   0  0  0  0  0  0  0  0  0  0  0  0
   -5.1060   -2.8170    2.7860 C   0  0  0  0  0  0  0  0  0  0  0  0
   -5.9100   -0.7350    0.9890 S   0  0  0  0  0  0  0  0  0  0  0  0
   -4.7100    0.1960    0.0140 C   0  0  0  0  0  0  0  0  0  0  0  0
   -4.8270    1.1890   -0.8730 N   0  0  0  0  0  0  0  0  0  0  0  0
  1  2  1  0
  2  3  1  0
  3  4  2  0
  3 27  1  0
  4  5  1  0
  5  6  1  0
  5 21  2  0
  6  7  1  0
  7  8  2  0
  7  9  1  0
  9 10  2  3
  9 17  1  0
 10 11  1  0
 11 12  2  0
 11 16  1  0
 12 13  1  0
 13 14  1  0
 13 15  2  0
 15 16  1  0
 17 18  2  0
 17 19  1  0
 19 20  1  0
 21 22  1  0
 21 26  1  0
 22 23  2  0
 23 24  1  0
 23 25  1  0
 25 26  1  0
 26 27  2  0
M  END
