
     RDKit          3D

 27 28  0  0  0  0  0  0  0  0999 V2000
    6.7830    2.0780    0.4980 C   0  0  0  0  0  0  0  0  0  0  0  0
    6.0100    1.1740    1.4410 C   0  0  2  0  0  0  0  0  0  0  0  0
    6.9220    0.8370    2.6310 C   0  0  0  0  0  0  0  0  0  0  0  0
    5.7110   -0.1580    0.8070 C   0  0  0  0  0  0  0  0  0  0  0  0
    4.9210   -0.0640   -0.4200 N   0  0  0  0  0  0  0  0  0  0  0  0
    5.6720    0.0290   -1.6510 C   0  0  0  0  0  0  0  0  0  0  0  0
    3.5650   -0.0430   -0.2960 C   0  0  0  0  0  0  0  0  0  0  0  0
    2.8580   -0.0030    0.6100 O   0  0  0  0  0  0  0  0  0  0  0  0
    2.7580   -0.1000   -1.8490 N   0  0  0  0  0  0  0  0  0  0  0  0
    1.4900    0.0840   -1.2850 C   0  0  0  0  0  0  0  0  0  0  0  0
    0.9770    0.3530   -0.2560 O   0  0  0  0  0  0  0  0  0  0  0  0
    0.5060   -0.1570   -2.4080 N   0  0  0  0  0  0  0  0  0  0  0  0
   -0.8700   -0.0690   -2.3000 C   0  0  0  0  0  0  0  0  0  0  0  0
   -1.4850   -0.9450   -1.2200 C   0  0  0  0  0  0  0  0  0  0  0  0
   -2.9750   -0.7770   -1.3150 C   0  0  0  0  0  0  0  0  0  0  0  0
   -3.4450   -0.7830   -2.4810 O   0  0  0  0  0  0  0  0  0  0  0  0
   -3.7710   -0.6290   -0.1630 N   0  0  0  0  0  0  0  0  0  0  0  0
   -3.1650   -0.6820    1.1740 C   0  0  0  0  0  0  0  0  0  0  0  0
   -4.2600   -0.5920    2.2300 C   0  0  0  0  0  0  0  0  0  0  0  0
   -5.3830   -1.5580    1.9270 C   0  0  0  0  0  0  0  0  0  0  0  0
   -6.0820   -0.9710    0.7150 C   0  0  0  0  0  0  0  0  0  0  0  0
   -7.3750   -1.0960    0.7790 C   0  0  0  0  0  0  0  0  0  0  0  0
   -8.5870   -0.5640   -0.3950 S   0  0  0  0  0  0  0  0  0  0  0  0
   -7.9450    0.6200   -1.5240 C   0  0  0  0  0  0  0  0  0  0  0  0
   -6.6830    0.9180   -1.7970 C   0  0  0  0  0  0  0  0  0  0  0  0
   -5.4420    0.4030   -1.2950 C   0  0  0  0  0  0  0  0  0  0  0  0
   -5.1860   -0.3860   -0.2700 C   0  0  0  0  0  0  0  0  0  0  0  0
  2  1  1  6
  2  3  1  0
  2  4  1  0
  4  5  1  0
  5  6  1  0
  5  7  1  0
  7  8  2  0
  7  9  1  0
  9 10  1  0
 10 11  2  0
 10 12  1  0
 12 13  1  0
 13 14  1  0
 14 15  1  0
 15 16  2  0
 15 17  1  0
 17 18  1  0
 17 27  1  0
 18 19  1  0
 19 20  1  0
 20 21  1  0
 21 22  2  0
 21 27  1  0
 22 23  1  0
 23 24  1  0
 24 25  2  0
 25 26  1  0
 26 27  2  0
M  END
