
     RDKit          3D

 21 22  0  0  0  0  0  0  0  0999 V2000
   -5.7580    0.0850   -1.1950 C   0  0  0  0  0  0  0  0  0  0  0  0
   -4.3430    0.1890   -0.8840 N   0  0  0  0  0  0  0  0  0  0  0  0
   -3.9230    0.2210    0.4580 C   0  0  0  0  0  0  0  0  0  0  0  0
   -4.8680    0.1140    1.4640 C   0  0  0  0  0  0  0  0  0  0  0  0
   -4.4780    0.1530    2.7840 C   0  0  0  0  0  0  0  0  0  0  0  0
   -3.1490    0.2970    3.1060 C   0  0  0  0  0  0  0  0  0  0  0  0
   -2.2320    0.4000    2.1340 N   0  0  0  0  0  0  0  0  0  0  0  0
   -2.6070    0.3630    0.8140 C   0  0  0  0  0  0  0  0  0  0  0  0
   -1.5960    0.4540   -0.2280 C   0  0  0  0  0  0  0  0  0  0  0  0
   -0.2860    0.2170    0.0100 C   0  0  0  0  0  0  0  0  0  0  0  0
    0.1080   -0.2410    1.8010 Br  0  0  0  0  0  0  0  0  0  0  0  0
    0.6220    0.3350   -1.0950 C   0  0  0  0  0  0  0  0  0  0  0  0
    1.9120    0.1670   -1.1370 C   0  0  0  0  0  0  0  0  0  0  0  0
    2.6450    0.3470   -2.4170 C   0  0  0  0  0  0  0  0  0  0  0  0
    3.9440    0.2060   -2.5290 C   0  0  0  0  0  0  0  0  0  0  0  0
    4.6180    0.3900   -3.7860 N   0  0  0  0  0  0  0  0  0  0  0  0
    4.6370   -0.1280   -1.3770 O   0  0  0  0  0  0  0  0  0  0  0  0
    4.0530   -0.3110   -0.1690 C   0  0  0  0  0  0  0  0  0  0  0  0
    4.8570   -0.6670    1.0180 C   0  0  0  0  0  0  0  0  0  0  0  0
    4.0890   -0.8260    2.2170 N   0  0  0  0  0  0  0  0  0  0  0  0
    2.7280   -0.1790   -0.0070 C   0  0  0  0  0  0  0  0  0  0  0  0
  1  2  1  0
  2  3  1  0
  3  4  2  0
  3  8  1  0
  4  5  1  0
  5  6  2  0
  6  7  1  0
  7  8  2  0
  8  9  1  0
  9 10  2  3
 10 11  1  0
 10 12  1  0
 12 13  2  3
 13 14  1  0
 13 21  1  0
 14 15  2  0
 15 16  1  0
 15 17  1  0
 17 18  1  0
 18 19  1  0
 18 21  2  0
 19 20  1  0
M  CHG  1  20   1
M  END
