
     RDKit          3D

 21 23  0  0  0  0  0  0  0  0999 V2000
    6.6230    0.9320   -0.4670 N   0  0  0  0  0  0  0  0  0  0  0  0
    5.2200    1.0440   -0.2970 C   0  0  0  0  0  0  0  0  0  0  0  0
    4.6310    2.3090   -0.2960 C   0  0  0  0  0  0  0  0  0  0  0  0
    3.2670    2.4000   -0.1290 C   0  0  0  0  0  0  0  0  0  0  0  0
    2.5180    1.2440    0.0320 C   0  0  0  0  0  0  0  0  0  0  0  0
    1.1500    1.3090    0.2000 C   0  0  0  0  0  0  0  0  0  0  0  0
    0.3680    0.1830    0.3640 C   0  0  0  0  0  0  0  0  0  0  0  0
   -0.9670    0.2460    0.5280 N   0  0  0  0  0  0  0  0  0  0  0  0
   -1.7360   -0.8590    0.6890 C   0  0  0  0  0  0  0  0  0  0  0  0
   -3.2060   -0.6720    0.8630 C   0  0  0  0  0  0  0  0  0  0  0  0
   -3.7920   -0.7000   -0.4710 N   0  0  0  0  0  0  0  0  0  0  0  0
   -5.2400   -0.7760   -0.3530 C   0  0  0  0  0  0  0  0  0  0  0  0
   -5.7390    0.6460   -0.2010 C   0  0  0  0  0  0  0  0  0  0  0  0
   -5.2040    1.6370   -1.7750 Br  0  0  0  0  0  0  0  0  0  0  0  0
   -1.1710   -2.0810    0.6890 N   0  0  0  0  0  0  0  0  0  0  0  0
    0.1590   -2.2050    0.5290 C   0  0  0  0  0  0  0  0  0  0  0  0
    0.6970   -3.3490    0.5270 O   0  0  0  0  0  0  0  0  0  0  0  0
    0.9440   -1.0720    0.3640 C   0  0  0  0  0  0  0  0  0  0  0  0
    2.3100   -1.1480    0.1970 C   0  0  0  0  0  0  0  0  0  0  0  0
    3.0950   -0.0130    0.0320 C   0  0  0  0  0  0  0  0  0  0  0  0
    4.4490   -0.0890   -0.1340 C   0  0  0  0  0  0  0  0  0  0  0  0
  1  2  1  0
  2  3  2  0
  2 21  1  0
  3  4  1  0
  4  5  2  0
  5  6  1  0
  5 20  1  0
  6  7  2  0
  7  8  1  0
  7 18  1  0
  8  9  2  0
  9 10  1  0
  9 15  1  0
 10 11  1  0
 11 12  1  0
 12 13  1  0
 13 14  1  0
 15 16  1  0
 16 17  2  0
 16 18  1  0
 18 19  2  0
 19 20  1  0
 20 21  2  0
M  CHG  1  11   1
M  END
