
     RDKit          3D

 21 23  0  0  0  0  0  0  0  0999 V2000
    4.3250   -1.0560    0.4890 C   0  0  0  0  0  0  0  0  0  0  0  0
    2.8870   -1.2300    0.2260 C   0  0  0  0  0  0  0  0  0  0  0  0
    2.0890   -0.1090    0.2060 C   0  0  0  0  0  0  0  0  0  0  0  0
    0.7610   -0.3020   -0.0450 C   0  0  0  0  0  0  0  0  0  0  0  0
    0.1940   -1.5480   -0.2640 C   0  0  0  0  0  0  0  0  0  0  0  0
    1.0160   -2.6500   -0.2380 C   0  0  0  0  0  0  0  0  0  0  0  0
    2.3610   -2.5020    0.0040 C   0  0  0  0  0  0  0  0  0  0  0  0
    3.4580   -4.0600    0.0260 Br  0  0  0  0  0  0  0  0  0  0  0  0
   -1.2110   -1.8790   -0.3790 N   0  0  0  0  0  0  0  0  0  0  0  0
   -2.1980   -1.1430    0.0660 C   0  0  0  0  0  0  0  0  0  0  0  0
   -3.5110   -1.7000   -0.1670 C   0  0  0  0  0  0  0  0  0  0  0  0
   -4.6760   -1.0350    0.2500 N   0  0  0  0  0  0  0  0  0  0  0  0
   -3.6560   -2.8030   -0.7530 O   0  0  0  0  0  0  0  0  0  0  0  0
   -2.1970    0.1340    0.7100 N   0  0  0  0  0  0  0  0  0  0  0  0
   -1.2640    1.1950    0.3920 C   0  0  0  0  0  0  0  0  0  0  0  0
   -1.7820    2.4400    0.4320 C   0  0  0  0  0  0  0  0  0  0  0  0
   -1.0000    3.4880   -0.0110 C   0  0  0  0  0  0  0  0  0  0  0  0
    0.2710    3.2720   -0.4830 C   0  0  0  0  0  0  0  0  0  0  0  0
    0.8310    1.9830   -0.5330 C   0  0  0  0  0  0  0  0  0  0  0  0
    2.0600    1.7610   -1.1720 N   0  0  0  0  0  0  0  0  0  0  0  0
    0.0490    0.9730   -0.0850 C   0  0  0  0  0  0  0  0  0  0  0  0
  1  2  1  0
  2  3  2  0
  2  7  1  0
  3  4  1  0
  4  5  2  0
  4 21  1  0
  5  6  1  0
  5  9  1  0
  6  7  2  0
  7  8  1  0
  9 10  2  0
 10 11  1  0
 10 14  1  0
 11 12  1  0
 11 13  2  0
 14 15  1  0
 15 16  2  0
 15 21  1  0
 16 17  1  0
 17 18  2  0
 18 19  1  0
 19 20  1  0
 19 21  2  0
M  CHG  1  12   1
M  END
