
     RDKit          3D

 21 23  0  0  0  0  0  0  0  0999 V2000
   -1.8370   -2.8270   -0.6660 C   0  0  0  0  0  0  0  0  0  0  0  0
   -2.5140   -1.7900   -0.2280 C   0  0  0  0  0  0  0  0  0  0  0  0
   -3.8760   -2.2550    0.1760 N   0  0  0  0  0  0  0  0  0  0  0  0
   -2.1520   -0.4540    0.0450 C   0  0  0  0  0  0  0  0  0  0  0  0
   -3.1320    0.4380    0.3890 C   0  0  0  0  0  0  0  0  0  0  0  0
   -4.5310    0.4660    0.5710 C   0  0  0  0  0  0  0  0  0  0  0  0
   -5.0140    0.8820    2.4430 Br  0  0  0  0  0  0  0  0  0  0  0  0
   -0.8490    0.1840   -0.0050 C   0  0  0  0  0  0  0  0  0  0  0  0
    0.4050    0.0080   -0.1310 C   0  0  0  0  0  0  0  0  0  0  0  0
    1.1210   -1.1160   -0.2860 N   0  0  0  0  0  0  0  0  0  0  0  0
    2.4590   -1.1930   -0.5100 C   0  0  0  0  0  0  0  0  0  0  0  0
    3.0410   -2.2990   -0.6460 O   0  0  0  0  0  0  0  0  0  0  0  0
    3.1910   -0.0380   -0.5910 C   0  0  0  0  0  0  0  0  0  0  0  0
    4.5570   -0.0270   -0.8160 C   0  0  0  0  0  0  0  0  0  0  0  0
    5.1600    1.2210   -0.8710 C   0  0  0  0  0  0  0  0  0  0  0  0
    4.4300    2.3870   -0.7090 C   0  0  0  0  0  0  0  0  0  0  0  0
    3.0770    2.3220   -0.4880 C   0  0  0  0  0  0  0  0  0  0  0  0
    2.0670    3.2390   -0.2890 C   0  0  0  0  0  0  0  0  0  0  0  0
    0.9550    2.5060   -0.1320 N   0  0  0  0  0  0  0  0  0  0  0  0
    1.2000    1.1980   -0.2190 C   0  0  0  0  0  0  0  0  0  0  0  0
    2.5110    1.1070   -0.4380 N   0  0  0  0  0  0  0  0  0  0  0  0
  1  2  2  0
  2  3  1  0
  2  4  1  0
  4  5  2  3
  4  8  1  0
  5  6  1  0
  6  7  1  0
  8  9  2  3
  9 10  1  0
  9 20  1  0
 10 11  1  0
 11 12  2  0
 11 13  1  0
 13 14  2  0
 13 21  1  0
 14 15  1  0
 15 16  2  0
 16 17  1  0
 17 18  2  0
 17 21  1  0
 18 19  1  0
 19 20  2  0
 20 21  1  0
M  CHG  1   3   1
M  END
