
     RDKit          3D

 20 22  0  0  0  0  0  0  0  0999 V2000
   -6.2640   -2.1710   -1.0810 N   0  0  0  0  0  0  0  0  0  0  0  0
   -5.3280   -1.1250   -0.8390 C   0  0  0  0  0  0  0  0  0  0  0  0
   -4.2360   -1.2970   -0.0200 C   0  0  0  0  0  0  0  0  0  0  0  0
   -3.3420   -0.2790    0.1860 C   0  0  0  0  0  0  0  0  0  0  0  0
   -3.5030    0.9970   -0.4340 C   0  0  0  0  0  0  0  0  0  0  0  0
   -4.6180    1.1400   -1.2570 C   0  0  0  0  0  0  0  0  0  0  0  0
   -5.4850    0.1090   -1.4400 C   0  0  0  0  0  0  0  0  0  0  0  0
   -7.0380    0.3000   -2.5800 Br  0  0  0  0  0  0  0  0  0  0  0  0
   -2.3600    0.8040    0.4280 C   0  0  2  0  0  0  0  0  0  0  0  0
   -1.0370    0.5390   -0.1140 N   0  0  0  0  0  0  0  0  0  0  0  0
    0.1280    0.8420    0.6300 C   0  0  0  0  0  0  0  0  0  0  0  0
   -0.0450    1.3670    1.7810 O   0  0  0  0  0  0  0  0  0  0  0  0
    1.4540    0.5990    0.1790 N   0  0  0  0  0  0  0  0  0  0  0  0
    2.5310    0.9700    1.0690 C   0  0  0  0  0  0  0  0  0  0  0  0
    3.8360    0.4380    0.6990 C   0  0  0  0  0  0  0  0  0  0  0  0
    4.1640   -0.8680    1.0320 C   0  0  0  0  0  0  0  0  0  0  0  0
    5.4170   -1.3390    0.6750 C   0  0  0  0  0  0  0  0  0  0  0  0
    6.2840   -0.5730    0.0340 N   0  0  0  0  0  0  0  0  0  0  0  0
    5.9810    0.7160   -0.3040 C   0  0  0  0  0  0  0  0  0  0  0  0
    4.7500    1.1960    0.0410 C   0  0  0  0  0  0  0  0  0  0  0  0
  1  2  1  0
  2  3  2  0
  2  7  1  0
  3  4  1  0
  4  5  2  0
  4  9  1  0
  5  6  1  0
  5  9  1  0
  6  7  2  0
  7  8  1  0
  9 10  1  6
 10 11  1  0
 11 12  2  0
 11 13  1  0
 13 14  1  0
 14 15  1  0
 15 16  2  0
 15 20  1  0
 16 17  1  0
 17 18  2  0
 18 19  1  0
 19 20  2  0
M  CHG  1  18   1
M  END
