
     RDKit          3D

  9  8  0  0  0  0  0  0  0  0999 V2000
    2.3490    1.2370   -0.3380 C   0  0  0  0  0  0  0  0  0  0  0  0
    2.2170   -0.0290   -1.1040 C   0  0  0  0  0  0  0  0  0  0  0  0
    1.3310   -0.9610   -0.7970 C   0  0  0  0  0  0  0  0  0  0  0  0
    1.2510   -2.4150   -1.7540 Cl  0  0  0  0  0  0  0  0  0  0  0  0
    0.3860   -0.8020    0.3590 C   0  0  2  0  0  0  0  0  0  0  0  0
    0.5910   -1.8430    1.2860 O   0  0  0  0  0  0  0  0  0  0  0  0
   -0.9330   -0.8930   -0.0520 O   0  0  0  0  0  0  0  0  0  0  0  0
   -1.6120    0.3150    0.2270 C   0  0  0  0  0  0  0  0  0  0  0  0
   -3.0530    0.2280   -0.2180 C   0  0  0  0  0  0  0  0  0  0  0  0
  1  2  1  0
  2  3  2  3
  3  4  1  0
  3  5  1  0
  5  6  1  1
  5  7  1  0
  7  8  1  0
  8  9  1  0
M  END
