
     RDKit          3D

  9  8  0  0  0  0  0  0  0  0999 V2000
   -2.1860   -0.7820   -0.9730 C   0  0  0  0  0  0  0  0  0  0  0  0
   -1.5730    0.2170   -0.3560 C   0  0  0  0  0  0  0  0  0  0  0  0
   -2.3450    1.2140    0.2120 O   0  0  0  0  0  0  0  0  0  0  0  0
   -0.1360    0.3110   -0.2510 C   0  0  0  0  0  0  0  0  0  0  0  0
    0.4170    1.3210    0.3710 C   0  0  0  0  0  0  0  0  0  0  0  0
    1.8850    1.4890    0.5220 C   0  0  0  0  0  0  0  0  0  0  0  0
    2.3550    1.5320    2.2410 Cl  0  0  0  0  0  0  0  0  0  0  0  0
    0.6540   -0.6600   -0.8020 O   0  0  0  0  0  0  0  0  0  0  0  0
    0.9790   -1.8910   -0.2500 C   0  0  0  0  0  0  0  0  0  0  0  0
  1  2  2  0
  2  3  1  0
  2  4  1  0
  4  5  2  3
  4  8  1  0
  5  6  1  0
  6  7  1  0
  8  9  1  0
M  END
