
     RDKit          3D

  9  8  0  0  0  0  0  0  0  0999 V2000
   -1.5940    2.2540    0.3600 O   0  0  0  0  0  0  0  0  0  0  0  0
   -2.0450    0.9700    0.2440 C   0  0  0  0  0  0  0  0  0  0  0  0
   -1.2910   -0.0820    0.0270 C   0  0  0  0  0  0  0  0  0  0  0  0
    0.1370    0.0460   -0.1100 C   0  0  0  0  0  0  0  0  0  0  0  0
    1.3290    0.1630   -0.2150 C   0  0  0  0  0  0  0  0  0  0  0  0
    2.7710    0.3040   -0.3220 C   0  0  0  0  0  0  0  0  0  0  0  0
    3.3320   -0.9360    0.0630 O   0  0  0  0  0  0  0  0  0  0  0  0
   -1.8500   -1.4530   -0.0880 C   0  0  0  0  0  0  0  0  0  0  0  0
   -1.1730   -2.5320    1.1610 Cl  0  0  0  0  0  0  0  0  0  0  0  0
  1  2  1  0
  2  3  2  3
  3  4  1  0
  3  8  1  0
  4  5  3  0
  5  6  1  0
  6  7  1  0
  8  9  1  0
M  END
