
     RDKit          3D

 16 17  0  0  0  0  0  0  0  0999 V2000
    3.4420    1.8770   -0.1840 C   0  0  0  0  0  0  0  0  0  0  0  0
    3.0470    0.4410   -1.2370 S   0  0  0  0  0  0  0  0  0  0  0  0
    2.5720   -0.9690   -0.1420 C   0  0  0  0  0  0  0  0  0  0  0  0
    3.4450   -1.8160    0.3100 N   0  0  0  0  0  0  0  0  0  0  0  0
    3.0040   -2.8250    1.1120 C   0  0  0  0  0  0  0  0  0  0  0  0
    3.6740   -3.7760    1.6750 O   0  0  0  0  0  0  0  0  0  0  0  0
    1.2370   -2.5530    1.2310 S   0  0  0  0  0  0  0  0  0  0  0  0
    1.2620   -1.0850    0.1740 C   0  0  0  0  0  0  0  0  0  0  0  0
    0.1280   -0.3310   -0.1650 N   0  0  0  0  0  0  0  0  0  0  0  0
   -1.1740   -0.6510    0.2950 C   0  0  0  0  0  0  0  0  0  0  0  0
   -1.2780   -1.6610    1.0370 O   0  0  0  0  0  0  0  0  0  0  0  0
   -2.3550    0.1140   -0.0440 C   0  0  0  0  0  0  0  0  0  0  0  0
   -2.4590    1.2000   -0.8040 C   0  0  0  0  0  0  0  0  0  0  0  0
   -3.8750    1.6380   -0.8670 C   0  0  0  0  0  0  0  0  0  0  0  0
   -4.4530    0.9800    0.2220 O   0  0  0  0  0  0  0  0  0  0  0  0
   -3.7380   -0.1800    0.4120 C   0  0  0  0  0  0  0  0  0  0  0  0
  1  2  1  0
  2  3  1  0
  3  4  1  0
  3  8  2  0
  4  5  1  0
  5  6  2  0
  5  7  1  0
  7  8  1  0
  8  9  1  0
  9 10  1  0
 10 11  2  0
 10 12  1  0
 12 13  2  0
 12 16  1  0
 13 14  1  0
 14 15  1  0
 15 16  1  0
M  END
