
     RDKit          3D

  9  8  0  0  0  0  0  0  0  0999 V2000
    1.3950    1.1460    1.6590 C   0  0  0  0  0  0  0  0  0  0  0  0
    0.6390    0.1140    1.1000 O   0  0  0  0  0  0  0  0  0  0  0  0
    0.7080    0.2650   -0.2780 C   0  0  0  0  0  0  0  0  0  0  0  0
   -0.0310   -0.7330   -1.0530 C   0  0  0  0  0  0  0  0  0  0  0  0
   -1.4450   -0.9400   -0.9620 C   0  0  0  0  0  0  0  0  0  0  0  0
   -2.2540   -0.2720   -0.1940 C   0  0  0  0  0  0  0  0  0  0  0  0
   -1.7750    0.7310    0.6220 O   0  0  0  0  0  0  0  0  0  0  0  0
    0.6850   -1.4930   -1.9030 C   0  0  0  0  0  0  0  0  0  0  0  0
    2.3960   -1.3110   -2.0810 Cl  0  0  0  0  0  0  0  0  0  0  0  0
  1  2  1  0
  2  3  1  0
  3  4  1  0
  4  5  1  0
  4  8  2  3
  5  6  2  3
  6  7  1  0
  8  9  1  0
M  END
