
     RDKit          3D

 16 16  0  0  0  0  0  0  0  0999 V2000
    6.1350   -0.5290   -0.3920 C   0  0  0  0  0  0  0  0  0  0  0  0
    5.6260    0.8760   -1.4150 S   0  0  0  0  0  0  0  0  0  0  0  0
    3.8550    0.8750   -1.5730 C   0  0  0  0  0  0  0  0  0  0  0  0
    3.3160    1.7740   -2.2500 O   0  0  0  0  0  0  0  0  0  0  0  0
    3.0980   -0.1410   -0.9310 N   0  0  0  0  0  0  0  0  0  0  0  0
    1.7150   -0.1990   -1.0150 N   0  0  0  0  0  0  0  0  0  0  0  0
    0.8490    0.0720    0.0810 C   0  0  0  0  0  0  0  0  0  0  0  0
    1.3720    0.3810    1.1760 O   0  0  0  0  0  0  0  0  0  0  0  0
   -0.6130   -0.0330   -0.1570 C   0  0  0  0  0  0  0  0  0  0  0  0
   -1.3550    0.2630    0.9890 O   0  0  0  0  0  0  0  0  0  0  0  0
   -2.7600    0.1980    0.9730 C   0  0  0  0  0  0  0  0  0  0  0  0
   -3.4390    0.5420   -0.0760 C   0  0  0  0  0  0  0  0  0  0  0  0
   -4.8710    0.5650   -0.3390 C   0  0  0  0  0  0  0  0  0  0  0  0
   -5.7940    0.0010    1.0900 S   0  0  0  0  0  0  0  0  0  0  0  0
   -4.6560   -0.4050    2.3780 C   0  0  0  0  0  0  0  0  0  0  0  0
   -3.3660   -0.2850    2.2260 C   0  0  0  0  0  0  0  0  0  0  0  0
  1  2  1  0
  2  3  1  0
  3  4  2  0
  3  5  1  0
  5  6  1  0
  6  7  1  0
  7  8  2  0
  7  9  1  0
  9 10  1  0
 10 11  1  0
 11 12  2  0
 11 16  1  0
 12 13  1  0
 13 14  1  0
 14 15  1  0
 15 16  2  0
M  END
