
     RDKit          3D

 24 26  0  0  0  0  0  0  0  0999 V2000
   -6.4670    1.1550    1.1740 N   0  0  0  0  0  0  0  0  0  0  0  0
   -5.6450    0.3980    0.3110 C   0  0  0  0  0  0  0  0  0  0  0  0
   -6.1990   -0.3050   -0.5940 N   0  0  0  0  0  0  0  0  0  0  0  0
   -4.2070    0.4270    0.4610 C   0  0  0  0  0  0  0  0  0  0  0  0
   -3.6470    1.2180    1.4740 C   0  0  0  0  0  0  0  0  0  0  0  0
   -2.2910    1.2860    1.6660 C   0  0  0  0  0  0  0  0  0  0  0  0
   -1.3970    0.5810    0.8730 C   0  0  0  0  0  0  0  0  0  0  0  0
   -0.0740    0.4480    0.8150 N   0  0  0  0  0  0  0  0  0  0  0  0
    0.2890   -0.3840   -0.1760 C   0  0  0  0  0  0  0  0  0  0  0  0
    1.6590   -0.7310   -0.4920 C   0  0  0  0  0  0  0  0  0  0  0  0
    2.7230   -0.2000    0.2430 C   0  0  0  0  0  0  0  0  0  0  0  0
    4.0390   -0.4790    0.0050 C   0  0  0  0  0  0  0  0  0  0  0  0
    5.1400    0.1150    0.8210 C   0  0  0  0  0  0  0  0  0  0  0  0
    5.6080    1.3960    0.2470 C   0  0  0  0  0  0  0  0  0  0  0  0
    5.0740    1.8360   -0.8010 O   0  0  0  0  0  0  0  0  0  0  0  0
    6.6210    2.1390    0.8210 O   0  0  0  0  0  0  0  0  0  0  0  0
    4.3520   -1.3390   -1.0240 C   0  0  0  0  0  0  0  0  0  0  0  0
    3.3380   -1.9020   -1.7940 C   0  0  0  0  0  0  0  0  0  0  0  0
    3.7670   -3.0950   -3.2220 Br  0  0  0  0  0  0  0  0  0  0  0  0
    2.0220   -1.5850   -1.5100 C   0  0  0  0  0  0  0  0  0  0  0  0
    1.0650   -2.1700   -2.3030 O   0  0  0  0  0  0  0  0  0  0  0  0
   -0.8750   -0.7880   -0.7640 C   0  0  0  0  0  0  0  0  0  0  0  0
   -1.9600   -0.1880   -0.1140 C   0  0  0  0  0  0  0  0  0  0  0  0
   -3.3250   -0.2720   -0.3260 C   0  0  0  0  0  0  0  0  0  0  0  0
  1  2  1  0
  2  3  2  0
  2  4  1  0
  4  5  2  0
  4 24  1  0
  5  6  1  0
  6  7  2  0
  7  8  1  0
  7 23  1  0
  8  9  1  0
  9 10  1  0
  9 22  2  0
 10 11  2  0
 10 20  1  0
 11 12  1  0
 12 13  1  0
 12 17  2  0
 13 14  1  0
 14 15  2  0
 14 16  1  0
 17 18  1  0
 18 19  1  0
 18 20  2  0
 20 21  1  0
 22 23  1  0
 23 24  2  0
M  CHG  1   3   1
M  END
