
     RDKit          3D

  9  8  0  0  0  0  0  0  0  0999 V2000
   -3.1410   -0.5100   -0.1410 C   0  0  0  0  0  0  0  0  0  0  0  0
   -1.8960    0.1890    0.2600 C   0  0  0  0  0  0  0  0  0  0  0  0
   -1.8900    1.3200    1.0570 O   0  0  0  0  0  0  0  0  0  0  0  0
   -0.7520   -0.3040   -0.1720 C   0  0  0  0  0  0  0  0  0  0  0  0
    0.5040    0.3440    0.1910 C   0  0  0  0  0  0  0  0  0  0  0  0
    0.4170    1.7690    1.2020 Cl  0  0  0  0  0  0  0  0  0  0  0  0
    1.6260   -0.1570   -0.2450 C   0  0  0  0  0  0  0  0  0  0  0  0
    2.9540    0.4320    0.0710 C   0  0  0  0  0  0  0  0  0  0  0  0
    3.6780   -0.5570    0.7420 O   0  0  0  0  0  0  0  0  0  0  0  0
  1  2  1  0
  2  3  1  0
  2  4  2  3
  4  5  1  0
  5  6  1  0
  5  7  2  3
  7  8  1  0
  8  9  1  0
M  END
