
     RDKit          3D

 27 29  0  0  0  0  0  0  0  0999 V2000
    3.5260    2.4450   -1.5030 C   0  0  0  0  0  0  0  0  0  0  0  0
    2.9760    1.0980   -1.3100 N   0  0  0  0  0  0  0  0  0  0  0  0
    3.8630   -0.0240   -1.4320 C   0  0  0  0  0  0  0  0  0  0  0  0
    4.4760   -0.2810   -0.0770 C   0  0  0  0  0  0  0  0  0  0  0  0
    5.7650   -0.2320    0.1390 C   0  0  0  0  0  0  0  0  0  0  0  0
    6.0260   -0.5290    1.5530 C   0  0  0  0  0  0  0  0  0  0  0  0
    4.6810   -0.7560    2.1140 C   0  0  0  0  0  0  0  0  0  0  0  0
    3.8020   -0.6070    1.1520 C   0  0  0  0  0  0  0  0  0  0  0  0
    1.5960    1.0110   -1.0050 C   0  0  0  0  0  0  0  0  0  0  0  0
    0.9160    2.0590   -0.9030 O   0  0  0  0  0  0  0  0  0  0  0  0
    0.9030   -0.2100   -0.8000 N   0  0  0  0  0  0  0  0  0  0  0  0
   -0.5140   -0.2400   -0.4910 C   0  0  0  0  0  0  0  0  0  0  0  0
   -1.0320   -1.4680   -0.3240 N   0  0  0  0  0  0  0  0  0  0  0  0
   -2.2810   -1.7840   -0.0390 C   0  0  0  0  0  0  0  0  0  0  0  0
   -2.7130   -3.1230    0.1140 N   0  0  0  0  0  0  0  0  0  0  0  0
   -4.0550   -3.4470    0.4200 C   0  0  0  0  0  0  0  0  0  0  0  0
   -4.4070   -4.8040    0.5560 N   0  0  0  0  0  0  0  0  0  0  0  0
   -4.9410   -2.5420    0.5720 O   0  0  0  0  0  0  0  0  0  0  0  0
   -3.3290   -0.4350    0.1290 S   0  0  0  0  0  0  0  0  0  0  0  0
   -2.5050    1.0370   -0.1150 C   0  0  0  0  0  0  0  0  0  0  0  0
   -3.0310    2.2130   -0.0530 N   0  0  0  0  0  0  0  0  0  0  0  0
   -4.4640    2.3410    0.2530 C   0  0  0  0  0  0  0  0  0  0  0  0
   -4.9830    3.0370    1.2620 C   0  0  0  0  0  0  0  0  0  0  0  0
   -6.2950    3.1210    1.4950 C   0  0  0  0  0  0  0  0  0  0  0  0
   -7.0440    2.0810    0.1260 S   0  0  0  0  0  0  0  0  0  0  0  0
   -5.3930    1.6680   -0.5940 C   0  0  0  0  0  0  0  0  0  0  0  0
   -1.2090    0.8970   -0.3910 N   0  0  0  0  0  0  0  0  0  0  0  0
  1  2  1  0
  2  3  1  0
  2  9  1  0
  3  4  1  0
  4  5  2  0
  4  8  1  0
  5  6  1  0
  6  7  1  0
  7  8  2  0
  9 10  2  0
  9 11  1  0
 11 12  1  0
 12 13  1  0
 12 27  2  0
 13 14  2  0
 14 15  1  0
 14 19  1  0
 15 16  1  0
 16 17  1  0
 16 18  2  0
 19 20  1  0
 20 21  2  3
 20 27  1  0
 21 22  1  0
 22 23  1  0
 22 26  2  0
 23 24  2  0
 24 25  1  0
 25 26  1  0
M  END
