
     RDKit          3D

 27 29  0  0  0  0  0  0  0  0999 V2000
    3.8520    5.1360    0.1820 C   0  0  0  0  0  0  0  0  0  0  0  0
    3.4090    3.7260    0.1680 C   0  0  0  0  0  0  0  0  0  0  0  0
    2.3100    3.3670   -0.3290 O   0  0  0  0  0  0  0  0  0  0  0  0
    4.2650    2.7480    0.7400 N   0  0  0  0  0  0  0  0  0  0  0  0
    3.9360    1.3790    0.7800 C   0  0  0  0  0  0  0  0  0  0  0  0
    4.4290    0.2670    1.1880 N   0  0  0  0  0  0  0  0  0  0  0  0
    3.8930   -0.8370    1.0860 N   0  0  0  0  0  0  0  0  0  0  0  0
    2.7190   -1.0400    0.5360 C   0  0  0  0  0  0  0  0  0  0  0  0
    1.8310   -2.1540    0.2590 C   0  0  2  0  0  0  0  0  0  0  0  0
    1.8470   -2.5920   -1.2160 C   0  0  0  0  0  0  0  0  0  0  0  0
    0.4330   -1.9320    0.5730 N   0  0  0  0  0  0  0  0  0  0  0  0
   -0.4700   -3.0230    0.4890 C   0  0  0  0  0  0  0  0  0  0  0  0
   -0.0780   -4.2260    0.1930 N   0  0  0  0  0  0  0  0  0  0  0  0
   -1.1740   -5.1250    0.1760 C   0  0  0  0  0  0  0  0  0  0  0  0
   -2.2890   -4.4880    0.4660 C   0  0  0  0  0  0  0  0  0  0  0  0
   -1.8940   -3.0720    0.6880 C   0  0  0  0  0  0  0  0  0  0  0  0
   -2.6930   -2.1160    0.9910 N   0  0  0  0  0  0  0  0  0  0  0  0
   -2.3680   -0.7900    1.2030 N   0  0  0  0  0  0  0  0  0  0  0  0
   -2.6820    0.2420    0.2590 C   0  0  0  0  0  0  0  0  0  0  0  0
   -2.3580    1.5630    0.4660 C   0  0  0  0  0  0  0  0  0  0  0  0
   -2.6850    2.5270   -0.4820 C   0  0  0  0  0  0  0  0  0  0  0  0
   -3.3430    2.2080   -1.6590 C   0  0  0  0  0  0  0  0  0  0  0  0
   -3.7480    3.4700   -2.8660 S   0  0  0  0  0  0  0  0  0  0  0  0
   -3.6660    0.8830   -1.8600 C   0  0  0  0  0  0  0  0  0  0  0  0
   -3.3390   -0.0710   -0.9170 C   0  0  0  0  0  0  0  0  0  0  0  0
   -3.6640   -1.4070   -1.1170 O   0  0  0  0  0  0  0  0  0  0  0  0
    2.3260    0.7310    0.0810 S   0  0  0  0  0  0  0  0  0  0  0  0
  1  2  1  0
  2  3  2  0
  2  4  1  0
  4  5  1  0
  5  6  2  0
  5 27  1  0
  6  7  1  0
  7  8  2  0
  8  9  1  0
  8 27  1  0
  9 10  1  6
  9 11  1  0
 11 12  1  0
 12 13  2  0
 12 16  1  0
 13 14  1  0
 14 15  2  0
 15 16  1  0
 16 17  2  3
 17 18  1  0
 18 19  1  0
 19 20  2  0
 19 25  1  0
 20 21  1  0
 21 22  2  0
 22 23  1  0
 22 24  1  0
 24 25  2  0
 25 26  1  0
M  END
