
     RDKit          3D

 27 29  0  0  0  0  0  0  0  0999 V2000
    7.4300   -2.4880   -0.4750 C   0  0  0  0  0  0  0  0  0  0  0  0
    6.1230   -2.3820   -0.6720 C   0  0  0  0  0  0  0  0  0  0  0  0
    5.3940   -1.2500   -0.1780 C   0  0  0  0  0  0  0  0  0  0  0  0
    4.0940   -1.1350   -0.3680 C   0  0  0  0  0  0  0  0  0  0  0  0
    3.2810   -2.1010   -1.0700 C   0  0  0  0  0  0  0  0  0  0  0  0
    1.9970   -1.9000   -1.2260 C   0  0  0  0  0  0  0  0  0  0  0  0
    1.2750   -0.7450   -0.7390 C   0  0  1  0  0  0  0  0  0  0  0  0
   -0.0620   -1.0770   -0.1340 C   0  0  0  0  0  0  0  0  0  0  0  0
   -0.1650   -1.0420    1.3340 C   0  0  0  0  0  0  0  0  0  0  0  0
   -1.5410   -1.1250    1.8700 C   0  0  0  0  0  0  0  0  0  0  0  0
   -2.6580   -1.3460    0.9050 C   0  0  0  0  0  0  0  0  0  0  0  0
   -3.7920   -0.4550    1.0720 N   0  0  0  0  0  0  0  0  0  0  0  0
   -4.3060    0.4540    0.1060 C   0  0  0  0  0  0  0  0  0  0  0  0
   -5.6320    0.2720   -0.2460 N   0  0  0  0  0  0  0  0  0  0  0  0
   -6.2700    1.0320   -1.1370 C   0  0  0  0  0  0  0  0  0  0  0  0
   -5.6210    2.0680   -1.7710 C   0  0  0  0  0  0  0  0  0  0  0  0
   -4.3080    2.2650   -1.4370 C   0  0  0  0  0  0  0  0  0  0  0  0
   -3.6340    1.4690   -0.4990 C   0  0  0  0  0  0  0  0  0  0  0  0
   -2.2300    1.8810   -0.2640 C   0  0  0  0  0  0  0  0  0  0  0  0
   -1.5330    1.9980   -1.4920 N   0  0  0  0  0  0  0  0  0  0  0  0
    0.0090    2.6970   -1.4070 S   0  0  2  0  0  0  0  0  0  0  0  0
   -0.2170    4.2080   -1.6380 O   0  0  0  0  0  0  0  0  0  0  0  0
    0.8980    2.3050   -2.5490 O   0  0  0  0  0  0  0  0  0  0  0  0
    0.7900    2.4260    0.1040 C   0  0  0  0  0  0  0  0  0  0  0  0
    1.5420    1.4870    0.5460 C   0  0  0  0  0  0  0  0  0  0  0  0
    2.0600    0.2450   -0.0340 C   0  0  0  0  0  0  0  0  0  0  0  0
    3.3560    0.0440    0.1290 C   0  0  0  0  0  0  0  0  0  0  0  0
  1  2  2  0
  2  3  1  0
  3  4  2  3
  4  5  1  0
  4 27  1  0
  5  6  2  0
  6  7  1  0
  7  8  1  1
  7 26  1  0
  8  9  1  0
  9 10  1  0
 10 11  1  0
 11 12  1  0
 12 13  1  0
 13 14  2  0
 13 18  1  0
 14 15  1  0
 15 16  2  0
 16 17  1  0
 17 18  2  0
 18 19  1  0
 19 20  1  0
 21 20  1  1
 21 22  2  0
 21 23  2  0
 21 24  1  0
 24 25  2  0
 25 26  1  0
 26 27  2  0
M  END
