
     RDKit          3D

 27 29  0  0  0  0  0  0  0  0999 V2000
    7.6410    3.9290   -0.2740 C   0  0  0  0  0  0  0  0  0  0  0  0
    6.7490    2.9230   -0.2450 C   0  0  0  0  0  0  0  0  0  0  0  0
    7.1870    1.5650   -0.4710 C   0  0  0  0  0  0  0  0  0  0  0  0
    6.4370    0.5120   -0.4700 C   0  0  0  0  0  0  0  0  0  0  0  0
    5.0020    0.4440   -0.2460 C   0  0  0  0  0  0  0  0  0  0  0  0
    4.2220   -0.6880   -0.2480 C   0  0  0  0  0  0  0  0  0  0  0  0
    2.9460   -0.5860   -0.0300 C   0  0  0  0  0  0  0  0  0  0  0  0
    1.9670   -1.6590    0.0070 N   0  0  0  0  0  0  0  0  0  0  0  0
    0.6100   -1.4220    0.2530 C   0  0  0  0  0  0  0  0  0  0  0  0
    0.1640   -0.2720    0.4540 O   0  0  0  0  0  0  0  0  0  0  0  0
   -0.2830   -2.5490    0.2690 N   0  0  0  0  0  0  0  0  0  0  0  0
   -1.6480   -2.2790    0.5190 N   0  0  0  0  0  0  0  0  0  0  0  0
   -2.5890   -3.3410    0.5350 C   0  0  0  0  0  0  0  0  0  0  0  0
   -2.1360   -4.5000    0.3240 O   0  0  0  0  0  0  0  0  0  0  0  0
   -4.0210   -3.1060    0.7870 C   0  0  0  0  0  0  0  0  0  0  0  0
   -4.3270   -1.7100    0.9680 N   0  0  0  0  0  0  0  0  0  0  0  0
   -4.2310   -0.7560   -0.0710 C   0  0  0  0  0  0  0  0  0  0  0  0
   -3.8580   -1.1830   -1.2880 N   0  0  0  0  0  0  0  0  0  0  0  0
   -3.7550   -0.3520   -2.3220 C   0  0  0  0  0  0  0  0  0  0  0  0
   -4.0350    0.9310   -2.1070 N   0  0  0  0  0  0  0  0  0  0  0  0
   -4.4220    1.4350   -0.8840 C   0  0  0  0  0  0  0  0  0  0  0  0
   -4.5260    0.6030    0.1510 C   0  0  0  0  0  0  0  0  0  0  0  0
   -4.9460    1.1690    1.4550 C   0  0  0  0  0  0  0  0  0  0  0  0
   -5.7010    2.7480    0.8930 S   0  0  0  0  0  0  0  0  0  0  0  0
   -4.7320    2.8630   -0.6490 C   0  0  0  0  0  0  0  0  0  0  0  0
    2.4070    0.7240    0.2040 N   0  0  0  0  0  0  0  0  0  0  0  0
    3.9140    1.7120    0.0720 S   0  0  0  0  0  0  0  0  0  0  0  0
  1  2  2  0
  2  3  1  0
  3  4  2  3
  4  5  1  0
  5  6  2  0
  5 27  1  0
  6  7  1  0
  7  8  1  0
  7 26  2  0
  8  9  1  0
  9 10  2  0
  9 11  1  0
 11 12  1  0
 12 13  1  0
 13 14  2  0
 13 15  1  0
 15 16  1  0
 16 17  1  0
 17 18  2  0
 17 22  1  0
 18 19  1  0
 19 20  2  0
 20 21  1  0
 21 22  2  0
 21 25  1  0
 22 23  1  0
 23 24  1  0
 24 25  1  0
 26 27  1  0
M  END
