
     RDKit          3D

 27 30  0  0  0  0  0  0  0  0999 V2000
   -5.3260    1.0650    1.7120 C   0  0  0  0  0  0  0  0  0  0  0  0
   -4.2650    1.3560    0.6730 C   0  0  2  0  0  0  0  0  0  0  0  0
   -3.7650    2.7550    0.8980 C   0  0  0  0  0  0  0  0  0  0  0  0
   -4.9220    1.2090   -0.6830 C   0  0  0  0  0  0  0  0  0  0  0  0
   -3.1630    0.4390    0.7490 N   0  0  0  0  0  0  0  0  0  0  0  0
   -1.8270    0.8940    0.9970 C   0  0  0  0  0  0  0  0  0  0  0  0
   -0.8100    0.1780    0.1670 C   0  0  0  0  0  0  0  0  0  0  0  0
    0.1820    0.8240   -0.3720 C   0  0  0  0  0  0  0  0  0  0  0  0
    1.1920    0.2480   -1.1680 N   0  0  0  0  0  0  0  0  0  0  0  0
    2.5560    0.3070   -0.7840 C   0  0  0  0  0  0  0  0  0  0  0  0
    2.9750    0.9230    0.3770 C   0  0  0  0  0  0  0  0  0  0  0  0
    4.3070    0.9620    0.7200 C   0  0  0  0  0  0  0  0  0  0  0  0
    5.2930    0.3700   -0.1080 C   0  0  0  0  0  0  0  0  0  0  0  0
    4.8490   -0.2340   -1.2550 C   0  0  0  0  0  0  0  0  0  0  0  0
    3.5280   -0.2670   -1.5850 C   0  0  0  0  0  0  0  0  0  0  0  0
    6.3030   -0.8500   -2.0930 S   0  0  0  0  0  0  0  0  0  0  0  0
    7.4790    0.2710   -1.1980 C   0  0  0  0  0  0  0  0  0  0  0  0
    6.7450    0.3050    0.1190 C   0  0  0  0  0  0  0  0  0  0  0  0
   -0.9760   -1.2560   -0.0090 C   0  0  0  0  0  0  0  0  0  0  0  0
   -0.1180   -2.2440   -0.3550 N   0  0  0  0  0  0  0  0  0  0  0  0
   -0.7380   -3.4380   -0.3900 C   0  0  0  0  0  0  0  0  0  0  0  0
   -0.1770   -4.7420   -0.7150 C   0  0  0  0  0  0  0  0  0  0  0  0
   -0.8840   -5.7720   -0.7060 O   0  0  0  0  0  0  0  0  0  0  0  0
   -2.0640   -3.1620   -0.0430 C   0  0  0  0  0  0  0  0  0  0  0  0
   -2.2210   -1.8140    0.1950 C   0  0  0  0  0  0  0  0  0  0  0  0
   -3.3500   -0.9820    0.5800 C   0  0  0  0  0  0  0  0  0  0  0  0
   -4.4880   -1.4480    0.7730 O   0  0  0  0  0  0  0  0  0  0  0  0
  2  1  1  1
  2  3  1  0
  2  4  1  0
  2  5  1  0
  5  6  1  0
  5 26  1  0
  6  7  1  0
  7  8  2  3
  7 19  1  0
  8  9  1  0
  9 10  1  0
 10 11  2  0
 10 15  1  0
 11 12  1  0
 12 13  2  0
 13 14  1  0
 13 18  1  0
 14 15  2  0
 14 16  1  0
 16 17  1  0
 17 18  1  0
 19 20  1  0
 19 25  2  0
 20 21  1  0
 21 22  1  0
 21 24  2  0
 22 23  2  0
 24 25  1  0
 25 26  1  0
 26 27  2  0
M  END
