
     RDKit          3D

 27 29  0  0  0  0  0  0  0  0999 V2000
   -5.1140   -1.7640    0.0110 C   0  0  0  0  0  0  0  0  0  0  0  0
   -4.4700   -0.4270    0.0390 C   0  0  0  0  0  0  0  0  0  0  0  0
   -3.1210   -0.2740   -0.2900 C   0  0  0  0  0  0  0  0  0  0  0  0
   -2.5730    0.9810   -0.2620 C   0  0  0  0  0  0  0  0  0  0  0  0
   -1.2360    1.2300   -0.6090 N   0  0  0  0  0  0  0  0  0  0  0  0
   -0.3290    0.1250   -0.8720 C   0  0  0  0  0  0  0  0  0  0  0  0
   -0.2430   -0.7600   -0.0780 N   0  0  0  0  0  0  0  0  0  0  0  0
    0.1570   -1.9070    0.5010 C   0  0  0  0  0  0  0  0  0  0  0  0
   -0.6010   -3.0370    0.7730 N   0  0  0  0  0  0  0  0  0  0  0  0
    0.1340   -3.9360    1.4200 C   0  0  0  0  0  0  0  0  0  0  0  0
    1.4050   -3.4500    1.6070 C   0  0  0  0  0  0  0  0  0  0  0  0
    1.4200   -2.1950    1.0360 C   0  0  0  0  0  0  0  0  0  0  0  0
    2.5980   -1.3150    0.9180 C   0  0  0  0  0  0  0  0  0  0  0  0
    3.3230   -1.1950    1.9170 O   0  0  0  0  0  0  0  0  0  0  0  0
    2.9060   -0.6330   -0.2810 N   0  0  0  0  0  0  0  0  0  0  0  0
    4.0420    0.2350   -0.3970 C   0  0  0  0  0  0  0  0  0  0  0  0
    4.3670    0.8490   -1.5370 N   0  0  0  0  0  0  0  0  0  0  0  0
    5.3880    1.6740   -1.7460 C   0  0  0  0  0  0  0  0  0  0  0  0
    5.5700    2.1920   -2.9150 O   0  0  0  0  0  0  0  0  0  0  0  0
    6.3110    2.0640   -0.8510 N   0  0  0  0  0  0  0  0  0  0  0  0
    6.3480    1.6700    0.4340 C   0  0  0  0  0  0  0  0  0  0  0  0
    7.4920    2.1720    1.4880 S   0  0  0  0  0  0  0  0  0  0  0  0
    5.1080    0.6000    0.9010 S   0  0  0  0  0  0  0  0  0  0  0  0
   -3.3690    2.0560    0.0920 C   0  0  0  0  0  0  0  0  0  0  0  0
   -2.8280    3.4420    0.1510 C   0  0  0  0  0  0  0  0  0  0  0  0
   -4.7140    1.8450    0.4120 C   0  0  0  0  0  0  0  0  0  0  0  0
   -5.2470    0.6130    0.3820 N   0  0  0  0  0  0  0  0  0  0  0  0
  1  2  1  0
  2  3  2  0
  2 27  1  0
  3  4  1  0
  4  5  1  0
  4 24  2  0
  5  6  1  0
  6  7  2  3
  7  8  1  0
  8  9  1  0
  8 12  2  0
  9 10  1  0
 10 11  2  0
 11 12  1  0
 12 13  1  0
 13 14  2  0
 13 15  1  0
 15 16  1  0
 16 17  2  0
 16 23  1  0
 17 18  1  0
 18 19  2  0
 18 20  1  0
 20 21  1  0
 21 22  2  0
 21 23  1  0
 24 25  1  0
 24 26  1  0
 26 27  2  0
M  END
