
     RDKit          3D

 25 28  0  0  0  0  0  0  0  0999 V2000
    7.3630    0.4850    0.8020 N   0  0  0  0  0  0  0  0  0  0  0  0
    6.4320    0.1180   -0.2330 C   0  0  0  0  0  0  0  0  0  0  0  0
    6.9080   -0.2450   -1.3600 N   0  0  0  0  0  0  0  0  0  0  0  0
    5.0150    0.1850    0.0720 C   0  0  0  0  0  0  0  0  0  0  0  0
    4.5870    0.5950    1.3370 C   0  0  0  0  0  0  0  0  0  0  0  0
    3.2490    0.6650    1.6470 C   0  0  0  0  0  0  0  0  0  0  0  0
    2.2810    0.3310    0.7130 C   0  0  0  0  0  0  0  0  0  0  0  0
    0.9180    0.3020    0.7260 N   0  0  0  0  0  0  0  0  0  0  0  0
    0.4170   -0.0980   -0.4390 C   0  0  0  0  0  0  0  0  0  0  0  0
   -0.9460   -0.2840   -0.8960 C   0  0  0  0  0  0  0  0  0  0  0  0
   -1.1780   -0.7260   -2.2080 C   0  0  0  0  0  0  0  0  0  0  0  0
   -2.4630   -0.9200   -2.6970 C   0  0  0  0  0  0  0  0  0  0  0  0
   -3.5100   -0.6720   -1.8730 C   0  0  0  0  0  0  0  0  0  0  0  0
   -3.3010   -0.2350   -0.5710 C   0  0  0  0  0  0  0  0  0  0  0  0
   -4.5050   -0.0370    0.2200 C   0  0  0  0  0  0  0  0  0  0  0  0
   -5.5560    0.7670   -0.1790 C   0  0  0  0  0  0  0  0  0  0  0  0
   -6.6940    0.9100    0.6030 C   0  0  0  0  0  0  0  0  0  0  0  0
   -6.8110    0.2500    1.8050 C   0  0  0  0  0  0  0  0  0  0  0  0
   -5.7720   -0.5540    2.2130 C   0  0  0  0  0  0  0  0  0  0  0  0
   -4.6370   -0.6870    1.4190 C   0  0  0  0  0  0  0  0  0  0  0  0
   -2.0220   -0.0390   -0.0810 C   0  0  0  0  0  0  0  0  0  0  0  0
   -1.8370    0.3960    1.2040 O   0  0  0  0  0  0  0  0  0  0  0  0
    1.5420   -0.3360   -1.2380 C   0  0  0  0  0  0  0  0  0  0  0  0
    2.6910   -0.0750   -0.5370 C   0  0  0  0  0  0  0  0  0  0  0  0
    4.0540   -0.1420   -0.8390 C   0  0  0  0  0  0  0  0  0  0  0  0
  1  2  1  0
  2  3  2  0
  2  4  1  0
  4  5  2  0
  4 25  1  0
  5  6  1  0
  6  7  2  0
  7  8  1  0
  7 24  1  0
  8  9  1  0
  9 10  1  0
  9 23  2  0
 10 11  2  0
 10 21  1  0
 11 12  1  0
 12 13  2  0
 13 14  1  0
 14 15  1  0
 14 21  2  0
 15 16  2  0
 15 20  1  0
 16 17  1  0
 17 18  2  0
 18 19  1  0
 19 20  2  0
 21 22  1  0
 23 24  1  0
 24 25  2  0
M  CHG  1   3   1
M  END
