
     RDKit          3D

 28 31  0  0  0  0  0  0  0  0999 V2000
    4.7570   -0.4740    1.2040 C   0  0  0  0  0  0  0  0  0  0  0  0
    4.4650    0.7610    0.3940 C   0  0  2  0  0  0  0  0  0  0  0  0
    4.8120    0.5480   -1.0560 C   0  0  0  0  0  0  0  0  0  0  0  0
    5.1820    1.9380    0.9570 C   0  0  0  0  0  0  0  0  0  0  0  0
    6.6090    1.7790    0.9760 N   0  0  0  0  0  0  0  0  0  0  0  0
    2.9770    1.0090    0.5450 C   0  0  0  0  0  0  0  0  0  0  0  0
    2.6250    2.0800    1.0420 O   0  0  0  0  0  0  0  0  0  0  0  0
    2.0900    0.0110    0.1140 N   0  0  0  0  0  0  0  0  0  0  0  0
    0.6820    0.1340    0.2070 C   0  0  0  0  0  0  0  0  0  0  0  0
    0.0240    1.2150    0.7160 C   0  0  0  0  0  0  0  0  0  0  0  0
   -1.3770    1.2610    0.7730 C   0  0  0  0  0  0  0  0  0  0  0  0
   -2.1520    0.2200    0.3190 C   0  0  0  0  0  0  0  0  0  0  0  0
   -3.5900    0.3490    0.4040 C   0  0  1  0  0  0  0  0  0  0  0  0
   -3.9890    1.6860    1.0990 C   0  0  0  0  0  0  0  0  0  0  0  0
   -5.5070    1.7030    0.8430 C   0  0  1  0  0  0  0  0  0  0  0  0
   -5.9420    2.9790    0.5230 O   0  0  0  0  0  0  0  0  0  0  0  0
   -5.6360    0.8510   -0.3920 C   0  0  0  0  0  0  0  0  0  0  0  0
   -4.2790    0.6350   -0.8450 N   0  0  0  0  0  0  0  0  0  0  0  0
   -1.5040   -0.8700   -0.1930 C   0  0  0  0  0  0  0  0  0  0  0  0
   -0.1130   -0.9310   -0.2570 C   0  0  0  0  0  0  0  0  0  0  0  0
    0.2680   -2.0970   -0.7940 N   0  0  0  0  0  0  0  0  0  0  0  0
   -0.8420   -2.7890   -1.0780 C   0  0  0  0  0  0  0  0  0  0  0  0
   -1.0200   -4.0500   -1.6410 C   0  0  0  0  0  0  0  0  0  0  0  0
   -2.2900   -4.5510   -1.8310 C   0  0  0  0  0  0  0  0  0  0  0  0
   -2.4770   -5.7910   -2.3840 F   0  0  0  0  0  0  0  0  0  0  0  0
   -3.3910   -3.7980   -1.4610 C   0  0  0  0  0  0  0  0  0  0  0  0
   -3.2370   -2.5370   -0.8980 C   0  0  0  0  0  0  0  0  0  0  0  0
   -1.9660   -2.0650   -0.7200 C   0  0  0  0  0  0  0  0  0  0  0  0
  2  1  1  1
  2  3  1  0
  2  4  1  0
  2  6  1  0
  4  5  1  0
  6  7  2  0
  6  8  1  0
  8  9  1  0
  9 10  2  0
  9 20  1  0
 10 11  1  0
 11 12  2  0
 13 12  1  6
 12 19  1  0
 13 14  1  0
 13 18  1  0
 14 15  1  0
 15 16  1  6
 15 17  1  0
 17 18  1  0
 19 20  2  0
 19 28  1  0
 20 21  1  0
 21 22  1  0
 22 23  2  0
 22 28  1  0
 23 24  1  0
 24 25  1  0
 24 26  2  0
 26 27  1  0
 27 28  2  0
M  CHG  1   5   1
M  END
