
     RDKit          3D

 27 30  0  0  0  0  0  0  0  0999 V2000
    7.9660    0.2720   -1.0710 C   0  0  0  0  0  0  0  0  0  0  0  0
    7.1430   -0.3570   -0.2590 C   0  0  0  0  0  0  0  0  0  0  0  0
    7.4270   -1.3660    0.7020 N   0  0  0  0  0  0  0  0  0  0  0  0
    6.2150   -1.7420    1.3400 C   0  0  0  0  0  0  0  0  0  0  0  0
    6.0580   -2.5990    2.2410 O   0  0  0  0  0  0  0  0  0  0  0  0
    5.1250   -0.9480    0.7680 C   0  0  0  0  0  0  0  0  0  0  0  0
    3.7770   -0.8640    0.9690 C   0  0  0  0  0  0  0  0  0  0  0  0
    2.9370    0.0140    0.2580 C   0  0  0  0  0  0  0  0  0  0  0  0
    1.5640    0.0450    0.5390 N   0  0  0  0  0  0  0  0  0  0  0  0
    0.6000    0.6850   -0.2330 C   0  0  0  0  0  0  0  0  0  0  0  0
    0.8910    1.2930   -1.2740 O   0  0  0  0  0  0  0  0  0  0  0  0
   -0.8030    0.6700    0.1480 N   0  0  0  0  0  0  0  0  0  0  0  0
   -1.8000    1.3310   -0.6480 C   0  0  0  0  0  0  0  0  0  0  0  0
   -3.1400    1.1360   -0.0080 C   0  0  1  0  0  0  0  0  0  0  0  0
   -4.1650    1.8860   -0.8880 C   0  0  0  0  0  0  0  0  0  0  0  0
   -5.4740    1.8550   -0.1470 C   0  0  0  0  0  0  0  0  0  0  0  0
   -5.6540    0.7620    0.7550 N   0  0  0  0  0  0  0  0  0  0  0  0
   -4.9750   -0.4190    0.3610 C   0  0  0  0  0  0  0  0  0  0  0  0
   -5.5180   -1.6820    0.3470 C   0  0  0  0  0  0  0  0  0  0  0  0
   -4.7480   -2.7750   -0.0670 C   0  0  0  0  0  0  0  0  0  0  0  0
   -3.4420   -2.5730   -0.4590 C   0  0  0  0  0  0  0  0  0  0  0  0
   -2.6540   -3.6030   -0.8690 F   0  0  0  0  0  0  0  0  0  0  0  0
   -2.8570   -1.2940   -0.4560 C   0  0  0  0  0  0  0  0  0  0  0  0
   -3.6350   -0.2700   -0.0500 C   0  0  0  0  0  0  0  0  0  0  0  0
    3.5690    0.7890   -0.6600 C   0  0  0  0  0  0  0  0  0  0  0  0
    4.9210    0.7450   -0.9030 C   0  0  0  0  0  0  0  0  0  0  0  0
    5.7000   -0.1310   -0.1810 C   0  0  0  0  0  0  0  0  0  0  0  0
  1  2  2  0
  2  3  1  0
  2 27  1  0
  3  4  1  0
  4  5  2  0
  4  6  1  0
  6  7  2  0
  6 27  1  0
  7  8  1  0
  8  9  1  0
  8 25  2  0
  9 10  1  0
 10 11  2  0
 10 12  1  0
 12 13  1  0
 14 13  1  6
 14 15  1  0
 14 24  1  0
 15 16  1  0
 16 17  1  0
 17 18  1  0
 18 19  2  0
 18 24  1  0
 19 20  1  0
 20 21  2  0
 21 22  1  0
 21 23  1  0
 23 24  2  0
 25 26  1  0
 26 27  2  0
M  CHG  1  17   1
M  END
