
     RDKit          3D

 28 30  0  0  0  0  0  0  0  0999 V2000
    7.0750   -0.8300   -2.2760 C   0  0  0  0  0  0  0  0  0  0  0  0
    5.9040   -0.8250   -1.6690 C   0  0  0  0  0  0  0  0  0  0  0  0
    5.7370   -1.3650   -0.3420 C   0  0  0  0  0  0  0  0  0  0  0  0
    6.7970   -1.8940    0.3090 F   0  0  0  0  0  0  0  0  0  0  0  0
    4.5610   -1.3550    0.2550 C   0  0  0  0  0  0  0  0  0  0  0  0
    4.4000   -1.9040    1.6000 C   0  0  0  0  0  0  0  0  0  0  0  0
    3.2760   -1.9320    2.2510 C   0  0  0  0  0  0  0  0  0  0  0  0
    1.9860   -1.4130    1.7360 C   0  0  0  0  0  0  0  0  0  0  0  0
    1.4470   -0.3350    2.5960 C   0  0  0  0  0  0  0  0  0  0  0  0
    2.1120   -0.0120    3.6120 O   0  0  0  0  0  0  0  0  0  0  0  0
    0.2010    0.3320    2.2960 C   0  0  0  0  0  0  0  0  0  0  0  0
   -0.5200   -0.0170    1.1860 C   0  0  0  0  0  0  0  0  0  0  0  0
   -1.7180    0.6280    0.8940 C   0  0  0  0  0  0  0  0  0  0  0  0
   -2.4670    0.1900   -0.2980 C   0  0  0  0  0  0  0  0  0  0  0  0
   -2.8590    1.0300   -1.2020 C   0  0  0  0  0  0  0  0  0  0  0  0
   -2.6230    2.4880   -1.1950 C   0  0  0  0  0  0  0  0  0  0  0  0
   -3.6780    0.5260   -2.3340 C   0  0  0  0  0  0  0  0  0  0  0  0
   -4.1730    1.1270   -3.4340 N   0  0  0  0  0  0  0  0  0  0  0  0
   -4.8140    0.2080   -4.1990 C   0  0  0  0  0  0  0  0  0  0  0  0
   -4.7270   -0.9770   -3.5830 N   0  0  0  0  0  0  0  0  0  0  0  0
   -4.0210   -0.7890   -2.4170 C   0  0  0  0  0  0  0  0  0  0  0  0
   -3.6860   -1.7370   -1.3520 C   0  0  0  0  0  0  0  0  0  0  0  0
   -2.6700   -1.2530   -0.4090 C   0  0  0  0  0  0  0  0  0  0  0  0
   -2.1390    1.6090    1.7510 C   0  0  0  0  0  0  0  0  0  0  0  0
   -3.2320    2.2210    1.5250 O   0  0  0  0  0  0  0  0  0  0  0  0
   -1.4130    1.9440    2.8480 N   0  0  0  0  0  0  0  0  0  0  0  0
   -0.2490    1.3240    3.1380 C   0  0  0  0  0  0  0  0  0  0  0  0
    0.5330    1.6470    4.2710 N   0  0  0  0  0  0  0  0  0  0  0  0
  1  2  2  0
  2  3  1  0
  3  4  1  0
  3  5  2  3
  5  6  1  0
  6  7  2  3
  7  8  1  0
  8  9  1  0
  9 10  2  0
  9 11  1  0
 11 12  1  0
 11 27  2  0
 12 13  2  0
 13 14  1  0
 13 24  1  0
 14 15  2  0
 14 23  1  0
 15 16  1  0
 15 17  1  0
 17 18  1  0
 17 21  2  0
 18 19  2  0
 19 20  1  0
 20 21  1  0
 21 22  1  0
 22 23  1  0
 24 25  2  0
 24 26  1  0
 26 27  1  0
 27 28  1  0
M  CHG  1  18   1
M  END
