
     RDKit          3D

 12 12  0  0  0  0  0  0  0  0999 V2000
    1.5360   -2.5130   -0.2610 O   0  0  0  0  0  0  0  0  0  0  0  0
    1.7750   -1.2780   -0.2180 C   0  0  0  0  0  0  0  0  0  0  0  0
    3.1910   -0.8680   -0.1120 C   0  0  0  0  0  0  0  0  0  0  0  0
    3.3720    0.6170   -0.0680 C   0  0  0  0  0  0  0  0  0  0  0  0
    2.6900    1.1140    1.0470 O   0  0  0  0  0  0  0  0  0  0  0  0
    0.7260   -0.3760   -0.2720 O   0  0  0  0  0  0  0  0  0  0  0  0
   -0.5820   -0.8910   -0.3730 C   0  0  0  0  0  0  0  0  0  0  0  0
   -1.6130    0.1960   -0.4210 C   0  0  2  0  0  0  0  0  0  0  0  0
   -1.5340    1.0930   -1.4530 O   0  0  0  0  0  0  0  0  0  0  0  0
   -1.8590    0.9170    0.8930 C   0  0  0  0  0  0  0  0  0  0  0  0
   -3.3420    0.9180    0.4880 C   0  0  0  0  0  0  0  0  0  0  0  0
   -3.0160   -0.3990   -0.2300 C   0  0  0  0  0  0  0  0  0  0  0  0
  1  2  2  0
  2  3  1  0
  2  6  1  0
  3  4  1  0
  4  5  1  0
  6  7  1  0
  7  8  1  0
  8  9  1  6
  8 10  1  0
  8 12  1  0
 10 11  1  0
 11 12  1  0
M  END
