
     RDKit          3D

 12 12  0  0  0  0  0  0  0  0999 V2000
    2.2160    0.2990   -1.8920 O   0  0  0  0  0  0  0  0  0  0  0  0
    2.8330    0.5670   -0.8370 C   0  0  0  0  0  0  0  0  0  0  0  0
    3.9190    1.4580   -0.9860 O   0  0  0  0  0  0  0  0  0  0  0  0
    2.4920    0.0200    0.4910 C   0  0  0  0  0  0  0  0  0  0  0  0
    1.4300   -0.8190    0.4670 O   0  0  0  0  0  0  0  0  0  0  0  0
    0.2260   -0.3030    0.0170 C   0  0  1  0  0  0  0  0  0  0  0  0
   -0.4430   -1.2570   -0.8870 C   0  0  0  0  0  0  0  0  0  0  0  0
   -1.8550   -0.9390   -1.2450 C   0  0  0  0  0  0  0  0  0  0  0  0
   -2.6570   -0.2320   -0.2170 C   0  0  0  0  0  0  0  0  0  0  0  0
   -1.9130    0.4330    0.8730 C   0  0  0  0  0  0  0  0  0  0  0  0
   -0.6340   -0.2090    1.2970 C   0  0  2  0  0  0  0  0  0  0  0  0
    0.0410    0.6520    2.1470 O   0  0  0  0  0  0  0  0  0  0  0  0
  1  2  2  0
  2  3  1  0
  2  4  1  0
  4  5  1  0
  6  5  1  1
  6  7  1  0
  6 11  1  0
  7  8  1  0
  8  9  1  0
  9 10  1  0
 10 11  1  0
 11 12  1  1
M  END
