
     RDKit          3D

 26 29  0  0  0  0  0  0  0  0999 V2000
    5.8070   -2.0840    1.5060 N   0  0  0  0  0  0  0  0  0  0  0  0
    6.0390   -0.7850    0.8970 C   0  0  0  0  0  0  0  0  0  0  0  0
    7.2490   -0.4220    0.8930 N   0  0  0  0  0  0  0  0  0  0  0  0
    4.8960   -0.0800    0.3810 C   0  0  0  0  0  0  0  0  0  0  0  0
    3.6260   -0.6950    0.5010 C   0  0  0  0  0  0  0  0  0  0  0  0
    2.5010   -0.1080    0.0470 C   0  0  0  0  0  0  0  0  0  0  0  0
    1.1470   -0.4800    0.0340 C   0  0  0  0  0  0  0  0  0  0  0  0
    0.4300    0.5030   -0.5550 C   0  0  0  0  0  0  0  0  0  0  0  0
   -0.9870    0.6410   -0.9030 C   0  0  0  0  0  0  0  0  0  0  0  0
   -1.3150    1.5290   -1.9400 C   0  0  0  0  0  0  0  0  0  0  0  0
   -2.6070    1.7730   -2.3440 C   0  0  0  0  0  0  0  0  0  0  0  0
   -3.6440    1.1240   -1.7140 C   0  0  0  0  0  0  0  0  0  0  0  0
   -3.3700    0.2530   -0.7010 C   0  0  0  0  0  0  0  0  0  0  0  0
   -4.4580   -0.4360   -0.0250 C   0  0  0  0  0  0  0  0  0  0  0  0
   -5.4940   -1.0400   -0.7070 C   0  0  0  0  0  0  0  0  0  0  0  0
   -6.5130   -1.6840   -0.0340 C   0  0  0  0  0  0  0  0  0  0  0  0
   -6.5390   -1.7520    1.3430 C   0  0  0  0  0  0  0  0  0  0  0  0
   -5.5110   -1.1530    2.0270 C   0  0  0  0  0  0  0  0  0  0  0  0
   -4.4770   -0.4990    1.3510 C   0  0  0  0  0  0  0  0  0  0  0  0
   -2.0340    0.0160   -0.2980 C   0  0  0  0  0  0  0  0  0  0  0  0
   -1.8730   -0.8510    0.7190 O   0  0  0  0  0  0  0  0  0  0  0  0
    1.3470    1.4580   -0.8950 N   0  0  0  0  0  0  0  0  0  0  0  0
    2.5870    1.1200   -0.5480 C   0  0  0  0  0  0  0  0  0  0  0  0
    3.8010    1.7670   -0.6920 C   0  0  0  0  0  0  0  0  0  0  0  0
    4.9590    1.1440   -0.2150 C   0  0  0  0  0  0  0  0  0  0  0  0
    6.4750    2.0380   -0.4370 Cl  0  0  0  0  0  0  0  0  0  0  0  0
  1  2  1  0
  2  3  2  0
  2  4  1  0
  4  5  2  0
  4 25  1  0
  5  6  1  0
  6  7  1  0
  6 23  2  0
  7  8  2  0
  8  9  1  0
  8 22  1  0
  9 10  2  0
  9 20  1  0
 10 11  1  0
 11 12  2  0
 12 13  1  0
 13 14  1  0
 13 20  2  0
 14 15  2  0
 14 19  1  0
 15 16  1  0
 16 17  2  0
 17 18  1  0
 18 19  2  0
 20 21  1  0
 22 23  1  0
 23 24  1  0
 24 25  2  0
 25 26  1  0
M  CHG  1   3   1
M  END
