
     RDKit          3D

 12 12  0  0  0  0  0  0  0  0999 V2000
   -4.0510    0.1860   -1.1190 O   0  0  0  0  0  0  0  0  0  0  0  0
   -2.7300   -0.3290   -1.0540 C   0  0  0  0  0  0  0  0  0  0  0  0
   -2.3290   -0.2330    0.3750 C   0  0  0  0  0  0  0  0  0  0  0  0
   -1.0900   -0.6600    0.7480 O   0  0  0  0  0  0  0  0  0  0  0  0
    0.1460   -0.2090    0.3990 C   0  0  0  0  0  0  0  0  0  0  0  0
    0.4160    0.8550   -0.4360 C   0  0  0  0  0  0  0  0  0  0  0  0
    1.7330    1.2130   -0.7160 C   0  0  0  0  0  0  0  0  0  0  0  0
    2.7680    0.5080   -0.1620 C   0  0  0  0  0  0  0  0  0  0  0  0
    4.0650    0.8960   -0.4670 O   0  0  0  0  0  0  0  0  0  0  0  0
    2.5390   -0.5600    0.6760 C   0  0  0  0  0  0  0  0  0  0  0  0
    1.2370   -0.9060    0.9460 C   0  0  0  0  0  0  0  0  0  0  0  0
    0.9600   -1.9720    1.7840 O   0  0  0  0  0  0  0  0  0  0  0  0
  1  2  1  0
  2  3  1  0
  3  4  1  0
  4  5  1  0
  5  6  2  0
  5 11  1  0
  6  7  1  0
  7  8  2  0
  8  9  1  0
  8 10  1  0
 10 11  2  0
 11 12  1  0
M  END
