
     RDKit          3D

 12 12  0  0  0  0  0  0  0  0999 V2000
    3.0790    0.4510    0.8420 O   0  0  0  0  0  0  0  0  0  0  0  0
    2.9690   -0.3850   -0.2710 C   0  0  0  0  0  0  0  0  0  0  0  0
    2.1930    0.3880   -1.3070 C   0  0  0  0  0  0  0  0  0  0  0  0
    0.9560    0.7290   -0.8540 O   0  0  0  0  0  0  0  0  0  0  0  0
   -0.1580    0.0800   -0.4670 C   0  0  0  0  0  0  0  0  0  0  0  0
   -0.3660   -1.2800   -0.4540 C   0  0  0  0  0  0  0  0  0  0  0  0
   -1.5350   -1.8910   -0.0400 C   0  0  0  0  0  0  0  0  0  0  0  0
   -2.5630   -1.1050    0.3860 C   0  0  0  0  0  0  0  0  0  0  0  0
   -2.4170    0.2850    0.3960 C   0  0  0  0  0  0  0  0  0  0  0  0
   -3.4970    0.9950    0.8380 O   0  0  0  0  0  0  0  0  0  0  0  0
   -1.2450    0.8590   -0.0190 C   0  0  0  0  0  0  0  0  0  0  0  0
   -1.0920    2.2320   -0.0120 O   0  0  0  0  0  0  0  0  0  0  0  0
  1  2  1  0
  2  3  1  0
  3  4  1  0
  4  5  1  0
  5  6  2  0
  5 11  1  0
  6  7  1  0
  7  8  2  0
  8  9  1  0
  9 10  1  0
  9 11  2  0
 11 12  1  0
M  END
