
     RDKit          3D

 11 11  0  0  0  0  0  0  0  0999 V2000
   -3.8950    1.0330    0.3960 O   0  0  0  0  0  0  0  0  0  0  0  0
   -2.8150    0.1340    0.2950 C   0  0  0  0  0  0  0  0  0  0  0  0
   -1.9830    0.5130   -0.8970 C   0  0  0  0  0  0  0  0  0  0  0  0
   -0.8170   -0.3410   -1.1760 C   0  0  0  0  0  0  0  0  0  0  0  0
    0.2480   -0.4320   -0.1090 C   0  0  2  0  0  0  0  0  0  0  0  0
   -0.2930   -0.9530    1.0620 O   0  0  0  0  0  0  0  0  0  0  0  0
    0.8770    0.8970    0.1510 C   0  0  0  0  0  0  0  0  0  0  0  0
    2.0820    0.6860    1.0210 C   0  0  0  0  0  0  0  0  0  0  0  0
    3.0400   -0.2090    0.2800 C   0  0  0  0  0  0  0  0  0  0  0  0
    2.5040   -1.3860   -0.1400 O   0  0  0  0  0  0  0  0  0  0  0  0
    1.2630   -1.4170   -0.6110 C   0  0  0  0  0  0  0  0  0  0  0  0
  1  2  1  0
  2  3  1  0
  3  4  1  0
  4  5  1  0
  5  6  1  1
  5  7  1  0
  5 11  1  0
  7  8  1  0
  8  9  1  0
  9 10  1  0
 10 11  1  0
M  END
