
     RDKit          3D

 12 12  0  0  0  0  0  0  0  0999 V2000
    3.9400   -0.5010    0.8780 C   0  0  0  0  0  0  0  0  0  0  0  0
    2.5860   -0.6730    0.2910 C   0  0  0  0  0  0  0  0  0  0  0  0
    2.2630   -1.7600   -0.2570 O   0  0  0  0  0  0  0  0  0  0  0  0
    1.6230    0.3240    0.3090 O   0  0  0  0  0  0  0  0  0  0  0  0
    0.3300    0.1700   -0.2480 C   0  0  2  0  0  0  0  0  0  0  0  0
    0.4130   -0.1090   -1.6250 O   0  0  0  0  0  0  0  0  0  0  0  0
   -0.4110    1.4710   -0.1130 C   0  0  0  0  0  0  0  0  0  0  0  0
   -1.5460    1.4220    0.8680 C   0  0  0  0  0  0  0  0  0  0  0  0
   -2.4650    0.2630    0.6800 C   0  0  2  0  0  0  0  0  0  0  0  0
   -2.7600   -0.2970    1.9340 O   0  0  0  0  0  0  0  0  0  0  0  0
   -1.8680   -0.8530   -0.1500 C   0  0  0  0  0  0  0  0  0  0  0  0
   -0.4230   -0.9940    0.3490 C   0  0  0  0  0  0  0  0  0  0  0  0
  1  2  1  0
  2  3  2  0
  2  4  1  0
  4  5  1  0
  5  6  1  6
  5  7  1  0
  5 12  1  0
  7  8  1  0
  8  9  1  0
  9 10  1  1
  9 11  1  0
 11 12  1  0
M  END
