
     RDKit          3D

 28 30  0  0  0  0  0  0  0  0999 V2000
    7.5230    1.3610    1.1900 C   0  0  0  0  0  0  0  0  0  0  0  0
    6.2840    1.2310    0.3880 C   0  0  0  0  0  0  0  0  0  0  0  0
    6.1400    1.4520   -0.9300 N   0  0  0  0  0  0  0  0  0  0  0  0
    4.8880    1.2410   -1.3220 C   0  0  0  0  0  0  0  0  0  0  0  0
    4.3890    1.3920   -2.7100 C   0  0  0  0  0  0  0  0  0  0  0  0
    3.6830    2.5810   -2.7530 F   0  0  0  0  0  0  0  0  0  0  0  0
    4.1570    0.8620   -0.2200 C   0  0  0  0  0  0  0  0  0  0  0  0
    2.8060    0.5170   -0.0250 C   0  0  0  0  0  0  0  0  0  0  0  0
    2.3210    0.1700    1.2070 C   0  0  0  0  0  0  0  0  0  0  0  0
    0.9850   -0.1720    1.4250 N   0  0  0  0  0  0  0  0  0  0  0  0
   -0.0120   -0.2200    0.4450 C   0  0  0  0  0  0  0  0  0  0  0  0
    0.2320    0.0470   -0.7360 O   0  0  0  0  0  0  0  0  0  0  0  0
   -1.4340   -0.6090    0.8270 C   0  0  2  0  0  0  0  0  0  0  0  0
   -1.3430   -1.9520    1.5020 C   0  0  0  0  0  0  0  0  0  0  0  0
   -2.2450   -0.5830   -0.3420 N   0  0  1  0  0  0  0  0  0  0  0  0
   -1.8550   -1.5900   -1.2770 C   0  0  2  0  0  0  0  0  0  0  0  0
   -1.6220   -1.0640   -2.6810 C   0  0  0  0  0  0  0  0  0  0  0  0
   -2.7610   -2.8010   -1.2840 C   0  0  0  0  0  0  0  0  0  0  0  0
   -3.6570   -0.5200   -0.0630 C   0  0  1  0  0  0  0  0  0  0  0  0
   -3.8740    0.4470    1.0650 C   0  0  0  0  0  0  0  0  0  0  0  0
   -5.2590    0.9970    1.1800 C   0  0  0  0  0  0  0  0  0  0  0  0
   -6.0730    0.9540    0.0180 N   0  0  0  0  0  0  0  0  0  0  0  0
   -5.1940    1.1470   -1.1210 C   0  0  0  0  0  0  0  0  0  0  0  0
   -4.4980   -0.2210   -1.2620 C   0  0  0  0  0  0  0  0  0  0  0  0
    3.2290    0.1730    2.2740 C   0  0  0  0  0  0  0  0  0  0  0  0
    2.7310   -0.1790    3.5160 O   0  0  0  0  0  0  0  0  0  0  0  0
    4.5440    0.5090    2.0840 C   0  0  0  0  0  0  0  0  0  0  0  0
    5.0240    0.8560    0.8440 C   0  0  0  0  0  0  0  0  0  0  0  0
  1  2  1  0
  2  3  1  0
  2 28  2  0
  3  4  1  0
  4  5  1  0
  4  7  2  0
  5  6  1  0
  7  8  1  0
  7 28  1  0
  8  9  2  0
  9 10  1  0
  9 25  1  0
 10 11  1  0
 11 12  2  0
 11 13  1  0
 13 14  1  6
 15 13  1  1
 15 16  1  0
 15 19  1  0
 16 17  1  6
 16 18  1  0
 19 20  1  1
 19 24  1  0
 20 21  1  0
 21 22  1  0
 22 23  1  0
 23 24  1  0
 25 26  1  0
 25 27  2  0
 27 28  1  0
M  CHG  1  15   1
M  END
