
     RDKit          3D

 28 30  0  0  0  0  0  0  0  0999 V2000
   -4.5990    1.6050    1.1700 C   0  0  0  0  0  0  0  0  0  0  0  0
   -3.7170    0.4220    1.2400 C   0  0  0  0  0  0  0  0  0  0  0  0
   -3.6780   -0.5170    0.3430 C   0  0  0  0  0  0  0  0  0  0  0  0
   -4.5460   -0.4300   -0.7900 C   0  0  0  0  0  0  0  0  0  0  0  0
   -5.8560   -0.3460   -0.5010 C   0  0  0  0  0  0  0  0  0  0  0  0
   -6.3720   -0.3480    0.7390 F   0  0  0  0  0  0  0  0  0  0  0  0
   -4.2060   -0.4850   -2.2020 N   0  0  0  0  0  0  0  0  0  0  0  0
   -3.7570   -1.8690   -2.3950 C   0  0  0  0  0  0  0  0  0  0  0  0
   -3.9010   -2.6950   -1.2640 N   0  0  0  0  0  0  0  0  0  0  0  0
   -2.9100   -2.7960   -0.2800 C   0  0  0  0  0  0  0  0  0  0  0  0
   -2.6160   -1.5870    0.5370 C   0  0  1  0  0  0  0  0  0  0  0  0
   -1.3610   -0.9670    0.1990 N   0  0  0  0  0  0  0  0  0  0  0  0
   -0.3450   -0.5960    1.1440 C   0  0  0  0  0  0  0  0  0  0  0  0
   -0.5820   -0.8240    2.3310 O   0  0  0  0  0  0  0  0  0  0  0  0
    0.8530   -0.0080    0.7450 N   0  0  0  0  0  0  0  0  0  0  0  0
    1.8930    0.4570    1.5620 C   0  0  0  0  0  0  0  0  0  0  0  0
    1.7620    0.7440    2.9100 C   0  0  0  0  0  0  0  0  0  0  0  0
    2.8250    1.2970    3.6340 C   0  0  0  0  0  0  0  0  0  0  0  0
    4.0340    1.5750    3.0340 C   0  0  0  0  0  0  0  0  0  0  0  0
    4.1770    1.2840    1.6700 C   0  0  0  0  0  0  0  0  0  0  0  0
    3.1230    0.7420    0.9740 C   0  0  0  0  0  0  0  0  0  0  0  0
    3.2570    0.4440   -0.3750 O   0  0  0  0  0  0  0  0  0  0  0  0
    4.4800    0.7070   -0.9920 C   0  0  0  0  0  0  0  0  0  0  0  0
    4.7540    1.8090   -1.7670 C   0  0  0  0  0  0  0  0  0  0  0  0
    6.0200    1.9770   -2.3330 C   0  0  0  0  0  0  0  0  0  0  0  0
    7.0070    1.0620   -2.1400 C   0  0  0  0  0  0  0  0  0  0  0  0
    6.7540   -0.0500   -1.3680 C   0  0  0  0  0  0  0  0  0  0  0  0
    5.5020   -0.2230   -0.8010 C   0  0  0  0  0  0  0  0  0  0  0  0
  1  2  1  0
  2  3  2  3
  3  4  1  0
  3 11  1  0
  4  5  2  3
  4  7  1  0
  5  6  1  0
  7  8  1  0
  8  9  1  0
  9 10  1  0
 10 11  1  0
 11 12  1  6
 12 13  1  0
 13 14  2  0
 13 15  1  0
 15 16  1  0
 16 17  2  0
 16 21  1  0
 17 18  1  0
 18 19  2  0
 19 20  1  0
 20 21  2  0
 21 22  1  0
 22 23  1  0
 23 24  2  0
 23 28  1  0
 24 25  1  0
 25 26  2  0
 26 27  1  0
 27 28  2  0
M  CHG  1   7   1
M  END
