
     RDKit          3D

 28 30  0  0  0  0  0  0  0  0999 V2000
   -5.8680    0.6180    0.7650 C   0  0  0  0  0  0  0  0  0  0  0  0
   -4.5710    0.5930    0.6280 C   0  0  0  0  0  0  0  0  0  0  0  0
   -3.7980   -0.4120   -0.0150 N   0  0  0  0  0  0  0  0  0  0  0  0
   -4.2700   -1.2850   -0.9020 C   0  0  0  0  0  0  0  0  0  0  0  0
   -5.6170   -1.4680   -1.4950 C   0  0  0  0  0  0  0  0  0  0  0  0
   -3.2110   -2.1210   -1.2800 C   0  0  0  0  0  0  0  0  0  0  0  0
   -2.1170   -1.7140   -0.5940 C   0  0  0  0  0  0  0  0  0  0  0  0
   -2.4690   -0.6460    0.2020 C   0  0  0  0  0  0  0  0  0  0  0  0
   -1.5500    0.0730    1.1060 C   0  0  2  0  0  0  0  0  0  0  0  0
   -2.1300    0.3160    2.4160 N   0  0  0  0  0  0  0  0  0  0  0  0
   -0.9400    1.2830    0.5070 C   0  0  0  0  0  0  0  0  0  0  0  0
   -1.4670    2.2300   -0.2560 N   0  0  0  0  0  0  0  0  0  0  0  0
   -0.5610    3.1610   -0.5920 C   0  0  0  0  0  0  0  0  0  0  0  0
   -0.8510    4.3550   -1.4450 C   0  0  0  0  0  0  0  0  0  0  0  0
    0.6350    2.8060   -0.0150 C   0  0  0  0  0  0  0  0  0  0  0  0
    0.3980    1.6190    0.6800 C   0  0  0  0  0  0  0  0  0  0  0  0
    1.4210    0.9200    1.4240 C   0  0  0  0  0  0  0  0  0  0  0  0
    1.5960    1.1670    2.6280 O   0  0  0  0  0  0  0  0  0  0  0  0
    2.2270   -0.0450    0.7830 N   0  0  0  0  0  0  0  0  0  0  0  0
    2.0470   -0.3590   -0.6390 C   0  0  0  0  0  0  0  0  0  0  0  0
    3.4130   -0.4730   -1.2650 C   0  0  0  0  0  0  0  0  0  0  0  0
    4.1450   -1.6250   -0.6500 C   0  0  1  0  0  0  0  0  0  0  0  0
    5.5970   -1.3720   -0.5700 C   0  0  0  0  0  0  0  0  0  0  0  0
    6.1630   -0.4050    0.2570 O   0  0  0  0  0  0  0  0  0  0  0  0
    6.4210   -2.0880   -1.3110 C   0  0  0  0  0  0  0  0  0  0  0  0
    7.7630   -1.9140   -1.2900 F   0  0  0  0  0  0  0  0  0  0  0  0
    3.5590   -2.0290    0.6860 C   0  0  0  0  0  0  0  0  0  0  0  0
    3.2770   -0.7750    1.4730 C   0  0  0  0  0  0  0  0  0  0  0  0
  1  2  2  0
  2  3  1  0
  3  4  1  0
  3  8  1  0
  4  5  1  0
  4  6  2  0
  6  7  1  0
  7  8  2  0
  8  9  1  0
  9 10  1  1
  9 11  1  0
 11 12  1  0
 11 16  2  0
 12 13  1  0
 13 14  1  0
 13 15  2  0
 15 16  1  0
 16 17  1  0
 17 18  2  0
 17 19  1  0
 19 20  1  0
 19 28  1  0
 20 21  1  0
 21 22  1  0
 22 23  1  1
 22 27  1  0
 23 24  1  0
 23 25  2  3
 25 26  1  0
 27 28  1  0
M  CHG  1  10   1
M  END
