
     RDKit          3D

 28 30  0  0  0  0  0  0  0  0999 V2000
   -1.2800    4.2260   -1.2840 C   0  0  0  0  0  0  0  0  0  0  0  0
   -1.4460    2.7400   -1.4420 C   0  0  0  0  0  0  0  0  0  0  0  0
   -1.8180    2.1200   -0.0910 C   0  0  1  0  0  0  0  0  0  0  0  0
   -3.1140    2.7800    0.3040 C   0  0  0  0  0  0  0  0  0  0  0  0
   -1.9290    0.6440   -0.2080 C   0  0  0  0  0  0  0  0  0  0  0  0
   -2.7930    0.1740   -1.1170 F   0  0  0  0  0  0  0  0  0  0  0  0
   -1.2150   -0.2030    0.5370 C   0  0  0  0  0  0  0  0  0  0  0  0
   -1.4150   -1.6090    0.3270 C   0  0  0  0  0  0  0  0  0  0  0  0
   -2.7490   -2.0790    0.3100 C   0  0  0  0  0  0  0  0  0  0  0  0
   -3.0490   -3.3960    0.1150 C   0  0  0  0  0  0  0  0  0  0  0  0
   -2.0090   -4.2740   -0.0680 C   0  0  0  0  0  0  0  0  0  0  0  0
   -2.2390   -5.6630   -0.2760 N   0  0  0  0  0  0  0  0  0  0  0  0
   -0.6760   -3.8770   -0.0630 C   0  0  0  0  0  0  0  0  0  0  0  0
    0.3210   -4.8090   -0.2640 C   0  0  0  0  0  0  0  0  0  0  0  0
    0.0230   -6.0110   -0.4380 O   0  0  0  0  0  0  0  0  0  0  0  0
    1.5980   -4.4110   -0.2690 N   0  0  0  0  0  0  0  0  0  0  0  0
    1.8460   -3.1300   -0.0800 C   0  0  0  0  0  0  0  0  0  0  0  0
    3.0470   -2.7610   -0.0860 O   0  0  0  0  0  0  0  0  0  0  0  0
    0.8840   -2.1610    0.1250 N   0  0  0  0  0  0  0  0  0  0  0  0
    1.3560   -0.8420    0.2840 C   0  0  0  0  0  0  0  0  0  0  0  0
    1.9500   -0.4830    1.4570 C   0  0  0  0  0  0  0  0  0  0  0  0
    2.5000    0.7640    1.6350 C   0  0  0  0  0  0  0  0  0  0  0  0
    2.4610    1.6790    0.6270 C   0  0  0  0  0  0  0  0  0  0  0  0
    3.0690    3.0470    0.8320 C   0  0  0  0  0  0  0  0  0  0  0  0
    4.4590    3.0500    0.4550 N   0  0  0  0  0  0  0  0  0  0  0  0
    1.8670    1.3460   -0.5700 C   0  0  0  0  0  0  0  0  0  0  0  0
    1.3070    0.0620   -0.7370 C   0  0  0  0  0  0  0  0  0  0  0  0
   -0.4110   -2.5140    0.1400 C   0  0  0  0  0  0  0  0  0  0  0  0
  1  2  1  0
  2  3  1  0
  3  4  1  6
  3  5  1  0
  5  6  1  0
  5  7  2  3
  7  8  1  0
  8  9  2  0
  8 28  1  0
  9 10  1  0
 10 11  2  0
 11 12  1  0
 11 13  1  0
 13 14  1  0
 13 28  2  0
 14 15  2  0
 14 16  1  0
 16 17  1  0
 17 18  2  0
 17 19  1  0
 19 20  1  0
 19 28  1  0
 20 21  2  0
 20 27  1  0
 21 22  1  0
 22 23  2  0
 23 24  1  0
 23 26  1  0
 24 25  1  0
 26 27  2  0
M  CHG  1  25   1
M  END
