
     RDKit          3D

 28 30  0  0  0  0  0  0  0  0999 V2000
   -6.2670   -0.6450   -1.9710 C   0  0  0  0  0  0  0  0  0  0  0  0
   -5.5900   -0.4990   -0.8520 C   0  0  0  0  0  0  0  0  0  0  0  0
   -5.7840   -1.5470    0.1930 C   0  0  0  0  0  0  0  0  0  0  0  0
   -4.5730   -1.7320    1.0530 C   0  0  0  0  0  0  0  0  0  0  0  0
   -3.2850   -1.6330    0.2720 C   0  0  0  0  0  0  0  0  0  0  0  0
   -2.6820   -0.2610    0.5700 C   0  0  1  0  0  0  0  0  0  0  0  0
   -1.3210   -0.1890    0.0670 N   0  0  0  0  0  0  0  0  0  0  0  0
   -0.1880   -0.0650    0.9210 C   0  0  0  0  0  0  0  0  0  0  0  0
   -0.4090   -0.0180    2.1570 O   0  0  0  0  0  0  0  0  0  0  0  0
    1.1490    0.0090    0.4590 N   0  0  0  0  0  0  0  0  0  0  0  0
    2.2790    0.1420    1.3540 C   0  0  0  0  0  0  0  0  0  0  0  0
    3.5510   -0.2490    0.7050 C   0  0  0  0  0  0  0  0  0  0  0  0
    3.5730   -1.3020   -0.1540 C   0  0  0  0  0  0  0  0  0  0  0  0
    4.7570   -1.6390   -0.7400 C   0  0  0  0  0  0  0  0  0  0  0  0
    5.9090   -0.9040   -0.4490 C   0  0  0  0  0  0  0  0  0  0  0  0
    7.1770   -1.2820   -1.0900 C   0  0  0  0  0  0  0  0  0  0  0  0
    5.9010    0.1710    0.4240 C   0  0  0  0  0  0  0  0  0  0  0  0
    7.0900    0.9400    0.7300 C   0  0  0  0  0  0  0  0  0  0  0  0
    7.0080    2.0240    1.6260 N   0  0  0  0  0  0  0  0  0  0  0  0
    8.1750    0.6440    0.2070 O   0  0  0  0  0  0  0  0  0  0  0  0
    4.6640    0.4780    0.9990 C   0  0  0  0  0  0  0  0  0  0  0  0
   -3.4870    0.7640   -0.1380 C   0  0  0  0  0  0  0  0  0  0  0  0
   -2.8520    1.9790   -0.1660 C   0  0  0  0  0  0  0  0  0  0  0  0
   -1.6510    2.1310    0.4010 F   0  0  0  0  0  0  0  0  0  0  0  0
   -3.4550    3.0740   -0.7870 C   0  0  0  0  0  0  0  0  0  0  0  0
   -4.6550    2.9260   -1.3520 N   0  0  0  0  0  0  0  0  0  0  0  0
   -5.3330    1.7690   -1.3630 C   0  0  0  0  0  0  0  0  0  0  0  0
   -4.7200    0.6730   -0.7370 C   0  0  0  0  0  0  0  0  0  0  0  0
  1  2  2  0
  2  3  1  0
  2 28  1  0
  3  4  1  0
  4  5  1  0
  5  6  1  0
  6  7  1  6
  6 22  1  0
  7  8  1  0
  8  9  2  0
  8 10  1  0
 10 11  1  0
 11 12  1  0
 12 13  2  0
 12 21  1  0
 13 14  1  0
 14 15  2  0
 15 16  1  0
 15 17  1  0
 17 18  1  0
 17 21  2  0
 18 19  1  0
 18 20  2  0
 22 23  2  0
 22 28  1  0
 23 24  1  0
 23 25  1  0
 25 26  2  0
 26 27  1  0
 27 28  2  0
M  CHG  1  26   1
M  END
