
     RDKit          3D

 28 31  0  0  0  0  0  0  0  0999 V2000
    3.9600    0.6820    2.8720 C   0  0  0  0  0  0  0  0  0  0  0  0
    3.7280    0.8150    1.4540 N   0  0  0  0  0  0  0  0  0  0  0  0
    2.6930    0.2770    0.9370 C   0  0  0  0  0  0  0  0  0  0  0  0
    1.8360   -0.4140    1.7680 O   0  0  0  0  0  0  0  0  0  0  0  0
    2.4640    0.4180   -0.5080 C   0  0  1  0  0  0  0  0  0  0  0  0
    3.5850    1.2050   -1.0840 N   0  0  0  0  0  0  0  0  0  0  0  0
    2.4970   -0.8570   -1.2500 C   0  0  0  0  0  0  0  0  0  0  0  0
    3.5100   -1.7800   -1.0510 C   0  0  0  0  0  0  0  0  0  0  0  0
    3.5440   -2.9450   -1.7830 C   0  0  0  0  0  0  0  0  0  0  0  0
    2.5730   -3.1920   -2.7110 C   0  0  0  0  0  0  0  0  0  0  0  0
    1.5710   -2.3020   -2.9220 C   0  0  0  0  0  0  0  0  0  0  0  0
    1.5220   -1.1130   -2.1850 C   0  0  0  0  0  0  0  0  0  0  0  0
    0.4580   -0.2880   -2.4870 O   0  0  0  0  0  0  0  0  0  0  0  0
   -0.5120   -0.0350   -1.5380 C   0  0  0  0  0  0  0  0  0  0  0  0
   -0.5940   -0.7060   -0.3320 C   0  0  0  0  0  0  0  0  0  0  0  0
   -1.5580   -0.4510    0.6040 C   0  0  0  0  0  0  0  0  0  0  0  0
   -2.4800    0.5290    0.3040 C   0  0  0  0  0  0  0  0  0  0  0  0
   -3.3850    0.6940    1.3040 C   0  0  0  0  0  0  0  0  0  0  0  0
   -4.3680    1.6660    1.1030 C   0  0  0  0  0  0  0  0  0  0  0  0
   -4.3820    2.3990   -0.0680 C   0  0  0  0  0  0  0  0  0  0  0  0
   -5.3270    3.3370   -0.2680 F   0  0  0  0  0  0  0  0  0  0  0  0
   -3.4300    2.1880   -1.0590 C   0  0  0  0  0  0  0  0  0  0  0  0
   -3.4140    2.9220   -2.2750 N   0  0  0  0  0  0  0  0  0  0  0  0
   -2.4420    1.2190   -0.8710 C   0  0  0  0  0  0  0  0  0  0  0  0
   -1.4740    0.9540   -1.7950 C   0  0  0  0  0  0  0  0  0  0  0  0
   -3.0620   -0.2480    2.3830 C   0  0  1  0  0  0  0  0  0  0  0  0
   -4.2130   -1.1830    2.6850 C   0  0  0  0  0  0  0  0  0  0  0  0
   -1.8990   -0.9500    1.8940 N   0  0  0  0  0  0  0  0  0  0  0  0
  1  2  1  0
  2  3  2  3
  3  4  1  0
  3  5  1  0
  5  6  1  6
  5  7  1  0
  7  8  2  0
  7 12  1  0
  8  9  1  0
  9 10  2  0
 10 11  1  0
 11 12  2  0
 12 13  1  0
 13 14  1  0
 14 15  2  0
 14 25  1  0
 15 16  1  0
 16 17  2  0
 16 28  1  0
 17 18  1  0
 17 24  1  0
 18 19  2  0
 18 26  1  0
 19 20  1  0
 20 21  1  0
 20 22  2  0
 22 23  1  0
 22 24  1  0
 24 25  2  0
 26 27  1  6
 26 28  1  0
M  CHG  1   6   1
M  END
