
     RDKit          3D

 28 31  0  0  0  0  0  0  0  0999 V2000
   -6.0580    0.3350    0.4580 N   0  0  0  0  0  0  0  0  0  0  0  0
   -5.2680    0.6110    1.4450 C   0  0  0  0  0  0  0  0  0  0  0  0
   -3.8610    0.6190    1.2080 N   0  0  0  0  0  0  0  0  0  0  0  0
   -3.2060   -0.4550    0.5500 C   0  0  0  0  0  0  0  0  0  0  0  0
   -3.8830   -1.6170    0.2660 C   0  0  0  0  0  0  0  0  0  0  0  0
   -3.3070   -2.7210   -0.3460 C   0  0  0  0  0  0  0  0  0  0  0  0
   -1.9980   -2.6790   -0.6970 C   0  0  0  0  0  0  0  0  0  0  0  0
   -1.4380   -3.7610   -1.2970 F   0  0  0  0  0  0  0  0  0  0  0  0
   -1.2860   -1.5270   -0.4270 C   0  0  0  0  0  0  0  0  0  0  0  0
   -1.8680   -0.4160    0.1900 C   0  0  0  0  0  0  0  0  0  0  0  0
   -1.0710    0.8010    0.4430 C   0  0  2  0  0  0  0  0  0  0  0  0
   -1.1270    1.0060    1.8360 O   0  0  0  0  0  0  0  0  0  0  0  0
   -1.6170    2.0190   -0.2310 C   0  0  0  0  0  0  0  0  0  0  0  0
   -0.7950    2.4640   -1.4110 C   0  0  0  0  0  0  0  0  0  0  0  0
   -0.1270    1.3110   -2.1100 C   0  0  0  0  0  0  0  0  0  0  0  0
    0.7430    0.6340   -1.2020 N   0  0  0  0  0  0  0  0  0  0  0  0
    1.9410    0.0320   -1.7170 C   0  0  0  0  0  0  0  0  0  0  0  0
    2.2300    0.0920   -2.9390 O   0  0  0  0  0  0  0  0  0  0  0  0
    2.8380   -0.6610   -0.8060 C   0  0  0  0  0  0  0  0  0  0  0  0
    2.7560   -2.0000   -0.4980 C   0  0  0  0  0  0  0  0  0  0  0  0
    3.7530   -2.2860    0.3800 N   0  0  0  0  0  0  0  0  0  0  0  0
    4.4770   -1.1770    0.6500 C   0  0  0  0  0  0  0  0  0  0  0  0
    5.5670   -0.9300    1.4530 C   0  0  0  0  0  0  0  0  0  0  0  0
    6.1060    0.3530    1.5260 C   0  0  0  0  0  0  0  0  0  0  0  0
    5.5480    1.3780    0.7940 C   0  0  0  0  0  0  0  0  0  0  0  0
    4.4630    1.1050    0.0010 C   0  0  0  0  0  0  0  0  0  0  0  0
    3.9060   -0.1620   -0.0900 C   0  0  0  0  0  0  0  0  0  0  0  0
    0.3930    0.5850    0.1760 C   0  0  0  0  0  0  0  0  0  0  0  0
  1  2  2  0
  2  3  1  0
  3  4  1  0
  4  5  2  0
  4 10  1  0
  5  6  1  0
  6  7  2  0
  7  8  1  0
  7  9  1  0
  9 10  2  0
 10 11  1  0
 11 12  1  1
 11 13  1  0
 11 28  1  0
 13 14  1  0
 14 15  1  0
 15 16  1  0
 16 17  1  0
 16 28  1  0
 17 18  2  0
 17 19  1  0
 19 20  2  0
 19 27  1  0
 20 21  1  0
 21 22  1  0
 22 23  2  0
 22 27  1  0
 23 24  1  0
 24 25  2  0
 25 26  1  0
 26 27  2  0
M  CHG  1   1   1
M  END
