
     RDKit          3D

 28 30  0  0  0  0  0  0  0  0999 V2000
   -1.0630   -2.4550    4.2300 C   0  0  0  0  0  0  0  0  0  0  0  0
   -1.0160   -2.4050    2.7470 C   0  0  0  0  0  0  0  0  0  0  0  0
   -0.5930   -1.3730    2.0240 N   0  0  0  0  0  0  0  0  0  0  0  0
   -0.5630   -1.2880    0.6740 C   0  0  0  0  0  0  0  0  0  0  0  0
   -0.1310   -0.0460    0.0520 C   0  0  1  0  0  0  0  0  0  0  0  0
    1.4040   -0.0350    0.2580 C   0  0  0  0  0  0  0  0  0  0  0  0
    2.0940    1.2050   -0.0610 C   0  0  1  0  0  0  0  0  0  0  0  0
    3.2760    0.9670   -0.9130 C   0  0  0  0  0  0  0  0  0  0  0  0
    4.5080    1.0850   -0.4560 C   0  0  0  0  0  0  0  0  0  0  0  0
    5.7120    0.8730   -1.2630 C   0  0  0  0  0  0  0  0  0  0  0  0
    6.7530    0.9930   -0.4600 C   0  0  0  0  0  0  0  0  0  0  0  0
    6.2740    1.2850    0.8920 C   0  0  0  0  0  0  0  0  0  0  0  0
    7.1160    1.4640    1.9550 F   0  0  0  0  0  0  0  0  0  0  0  0
    4.9610    1.3420    0.8920 C   0  0  0  0  0  0  0  0  0  0  0  0
    1.1690    2.1690   -0.7850 C   0  0  0  0  0  0  0  0  0  0  0  0
    0.3830    1.3030   -1.7810 C   0  0  0  0  0  0  0  0  0  0  0  0
   -0.6570    0.5140   -1.0800 N   0  0  0  0  0  0  0  0  0  0  0  0
   -1.7820    1.3860   -1.0180 C   0  0  0  0  0  0  0  0  0  0  0  0
   -2.9400    1.0110   -0.1860 C   0  0  0  0  0  0  0  0  0  0  0  0
   -4.0530    2.0840   -0.2460 C   0  0  0  0  0  0  0  0  0  0  0  0
   -3.6060    3.3500    0.2550 N   0  0  0  0  0  0  0  0  0  0  0  0
   -1.0170   -2.3830    0.0090 C   0  0  0  0  0  0  0  0  0  0  0  0
   -1.0380   -2.4920   -1.4130 C   0  0  0  0  0  0  0  0  0  0  0  0
   -2.3950   -2.2800   -2.0350 C   0  0  0  0  0  0  0  0  0  0  0  0
   -3.3640   -3.1910   -1.5580 O   0  0  0  0  0  0  0  0  0  0  0  0
   -1.4820   -3.5170    0.7130 C   0  0  0  0  0  0  0  0  0  0  0  0
   -1.9050   -4.5410    0.1320 O   0  0  0  0  0  0  0  0  0  0  0  0
   -1.4650   -3.4910    2.0520 N   0  0  0  0  0  0  0  0  0  0  0  0
  1  2  1  0
  2  3  2  0
  2 28  1  0
  3  4  1  0
  5  4  1  6
  4 22  2  0
  5  6  1  0
  5 17  1  0
  6  7  1  0
  7  8  1  6
  7 15  1  0
  8  9  2  3
  9 10  1  0
  9 14  1  0
 10 11  2  0
 11 12  1  0
 12 13  1  0
 12 14  2  0
 15 16  1  0
 16 17  1  0
 17 18  1  0
 18 19  1  0
 19 20  1  0
 20 21  1  0
 22 23  1  0
 22 26  1  0
 23 24  1  0
 24 25  1  0
 26 27  2  0
 26 28  1  0
M  CHG  1  21   1
M  END
