
     RDKit          3D

 28 31  0  0  0  0  0  0  0  0999 V2000
   -7.8680   -1.0160   -2.4280 C   0  0  0  0  0  0  0  0  0  0  0  0
   -6.6000   -0.7790   -1.8700 O   0  0  0  0  0  0  0  0  0  0  0  0
   -6.4960   -0.2610   -0.5940 C   0  0  0  0  0  0  0  0  0  0  0  0
   -7.6180    0.0230    0.1330 C   0  0  0  0  0  0  0  0  0  0  0  0
   -7.5680    0.5400    1.4070 C   0  0  0  0  0  0  0  0  0  0  0  0
   -6.3330    0.7740    1.9570 C   0  0  0  0  0  0  0  0  0  0  0  0
   -6.2060    1.2790    3.2030 F   0  0  0  0  0  0  0  0  0  0  0  0
   -5.1860    0.4870    1.2240 C   0  0  0  0  0  0  0  0  0  0  0  0
   -5.2200   -0.0270   -0.0460 C   0  0  0  0  0  0  0  0  0  0  0  0
   -4.0670   -0.3620   -0.8990 C   0  0  0  0  0  0  0  0  0  0  0  0
   -2.8160   -0.0900   -0.2550 N   0  0  0  0  0  0  0  0  0  0  0  0
   -1.5610   -0.3450   -0.9150 C   0  0  0  0  0  0  0  0  0  0  0  0
   -1.6030   -0.8140   -2.0710 O   0  0  0  0  0  0  0  0  0  0  0  0
   -0.2780   -0.0740   -0.2750 C   0  0  0  0  0  0  0  0  0  0  0  0
    0.9800   -0.2770   -0.8060 C   0  0  0  0  0  0  0  0  0  0  0  0
    1.9090    0.1110    0.1320 C   0  0  0  0  0  0  0  0  0  0  0  0
    3.3080    0.1330    0.1540 C   0  0  0  0  0  0  0  0  0  0  0  0
    4.0250    0.5790    1.2390 C   0  0  0  0  0  0  0  0  0  0  0  0
    3.2820    1.0190    2.3420 C   0  0  0  0  0  0  0  0  0  0  0  0
    1.9110    1.0170    2.3700 C   0  0  0  0  0  0  0  0  0  0  0  0
    1.2250    0.5580    1.2510 C   0  0  0  0  0  0  0  0  0  0  0  0
   -0.0810    0.4280    0.9600 N   0  0  0  0  0  0  0  0  0  0  0  0
    5.5090    0.6090    1.2800 C   0  0  0  0  0  0  0  0  0  0  0  0
    6.0540    0.4060   -0.0920 C   0  0  1  0  0  0  0  0  0  0  0  0
    7.5390    0.2110   -0.0610 C   0  0  0  0  0  0  0  0  0  0  0  0
    7.9660   -0.9200    0.7090 N   0  0  0  0  0  0  0  0  0  0  0  0
    5.3910   -0.7290   -0.7070 N   0  0  0  0  0  0  0  0  0  0  0  0
    4.0380   -0.3440   -1.0430 C   0  0  0  0  0  0  0  0  0  0  0  0
  1  2  1  0
  2  3  1  0
  3  4  2  0
  3  9  1  0
  4  5  1  0
  5  6  2  0
  6  7  1  0
  6  8  1  0
  8  9  2  0
  9 10  1  0
 10 11  1  0
 11 12  1  0
 12 13  2  0
 12 14  1  0
 14 15  2  0
 14 22  1  0
 15 16  1  0
 16 17  2  0
 16 21  1  0
 17 18  1  0
 17 28  1  0
 18 19  2  0
 18 23  1  0
 19 20  1  0
 20 21  2  0
 21 22  1  0
 23 24  1  0
 24 25  1  1
 24 27  1  0
 25 26  1  0
 27 28  1  0
M  CHG  1  27   1
M  END
