
     RDKit          3D

 32 36  0  0  0  0  0  0  0  0999 V2000
    8.1770    0.6150   -0.6120 C   0  0  0  0  0  0  0  0  0  0  0  0
    7.0410   -0.0350   -0.4570 C   0  0  0  0  0  0  0  0  0  0  0  0
    5.8490    0.6860    0.0350 C   0  0  0  0  0  0  0  0  0  0  0  0
    4.6890    0.1060    0.2290 C   0  0  0  0  0  0  0  0  0  0  0  0
    3.3960    0.6400    0.6910 C   0  0  0  0  0  0  0  0  0  0  0  0
    2.3500    0.0680    0.2190 C   0  0  0  0  0  0  0  0  0  0  0  0
    0.9340    0.2330    0.3690 C   0  0  0  0  0  0  0  0  0  0  0  0
    0.1140   -0.6550   -0.3220 N   0  0  0  0  0  0  0  0  0  0  0  0
   -1.2080   -0.6100   -0.2400 C   0  0  0  0  0  0  0  0  0  0  0  0
   -1.9010   -1.5620   -0.9700 C   0  0  0  0  0  0  0  0  0  0  0  0
   -3.2550   -1.5930   -0.9300 C   0  0  0  0  0  0  0  0  0  0  0  0
   -3.9220   -0.6600   -0.1510 C   0  0  0  0  0  0  0  0  0  0  0  0
   -5.3380   -0.7690   -0.1520 N   0  0  0  0  0  0  0  0  0  0  0  0
   -5.9160   -1.9610    0.4400 C   0  0  0  0  0  0  0  0  0  0  0  0
   -7.1880   -2.4110   -0.1900 C   0  0  0  0  0  0  0  0  0  0  0  0
   -7.9050   -1.4260   -0.9320 N   0  0  0  0  0  0  0  0  0  0  0  0
   -7.6820   -0.0570   -0.4670 C   0  0  0  0  0  0  0  0  0  0  0  0
   -6.2300    0.1950   -0.6850 C   0  0  0  0  0  0  0  0  0  0  0  0
   -5.7630    1.1770   -1.2910 O   0  0  0  0  0  0  0  0  0  0  0  0
   -3.2240    0.2810    0.5690 C   0  0  0  0  0  0  0  0  0  0  0  0
   -1.8430    0.3100    0.5270 C   0  0  0  0  0  0  0  0  0  0  0  0
   -1.1160    1.1850    1.2100 N   0  0  0  0  0  0  0  0  0  0  0  0
    0.2600    1.1420    1.1270 C   0  0  0  0  0  0  0  0  0  0  0  0
    0.9840    2.1710    1.9090 C   0  0  0  0  0  0  0  0  0  0  0  0
    1.4140    3.2970    1.0060 C   0  0  0  0  0  0  0  0  0  0  0  0
    2.1730    4.3640    1.7850 C   0  0  0  0  0  0  0  0  0  0  0  0
    3.0000   -1.2850   -0.8670 S   0  0  0  0  0  0  0  0  0  0  0  0
    4.5870   -1.3870    0.0780 C   0  0  1  0  0  0  0  0  0  0  0  0
    5.6200   -2.0410   -0.5610 N   0  0  0  0  0  0  0  0  0  0  0  0
    6.9200   -1.4430   -0.7590 C   0  0  0  0  0  0  0  0  0  0  0  0
    7.9160   -2.2130   -1.1990 C   0  0  0  0  0  0  0  0  0  0  0  0
    9.1490   -1.8110   -1.4230 F   0  0  0  0  0  0  0  0  0  0  0  0
  1  2  2  0
  2  3  1  0
  2 30  1  0
  3  4  2  0
  4  5  1  0
  4 28  1  0
  5  6  2  0
  6  7  1  0
  6 27  1  0
  7  8  2  0
  7 23  1  0
  8  9  1  0
  9 10  2  0
  9 21  1  0
 10 11  1  0
 11 12  2  0
 12 13  1  0
 12 20  1  0
 13 14  1  0
 13 18  1  0
 14 15  1  0
 15 16  1  0
 16 17  1  0
 17 18  1  0
 18 19  2  0
 20 21  2  0
 21 22  1  0
 22 23  2  0
 23 24  1  0
 24 25  1  0
 25 26  1  0
 27 28  1  0
 28 29  1  6
 29 30  1  0
 30 31  2  3
 31 32  1  0
M  CHG  1  16   1
M  END
