
     RDKit          3D

 32 35  0  0  0  0  0  0  0  0999 V2000
    6.3440    0.0500    1.4220 C   0  0  0  0  0  0  0  0  0  0  0  0
    6.1900    0.4890    2.6530 C   0  0  0  0  0  0  0  0  0  0  0  0
    7.3350    0.6780    3.5840 C   0  0  0  0  0  0  0  0  0  0  0  0
    6.8310    1.1510    4.6950 C   0  0  0  0  0  0  0  0  0  0  0  0
    7.5480    1.4630    5.8010 F   0  0  0  0  0  0  0  0  0  0  0  0
    5.4110    1.2980    4.5790 C   0  0  0  0  0  0  0  0  0  0  0  0
    4.9970    0.9040    3.3550 C   0  0  0  0  0  0  0  0  0  0  0  0
    3.6260    0.9660    2.9000 C   0  0  0  0  0  0  0  0  0  0  0  0
    3.0810    0.3860    1.8040 C   0  0  0  0  0  0  0  0  0  0  0  0
    1.7760    0.5440    1.3910 C   0  0  0  0  0  0  0  0  0  0  0  0
    1.2750   -0.1200    0.2240 N   0  0  0  0  0  0  0  0  0  0  0  0
    2.1200   -1.1710   -0.2910 C   0  0  0  0  0  0  0  0  0  0  0  0
    1.4560   -1.9680   -1.3390 C   0  0  0  0  0  0  0  0  0  0  0  0
   -0.0280   -2.1150   -1.1530 C   0  0  1  0  0  0  0  0  0  0  0  0
   -0.3140   -2.8700    0.1300 C   0  0  0  0  0  0  0  0  0  0  0  0
   -0.6980   -0.7550   -1.1540 C   0  0  1  0  0  0  0  0  0  0  0  0
   -2.0960   -0.8550   -0.8230 N   0  0  0  0  0  0  0  0  0  0  0  0
   -3.1470   -0.4820   -1.7610 C   0  0  0  0  0  0  0  0  0  0  0  0
   -2.7670   -0.0570   -2.8680 O   0  0  0  0  0  0  0  0  0  0  0  0
   -4.4930   -0.5920   -1.4500 N   0  0  0  0  0  0  0  0  0  0  0  0
   -5.6070   -0.2460   -2.1960 C   0  0  0  0  0  0  0  0  0  0  0  0
   -7.2110   -0.7820   -1.6940 S   0  0  0  0  0  0  0  0  0  0  0  0
   -8.2050    0.0260   -3.0140 C   0  0  0  0  0  0  0  0  0  0  0  0
   -7.1690    0.6350   -3.7110 C   0  0  0  0  0  0  0  0  0  0  0  0
   -7.6290    1.4350   -4.9410 C   0  0  0  0  0  0  0  0  0  0  0  0
   -5.9040    0.5120   -3.3230 C   0  0  0  0  0  0  0  0  0  0  0  0
   -4.8110    1.2370   -4.0430 C   0  0  0  0  0  0  0  0  0  0  0  0
   -3.9630    1.8240   -4.6040 N   0  0  0  0  0  0  0  0  0  0  0  0
    0.0560    0.2630   -0.3790 C   0  0  0  0  0  0  0  0  0  0  0  0
    0.9780    1.3530    2.1540 C   0  0  0  0  0  0  0  0  0  0  0  0
    1.4970    1.9730    3.2990 C   0  0  0  0  0  0  0  0  0  0  0  0
    2.7610    1.7620    3.6180 N   0  0  0  0  0  0  0  0  0  0  0  0
  1  2  2  0
  2  3  1  0
  2  7  1  0
  3  4  2  0
  4  5  1  0
  4  6  1  0
  6  7  2  0
  7  8  1  0
  8  9  2  0
  8 32  1  0
  9 10  1  0
 10 11  1  0
 10 30  2  0
 11 12  1  0
 11 29  1  0
 12 13  1  0
 13 14  1  0
 14 15  1  1
 14 16  1  0
 16 17  1  1
 16 29  1  0
 17 18  1  0
 18 19  2  0
 18 20  1  0
 20 21  1  0
 21 22  1  0
 21 26  2  0
 22 23  1  0
 23 24  2  0
 24 25  1  0
 24 26  1  0
 26 27  1  0
 27 28  3  0
 30 31  1  0
 31 32  2  0
M  CHG  1  32   1
M  END
