
     RDKit          3D

 33 36  0  0  0  0  0  0  0  0999 V2000
   -3.4700    3.5960   -0.6580 C   0  0  0  0  0  0  0  0  0  0  0  0
   -2.5840    2.6700   -0.5430 C   0  0  0  0  0  0  0  0  0  0  0  0
   -2.4590    1.5520   -1.4440 C   0  0  0  0  0  0  0  0  0  0  0  0
   -2.7020    1.6740   -2.7330 C   0  0  0  0  0  0  0  0  0  0  0  0
   -3.1070    2.8930   -3.4200 C   0  0  0  0  0  0  0  0  0  0  0  0
   -1.9800    0.2840   -0.9390 N   0  0  0  0  0  0  0  0  0  0  0  0
   -1.6300    0.0100    0.2540 C   0  0  0  0  0  0  0  0  0  0  0  0
   -1.1790   -1.3400    0.5610 N   0  0  0  0  0  0  0  0  0  0  0  0
    0.2220   -1.6650    0.5550 C   0  0  0  0  0  0  0  0  0  0  0  0
    0.9820   -0.8250    1.5220 C   0  0  0  0  0  0  0  0  0  0  0  0
    1.1970   -1.1540    2.8030 N   0  0  0  0  0  0  0  0  0  0  0  0
    1.9070   -0.1810    3.3730 N   0  0  0  0  0  0  0  0  0  0  0  0
    2.1270    0.7630    2.4070 C   0  0  0  0  0  0  0  0  0  0  0  0
    2.8820    2.0120    2.6320 C   0  0  0  0  0  0  0  0  0  0  0  0
    4.6290    1.8340    2.3500 S   0  0  0  0  0  0  0  0  0  0  0  0
    5.0200    1.6130    0.6330 C   0  0  0  0  0  0  0  0  0  0  0  0
    6.3610    1.3480    0.3370 C   0  0  0  0  0  0  0  0  0  0  0  0
    6.7420    1.1830   -0.9720 C   0  0  0  0  0  0  0  0  0  0  0  0
    5.7990    1.2820   -1.9780 C   0  0  0  0  0  0  0  0  0  0  0  0
    4.4700    1.5450   -1.7020 C   0  0  0  0  0  0  0  0  0  0  0  0
    4.0940    1.7110   -0.3620 C   0  0  0  0  0  0  0  0  0  0  0  0
    1.5530    0.3130    1.3460 O   0  0  0  0  0  0  0  0  0  0  0  0
   -2.1390   -2.3420    0.9030 C   0  0  0  0  0  0  0  0  0  0  0  0
   -2.0470   -3.6080    0.1530 C   0  0  0  0  0  0  0  0  0  0  0  0
   -1.2230   -4.0110   -0.8670 C   0  0  0  0  0  0  0  0  0  0  0  0
   -1.5570   -5.2630   -1.2220 N   0  0  0  0  0  0  0  0  0  0  0  0
   -2.5600   -5.6600   -0.4630 N   0  0  0  0  0  0  0  0  0  0  0  0
   -2.9020   -4.6920    0.3950 C   0  0  0  0  0  0  0  0  0  0  0  0
   -3.9860   -4.7190    1.4340 C   0  0  0  0  0  0  0  0  0  0  0  0
   -1.5990    0.9380    1.3180 N   0  0  0  0  0  0  0  0  0  0  0  0
   -1.4650    2.6220    0.8440 S   0  0  2  0  0  0  0  0  0  0  0  0
   -1.8890    3.5410    1.9200 O   0  0  0  0  0  0  0  0  0  0  0  0
   -0.1010    2.9180    0.3050 O   0  0  0  0  0  0  0  0  0  0  0  0
  1  2  2  0
  2  3  1  0
  2 31  1  0
  3  4  2  3
  3  6  1  0
  4  5  1  0
  6  7  2  0
  7  8  1  0
  7 30  1  0
  8  9  1  0
  8 23  1  0
  9 10  1  0
 10 11  2  0
 10 22  1  0
 11 12  1  0
 12 13  2  0
 13 14  1  0
 13 22  1  0
 14 15  1  0
 15 16  1  0
 16 17  2  0
 16 21  1  0
 17 18  1  0
 18 19  2  0
 19 20  1  0
 20 21  2  0
 23 24  1  0
 24 25  2  0
 24 28  1  0
 25 26  1  0
 26 27  1  0
 27 28  2  0
 28 29  1  0
 31 30  1  1
 31 32  2  0
 31 33  2  0
M  END
