
     RDKit          3D

 31 35  0  0  0  0  0  0  0  0999 V2000
   -3.1490    3.9170   -1.9740 C   0  0  0  0  0  0  0  0  0  0  0  0
   -1.9940    3.4840   -1.0990 C   0  0  0  0  0  0  0  0  0  0  0  0
   -2.1700    2.0120   -0.8190 C   0  0  1  0  0  0  0  0  0  0  0  0
   -1.0380    1.4840    0.0670 C   0  0  0  0  0  0  0  0  0  0  0  0
   -0.8410    0.0500   -0.1470 C   0  0  0  0  0  0  0  0  0  0  0  0
    0.6710   -0.6620   -0.5670 S   0  0  2  0  0  0  0  0  0  0  0  0
    1.3440    0.1850   -1.6020 O   0  0  0  0  0  0  0  0  0  0  0  0
    0.3240   -2.0370   -1.3180 N   0  0  0  0  0  0  0  0  0  0  0  0
    0.7790   -3.2080   -0.7040 C   0  0  0  0  0  0  0  0  0  0  0  0
    0.5760   -3.3650    0.7700 C   0  0  0  0  0  0  0  0  0  0  0  0
    1.0500   -2.2000    1.5870 C   0  0  0  0  0  0  0  0  0  0  0  0
    1.7150   -1.1460    0.7220 C   0  0  2  0  0  0  0  0  0  0  0  0
    2.5610   -0.1660    1.4190 C   0  0  0  0  0  0  0  0  0  0  0  0
    3.5590    0.5140    0.6040 N   0  0  0  0  0  0  0  0  0  0  0  0
    3.5300    1.6880   -0.0360 C   0  0  0  0  0  0  0  0  0  0  0  0
    2.4720    2.6230   -0.0310 N   0  0  0  0  0  0  0  0  0  0  0  0
    4.6960    1.9050   -0.7040 N   0  0  0  0  0  0  0  0  0  0  0  0
    5.4470    0.8210   -0.4530 C   0  0  0  0  0  0  0  0  0  0  0  0
    6.7360    0.4490   -0.8500 C   0  0  0  0  0  0  0  0  0  0  0  0
    7.3110   -0.7370   -0.4590 C   0  0  0  0  0  0  0  0  0  0  0  0
    6.6110   -1.6010    0.3510 C   0  0  0  0  0  0  0  0  0  0  0  0
    5.3210   -1.2600    0.7650 C   0  0  0  0  0  0  0  0  0  0  0  0
    4.7670   -0.0570    0.3550 C   0  0  0  0  0  0  0  0  0  0  0  0
   -1.8390   -0.8320   -0.0330 C   0  0  0  0  0  0  0  0  0  0  0  0
   -3.2680   -0.6410    0.3040 C   0  0  0  0  0  0  0  0  0  0  0  0
   -3.9420    0.4960    0.2450 C   0  0  0  0  0  0  0  0  0  0  0  0
   -5.3890    0.6080    0.6030 C   0  0  0  0  0  0  0  0  0  0  0  0
   -6.0700   -0.7180    0.3310 C   0  0  0  0  0  0  0  0  0  0  0  0
   -5.3360   -1.7580    1.1140 C   0  0  0  0  0  0  0  0  0  0  0  0
   -3.9050   -1.9300    0.7390 C   0  0  0  0  0  0  0  0  0  0  0  0
   -3.4420    1.7900   -0.1570 N   0  0  0  0  0  0  0  0  0  0  0  0
  1  2  1  0
  3  2  1  1
  3  4  1  0
  3 31  1  0
  4  5  1  0
  6  5  1  1
  5 24  2  0
  6  7  2  0
  6  8  2  0
  6 12  1  0
  8  9  1  0
  9 10  1  0
 10 11  1  0
 11 12  1  0
 12 13  1  1
 13 14  1  0
 14 15  1  0
 14 23  1  0
 15 16  1  0
 15 17  2  0
 17 18  1  0
 18 19  2  0
 18 23  1  0
 19 20  1  0
 20 21  2  0
 21 22  1  0
 22 23  2  0
 24 25  1  0
 25 26  2  0
 25 30  1  0
 26 27  1  0
 26 31  1  0
 27 28  1  0
 28 29  1  0
 29 30  1  0
M  CHG  1  17   1
M  END
