
     RDKit          3D

 33 36  0  0  0  0  0  0  0  0999 V2000
    7.2980   -3.4610    0.0880 C   0  0  0  0  0  0  0  0  0  0  0  0
    7.3080   -2.2820    1.0350 C   0  0  0  0  0  0  0  0  0  0  0  0
    6.1970   -1.3800    0.6500 C   0  0  0  0  0  0  0  0  0  0  0  0
    5.2460   -1.1180    1.5180 C   0  0  0  0  0  0  0  0  0  0  0  0
    4.1950   -0.2360    1.0870 N   0  0  0  0  0  0  0  0  0  0  0  0
    2.8860   -0.6960    1.0730 C   0  0  0  0  0  0  0  0  0  0  0  0
    2.6990   -1.9290    1.4480 O   0  0  0  0  0  0  0  0  0  0  0  0
    1.7010    0.0380    0.6820 C   0  0  0  0  0  0  0  0  0  0  0  0
    0.6000   -0.6900    0.2020 C   0  0  0  0  0  0  0  0  0  0  0  0
   -0.5500   -0.1040   -0.2340 C   0  0  0  0  0  0  0  0  0  0  0  0
   -1.8710   -1.0920   -0.8140 S   0  0  2  0  0  0  0  0  0  0  0  0
   -1.3870   -2.5090   -0.8950 O   0  0  0  0  0  0  0  0  0  0  0  0
   -2.1090   -0.6720   -2.2630 O   0  0  0  0  0  0  0  0  0  0  0  0
   -3.3020   -0.9070    0.0570 N   0  0  0  0  0  0  0  0  0  0  0  0
   -4.3490   -0.3410   -0.6980 C   0  0  0  0  0  0  0  0  0  0  0  0
   -5.2700   -1.2470   -1.3910 C   0  0  0  0  0  0  0  0  0  0  0  0
   -5.1840   -2.6940   -0.9980 C   0  0  0  0  0  0  0  0  0  0  0  0
   -5.8480   -3.6790   -1.7150 C   0  0  0  0  0  0  0  0  0  0  0  0
   -5.3900   -5.1600   -0.8000 S   0  0  0  0  0  0  0  0  0  0  0  0
   -4.4360   -4.4280    0.3630 C   0  0  0  0  0  0  0  0  0  0  0  0
   -4.4720   -3.0600    0.0470 C   0  0  0  0  0  0  0  0  0  0  0  0
   -3.7460   -1.9980    0.8390 C   0  0  0  0  0  0  0  0  0  0  0  0
   -0.6370    1.2720   -0.2020 C   0  0  0  0  0  0  0  0  0  0  0  0
   -1.7250    1.8270   -0.6160 N   0  0  0  0  0  0  0  0  0  0  0  0
   -1.7960    3.2600   -0.5760 C   0  0  0  0  0  0  0  0  0  0  0  0
   -2.5350    3.9230    0.3740 C   0  0  0  0  0  0  0  0  0  0  0  0
   -2.3980    5.2300    0.1440 N   0  0  0  0  0  0  0  0  0  0  0  0
   -1.6060    5.3730   -0.9070 N   0  0  0  0  0  0  0  0  0  0  0  0
   -1.2470    6.6810   -1.4290 C   0  0  0  0  0  0  0  0  0  0  0  0
   -1.2300    4.1750   -1.3570 N   0  0  0  0  0  0  0  0  0  0  0  0
    0.4090    1.9650    0.2540 N   0  0  0  0  0  0  0  0  0  0  0  0
    1.5690    1.3910    0.6960 C   0  0  0  0  0  0  0  0  0  0  0  0
    2.6290    2.3140    1.2220 C   0  0  0  0  0  0  0  0  0  0  0  0
  1  2  1  0
  2  3  1  0
  3  4  2  3
  4  5  1  0
  5  6  1  0
  6  7  2  0
  6  8  1  0
  8  9  1  0
  8 32  2  0
  9 10  2  0
 10 11  1  0
 10 23  1  0
 11 12  2  0
 11 13  2  0
 11 14  1  1
 14 15  1  0
 14 22  1  0
 15 16  1  0
 16 17  1  0
 17 18  2  0
 17 21  1  0
 18 19  1  0
 19 20  1  0
 20 21  2  0
 21 22  1  0
 23 24  2  3
 23 31  1  0
 24 25  1  0
 25 26  1  0
 25 30  2  0
 26 27  2  0
 27 28  1  0
 28 29  1  0
 28 30  1  0
 31 32  1  0
 32 33  1  0
M  END
