
     RDKit          3D

 32 36  0  0  0  0  0  0  0  0999 V2000
    2.0150   -1.3780   -0.3070 O   0  0  0  0  0  0  0  0  0  0  0  0
    2.0190   -0.1330   -0.3930 C   0  0  0  0  0  0  0  0  0  0  0  0
    0.7560    0.5610   -0.2550 N   0  0  0  0  0  0  0  0  0  0  0  0
   -0.4060   -0.2650   -0.0270 C   0  0  0  0  0  0  0  0  0  0  0  0
   -1.6900    0.4630    0.1300 C   0  0  1  0  0  0  0  0  0  0  0  0
   -2.7580   -0.6370    0.3270 C   0  0  0  0  0  0  0  0  0  0  0  0
   -3.7160   -0.0830    1.2250 N   0  0  2  0  0  0  0  0  0  0  0  0
   -4.7490    0.5800    0.4830 C   0  0  0  0  0  0  0  0  0  0  0  0
   -5.7190   -0.3370   -0.1640 C   0  0  0  0  0  0  0  0  0  0  0  0
   -5.5980   -1.6170   -0.0410 C   0  0  0  0  0  0  0  0  0  0  0  0
   -6.4520   -2.6340   -0.6040 C   0  0  0  0  0  0  0  0  0  0  0  0
   -7.5030   -2.3830   -1.3420 C   0  0  0  0  0  0  0  0  0  0  0  0
   -7.9570   -0.7120   -1.7080 S   0  0  0  0  0  0  0  0  0  0  0  0
   -6.7880    0.3870   -0.9300 C   0  0  1  0  0  0  0  0  0  0  0  0
   -7.3850    1.3540   -0.1470 F   0  0  0  0  0  0  0  0  0  0  0  0
   -2.9980    0.8530    2.0500 C   0  0  0  0  0  0  0  0  0  0  0  0
   -3.3260    1.4000    3.2650 C   0  0  0  0  0  0  0  0  0  0  0  0
   -2.4910    2.2600    3.8570 N   0  0  0  0  0  0  0  0  0  0  0  0
   -1.3200    2.6400    3.3360 C   0  0  0  0  0  0  0  0  0  0  0  0
   -0.9870    2.0840    2.1020 C   0  0  0  0  0  0  0  0  0  0  0  0
   -1.8120    1.1930    1.4490 C   0  0  0  0  0  0  0  0  0  0  0  0
    3.2200    0.5460   -0.6160 N   0  0  0  0  0  0  0  0  0  0  0  0
    4.5220   -0.0120   -0.7670 C   0  0  0  0  0  0  0  0  0  0  0  0
    4.8270   -1.3390   -0.6800 C   0  0  0  0  0  0  0  0  0  0  0  0
    6.1000   -1.8540   -0.8340 C   0  0  0  0  0  0  0  0  0  0  0  0
    7.1530   -1.0030   -1.0930 C   0  0  0  0  0  0  0  0  0  0  0  0
    8.4090   -1.4550   -1.2500 N   0  0  0  0  0  0  0  0  0  0  0  0
    9.4330   -0.6390   -1.5010 C   0  0  0  0  0  0  0  0  0  0  0  0
    9.1930    0.7040   -1.6010 C   0  0  0  0  0  0  0  0  0  0  0  0
    7.9150    1.1940   -1.4440 C   0  0  0  0  0  0  0  0  0  0  0  0
    6.8630    0.3430   -1.1850 C   0  0  0  0  0  0  0  0  0  0  0  0
    5.5960    0.8380   -1.0300 C   0  0  0  0  0  0  0  0  0  0  0  0
  1  2  2  0
  2  3  1  0
  2 22  1  0
  3  4  1  0
  5  4  1  1
  5  6  1  0
  5 21  1  0
  6  7  1  0
  7  8  1  6
  7 16  1  0
  8  9  1  0
  9 10  2  0
  9 14  1  0
 10 11  1  0
 11 12  2  0
 12 13  1  0
 13 14  1  0
 14 15  1  1
 16 17  2  0
 16 21  1  0
 17 18  1  0
 18 19  2  0
 19 20  1  0
 20 21  2  0
 22 23  1  0
 23 24  2  0
 23 32  1  0
 24 25  1  0
 25 26  2  0
 26 27  1  0
 26 31  1  0
 27 28  2  0
 28 29  1  0
 29 30  2  0
 30 31  1  0
 31 32  2  0
M  CHG  1   7   1
M  END
