
     RDKit          3D

 23 24  0  0  0  0  0  0  0  0999 V2000
    1.2560   -2.2900   -2.4420 O   0  0  0  0  0  0  0  0  0  0  0  0
    1.2540   -3.0270   -1.4030 C   0  0  0  0  0  0  0  0  0  0  0  0
    1.3270   -4.3910   -1.5870 O   0  0  0  0  0  0  0  0  0  0  0  0
    1.1770   -2.4170   -0.0760 C   0  0  0  0  0  0  0  0  0  0  0  0
    1.1100   -0.9040   -0.2340 N   0  0  0  0  0  0  0  0  0  0  0  0
   -0.1770   -0.4210   -0.3390 C   0  0  0  0  0  0  0  0  0  0  0  0
   -0.6120    0.7270   -0.4750 O   0  0  0  0  0  0  0  0  0  0  0  0
   -1.2450   -1.3830   -0.2850 O   0  0  0  0  0  0  0  0  0  0  0  0
   -2.5250   -0.9870   -0.3810 O   0  0  0  0  0  0  0  0  0  0  0  0
   -3.1640   -0.9620    0.8370 C   0  0  0  0  0  0  0  0  0  0  0  0
   -4.5760   -0.5160    0.6610 C   0  0  1  0  0  0  0  0  0  0  0  0
   -5.4020   -0.4400    1.9200 C   0  0  0  0  0  0  0  0  0  0  0  0
   -4.7440    0.7800    2.2010 O   0  0  0  0  0  0  0  0  0  0  0  0
   -4.7320    0.9900    0.8070 C   0  0  0  0  0  0  0  0  0  0  0  0
    2.3490   -0.3030   -0.2450 C   0  0  0  0  0  0  0  0  0  0  0  0
    3.3040   -1.2570   -0.1090 O   0  0  0  0  0  0  0  0  0  0  0  0
    2.9320    0.9840   -0.3530 C   0  0  0  0  0  0  0  0  0  0  0  0
    2.2560    2.1080   -0.4950 C   0  0  0  0  0  0  0  0  0  0  0  0
    2.7710    3.5340   -0.6200 C   0  0  0  0  0  0  0  0  0  0  0  0
    3.6030    3.8070    0.4720 O   0  0  0  0  0  0  0  0  0  0  0  0
    4.8440    3.3540    0.2640 O   0  0  0  0  0  0  0  0  0  0  0  0
    5.2070    2.0480   -0.0310 C   0  0  0  0  0  0  0  0  0  0  0  0
    4.4290    1.0030   -0.3000 C   0  0  0  0  0  0  0  0  0  0  0  0
  1  2  2  0
  2  3  1  0
  2  4  1  0
  4  5  1  0
  5  6  1  0
  5 15  1  0
  6  7  2  0
  6  8  1  0
  8  9  1  0
  9 10  1  0
 11 10  1  1
 11 12  1  0
 11 14  1  0
 12 13  1  0
 13 14  1  0
 15 16  2  0
 15 17  1  0
 17 18  2  0
 17 23  1  0
 18 19  1  0
 19 20  1  0
 20 21  1  0
 21 22  1  0
 22 23  2  0
M  END
