
     RDKit          3D

 23 22  0  0  0  0  0  0  0  0999 V2000
   -0.4960    2.4580    1.4880 C   0  0  0  0  0  0  0  0  0  0  0  0
   -1.5970    1.8320    1.7890 C   0  0  0  0  0  0  0  0  0  0  0  0
   -2.3290    2.4460    2.9540 C   0  0  0  0  0  0  0  0  0  0  0  0
   -3.3970    1.9310    3.3330 O   0  0  0  0  0  0  0  0  0  0  0  0
   -1.8430    3.5540    3.5980 O   0  0  0  0  0  0  0  0  0  0  0  0
   -2.2050    0.6830    1.1700 C   0  0  0  0  0  0  0  0  0  0  0  0
   -3.3140    0.3060    1.7840 O   0  0  0  0  0  0  0  0  0  0  0  0
   -1.8000   -0.0480    0.0670 N   0  0  0  0  0  0  0  0  0  0  0  0
   -0.7140    0.1940   -0.7990 C   0  0  0  0  0  0  0  0  0  0  0  0
    0.5850   -0.3830   -0.3860 C   0  0  0  0  0  0  0  0  0  0  0  0
    0.7500   -1.0490    0.6590 O   0  0  0  0  0  0  0  0  0  0  0  0
    1.6750   -0.1680   -1.2080 O   0  0  0  0  0  0  0  0  0  0  0  0
    2.8850   -0.6260   -0.9550 O   0  0  0  0  0  0  0  0  0  0  0  0
    3.8480    0.3790   -0.9230 C   0  0  1  0  0  0  0  0  0  0  0  0
    4.4420    0.3860    0.4700 C   0  0  0  0  0  0  0  0  0  0  0  0
    4.9140    0.1560   -1.9770 C   0  0  0  0  0  0  0  0  0  0  0  0
    5.8790    1.1450   -1.9580 O   0  0  0  0  0  0  0  0  0  0  0  0
   -2.5960   -1.2250   -0.2370 C   0  0  0  0  0  0  0  0  0  0  0  0
   -2.6750   -2.1570    0.6620 C   0  0  0  0  0  0  0  0  0  0  0  0
   -3.4740   -3.3800    0.4040 C   0  0  0  0  0  0  0  0  0  0  0  0
   -3.2500   -1.2920   -1.5100 C   0  0  0  0  0  0  0  0  0  0  0  0
   -3.1620   -0.3640   -2.3850 O   0  0  0  0  0  0  0  0  0  0  0  0
   -4.0420   -2.3720   -1.9150 O   0  0  0  0  0  0  0  0  0  0  0  0
  1  2  2  0
  2  3  1  0
  2  6  1  0
  3  4  2  0
  3  5  1  0
  6  7  2  0
  6  8  1  0
  8  9  1  0
  8 18  1  0
  9 10  1  0
 10 11  2  0
 10 12  1  0
 12 13  1  0
 13 14  1  0
 14 15  1  1
 14 16  1  0
 16 17  1  0
 18 19  2  3
 18 21  1  0
 19 20  1  0
 21 22  2  0
 21 23  1  0
M  END
