
     RDKit          3D

 23 23  0  0  0  0  0  0  0  0999 V2000
   -3.1730   -2.3070   -1.6200 C   0  0  0  0  0  0  0  0  0  0  0  0
   -1.6750   -2.3120   -1.6180 C   0  0  0  0  0  0  0  0  0  0  0  0
   -1.1420   -1.1190   -1.0720 O   0  0  0  0  0  0  0  0  0  0  0  0
   -1.3700   -0.6770    0.1930 C   0  0  0  0  0  0  0  0  0  0  0  0
   -2.0950   -1.3320    0.9720 O   0  0  0  0  0  0  0  0  0  0  0  0
   -0.7790    0.6000    0.7280 C   0  0  2  0  0  0  0  0  0  0  0  0
   -0.0230    1.1820   -0.2490 O   0  0  0  0  0  0  0  0  0  0  0  0
   -0.0050    0.2770    1.9820 C   0  0  0  0  0  0  0  0  0  0  0  0
    1.0440   -0.5960    1.8600 O   0  0  0  0  0  0  0  0  0  0  0  0
    2.1820   -0.4230    1.1250 C   0  0  0  0  0  0  0  0  0  0  0  0
    2.3450    0.6270    0.4780 O   0  0  0  0  0  0  0  0  0  0  0  0
    3.2380   -1.4390    1.0660 C   0  0  0  0  0  0  0  0  0  0  0  0
    3.2110   -2.6500    1.7200 C   0  0  0  0  0  0  0  0  0  0  0  0
    4.3260   -3.3220    1.4450 O   0  0  0  0  0  0  0  0  0  0  0  0
    5.0650   -2.5930    0.6430 C   0  0  0  0  0  0  0  0  0  0  0  0
    4.4190   -1.4060    0.3820 C   0  0  0  0  0  0  0  0  0  0  0  0
    4.8970   -0.3930   -0.4220 O   0  0  0  0  0  0  0  0  0  0  0  0
    4.7530   -0.3540   -1.7500 O   0  0  0  0  0  0  0  0  0  0  0  0
   -1.8760    1.5280    1.1300 C   0  0  0  0  0  0  0  0  0  0  0  0
   -2.6470    1.0990    2.0350 O   0  0  0  0  0  0  0  0  0  0  0  0
   -2.0880    2.8100    0.5720 N   0  0  0  0  0  0  0  0  0  0  0  0
   -1.2590    3.3790   -0.4670 C   0  0  0  0  0  0  0  0  0  0  0  0
   -3.1990    3.5990    1.0700 C   0  0  0  0  0  0  0  0  0  0  0  0
  1  2  1  0
  2  3  1  0
  3  4  1  0
  4  5  2  0
  4  6  1  0
  6  7  1  6
  6  8  1  0
  6 19  1  0
  8  9  1  0
  9 10  1  0
 10 11  2  0
 10 12  1  0
 12 13  2  0
 12 16  1  0
 13 14  1  0
 14 15  1  0
 15 16  2  0
 16 17  1  0
 17 18  1  0
 19 20  2  0
 19 21  1  0
 21 22  1  0
 21 23  1  0
M  END
