
     RDKit          3D

 22 22  0  0  0  0  0  0  0  0999 V2000
    1.3030   -4.5830    1.1780 C   0  0  0  0  0  0  0  0  0  0  0  0
    1.9910   -3.3210    0.5480 C   0  0  0  0  0  0  0  0  0  0  0  0
    0.9210   -2.5490   -0.1070 C   0  0  0  0  0  0  0  0  0  0  0  0
    0.8390   -1.2780   -0.1850 C   0  0  0  0  0  0  0  0  0  0  0  0
    1.6790   -0.2640    0.2570 N   0  0  0  0  0  0  0  0  0  0  0  0
    2.1650    0.7970   -0.5590 C   0  0  0  0  0  0  0  0  0  0  0  0
    3.3500    0.4760   -1.4600 C   0  0  0  0  0  0  0  0  0  0  0  0
    3.5120    1.7180   -2.1750 O   0  0  0  0  0  0  0  0  0  0  0  0
    5.0540    2.4460   -1.6830 P   0  0  0  0  0  0  0  0  0  0  0  0
    4.5450    3.9860   -0.8450 O   0  0  0  0  0  0  0  0  0  0  0  0
    5.7360    1.4470   -0.3860 O   0  0  0  0  0  0  0  0  0  0  0  0
   -0.3580   -0.7480   -0.8410 O   0  0  0  0  0  0  0  0  0  0  0  0
   -1.1250   -0.0840    0.1470 C   0  0  0  0  0  0  0  0  0  0  0  0
   -2.4760    0.4970   -0.1260 C   0  0  1  0  0  0  0  0  0  0  0  0
   -2.7930    1.2170    1.2340 C   0  0  0  0  0  0  0  0  0  0  0  0
   -4.0710    1.6440    1.2720 O   0  0  0  0  0  0  0  0  0  0  0  0
   -4.5290    2.4120    2.3150 C   0  0  0  0  0  0  0  0  0  0  0  0
   -3.6610    2.6960    3.2430 O   0  0  0  0  0  0  0  0  0  0  0  0
   -2.6310    1.3730   -1.1370 O   0  0  0  0  0  0  0  0  0  0  0  0
   -3.9650    1.2730   -1.5210 C   0  0  0  0  0  0  0  0  0  0  0  0
   -4.2950   -0.1580   -1.2600 C   0  0  0  0  0  0  0  0  0  0  0  0
   -3.3870   -0.5170   -0.2780 O   0  0  0  0  0  0  0  0  0  0  0  0
  1  2  1  0
  2  3  1  0
  3  4  2  3
  4  5  1  0
  4 12  1  0
  5  6  1  0
  6  7  1  0
  7  8  1  0
  8  9  1  0
  9 10  1  0
  9 11  1  0
 12 13  1  0
 14 13  1  1
 14 15  1  0
 14 19  1  0
 14 22  1  0
 15 16  1  0
 16 17  1  0
 17 18  2  0
 19 20  1  0
 20 21  1  0
 21 22  1  0
M  END
