
     RDKit          3D

 23 24  0  0  0  0  0  0  0  0999 V2000
   -0.7100   -0.1870    2.6920 O   0  0  0  0  0  0  0  0  0  0  0  0
   -1.0100    0.1840    1.5040 C   0  0  0  0  0  0  0  0  0  0  0  0
    0.0780    0.5530    0.7480 O   0  0  0  0  0  0  0  0  0  0  0  0
    1.4160    0.5340    1.2150 C   0  0  0  0  0  0  0  0  0  0  0  0
    1.8580   -0.6740    1.6050 O   0  0  0  0  0  0  0  0  0  0  0  0
    1.9050   -1.7240    0.7880 C   0  0  0  0  0  0  0  0  0  0  0  0
    2.7950   -1.7730   -0.3980 C   0  0  0  0  0  0  0  0  0  0  0  0
    4.1470   -1.6710   -0.1550 O   0  0  0  0  0  0  0  0  0  0  0  0
    4.6370   -0.4910    0.2930 C   0  0  0  0  0  0  0  0  0  0  0  0
    4.5660    0.6210   -0.7330 C   0  0  0  0  0  0  0  0  0  0  0  0
    5.0640    1.8050   -0.2210 O   0  0  0  0  0  0  0  0  0  0  0  0
    5.0150    2.7880   -1.0880 O   0  0  0  0  0  0  0  0  0  0  0  0
    6.0670    2.8590   -1.8560 O   0  0  0  0  0  0  0  0  0  0  0  0
   -2.4160    0.1820    1.0790 C   0  0  2  0  0  0  0  0  0  0  0  0
   -3.1160   -1.1560    1.3260 C   0  0  0  0  0  0  0  0  0  0  0  0
   -4.1650   -1.3470    0.2450 C   0  0  0  0  0  0  0  0  0  0  0  0
   -4.9250   -0.0630    0.0520 C   0  0  0  0  0  0  0  0  0  0  0  0
   -4.0440    1.0010   -0.5600 C   0  0  2  0  0  0  0  0  0  0  0  0
   -4.1550    1.0340   -2.0480 C   0  0  0  0  0  0  0  0  0  0  0  0
   -2.8070    1.2060   -2.4900 O   0  0  0  0  0  0  0  0  0  0  0  0
   -1.9660    0.6940   -1.4890 C   0  0  0  0  0  0  0  0  0  0  0  0
   -0.7670    0.3970   -1.7000 O   0  0  0  0  0  0  0  0  0  0  0  0
   -2.6590    0.5770   -0.2680 N   0  0  0  0  0  0  0  0  0  0  0  0
  1  2  2  0
  2  3  1  0
 14  2  1  6
  3  4  1  0
  4  5  1  0
  5  6  1  0
  6  7  1  0
  7  8  1  0
  8  9  1  0
  9 10  1  0
 10 11  1  0
 11 12  1  0
 12 13  1  0
 14 15  1  0
 14 23  1  0
 15 16  1  0
 16 17  1  0
 18 17  1  1
 18 19  1  0
 18 23  1  0
 19 20  1  0
 20 21  1  0
 21 22  2  0
 21 23  1  0
M  END
