
     RDKit          3D

 31 35  0  0  0  0  0  0  0  0999 V2000
   -4.9440   -3.6140    1.1220 C   0  0  0  0  0  0  0  0  0  0  0  0
   -4.0170   -2.5740    1.0820 O   0  0  0  0  0  0  0  0  0  0  0  0
   -4.3290   -1.2660    0.7380 C   0  0  0  0  0  0  0  0  0  0  0  0
   -5.6290   -0.9260    0.4090 C   0  0  0  0  0  0  0  0  0  0  0  0
   -5.9720    0.3740    0.0620 C   0  0  0  0  0  0  0  0  0  0  0  0
   -4.9840    1.3360    0.0480 C   0  0  0  0  0  0  0  0  0  0  0  0
   -3.6920    0.9710    0.3810 C   0  0  0  0  0  0  0  0  0  0  0  0
   -3.3310   -0.3140    0.7290 C   0  0  0  0  0  0  0  0  0  0  0  0
   -1.9260   -0.6550    1.0810 C   0  0  0  0  0  0  0  0  0  0  0  0
   -1.3430   -1.3920   -0.1240 C   0  0  0  0  0  0  0  0  0  0  0  0
    0.0240   -1.7710    0.1140 N   0  0  0  0  0  0  0  0  0  0  0  0
    0.4180   -2.9320    0.6680 C   0  0  0  0  0  0  0  0  0  0  0  0
   -0.3120   -3.8660    1.0640 O   0  0  0  0  0  0  0  0  0  0  0  0
    1.7690   -2.9230    0.7290 N   0  0  0  0  0  0  0  0  0  0  0  0
    2.2310   -1.7760    0.2220 C   0  0  0  0  0  0  0  0  0  0  0  0
    3.4670   -1.2760    0.0500 N   0  0  0  0  0  0  0  0  0  0  0  0
    3.6680   -0.0590   -0.5010 C   0  0  0  0  0  0  0  0  0  0  0  0
    4.9770    0.4380   -0.6610 N   0  0  0  0  0  0  0  0  0  0  0  0
    5.2460    1.7060   -1.2960 C   0  0  0  0  0  0  0  0  0  0  0  0
    6.7400    1.9800   -1.0760 C   0  0  0  0  0  0  0  0  0  0  0  0
    7.1580    1.8310    0.3470 C   0  0  0  0  0  0  0  0  0  0  0  0
    6.7380    0.5200    0.9100 C   0  0  2  0  0  0  0  0  0  0  0  0
    7.8480   -0.2300    1.6140 C   0  0  0  0  0  0  0  0  0  0  0  0
    6.1100   -0.3180   -0.1790 C   0  0  0  0  0  0  0  0  0  0  0  0
    2.5800    0.6380   -0.8750 N   0  0  0  0  0  0  0  0  0  0  0  0
    1.3230    0.2030   -0.7350 C   0  0  0  0  0  0  0  0  0  0  0  0
    1.1100   -1.0370   -0.1730 C   0  0  0  0  0  0  0  0  0  0  0  0
   -5.5630    2.5650   -0.3310 O   0  0  0  0  0  0  0  0  0  0  0  0
   -6.9450    2.4790   -0.0580 C   0  0  1  0  0  0  0  0  0  0  0  0
   -7.7590    3.4060   -0.9290 C   0  0  0  0  0  0  0  0  0  0  0  0
   -7.2450    1.0340   -0.3290 C   0  0  0  0  0  0  0  0  0  0  0  0
  1  2  1  0
  2  3  1  0
  3  4  2  0
  3  8  1  0
  4  5  1  0
  5  6  2  0
  5 31  1  0
  6  7  1  0
  6 28  1  0
  7  8  2  0
  8  9  1  0
  9 10  1  0
 10 11  1  0
 11 12  1  0
 11 27  1  0
 12 13  2  0
 12 14  1  0
 14 15  1  0
 15 16  2  0
 15 27  1  0
 16 17  1  0
 17 18  1  0
 17 25  2  0
 18 19  1  0
 18 24  1  0
 19 20  1  0
 20 21  1  0
 21 22  1  0
 22 23  1  6
 22 24  1  0
 25 26  1  0
 26 27  2  0
 28 29  1  0
 29 30  1  6
 29 31  1  0
M  END
