
     RDKit          3D

 29 30  0  0  0  0  0  0  0  0999 V2000
    7.4180   -1.0410   -0.8530 C   0  0  0  0  0  0  0  0  0  0  0  0
    6.9580   -2.4040   -0.4940 C   0  0  0  0  0  0  0  0  0  0  0  0
    5.6220   -2.4850    0.0790 C   0  0  0  0  0  0  0  0  0  0  0  0
    4.7450   -1.6070    0.4410 C   0  0  0  0  0  0  0  0  0  0  0  0
    3.4270   -2.1460    1.0070 C   0  0  0  0  0  0  0  0  0  0  0  0
    2.3370   -1.3260    0.3590 C   0  0  0  0  0  0  0  0  0  0  0  0
    1.3810   -1.9260   -0.1380 O   0  0  0  0  0  0  0  0  0  0  0  0
    2.4150    0.1140    0.3220 C   0  0  0  0  0  0  0  0  0  0  0  0
    1.2990    1.0410    0.2510 C   0  0  0  0  0  0  0  0  0  0  0  0
    0.0300    0.6330    0.2290 C   0  0  0  0  0  0  0  0  0  0  0  0
   -1.1000    1.5360    0.1570 C   0  0  0  0  0  0  0  0  0  0  0  0
   -2.3370    1.1230    0.1340 C   0  0  0  0  0  0  0  0  0  0  0  0
   -2.7690   -0.2590    0.1700 C   0  0  0  0  0  0  0  0  0  0  0  0
   -2.0810   -1.5190    0.2220 C   0  0  0  0  0  0  0  0  0  0  0  0
   -4.1120   -0.3740    0.1410 N   0  0  0  0  0  0  0  0  0  0  0  0
   -4.7440   -1.6360    0.1680 C   0  0  0  0  0  0  0  0  0  0  0  0
   -4.9320   -2.2240    1.2660 O   0  0  0  0  0  0  0  0  0  0  0  0
   -5.2110   -2.3270   -1.0690 C   0  0  0  0  0  0  0  0  0  0  0  0
   -5.8480   -3.6590   -0.7470 C   0  0  0  0  0  0  0  0  0  0  0  0
   -3.4780    2.1260    0.1080 C   0  0  1  0  0  0  0  0  0  0  0  0
   -4.0800    2.3880    1.8110 S   0  0  0  0  0  0  0  0  0  0  0  0
   -5.4300    3.5680    1.8180 C   0  0  0  0  0  0  0  0  0  0  0  0
   -3.1640    3.4280   -0.5070 C   0  0  0  0  0  0  0  0  0  0  0  0
   -1.8310    3.9270   -0.0470 C   0  0  0  0  0  0  0  0  0  0  0  0
   -1.6770    5.1220    0.2010 O   0  0  0  0  0  0  0  0  0  0  0  0
   -0.7930    2.9250    0.0720 N   0  0  0  0  0  0  0  0  0  0  0  0
    3.6520    0.6370    0.3510 C   0  0  0  0  0  0  0  0  0  0  0  0
    3.8340    2.1040    0.3170 C   0  0  0  0  0  0  0  0  0  0  0  0
    4.8170   -0.1950    0.4110 N   0  0  0  0  0  0  0  0  0  0  0  0
  1  2  1  0
  2  3  1  0
  3  4  2  3
  4  5  1  0
  4 29  1  0
  5  6  1  0
  6  7  2  0
  6  8  1  0
  8  9  1  0
  8 27  2  0
  9 10  2  3
 10 11  1  0
 11 12  2  0
 11 26  1  0
 12 13  1  0
 12 20  1  0
 13 14  1  0
 13 15  2  3
 15 16  1  0
 16 17  2  0
 16 18  1  0
 18 19  1  0
 20 21  1  1
 20 23  1  0
 21 22  1  0
 23 24  1  0
 24 25  2  0
 24 26  1  0
 27 28  1  0
 27 29  1  0
M  END
