
     RDKit          3D

 29 30  0  0  0  0  0  0  0  0999 V2000
   -1.9190    4.7570    0.8130 N   0  0  0  0  0  0  0  0  0  0  0  0
   -0.9760    3.8100    1.3300 C   0  0  0  0  0  0  0  0  0  0  0  0
   -1.4170    2.3620    1.0770 C   0  0  0  0  0  0  0  0  0  0  0  0
   -1.5300    2.2050   -0.4030 C   0  0  0  0  0  0  0  0  0  0  0  0
   -1.9590    0.8260   -0.8360 C   0  0  0  0  0  0  0  0  0  0  0  0
   -0.9550   -0.2360   -0.3610 C   0  0  2  0  0  0  0  0  0  0  0  0
    0.3410    0.0500   -0.9230 N   0  0  0  0  0  0  0  0  0  0  0  0
    1.3170   -0.9760   -0.8030 C   0  0  1  0  0  0  0  0  0  0  0  0
    2.7380   -0.3990   -0.7960 C   0  0  0  0  0  0  0  0  0  0  0  0
    3.0140    0.5290    0.3150 C   0  0  0  0  0  0  0  0  0  0  0  0
    4.4000    1.0630    0.3150 C   0  0  0  0  0  0  0  0  0  0  0  0
    4.6290    2.2270   -0.3860 C   0  0  0  0  0  0  0  0  0  0  0  0
    5.9230    2.7360   -0.3940 C   0  0  0  0  0  0  0  0  0  0  0  0
    6.9340    2.0860    0.2820 C   0  0  0  0  0  0  0  0  0  0  0  0
    6.6670    0.9110    0.9810 C   0  0  0  0  0  0  0  0  0  0  0  0
    5.4030    0.4020    0.9960 C   0  0  0  0  0  0  0  0  0  0  0  0
    1.1480   -1.9360    0.2970 C   0  0  0  0  0  0  0  0  0  0  0  0
    0.2790   -1.9590    1.1730 O   0  0  0  0  0  0  0  0  0  0  0  0
    2.1030   -2.9700    0.3650 O   0  0  0  0  0  0  0  0  0  0  0  0
   -1.4570   -1.5140   -0.8860 C   0  0  0  0  0  0  0  0  0  0  0  0
   -0.9080   -2.0210   -1.8910 O   0  0  0  0  0  0  0  0  0  0  0  0
   -2.5330   -2.1840   -0.2900 N   0  0  0  0  0  0  0  0  0  0  0  0
   -3.2880   -1.7720    0.8660 C   0  0  0  0  0  0  0  0  0  0  0  0
   -3.8550   -3.0450    1.4750 C   0  0  0  0  0  0  0  0  0  0  0  0
   -3.2670   -4.1350    0.6480 C   0  0  0  0  0  0  0  0  0  0  0  0
   -3.1030   -3.4730   -0.7250 C   0  0  1  0  0  0  0  0  0  0  0  0
   -4.4530   -3.2740   -1.2920 C   0  0  0  0  0  0  0  0  0  0  0  0
   -4.9810   -2.1430   -1.3690 O   0  0  0  0  0  0  0  0  0  0  0  0
   -5.1650   -4.3640   -1.7550 O   0  0  0  0  0  0  0  0  0  0  0  0
  1  2  1  0
  2  3  1  0
  3  4  1  0
  4  5  1  0
  6  5  1  6
  6  7  1  0
  6 20  1  0
  7  8  1  0
  8  9  1  1
  8 17  1  0
  9 10  1  0
 10 11  1  0
 11 12  2  0
 11 16  1  0
 12 13  1  0
 13 14  2  0
 14 15  1  0
 15 16  2  0
 17 18  2  0
 17 19  1  0
 20 21  2  0
 20 22  1  0
 22 23  1  0
 22 26  1  0
 23 24  1  0
 24 25  1  0
 25 26  1  0
 26 27  1  1
 27 28  2  0
 27 29  1  0
M  CHG  2   1   1   7   1
M  END
