
     RDKit          3D

 29 30  0  0  0  0  0  0  0  0999 V2000
   -2.5400    3.0180    0.2980 C   0  0  0  0  0  0  0  0  0  0  0  0
   -2.7210    1.4830   -0.0060 C   0  0  0  0  0  0  0  0  0  0  0  0
   -1.6410    0.8420    0.2450 C   0  0  0  0  0  0  0  0  0  0  0  0
   -1.3030   -0.5300    0.1380 C   0  0  0  0  0  0  0  0  0  0  0  0
   -0.0640   -0.9590    0.4800 C   0  0  0  0  0  0  0  0  0  0  0  0
    0.8540    0.0460    0.9490 C   0  0  0  0  0  0  0  0  0  0  0  0
    2.1640   -0.4020    1.5140 C   0  0  0  0  0  0  0  0  0  0  0  0
    2.7340   -1.5990    1.0530 N   0  0  0  0  0  0  0  0  0  0  0  0
    4.0540   -1.4350    0.5000 C   0  0  0  0  0  0  0  0  0  0  0  0
    4.6960   -2.4330    0.0410 O   0  0  0  0  0  0  0  0  0  0  0  0
    4.8290    0.1700    0.4430 S   0  0  0  0  0  0  0  0  0  0  0  0
    6.4680   -0.0140   -0.2950 C   0  0  2  0  0  0  0  0  0  0  0  0
    7.2960   -0.8540    0.6880 C   0  0  0  0  0  0  0  0  0  0  0  0
    7.0980    1.3780   -0.3340 C   0  0  1  0  0  0  0  0  0  0  0  0
    8.4590    1.2360   -0.9440 C   0  0  0  0  0  0  0  0  0  0  0  0
    6.1700    2.2740   -1.0850 C   0  0  0  0  0  0  0  0  0  0  0  0
    2.2950   -2.9850    1.0080 C   0  0  0  0  0  0  0  0  0  0  0  0
    1.2460   -3.0580   -0.0810 C   0  0  2  0  0  0  0  0  0  0  0  0
    1.8610   -2.4330   -1.3320 C   0  0  0  0  0  0  0  0  0  0  0  0
    0.1210   -2.3190    0.3190 O   0  0  0  0  0  0  0  0  0  0  0  0
   -3.9960    1.1130   -0.4910 C   0  0  0  0  0  0  0  0  0  0  0  0
   -4.9070    2.0580   -0.6250 O   0  0  0  0  0  0  0  0  0  0  0  0
   -4.4390   -0.1550   -0.8610 N   0  0  0  0  0  0  0  0  0  0  0  0
   -5.8010   -0.3980   -1.3230 C   0  0  0  0  0  0  0  0  0  0  0  0
   -6.8720   -0.1940   -0.3270 C   0  0  2  0  0  0  0  0  0  0  0  0
   -8.2090   -0.5000   -1.0140 C   0  0  0  0  0  0  0  0  0  0  0  0
   -9.0420    0.7480   -0.7350 C   0  0  0  0  0  0  0  0  0  0  0  0
   -8.4280    1.2060    0.5540 C   0  0  0  0  0  0  0  0  0  0  0  0
   -7.0070    1.0780    0.2960 N   0  0  0  0  0  0  0  0  0  0  0  0
  1  2  1  0
  2  3  2  3
  2 21  1  0
  3  4  1  0
  4  5  2  3
  5  6  1  0
  5 20  1  0
  6  7  1  0
  7  8  1  0
  8  9  1  0
  8 17  1  0
  9 10  2  0
  9 11  1  0
 11 12  1  0
 12 13  1  1
 12 14  1  0
 14 15  1  6
 14 16  1  0
 17 18  1  0
 18 19  1  6
 18 20  1  0
 21 22  2  0
 21 23  1  0
 23 24  1  0
 25 24  1  6
 25 26  1  0
 25 29  1  0
 26 27  1  0
 27 28  1  0
 28 29  1  0
M  END
