
     RDKit          3D

 29 31  0  0  0  0  0  0  0  0999 V2000
   -1.3880    5.8300   -0.2610 C   0  0  0  0  0  0  0  0  0  0  0  0
   -0.5080    5.3510   -1.4210 C   0  0  0  0  0  0  0  0  0  0  0  0
    0.1800    4.0640   -0.9970 C   0  0  0  0  0  0  0  0  0  0  0  0
   -0.9390    3.0730   -0.6890 C   0  0  0  0  0  0  0  0  0  0  0  0
   -0.4000    1.7880   -0.2670 C   0  0  0  0  0  0  0  0  0  0  0  0
   -0.6670    1.2630    0.9150 C   0  0  0  0  0  0  0  0  0  0  0  0
   -0.1090   -0.0530    1.3330 C   0  0  1  0  0  0  0  0  0  0  0  0
   -0.8960   -1.1110    0.5800 C   0  0  0  0  0  0  0  0  0  0  0  0
   -0.3130   -1.8920   -0.1930 O   0  0  0  0  0  0  0  0  0  0  0  0
   -2.2920   -1.2100    0.7570 N   0  0  0  0  0  0  0  0  0  0  0  0
   -3.1680   -2.1340    0.1350 C   0  0  0  0  0  0  0  0  0  0  0  0
   -4.4930   -2.1490    0.3700 C   0  0  0  0  0  0  0  0  0  0  0  0
   -5.2530   -1.2450    1.2840 C   0  0  0  0  0  0  0  0  0  0  0  0
   -6.2920   -0.4340    0.5370 C   0  0  0  0  0  0  0  0  0  0  0  0
   -5.1080   -3.2040   -0.4140 C   0  0  0  0  0  0  0  0  0  0  0  0
   -4.0620   -3.8360   -1.1460 N   0  0  0  0  0  0  0  0  0  0  0  0
   -2.8380   -3.1740   -0.8120 C   0  0  0  0  0  0  0  0  0  0  0  0
   -1.7030   -3.4950   -1.2980 O   0  0  0  0  0  0  0  0  0  0  0  0
    1.3250   -0.2380    0.9820 C   0  0  0  0  0  0  0  0  0  0  0  0
    1.8830    0.0900   -0.1570 C   0  0  0  0  0  0  0  0  0  0  0  0
    3.2410   -0.0470   -0.5790 C   0  0  0  0  0  0  0  0  0  0  0  0
    3.4280    0.3540   -1.8200 O   0  0  0  0  0  0  0  0  0  0  0  0
    4.3760   -0.5060    0.0360 N   0  0  0  0  0  0  0  0  0  0  0  0
    5.6260   -0.6060   -0.8010 C   0  0  0  0  0  0  0  0  0  0  0  0
    6.3030   -1.9000   -0.3500 C   0  0  0  0  0  0  0  0  0  0  0  0
    5.2760   -2.9040    0.1210 C   0  0  0  0  0  0  0  0  0  0  0  0
    4.5920   -2.4370    1.3800 C   0  0  0  0  0  0  0  0  0  0  0  0
    4.6060   -0.9050    1.3850 C   0  0  0  0  0  0  0  0  0  0  0  0
    0.6710    0.8430   -1.3290 S   0  0  0  0  0  0  0  0  0  0  0  0
  1  2  1  0
  2  3  1  0
  3  4  1  0
  4  5  1  0
  5  6  2  0
  5 29  1  0
  6  7  1  0
  7  8  1  6
  7 19  1  0
  8  9  2  0
  8 10  1  0
 10 11  1  0
 11 12  2  0
 11 17  1  0
 12 13  1  0
 12 15  1  0
 13 14  1  0
 15 16  1  0
 16 17  1  0
 17 18  2  0
 19 20  2  0
 20 21  1  0
 20 29  1  0
 21 22  2  0
 21 23  1  0
 23 24  1  0
 23 28  1  0
 24 25  1  0
 25 26  1  0
 26 27  1  0
 27 28  1  0
M  END
