
     RDKit          3D

 29 31  0  0  0  0  0  0  0  0999 V2000
    0.9960   -1.3760   -0.6970 C   0  0  0  0  0  0  0  0  0  0  0  0
    0.6610   -0.0280   -0.1480 C   0  0  1  0  0  0  0  0  0  0  0  0
    1.6140    0.9850   -0.7730 C   0  0  0  0  0  0  0  0  0  0  0  0
    3.0070    0.6700   -0.4470 C   0  0  0  0  0  0  0  0  0  0  0  0
    3.6540   -0.2100   -0.1250 O   0  0  0  0  0  0  0  0  0  0  0  0
    3.8230    1.9920   -0.5900 N   0  0  0  0  0  0  0  0  0  0  0  0
    5.2190    1.9240   -0.3460 C   0  0  0  0  0  0  0  0  0  0  0  0
    5.5720    1.5310    1.0520 C   0  0  1  0  0  0  0  0  0  0  0  0
    7.0740    1.3650    1.1820 C   0  0  0  0  0  0  0  0  0  0  0  0
    7.3580    1.9270    2.5420 C   0  0  0  0  0  0  0  0  0  0  0  0
    6.1440    2.7380    2.8580 C   0  0  0  0  0  0  0  0  0  0  0  0
    5.1200    2.3970    2.0080 O   0  0  0  0  0  0  0  0  0  0  0  0
   -0.7630    0.2660   -0.4130 N   0  0  0  0  0  0  0  0  0  0  0  0
   -1.5490    0.5580    0.8360 C   0  0  0  0  0  0  0  0  0  0  0  0
   -2.5540   -0.4720    0.9080 C   0  0  0  0  0  0  0  0  0  0  0  0
   -3.3110   -1.2470    0.9820 C   0  0  0  0  0  0  0  0  0  0  0  0
   -4.2590   -2.2380    1.0930 C   0  0  0  0  0  0  0  0  0  0  0  0
   -5.5240   -1.5110    1.6430 C   0  0  0  0  0  0  0  0  0  0  0  0
   -5.9220   -0.3120    0.8560 C   0  0  0  0  0  0  0  0  0  0  0  0
   -4.7740    0.2510   -0.3800 S   0  0  0  0  0  0  0  0  0  0  0  0
   -4.6300   -0.7790   -1.7580 C   0  0  0  0  0  0  0  0  0  0  0  0
   -5.7250   -1.6400   -2.0670 C   0  0  0  0  0  0  0  0  0  0  0  0
   -5.7510   -2.5460   -3.0930 C   0  0  0  0  0  0  0  0  0  0  0  0
   -4.6990   -2.6670   -3.8960 C   0  0  0  0  0  0  0  0  0  0  0  0
   -3.6150   -1.8420   -3.6180 C   0  0  0  0  0  0  0  0  0  0  0  0
   -3.5030   -0.9380   -2.6380 C   0  0  0  0  0  0  0  0  0  0  0  0
   -2.3000   -0.1610   -2.5370 N   0  0  0  0  0  0  0  0  0  0  0  0
   -1.3850    0.2290   -1.6480 C   0  0  0  0  0  0  0  0  0  0  0  0
   -0.5170    1.1630   -2.3960 O   0  0  0  0  0  0  0  0  0  0  0  0
  2  1  1  6
  2  3  1  0
  2 13  1  0
  3  4  1  0
  4  5  2  0
  4  6  1  0
  6  7  1  0
  8  7  1  6
  8  9  1  0
  8 12  1  0
  9 10  1  0
 10 11  1  0
 11 12  1  0
 13 14  1  0
 13 28  1  0
 14 15  1  0
 15 16  3  0
 16 17  1  0
 17 18  1  0
 18 19  1  0
 19 20  1  0
 20 21  1  0
 21 22  2  0
 21 26  1  0
 22 23  1  0
 23 24  2  0
 24 25  1  0
 25 26  2  0
 26 27  1  0
 27 28  1  0
 28 29  2  0
M  END
