
     RDKit          3D

 29 31  0  0  0  0  0  0  0  0999 V2000
   -9.8830    1.0810    0.5640 C   0  0  0  0  0  0  0  0  0  0  0  0
   -8.3810    1.0470    0.4870 C   0  0  0  0  0  0  0  0  0  0  0  0
   -7.8060    2.1330    0.3680 O   0  0  0  0  0  0  0  0  0  0  0  0
   -7.6600   -0.1530    0.5460 N   0  0  0  0  0  0  0  0  0  0  0  0
   -6.2530   -0.2710    0.4850 C   0  0  0  0  0  0  0  0  0  0  0  0
   -5.3640    0.7630    0.5820 C   0  0  0  0  0  0  0  0  0  0  0  0
   -3.9780    0.5940    0.4960 C   0  0  0  0  0  0  0  0  0  0  0  0
   -3.4070   -0.6340    0.3070 C   0  0  0  0  0  0  0  0  0  0  0  0
   -2.0330   -0.9020    0.1830 N   0  0  0  0  0  0  0  0  0  0  0  0
   -1.0070    0.0740   -0.0590 C   0  0  0  0  0  0  0  0  0  0  0  0
   -1.3920    1.2500   -0.1690 O   0  0  0  0  0  0  0  0  0  0  0  0
    0.3900   -0.3810   -0.1580 C   0  0  0  0  0  0  0  0  0  0  0  0
    1.2920    0.5560   -0.8380 C   0  0  0  0  0  0  0  0  0  0  0  0
    0.8230    1.5860   -1.4940 C   0  0  0  0  0  0  0  0  0  0  0  0
    1.8700    2.7880   -2.3520 S   0  0  0  0  0  0  0  0  0  0  0  0
    3.5230    2.2470   -2.0970 C   0  0  0  0  0  0  0  0  0  0  0  0
    3.7270    1.1580   -1.3900 C   0  0  0  0  0  0  0  0  0  0  0  0
    2.7550    0.3090   -0.7660 C   0  0  0  0  0  0  0  0  0  0  0  0
    3.1640   -0.7770   -0.1040 C   0  0  0  0  0  0  0  0  0  0  0  0
    4.5320   -1.2280    0.1040 C   0  0  1  0  0  0  0  0  0  0  0  0
    5.1190   -1.7590   -1.1860 C   0  0  0  0  0  0  0  0  0  0  0  0
    6.5500   -1.3380   -1.1830 C   0  0  0  0  0  0  0  0  0  0  0  0
    6.7680   -0.5940    0.0720 C   0  0  0  0  0  0  0  0  0  0  0  0
    5.4740   -0.2880    0.6100 N   0  0  0  0  0  0  0  0  0  0  0  0
    5.2140    0.7750    1.5110 C   0  0  0  0  0  0  0  0  0  0  0  0
    3.8870    1.0970    2.0890 C   0  0  0  0  0  0  0  0  0  0  0  0
    6.1620    1.5240    1.8690 O   0  0  0  0  0  0  0  0  0  0  0  0
   -4.3250   -1.6940    0.2090 C   0  0  0  0  0  0  0  0  0  0  0  0
   -5.6750   -1.5340    0.2920 C   0  0  0  0  0  0  0  0  0  0  0  0
  1  2  1  0
  2  3  2  0
  2  4  1  0
  4  5  1  0
  5  6  2  0
  5 29  1  0
  6  7  1  0
  7  8  2  0
  8  9  1  0
  8 28  1  0
  9 10  1  0
 10 11  2  0
 10 12  1  0
 12 13  1  0
 13 14  2  0
 13 18  1  0
 14 15  1  0
 15 16  1  0
 16 17  2  0
 17 18  1  0
 18 19  2  3
 20 19  1  6
 20 21  1  0
 20 24  1  0
 21 22  1  0
 22 23  1  0
 23 24  1  0
 24 25  1  0
 25 26  1  0
 25 27  2  0
 28 29  2  0
M  END
