
     RDKit          3D

 16 16  0  0  0  0  0  0  0  0999 V2000
    0.5880   -0.6370   -0.8080 O   0  0  0  0  0  0  0  0  0  0  0  0
    0.9000   -0.3920    0.3870 C   0  0  0  0  0  0  0  0  0  0  0  0
    2.0650   -0.8910    0.9790 N   0  0  0  0  0  0  0  0  0  0  0  0
    3.2650   -0.6010    0.6120 C   0  0  0  0  0  0  0  0  0  0  0  0
    3.7280    0.2150   -0.3830 O   0  0  0  0  0  0  0  0  0  0  0  0
    5.0720   -0.0940   -0.6610 C   0  0  0  0  0  0  0  0  0  0  0  0
    5.5270   -0.6560    0.6540 C   0  0  0  0  0  0  0  0  0  0  0  0
    6.7210   -0.6440    1.0370 O   0  0  0  0  0  0  0  0  0  0  0  0
    4.3810   -1.1330    1.2460 O   0  0  0  0  0  0  0  0  0  0  0  0
    0.0110    0.4270    1.1370 N   0  0  0  0  0  0  0  0  0  0  0  0
   -1.1990    0.9810    0.6210 C   0  0  0  0  0  0  0  0  0  0  0  0
   -2.1770   -0.0690    0.1500 C   0  0  0  0  0  0  0  0  0  0  0  0
   -3.4030    0.6580   -0.3680 C   0  0  0  0  0  0  0  0  0  0  0  0
   -4.2970   -0.3270   -0.7990 O   0  0  0  0  0  0  0  0  0  0  0  0
   -5.4140    0.2070   -1.2750 O   0  0  0  0  0  0  0  0  0  0  0  0
   -6.4710   -0.4910   -0.9400 O   0  0  0  0  0  0  0  0  0  0  0  0
  1  2  2  0
  2  3  1  0
  2 10  1  0
  3  4  2  3
  4  5  1  0
  4  9  1  0
  5  6  1  0
  6  7  1  0
  7  8  2  0
  7  9  1  0
 10 11  1  0
 11 12  1  0
 12 13  1  0
 13 14  1  0
 14 15  1  0
 15 16  1  0
M  END
