
     RDKit          3D

 16 15  0  0  0  0  0  0  0  0999 V2000
    0.7420    2.3280    1.6070 O   0  0  0  0  0  0  0  0  0  0  0  0
    0.8850    2.8930    0.4930 C   0  0  0  0  0  0  0  0  0  0  0  0
    1.7720    3.9500    0.4140 O   0  0  0  0  0  0  0  0  0  0  0  0
    0.1210    2.4430   -0.7300 C   0  0  0  0  0  0  0  0  0  0  0  0
   -0.6890    1.3760   -0.3600 N   0  0  0  0  0  0  0  0  0  0  0  0
   -0.6390    0.1550   -0.2010 C   0  0  0  0  0  0  0  0  0  0  0  0
   -1.9030   -0.5440    0.2400 C   0  0  0  0  0  0  0  0  0  0  0  0
   -2.9480    0.3370    0.4000 O   0  0  0  0  0  0  0  0  0  0  0  0
   -4.3300   -0.5860    0.9050 P   0  0  0  0  0  0  0  0  0  0  0  0
   -3.9860   -1.2110    2.4980 O   0  0  0  0  0  0  0  0  0  0  0  0
   -4.4230   -1.9720   -0.1520 O   0  0  0  0  0  0  0  0  0  0  0  0
    0.4700   -0.6940   -0.3820 N   0  0  0  0  0  0  0  0  0  0  0  0
    1.6320   -0.2710   -1.1240 C   0  0  0  0  0  0  0  0  0  0  0  0
    2.6600   -1.3900   -1.1900 C   0  0  0  0  0  0  0  0  0  0  0  0
    3.0730   -1.7610    0.0910 O   0  0  0  0  0  0  0  0  0  0  0  0
    3.9560   -2.7200    0.0630 O   0  0  0  0  0  0  0  0  0  0  0  0
  1  2  2  0
  2  3  1  0
  2  4  1  0
  4  5  1  0
  5  6  2  3
  6  7  1  0
  6 12  1  0
  7  8  1  0
  8  9  1  0
  9 10  1  0
  9 11  1  0
 12 13  1  0
 13 14  1  0
 14 15  1  0
 15 16  1  0
M  END
