
     RDKit          3D

 16 15  0  0  0  0  0  0  0  0999 V2000
   -5.9410   -0.2530    0.3600 N   0  0  0  0  0  0  0  0  0  0  0  0
   -4.7800    0.4990    0.0970 O   0  0  0  0  0  0  0  0  0  0  0  0
   -3.6750   -0.3010    0.2960 C   0  0  0  0  0  0  0  0  0  0  0  0
   -2.3940    0.4850    0.1330 C   0  0  2  0  0  0  0  0  0  0  0  0
   -2.3820    1.2410   -1.2060 C   0  0  0  0  0  0  0  0  0  0  0  0
   -3.3120    2.3020   -1.1410 O   0  0  0  0  0  0  0  0  0  0  0  0
   -1.3240   -0.5250    0.1960 N   0  0  0  0  0  0  0  0  0  0  0  0
    0.0240   -0.3010    0.2610 C   0  0  0  0  0  0  0  0  0  0  0  0
    0.3800    0.9530    0.2310 O   0  0  0  0  0  0  0  0  0  0  0  0
    1.0250   -1.1570    0.3500 O   0  0  0  0  0  0  0  0  0  0  0  0
    2.3260   -1.2430    0.3570 C   0  0  0  0  0  0  0  0  0  0  0  0
    3.1750   -0.1520    1.0020 C   0  0  0  0  0  0  0  0  0  0  0  0
    4.4870   -0.6110    0.8260 O   0  0  0  0  0  0  0  0  0  0  0  0
    5.5020    0.1920   -0.2280 P   0  0  0  0  0  0  0  0  0  0  0  0
    6.6450    1.2730    0.3590 O   0  0  0  0  0  0  0  0  0  0  0  0
    6.4730   -1.1570   -1.0080 O   0  0  0  0  0  0  0  0  0  0  0  0
  1  2  1  0
  2  3  1  0
  4  3  1  6
  4  5  1  0
  4  7  1  0
  5  6  1  0
  7  8  1  0
  8  9  2  0
  8 10  1  0
 10 11  1  0
 11 12  1  0
 12 13  1  0
 13 14  1  0
 14 15  1  0
 14 16  1  0
M  END
