
     RDKit          3D

 16 15  0  0  0  0  0  0  0  0999 V2000
   -3.3250   -1.3960    0.7610 N   0  0  0  0  0  0  0  0  0  0  0  0
   -2.2170   -0.8890    1.9750 S   0  0  0  0  0  0  0  0  0  0  0  0
   -2.2420   -1.6780    3.2430 O   0  0  0  0  0  0  0  0  0  0  0  0
   -0.5980   -0.6140    1.3350 C   0  0  0  0  0  0  0  0  0  0  0  0
    0.3430   -1.2030    1.9710 O   0  0  0  0  0  0  0  0  0  0  0  0
   -0.3150    0.1870    0.2120 N   0  0  0  0  0  0  0  0  0  0  0  0
   -1.3840    0.8490   -0.5020 C   0  0  0  0  0  0  0  0  0  0  0  0
   -1.6700    2.2240    0.0600 C   0  0  0  0  0  0  0  0  0  0  0  0
   -2.7090    2.7730   -0.6940 O   0  0  0  0  0  0  0  0  0  0  0  0
    1.0530    0.3660   -0.2450 C   0  0  0  0  0  0  0  0  0  0  0  0
    1.6240   -0.8570   -1.4670 P   0  0  0  0  0  0  0  0  0  0  0  0
    0.5620   -2.1410   -1.7940 O   0  0  0  0  0  0  0  0  0  0  0  0
    3.2830   -1.3600   -1.2370 O   0  0  0  0  0  0  0  0  0  0  0  0
    4.2340   -0.5170   -0.7010 C   0  0  0  0  0  0  0  0  0  0  0  0
    3.8790    0.6610   -0.3690 O   0  0  0  0  0  0  0  0  0  0  0  0
    5.5410   -0.9360   -0.5260 O   0  0  0  0  0  0  0  0  0  0  0  0
  2  1  1  6
  2  3  2  0
  2  4  1  0
  4  5  2  0
  4  6  1  0
  6  7  1  0
  6 10  1  0
  7  8  1  0
  8  9  1  0
 10 11  1  0
 11 12  1  0
 11 13  1  0
 13 14  1  0
 14 15  2  0
 14 16  1  0
M  END
