
     RDKit          3D

 16 15  0  0  0  0  0  0  0  0999 V2000
    6.9340    0.8880   -0.5890 N   0  0  0  0  0  0  0  0  0  0  0  0
    5.6610    0.2960   -0.8180 C   0  0  0  0  0  0  0  0  0  0  0  0
    5.2240    0.2250   -2.0140 O   0  0  0  0  0  0  0  0  0  0  0  0
    4.8590   -0.2130    0.1720 O   0  0  0  0  0  0  0  0  0  0  0  0
    3.6090   -0.7810   -0.1300 N   0  0  0  0  0  0  0  0  0  0  0  0
    2.4200   -0.0500    0.1110 C   0  0  0  0  0  0  0  0  0  0  0  0
    2.5240    1.1010    0.6010 O   0  0  0  0  0  0  0  0  0  0  0  0
    1.0460   -0.5640   -0.1870 C   0  0  0  0  0  0  0  0  0  0  0  0
    0.1140    0.3900    0.1680 O   0  0  0  0  0  0  0  0  0  0  0  0
   -1.1180    0.1160   -0.0390 O   0  0  0  0  0  0  0  0  0  0  0  0
   -1.5950   -1.0900    0.4170 C   0  0  0  0  0  0  0  0  0  0  0  0
   -3.1110   -1.0770    0.0530 C   0  0  0  0  0  0  0  0  0  0  0  0
   -3.6270    0.1370    0.8060 C   0  0  0  0  0  0  0  0  0  0  0  0
   -5.4260    0.4500    0.5200 P   0  0  0  0  0  0  0  0  0  0  0  0
   -5.6780    0.8440   -1.1620 O   0  0  0  0  0  0  0  0  0  0  0  0
   -5.7990    1.9400    1.3960 O   0  0  0  0  0  0  0  0  0  0  0  0
  1  2  1  0
  2  3  2  0
  2  4  1  0
  4  5  1  0
  5  6  1  0
  6  7  2  0
  6  8  1  0
  8  9  1  0
  9 10  1  0
 10 11  1  0
 11 12  1  0
 12 13  1  0
 13 14  1  0
 14 15  1  0
 14 16  1  0
M  END
