
     RDKit          3D

 16 15  0  0  0  0  0  0  0  0999 V2000
    6.4060   -1.0080   -0.2820 C   0  0  0  0  0  0  0  0  0  0  0  0
    5.3320   -0.3590    0.3560 O   0  0  0  0  0  0  0  0  0  0  0  0
    4.0350   -0.6280   -0.0620 C   0  0  0  0  0  0  0  0  0  0  0  0
    3.8410   -1.4430   -0.9980 O   0  0  0  0  0  0  0  0  0  0  0  0
    2.9540    0.0320    0.5880 N   0  0  0  0  0  0  0  0  0  0  0  0
    1.6170   -0.2530    0.1490 C   0  0  0  0  0  0  0  0  0  0  0  0
    1.3850   -1.0560   -0.7780 O   0  0  0  0  0  0  0  0  0  0  0  0
    0.5710    0.3850    0.7760 O   0  0  0  0  0  0  0  0  0  0  0  0
   -0.7760    0.1180    0.3560 C   0  0  0  0  0  0  0  0  0  0  0  0
   -1.6650    0.9490    1.2160 C   0  0  0  0  0  0  0  0  0  0  0  0
   -2.9860    0.7640    0.8910 O   0  0  0  0  0  0  0  0  0  0  0  0
   -3.2960    1.1200   -0.4100 C   0  0  2  0  0  0  0  0  0  0  0  0
   -4.3000    2.1780   -0.3210 N   0  0  0  0  0  0  0  0  0  0  0  0
   -4.0150   -0.3660   -1.2810 P   0  0  0  0  0  0  0  0  0  0  0  0
   -2.7810   -1.5670   -1.4370 O   0  0  0  0  0  0  0  0  0  0  0  0
   -5.2850   -0.9880   -0.3100 O   0  0  0  0  0  0  0  0  0  0  0  0
  1  2  1  0
  2  3  1  0
  3  4  2  0
  3  5  1  0
  5  6  1  0
  6  7  2  0
  6  8  1  0
  8  9  1  0
  9 10  1  0
 10 11  1  0
 11 12  1  0
 12 13  1  1
 12 14  1  0
 14 15  1  0
 14 16  1  0
M  END
