
     RDKit          3D

 16 16  0  0  0  0  0  0  0  0999 V2000
    3.4760   -1.3770    1.3760 O   0  0  0  0  0  0  0  0  0  0  0  0
    3.4850   -0.4830    0.5060 C   0  0  0  0  0  0  0  0  0  0  0  0
    4.7090   -0.0290    0.0350 O   0  0  0  0  0  0  0  0  0  0  0  0
    2.2360    0.0270    0.0380 N   0  0  0  0  0  0  0  0  0  0  0  0
    1.0070   -0.4690    0.5500 C   0  0  0  0  0  0  0  0  0  0  0  0
    1.0470   -1.3690    1.4250 O   0  0  0  0  0  0  0  0  0  0  0  0
   -0.2990    0.0580    0.0670 C   0  0  1  0  0  0  0  0  0  0  0  0
   -0.1250    1.0410   -0.8940 O   0  0  0  0  0  0  0  0  0  0  0  0
   -0.7960    2.5230   -0.3030 P   0  0  0  0  0  0  0  0  0  0  0  0
   -2.1670    3.0390   -1.1980 O   0  0  0  0  0  0  0  0  0  0  0  0
    0.4880    3.7110   -0.3420 O   0  0  0  0  0  0  0  0  0  0  0  0
   -1.1580   -1.0740   -0.4730 C   0  0  1  0  0  0  0  0  0  0  0  0
   -1.4450   -2.1150    0.5670 C   0  0  0  0  0  0  0  0  0  0  0  0
   -2.8630   -1.9570    0.2850 N   0  0  0  0  0  0  0  0  0  0  0  0
   -2.5990   -0.7620   -0.4670 C   0  0  0  0  0  0  0  0  0  0  0  0
   -3.2910    0.1630   -0.9290 O   0  0  0  0  0  0  0  0  0  0  0  0
  1  2  2  0
  2  3  1  0
  2  4  1  0
  4  5  1  0
  5  6  2  0
  5  7  1  0
  7  8  1  6
  7 12  1  0
  8  9  1  0
  9 10  1  0
  9 11  1  0
 12 13  1  1
 12 15  1  0
 13 14  1  0
 14 15  1  0
 15 16  2  0
M  END
