
     RDKit          3D

 14 14  0  0  0  0  0  0  0  0999 V2000
    3.8520   -0.6370    2.2450 O   0  0  0  0  0  0  0  0  0  0  0  0
    3.2400    0.0270    1.0600 P   0  0  2  0  0  0  0  0  0  0  0  0
    3.9070   -0.6100   -0.3620 O   0  0  0  0  0  0  0  0  0  0  0  0
    3.5220    1.6810    1.0940 O   0  0  0  0  0  0  0  0  0  0  0  0
    1.5500   -0.2330    0.9840 O   0  0  0  0  0  0  0  0  0  0  0  0
    1.1380    0.1750   -0.2590 C   0  0  0  0  0  0  0  0  0  0  0  0
   -0.3350    0.0160   -0.4970 C   0  0  1  0  0  0  0  0  0  0  0  0
   -0.7700   -1.2980   -0.3890 O   0  0  0  0  0  0  0  0  0  0  0  0
   -2.1520   -1.1460   -0.4980 C   0  0  1  0  0  0  0  0  0  0  0  0
   -2.8430   -2.2450   -0.0090 O   0  0  0  0  0  0  0  0  0  0  0  0
   -2.5270    0.0690    0.3040 C   0  0  1  0  0  0  0  0  0  0  0  0
   -3.2280   -0.2240    1.4560 O   0  0  0  0  0  0  0  0  0  0  0  0
   -1.1520    0.6710    0.6220 C   0  0  2  0  0  0  0  0  0  0  0  0
   -1.1550    2.0420    0.5280 O   0  0  0  0  0  0  0  0  0  0  0  0
  1  2  2  0
  2  3  1  6
  2  4  1  0
  2  5  1  0
  5  6  1  0
  7  6  1  1
  7  8  1  0
  7 13  1  0
  8  9  1  0
  9 10  1  1
  9 11  1  0
 11 12  1  1
 11 13  1  0
 13 14  1  6
M  END
