
     RDKit          3D

 16 16  0  0  0  0  0  0  0  0999 V2000
    5.0080   -1.0740    1.2660 O   0  0  0  0  0  0  0  0  0  0  0  0
    5.0420    0.0000    0.5790 C   0  0  0  0  0  0  0  0  0  0  0  0
    6.2750    0.6240    0.4110 O   0  0  0  0  0  0  0  0  0  0  0  0
    3.8650    0.5440    0.0030 N   0  0  0  0  0  0  0  0  0  0  0  0
    2.6280   -0.1300    0.2030 C   0  0  1  0  0  0  0  0  0  0  0  0
    1.4430    0.7460    0.5550 C   0  0  0  0  0  0  0  0  0  0  0  0
    0.6330   -0.1370   -0.2640 N   0  0  0  0  0  0  0  0  0  0  0  0
   -0.7140   -0.5900   -0.2950 C   0  0  0  0  0  0  0  0  0  0  0  0
   -1.0880   -1.3850   -1.1800 O   0  0  0  0  0  0  0  0  0  0  0  0
   -1.6440   -0.1750    0.6350 O   0  0  0  0  0  0  0  0  0  0  0  0
   -2.9260   -0.5970    0.6180 O   0  0  0  0  0  0  0  0  0  0  0  0
   -3.6080    0.2130   -0.3030 C   0  0  0  0  0  0  0  0  0  0  0  0
   -5.3780   -0.2230   -0.4540 P   0  0  0  0  0  0  0  0  0  0  0  0
   -6.3440    1.1530   -0.0970 O   0  0  0  0  0  0  0  0  0  0  0  0
   -5.7920   -1.6080    0.4650 O   0  0  0  0  0  0  0  0  0  0  0  0
    1.8150   -0.3760   -1.0690 C   0  0  0  0  0  0  0  0  0  0  0  0
  1  2  2  0
  2  3  1  0
  2  4  1  0
  5  4  1  6
  5  6  1  0
  5 16  1  0
  6  7  1  0
  7  8  1  0
  7 16  1  0
  8  9  2  0
  8 10  1  0
 10 11  1  0
 11 12  1  0
 12 13  1  0
 13 14  1  0
 13 15  1  0
M  END
