
     RDKit          3D

 15 15  0  0  0  0  0  0  0  0999 V2000
   -0.9070   -0.7540    1.9690 C   0  0  0  0  0  0  0  0  0  0  0  0
   -0.1170   -0.5800    0.6890 C   0  0  2  0  0  0  0  0  0  0  0  0
    0.3450   -1.8100    0.2170 O   0  0  0  0  0  0  0  0  0  0  0  0
    1.0090    0.1540    1.0200 O   0  0  0  0  0  0  0  0  0  0  0  0
    1.2860    1.0680    0.0470 C   0  0  1  0  0  0  0  0  0  0  0  0
    2.7100    1.1470   -0.2500 C   0  0  0  0  0  0  0  0  0  0  0  0
    3.2350    1.9040   -1.0990 O   0  0  0  0  0  0  0  0  0  0  0  0
    3.5700    0.3210    0.4610 O   0  0  0  0  0  0  0  0  0  0  0  0
    4.9270    0.3200    0.2560 N   0  0  0  0  0  0  0  0  0  0  0  0
    0.4220    0.7390   -1.1390 C   0  0  0  0  0  0  0  0  0  0  0  0
   -0.8000    0.1990   -0.3680 C   0  0  2  0  0  0  0  0  0  0  0  0
   -1.3880    1.3280    0.2020 O   0  0  0  0  0  0  0  0  0  0  0  0
   -1.7480   -0.4870   -1.2530 C   0  0  0  0  0  0  0  0  0  0  0  0
   -2.8970   -1.0900   -0.4940 C   0  0  0  0  0  0  0  0  0  0  0  0
   -3.6390   -0.1440    0.2160 O   0  0  0  0  0  0  0  0  0  0  0  0
  2  1  1  1
  2  3  1  0
  2  4  1  0
  2 11  1  0
  4  5  1  0
  5  6  1  6
  5 10  1  0
  6  7  2  0
  6  8  1  0
  8  9  1  0
 10 11  1  0
 11 12  1  1
 11 13  1  0
 13 14  1  0
 14 15  1  0
M  END
