
     RDKit          3D

 15 15  0  0  0  0  0  0  0  0999 V2000
   -3.6740   -0.3450   -0.6700 C   0  0  0  0  0  0  0  0  0  0  0  0
   -2.4500    0.3050   -0.7870 O   0  0  0  0  0  0  0  0  0  0  0  0
   -2.0660    0.7660    0.4370 C   0  0  2  0  0  0  0  0  0  0  0  0
   -2.0260    2.1610    0.4000 O   0  0  0  0  0  0  0  0  0  0  0  0
   -0.7520    0.2650    0.9260 C   0  0  1  0  0  0  0  0  0  0  0  0
   -0.6550   -1.2100    1.0770 C   0  0  0  0  0  0  0  0  0  0  0  0
    0.8320   -1.4890    0.9940 C   0  0  1  0  0  0  0  0  0  0  0  0
    1.0270   -2.3960   -0.0720 O   0  0  0  0  0  0  0  0  0  0  0  0
    1.5130   -0.1890    0.6920 C   0  0  1  0  0  0  0  0  0  0  0  0
    2.6970   -0.3470   -0.1820 C   0  0  0  0  0  0  0  0  0  0  0  0
    3.0650   -1.4490   -0.6060 O   0  0  0  0  0  0  0  0  0  0  0  0
    3.4270    0.8200   -0.5370 N   0  0  0  0  0  0  0  0  0  0  0  0
    4.5330    0.7620   -1.3410 O   0  0  0  0  0  0  0  0  0  0  0  0
    0.3990    0.5940    0.0040 C   0  0  2  0  0  0  0  0  0  0  0  0
    0.6650    1.9710    0.0180 O   0  0  0  0  0  0  0  0  0  0  0  0
  1  2  1  0
  2  3  1  0
  3  4  1  6
  3  5  1  0
  5  6  1  6
  5 14  1  0
  6  7  1  0
  7  8  1  6
  7  9  1  0
  9 10  1  6
  9 14  1  0
 10 11  2  0
 10 12  1  0
 12 13  1  0
 14 15  1  1
M  END
