
     RDKit          3D

 15 15  0  0  0  0  0  0  0  0999 V2000
    4.4940    0.0740    0.8200 C   0  0  0  0  0  0  0  0  0  0  0  0
    3.2850    0.1050   -0.0680 C   0  0  0  0  0  0  0  0  0  0  0  0
    3.3950    0.3210   -1.2940 O   0  0  0  0  0  0  0  0  0  0  0  0
    1.9780   -0.1110    0.4510 N   0  0  0  0  0  0  0  0  0  0  0  0
    0.7860   -0.0880   -0.3830 C   0  0  1  0  0  0  0  0  0  0  0  0
    0.0130   -1.3670   -0.2350 C   0  0  2  0  0  0  0  0  0  0  0  0
   -0.5490   -1.8100   -1.4160 O   0  0  0  0  0  0  0  0  0  0  0  0
   -0.9280   -1.3120    0.7820 O   0  0  0  0  0  0  0  0  0  0  0  0
   -1.9420   -0.4210    0.5690 C   0  0  2  0  0  0  0  0  0  0  0  0
   -3.1520   -1.0960   -0.0580 C   0  0  0  0  0  0  0  0  0  0  0  0
   -4.1580   -0.1570   -0.2580 O   0  0  0  0  0  0  0  0  0  0  0  0
   -1.5340    0.8180   -0.1810 C   0  0  1  0  0  0  0  0  0  0  0  0
   -2.2360    1.9290    0.2930 O   0  0  0  0  0  0  0  0  0  0  0  0
   -0.0620    1.0830    0.1020 C   0  0  2  0  0  0  0  0  0  0  0  0
    0.3670    2.2380   -0.5220 O   0  0  0  0  0  0  0  0  0  0  0  0
  1  2  1  0
  2  3  2  0
  2  4  1  0
  5  4  1  1
  5  6  1  0
  5 14  1  0
  6  7  1  6
  6  8  1  0
  8  9  1  0
  9 10  1  6
  9 12  1  0
 10 11  1  0
 12 13  1  1
 12 14  1  0
 14 15  1  6
M  END
