
     RDKit          3D

 15 15  0  0  0  0  0  0  0  0999 V2000
    4.4040   -0.8560   -0.2700 C   0  0  0  0  0  0  0  0  0  0  0  0
    3.0390   -0.9720   -0.0450 O   0  0  0  0  0  0  0  0  0  0  0  0
    2.4570    0.2680   -0.3000 C   0  0  0  0  0  0  0  0  0  0  0  0
    0.9870    0.1450   -0.0580 C   0  0  2  0  0  0  0  0  0  0  0  0
    0.8050   -0.2310    1.2760 O   0  0  0  0  0  0  0  0  0  0  0  0
    0.3240   -0.8830   -0.9350 C   0  0  0  0  0  0  0  0  0  0  0  0
   -0.9970   -0.9870   -0.6650 O   0  0  0  0  0  0  0  0  0  0  0  0
   -1.7010    0.1360   -0.4080 C   0  0  1  0  0  0  0  0  0  0  0  0
   -2.8600   -0.2820    0.5140 C   0  0  1  0  0  0  0  0  0  0  0  0
   -3.6590    0.7780    0.8520 O   0  0  0  0  0  0  0  0  0  0  0  0
   -3.5750   -1.4160   -0.1530 C   0  0  0  0  0  0  0  0  0  0  0  0
   -4.1790   -1.0000   -1.3360 O   0  0  0  0  0  0  0  0  0  0  0  0
   -1.0670    1.1730    0.1890 O   0  0  0  0  0  0  0  0  0  0  0  0
    0.2240    1.4180   -0.2730 C   0  0  1  0  0  0  0  0  0  0  0  0
    0.7890    2.5620    0.3420 N   0  0  0  0  0  0  0  0  0  0  0  0
  1  2  1  0
  2  3  1  0
  3  4  1  0
  4  5  1  1
  4  6  1  0
  4 14  1  0
  6  7  1  0
  8  7  1  1
  8  9  1  0
  8 13  1  0
  9 10  1  6
  9 11  1  0
 11 12  1  0
 13 14  1  0
 14 15  1  1
M  END
