
     RDKit          3D

 15 15  0  0  0  0  0  0  0  0999 V2000
   -0.2440   -1.7780   -0.2710 C   0  0  0  0  0  0  0  0  0  0  0  0
   -0.5940   -0.3480   -0.1470 C   0  0  1  0  0  0  0  0  0  0  0  0
    0.2900    0.5120    0.3660 O   0  0  0  0  0  0  0  0  0  0  0  0
    1.4440    0.8480   -0.2300 C   0  0  0  0  0  0  0  0  0  0  0  0
    2.4870   -0.2170   -0.3900 C   0  0  1  0  0  0  0  0  0  0  0  0
    3.5790    0.3520   -1.0840 O   0  0  0  0  0  0  0  0  0  0  0  0
    2.9940   -0.5910    1.0000 C   0  0  0  0  0  0  0  0  0  0  0  0
    3.4480    0.6120    1.5600 O   0  0  0  0  0  0  0  0  0  0  0  0
   -1.0930    0.0630   -1.4390 O   0  0  0  0  0  0  0  0  0  0  0  0
   -2.2450    0.8130   -1.3070 C   0  0  0  0  0  0  0  0  0  0  0  0
   -3.0040    1.1830   -2.2550 O   0  0  0  0  0  0  0  0  0  0  0  0
   -2.4070    1.0900    0.1410 C   0  0  1  0  0  0  0  0  0  0  0  0
   -3.8220    1.2520    0.3930 N   0  0  0  0  0  0  0  0  0  0  0  0
   -1.8760   -0.1960    0.7360 C   0  0  1  0  0  0  0  0  0  0  0  0
   -2.7100   -1.2700    0.5690 O   0  0  0  0  0  0  0  0  0  0  0  0
  2  1  1  6
  2  3  1  0
  2  9  1  0
  2 14  1  0
  3  4  1  0
  4  5  1  0
  5  6  1  6
  5  7  1  0
  7  8  1  0
  9 10  1  0
 10 11  2  0
 10 12  1  0
 12 13  1  6
 12 14  1  0
 14 15  1  6
M  END
