
     RDKit          3D

 15 15  0  0  0  0  0  0  0  0999 V2000
   -3.9880    0.7820   -0.8510 N   0  0  0  0  0  0  0  0  0  0  0  0
   -3.0410   -0.0380   -0.1040 C   0  0  2  0  0  0  0  0  0  0  0  0
   -1.8080    0.8050    0.2450 C   0  0  0  0  0  0  0  0  0  0  0  0
   -0.6190    0.0760   -0.3080 C   0  0  1  0  0  0  0  0  0  0  0  0
   -0.8040   -0.0410   -1.6930 O   0  0  0  0  0  0  0  0  0  0  0  0
    0.6740    0.8120   -0.0800 C   0  0  0  0  0  0  0  0  0  0  0  0
    1.7650    0.1750   -0.6100 O   0  0  0  0  0  0  0  0  0  0  0  0
    2.9220    0.9010   -0.3680 C   0  0  2  0  0  0  0  0  0  0  0  0
    3.5100    1.3040   -1.5590 O   0  0  0  0  0  0  0  0  0  0  0  0
    3.9430    0.0860    0.4070 C   0  0  0  0  0  0  0  0  0  0  0  0
    3.4250   -0.3130    1.6440 O   0  0  0  0  0  0  0  0  0  0  0  0
   -0.6180   -1.3180    0.2540 C   0  0  1  0  0  0  0  0  0  0  0  0
   -0.7430   -1.3350    1.6390 O   0  0  0  0  0  0  0  0  0  0  0  0
   -1.8460   -2.0100   -0.3060 C   0  0  0  0  0  0  0  0  0  0  0  0
   -2.7210   -1.1160   -0.8970 O   0  0  0  0  0  0  0  0  0  0  0  0
  2  1  1  6
  2  3  1  0
  2 15  1  0
  3  4  1  0
  4  5  1  6
  4  6  1  0
  4 12  1  0
  6  7  1  0
  7  8  1  0
  8  9  1  6
  8 10  1  0
 10 11  1  0
 12 13  1  1
 12 14  1  0
 14 15  1  0
M  END
