
     RDKit          3D

 15 15  0  0  0  0  0  0  0  0999 V2000
    4.0610    0.7820   -0.9200 N   0  0  0  0  0  0  0  0  0  0  0  0
    3.6240   -0.2110    0.0230 C   0  0  1  0  0  0  0  0  0  0  0  0
    4.3280    0.0110    1.2170 O   0  0  0  0  0  0  0  0  0  0  0  0
    2.1400    0.0150    0.2960 C   0  0  1  0  0  0  0  0  0  0  0  0
    2.0590    1.3160    0.8190 O   0  0  0  0  0  0  0  0  0  0  0  0
    1.4220   -0.1200   -1.0070 C   0  0  0  0  0  0  0  0  0  0  0  0
    0.0730    0.1660   -0.9440 O   0  0  0  0  0  0  0  0  0  0  0  0
   -0.6270   -0.6460   -0.0770 C   0  0  0  0  0  0  0  0  0  0  0  0
   -2.0770   -0.2520   -0.0850 C   0  0  2  0  0  0  0  0  0  0  0  0
   -2.2450    1.1160    0.5430 C   0  0  0  0  0  0  0  0  0  0  0  0
   -1.6760    2.0520   -0.2950 O   0  0  0  0  0  0  0  0  0  0  0  0
   -2.8390   -1.3110    0.7150 C   0  0  0  0  0  0  0  0  0  0  0  0
   -4.1210   -1.1450    0.2000 O   0  0  0  0  0  0  0  0  0  0  0  0
   -4.0080   -0.5980   -1.0540 C   0  0  0  0  0  0  0  0  0  0  0  0
   -2.6760   -0.3580   -1.3160 O   0  0  0  0  0  0  0  0  0  0  0  0
  2  1  1  6
  2  3  1  0
  2  4  1  0
  4  5  1  6
  4  6  1  0
  6  7  1  0
  7  8  1  0
  9  8  1  6
  9 10  1  0
  9 12  1  0
  9 15  1  0
 10 11  1  0
 12 13  1  0
 13 14  1  0
 14 15  1  0
M  END
