
     RDKit          3D

 21 21  0  0  0  0  0  0  0  0999 V2000
    4.3090   -1.6770   -0.7890 C   0  0  0  0  0  0  0  0  0  0  0  0
    3.7590   -0.3480   -0.5940 N   0  0  0  0  0  0  0  0  0  0  0  0
    2.4580    0.0310   -1.1240 C   0  0  0  0  0  0  0  0  0  0  0  0
    1.4050   -0.2990   -0.0350 C   0  0  1  0  0  0  0  0  0  0  0  0
    1.7810    0.4590    1.0520 O   0  0  0  0  0  0  0  0  0  0  0  0
    0.0320    0.0820   -0.5360 C   0  0  1  0  0  0  0  0  0  0  0  0
   -0.2470   -0.7310   -1.5960 O   0  0  0  0  0  0  0  0  0  0  0  0
   -0.9820    0.1630    0.5420 C   0  0  2  0  0  0  0  0  0  0  0  0
   -0.4980    1.2520    1.5230 C   0  0  0  0  0  0  0  0  0  0  0  0
   -1.0240   -1.0680    1.3820 C   0  0  0  0  0  0  0  0  0  0  0  0
   -0.1390   -1.9780    1.5290 O   0  0  0  0  0  0  0  0  0  0  0  0
   -2.2710   -1.0130    1.9920 O   0  0  0  0  0  0  0  0  0  0  0  0
   -3.1820   -0.6230    0.9350 C   0  0  1  0  0  0  0  0  0  0  0  0
   -3.3760   -1.8660    0.1290 C   0  0  0  0  0  0  0  0  0  0  0  0
   -4.3410   -0.1090    1.4650 O   0  0  0  0  0  0  0  0  0  0  0  0
   -2.3610    0.4350    0.1860 C   0  0  2  0  0  0  0  0  0  0  0  0
   -2.7930    0.6020   -1.2100 C   0  0  0  0  0  0  0  0  0  0  0  0
   -2.1420    1.7220   -1.8460 N   0  0  0  0  0  0  0  0  0  0  0  0
    4.5000    0.6050    0.1250 C   0  0  0  0  0  0  0  0  0  0  0  0
    5.6330    0.3100    0.5980 O   0  0  0  0  0  0  0  0  0  0  0  0
    3.9810    1.8750    0.3140 O   0  0  0  0  0  0  0  0  0  0  0  0
  1  2  1  0
  2  3  1  0
  2 19  1  0
  3  4  1  0
  4  5  1  1
  4  6  1  0
  6  7  1  6
  6  8  1  0
  8  9  1  1
  8 10  1  0
  8 16  1  0
 10 11  2  0
 10 12  1  0
 12 13  1  0
 13 14  1  6
 13 15  1  0
 13 16  1  0
 16 17  1  6
 17 18  1  0
 19 20  2  0
 19 21  1  0
M  CHG  1  18   1
M  END
