
     RDKit          3D

 22 24  0  0  0  0  0  0  0  0999 V2000
   -1.1290   -1.4090   -2.3900 O   0  0  0  0  0  0  0  0  0  0  0  0
   -1.2580   -0.6810   -1.3680 C   0  0  0  0  0  0  0  0  0  0  0  0
   -2.6110   -0.3050   -0.9660 C   0  0  0  0  0  0  0  0  0  0  0  0
   -3.7210   -0.7260   -1.6710 C   0  0  0  0  0  0  0  0  0  0  0  0
   -4.9990   -0.3660   -1.2840 C   0  0  0  0  0  0  0  0  0  0  0  0
   -5.1470    0.4280   -0.1710 C   0  0  0  0  0  0  0  0  0  0  0  0
   -4.0320    0.8440    0.5290 C   0  0  0  0  0  0  0  0  0  0  0  0
   -2.7500    0.4900    0.1510 C   0  0  0  0  0  0  0  0  0  0  0  0
   -1.5640    0.9280    0.8880 C   0  0  0  0  0  0  0  0  0  0  0  0
   -1.7080    1.6570    1.9090 O   0  0  0  0  0  0  0  0  0  0  0  0
   -0.2120    0.5530    0.4860 C   0  0  0  0  0  0  0  0  0  0  0  0
   -0.0730   -0.2440   -0.6320 C   0  0  0  0  0  0  0  0  0  0  0  0
    1.2050   -0.5990   -1.0120 C   0  0  0  0  0  0  0  0  0  0  0  0
    2.3380   -0.1800   -0.3060 C   0  0  0  0  0  0  0  0  0  0  0  0
    3.9370   -0.6460   -0.8100 S   0  0  1  0  0  0  0  0  0  0  0  0
    3.7300   -1.5750   -2.1580 O   0  0  0  0  0  0  0  0  0  0  0  0
    4.5990    0.8010   -1.3710 O   0  0  0  0  0  0  0  0  0  0  0  0
    4.7970   -1.3070    0.2370 O   0  0  0  0  0  0  0  0  0  0  0  0
    2.1900    0.6150    0.8090 C   0  0  0  0  0  0  0  0  0  0  0  0
    3.3240    1.0220    1.4960 O   0  0  0  0  0  0  0  0  0  0  0  0
    0.9150    0.9720    1.1920 C   0  0  0  0  0  0  0  0  0  0  0  0
    0.7450    1.7650    2.3020 O   0  0  0  0  0  0  0  0  0  0  0  0
  1  2  2  0
  2  3  1  0
  2 12  1  0
  3  4  2  0
  3  8  1  0
  4  5  1  0
  5  6  2  0
  6  7  1  0
  7  8  2  0
  8  9  1  0
  9 10  2  0
  9 11  1  0
 11 12  2  0
 11 21  1  0
 12 13  1  0
 13 14  2  0
 14 15  1  0
 14 19  1  0
 15 16  1  6
 15 17  1  0
 15 18  1  0
 19 20  1  0
 19 21  2  0
 21 22  1  0
M  END
