
     RDKit          3D

 22 22  0  0  0  0  0  0  0  0999 V2000
    1.8630    3.1900    1.0180 C   0  0  0  0  0  0  0  0  0  0  0  0
    1.5330    1.8790    0.3850 C   0  0  2  0  0  0  0  0  0  0  0  0
    0.2850    1.3120    0.8330 N   0  0  0  0  0  0  0  0  0  0  0  0
   -0.8020    1.0480   -0.0430 C   0  0  0  0  0  0  0  0  0  0  0  0
   -0.6760    1.3170   -1.2590 O   0  0  0  0  0  0  0  0  0  0  0  0
   -2.0380    0.4840    0.4170 N   0  0  0  0  0  0  0  0  0  0  0  0
   -3.1240    0.2280   -0.5100 C   0  0  0  0  0  0  0  0  0  0  0  0
   -4.2720   -0.3610    0.2810 C   0  0  2  0  0  0  0  0  0  0  0  0
   -4.7190    0.4900    1.2730 O   0  0  0  0  0  0  0  0  0  0  0  0
   -3.9480   -1.6890    0.8670 C   0  0  0  0  0  0  0  0  0  0  0  0
   -4.9740   -2.5570    0.6370 O   0  0  0  0  0  0  0  0  0  0  0  0
   -6.0280   -1.8870    0.0750 C   0  0  0  0  0  0  0  0  0  0  0  0
   -5.4480   -0.6640   -0.6240 C   0  0  1  0  0  0  0  0  0  0  0  0
   -6.3540    0.3890   -0.6440 O   0  0  0  0  0  0  0  0  0  0  0  0
    2.6370    0.8770    0.5630 C   0  0  0  0  0  0  0  0  0  0  0  0
    2.4060   -0.2620    1.0420 O   0  0  0  0  0  0  0  0  0  0  0  0
    3.9210    1.1740    0.2110 O   0  0  0  0  0  0  0  0  0  0  0  0
    5.0390    0.3490    0.3180 C   0  0  0  0  0  0  0  0  0  0  0  0
    4.8300   -0.8970   -0.5100 C   0  0  1  0  0  0  0  0  0  0  0  0
    4.6420   -0.5140   -1.8520 O   0  0  0  0  0  0  0  0  0  0  0  0
    6.0640   -1.7800   -0.5030 C   0  0  0  0  0  0  0  0  0  0  0  0
    7.1800   -1.0980   -0.9740 O   0  0  0  0  0  0  0  0  0  0  0  0
  2  1  1  1
  2  3  1  0
  2 15  1  0
  3  4  1  0
  4  5  2  0
  4  6  1  0
  6  7  1  0
  7  8  1  0
  8  9  1  1
  8 10  1  0
  8 13  1  0
 10 11  1  0
 11 12  1  0
 12 13  1  0
 13 14  1  1
 15 16  2  0
 15 17  1  0
 17 18  1  0
 18 19  1  0
 19 20  1  6
 19 21  1  0
 21 22  1  0
M  END
