
     RDKit          3D

 21 21  0  0  0  0  0  0  0  0999 V2000
   -1.6960   -1.1590   -1.4140 N   0  0  0  0  0  0  0  0  0  0  0  0
   -1.9890   -0.1760   -0.3830 C   0  0  1  0  0  0  0  0  0  0  0  0
   -1.2770    1.0800   -0.7610 C   0  0  0  0  0  0  0  0  0  0  0  0
    0.1210    0.9110   -0.8580 O   0  0  0  0  0  0  0  0  0  0  0  0
    0.9360    0.5070    0.1870 C   0  0  0  0  0  0  0  0  0  0  0  0
    0.4160    0.2710    1.3020 O   0  0  0  0  0  0  0  0  0  0  0  0
    2.3480    0.3500    0.0370 N   0  0  0  0  0  0  0  0  0  0  0  0
    3.1100   -0.0760    1.1840 C   0  0  0  0  0  0  0  0  0  0  0  0
    4.5680   -0.2090    0.9260 C   0  0  1  0  0  0  0  0  0  0  0  0
    5.2010   -0.6190    2.0830 O   0  0  0  0  0  0  0  0  0  0  0  0
    4.8890   -1.1930   -0.1810 C   0  0  0  0  0  0  0  0  0  0  0  0
    6.2480   -0.6870   -0.6110 C   0  0  0  0  0  0  0  0  0  0  0  0
    6.3510    0.6260   -0.2610 O   0  0  0  0  0  0  0  0  0  0  0  0
    5.2190    1.0300    0.3930 C   0  0  0  0  0  0  0  0  0  0  0  0
   -3.4890    0.0350   -0.3040 C   0  0  1  0  0  0  0  0  0  0  0  0
   -4.0090    0.4840   -1.4900 O   0  0  0  0  0  0  0  0  0  0  0  0
   -4.1610   -1.2880    0.0170 C   0  0  0  0  0  0  0  0  0  0  0  0
   -3.9320   -2.2520   -0.9690 O   0  0  0  0  0  0  0  0  0  0  0  0
   -3.8320    1.0140    0.7720 C   0  0  0  0  0  0  0  0  0  0  0  0
   -5.2920    1.2910    0.9300 C   0  0  0  0  0  0  0  0  0  0  0  0
   -5.5110    2.2370    1.9610 O   0  0  0  0  0  0  0  0  0  0  0  0
  2  1  1  6
  2  3  1  0
  2 15  1  0
  3  4  1  0
  4  5  1  0
  5  6  2  0
  5  7  1  0
  7  8  1  0
  8  9  1  0
  9 10  1  1
  9 11  1  0
  9 14  1  0
 11 12  1  0
 12 13  1  0
 13 14  1  0
 15 16  1  6
 15 17  1  0
 15 19  1  0
 17 18  1  0
 19 20  1  0
 20 21  1  0
M  CHG  1   1   1
M  END
