
     RDKit          3D

 22 22  0  0  0  0  0  0  0  0999 V2000
   -5.9200    1.3790    1.8160 C   0  0  0  0  0  0  0  0  0  0  0  0
   -5.2900    0.4350    0.7940 C   0  0  0  0  0  0  0  0  0  0  0  0
   -4.0710    1.0530    0.1640 C   0  0  2  0  0  0  0  0  0  0  0  0
   -4.5330    2.2380   -0.4600 O   0  0  0  0  0  0  0  0  0  0  0  0
   -3.4790    0.2160   -0.9140 C   0  0  2  0  0  0  0  0  0  0  0  0
   -4.4410   -0.0820   -1.8760 O   0  0  0  0  0  0  0  0  0  0  0  0
   -2.8480   -1.0660   -0.4660 C   0  0  2  0  0  0  0  0  0  0  0  0
   -3.7850   -1.9420    0.0790 O   0  0  0  0  0  0  0  0  0  0  0  0
   -1.8280   -0.8220    0.6570 C   0  0  0  0  0  0  0  0  0  0  0  0
   -0.8460   -1.7980    0.4860 O   0  0  0  0  0  0  0  0  0  0  0  0
   -0.0280   -1.4730   -0.6200 C   0  0  2  0  0  0  0  0  0  0  0  0
    0.9200   -0.4820   -0.1910 N   0  0  0  0  0  0  0  0  0  0  0  0
    2.3290   -0.7170   -0.2030 C   0  0  0  0  0  0  0  0  0  0  0  0
    2.7580   -1.8130   -0.5970 O   0  0  0  0  0  0  0  0  0  0  0  0
    3.2510    0.2330    0.2080 O   0  0  0  0  0  0  0  0  0  0  0  0
    4.6470   -0.0880    0.1630 C   0  0  0  0  0  0  0  0  0  0  0  0
    5.3730    1.1400    0.6690 C   0  0  1  0  0  0  0  0  0  0  0  0
    4.9800    1.4430    1.9720 O   0  0  0  0  0  0  0  0  0  0  0  0
    6.8720    0.9300    0.6870 C   0  0  0  0  0  0  0  0  0  0  0  0
    7.3120    0.6090   -0.6770 N   0  0  0  0  0  0  0  0  0  0  0  0
   -0.8310   -1.0610   -1.6550 O   0  0  0  0  0  0  0  0  0  0  0  0
   -2.0570   -1.7280   -1.5810 C   0  0  0  0  0  0  0  0  0  0  0  0
  1  2  1  0
  2  3  1  0
  3  4  1  6
  3  5  1  0
  5  6  1  6
  5  7  1  0
  7  8  1  1
  7  9  1  0
  7 22  1  0
  9 10  1  0
 10 11  1  0
 11 12  1  1
 11 21  1  0
 12 13  1  0
 13 14  2  0
 13 15  1  0
 15 16  1  0
 16 17  1  0
 17 18  1  1
 17 19  1  0
 19 20  1  0
 21 22  1  0
M  CHG  1  20   1
M  END
