
     RDKit          3D

 22 23  0  0  0  0  0  0  0  0999 V2000
    5.8200   -0.3740    0.8290 N   0  0  0  0  0  0  0  0  0  0  0  0
    4.6180   -0.3780    0.0780 C   0  0  0  0  0  0  0  0  0  0  0  0
    4.0650   -1.4770   -0.1840 O   0  0  0  0  0  0  0  0  0  0  0  0
    3.9920    0.8570   -0.4070 C   0  0  1  0  0  0  0  0  0  0  0  0
    4.9680    1.7340   -1.1550 C   0  0  0  0  0  0  0  0  0  0  0  0
    6.0910    1.9160   -0.3490 O   0  0  0  0  0  0  0  0  0  0  0  0
    2.8410    0.6080   -1.1080 O   0  0  0  0  0  0  0  0  0  0  0  0
    1.7020    1.1340   -0.5080 C   0  0  0  0  0  0  0  0  0  0  0  0
    0.5330    0.7650   -1.4140 C   0  0  1  0  0  0  0  0  0  0  0  0
    0.5070   -0.6920   -1.4780 N   0  0  0  0  0  0  0  0  0  0  0  0
   -0.3890   -1.1190   -0.4640 C   0  0  0  0  0  0  0  0  0  0  0  0
   -1.1010   -0.0750   -0.0720 C   0  0  0  0  0  0  0  0  0  0  0  0
   -2.1640   -0.0530    0.9720 C   0  0  2  0  0  0  0  0  0  0  0  0
   -2.3850   -1.3900    1.5920 C   0  0  0  0  0  0  0  0  0  0  0  0
   -3.8410   -1.4310    2.0710 C   0  0  1  0  0  0  0  0  0  0  0  0
   -4.0790   -0.1870    2.6950 O   0  0  0  0  0  0  0  0  0  0  0  0
   -4.6160   -1.5360    0.9120 O   0  0  0  0  0  0  0  0  0  0  0  0
   -4.0910   -0.7110   -0.0650 C   0  0  1  0  0  0  0  0  0  0  0  0
   -5.2690   -0.1550   -0.8600 C   0  0  0  0  0  0  0  0  0  0  0  0
   -4.8070    0.6970   -1.8760 O   0  0  0  0  0  0  0  0  0  0  0  0
   -3.3950    0.3740    0.4390 O   0  0  0  0  0  0  0  0  0  0  0  0
   -0.7030    1.0370   -0.8000 O   0  0  0  0  0  0  0  0  0  0  0  0
  1  2  1  0
  2  3  2  0
  2  4  1  0
  4  5  1  6
  4  7  1  0
  5  6  1  0
  7  8  1  0
  9  8  1  1
  9 10  1  0
  9 22  1  0
 10 11  1  0
 11 12  2  0
 13 12  1  6
 12 22  1  0
 13 14  1  0
 13 21  1  0
 14 15  1  0
 15 16  1  6
 15 17  1  0
 17 18  1  0
 18 19  1  1
 18 21  1  0
 19 20  1  0
M  END
