
     RDKit          3D

  7  6  0  0  0  0  0  0  0  0999 V2000
    2.8530   -0.2930   -0.0860 C   0  0  0  0  0  0  0  0  0  0  0  0
    1.5380   -0.0470    0.6150 C   0  0  0  0  0  0  0  0  0  0  0  0
    0.5320    0.2950   -0.3340 N   0  0  0  0  0  0  0  0  0  0  0  0
   -0.7930    0.4220    0.1860 C   0  0  1  0  0  0  0  0  0  0  0  0
   -1.5840    1.3040   -0.7480 C   0  0  0  0  0  0  0  0  0  0  0  0
   -1.4810   -0.9580    0.2160 C   0  0  0  0  0  0  0  0  0  0  0  0
   -2.7520   -0.8620    0.7170 O   0  0  0  0  0  0  0  0  0  0  0  0
  1  2  1  0
  2  3  1  0
  3  4  1  0
  4  5  1  6
  4  6  1  0
  6  7  1  0
M  END
