
     RDKit          3D

 20 21  0  0  0  0  0  0  0  0999 V2000
   -6.6630   -0.7810    0.1330 C   0  0  0  0  0  0  0  0  0  0  0  0
   -5.4080   -0.1530    0.3210 O   0  0  0  0  0  0  0  0  0  0  0  0
   -4.2910   -0.4970   -0.4570 C   0  0  0  0  0  0  0  0  0  0  0  0
   -4.4760   -1.3890   -1.3230 O   0  0  0  0  0  0  0  0  0  0  0  0
   -3.0350    0.1130   -0.2880 N   0  0  0  0  0  0  0  0  0  0  0  0
   -1.9390   -0.2840   -1.1140 C   0  0  0  0  0  0  0  0  0  0  0  0
   -0.6460   -0.4620   -0.3800 C   0  0  0  0  0  0  0  0  0  0  0  0
   -0.4100    0.5790    0.6690 C   0  0  1  0  0  0  0  0  0  0  0  0
    0.8530    1.1840    0.4720 O   0  0  0  0  0  0  0  0  0  0  0  0
    2.0400    0.3930    0.5100 C   0  0  0  0  0  0  0  0  0  0  0  0
    1.9750   -0.7800    1.2510 N   0  0  0  0  0  0  0  0  0  0  0  0
    3.0410    0.8540   -0.1470 C   0  0  0  0  0  0  0  0  0  0  0  0
    4.3500    0.2530   -0.2700 C   0  0  0  0  0  0  0  0  0  0  0  0
    5.3750    0.7820   -0.9780 C   0  0  0  0  0  0  0  0  0  0  0  0
    6.5520   -0.0600   -0.9050 C   0  0  0  0  0  0  0  0  0  0  0  0
    6.3290   -1.1190   -0.1740 C   0  0  0  0  0  0  0  0  0  0  0  0
    4.9220   -0.9740    0.2650 C   0  0  0  0  0  0  0  0  0  0  0  0
    4.3300   -1.8100    0.9970 O   0  0  0  0  0  0  0  0  0  0  0  0
   -1.4440    1.6670    0.5820 C   0  0  0  0  0  0  0  0  0  0  0  0
   -2.8520    1.1360    0.7170 C   0  0  0  0  0  0  0  0  0  0  0  0
  1  2  1  0
  2  3  1  0
  3  4  2  0
  3  5  1  0
  5  6  1  0
  5 20  1  0
  6  7  1  0
  7  8  1  0
  8  9  1  6
  8 19  1  0
  9 10  1  0
 10 11  1  0
 10 12  2  3
 12 13  1  0
 13 14  2  0
 13 17  1  0
 14 15  1  0
 15 16  2  0
 16 17  1  0
 17 18  2  0
 19 20  1  0
M  END
