
     RDKit          3D

  7  6  0  0  0  0  0  0  0  0999 V2000
   -1.6950   -1.1730    0.1750 C   0  0  0  0  0  0  0  0  0  0  0  0
   -1.3890    0.2250   -0.2300 C   0  0  0  0  0  0  0  0  0  0  0  0
   -0.0740    0.6560   -0.3270 N   0  0  0  0  0  0  0  0  0  0  0  0
   -0.0060    2.0360   -0.7490 C   0  0  0  0  0  0  0  0  0  0  0  0
    0.9320    0.2820    0.5660 C   0  0  0  0  0  0  0  0  0  0  0  0
    1.4040   -1.1560    0.5090 C   0  0  0  0  0  0  0  0  0  0  0  0
    1.9100   -1.4750   -0.7430 O   0  0  0  0  0  0  0  0  0  0  0  0
  1  2  1  0
  2  3  1  0
  3  4  1  0
  3  5  1  0
  5  6  1  0
  6  7  1  0
M  END
