
     RDKit          3D

  7  6  0  0  0  0  0  0  0  0999 V2000
   -2.5410    0.1130   -0.4380 C   0  0  0  0  0  0  0  0  0  0  0  0
   -1.8050    0.1650    0.8660 C   0  0  0  0  0  0  0  0  0  0  0  0
   -0.4920   -0.5640    0.8340 C   0  0  0  0  0  0  0  0  0  0  0  0
    0.4240    0.0240   -0.2070 C   0  0  0  0  0  0  0  0  0  0  0  0
    0.0130    0.9640   -0.8570 O   0  0  0  0  0  0  0  0  0  0  0  0
    1.7260   -0.5100   -0.4130 N   0  0  0  0  0  0  0  0  0  0  0  0
    2.7690    0.4680   -0.1300 C   0  0  0  0  0  0  0  0  0  0  0  0
  1  2  1  0
  2  3  1  0
  3  4  1  0
  4  5  2  0
  4  6  1  0
  6  7  1  0
M  CHG  1   6   1
M  END
