
     RDKit          3D

  7  6  0  0  0  0  0  0  0  0999 V2000
   -2.7780   -0.3730    0.6420 C   0  0  0  0  0  0  0  0  0  0  0  0
   -1.5450   -0.3660    0.1690 C   0  0  0  0  0  0  0  0  0  0  0  0
   -1.1500    0.5150   -0.9330 C   0  0  0  0  0  0  0  0  0  0  0  0
   -0.1310    1.4160   -0.6220 O   0  0  0  0  0  0  0  0  0  0  0  0
    1.1350    1.0110   -0.2060 C   0  0  0  0  0  0  0  0  0  0  0  0
    1.3310   -0.2560   -0.0710 N   0  0  0  0  0  0  0  0  0  0  0  0
    2.6470   -0.6830    0.3630 C   0  0  0  0  0  0  0  0  0  0  0  0
  1  2  2  0
  2  3  1  0
  3  4  1  0
  4  5  1  0
  5  6  2  3
  6  7  1  0
M  END
