
     RDKit          3D

  7  6  0  0  0  0  0  0  0  0999 V2000
   -1.5050   -0.9970    0.1950 C   0  0  0  0  0  0  0  0  0  0  0  0
   -0.5110    0.0730    0.0800 N   0  0  2  0  0  0  0  0  0  0  0  0
   -0.9800    1.1020    1.0250 C   0  0  0  0  0  0  0  0  0  0  0  0
   -0.6520    0.6240   -1.2320 C   0  0  0  0  0  0  0  0  0  0  0  0
    0.7880   -0.3110    0.4660 C   0  0  0  0  0  0  0  0  0  0  0  0
    1.7980   -0.4710   -0.6180 C   0  0  0  0  0  0  0  0  0  0  0  0
    3.0090   -0.8550    0.0080 O   0  0  0  0  0  0  0  0  0  0  0  0
  2  1  1  6
  2  3  1  0
  2  4  1  0
  2  5  1  0
  5  6  1  0
  6  7  1  0
M  CHG  1   2   1
M  END
