
     RDKit          3D

  7  6  0  0  0  0  0  0  0  0999 V2000
    0.9970    1.4870    0.3000 C   0  0  0  0  0  0  0  0  0  0  0  0
    0.3980    0.3640   -0.4730 C   0  0  1  0  0  0  0  0  0  0  0  0
    1.4970   -0.6410   -0.7520 C   0  0  0  0  0  0  0  0  0  0  0  0
    1.9820   -1.2010    0.4440 O   0  0  0  0  0  0  0  0  0  0  0  0
   -0.7180   -0.2150    0.1990 N   0  0  0  0  0  0  0  0  0  0  0  0
   -1.3320   -1.2960   -0.4940 C   0  0  0  0  0  0  0  0  0  0  0  0
   -1.7120    0.7840    0.4640 C   0  0  0  0  0  0  0  0  0  0  0  0
  2  1  1  1
  2  3  1  0
  2  5  1  0
  3  4  1  0
  5  6  1  0
  5  7  1  0
M  END
