
     RDKit          3D

  7  6  0  0  0  0  0  0  0  0999 V2000
    1.8910    0.6200    0.4110 C   0  0  0  0  0  0  0  0  0  0  0  0
    1.4920   -0.7000   -0.1480 C   0  0  0  0  0  0  0  0  0  0  0  0
    0.2340   -0.9990   -0.3640 C   0  0  0  0  0  0  0  0  0  0  0  0
   -0.1560   -2.2140   -0.8800 O   0  0  0  0  0  0  0  0  0  0  0  0
   -0.7620   -0.0440   -0.0600 N   0  0  0  0  0  0  0  0  0  0  0  0
   -1.1830    0.9980   -0.9460 C   0  0  0  0  0  0  0  0  0  0  0  0
   -1.4140   -0.1190    1.2550 C   0  0  0  0  0  0  0  0  0  0  0  0
  1  2  1  0
  2  3  2  3
  3  4  1  0
  3  5  1  0
  5  6  1  0
  5  7  1  0
M  END
