
     RDKit          3D

  7  6  0  0  0  0  0  0  0  0999 V2000
   -2.5000    0.7290    0.1950 C   0  0  0  0  0  0  0  0  0  0  0  0
   -1.8770   -0.3830   -0.5060 N   0  0  0  0  0  0  0  0  0  0  0  0
   -0.7110    0.0330   -1.2590 C   0  0  0  0  0  0  0  0  0  0  0  0
    0.5440   -0.4470   -0.5630 C   0  0  0  0  0  0  0  0  0  0  0  0
    0.6890    0.0890    0.8150 C   0  0  0  0  0  0  0  0  0  0  0  0
    1.8370   -0.3950    1.3960 O   0  0  0  0  0  0  0  0  0  0  0  0
    3.0160   -0.0960    0.7860 C   0  0  0  0  0  0  0  0  0  0  0  0
  1  2  1  0
  2  3  1  0
  3  4  1  0
  4  5  1  0
  5  6  1  0
  6  7  1  0
M  CHG  1   2   1
M  END
