
     RDKit          3D

 31 33  0  0  0  0  0  0  0  0999 V2000
   -5.5880    2.7130    2.5240 C   0  0  0  0  0  0  0  0  0  0  0  0
   -5.0030    2.4890    1.1510 C   0  0  1  0  0  0  0  0  0  0  0  0
   -3.5850    2.0860    1.2290 C   0  0  0  0  0  0  0  0  0  0  0  0
   -2.6270    2.7430    1.7520 O   0  0  0  0  0  0  0  0  0  0  0  0
   -3.4820    0.8110    0.6030 N   0  0  0  0  0  0  0  0  0  0  0  0
   -2.4920   -0.2350    0.2710 C   0  0  0  0  0  0  0  0  0  0  0  0
   -1.1640   -0.1780    0.8320 C   0  0  0  0  0  0  0  0  0  0  0  0
   -0.7720    1.0190    1.2080 O   0  0  0  0  0  0  0  0  0  0  0  0
   -0.1940   -1.1320    1.0800 N   0  0  0  0  0  0  0  0  0  0  0  0
    1.1390   -0.8410    1.6350 C   0  0  0  0  0  0  0  0  0  0  0  0
    1.8870    0.0400    0.7050 C   0  0  0  0  0  0  0  0  0  0  0  0
    3.1610    0.3680    1.1490 O   0  0  0  0  0  0  0  0  0  0  0  0
    4.0480    1.3660    0.1260 P   0  0  0  0  0  0  0  0  0  0  0  0
    4.3650    2.9370    0.6890 O   0  0  0  0  0  0  0  0  0  0  0  0
    5.3640    0.5900   -0.8410 C   0  0  1  0  0  0  0  0  0  0  0  0
    6.2510   -0.2870    0.0520 C   0  0  0  0  0  0  0  0  0  0  0  0
    7.4000   -0.7410   -0.8260 C   0  0  0  0  0  0  0  0  0  0  0  0
    7.1800   -0.4100   -2.2730 C   0  0  0  0  0  0  0  0  0  0  0  0
    5.9320   -0.7240   -2.7440 O   0  0  0  0  0  0  0  0  0  0  0  0
    4.8870   -0.2990   -1.9630 C   0  0  0  0  0  0  0  0  0  0  0  0
   -3.1660   -1.1980   -0.3560 C   0  0  0  0  0  0  0  0  0  0  0  0
   -2.5630   -2.4060   -0.8760 C   0  0  0  0  0  0  0  0  0  0  0  0
   -3.2360   -3.5120   -1.4570 N   0  0  0  0  0  0  0  0  0  0  0  0
   -1.2970   -2.6060   -0.8810 O   0  0  0  0  0  0  0  0  0  0  0  0
   -4.5510   -0.8820   -0.4740 N   0  0  0  0  0  0  0  0  0  0  0  0
   -5.6240   -1.5810   -1.0650 C   0  0  0  0  0  0  0  0  0  0  0  0
   -5.5840   -2.6710   -1.6480 O   0  0  0  0  0  0  0  0  0  0  0  0
   -6.9370   -1.0340   -1.0280 O   0  0  0  0  0  0  0  0  0  0  0  0
   -4.7440    0.4160    0.1480 C   0  0  0  0  0  0  0  0  0  0  0  0
   -5.6300    1.3490    0.4430 C   0  0  0  0  0  0  0  0  0  0  0  0
   -6.9930    1.2370    0.1090 O   0  0  0  0  0  0  0  0  0  0  0  0
  2  1  1  1
  2  3  1  0
  2 30  1  0
  3  4  2  0
  3  5  1  0
  5  6  1  0
  5 29  1  0
  6  7  1  0
  6 21  2  0
  7  8  2  0
  7  9  1  0
  9 10  1  0
 10 11  1  0
 11 12  1  0
 12 13  1  0
 13 14  1  0
 15 13  1  1
 15 16  1  0
 15 20  1  0
 16 17  1  0
 17 18  1  0
 18 19  1  0
 19 20  1  0
 21 22  1  0
 21 25  1  0
 22 23  1  0
 22 24  2  0
 25 26  1  0
 25 29  1  0
 26 27  2  0
 26 28  1  0
 29 30  2  0
 30 31  1  0
M  END
