
     RDKit          3D

 31 32  0  0  0  0  0  0  0  0999 V2000
    5.9520   -3.7370    1.2090 C   0  0  0  0  0  0  0  0  0  0  0  0
    6.8090   -2.7640    0.6650 C   0  0  0  0  0  0  0  0  0  0  0  0
    6.3060   -1.5440    0.0040 C   0  0  0  0  0  0  0  0  0  0  0  0
    7.4640   -0.9060   -0.3640 C   0  0  0  0  0  0  0  0  0  0  0  0
    6.8670    0.3720   -1.0840 C   0  0  0  0  0  0  0  0  0  0  0  0
    7.8950    1.1990   -1.5340 O   0  0  0  0  0  0  0  0  0  0  0  0
    9.0860    1.7840   -0.4100 P   0  0  0  0  0  0  0  0  0  0  0  0
    9.7160    3.3310   -0.7530 O   0  0  0  0  0  0  0  0  0  0  0  0
   10.2670    0.6760    0.0910 O   0  0  0  0  0  0  0  0  0  0  0  0
    4.9360   -1.6360    0.0710 C   0  0  0  0  0  0  0  0  0  0  0  0
    4.2540   -2.5520    0.5390 O   0  0  0  0  0  0  0  0  0  0  0  0
    3.8660   -0.4420   -0.4900 N   0  0  0  0  0  0  0  0  0  0  0  0
    2.6670   -1.1470   -0.2080 C   0  0  0  0  0  0  0  0  0  0  0  0
    2.3340   -2.1760    0.1990 O   0  0  0  0  0  0  0  0  0  0  0  0
    1.7200   -0.0280   -0.6540 N   0  0  0  0  0  0  0  0  0  0  0  0
    0.3110   -0.7070    0.0630 C   0  0  0  0  0  0  0  0  0  0  0  0
    0.4690   -1.6010    0.7410 O   0  0  0  0  0  0  0  0  0  0  0  0
   -0.8160    0.0840   -0.4010 C   0  0  0  0  0  0  0  0  0  0  0  0
   -0.8170    0.9400   -1.3210 O   0  0  0  0  0  0  0  0  0  0  0  0
   -2.0040   -0.1380    0.2400 O   0  0  0  0  0  0  0  0  0  0  0  0
   -3.2210    0.4380   -0.0150 C   0  0  0  0  0  0  0  0  0  0  0  0
   -4.2880   -0.0950    0.9760 C   0  0  0  0  0  0  0  0  0  0  0  0
   -5.5130    0.5020    0.5410 N   0  0  0  0  0  0  0  0  0  0  0  0
   -6.2880   -0.2720   -0.4580 C   0  0  0  0  0  0  0  0  0  0  0  0
   -7.1770    0.5990   -1.2760 C   0  0  1  0  0  0  0  0  0  0  0  0
   -8.5470    0.6500   -0.6570 C   0  0  0  0  0  0  0  0  0  0  0  0
   -8.4760    1.8510    0.2580 C   0  0  0  0  0  0  0  0  0  0  0  0
   -7.0540    2.3950    0.0500 C   0  0  2  0  0  0  0  0  0  0  0  0
   -6.7540    1.9720   -1.3230 N   0  0  0  0  0  0  0  0  0  0  0  0
   -6.0700    1.7210    0.9260 C   0  0  0  0  0  0  0  0  0  0  0  0
   -5.7280    2.2240    2.0160 O   0  0  0  0  0  0  0  0  0  0  0  0
  1  2  1  0
  2  3  2  3
  3  4  1  0
  3 10  1  0
  4  5  2  3
  5  6  1  0
  6  7  1  0
  7  8  1  0
  7  9  1  0
 10 11  2  0
 10 12  1  0
 12 13  1  0
 13 14  2  0
 13 15  1  0
 15 16  1  0
 16 17  2  0
 16 18  1  0
 18 19  2  0
 18 20  1  0
 20 21  1  0
 21 22  1  0
 22 23  1  0
 23 24  1  0
 23 30  1  0
 25 24  1  1
 25 26  1  0
 25 29  1  0
 26 27  1  0
 28 27  1  1
 28 29  1  0
 28 30  1  0
 30 31  2  0
M  END
