
     RDKit          3D

 31 33  0  0  0  0  0  0  0  0999 V2000
    6.7150   -2.9470    0.0140 O   0  0  0  0  0  0  0  0  0  0  0  0
    6.4760   -1.8920    0.6710 C   0  0  0  0  0  0  0  0  0  0  0  0
    7.4330   -1.4970    1.5760 O   0  0  0  0  0  0  0  0  0  0  0  0
    5.2360   -1.1630    0.4460 C   0  0  0  0  0  0  0  0  0  0  0  0
    4.2990   -1.5870   -0.4690 C   0  0  0  0  0  0  0  0  0  0  0  0
    3.1070   -0.8740   -0.6750 C   0  0  0  0  0  0  0  0  0  0  0  0
    2.8190    0.2640    0.0140 C   0  0  0  0  0  0  0  0  0  0  0  0
    1.6360    1.0080   -0.1460 N   0  0  0  0  0  0  0  0  0  0  0  0
    0.5010    0.6160   -0.8850 C   0  0  0  0  0  0  0  0  0  0  0  0
    0.4930   -0.4880   -1.4670 O   0  0  0  0  0  0  0  0  0  0  0  0
   -0.7090    1.5310   -0.9730 C   0  0  2  0  0  0  0  0  0  0  0  0
   -1.1290    1.9900    0.3820 C   0  0  0  0  0  0  0  0  0  0  0  0
   -2.3310    2.8910    0.2130 C   0  0  0  0  0  0  0  0  0  0  0  0
   -2.9060    3.5020    1.8940 P   0  0  0  0  0  0  0  0  0  0  0  0
   -1.5620    4.2450    2.7130 O   0  0  0  0  0  0  0  0  0  0  0  0
   -4.2330    4.5700    1.7070 O   0  0  0  0  0  0  0  0  0  0  0  0
   -1.7400    0.9480   -1.7630 N   0  0  0  0  0  0  0  0  0  0  0  0
   -2.3180   -0.2870   -1.3970 C   0  0  0  0  0  0  0  0  0  0  0  0
   -1.9230   -0.9800   -0.3760 N   0  0  0  0  0  0  0  0  0  0  0  0
   -2.6950   -2.1680   -0.2680 C   0  0  0  0  0  0  0  0  0  0  0  0
   -2.7060   -3.2110    0.5810 N   0  0  0  0  0  0  0  0  0  0  0  0
   -3.5780   -4.2240    0.4320 C   0  0  0  0  0  0  0  0  0  0  0  0
   -3.5650   -5.1840    1.2400 O   0  0  0  0  0  0  0  0  0  0  0  0
   -4.4650   -4.2670   -0.5360 O   0  0  0  0  0  0  0  0  0  0  0  0
   -4.4880   -3.2650   -1.3910 C   0  0  0  0  0  0  0  0  0  0  0  0
   -5.3130   -3.2350   -2.3500 O   0  0  0  0  0  0  0  0  0  0  0  0
   -3.6240   -2.1950   -1.2980 C   0  0  0  0  0  0  0  0  0  0  0  0
   -3.4220   -0.9780   -2.0760 C   0  0  0  0  0  0  0  0  0  0  0  0
   -4.0620   -0.6060   -3.1070 O   0  0  0  0  0  0  0  0  0  0  0  0
    3.7790    0.6880    0.9440 C   0  0  0  0  0  0  0  0  0  0  0  0
    4.9470   -0.0120    1.1450 C   0  0  0  0  0  0  0  0  0  0  0  0
  1  2  2  0
  2  3  1  0
  2  4  1  0
  4  5  2  0
  4 31  1  0
  5  6  1  0
  6  7  2  0
  7  8  1  0
  7 30  1  0
  8  9  1  0
  9 10  2  0
  9 11  1  0
 11 12  1  1
 11 17  1  0
 12 13  1  0
 13 14  1  0
 14 15  1  0
 14 16  1  0
 17 18  1  0
 18 19  2  0
 18 28  1  0
 19 20  1  0
 20 21  1  0
 20 27  2  0
 21 22  1  0
 22 23  2  0
 22 24  1  0
 24 25  1  0
 25 26  2  0
 25 27  1  0
 27 28  1  0
 28 29  2  0
 30 31  2  0
M  END
