
     RDKit          3D

 31 33  0  0  0  0  0  0  0  0999 V2000
   -5.2820    3.0010    0.1090 C   0  0  0  0  0  0  0  0  0  0  0  0
   -4.2190    1.9590   -0.0800 C   0  0  0  0  0  0  0  0  0  0  0  0
   -4.5880    0.6410    0.0040 C   0  0  0  0  0  0  0  0  0  0  0  0
   -3.6620   -0.3770   -0.1590 C   0  0  0  0  0  0  0  0  0  0  0  0
   -4.0230   -1.6700   -0.0820 N   0  0  0  0  0  0  0  0  0  0  0  0
   -3.1520   -2.6780   -0.2390 C   0  0  0  0  0  0  0  0  0  0  0  0
   -3.5280   -4.0250   -0.1590 C   0  0  0  0  0  0  0  0  0  0  0  0
   -4.7260   -4.3190    0.0700 O   0  0  0  0  0  0  0  0  0  0  0  0
   -2.5510   -4.9340   -0.3380 N   0  0  0  0  0  0  0  0  0  0  0  0
   -1.2720   -4.5960   -0.5820 C   0  0  0  0  0  0  0  0  0  0  0  0
   -0.4440   -5.5180   -0.7320 O   0  0  0  0  0  0  0  0  0  0  0  0
   -0.8790   -3.2830   -0.6650 N   0  0  0  0  0  0  0  0  0  0  0  0
   -1.7750   -2.3050   -0.5020 C   0  0  0  0  0  0  0  0  0  0  0  0
   -1.4180   -1.0200   -0.5790 N   0  0  0  0  0  0  0  0  0  0  0  0
   -0.0520   -0.6880   -0.8400 C   0  0  0  0  0  0  0  0  0  0  0  0
    0.7970   -0.5900    0.4270 C   0  0  2  0  0  0  0  0  0  0  0  0
    0.3680    0.3490    1.3180 O   0  0  0  0  0  0  0  0  0  0  0  0
    2.2390   -0.3770    0.0110 C   0  0  2  0  0  0  0  0  0  0  0  0
    2.6240   -1.3520   -0.8900 O   0  0  0  0  0  0  0  0  0  0  0  0
    3.1230   -0.4180    1.2340 C   0  0  2  0  0  0  0  0  0  0  0  0
    2.6600    0.6050    2.0940 O   0  0  0  0  0  0  0  0  0  0  0  0
    4.5550   -0.0410    0.8940 C   0  0  0  0  0  0  0  0  0  0  0  0
    4.5880    1.2110    0.2560 O   0  0  0  0  0  0  0  0  0  0  0  0
    6.1520    1.6590   -0.1340 P   0  0  2  0  0  0  0  0  0  0  0  0
    6.8760    2.3020    1.0520 O   0  0  0  0  0  0  0  0  0  0  0  0
    6.1650    2.7860   -1.3900 O   0  0  0  0  0  0  0  0  0  0  0  0
    7.0480    0.3060   -0.6750 O   0  0  0  0  0  0  0  0  0  0  0  0
   -2.3320   -0.0150   -0.4130 C   0  0  0  0  0  0  0  0  0  0  0  0
   -1.9570    1.3030   -0.4990 C   0  0  0  0  0  0  0  0  0  0  0  0
   -2.9050    2.2880   -0.3320 C   0  0  0  0  0  0  0  0  0  0  0  0
   -2.5460    3.7450   -0.4160 C   0  0  0  0  0  0  0  0  0  0  0  0
  1  2  1  0
  2  3  2  0
  2 30  1  0
  3  4  1  0
  4  5  1  0
  4 28  2  0
  5  6  2  0
  6  7  1  0
  6 13  1  0
  7  8  2  0
  7  9  1  0
  9 10  1  0
 10 11  2  0
 10 12  1  0
 12 13  2  0
 13 14  1  0
 14 15  1  0
 14 28  1  0
 15 16  1  0
 16 17  1  1
 16 18  1  0
 18 19  1  6
 18 20  1  0
 20 21  1  1
 20 22  1  0
 22 23  1  0
 23 24  1  0
 24 25  2  0
 24 26  1  6
 24 27  1  0
 28 29  1  0
 29 30  2  0
 30 31  1  0
M  END
