
     RDKit          3D

 30 32  0  0  0  0  0  0  0  0999 V2000
   -6.0230    0.1170   -2.1920 O   0  0  0  0  0  0  0  0  0  0  0  0
   -5.2230    0.5760   -1.3780 C   0  0  0  0  0  0  0  0  0  0  0  0
   -4.1340    1.3980   -1.8280 N   0  0  0  0  0  0  0  0  0  0  0  0
   -3.1720    1.7890   -0.8170 C   0  0  0  0  0  0  0  0  0  0  0  0
   -2.7170    2.9280   -0.8590 O   0  0  0  0  0  0  0  0  0  0  0  0
   -2.8050    0.7970    0.1950 C   0  0  2  0  0  0  0  0  0  0  0  0
   -2.0330   -0.2740   -0.4350 C   0  0  0  0  0  0  0  0  0  0  0  0
   -2.8200   -1.3380   -0.6470 O   0  0  0  0  0  0  0  0  0  0  0  0
   -0.7390   -0.4620   -0.8550 N   0  0  0  0  0  0  0  0  0  0  0  0
   -0.5140   -1.8010   -1.4950 C   0  0  0  0  0  0  0  0  0  0  0  0
    0.8250   -2.1660   -1.8800 C   0  0  0  0  0  0  0  0  0  0  0  0
    1.7590   -1.1340   -1.9730 O   0  0  0  0  0  0  0  0  0  0  0  0
    1.1430    0.0730   -2.1250 C   0  0  0  0  0  0  0  0  0  0  0  0
    0.4180    0.3410   -0.7890 C   0  0  1  0  0  0  0  0  0  0  0  0
    0.3720    1.8150   -0.6740 C   0  0  0  0  0  0  0  0  0  0  0  0
   -0.1470    2.3150    0.4880 O   0  0  0  0  0  0  0  0  0  0  0  0
    1.2540   -0.2000    0.3870 C   0  0  0  0  0  0  0  0  0  0  0  0
    2.4430    0.4010    0.7090 N   0  0  0  0  0  0  0  0  0  0  0  0
    3.6150    0.3340   -0.0640 C   0  0  0  0  0  0  0  0  0  0  0  0
    4.7330    1.0610    0.7010 C   0  0  0  0  0  0  0  0  0  0  0  0
    5.9890    0.9840   -0.1390 C   0  0  0  0  0  0  0  0  0  0  0  0
    6.4580   -0.7890   -0.4330 P   0  0  0  0  0  0  0  0  0  0  0  0
    8.2000   -0.9350   -0.5340 O   0  0  0  0  0  0  0  0  0  0  0  0
    5.8290   -1.7900    0.8390 O   0  0  0  0  0  0  0  0  0  0  0  0
   -4.0820    0.2500    0.7350 N   0  0  0  0  0  0  0  0  0  0  0  0
   -4.2950   -0.4130    1.9610 C   0  0  0  0  0  0  0  0  0  0  0  0
   -3.5570   -0.4730    2.9830 O   0  0  0  0  0  0  0  0  0  0  0  0
   -5.6330   -1.1070    1.8960 C   0  0  0  0  0  0  0  0  0  0  0  0
   -5.9690   -1.0140    0.4030 C   0  0  0  0  0  0  0  0  0  0  0  0
   -5.3340    0.3160    0.0560 C   0  0  2  0  0  0  0  0  0  0  0  0
  1  2  2  0
  2  3  1  0
  2 30  1  0
  3  4  1  0
  4  5  2  0
  4  6  1  0
  6  7  1  6
  6 25  1  0
  7  8  2  0
  7  9  1  0
  9 10  1  0
  9 14  1  0
 10 11  1  0
 11 12  1  0
 12 13  1  0
 13 14  1  0
 14 15  1  1
 14 17  1  0
 15 16  1  0
 17 18  1  0
 18 19  1  0
 19 20  1  0
 20 21  1  0
 21 22  1  0
 22 23  1  0
 22 24  1  0
 25 26  1  0
 25 30  1  0
 26 27  2  0
 26 28  1  0
 28 29  1  0
 30 29  1  6
M  END
