
     RDKit          3D

 31 33  0  0  0  0  0  0  0  0999 V2000
    8.7280    2.6960   -1.9120 N   0  0  0  0  0  0  0  0  0  0  0  0
    8.4480    1.7080   -0.9360 C   0  0  0  0  0  0  0  0  0  0  0  0
    9.3940    1.2720   -0.1960 O   0  0  0  0  0  0  0  0  0  0  0  0
    7.1600    1.1670   -0.7290 N   0  0  0  0  0  0  0  0  0  0  0  0
    6.9440    0.1670    0.2790 C   0  0  2  0  0  0  0  0  0  0  0  0
    6.1060   -0.9600   -0.2690 C   0  0  0  0  0  0  0  0  0  0  0  0
    4.9230   -0.2090    0.0870 N   0  0  0  0  0  0  0  0  0  0  0  0
    3.5430   -0.1320   -0.3350 C   0  0  0  0  0  0  0  0  0  0  0  0
    3.1970   -0.9020   -1.2690 O   0  0  0  0  0  0  0  0  0  0  0  0
    2.7250    0.7370    0.2790 O   0  0  0  0  0  0  0  0  0  0  0  0
    1.4100    1.0130    0.1180 C   0  0  0  0  0  0  0  0  0  0  0  0
    0.4220    0.1260    0.3820 O   0  0  0  0  0  0  0  0  0  0  0  0
   -0.0390   -1.0550   -0.0290 C   0  0  0  0  0  0  0  0  0  0  0  0
    0.5080   -1.6710   -0.9660 O   0  0  0  0  0  0  0  0  0  0  0  0
   -1.2380   -1.6330    0.6640 C   0  0  2  0  0  0  0  0  0  0  0  0
   -1.6330   -2.9510    0.0960 C   0  0  0  0  0  0  0  0  0  0  0  0
   -3.0620   -3.0260    0.6560 C   0  0  0  0  0  0  0  0  0  0  0  0
   -3.5630   -1.6310    0.4020 N   0  0  0  0  0  0  0  0  0  0  0  0
   -4.9260   -1.3670    0.3120 C   0  0  0  0  0  0  0  0  0  0  0  0
   -5.7030   -2.3790    0.4920 O   0  0  0  0  0  0  0  0  0  0  0  0
   -5.5740   -0.1160    0.0430 C   0  0  0  0  0  0  0  0  0  0  0  0
   -6.9300   -0.0660    0.0110 C   0  0  0  0  0  0  0  0  0  0  0  0
   -7.7250    1.1360   -0.2490 C   0  0  1  0  0  0  0  0  0  0  0  0
   -8.5210    0.8660   -1.3750 O   0  0  0  0  0  0  0  0  0  0  0  0
   -8.7890    1.5180    1.2280 P   0  0  0  0  0  0  0  0  0  0  0  0
  -10.0080    2.4700    0.9970 O   0  0  0  0  0  0  0  0  0  0  0  0
   -6.9550    2.2920   -0.4990 O   0  0  0  0  0  0  0  0  0  0  0  0
   -5.5840    2.2910   -0.4790 C   0  0  0  0  0  0  0  0  0  0  0  0
   -4.9370    1.1630   -0.2250 C   0  0  0  0  0  0  0  0  0  0  0  0
   -2.4420   -0.7530    0.3010 C   0  0  0  0  0  0  0  0  0  0  0  0
    5.7040    0.4720    1.0860 C   0  0  0  0  0  0  0  0  0  0  0  0
  1  2  1  0
  2  3  2  0
  2  4  1  0
  5  4  1  6
  5  6  1  0
  5 31  1  0
  6  7  1  0
  7  8  1  0
  7 31  1  0
  8  9  2  0
  8 10  1  0
 10 11  1  0
 11 12  1  0
 12 13  1  0
 13 14  2  0
 15 13  1  6
 15 16  1  0
 15 30  1  0
 16 17  1  0
 17 18  1  0
 18 19  1  0
 18 30  1  0
 19 20  2  0
 19 21  1  0
 21 22  2  0
 21 29  1  0
 22 23  1  0
 23 24  1  6
 23 25  1  0
 23 27  1  0
 25 26  2  0
 27 28  1  0
 28 29  2  0
M  END
