
     RDKit          3D

 30 32  0  0  0  0  0  0  0  0999 V2000
   -2.7160   -4.4030   -0.1500 O   0  0  0  0  0  0  0  0  0  0  0  0
   -2.3510   -3.4320   -0.8700 C   0  0  0  0  0  0  0  0  0  0  0  0
   -2.1130   -3.7600   -2.2180 O   0  0  0  0  0  0  0  0  0  0  0  0
   -2.1860   -2.1160   -0.4040 N   0  0  0  0  0  0  0  0  0  0  0  0
   -2.9120   -1.6190    0.4930 C   0  0  0  0  0  0  0  0  0  0  0  0
   -3.9140   -2.4800    1.0030 O   0  0  0  0  0  0  0  0  0  0  0  0
   -4.8910   -2.0280    1.9070 C   0  0  0  0  0  0  0  0  0  0  0  0
   -4.2200   -0.9910    2.8040 C   0  0  0  0  0  0  0  0  0  0  0  0
   -3.6940    0.0970    2.0060 N   0  0  0  0  0  0  0  0  0  0  0  0
   -2.7340   -0.2710    0.9610 C   0  0  0  0  0  0  0  0  0  0  0  0
   -1.8570    0.5680    0.5660 C   0  0  0  0  0  0  0  0  0  0  0  0
   -0.7710    0.7180   -0.3320 C   0  0  0  0  0  0  0  0  0  0  0  0
   -0.1840    1.8940   -0.3510 N   0  0  0  0  0  0  0  0  0  0  0  0
   -0.2070    3.0280    0.1540 O   0  0  0  0  0  0  0  0  0  0  0  0
   -0.8510    3.7580    1.1010 C   0  0  0  0  0  0  0  0  0  0  0  0
   -0.3340    5.1980    1.2080 C   0  0  2  0  0  0  0  0  0  0  0  0
    1.0970    5.4100    1.5530 C   0  0  0  0  0  0  0  0  0  0  0  0
    0.0600    5.6730    2.6220 C   0  0  0  0  0  0  0  0  0  0  0  0
   -0.1210   -0.2340   -1.2600 C   0  0  1  0  0  0  0  0  0  0  0  0
    0.9640    0.5300   -2.0940 C   0  0  0  0  0  0  0  0  0  0  0  0
    1.1600   -0.3110   -3.1940 O   0  0  0  0  0  0  0  0  0  0  0  0
    2.4750   -0.7400   -3.1170 C   0  0  0  0  0  0  0  0  0  0  0  0
    2.7130   -1.8420   -2.1490 C   0  0  1  0  0  0  0  0  0  0  0  0
    4.0670   -1.5910   -1.5200 C   0  0  0  0  0  0  0  0  0  0  0  0
    4.5470   -2.8520   -0.2850 P   0  0  0  0  0  0  0  0  0  0  0  0
    5.9270   -2.2670    0.6030 O   0  0  0  0  0  0  0  0  0  0  0  0
    5.0270   -4.3270   -1.0660 O   0  0  0  0  0  0  0  0  0  0  0  0
    1.6650   -2.0820   -1.1620 C   0  0  0  0  0  0  0  0  0  0  0  0
    1.6560   -3.2530   -0.6680 O   0  0  0  0  0  0  0  0  0  0  0  0
    0.6460   -1.2650   -0.6390 N   0  0  0  0  0  0  0  0  0  0  0  0
  1  2  2  0
  2  3  1  0
  2  4  1  0
  4  5  2  3
  5  6  1  0
  5 10  1  0
  6  7  1  0
  7  8  1  0
  8  9  1  0
  9 10  1  0
 10 11  2  3
 11 12  1  0
 12 13  2  3
 19 12  1  1
 13 14  1  0
 14 15  1  0
 16 15  1  1
 16 17  1  0
 16 18  1  0
 17 18  1  0
 19 20  1  0
 19 30  1  0
 20 21  1  0
 21 22  1  0
 22 23  1  0
 23 24  1  1
 23 28  1  0
 24 25  1  0
 25 26  1  0
 25 27  1  0
 28 29  2  0
 28 30  1  0
M  END
