
     RDKit          3D

 21 21  0  0  0  0  0  0  0  0999 V2000
    3.6380   -1.7100   -0.5550 C   0  0  0  0  0  0  0  0  0  0  0  0
    2.6710   -0.7410    0.1840 C   0  0  2  0  0  0  0  0  0  0  0  0
    1.9450   -1.5680    1.1160 C   0  0  0  0  0  0  0  0  0  0  0  0
    2.0080   -2.8510    1.1320 O   0  0  0  0  0  0  0  0  0  0  0  0
    1.1060   -1.0540    2.0890 O   0  0  0  0  0  0  0  0  0  0  0  0
    1.8940   -0.0710   -0.9280 C   0  0  2  0  0  0  0  0  0  0  0  0
    3.0430    0.5630   -1.6780 N   0  0  0  0  0  0  0  0  0  0  0  0
    1.0430    1.0710   -0.5810 C   0  0  2  0  0  0  0  0  0  0  0  0
    1.7780    1.9380    0.2630 O   0  0  0  0  0  0  0  0  0  0  0  0
    0.9430    3.0380    0.4620 C   0  0  0  0  0  0  0  0  0  0  0  0
   -0.3100    2.6790    1.2220 C   0  0  0  0  0  0  0  0  0  0  0  0
   -0.5170    1.3030    1.1310 O   0  0  0  0  0  0  0  0  0  0  0  0
   -0.3580    0.9620   -0.2130 C   0  0  2  0  0  0  0  0  0  0  0  0
   -1.0950   -0.2860   -0.4970 C   0  0  0  0  0  0  0  0  0  0  0  0
   -2.5430   -0.2510   -0.0700 C   0  0  2  0  0  0  0  0  0  0  0  0
   -3.1740    0.8030   -0.7680 O   0  0  0  0  0  0  0  0  0  0  0  0
   -2.7810   -0.1470    1.3940 C   0  0  0  0  0  0  0  0  0  0  0  0
   -2.1880   -1.1290    2.1630 O   0  0  0  0  0  0  0  0  0  0  0  0
   -3.2530   -1.5230   -0.5560 C   0  0  2  0  0  0  0  0  0  0  0  0
   -4.5940   -1.3810   -0.2230 O   0  0  0  0  0  0  0  0  0  0  0  0
   -2.6660   -2.6670   -0.0660 O   0  0  0  0  0  0  0  0  0  0  0  0
  2  1  1  6
  2  3  1  0
  2  6  1  0
  3  4  2  0
  3  5  1  0
  6  7  1  6
  6  8  1  0
  8  9  1  1
  8 13  1  0
  9 10  1  0
 10 11  1  0
 11 12  1  0
 12 13  1  0
 13 14  1  1
 14 15  1  0
 15 16  1  6
 15 17  1  0
 15 19  1  0
 17 18  1  0
 19 20  1  1
 19 21  1  0
M  CHG  1   7   1
M  END
