
     RDKit          3D

 21 21  0  0  0  0  0  0  0  0999 V2000
   -3.0740   -1.1240    3.1170 N   0  0  0  0  0  0  0  0  0  0  0  0
   -2.3350   -2.0180    2.2200 C   0  0  0  0  0  0  0  0  0  0  0  0
   -1.6150   -1.1610    1.1790 C   0  0  2  0  0  0  0  0  0  0  0  0
   -2.5260   -0.4360    0.4660 O   0  0  0  0  0  0  0  0  0  0  0  0
   -2.5230    0.9190    0.6690 C   0  0  0  0  0  0  0  0  0  0  0  0
   -3.6090    1.5400   -0.1750 C   0  0  1  0  0  0  0  0  0  0  0  0
   -3.6790    2.9210   -0.0200 O   0  0  0  0  0  0  0  0  0  0  0  0
   -3.4160    1.1430   -1.6060 C   0  0  0  0  0  0  0  0  0  0  0  0
   -2.2690    1.6490   -2.1850 O   0  0  0  0  0  0  0  0  0  0  0  0
   -0.6190   -1.9480    0.4000 C   0  0  2  0  0  0  0  0  0  0  0  0
    0.1890   -2.6110    1.3580 O   0  0  0  0  0  0  0  0  0  0  0  0
    0.3150   -1.0530   -0.3280 C   0  0  0  0  0  0  0  0  0  0  0  0
   -0.1050   -0.3330   -1.2610 O   0  0  0  0  0  0  0  0  0  0  0  0
    1.6690   -0.9460   -0.0460 O   0  0  0  0  0  0  0  0  0  0  0  0
    2.5690   -0.1210   -0.7060 C   0  0  1  0  0  0  0  0  0  0  0  0
    3.2130    0.9220    0.1680 C   0  0  0  0  0  0  0  0  0  0  0  0
    3.7310    1.9250   -0.6130 O   0  0  0  0  0  0  0  0  0  0  0  0
    3.9600    1.5900   -1.9230 C   0  0  0  0  0  0  0  0  0  0  0  0
    4.4920    0.2030   -2.1280 C   0  0  1  0  0  0  0  0  0  0  0  0
    5.8500    0.0980   -1.8600 O   0  0  0  0  0  0  0  0  0  0  0  0
    3.6750   -0.8530   -1.4120 C   0  0  0  0  0  0  0  0  0  0  0  0
  1  2  1  0
  3  2  1  6
  3  4  1  0
  3 10  1  0
  4  5  1  0
  5  6  1  0
  6  7  1  6
  6  8  1  0
  8  9  1  0
 10 11  1  1
 10 12  1  0
 12 13  2  0
 12 14  1  0
 15 14  1  1
 15 16  1  0
 15 21  1  0
 16 17  1  0
 17 18  1  0
 18 19  1  0
 19 20  1  1
 19 21  1  0
M  CHG  1   1   1
M  END
