
     RDKit          3D

 21 22  0  0  0  0  0  0  0  0999 V2000
    1.9910   -2.8760    0.1630 O   0  0  0  0  0  0  0  0  0  0  0  0
    2.5960   -1.6980    0.6240 C   0  0  0  0  0  0  0  0  0  0  0  0
    2.8990   -0.7820   -0.5460 C   0  0  1  0  0  0  0  0  0  0  0  0
    1.7790   -0.4180   -1.2520 O   0  0  0  0  0  0  0  0  0  0  0  0
    0.9220    0.4260   -0.5970 C   0  0  1  0  0  0  0  0  0  0  0  0
   -0.0280   -0.3180    0.0730 O   0  0  0  0  0  0  0  0  0  0  0  0
   -1.3110   -0.1590   -0.4120 C   0  0  1  0  0  0  0  0  0  0  0  0
   -1.9350   -1.4070   -0.9330 C   0  0  2  0  0  0  0  0  0  0  0  0
   -3.0630   -1.0360   -1.6910 O   0  0  0  0  0  0  0  0  0  0  0  0
   -2.4400   -2.3230    0.1610 C   0  0  0  0  0  0  0  0  0  0  0  0
   -3.5030   -1.5870    0.8500 N   0  0  0  0  0  0  0  0  0  0  0  0
   -2.8660   -0.4910    1.5360 C   0  0  0  0  0  0  0  0  0  0  0  0
   -2.1690    0.4700    0.6360 C   0  0  2  0  0  0  0  0  0  0  0  0
   -3.1520    1.4730    0.0260 C   0  0  0  0  0  0  0  0  0  0  0  0
   -2.3860    2.4700   -0.6220 O   0  0  0  0  0  0  0  0  0  0  0  0
    1.5940    1.4580    0.2580 C   0  0  2  0  0  0  0  0  0  0  0  0
    0.9620    2.7070    0.1710 O   0  0  0  0  0  0  0  0  0  0  0  0
    2.9930    1.6680   -0.3270 C   0  0  1  0  0  0  0  0  0  0  0  0
    3.6290    2.7560    0.2140 O   0  0  0  0  0  0  0  0  0  0  0  0
    3.7420    0.3730   -0.0990 C   0  0  2  0  0  0  0  0  0  0  0  0
    4.9990    0.4000   -0.7010 O   0  0  0  0  0  0  0  0  0  0  0  0
  1  2  1  0
  3  2  1  1
  3  4  1  0
  3 20  1  0
  4  5  1  0
  5  6  1  1
  5 16  1  0
  7  6  1  1
  7  8  1  0
  7 13  1  0
  8  9  1  6
  8 10  1  0
 10 11  1  0
 11 12  1  0
 12 13  1  0
 13 14  1  6
 14 15  1  0
 16 17  1  6
 16 18  1  0
 18 19  1  1
 18 20  1  0
 20 21  1  6
M  CHG  1  11   1
M  END
