
     RDKit          3D

 21 21  0  0  0  0  0  0  0  0999 V2000
   -4.4060    1.4750   -0.6930 N   0  0  0  0  0  0  0  0  0  0  0  0
   -4.1480    0.0700   -0.7820 C   0  0  0  0  0  0  0  0  0  0  0  0
   -3.2300   -0.4340    0.3230 C   0  0  2  0  0  0  0  0  0  0  0  0
   -3.8160   -0.1870    1.5580 O   0  0  0  0  0  0  0  0  0  0  0  0
   -1.9520    0.3450    0.2550 C   0  0  2  0  0  0  0  0  0  0  0  0
   -1.2940    0.1470   -0.9750 O   0  0  0  0  0  0  0  0  0  0  0  0
   -0.2950    1.1080   -1.1320 C   0  0  0  0  0  0  0  0  0  0  0  0
    0.8950    0.5410   -1.9020 C   0  0  0  0  0  0  0  0  0  0  0  0
    2.1040    0.9610   -1.3380 O   0  0  0  0  0  0  0  0  0  0  0  0
    2.5840    0.0350   -0.4130 C   0  0  1  0  0  0  0  0  0  0  0  0
    4.0390   -0.2930   -0.6540 C   0  0  0  0  0  0  0  0  0  0  0  0
    4.8980    0.8990   -0.5540 C   0  0  0  0  0  0  0  0  0  0  0  0
    6.1320    0.7490   -0.7350 O   0  0  0  0  0  0  0  0  0  0  0  0
    4.4290    2.1760   -0.2710 O   0  0  0  0  0  0  0  0  0  0  0  0
    2.4220    0.5190    0.9910 C   0  0  0  0  0  0  0  0  0  0  0  0
    1.3290   -0.0410    1.6410 O   0  0  0  0  0  0  0  0  0  0  0  0
    1.3550   -1.4080    1.6790 C   0  0  0  0  0  0  0  0  0  0  0  0
    0.0410   -1.9340    1.1720 C   0  0  1  0  0  0  0  0  0  0  0  0
   -0.1780   -3.2600    1.5430 O   0  0  0  0  0  0  0  0  0  0  0  0
   -1.0630   -1.0980    1.8330 C   0  0  0  0  0  0  0  0  0  0  0  0
   -1.1190    0.1700    1.3240 O   0  0  0  0  0  0  0  0  0  0  0  0
  1  2  1  0
  2  3  1  0
  3  4  1  1
  3  5  1  0
  5  6  1  6
  5 21  1  0
  6  7  1  0
  7  8  1  0
  8  9  1  0
  9 10  1  0
 10 11  1  6
 10 15  1  0
 11 12  1  0
 12 13  2  0
 12 14  1  0
 15 16  1  0
 16 17  1  0
 17 18  1  0
 18 19  1  1
 18 20  1  0
 20 21  1  0
M  CHG  1   1   1
M  END
