
     RDKit          3D

 20 20  0  0  0  0  0  0  0  0999 V2000
   -2.3060   -1.0920   -1.4520 N   0  0  0  0  0  0  0  0  0  0  0  0
   -1.5690   -0.2520   -0.4950 C   0  0  2  0  0  0  0  0  0  0  0  0
   -1.0180   -1.1050    0.6420 C   0  0  1  0  0  0  0  0  0  0  0  0
   -1.5910   -2.5030    0.5930 C   0  0  0  0  0  0  0  0  0  0  0  0
   -1.1280   -3.2290    1.6860 O   0  0  0  0  0  0  0  0  0  0  0  0
    0.3450   -1.0670    0.6050 O   0  0  0  0  0  0  0  0  0  0  0  0
    1.0070   -2.2590    0.7100 C   0  0  0  0  0  0  0  0  0  0  0  0
    2.4370   -2.0660    0.2300 C   0  0  0  0  0  0  0  0  0  0  0  0
    2.5610   -0.9290   -0.7500 C   0  0  2  0  0  0  0  0  0  0  0  0
    2.9790   -1.3700   -2.0170 O   0  0  0  0  0  0  0  0  0  0  0  0
    3.4870    0.1690   -0.2360 C   0  0  0  0  0  0  0  0  0  0  0  0
    3.0580    1.4330   -0.6240 O   0  0  0  0  0  0  0  0  0  0  0  0
    2.1490    2.0020    0.2270 C   0  0  0  0  0  0  0  0  0  0  0  0
    1.1160    2.7920   -0.5450 C   0  0  0  0  0  0  0  0  0  0  0  0
    0.2140    3.4150    0.3100 O   0  0  0  0  0  0  0  0  0  0  0  0
   -0.7200    2.5220    0.7700 C   0  0  0  0  0  0  0  0  0  0  0  0
   -1.8250    2.2270   -0.2120 C   0  0  2  0  0  0  0  0  0  0  0  0
   -2.8320    3.1690    0.0030 O   0  0  0  0  0  0  0  0  0  0  0  0
   -2.4370    0.8610   -0.0120 C   0  0  2  0  0  0  0  0  0  0  0  0
   -2.7260    0.7310    1.3450 O   0  0  0  0  0  0  0  0  0  0  0  0
  2  1  1  6
  2  3  1  0
  2 19  1  0
  3  4  1  6
  3  6  1  0
  4  5  1  0
  6  7  1  0
  7  8  1  0
  8  9  1  0
  9 10  1  6
  9 11  1  0
 11 12  1  0
 12 13  1  0
 13 14  1  0
 14 15  1  0
 15 16  1  0
 16 17  1  0
 17 18  1  1
 17 19  1  0
 19 20  1  1
M  CHG  1   1   1
M  END
