
     RDKit          3D

 21 21  0  0  0  0  0  0  0  0999 V2000
    6.0480    0.0270    0.0470 C   0  0  0  0  0  0  0  0  0  0  0  0
    5.0060   -0.6930    0.5770 O   0  0  0  0  0  0  0  0  0  0  0  0
    4.0870    0.0660    1.2420 C   0  0  0  0  0  0  0  0  0  0  0  0
    3.4010    1.1230    0.4200 C   0  0  0  0  0  0  0  0  0  0  0  0
    2.7020    0.6470   -0.6550 O   0  0  0  0  0  0  0  0  0  0  0  0
    1.6840   -0.2310   -0.3870 C   0  0  0  0  0  0  0  0  0  0  0  0
    0.6420    0.4190    0.5210 C   0  0  1  0  0  0  0  0  0  0  0  0
    0.1870    1.7400   -0.0090 C   0  0  0  0  0  0  0  0  0  0  0  0
   -0.9880    1.7440   -0.6810 O   0  0  0  0  0  0  0  0  0  0  0  0
   -1.9730    0.8700   -0.1930 C   0  0  2  0  0  0  0  0  0  0  0  0
   -3.1490    1.0760   -1.1110 C   0  0  0  0  0  0  0  0  0  0  0  0
   -3.4600    2.4710   -1.0150 O   0  0  0  0  0  0  0  0  0  0  0  0
   -2.4230    1.2850    1.1950 C   0  0  2  0  0  0  0  0  0  0  0  0
   -1.4180    1.2940    2.1300 O   0  0  0  0  0  0  0  0  0  0  0  0
   -3.5580    0.5810    1.5910 O   0  0  0  0  0  0  0  0  0  0  0  0
   -1.3470   -0.4810   -0.2470 C   0  0  2  0  0  0  0  0  0  0  0  0
   -2.2210   -1.6540    0.0150 C   0  0  1  0  0  0  0  0  0  0  0  0
   -3.2580   -1.9120   -0.9360 N   0  0  0  0  0  0  0  0  0  0  0  0
   -1.3590   -2.9200    0.1420 C   0  0  0  0  0  0  0  0  0  0  0  0
   -0.7940   -3.2540   -1.0750 O   0  0  0  0  0  0  0  0  0  0  0  0
   -0.3780   -0.4740    0.7800 O   0  0  0  0  0  0  0  0  0  0  0  0
  1  2  1  0
  2  3  1  0
  3  4  1  0
  4  5  1  0
  5  6  1  0
  7  6  1  6
  7  8  1  0
  7 21  1  0
  8  9  1  0
  9 10  1  0
 10 11  1  6
 10 13  1  0
 10 16  1  0
 11 12  1  0
 13 14  1  1
 13 15  1  0
 16 17  1  0
 16 21  1  1
 17 18  1  6
 17 19  1  0
 19 20  1  0
M  CHG  1  18   1
M  END
