
     RDKit          3D

 20 20  0  0  0  0  0  0  0  0999 V2000
    0.5910   -0.6080    2.7840 C   0  0  0  0  0  0  0  0  0  0  0  0
   -0.2060   -0.3910    1.7240 O   0  0  0  0  0  0  0  0  0  0  0  0
    0.3750   -0.2510    0.4650 C   0  0  2  0  0  0  0  0  0  0  0  0
   -0.8110   -0.0100   -0.4620 C   0  0  2  0  0  0  0  0  0  0  0  0
   -0.3150    0.2660   -1.8200 N   0  0  0  0  0  0  0  0  0  0  0  0
   -1.6270    1.0700    0.1250 C   0  0  0  0  0  0  0  0  0  0  0  0
   -2.8460    1.4940   -0.6050 C   0  0  2  0  0  0  0  0  0  0  0  0
   -2.6490    1.9700   -1.8780 O   0  0  0  0  0  0  0  0  0  0  0  0
   -3.3830    2.5870    0.1280 O   0  0  0  0  0  0  0  0  0  0  0  0
   -1.6010   -1.2900   -0.6950 C   0  0  2  0  0  0  0  0  0  0  0  0
   -2.5900   -0.9750   -1.7160 O   0  0  0  0  0  0  0  0  0  0  0  0
   -2.4330   -1.8260    0.3890 C   0  0  0  0  0  0  0  0  0  0  0  0
   -1.8290   -2.2940    1.5320 O   0  0  0  0  0  0  0  0  0  0  0  0
    1.1680   -1.4740    0.1190 C   0  0  0  0  0  0  0  0  0  0  0  0
    2.4920   -1.4830    0.3340 O   0  0  0  0  0  0  0  0  0  0  0  0
    3.1950   -0.4040    0.6740 C   0  0  0  0  0  0  0  0  0  0  0  0
    2.6410    0.8470    0.1110 C   0  0  1  0  0  0  0  0  0  0  0  0
    2.9600    0.8920   -1.3490 C   0  0  0  0  0  0  0  0  0  0  0  0
    4.3690    0.8600   -1.4550 O   0  0  0  0  0  0  0  0  0  0  0  0
    1.2260    1.0060    0.4950 C   0  0  0  0  0  0  0  0  0  0  0  0
  1  2  1  0
  3  2  1  1
  3  4  1  0
  3 14  1  0
  3 20  1  0
  4  5  1  6
  4  6  1  0
  4 10  1  0
  6  7  1  0
  7  8  1  6
  7  9  1  0
 10 11  1  6
 10 12  1  0
 12 13  1  0
 14 15  1  0
 15 16  1  0
 16 17  1  0
 17 18  1  6
 17 20  1  0
 18 19  1  0
M  CHG  1   5   1
M  END
