
     RDKit          3D

 18 19  0  0  0  0  0  0  0  0999 V2000
    4.6840   -0.5690   -1.7020 O   0  0  0  0  0  0  0  0  0  0  0  0
    3.6400   -0.0440   -1.1910 C   0  0  0  0  0  0  0  0  0  0  0  0
    3.7020    1.1400   -0.4230 N   0  0  0  0  0  0  0  0  0  0  0  0
    2.7120    1.3580    0.5980 C   0  0  0  0  0  0  0  0  0  0  0  0
    2.2000   -0.0410    0.9700 C   0  0  0  0  0  0  0  0  0  0  0  0
    1.4360   -0.6420   -0.1680 C   0  0  1  0  0  0  0  0  0  0  0  0
    0.2060   -0.0260   -0.3780 O   0  0  0  0  0  0  0  0  0  0  0  0
   -0.8700   -0.8900   -0.1840 C   0  0  2  0  0  0  0  0  0  0  0  0
   -1.6030   -1.0930   -1.3410 O   0  0  0  0  0  0  0  0  0  0  0  0
   -2.2660    0.0210   -1.7920 C   0  0  0  0  0  0  0  0  0  0  0  0
   -2.5960    1.0240   -0.7350 C   0  0  1  0  0  0  0  0  0  0  0  0
   -3.6370    1.8200   -1.1860 O   0  0  0  0  0  0  0  0  0  0  0  0
   -2.9840    0.2560    0.5170 C   0  0  2  0  0  0  0  0  0  0  0  0
   -3.4830    1.1110    1.4980 O   0  0  0  0  0  0  0  0  0  0  0  0
   -1.7330   -0.4580    0.9820 C   0  0  1  0  0  0  0  0  0  0  0  0
   -2.0500   -1.5280    1.8220 O   0  0  0  0  0  0  0  0  0  0  0  0
    2.2960   -0.6710   -1.3870 C   0  0  2  0  0  0  0  0  0  0  0  0
    2.5080   -1.9610   -1.8620 O   0  0  0  0  0  0  0  0  0  0  0  0
  1  2  2  0
  2  3  1  0
  2 17  1  0
  3  4  1  0
  4  5  1  0
  5  6  1  0
  6  7  1  6
  6 17  1  0
  8  7  1  6
  8  9  1  0
  8 15  1  0
  9 10  1  0
 10 11  1  0
 11 12  1  6
 11 13  1  0
 13 14  1  1
 13 15  1  0
 15 16  1  6
 17 18  1  1
M  END
