
     RDKit          3D

 19 20  0  0  0  0  0  0  0  0999 V2000
    5.8330   -0.5510   -0.1930 C   0  0  0  0  0  0  0  0  0  0  0  0
    4.5200   -0.4320    0.5680 C   0  0  1  0  0  0  0  0  0  0  0  0
    4.8190   -0.5360    2.0700 C   0  0  0  0  0  0  0  0  0  0  0  0
    3.7960    1.1930    0.2660 S   0  0  0  0  0  0  0  0  0  0  0  0
    3.3260    1.3220   -1.4610 C   0  0  0  0  0  0  0  0  0  0  0  0
    2.1960    0.3970   -1.8470 C   0  0  0  0  0  0  0  0  0  0  0  0
    0.9650    0.6790   -1.0730 C   0  0  0  0  0  0  0  0  0  0  0  0
    0.9720    1.6230   -0.2110 O   0  0  0  0  0  0  0  0  0  0  0  0
   -0.2280   -0.0450   -1.2370 N   0  0  0  0  0  0  0  0  0  0  0  0
   -1.3850    0.2920   -0.4480 C   0  0  0  0  0  0  0  0  0  0  0  0
   -1.5640    1.5020    0.7310 S   0  0  0  0  0  0  0  0  0  0  0  0
   -3.2960    1.1780    1.1470 C   0  0  0  0  0  0  0  0  0  0  0  0
   -3.5740    0.1650    0.3360 C   0  0  0  0  0  0  0  0  0  0  0  0
   -2.6300   -0.3330   -0.5070 C   0  0  0  0  0  0  0  0  0  0  0  0
   -2.8350   -1.4950   -1.4840 C   0  0  0  0  0  0  0  0  0  0  0  0
   -4.1130   -1.9990   -1.4170 O   0  0  0  0  0  0  0  0  0  0  0  0
   -5.0470   -0.1620    0.6370 C   0  0  0  0  0  0  0  0  0  0  0  0
   -5.4340    0.6540    1.8090 C   0  0  0  0  0  0  0  0  0  0  0  0
   -4.3630    1.6540    2.0230 C   0  0  0  0  0  0  0  0  0  0  0  0
  2  1  1  6
  2  3  1  0
  2  4  1  0
  4  5  1  0
  5  6  1  0
  6  7  1  0
  7  8  2  0
  7  9  1  0
  9 10  1  0
 10 11  1  0
 10 14  2  0
 11 12  1  0
 12 13  2  0
 12 19  1  0
 13 14  1  0
 13 17  1  0
 14 15  1  0
 15 16  1  0
 17 18  1  0
 18 19  1  0
M  END
