
     RDKit          3D

 19 20  0  0  0  0  0  0  0  0999 V2000
    5.2350    0.6130   -0.9030 C   0  0  0  0  0  0  0  0  0  0  0  0
    4.8820   -0.1460    0.3540 C   0  0  0  0  0  0  0  0  0  0  0  0
    3.6780   -1.0510    0.0830 C   0  0  0  0  0  0  0  0  0  0  0  0
    3.8170   -2.3730   -0.0850 C   0  0  0  0  0  0  0  0  0  0  0  0
    2.6980   -3.1130   -0.3230 C   0  0  0  0  0  0  0  0  0  0  0  0
    1.3990   -1.9020   -0.3110 S   0  0  0  0  0  0  0  0  0  0  0  0
    2.4460   -0.4950    0.0120 C   0  0  0  0  0  0  0  0  0  0  0  0
    1.9910    0.9070    0.1480 C   0  0  0  0  0  0  0  0  0  0  0  0
    0.5570    0.9350   -0.0140 N   0  0  0  0  0  0  0  0  0  0  0  0
   -0.2570    0.2250    0.8770 C   0  0  0  0  0  0  0  0  0  0  0  0
    0.2500   -0.4380    1.8210 O   0  0  0  0  0  0  0  0  0  0  0  0
   -1.7110    0.2140    0.7630 C   0  0  0  0  0  0  0  0  0  0  0  0
   -2.5300    0.8150   -0.1260 C   0  0  0  0  0  0  0  0  0  0  0  0
   -3.8560    0.6490   -0.0180 C   0  0  0  0  0  0  0  0  0  0  0  0
   -4.8840    1.2750   -0.9590 C   0  0  0  0  0  0  0  0  0  0  0  0
   -4.2160    2.0190   -1.9110 O   0  0  0  0  0  0  0  0  0  0  0  0
   -4.3260   -0.1350    1.0060 C   0  0  0  0  0  0  0  0  0  0  0  0
   -5.7110   -0.5000    1.3790 C   0  0  0  0  0  0  0  0  0  0  0  0
   -2.8360   -0.6430    1.8270 S   0  0  0  0  0  0  0  0  0  0  0  0
  1  2  1  0
  2  3  1  0
  3  4  1  0
  3  7  2  0
  4  5  2  0
  5  6  1  0
  6  7  1  0
  7  8  1  0
  8  9  1  0
  9 10  1  0
 10 11  2  0
 10 12  1  0
 12 13  2  0
 12 19  1  0
 13 14  1  0
 14 15  1  0
 14 17  2  0
 15 16  1  0
 17 18  1  0
 17 19  1  0
M  END
