
     RDKit          3D

 19 20  0  0  0  0  0  0  0  0999 V2000
   -4.6680   -2.3790    1.2680 C   0  0  0  0  0  0  0  0  0  0  0  0
   -3.8510   -1.2670    0.6840 C   0  0  0  0  0  0  0  0  0  0  0  0
   -4.5880   -0.2930    0.0130 C   0  0  0  0  0  0  0  0  0  0  0  0
   -3.8670    0.7340   -0.5310 C   0  0  0  0  0  0  0  0  0  0  0  0
   -4.5130    1.8240   -1.2640 C   0  0  0  0  0  0  0  0  0  0  0  0
   -2.4810    0.7620   -0.3950 C   0  0  0  0  0  0  0  0  0  0  0  0
   -1.2820    1.9270   -0.9700 S   0  0  0  0  0  0  0  0  0  0  0  0
    0.1390    1.0790   -0.2990 C   0  0  0  0  0  0  0  0  0  0  0  0
    1.5150    1.5140   -0.4120 C   0  0  0  0  0  0  0  0  0  0  0  0
    1.7450    2.5820   -1.0290 O   0  0  0  0  0  0  0  0  0  0  0  0
    2.6590    0.7770    0.1550 C   0  0  0  0  0  0  0  0  0  0  0  0
    4.2030    1.6300   -0.1930 S   0  0  0  0  0  0  0  0  0  0  0  0
    5.6380    0.7780    0.4530 C   0  0  0  0  0  0  0  0  0  0  0  0
    5.8800   -0.5300   -0.2220 C   0  0  0  0  0  0  0  0  0  0  0  0
    7.0010   -1.2940    0.2140 N   0  0  0  0  0  0  0  0  0  0  0  0
    5.1500   -0.9700   -1.1390 O   0  0  0  0  0  0  0  0  0  0  0  0
   -0.4070   -0.0160    0.3040 C   0  0  0  0  0  0  0  0  0  0  0  0
   -1.7520   -0.1590    0.2430 C   0  0  0  0  0  0  0  0  0  0  0  0
   -2.4900   -1.2280    0.8100 C   0  0  0  0  0  0  0  0  0  0  0  0
  1  2  1  0
  2  3  2  0
  2 19  1  0
  3  4  1  0
  4  5  1  0
  4  6  2  0
  6  7  1  0
  6 18  1  0
  7  8  1  0
  8  9  1  0
  8 17  2  0
  9 10  2  0
  9 11  1  0
 11 12  1  0
 12 13  1  0
 13 14  1  0
 14 15  1  0
 14 16  2  0
 17 18  1  0
 18 19  2  0
M  END
