
     RDKit          3D

 19 20  0  0  0  0  0  0  0  0999 V2000
    0.2830   -0.3870    1.1690 O   0  0  0  0  0  0  0  0  0  0  0  0
    0.0880   -0.9390    0.1860 C   0  0  0  0  0  0  0  0  0  0  0  0
   -1.0280   -1.5510   -0.4910 C   0  0  0  0  0  0  0  0  0  0  0  0
   -2.2910   -1.5750    0.3410 C   0  0  2  0  0  0  0  0  0  0  0  0
   -3.3360   -2.2420   -0.4370 N   0  0  0  0  0  0  0  0  0  0  0  0
   -4.3450   -1.3270   -0.6350 N   0  0  0  0  0  0  0  0  0  0  0  0
   -4.0950   -0.1900   -0.1030 C   0  0  0  0  0  0  0  0  0  0  0  0
   -4.6570    1.1910    0.0970 C   0  0  0  0  0  0  0  0  0  0  0  0
   -3.6180    1.8600    0.8770 C   0  0  0  0  0  0  0  0  0  0  0  0
   -3.6680    3.1880    1.3310 O   0  0  0  0  0  0  0  0  0  0  0  0
   -2.6090    1.0410    1.1040 C   0  0  0  0  0  0  0  0  0  0  0  0
   -2.8370   -0.2540    0.5230 N   0  0  0  0  0  0  0  0  0  0  0  0
    1.4840   -1.1540   -0.8520 N   0  0  0  0  0  0  0  0  0  0  0  0
    2.3910   -0.5260    0.0180 C   0  0  0  0  0  0  0  0  0  0  0  0
    2.3090    0.0710    1.0390 O   0  0  0  0  0  0  0  0  0  0  0  0
    3.7530   -0.7270   -0.6040 N   0  0  0  0  0  0  0  0  0  0  0  0
    4.8500   -0.1640    0.0500 C   0  0  0  0  0  0  0  0  0  0  0  0
    4.7970    1.3510    0.1470 C   0  0  0  0  0  0  0  0  0  0  0  0
    5.9240    1.8180    0.8100 O   0  0  0  0  0  0  0  0  0  0  0  0
  1  2  2  0
  2  3  1  0
  2 13  1  0
  4  3  1  6
  4  5  1  0
  4 12  1  0
  5  6  1  0
  6  7  2  0
  7  8  1  0
  7 12  1  0
  8  9  1  0
  9 10  1  0
  9 11  2  0
 11 12  1  0
 13 14  1  0
 14 15  2  0
 14 16  1  0
 16 17  1  0
 17 18  1  0
 18 19  1  0
M  END
