
     RDKit          3D

 19 20  0  0  0  0  0  0  0  0999 V2000
    5.2600    1.0980   -1.0560 N   0  0  0  0  0  0  0  0  0  0  0  0
    4.8380    0.8610    0.2730 C   0  0  0  0  0  0  0  0  0  0  0  0
    5.5300    1.3450    1.1990 O   0  0  0  0  0  0  0  0  0  0  0  0
    3.6120    0.0610    0.4730 C   0  0  2  0  0  0  0  0  0  0  0  0
    2.3630    0.7820    0.0110 C   0  0  0  0  0  0  0  0  0  0  0  0
    1.3070   -0.0380    0.7560 C   0  0  2  0  0  0  0  0  0  0  0  0
    0.0180    0.5560    0.7190 N   0  0  0  0  0  0  0  0  0  0  0  0
   -1.0770   -0.0950    0.1140 C   0  0  0  0  0  0  0  0  0  0  0  0
   -0.8790   -1.2240   -0.3940 O   0  0  0  0  0  0  0  0  0  0  0  0
   -2.3830    0.4430    0.0450 N   0  0  0  0  0  0  0  0  0  0  0  0
   -3.4760   -0.2550   -0.5820 C   0  0  0  0  0  0  0  0  0  0  0  0
   -4.5190   -0.5420    0.1640 C   0  0  0  0  0  0  0  0  0  0  0  0
   -5.7070   -1.2480   -0.3330 C   0  0  0  0  0  0  0  0  0  0  0  0
   -5.5870   -1.5700   -1.6780 O   0  0  0  0  0  0  0  0  0  0  0  0
   -4.5000   -1.2610   -2.4190 N   0  0  0  0  0  0  0  0  0  0  0  0
   -3.4620   -0.6380   -1.9650 C   0  0  0  0  0  0  0  0  0  0  0  0
    1.9060   -0.1850    2.0700 C   0  0  0  0  0  0  0  0  0  0  0  0
    1.3240   -0.3600    3.1560 O   0  0  0  0  0  0  0  0  0  0  0  0
    3.3120   -0.0930    1.9070 N   0  0  0  0  0  0  0  0  0  0  0  0
  1  2  1  0
  2  3  2  0
  4  2  1  1
  4  5  1  0
  4 19  1  0
  5  6  1  0
  6  7  1  1
  6 17  1  0
  7  8  1  0
  8  9  2  0
  8 10  1  0
 10 11  1  0
 11 12  2  0
 11 16  1  0
 12 13  1  0
 13 14  1  0
 14 15  1  0
 15 16  2  0
 17 18  2  0
 17 19  1  0
M  END
