
     RDKit          3D

 19 20  0  0  0  0  0  0  0  0999 V2000
   -4.7030    1.7480   -0.6440 N   0  0  0  0  0  0  0  0  0  0  0  0
   -4.2490    0.3930   -0.9200 C   0  0  1  0  0  0  0  0  0  0  0  0
   -2.8120    0.2280   -0.5990 C   0  0  0  0  0  0  0  0  0  0  0  0
   -2.4070   -0.7330    0.1900 C   0  0  0  0  0  0  0  0  0  0  0  0
   -0.9940   -0.9410    0.5410 C   0  0  0  0  0  0  0  0  0  0  0  0
   -0.0680   -0.0290   -0.0300 N   0  0  0  0  0  0  0  0  0  0  0  0
    1.3490   -0.1370    0.2440 C   0  0  0  0  0  0  0  0  0  0  0  0
    1.7080   -1.0620    0.9990 O   0  0  0  0  0  0  0  0  0  0  0  0
    2.3080    0.7880   -0.3320 C   0  0  0  0  0  0  0  0  0  0  0  0
    3.6670    0.5370    0.0440 N   0  0  0  0  0  0  0  0  0  0  0  0
    4.4790   -0.2600   -0.6350 N   0  0  0  0  0  0  0  0  0  0  0  0
    5.6830   -0.2890   -0.0310 C   0  0  0  0  0  0  0  0  0  0  0  0
    6.6580   -0.9680   -0.4580 O   0  0  0  0  0  0  0  0  0  0  0  0
    5.6300    0.5060    1.0520 N   0  0  0  0  0  0  0  0  0  0  0  0
    4.3810    1.0090    1.0850 C   0  0  0  0  0  0  0  0  0  0  0  0
    3.8970    1.8020    1.9360 O   0  0  0  0  0  0  0  0  0  0  0  0
   -3.3700   -1.7040    0.8000 C   0  0  0  0  0  0  0  0  0  0  0  0
   -4.6380   -1.5480    0.5100 C   0  0  0  0  0  0  0  0  0  0  0  0
   -5.0920   -0.5410   -0.3210 O   0  0  0  0  0  0  0  0  0  0  0  0
  2  1  1  1
  2  3  1  0
  2 19  1  0
  3  4  2  0
  4  5  1  0
  4 17  1  0
  5  6  1  0
  6  7  1  0
  7  8  2  0
  7  9  1  0
  9 10  1  0
 10 11  1  0
 10 15  1  0
 11 12  1  0
 12 13  2  0
 12 14  1  0
 14 15  1  0
 15 16  2  0
 17 18  2  0
 18 19  1  0
M  END
