
     RDKit          3D

 19 20  0  0  0  0  0  0  0  0999 V2000
    5.6290   -0.1350   -2.1180 N   0  0  0  0  0  0  0  0  0  0  0  0
    4.4340    0.6600   -1.9870 C   0  0  0  0  0  0  0  0  0  0  0  0
    3.4680   -0.0620   -1.1170 C   0  0  0  0  0  0  0  0  0  0  0  0
    2.2630    0.4470   -0.8220 N   0  0  0  0  0  0  0  0  0  0  0  0
    1.3590   -0.1940   -0.0280 C   0  0  0  0  0  0  0  0  0  0  0  0
    0.1000    0.4180    0.2500 N   0  0  0  0  0  0  0  0  0  0  0  0
   -0.8950   -0.2060    1.0700 C   0  0  1  0  0  0  0  0  0  0  0  0
   -2.0590    0.7580    1.2900 C   0  0  0  0  0  0  0  0  0  0  0  0
   -2.6330    1.2010   -0.0530 C   0  0  2  0  0  0  0  0  0  0  0  0
   -4.0470    1.6860    0.1820 C   0  0  0  0  0  0  0  0  0  0  0  0
   -4.6250    2.1060   -1.0140 O   0  0  0  0  0  0  0  0  0  0  0  0
   -2.6430   -0.0530   -0.9420 C   0  0  0  0  0  0  0  0  0  0  0  0
   -2.6980   -1.1810   -0.0920 O   0  0  0  0  0  0  0  0  0  0  0  0
   -1.4490   -1.4710    0.4430 C   0  0  2  0  0  0  0  0  0  0  0  0
   -1.6090   -2.4280    1.4540 O   0  0  0  0  0  0  0  0  0  0  0  0
    1.6920   -1.3850    0.4790 N   0  0  0  0  0  0  0  0  0  0  0  0
    2.9130   -1.9260    0.1940 C   0  0  0  0  0  0  0  0  0  0  0  0
    3.2050   -3.0440    0.6790 O   0  0  0  0  0  0  0  0  0  0  0  0
    3.7680   -1.2630   -0.5890 N   0  0  0  0  0  0  0  0  0  0  0  0
  1  2  1  0
  2  3  1  0
  3  4  1  0
  3 19  2  0
  4  5  2  0
  5  6  1  0
  5 16  1  0
  7  6  1  6
  7  8  1  0
  7 14  1  0
  8  9  1  0
  9 10  1  1
  9 12  1  0
 10 11  1  0
 12 13  1  0
 13 14  1  0
 14 15  1  1
 16 17  1  0
 17 18  2  0
 17 19  1  0
M  END
