
     RDKit          3D

 19 20  0  0  0  0  0  0  0  0999 V2000
   -1.5770   -2.9890   -0.4310 C   0  0  0  0  0  0  0  0  0  0  0  0
   -1.4110   -1.5580   -0.5490 N   0  0  0  0  0  0  0  0  0  0  0  0
   -2.5080   -0.8720   -1.1550 C   0  0  0  0  0  0  0  0  0  0  0  0
   -2.6880    0.4860   -0.6840 N   0  0  0  0  0  0  0  0  0  0  0  0
   -1.7580    1.5090   -0.3550 C   0  0  0  0  0  0  0  0  0  0  0  0
   -2.2750    2.8970   -0.4610 C   0  0  1  0  0  0  0  0  0  0  0  0
   -3.3970    3.3810    0.3060 C   0  0  0  0  0  0  0  0  0  0  0  0
   -2.0880    3.7940    0.5580 O   0  0  0  0  0  0  0  0  0  0  0  0
   -0.5330    1.3610    0.0190 N   0  0  0  0  0  0  0  0  0  0  0  0
    0.2260    0.1750    0.2080 C   0  0  0  0  0  0  0  0  0  0  0  0
    1.5720    0.3250    0.7260 C   0  0  0  0  0  0  0  0  0  0  0  0
    2.0550    1.4520    0.9990 O   0  0  0  0  0  0  0  0  0  0  0  0
    2.3740   -0.7740    0.9380 O   0  0  0  0  0  0  0  0  0  0  0  0
    3.6950   -0.6940    1.4400 C   0  0  0  0  0  0  0  0  0  0  0  0
    4.5740    0.0990    0.5710 C   0  0  0  0  0  0  0  0  0  0  0  0
    4.0340    0.6640   -0.6150 N   0  0  0  0  0  0  0  0  0  0  0  0
    5.7750    0.2800    0.8590 O   0  0  0  0  0  0  0  0  0  0  0  0
   -0.2000   -1.0500   -0.0520 C   0  0  0  0  0  0  0  0  0  0  0  0
    0.7670   -2.0530    0.2300 N   0  0  0  0  0  0  0  0  0  0  0  0
  1  2  1  0
  2  3  1  0
  2 18  1  0
  3  4  1  0
  4  5  1  0
  6  5  1  1
  5  9  2  0
  6  7  1  0
  6  8  1  0
  7  8  1  0
  9 10  1  0
 10 11  1  0
 10 18  2  0
 11 12  2  0
 11 13  1  0
 13 14  1  0
 14 15  1  0
 15 16  1  0
 15 17  2  0
 18 19  1  0
M  END
