
     RDKit          3D

 20 21  0  0  0  0  0  0  0  0999 V2000
    0.5160   -0.0940   -1.2380 O   0  0  0  0  0  0  0  0  0  0  0  0
    0.2750   -0.8290   -0.2680 C   0  0  0  0  0  0  0  0  0  0  0  0
    1.2160   -1.7460    0.2550 N   0  0  0  0  0  0  0  0  0  0  0  0
    2.5590   -1.9500   -0.1860 C   0  0  0  0  0  0  0  0  0  0  0  0
    3.4760   -0.8400    0.0500 C   0  0  1  0  0  0  0  0  0  0  0  0
    3.2080    0.4970   -0.5600 C   0  0  0  0  0  0  0  0  0  0  0  0
    4.4290    1.2800   -0.3860 O   0  0  0  0  0  0  0  0  0  0  0  0
    5.2130    1.0100    0.7430 C   0  0  0  0  0  0  0  0  0  0  0  0
    6.3900    1.4160    0.8170 O   0  0  0  0  0  0  0  0  0  0  0  0
    4.6290    0.2620    1.7960 N   0  0  0  0  0  0  0  0  0  0  0  0
    3.6200   -0.6460    1.5150 N   0  0  0  0  0  0  0  0  0  0  0  0
   -1.0100   -0.7370    0.3410 N   0  0  0  0  0  0  0  0  0  0  0  0
   -2.0380    0.1530   -0.1020 C   0  0  1  0  0  0  0  0  0  0  0  0
   -3.3190   -0.5070   -0.4740 C   0  0  0  0  0  0  0  0  0  0  0  0
   -4.5440    0.2100    0.0540 C   0  0  1  0  0  0  0  0  0  0  0  0
   -4.6360   -0.0950    1.4310 O   0  0  0  0  0  0  0  0  0  0  0  0
   -4.3800    1.7320   -0.0370 C   0  0  0  0  0  0  0  0  0  0  0  0
   -3.3100    2.0780    0.8580 N   0  0  0  0  0  0  0  0  0  0  0  0
   -2.2140    1.1990    0.9690 C   0  0  0  0  0  0  0  0  0  0  0  0
   -1.4220    1.2980    1.9290 O   0  0  0  0  0  0  0  0  0  0  0  0
  1  2  2  0
  2  3  1  0
  2 12  1  0
  3  4  1  0
  5  4  1  1
  5  6  1  0
  5 11  1  0
  6  7  1  0
  7  8  1  0
  8  9  2  0
  8 10  1  0
 10 11  1  0
 13 12  1  1
 13 14  1  0
 13 19  1  0
 14 15  1  0
 15 16  1  1
 15 17  1  0
 17 18  1  0
 18 19  1  0
 19 20  2  0
M  END
