
     RDKit          3D

 20 21  0  0  0  0  0  0  0  0999 V2000
    4.4270   -1.0980   -0.3460 N   0  0  0  0  0  0  0  0  0  0  0  0
    4.4620    0.1070    0.4110 C   0  0  0  0  0  0  0  0  0  0  0  0
    5.5670    0.6070    0.9670 O   0  0  0  0  0  0  0  0  0  0  0  0
    5.2850    1.7040    1.5750 N   0  0  0  0  0  0  0  0  0  0  0  0
    3.9940    2.0040    1.4690 C   0  0  0  0  0  0  0  0  0  0  0  0
    3.3640    2.9940    1.9320 O   0  0  0  0  0  0  0  0  0  0  0  0
    3.4430    0.9360    0.6940 C   0  0  0  0  0  0  0  0  0  0  0  0
    2.0870    0.9120    0.4460 N   0  0  0  0  0  0  0  0  0  0  0  0
    1.3150   -0.2860    0.0170 C   0  0  0  0  0  0  0  0  0  0  0  0
    1.9100   -1.3110   -0.1160 O   0  0  0  0  0  0  0  0  0  0  0  0
   -0.0000    0.1170   -0.1280 N   0  0  0  0  0  0  0  0  0  0  0  0
   -0.6660   -1.4260   -0.5800 C   0  0  0  0  0  0  0  0  0  0  0  0
    0.1470   -2.2510   -0.6780 O   0  0  0  0  0  0  0  0  0  0  0  0
   -2.1090   -1.3010   -0.7240 C   0  0  2  0  0  0  0  0  0  0  0  0
   -2.5630   -2.5830   -1.1290 O   0  0  0  0  0  0  0  0  0  0  0  0
   -2.5980   -0.3300   -1.7420 C   0  0  0  0  0  0  0  0  0  0  0  0
   -3.1060    0.9820   -1.2460 C   0  0  0  0  0  0  0  0  0  0  0  0
   -3.6940    0.9870    0.1200 C   0  0  0  0  0  0  0  0  0  0  0  0
   -2.8430    0.2540    1.0320 N   0  0  0  0  0  0  0  0  0  0  0  0
   -2.7240   -1.1150    0.6540 C   0  0  0  0  0  0  0  0  0  0  0  0
  1  2  1  0
  2  3  1  0
  2  7  2  0
  3  4  1  0
  4  5  1  0
  5  6  2  0
  5  7  1  0
  7  8  1  0
  8  9  1  0
  9 10  2  0
  9 11  1  0
 11 12  1  0
 12 13  2  0
 12 14  1  0
 14 15  1  6
 14 16  1  0
 14 20  1  0
 16 17  1  0
 17 18  1  0
 18 19  1  0
 19 20  1  0
M  END
