
     RDKit          3D

 20 21  0  0  0  0  0  0  0  0999 V2000
    7.0540   -1.7080   -0.1590 O   0  0  0  0  0  0  0  0  0  0  0  0
    5.8910   -1.2320   -0.1070 C   0  0  0  0  0  0  0  0  0  0  0  0
    5.5520   -0.0240    0.5680 N   0  0  0  0  0  0  0  0  0  0  0  0
    4.1540    0.2390    0.3190 C   0  0  0  0  0  0  0  0  0  0  0  0
    3.6110   -1.1710    0.0770 C   0  0  1  0  0  0  0  0  0  0  0  0
    2.3500   -1.0860   -0.7120 C   0  0  0  0  0  0  0  0  0  0  0  0
    2.2890   -1.4960   -1.9000 O   0  0  0  0  0  0  0  0  0  0  0  0
    1.1980   -0.5390   -0.1270 N   0  0  0  0  0  0  0  0  0  0  0  0
   -0.0450   -0.4310   -0.8370 C   0  0  0  0  0  0  0  0  0  0  0  0
   -0.0720   -0.8460   -2.0120 O   0  0  0  0  0  0  0  0  0  0  0  0
   -1.2210    0.1430   -0.1980 C   0  0  0  0  0  0  0  0  0  0  0  0
   -1.1980    0.5610    0.9800 O   0  0  0  0  0  0  0  0  0  0  0  0
   -2.3940    0.2250   -0.9250 O   0  0  0  0  0  0  0  0  0  0  0  0
   -3.5760    0.7490   -0.4290 C   0  0  0  0  0  0  0  0  0  0  0  0
   -4.4200   -0.0700    0.1760 C   0  0  0  0  0  0  0  0  0  0  0  0
   -5.7150    0.3610    0.7500 C   0  0  0  0  0  0  0  0  0  0  0  0
   -5.9320    1.7590    0.5680 N   0  0  0  0  0  0  0  0  0  0  0  0
   -5.0170    2.5890   -0.0760 N   0  0  0  0  0  0  0  0  0  0  0  0
   -3.9100    2.1600   -0.5540 C   0  0  0  0  0  0  0  0  0  0  0  0
    4.6830   -1.7580   -0.6830 N   0  0  0  0  0  0  0  0  0  0  0  0
  1  2  2  0
  2  3  1  0
  2 20  1  0
  3  4  1  0
  4  5  1  0
  5  6  1  6
  5 20  1  0
  6  7  2  0
  6  8  1  0
  8  9  1  0
  9 10  2  0
  9 11  1  0
 11 12  2  0
 11 13  1  0
 13 14  1  0
 14 15  2  0
 14 19  1  0
 15 16  1  0
 16 17  1  0
 17 18  1  0
 18 19  2  0
M  END
