
     RDKit          3D

 20 21  0  0  0  0  0  0  0  0999 V2000
    3.6350   -1.8140    0.9040 N   0  0  0  0  0  0  0  0  0  0  0  0
    3.9440   -0.5670    0.2980 C   0  0  0  0  0  0  0  0  0  0  0  0
    5.2260   -0.1700    0.2540 N   0  0  0  0  0  0  0  0  0  0  0  0
    5.5850    0.9870   -0.2990 C   0  0  0  0  0  0  0  0  0  0  0  0
    6.7840    1.3270   -0.3230 O   0  0  0  0  0  0  0  0  0  0  0  0
    4.6340    1.7570   -0.8180 N   0  0  0  0  0  0  0  0  0  0  0  0
    3.3100    1.3880   -0.7950 C   0  0  0  0  0  0  0  0  0  0  0  0
    2.5440    2.2090   -1.3170 O   0  0  0  0  0  0  0  0  0  0  0  0
    2.9100    0.2160   -0.2390 C   0  0  0  0  0  0  0  0  0  0  0  0
    1.6080   -0.2910   -0.1410 N   0  0  0  0  0  0  0  0  0  0  0  0
    0.4260    0.2970   -0.5950 C   0  0  0  0  0  0  0  0  0  0  0  0
    0.3970    1.3910   -1.1640 O   0  0  0  0  0  0  0  0  0  0  0  0
   -0.8360   -0.3720   -0.4090 N   0  0  0  0  0  0  0  0  0  0  0  0
   -2.0580    0.2670   -0.8940 C   0  0  0  0  0  0  0  0  0  0  0  0
   -3.2200   -0.6250   -0.5800 C   0  0  1  0  0  0  0  0  0  0  0  0
   -3.3200   -0.8440    0.9340 C   0  0  0  0  0  0  0  0  0  0  0  0
   -4.1150    0.3900    1.3160 C   0  0  0  0  0  0  0  0  0  0  0  0
   -4.9380    0.6990    0.2690 O   0  0  0  0  0  0  0  0  0  0  0  0
   -4.5480    0.0080   -0.8450 C   0  0  1  0  0  0  0  0  0  0  0  0
   -4.5760    0.7540   -2.0180 O   0  0  0  0  0  0  0  0  0  0  0  0
  1  2  1  0
  2  3  1  0
  2  9  2  0
  3  4  1  0
  4  5  2  0
  4  6  1  0
  6  7  1  0
  7  8  2  0
  7  9  1  0
  9 10  1  0
 10 11  1  0
 11 12  2  0
 11 13  1  0
 13 14  1  0
 15 14  1  1
 15 16  1  0
 15 19  1  0
 16 17  1  0
 17 18  1  0
 18 19  1  0
 19 20  1  6
M  END
