
     RDKit          3D

 20 21  0  0  0  0  0  0  0  0999 V2000
   -2.9380    1.8260   -0.0560 C   0  0  0  0  0  0  0  0  0  0  0  0
   -1.6830    1.7200    0.7180 C   0  0  0  0  0  0  0  0  0  0  0  0
   -1.1520    0.3190    0.8810 C   0  0  1  0  0  0  0  0  0  0  0  0
   -2.0630   -0.5570    1.5560 N   0  0  0  0  0  0  0  0  0  0  0  0
   -2.5240   -1.7670    0.9990 C   0  0  0  0  0  0  0  0  0  0  0  0
   -3.1700   -2.6230    1.6800 O   0  0  0  0  0  0  0  0  0  0  0  0
   -2.2790   -2.0810   -0.3730 N   0  0  0  0  0  0  0  0  0  0  0  0
   -1.5560   -1.1080   -1.1120 C   0  0  0  0  0  0  0  0  0  0  0  0
   -1.7360   -1.0000   -2.3500 O   0  0  0  0  0  0  0  0  0  0  0  0
   -0.6090   -0.2470   -0.4020 C   0  0  1  0  0  0  0  0  0  0  0  0
   -0.1010    0.7410   -1.2990 N   0  0  0  0  0  0  0  0  0  0  0  0
    1.3110    0.7930   -1.2130 C   0  0  0  0  0  0  0  0  0  0  0  0
    2.0900    1.6700   -1.6750 O   0  0  0  0  0  0  0  0  0  0  0  0
    1.7880   -0.3500   -0.4860 N   0  0  0  0  0  0  0  0  0  0  0  0
    3.1720   -0.6480   -0.1920 C   0  0  0  0  0  0  0  0  0  0  0  0
    3.5230   -0.0250    1.1020 C   0  0  0  0  0  0  0  0  0  0  0  0
    4.8460   -0.1780    1.6130 N   0  0  0  0  0  0  0  0  0  0  0  0
    2.6550    0.6240    1.7260 O   0  0  0  0  0  0  0  0  0  0  0  0
    0.6210   -1.0810   -0.1440 C   0  0  0  0  0  0  0  0  0  0  0  0
    0.6020   -2.2450    0.3050 O   0  0  0  0  0  0  0  0  0  0  0  0
  1  2  1  0
  3  2  1  6
  3  4  1  0
  3 10  1  0
  4  5  1  0
  5  6  2  0
  5  7  1  0
  7  8  1  0
  8  9  2  0
  8 10  1  0
 10 11  1  6
 10 19  1  0
 11 12  1  0
 12 13  2  0
 12 14  1  0
 14 15  1  0
 14 19  1  0
 15 16  1  0
 16 17  1  0
 16 18  2  0
 19 20  2  0
M  END
