
     RDKit          3D

 20 21  0  0  0  0  0  0  0  0999 V2000
   -3.0210   -1.3310    0.8650 C   0  0  0  0  0  0  0  0  0  0  0  0
   -1.9740   -0.8880   -0.1040 C   0  0  2  0  0  0  0  0  0  0  0  0
   -1.6270   -1.9090   -1.1630 C   0  0  0  0  0  0  0  0  0  0  0  0
   -0.9780    0.0970    0.3690 C   0  0  1  0  0  0  0  0  0  0  0  0
    0.4000   -0.0800   -0.1200 N   0  0  0  0  0  0  0  0  0  0  0  0
    1.5090    0.1280    0.7280 C   0  0  0  0  0  0  0  0  0  0  0  0
    1.2590    0.4700    1.9100 O   0  0  0  0  0  0  0  0  0  0  0  0
    2.8630   -0.0490    0.2350 C   0  0  0  0  0  0  0  0  0  0  0  0
    3.8540    0.1710    1.1120 C   0  0  0  0  0  0  0  0  0  0  0  0
    3.5120    0.5560    2.4400 N   0  0  0  0  0  0  0  0  0  0  0  0
    5.1760    0.0190    0.7070 O   0  0  0  0  0  0  0  0  0  0  0  0
    5.5130   -0.3500   -0.5650 N   0  0  0  0  0  0  0  0  0  0  0  0
    4.4890   -0.5890   -1.5140 C   0  0  0  0  0  0  0  0  0  0  0  0
    4.7480   -0.9330   -2.7080 O   0  0  0  0  0  0  0  0  0  0  0  0
    3.1390   -0.4330   -1.0970 N   0  0  0  0  0  0  0  0  0  0  0  0
   -1.9770    0.5420   -0.6120 C   0  0  2  0  0  0  0  0  0  0  0  0
   -3.1680    1.3110   -0.2440 C   0  0  0  0  0  0  0  0  0  0  0  0
   -3.6440    1.1520    0.9100 O   0  0  0  0  0  0  0  0  0  0  0  0
   -3.8200    2.2100   -1.0780 O   0  0  0  0  0  0  0  0  0  0  0  0
   -4.9440    2.8870   -0.6250 N   0  0  0  0  0  0  0  0  0  0  0  0
  2  1  1  1
  2  3  1  0
  2  4  1  0
  2 16  1  0
  4  5  1  6
  4 16  1  0
  5  6  1  0
  6  7  2  0
  6  8  1  0
  8  9  2  0
  8 15  1  0
  9 10  1  0
  9 11  1  0
 11 12  1  0
 12 13  1  0
 13 14  2  0
 13 15  1  0
 16 17  1  1
 17 18  2  0
 17 19  1  0
 19 20  1  0
M  END
