
     RDKit          3D

 20 22  0  0  0  0  0  0  0  0999 V2000
   -4.3040    1.7740   -0.8960 N   0  0  0  0  0  0  0  0  0  0  0  0
   -3.7070    0.5640   -0.4480 C   0  0  0  0  0  0  0  0  0  0  0  0
   -2.3730    0.4080   -0.4060 N   0  0  0  0  0  0  0  0  0  0  0  0
   -1.7470   -0.7080    0.0060 C   0  0  0  0  0  0  0  0  0  0  0  0
   -2.5700   -1.7440    0.4080 C   0  0  0  0  0  0  0  0  0  0  0  0
   -1.7300   -2.7310    0.7690 N   0  0  0  0  0  0  0  0  0  0  0  0
   -0.4590   -2.3210    0.5980 C   0  0  0  0  0  0  0  0  0  0  0  0
   -0.4500   -1.0740    0.1270 N   0  0  0  0  0  0  0  0  0  0  0  0
    0.6480   -0.2060   -0.2140 C   0  0  2  0  0  0  0  0  0  0  0  0
    1.8440   -0.9200   -0.3840 O   0  0  0  0  0  0  0  0  0  0  0  0
    2.7330    0.1420   -0.5130 C   0  0  2  0  0  0  0  0  0  0  0  0
    4.1590   -0.2920   -0.6420 C   0  0  0  0  0  0  0  0  0  0  0  0
    4.6070   -1.0200    0.4510 O   0  0  0  0  0  0  0  0  0  0  0  0
    2.4640    0.9210    0.7530 C   0  0  1  0  0  0  0  0  0  0  0  0
    2.9160    2.2090    0.6140 O   0  0  0  0  0  0  0  0  0  0  0  0
    0.9310    0.8460    0.8060 C   0  0  1  0  0  0  0  0  0  0  0  0
    0.4840    2.1020    0.3480 O   0  0  0  0  0  0  0  0  0  0  0  0
   -3.9440   -1.6400    0.3860 C   0  0  0  0  0  0  0  0  0  0  0  0
   -4.7170   -2.5580    0.7430 O   0  0  0  0  0  0  0  0  0  0  0  0
   -4.4760   -0.4880   -0.0410 N   0  0  0  0  0  0  0  0  0  0  0  0
  1  2  1  0
  2  3  2  0
  2 20  1  0
  3  4  1  0
  4  5  2  0
  4  8  1  0
  5  6  1  0
  5 18  1  0
  6  7  2  0
  7  8  1  0
  9  8  1  1
  9 10  1  0
  9 16  1  0
 10 11  1  0
 11 12  1  1
 11 14  1  0
 12 13  1  0
 14 15  1  6
 14 16  1  0
 16 17  1  6
 18 19  2  0
 18 20  1  0
M  END
