
     RDKit          3D

 28 28  0  0  0  0  0  0  0  0999 V2000
   -5.4510    3.9270    2.7240 O   0  0  0  0  0  0  0  0  0  0  0  0
   -4.5670    3.8910    1.4670 P   0  0  0  0  0  0  0  0  0  0  0  0
   -3.1020    3.0150    1.3170 O   0  0  0  0  0  0  0  0  0  0  0  0
   -3.2240    1.8560    0.5420 C   0  0  1  0  0  0  0  0  0  0  0  0
   -2.4610    2.0130   -0.6070 O   0  0  0  0  0  0  0  0  0  0  0  0
   -2.8650    0.6480    1.2940 C   0  0  0  0  0  0  0  0  0  0  0  0
   -3.5120    0.4350    2.3610 O   0  0  0  0  0  0  0  0  0  0  0  0
   -1.8690   -0.2770    0.9210 N   0  0  0  0  0  0  0  0  0  0  0  0
   -1.6240   -1.4390    1.7830 C   0  0  0  0  0  0  0  0  0  0  0  0
   -0.1860   -1.8510    1.8160 C   0  0  0  0  0  0  0  0  0  0  0  0
    0.5790   -1.4730    0.7600 O   0  0  0  0  0  0  0  0  0  0  0  0
   -0.0840   -1.2500   -0.4260 C   0  0  2  0  0  0  0  0  0  0  0  0
   -0.7620   -2.5240   -0.8260 C   0  0  0  0  0  0  0  0  0  0  0  0
   -0.6260   -3.5490   -0.1380 O   0  0  0  0  0  0  0  0  0  0  0  0
   -1.5560   -2.5880   -1.9710 O   0  0  0  0  0  0  0  0  0  0  0  0
    0.9330   -0.9350   -1.5370 C   0  0  1  0  0  0  0  0  0  0  0  0
    1.7920    0.2340   -1.1140 C   0  0  0  0  0  0  0  0  0  0  0  0
    2.4010   -0.0350    0.1130 O   0  0  0  0  0  0  0  0  0  0  0  0
    3.3920    1.2530    0.6530 P   0  0  0  0  0  0  0  0  0  0  0  0
    4.4740    1.8140   -0.5830 O   0  0  0  0  0  0  0  0  0  0  0  0
    2.1960    2.9400    1.4150 P   0  0  0  0  0  0  0  0  0  0  0  0
    3.0020    4.4080    0.9670 O   0  0  0  0  0  0  0  0  0  0  0  0
    2.1180    2.8020    3.1380 O   0  0  0  0  0  0  0  0  0  0  0  0
    1.8160   -2.1070   -1.6700 N   0  0  0  0  0  0  0  0  0  0  0  0
    1.9440   -2.8190   -2.8850 C   0  0  0  0  0  0  0  0  0  0  0  0
    1.2870   -2.4450   -3.8790 O   0  0  0  0  0  0  0  0  0  0  0  0
    2.7720   -3.9270   -3.0330 O   0  0  0  0  0  0  0  0  0  0  0  0
   -1.0730   -0.1350   -0.2740 C   0  0  0  0  0  0  0  0  0  0  0  0
  1  2  2  0
  2  3  1  0
  3  4  1  0
  4  5  1  6
  4  6  1  0
  6  7  2  0
  6  8  1  0
  8  9  1  0
  8 28  1  0
  9 10  1  0
 10 11  1  0
 11 12  1  0
 12 13  1  6
 12 16  1  0
 12 28  1  0
 13 14  2  0
 13 15  1  0
 16 17  1  1
 16 24  1  0
 17 18  1  0
 18 19  1  0
 19 20  1  0
 19 21  1  0
 21 22  1  0
 21 23  1  0
 24 25  1  0
 25 26  2  0
 25 27  1  0
M  END
