
     RDKit          3D

 29 29  0  0  0  0  0  0  0  0999 V2000
   -2.1610    4.9320   -1.2660 C   0  0  0  0  0  0  0  0  0  0  0  0
   -2.0640    3.5990   -1.6950 O   0  0  0  0  0  0  0  0  0  0  0  0
   -1.6330    2.5560   -0.8810 C   0  0  0  0  0  0  0  0  0  0  0  0
   -1.3190    2.8800    0.3110 O   0  0  0  0  0  0  0  0  0  0  0  0
   -1.5420    1.2190   -1.3310 N   0  0  0  0  0  0  0  0  0  0  0  0
   -1.0880    0.1820   -0.4410 C   0  0  1  0  0  0  0  0  0  0  0  0
   -2.1000   -0.7840   -0.3940 O   0  0  0  0  0  0  0  0  0  0  0  0
   -2.5340   -1.0100    0.9070 C   0  0  1  0  0  0  0  0  0  0  0  0
   -3.8860   -0.6820    0.9490 O   0  0  0  0  0  0  0  0  0  0  0  0
   -4.0890    0.2690    1.8260 O   0  0  0  0  0  0  0  0  0  0  0  0
   -2.3320   -2.8080    1.2720 P   0  0  0  0  0  0  0  0  0  0  0  0
   -3.8320   -3.6560    1.2820 O   0  0  0  0  0  0  0  0  0  0  0  0
   -1.4130   -3.0790    2.7150 O   0  0  0  0  0  0  0  0  0  0  0  0
    0.1440   -0.5280   -0.9800 C   0  0  2  0  0  0  0  0  0  0  0  0
   -0.2050   -1.2190   -2.2860 C   0  0  0  0  0  0  0  0  0  0  0  0
    0.8730   -1.9570   -2.7570 O   0  0  0  0  0  0  0  0  0  0  0  0
    0.4340   -2.7220   -4.2360 P   0  0  0  0  0  0  0  0  0  0  0  0
    0.3020   -4.2620   -4.2570 O   0  0  0  0  0  0  0  0  0  0  0  0
    0.4880   -1.5140   -0.0240 O   0  0  0  0  0  0  0  0  0  0  0  0
    1.6050   -1.4150    0.7930 C   0  0  0  0  0  0  0  0  0  0  0  0
    1.6140   -1.9330    1.9570 O   0  0  0  0  0  0  0  0  0  0  0  0
    2.7490   -0.7210    0.3110 N   0  0  0  0  0  0  0  0  0  0  0  0
    3.9360   -0.5770    1.1260 C   0  0  0  0  0  0  0  0  0  0  0  0
    3.8480    0.9740    2.1450 P   0  0  0  0  0  0  0  0  0  0  0  0
    2.9990    0.5760    3.6130 O   0  0  0  0  0  0  0  0  0  0  0  0
    5.4670    1.5260    2.5180 O   0  0  0  0  0  0  0  0  0  0  0  0
    2.6630   -0.1720   -1.0280 C   0  0  0  0  0  0  0  0  0  0  0  0
    1.2810    0.3870   -1.1660 C   0  0  0  0  0  0  0  0  0  0  0  0
    1.1750    1.5680   -1.4240 O   0  0  0  0  0  0  0  0  0  0  0  0
  1  2  1  0
  2  3  1  0
  3  4  2  0
  3  5  1  0
  6  5  1  6
  6  7  1  0
  6 14  1  0
  8  7  1  6
  8  9  1  0
  8 11  1  0
  9 10  1  0
 11 12  1  0
 11 13  1  0
 14 15  1  6
 14 19  1  0
 14 28  1  0
 15 16  1  0
 16 17  1  0
 17 18  2  0
 19 20  1  0
 20 21  2  0
 20 22  1  0
 22 23  1  0
 22 27  1  0
 23 24  1  0
 24 25  1  0
 24 26  1  0
 27 28  1  0
 28 29  2  0
M  END
