
     RDKit          3D

 29 29  0  0  0  0  0  0  0  0999 V2000
    6.2540    3.8320    1.6050 O   0  0  0  0  0  0  0  0  0  0  0  0
    5.9480    2.4170    2.1730 P   0  0  0  0  0  0  0  0  0  0  0  0
    6.1210    0.9670    1.2790 O   0  0  0  0  0  0  0  0  0  0  0  0
    5.0390    0.6470    0.5010 C   0  0  1  0  0  0  0  0  0  0  0  0
    3.7570    0.4570    1.2960 C   0  0  0  0  0  0  0  0  0  0  0  0
    2.7480    0.1370    0.3560 O   0  0  0  0  0  0  0  0  0  0  0  0
    1.4360   -0.1100    0.6930 C   0  0  0  0  0  0  0  0  0  0  0  0
    1.0980   -0.0530    1.8970 O   0  0  0  0  0  0  0  0  0  0  0  0
    0.4540   -0.4330   -0.3330 C   0  0  0  0  0  0  0  0  0  0  0  0
   -0.8840   -0.6680    0.2130 N   0  0  0  0  0  0  0  0  0  0  0  0
   -1.8430    0.4010    0.3350 C   0  0  0  0  0  0  0  0  0  0  0  0
   -2.6210    0.6240   -0.9230 C   0  0  1  0  0  0  0  0  0  0  0  0
   -3.5960   -0.8020   -1.5190 P   0  0  0  0  0  0  0  0  0  0  0  0
   -3.6910   -0.7580   -3.2530 O   0  0  0  0  0  0  0  0  0  0  0  0
   -5.1450   -0.9470   -0.7990 O   0  0  0  0  0  0  0  0  0  0  0  0
   -3.6610    2.1770   -0.8100 P   0  0  0  0  0  0  0  0  0  0  0  0
   -4.4470    2.4140   -2.3190 O   0  0  0  0  0  0  0  0  0  0  0  0
   -4.7780    2.0570    0.5130 O   0  0  0  0  0  0  0  0  0  0  0  0
   -5.6490    3.0240    0.5100 O   0  0  0  0  0  0  0  0  0  0  0  0
   -1.1890   -1.9920    0.5760 C   0  0  0  0  0  0  0  0  0  0  0  0
   -0.3370   -2.9050    0.3770 O   0  0  0  0  0  0  0  0  0  0  0  0
   -2.4040   -2.4160    1.1680 N   0  0  0  0  0  0  0  0  0  0  0  0
   -2.6290   -3.8050    1.4920 C   0  0  0  0  0  0  0  0  0  0  0  0
   -1.7230   -4.6410    1.2390 O   0  0  0  0  0  0  0  0  0  0  0  0
   -3.8300   -4.1880    2.0710 O   0  0  0  0  0  0  0  0  0  0  0  0
    4.8560    1.5910   -0.6440 C   0  0  0  0  0  0  0  0  0  0  0  0
    5.3960    0.9200   -1.7650 O   0  0  0  0  0  0  0  0  0  0  0  0
    5.0230   -0.3900   -1.4830 C   0  0  0  0  0  0  0  0  0  0  0  0
    5.3570   -0.5610   -0.1600 O   0  0  0  0  0  0  0  0  0  0  0  0
  1  2  2  0
  2  3  1  0
  3  4  1  0
  4  5  1  1
  4 26  1  0
  4 29  1  0
  5  6  1  0
  6  7  1  0
  7  8  2  0
  7  9  1  0
  9 10  1  0
 10 11  1  0
 10 20  1  0
 12 11  1  1
 12 13  1  0
 12 16  1  0
 13 14  1  0
 13 15  1  0
 16 17  1  0
 16 18  1  0
 18 19  1  0
 20 21  2  0
 20 22  1  0
 22 23  1  0
 23 24  2  0
 23 25  1  0
 26 27  1  0
 27 28  1  0
 28 29  1  0
M  END
