
     RDKit          3D

 28 29  0  0  0  0  0  0  0  0999 V2000
   -6.3040   -1.4520    2.5760 O   0  0  0  0  0  0  0  0  0  0  0  0
   -5.1790   -1.5080    1.5270 P   0  0  0  0  0  0  0  0  0  0  0  0
   -3.4960   -1.6730    1.9690 O   0  0  0  0  0  0  0  0  0  0  0  0
   -2.6170   -2.0030    0.5200 P   0  0  0  0  0  0  0  0  0  0  0  0
   -3.6190   -2.9550   -0.5190 O   0  0  0  0  0  0  0  0  0  0  0  0
   -2.0680   -0.5550   -0.2110 O   0  0  0  0  0  0  0  0  0  0  0  0
   -0.7810   -0.7150   -0.7130 C   0  0  1  0  0  0  0  0  0  0  0  0
   -0.7890   -0.2900   -2.4990 P   0  0  0  0  0  0  0  0  0  0  0  0
   -1.3700   -1.6610   -3.3910 O   0  0  0  0  0  0  0  0  0  0  0  0
    0.7360    0.2310   -3.0830 O   0  0  0  0  0  0  0  0  0  0  0  0
    0.1640    0.1930    0.0800 C   0  0  1  0  0  0  0  0  0  0  0  0
   -0.3920    1.5340    0.0520 C   0  0  0  0  0  0  0  0  0  0  0  0
   -1.5940    1.6540    0.5280 O   0  0  0  0  0  0  0  0  0  0  0  0
    0.1890    2.7320   -0.4190 N   0  0  0  0  0  0  0  0  0  0  0  0
   -0.4690    4.0220   -0.3900 C   0  0  0  0  0  0  0  0  0  0  0  0
   -1.6920    4.2540   -0.2780 O   0  0  0  0  0  0  0  0  0  0  0  0
    0.5700    5.0750   -0.5210 C   0  0  0  0  0  0  0  0  0  0  0  0
    1.5310    4.3930   -1.2960 O   0  0  0  0  0  0  0  0  0  0  0  0
    1.4490    3.0180   -0.9990 C   0  0  0  0  0  0  0  0  0  0  0  0
    2.3770    2.1900   -1.2280 O   0  0  0  0  0  0  0  0  0  0  0  0
    0.1950   -0.3550    1.5160 C   0  0  0  0  0  0  0  0  0  0  0  0
    0.4000   -1.7780    1.4470 N   0  0  0  0  0  0  0  0  0  0  0  0
    1.6760   -2.0400    0.8270 C   0  0  2  0  0  0  0  0  0  0  0  0
    2.7840   -1.7540    1.7720 C   0  0  0  0  0  0  0  0  0  0  0  0
    2.5690   -1.3620    2.9370 O   0  0  0  0  0  0  0  0  0  0  0  0
    4.0830   -1.9290    1.3440 O   0  0  0  0  0  0  0  0  0  0  0  0
    1.8450   -1.2600   -0.4270 C   0  0  0  0  0  0  0  0  0  0  0  0
    1.4190    0.0390   -0.4110 O   0  0  0  0  0  0  0  0  0  0  0  0
  1  2  2  0
  2  3  1  0
  3  4  1  0
  4  5  1  0
  4  6  1  0
  7  6  1  1
  7  8  1  0
  7 11  1  0
  8  9  1  0
  8 10  1  0
 11 12  1  1
 11 21  1  0
 11 28  1  0
 12 13  2  0
 12 14  1  0
 14 15  1  0
 14 19  1  0
 15 16  2  0
 15 17  1  0
 17 18  1  0
 18 19  1  0
 19 20  2  0
 21 22  1  0
 22 23  1  0
 23 24  1  1
 23 27  1  0
 24 25  2  0
 24 26  1  0
 27 28  1  0
M  END
