
     RDKit          3D

 28 29  0  0  0  0  0  0  0  0999 V2000
    2.8220   -3.0200    0.1300 N   0  0  0  0  0  0  0  0  0  0  0  0
    2.2300   -1.7920   -0.2820 C   0  0  1  0  0  0  0  0  0  0  0  0
    1.2040   -1.3010    0.7430 C   0  0  0  0  0  0  0  0  0  0  0  0
    1.0900    0.1040    0.4100 N   0  0  0  0  0  0  0  0  0  0  0  0
   -0.1300    0.8520    0.4230 C   0  0  0  0  0  0  0  0  0  0  0  0
   -0.1220    2.0660    0.1170 O   0  0  0  0  0  0  0  0  0  0  0  0
   -1.3180    0.2650    0.7650 O   0  0  0  0  0  0  0  0  0  0  0  0
   -2.5550    0.9600    0.7940 C   0  0  2  0  0  0  0  0  0  0  0  0
   -3.2020    0.9560    2.1400 C   0  0  0  0  0  0  0  0  0  0  0  0
   -3.8690    2.1160    2.4530 O   0  0  0  0  0  0  0  0  0  0  0  0
   -4.5140    2.7150    1.4000 C   0  0  0  0  0  0  0  0  0  0  0  0
   -5.1820    1.7690    0.4550 C   0  0  0  0  0  0  0  0  0  0  0  0
   -4.3870    1.4210   -0.6350 O   0  0  0  0  0  0  0  0  0  0  0  0
   -3.5440    0.3950   -0.2060 C   0  0  1  0  0  0  0  0  0  0  0  0
   -2.9150   -0.2550   -1.2480 O   0  0  0  0  0  0  0  0  0  0  0  0
   -3.3400   -1.9300   -1.3370 P   0  0  0  0  0  0  0  0  0  0  0  0
   -3.4480   -2.3960   -3.0160 O   0  0  0  0  0  0  0  0  0  0  0  0
   -4.8550   -2.2530   -0.5600 O   0  0  0  0  0  0  0  0  0  0  0  0
    2.4190    0.5550    0.0780 C   0  0  0  0  0  0  0  0  0  0  0  0
    3.1830   -0.6450   -0.4060 C   0  0  1  0  0  0  0  0  0  0  0  0
    4.3950   -0.8300    0.1920 O   0  0  0  0  0  0  0  0  0  0  0  0
    4.3570   -1.1120    1.8700 P   0  0  0  0  0  0  0  0  0  0  0  0
    5.9380   -1.7080    2.3500 O   0  0  0  0  0  0  0  0  0  0  0  0
    4.0060    0.2700    2.8190 O   0  0  0  0  0  0  0  0  0  0  0  0
    3.4200   -0.4570   -1.7840 O   0  0  0  0  0  0  0  0  0  0  0  0
    4.5020    0.8350   -2.0910 P   0  0  0  0  0  0  0  0  0  0  0  0
    3.7170    2.3500   -2.2750 O   0  0  0  0  0  0  0  0  0  0  0  0
    5.8450    0.8760   -1.0260 O   0  0  0  0  0  0  0  0  0  0  0  0
  2  1  1  1
  2  3  1  0
  2 20  1  0
  3  4  1  0
  4  5  1  0
  4 19  1  0
  5  6  2  0
  5  7  1  0
  8  7  1  1
  8  9  1  0
  8 14  1  0
  9 10  1  0
 10 11  1  0
 11 12  1  0
 12 13  1  0
 13 14  1  0
 14 15  1  6
 15 16  1  0
 16 17  1  0
 16 18  1  0
 19 20  1  0
 20 21  1  1
 20 25  1  0
 21 22  1  0
 22 23  1  0
 22 24  1  0
 25 26  1  0
 26 27  1  0
 26 28  1  0
M  END
