
     RDKit          3D

 29 29  0  0  0  0  0  0  0  0999 V2000
   -3.3310    4.0190   -0.5770 C   0  0  0  0  0  0  0  0  0  0  0  0
   -2.7580    2.8940    0.0480 O   0  0  0  0  0  0  0  0  0  0  0  0
   -2.5380    2.7860    1.4050 C   0  0  0  0  0  0  0  0  0  0  0  0
   -2.8770    3.7720    2.1400 O   0  0  0  0  0  0  0  0  0  0  0  0
   -1.9280    1.5670    1.9920 C   0  0  0  0  0  0  0  0  0  0  0  0
   -1.6420    0.5920    0.8740 C   0  0  2  0  0  0  0  0  0  0  0  0
   -1.0640   -0.5860    1.3550 O   0  0  0  0  0  0  0  0  0  0  0  0
   -0.4760   -1.1590    0.2150 C   0  0  2  0  0  0  0  0  0  0  0  0
   -1.5480   -1.6520   -0.5890 N   0  0  0  0  0  0  0  0  0  0  0  0
   -2.4680   -2.6650   -0.2090 C   0  0  0  0  0  0  0  0  0  0  0  0
   -3.4850   -3.0720   -1.1490 N   0  0  0  0  0  0  0  0  0  0  0  0
   -2.4000   -3.1930    0.9210 O   0  0  0  0  0  0  0  0  0  0  0  0
    0.5760   -1.9600    0.4320 O   0  0  0  0  0  0  0  0  0  0  0  0
    0.5690   -3.0870    1.1540 C   0  0  0  0  0  0  0  0  0  0  0  0
    2.3280   -3.7840    1.3310 P   0  0  0  0  0  0  0  0  0  0  0  0
    2.5840   -5.0730    2.1110 O   0  0  0  0  0  0  0  0  0  0  0  0
    0.0460    0.1120   -0.5010 C   0  0  1  0  0  0  0  0  0  0  0  0
    1.5020    0.3320   -0.1130 C   0  0  0  0  0  0  0  0  0  0  0  0
    1.9220    1.5350   -0.6230 O   0  0  0  0  0  0  0  0  0  0  0  0
    3.5350    1.9460   -0.2850 P   0  0  0  0  0  0  0  0  0  0  0  0
    4.4720    2.3300   -1.6800 O   0  0  0  0  0  0  0  0  0  0  0  0
    4.6030    0.4360    0.8830 P   0  0  0  0  0  0  0  0  0  0  0  0
    4.0610    0.3600    2.5140 O   0  0  0  0  0  0  0  0  0  0  0  0
    6.2980    0.8080    0.8290 O   0  0  0  0  0  0  0  0  0  0  0  0
   -0.1490    0.0850   -1.8700 O   0  0  0  0  0  0  0  0  0  0  0  0
    0.3780   -0.8580   -2.7370 C   0  0  0  0  0  0  0  0  0  0  0  0
    1.0860   -1.7660   -2.2840 O   0  0  0  0  0  0  0  0  0  0  0  0
    0.0810   -0.7350   -4.0850 O   0  0  0  0  0  0  0  0  0  0  0  0
   -0.6720    1.1220    0.0750 O   0  0  0  0  0  0  0  0  0  0  0  0
  1  2  1  0
  2  3  1  0
  3  4  2  0
  3  5  1  0
  6  5  1  1
  6  7  1  0
  6 29  1  0
  7  8  1  0
  8  9  1  6
  8 13  1  0
  8 17  1  0
  9 10  1  0
 10 11  1  0
 10 12  2  0
 13 14  1  0
 14 15  1  0
 15 16  2  0
 17 18  1  6
 17 25  1  0
 17 29  1  0
 18 19  1  0
 19 20  1  0
 20 21  1  0
 20 22  1  0
 22 23  1  0
 22 24  1  0
 25 26  1  0
 26 27  2  0
 26 28  1  0
M  END
