
     RDKit          3D

 20 19  0  0  0  0  0  0  0  0999 V2000
    1.9920    2.6520    0.6170 C   0  0  0  0  0  0  0  0  0  0  0  0
    2.2850    1.2760    1.1010 C   0  0  0  0  0  0  0  0  0  0  0  0
    2.4700    0.2880   -0.0040 C   0  0  2  0  0  0  0  0  0  0  0  0
    3.5750    0.7970   -0.7510 O   0  0  0  0  0  0  0  0  0  0  0  0
    1.4160    0.1160   -0.9820 C   0  0  0  0  0  0  0  0  0  0  0  0
    0.0860   -0.3100   -0.5840 C   0  0  0  0  0  0  0  0  0  0  0  0
   -0.1180   -0.5180    0.6350 O   0  0  0  0  0  0  0  0  0  0  0  0
   -0.9890   -0.5060   -1.4710 N   0  0  0  0  0  0  0  0  0  0  0  0
   -2.3170   -0.8850   -1.2370 C   0  0  0  0  0  0  0  0  0  0  0  0
   -3.2750   -0.0180   -0.5250 C   0  0  1  0  0  0  0  0  0  0  0  0
   -3.6820    1.1630   -1.4090 C   0  0  0  0  0  0  0  0  0  0  0  0
   -4.4790   -0.8160   -0.4700 O   0  0  0  0  0  0  0  0  0  0  0  0
   -2.9690    0.3740    0.8240 C   0  0  0  0  0  0  0  0  0  0  0  0
   -3.5270   -0.3650    1.9440 N   0  0  0  0  0  0  0  0  0  0  0  0
   -2.2360    1.3330    1.1180 O   0  0  0  0  0  0  0  0  0  0  0  0
    2.9360   -1.0130    0.5310 C   0  0  0  0  0  0  0  0  0  0  0  0
    2.1540   -1.6950    1.2420 O   0  0  0  0  0  0  0  0  0  0  0  0
    4.2240   -1.5590    0.2960 N   0  0  0  0  0  0  0  0  0  0  0  0
    4.7830   -3.0710    0.9100 S   0  0  0  0  0  0  0  0  0  0  0  0
    4.0980   -4.2610    0.2970 O   0  0  0  0  0  0  0  0  0  0  0  0
  1  2  1  0
  2  3  1  0
  3  4  1  6
  3  5  1  0
  3 16  1  0
  5  6  1  0
  6  7  2  0
  6  8  1  0
  8  9  1  0
  9 10  1  0
 10 11  1  6
 10 12  1  0
 10 13  1  0
 13 14  1  0
 13 15  2  0
 16 17  2  0
 16 18  1  0
 18 19  1  0
 19 20  2  0
M  CHG  1  14   1
M  END
