
     RDKit          3D

 19 18  0  0  0  0  0  0  0  0999 V2000
    5.1560   -2.3850   -0.1730 C   0  0  0  0  0  0  0  0  0  0  0  0
    5.3130   -0.9800   -0.2060 O   0  0  0  0  0  0  0  0  0  0  0  0
    4.2930   -0.1980    0.2950 C   0  0  0  0  0  0  0  0  0  0  0  0
    3.2630   -0.7240    0.7610 O   0  0  0  0  0  0  0  0  0  0  0  0
    4.4250    1.2720    0.2750 C   0  0  0  0  0  0  0  0  0  0  0  0
    3.2070    1.8040   -0.4430 C   0  0  0  0  0  0  0  0  0  0  0  0
    2.0110    1.4300    0.2020 O   0  0  0  0  0  0  0  0  0  0  0  0
    0.7750    1.8060   -0.3150 C   0  0  0  0  0  0  0  0  0  0  0  0
    0.7390    2.4800   -1.3540 O   0  0  0  0  0  0  0  0  0  0  0  0
   -0.5220    1.4210    0.3410 C   0  0  1  0  0  0  0  0  0  0  0  0
   -1.5880    1.9430   -0.4550 N   0  0  0  0  0  0  0  0  0  0  0  0
   -0.5250   -0.0810    0.4890 C   0  0  0  0  0  0  0  0  0  0  0  0
   -1.9560   -0.7800    1.2460 S   0  0  0  0  0  0  0  0  0  0  0  0
   -3.4880   -0.7410    0.3650 C   0  0  2  0  0  0  0  0  0  0  0  0
   -3.4700   -1.5790   -0.9040 C   0  0  0  0  0  0  0  0  0  0  0  0
   -3.1930   -2.9410   -0.5170 N   0  0  0  0  0  0  0  0  0  0  0  0
   -4.0800    0.5530    0.0710 C   0  0  0  0  0  0  0  0  0  0  0  0
   -4.3360    1.5200    1.0910 N   0  0  0  0  0  0  0  0  0  0  0  0
   -4.3900    0.8590   -1.1080 O   0  0  0  0  0  0  0  0  0  0  0  0
  1  2  1  0
  2  3  1  0
  3  4  2  0
  3  5  1  0
  5  6  1  0
  6  7  1  0
  7  8  1  0
  8  9  2  0
  8 10  1  0
 10 11  1  6
 10 12  1  0
 12 13  1  0
 13 14  1  0
 14 15  1  6
 14 17  1  0
 15 16  1  0
 17 18  1  0
 17 19  2  0
M  CHG  1  16   1
M  END
