
     RDKit          3D

 26 28  0  0  0  0  0  0  0  0999 V2000
    4.5170   -1.3970   -0.9290 C   0  0  0  0  0  0  0  0  0  0  0  0
    3.6640   -0.5140   -0.0900 C   0  0  0  0  0  0  0  0  0  0  0  0
    2.7620   -0.9340    0.8460 N   0  0  0  0  0  0  0  0  0  0  0  0
    2.1480    0.1210    1.3920 C   0  0  0  0  0  0  0  0  0  0  0  0
    1.1070   -0.0070    2.4480 C   0  0  0  0  0  0  0  0  0  0  0  0
   -0.1920   -0.0110    1.9500 O   0  0  0  0  0  0  0  0  0  0  0  0
   -0.7300   -0.9160    1.0550 C   0  0  0  0  0  0  0  0  0  0  0  0
    0.0190   -1.8340    0.6440 O   0  0  0  0  0  0  0  0  0  0  0  0
   -2.1110   -0.8380    0.5860 C   0  0  0  0  0  0  0  0  0  0  0  0
   -2.6690   -1.7240   -0.3040 C   0  0  0  0  0  0  0  0  0  0  0  0
   -3.9240   -1.3570   -0.5070 N   0  0  0  0  0  0  0  0  0  0  0  0
   -4.1500   -0.2670    0.2380 C   0  0  0  0  0  0  0  0  0  0  0  0
   -5.4420    0.4460    0.2830 C   0  0  2  0  0  0  0  0  0  0  0  0
   -6.6470   -0.4250    0.4320 C   0  0  0  0  0  0  0  0  0  0  0  0
   -7.2260    0.0600   -0.8960 C   0  0  0  0  0  0  0  0  0  0  0  0
   -5.9340    0.8030   -1.1230 C   0  0  0  0  0  0  0  0  0  0  0  0
   -3.0520    0.0670    0.9160 N   0  0  0  0  0  0  0  0  0  0  0  0
    2.6370    1.1720    0.8300 O   0  0  0  0  0  0  0  0  0  0  0  0
    3.5650    0.8600   -0.0820 C   0  0  0  0  0  0  0  0  0  0  0  0
    4.3180    1.7950   -0.8960 C   0  0  0  0  0  0  0  0  0  0  0  0
    5.6260    1.8640   -1.0120 C   0  0  0  0  0  0  0  0  0  0  0  0
    6.1920    2.8180   -1.8430 F   0  0  0  0  0  0  0  0  0  0  0  0
    6.5650    1.0440   -0.2770 C   0  0  0  0  0  0  0  0  0  0  0  0
    7.8610    1.1880   -0.4800 C   0  0  0  0  0  0  0  0  0  0  0  0
    9.0270    0.1990    0.4050 Cl  0  0  0  0  0  0  0  0  0  0  0  0
    8.4290    2.3520   -1.6220 Cl  0  0  0  0  0  0  0  0  0  0  0  0
  1  2  1  0
  2  3  1  0
  2 19  2  0
  3  4  2  0
  4  5  1  0
  4 18  1  0
  5  6  1  0
  6  7  1  0
  7  8  2  0
  7  9  1  0
  9 10  2  0
  9 17  1  0
 10 11  1  0
 11 12  1  0
 13 12  1  6
 12 17  2  0
 13 14  1  0
 13 16  1  0
 14 15  1  0
 15 16  1  0
 18 19  1  0
 19 20  1  0
 20 21  2  3
 21 22  1  0
 21 23  1  0
 23 24  2  3
 24 25  1  0
 24 26  1  0
M  END
