
     RDKit          3D

 20 19  0  0  0  0  0  0  0  0999 V2000
   -3.8090   -2.8560    0.7490 C   0  0  0  0  0  0  0  0  0  0  0  0
   -3.8560   -1.7190    1.3840 O   0  0  0  0  0  0  0  0  0  0  0  0
   -3.0090   -0.9030    1.9250 C   0  0  0  0  0  0  0  0  0  0  0  0
   -1.9560   -0.1960    1.1370 C   0  0  1  0  0  0  0  0  0  0  0  0
   -1.0070   -1.1600    0.4970 C   0  0  0  0  0  0  0  0  0  0  0  0
    0.0690   -0.4950   -0.2370 N   0  0  0  0  0  0  0  0  0  0  0  0
    1.1790   -1.4360   -0.4620 C   0  0  0  0  0  0  0  0  0  0  0  0
    2.4020   -0.4740   -1.4310 S   0  0  0  0  0  0  0  0  0  0  0  0
    3.0570    0.8630   -0.3960 C   0  0  2  0  0  0  0  0  0  0  0  0
    4.0620    1.6480   -1.2300 C   0  0  0  0  0  0  0  0  0  0  0  0
    4.6250    2.6940   -0.5350 O   0  0  0  0  0  0  0  0  0  0  0  0
    3.8100    0.2240    0.7150 C   0  0  0  0  0  0  0  0  0  0  0  0
    4.9040   -0.6150    0.3550 N   0  0  0  0  0  0  0  0  0  0  0  0
    3.4720    0.4350    1.9080 O   0  0  0  0  0  0  0  0  0  0  0  0
   -2.6610    0.6460    0.1220 C   0  0  0  0  0  0  0  0  0  0  0  0
   -3.9030    0.4750   -0.1050 O   0  0  0  0  0  0  0  0  0  0  0  0
   -2.0450    1.6620   -0.6450 N   0  0  0  0  0  0  0  0  0  0  0  0
   -2.7640    2.4300   -1.6180 C   0  0  0  0  0  0  0  0  0  0  0  0
   -3.9700    2.1870   -1.7850 O   0  0  0  0  0  0  0  0  0  0  0  0
   -2.1340    3.4210   -2.3580 O   0  0  0  0  0  0  0  0  0  0  0  0
  1  2  1  0
  2  3  1  0
  4  3  1  6
  4  5  1  0
  4 15  1  0
  5  6  1  0
  6  7  1  0
  7  8  1  0
  8  9  1  0
  9 10  1  6
  9 12  1  0
 10 11  1  0
 12 13  1  0
 12 14  2  0
 15 16  2  0
 15 17  1  0
 17 18  1  0
 18 19  2  0
 18 20  1  0
M  CHG  1   6   1
M  END
