
     RDKit          3D

 20 19  0  0  0  0  0  0  0  0999 V2000
   -2.1280    1.5700    2.5610 N   0  0  0  0  0  0  0  0  0  0  0  0
   -1.4810    1.8060    1.3200 C   0  0  0  0  0  0  0  0  0  0  0  0
   -0.6040    2.7230    1.2370 O   0  0  0  0  0  0  0  0  0  0  0  0
   -1.7600    1.0330    0.0740 C   0  0  1  0  0  0  0  0  0  0  0  0
   -3.0660    1.3460   -0.5080 C   0  0  0  0  0  0  0  0  0  0  0  0
   -4.2320    1.0070    0.3410 C   0  0  0  0  0  0  0  0  0  0  0  0
   -4.4050   -0.4390    0.5100 C   0  0  0  0  0  0  0  0  0  0  0  0
   -3.6000   -1.4070    1.1080 N   0  0  0  0  0  0  0  0  0  0  0  0
   -5.6800   -0.9530   -0.0720 S   0  0  0  0  0  0  0  0  0  0  0  0
   -0.6560    1.2700   -0.8510 N   0  0  0  0  0  0  0  0  0  0  0  0
    0.3880    0.3210   -1.0330 C   0  0  0  0  0  0  0  0  0  0  0  0
    0.2710   -0.7300   -0.3270 O   0  0  0  0  0  0  0  0  0  0  0  0
    1.4930    0.5790   -1.9780 C   0  0  0  0  0  0  0  0  0  0  0  0
    2.4250   -0.4900   -2.0050 O   0  0  0  0  0  0  0  0  0  0  0  0
    3.1010   -0.8980   -0.8560 C   0  0  0  0  0  0  0  0  0  0  0  0
    2.8220   -0.2610    0.1860 O   0  0  0  0  0  0  0  0  0  0  0  0
    3.9930   -1.9190   -0.8980 O   0  0  0  0  0  0  0  0  0  0  0  0
    4.7110   -2.3670    0.2220 C   0  0  0  0  0  0  0  0  0  0  0  0
    5.6690   -1.3580    0.7930 C   0  0  0  0  0  0  0  0  0  0  0  0
    5.1110   -0.1890    1.2290 O   0  0  0  0  0  0  0  0  0  0  0  0
  1  2  1  0
  2  3  2  0
  2  4  1  0
  4  5  1  6
  4 10  1  0
  5  6  1  0
  6  7  1  0
  7  8  1  0
  7  9  2  0
 10 11  1  0
 11 12  2  0
 11 13  1  0
 13 14  1  0
 14 15  1  0
 15 16  2  0
 15 17  1  0
 17 18  1  0
 18 19  1  0
 19 20  1  0
M  CHG  1   8   1
M  END
