
     RDKit          3D

 20 19  0  0  0  0  0  0  0  0999 V2000
   -4.7000   -0.9890    0.7130 N   0  0  0  0  0  0  0  0  0  0  0  0
   -4.5120   -0.2850   -0.5400 C   0  0  1  0  0  0  0  0  0  0  0  0
   -3.0900   -0.3370   -1.0170 C   0  0  0  0  0  0  0  0  0  0  0  0
   -2.1460    0.2780   -0.0380 C   0  0  0  0  0  0  0  0  0  0  0  0
   -0.7410    0.2150   -0.5250 C   0  0  0  0  0  0  0  0  0  0  0  0
   -0.5280   -0.3440   -1.6380 O   0  0  0  0  0  0  0  0  0  0  0  0
    0.3580    0.7310    0.1610 N   0  0  0  0  0  0  0  0  0  0  0  0
    1.7030    0.6160   -0.4070 C   0  0  1  0  0  0  0  0  0  0  0  0
    2.2040    2.0090   -0.7550 C   0  0  0  0  0  0  0  0  0  0  0  0
    3.8440    1.8870   -1.4700 S   0  0  0  0  0  0  0  0  0  0  0  0
    2.6160   -0.0320    0.5260 C   0  0  0  0  0  0  0  0  0  0  0  0
    2.3270   -0.2410    1.7510 O   0  0  0  0  0  0  0  0  0  0  0  0
    3.8990   -0.4820    0.1270 N   0  0  0  0  0  0  0  0  0  0  0  0
    4.8130   -1.1170    1.0680 C   0  0  0  0  0  0  0  0  0  0  0  0
    5.1470   -0.1780    2.1890 C   0  0  0  0  0  0  0  0  0  0  0  0
    4.6210    0.9590    2.1500 O   0  0  0  0  0  0  0  0  0  0  0  0
    5.9780   -0.4890    3.2280 O   0  0  0  0  0  0  0  0  0  0  0  0
   -5.3460   -0.9080   -1.5970 C   0  0  0  0  0  0  0  0  0  0  0  0
   -6.0590   -1.8820   -1.3240 O   0  0  0  0  0  0  0  0  0  0  0  0
   -5.3340   -0.4050   -2.9060 O   0  0  0  0  0  0  0  0  0  0  0  0
  2  1  1  1
  2  3  1  0
  2 18  1  0
  3  4  1  0
  4  5  1  0
  5  6  2  0
  5  7  1  0
  7  8  1  0
  8  9  1  1
  8 11  1  0
  9 10  1  0
 11 12  2  0
 11 13  1  0
 13 14  1  0
 14 15  1  0
 15 16  2  0
 15 17  1  0
 18 19  2  0
 18 20  1  0
M  CHG  1   1   1
M  END
