
     RDKit          3D

 19 18  0  0  0  0  0  0  0  0999 V2000
   -0.2010    2.1080   -0.0310 C   0  0  0  0  0  0  0  0  0  0  0  0
   -0.1530    1.0150   -0.9580 N   0  0  0  0  0  0  0  0  0  0  0  0
   -0.0080   -0.2810   -0.2840 C   0  0  1  0  0  0  0  0  0  0  0  0
    0.1940   -1.3180   -1.3330 C   0  0  0  0  0  0  0  0  0  0  0  0
    0.3770   -2.7080   -0.8590 C   0  0  0  0  0  0  0  0  0  0  0  0
   -0.6600   -3.2680   -0.1560 O   0  0  0  0  0  0  0  0  0  0  0  0
    1.1900   -0.2050    0.6290 C   0  0  0  0  0  0  0  0  0  0  0  0
    2.4200    0.0950   -0.1600 C   0  0  0  0  0  0  0  0  0  0  0  0
    3.5340    0.1600    0.7440 O   0  0  0  0  0  0  0  0  0  0  0  0
    4.8180    0.4260    0.2910 C   0  0  0  0  0  0  0  0  0  0  0  0
    5.9480    0.5010    1.1360 N   0  0  0  0  0  0  0  0  0  0  0  0
    4.9620    0.6070   -0.9470 O   0  0  0  0  0  0  0  0  0  0  0  0
   -1.2520   -0.5110    0.4650 C   0  0  0  0  0  0  0  0  0  0  0  0
   -1.4480   -1.3960    1.3230 O   0  0  0  0  0  0  0  0  0  0  0  0
   -2.3530    0.3300    0.2200 O   0  0  0  0  0  0  0  0  0  0  0  0
   -3.5740    0.1710    0.8970 C   0  0  0  0  0  0  0  0  0  0  0  0
   -4.5240    1.2010    0.4190 C   0  0  0  0  0  0  0  0  0  0  0  0
   -5.8310    1.2390    0.9630 N   0  0  0  0  0  0  0  0  0  0  0  0
   -4.1360    2.0160   -0.4610 O   0  0  0  0  0  0  0  0  0  0  0  0
  1  2  1  0
  2  3  1  0
  3  4  1  6
  3  7  1  0
  3 13  1  0
  4  5  1  0
  5  6  1  0
  7  8  1  0
  8  9  1  0
  9 10  1  0
 10 11  1  0
 10 12  2  0
 13 14  2  0
 13 15  1  0
 15 16  1  0
 16 17  1  0
 17 18  1  0
 17 19  2  0
M  CHG  1   2   1
M  END
