
     RDKit          3D

 20 19  0  0  0  0  0  0  0  0999 V2000
   -6.6540    0.4640    0.3410 N   0  0  0  0  0  0  0  0  0  0  0  0
   -5.3710    0.0180    0.7120 C   0  0  0  0  0  0  0  0  0  0  0  0
   -5.2850   -0.8290    1.6490 O   0  0  0  0  0  0  0  0  0  0  0  0
   -4.1720    0.5330    0.0210 C   0  0  0  0  0  0  0  0  0  0  0  0
   -3.0600   -0.0730    0.5920 O   0  0  0  0  0  0  0  0  0  0  0  0
   -1.8630    0.3330    0.0150 C   0  0  1  0  0  0  0  0  0  0  0  0
   -0.9420    0.9280    1.0580 C   0  0  0  0  0  0  0  0  0  0  0  0
    0.2780    1.3450    0.5390 O   0  0  0  0  0  0  0  0  0  0  0  0
    1.2090    1.9320    1.3890 C   0  0  0  0  0  0  0  0  0  0  0  0
    0.8810    2.0520    2.6150 O   0  0  0  0  0  0  0  0  0  0  0  0
    2.7970    2.5130    0.9020 S   0  0  0  0  0  0  0  0  0  0  0  0
    3.0970    2.0750   -0.8220 C   0  0  0  0  0  0  0  0  0  0  0  0
    3.2980    0.6230   -1.0000 C   0  0  0  0  0  0  0  0  0  0  0  0
    3.4320    0.1490   -2.1280 O   0  0  0  0  0  0  0  0  0  0  0  0
    3.3450   -0.2810    0.1590 C   0  0  0  0  0  0  0  0  0  0  0  0
    3.6010   -1.7210   -0.2780 C   0  0  0  0  0  0  0  0  0  0  0  0
    4.8530   -1.8600   -0.9780 N   0  0  0  0  0  0  0  0  0  0  0  0
   -1.1970   -0.8630   -0.5410 C   0  0  0  0  0  0  0  0  0  0  0  0
   -1.8220   -2.1310   -0.4240 N   0  0  0  0  0  0  0  0  0  0  0  0
   -0.0910   -0.7730   -1.1120 O   0  0  0  0  0  0  0  0  0  0  0  0
  1  2  1  0
  2  3  2  0
  2  4  1  0
  4  5  1  0
  5  6  1  0
  6  7  1  1
  6 18  1  0
  7  8  1  0
  8  9  1  0
  9 10  2  0
  9 11  1  0
 11 12  1  0
 12 13  1  0
 13 14  2  0
 13 15  1  0
 15 16  1  0
 16 17  1  0
 18 19  1  0
 18 20  2  0
M  CHG  1  17   1
M  END
