
     RDKit          3D

 20 19  0  0  0  0  0  0  0  0999 V2000
    5.1370    0.6570   -1.4680 C   0  0  0  0  0  0  0  0  0  0  0  0
    4.5070   -0.2720   -0.4540 C   0  0  2  0  0  0  0  0  0  0  0  0
    3.1520    0.0960   -0.1960 O   0  0  0  0  0  0  0  0  0  0  0  0
    2.1210   -0.7930   -0.4680 C   0  0  0  0  0  0  0  0  0  0  0  0
    2.4500   -1.9040   -0.9390 O   0  0  0  0  0  0  0  0  0  0  0  0
    0.6940   -0.4660   -0.2210 C   0  0  0  0  0  0  0  0  0  0  0  0
   -0.0710   -1.5380   -0.5870 O   0  0  0  0  0  0  0  0  0  0  0  0
   -1.4330   -1.4040   -0.4150 C   0  0  0  0  0  0  0  0  0  0  0  0
   -2.0500   -0.2710   -1.1910 C   0  0  0  0  0  0  0  0  0  0  0  0
   -3.3990   -0.1450   -1.0170 O   0  0  0  0  0  0  0  0  0  0  0  0
   -3.8380    0.0870    0.2520 C   0  0  1  0  0  0  0  0  0  0  0  0
   -4.5740    1.3780    0.2750 C   0  0  0  0  0  0  0  0  0  0  0  0
   -5.1300    1.8360    1.5000 N   0  0  0  0  0  0  0  0  0  0  0  0
   -4.7360    2.0990   -0.7410 O   0  0  0  0  0  0  0  0  0  0  0  0
   -4.8560   -0.9690    0.5970 C   0  0  0  0  0  0  0  0  0  0  0  0
   -5.2070   -1.9750   -0.3330 N   0  0  0  0  0  0  0  0  0  0  0  0
   -5.4120   -0.9720    1.7210 O   0  0  0  0  0  0  0  0  0  0  0  0
    5.2090   -0.2280    0.8500 C   0  0  0  0  0  0  0  0  0  0  0  0
    5.3400    0.9580    1.6290 N   0  0  0  0  0  0  0  0  0  0  0  0
    5.7880   -1.4310    1.3620 S   0  0  0  0  0  0  0  0  0  0  0  0
  2  1  1  6
  2  3  1  0
  2 18  1  0
  3  4  1  0
  4  5  2  0
  4  6  1  0
  6  7  1  0
  7  8  1  0
  8  9  1  0
  9 10  1  0
 11 10  1  6
 11 12  1  0
 11 15  1  0
 12 13  1  0
 12 14  2  0
 15 16  1  0
 15 17  2  0
 18 19  1  0
 18 20  2  0
M  CHG  1  19   1
M  END
