
     RDKit          3D

 23 24  0  0  0  0  0  0  0  0999 V2000
    4.5660    0.7170    2.6590 C   0  0  0  0  0  0  0  0  0  0  0  0
    3.8570    0.7480    1.4000 N   0  0  0  0  0  0  0  0  0  0  0  0
    2.7320   -0.0930    1.2210 C   0  0  0  0  0  0  0  0  0  0  0  0
    2.2960   -0.8770    2.0910 O   0  0  0  0  0  0  0  0  0  0  0  0
    2.0040   -0.0510   -0.0940 C   0  0  2  0  0  0  0  0  0  0  0  0
    3.0820   -0.4890   -1.1090 C   0  0  0  0  0  0  0  0  0  0  0  0
    1.7620    1.3580   -0.3890 C   0  0  0  0  0  0  0  0  0  0  0  0
    0.7620    1.6750   -1.1800 C   0  0  0  0  0  0  0  0  0  0  0  0
    0.5100    3.0230   -1.4810 O   0  0  0  0  0  0  0  0  0  0  0  0
   -0.0590    0.5840   -1.7210 C   0  0  0  0  0  0  0  0  0  0  0  0
   -0.4520   -0.4310   -0.6630 C   0  0  2  0  0  0  0  0  0  0  0  0
   -1.0290   -1.5680   -1.5060 C   0  0  0  0  0  0  0  0  0  0  0  0
   -1.4620   -2.6460   -0.7990 O   0  0  0  0  0  0  0  0  0  0  0  0
   -1.3290    0.0120    0.3790 C   0  0  2  0  0  0  0  0  0  0  0  0
   -0.6800    1.1170    1.0310 O   0  0  0  0  0  0  0  0  0  0  0  0
   -1.4930   -0.9780    1.4670 C   0  0  0  0  0  0  0  0  0  0  0  0
   -0.7560   -1.0920    2.4780 O   0  0  0  0  0  0  0  0  0  0  0  0
   -2.5560   -1.8680    1.3800 O   0  0  0  0  0  0  0  0  0  0  0  0
   -3.8680   -1.4640    1.0000 C   0  0  0  0  0  0  0  0  0  0  0  0
   -3.7670   -0.5120   -0.1640 C   0  0  0  0  0  0  0  0  0  0  0  0
   -2.7040    0.5040    0.1150 C   0  0  2  0  0  0  0  0  0  0  0  0
   -2.8560    1.6910   -0.7750 C   0  0  0  0  0  0  0  0  0  0  0  0
    0.8540   -0.9750   -0.1410 C   0  0  0  0  0  0  0  0  0  0  0  0
  1  2  1  0
  2  3  1  0
  3  4  2  0
  3  5  1  0
  5  6  1  6
  5  7  1  0
  5 23  1  0
  7  8  2  0
  8  9  1  0
  8 10  1  0
 10 11  1  0
 11 12  1  6
 11 14  1  0
 11 23  1  0
 12 13  1  0
 14 15  1  1
 14 16  1  0
 14 21  1  0
 16 17  2  0
 16 18  1  0
 18 19  1  0
 19 20  1  0
 20 21  1  0
 21 22  1  6
M  END
