
     RDKit          3D

 26 29  0  0  0  0  0  0  0  0999 V2000
   -3.3740    1.2010   -2.8790 C   0  0  0  0  0  0  0  0  0  0  0  0
   -2.7290    0.6810   -1.6560 C   0  0  0  0  0  0  0  0  0  0  0  0
   -1.3570    0.6440   -1.6060 C   0  0  0  0  0  0  0  0  0  0  0  0
   -0.6340    0.1720   -0.4990 C   0  0  0  0  0  0  0  0  0  0  0  0
    0.7840    0.2100   -0.5840 N   0  0  0  0  0  0  0  0  0  0  0  0
    1.7080   -0.4560    0.2270 C   0  0  0  0  0  0  0  0  0  0  0  0
    1.1910   -1.2010    1.1380 O   0  0  0  0  0  0  0  0  0  0  0  0
    3.1700   -0.3960    0.1430 C   0  0  0  0  0  0  0  0  0  0  0  0
    3.8550   -1.5040    0.6640 C   0  0  0  0  0  0  0  0  0  0  0  0
    3.1570   -2.6880    1.2170 C   0  0  0  0  0  0  0  0  0  0  0  0
    5.2300   -1.4660    0.6380 C   0  0  0  0  0  0  0  0  0  0  0  0
    5.9500   -0.4170    0.1360 C   0  0  0  0  0  0  0  0  0  0  0  0
    5.2740    0.6540   -0.3670 C   0  0  0  0  0  0  0  0  0  0  0  0
    3.8880    0.6630   -0.3620 C   0  0  0  0  0  0  0  0  0  0  0  0
    3.0520    2.1070   -0.9790 Cl  0  0  0  0  0  0  0  0  0  0  0  0
    6.3040    1.6190   -0.8330 C   0  0  0  0  0  0  0  0  0  0  0  0
    7.4750    1.2270    0.0360 C   0  0  0  0  0  0  0  0  0  0  0  0
    7.3420   -0.2030    0.0260 O   0  0  0  0  0  0  0  0  0  0  0  0
   -1.3640   -0.2670    0.5710 C   0  0  0  0  0  0  0  0  0  0  0  0
   -2.7650   -0.2370    0.5380 C   0  0  0  0  0  0  0  0  0  0  0  0
   -3.4410    0.2320   -0.5620 C   0  0  0  0  0  0  0  0  0  0  0  0
   -4.9290    0.2730   -0.6200 C   0  0  0  0  0  0  0  0  0  0  0  0
   -5.5210   -0.4430    0.4940 N   0  0  0  0  0  0  0  0  0  0  0  0
   -6.9310   -0.1020    0.5340 C   0  0  0  0  0  0  0  0  0  0  0  0
   -4.8570   -0.0290    1.7160 C   0  0  0  0  0  0  0  0  0  0  0  0
   -3.4960   -0.7260    1.7270 C   0  0  0  0  0  0  0  0  0  0  0  0
  1  2  1  0
  2  3  2  0
  2 21  1  0
  3  4  1  0
  4  5  1  0
  4 19  2  0
  5  6  1  0
  6  7  2  0
  6  8  1  0
  8  9  2  0
  8 14  1  0
  9 10  1  0
  9 11  1  0
 11 12  2  0
 12 13  1  0
 12 18  1  0
 13 14  2  0
 13 16  1  0
 14 15  1  0
 16 17  1  0
 17 18  1  0
 19 20  1  0
 20 21  2  0
 20 26  1  0
 21 22  1  0
 22 23  1  0
 23 24  1  0
 23 25  1  0
 25 26  1  0
M  END
