
     RDKit          3D

 26 28  0  0  0  0  0  0  0  0999 V2000
    3.9370    1.7120    1.7130 C   0  0  0  0  0  0  0  0  0  0  0  0
    2.4580    1.2960    1.6590 C   0  0  0  0  0  0  0  0  0  0  0  0
    1.8380    0.2770    1.9040 C   0  0  0  0  0  0  0  0  0  0  0  0
    0.3360    0.2670    1.7250 C   0  0  0  0  0  0  0  0  0  0  0  0
   -0.2060    1.4180    1.5190 O   0  0  0  0  0  0  0  0  0  0  0  0
   -0.4000   -0.9180    1.7500 N   0  0  0  0  0  0  0  0  0  0  0  0
   -1.8280   -0.8890    1.5310 C   0  0  0  0  0  0  0  0  0  0  0  0
   -2.5740    0.1520    2.0280 C   0  0  0  0  0  0  0  0  0  0  0  0
   -3.9610    0.1190    1.7920 C   0  0  0  0  0  0  0  0  0  0  0  0
   -4.4950   -0.9480    1.0800 C   0  0  0  0  0  0  0  0  0  0  0  0
   -3.7190   -1.9700    0.6010 C   0  0  0  0  0  0  0  0  0  0  0  0
   -4.3040   -3.0080   -0.1170 C   0  0  0  0  0  0  0  0  0  0  0  0
   -3.5100   -4.0060   -0.5940 C   0  0  0  0  0  0  0  0  0  0  0  0
   -2.1290   -4.0220   -0.3850 C   0  0  0  0  0  0  0  0  0  0  0  0
   -1.5690   -3.0000    0.3210 C   0  0  0  0  0  0  0  0  0  0  0  0
   -2.3360   -1.9530    0.8310 C   0  0  0  0  0  0  0  0  0  0  0  0
    1.6600    2.4030    1.0670 N   0  0  0  0  0  0  0  0  0  0  0  0
    1.5290    2.5760   -0.1710 C   0  0  0  0  0  0  0  0  0  0  0  0
    1.9960    1.9080   -1.3410 C   0  0  0  0  0  0  0  0  0  0  0  0
    2.7470    0.8120   -1.3010 C   0  0  0  0  0  0  0  0  0  0  0  0
    3.2410    0.1090   -2.4670 C   0  0  0  0  0  0  0  0  0  0  0  0
    2.9240    0.5870   -3.6810 C   0  0  0  0  0  0  0  0  0  0  0  0
    2.1710    1.6890   -3.8000 O   0  0  0  0  0  0  0  0  0  0  0  0
    1.6640    2.4120   -2.6770 C   0  0  0  0  0  0  0  0  0  0  0  0
    0.9530    3.4540   -2.9410 C   0  0  0  0  0  0  0  0  0  0  0  0
    0.1750    4.5650   -1.8980 Cl  0  0  0  0  0  0  0  0  0  0  0  0
  1  2  1  0
  2  3  2  3
  2 17  1  0
  3  4  1  0
  4  5  2  0
  4  6  1  0
  6  7  1  0
  7  8  2  0
  7 16  1  0
  8  9  1  0
  9 10  2  0
 10 11  1  0
 11 12  2  0
 11 16  1  0
 12 13  1  0
 13 14  2  0
 14 15  1  0
 15 16  2  0
 17 18  2  3
 18 19  1  0
 19 20  2  0
 19 24  1  0
 20 21  1  0
 21 22  2  0
 22 23  1  0
 23 24  1  0
 24 25  2  3
 25 26  1  0
M  END
