
     RDKit          3D

 26 29  0  0  0  0  0  0  0  0999 V2000
   -6.9240    0.3830    1.3910 C   0  0  0  0  0  0  0  0  0  0  0  0
   -6.0910    0.7110    0.2670 N   0  0  0  0  0  0  0  0  0  0  0  0
   -6.3180    1.7990   -0.6290 C   0  0  0  0  0  0  0  0  0  0  0  0
   -4.9380   -0.1240    0.0300 C   0  0  0  0  0  0  0  0  0  0  0  0
   -3.6680    0.3940    0.0440 C   0  0  0  0  0  0  0  0  0  0  0  0
   -2.5730   -0.4020   -0.1820 C   0  0  0  0  0  0  0  0  0  0  0  0
   -1.2930   -0.1680   -0.2230 O   0  0  0  0  0  0  0  0  0  0  0  0
   -0.6290   -1.2670   -0.4780 C   0  0  0  0  0  0  0  0  0  0  0  0
    0.8450   -1.3780   -0.5980 C   0  0  0  0  0  0  0  0  0  0  0  0
    1.3360   -2.4970   -0.8450 O   0  0  0  0  0  0  0  0  0  0  0  0
    1.6770   -0.2610   -0.4400 N   0  0  0  0  0  0  0  0  0  0  0  0
    3.0920   -0.2260   -0.5280 C   0  0  0  0  0  0  0  0  0  0  0  0
    3.8940   -1.2950   -0.7860 C   0  0  0  0  0  0  0  0  0  0  0  0
    5.2860   -1.2140   -0.8640 C   0  0  0  0  0  0  0  0  0  0  0  0
    5.9230   -0.0110   -0.6770 C   0  0  0  0  0  0  0  0  0  0  0  0
    7.3060    0.0950   -0.7500 C   0  0  0  0  0  0  0  0  0  0  0  0
    7.9340    1.3050   -0.5610 C   0  0  0  0  0  0  0  0  0  0  0  0
    7.1220    2.3870   -0.3000 C   0  0  0  0  0  0  0  0  0  0  0  0
    5.7630    2.3090   -0.2240 C   0  0  0  0  0  0  0  0  0  0  0  0
    5.1240    1.0800   -0.4150 C   0  0  0  0  0  0  0  0  0  0  0  0
    3.7510    0.9950   -0.3390 C   0  0  0  0  0  0  0  0  0  0  0  0
   -1.5390   -2.2910   -0.6120 C   0  0  0  0  0  0  0  0  0  0  0  0
   -2.7990   -1.7620   -0.4270 C   0  0  0  0  0  0  0  0  0  0  0  0
   -4.0720   -2.2780   -0.4400 C   0  0  0  0  0  0  0  0  0  0  0  0
   -5.1470   -1.4630   -0.2120 C   0  0  0  0  0  0  0  0  0  0  0  0
   -6.7960   -2.1070   -0.2250 Cl  0  0  0  0  0  0  0  0  0  0  0  0
  1  2  1  0
  2  3  1  0
  2  4  1  0
  4  5  2  0
  4 25  1  0
  5  6  1  0
  6  7  1  0
  6 23  2  0
  7  8  1  0
  8  9  1  0
  8 22  2  0
  9 10  2  0
  9 11  1  0
 11 12  1  0
 12 13  2  0
 12 21  1  0
 13 14  1  0
 14 15  2  0
 15 16  1  0
 15 20  1  0
 16 17  2  0
 17 18  1  0
 18 19  2  0
 19 20  1  0
 20 21  2  0
 22 23  1  0
 23 24  1  0
 24 25  2  0
 25 26  1  0
M  END
