
     RDKit          3D

 23 24  0  0  0  0  0  0  0  0999 V2000
    3.5100   -2.2770    1.4780 C   0  0  0  0  0  0  0  0  0  0  0  0
    2.8680   -1.2660    0.5630 C   0  0  0  0  0  0  0  0  0  0  0  0
    1.5160   -1.0840    0.5250 C   0  0  0  0  0  0  0  0  0  0  0  0
    0.8410   -0.2030   -0.2610 C   0  0  0  0  0  0  0  0  0  0  0  0
   -0.5460    0.0270   -0.3420 N   0  0  0  0  0  0  0  0  0  0  0  0
   -1.5760   -0.6150    0.3850 C   0  0  0  0  0  0  0  0  0  0  0  0
   -1.2480   -1.4980    1.2070 O   0  0  0  0  0  0  0  0  0  0  0  0
   -3.0180   -0.2800    0.2070 C   0  0  2  0  0  0  0  0  0  0  0  0
   -3.7720   -1.0740    1.0540 O   0  0  0  0  0  0  0  0  0  0  0  0
   -3.4640   -0.5700   -1.2280 C   0  0  0  0  0  0  0  0  0  0  0  0
   -4.9620   -0.7100   -1.1730 C   0  0  0  0  0  0  0  0  0  0  0  0
   -5.5370    0.5510   -0.5980 C   0  0  1  0  0  0  0  0  0  0  0  0
   -6.3300    0.2510    0.5220 O   0  0  0  0  0  0  0  0  0  0  0  0
   -4.5160    1.6090   -0.3130 C   0  0  0  0  0  0  0  0  0  0  0  0
   -3.3350    1.1470    0.4730 C   0  0  1  0  0  0  0  0  0  0  0  0
   -3.5220    1.4170    1.8270 O   0  0  0  0  0  0  0  0  0  0  0  0
    1.6550    0.5710   -1.0940 C   0  0  0  0  0  0  0  0  0  0  0  0
    3.0290    0.4330   -1.1010 C   0  0  0  0  0  0  0  0  0  0  0  0
    3.6650   -0.4800   -0.2800 C   0  0  0  0  0  0  0  0  0  0  0  0
    4.9960   -0.6990   -0.2040 O   0  0  0  0  0  0  0  0  0  0  0  0
    6.1000   -0.1780   -0.8100 C   0  0  0  0  0  0  0  0  0  0  0  0
    6.3950    1.2720   -0.6140 C   0  0  0  0  0  0  0  0  0  0  0  0
    6.5790    1.5770    0.7360 O   0  0  0  0  0  0  0  0  0  0  0  0
  1  2  1  0
  2  3  2  0
  2 19  1  0
  3  4  1  0
  4  5  1  0
  4 17  2  0
  5  6  1  0
  6  7  2  0
  6  8  1  0
  8  9  1  1
  8 10  1  0
  8 15  1  0
 10 11  1  0
 11 12  1  0
 12 13  1  1
 12 14  1  0
 14 15  1  0
 15 16  1  1
 17 18  1  0
 18 19  2  0
 19 20  1  0
 20 21  1  0
 21 22  1  0
 22 23  1  0
M  END
