
     RDKit          3D

 10 10  0  0  0  0  0  0  0  0999 V2000
   -1.9790    0.7690   -1.1440 O   0  0  0  0  0  0  0  0  0  0  0  0
   -1.2740    0.7530    0.0720 C   0  0  2  0  0  0  0  0  0  0  0  0
   -0.0830    1.6490   -0.1020 C   0  0  0  0  0  0  0  0  0  0  0  0
    0.9920    1.3200    0.6880 O   0  0  0  0  0  0  0  0  0  0  0  0
    1.4850    0.0610    0.5210 C   0  0  1  0  0  0  0  0  0  0  0  0
    1.8150   -0.4340    1.8030 O   0  0  0  0  0  0  0  0  0  0  0  0
    0.5340   -0.9130   -0.1090 C   0  0  2  0  0  0  0  0  0  0  0  0
    0.5790   -0.8760   -1.4940 O   0  0  0  0  0  0  0  0  0  0  0  0
   -0.8970   -0.6840    0.3310 C   0  0  2  0  0  0  0  0  0  0  0  0
   -1.7180   -1.5550   -0.3870 O   0  0  0  0  0  0  0  0  0  0  0  0
  2  1  1  6
  2  3  1  0
  2  9  1  0
  3  4  1  0
  4  5  1  0
  5  6  1  1
  5  7  1  0
  7  8  1  6
  7  9  1  0
  9 10  1  6
M  END
