
     RDKit          3D

 42 44  0  0  0  0  0  0  0  0999 V2000
    1.9360    3.2080   -3.2220 C   0  0  0  0  0  0  0  0  0  0  0  0
    2.3440    2.0220   -2.2920 C   0  0  1  0  0  0  0  0  0  0  0  0
    1.7880    2.2760   -0.9380 C   0  0  0  0  0  0  0  0  0  0  0  0
    1.9950    1.2960    0.1230 C   0  0  0  0  0  0  0  0  0  0  0  0
    0.9730    0.5290    0.6140 C   0  0  0  0  0  0  0  0  0  0  0  0
   -0.3930    0.5590    0.1620 C   0  0  0  0  0  0  0  0  0  0  0  0
   -1.3050   -0.2180    0.6970 C   0  0  0  0  0  0  0  0  0  0  0  0
   -2.6420   -0.1390    0.1770 C   0  0  0  0  0  0  0  0  0  0  0  0
   -2.8270    0.7100   -0.7890 O   0  0  0  0  0  0  0  0  0  0  0  0
   -3.7660   -0.8870    0.5980 N   0  0  0  0  0  0  0  0  0  0  0  0
   -5.0300   -0.6860   -0.1090 C   0  0  1  0  0  0  0  0  0  0  0  0
   -5.3580   -1.9510   -0.8940 C   0  0  0  0  0  0  0  0  0  0  0  0
   -6.1460   -0.1940    0.7420 C   0  0  0  0  0  0  0  0  0  0  0  0
   -6.5230   -1.0330    1.7880 N   0  0  0  0  0  0  0  0  0  0  0  0
   -7.9450   -1.0490    2.1190 C   0  0  1  0  0  0  0  0  0  0  0  0
   -8.5360    0.2700    2.4190 C   0  0  0  0  0  0  0  0  0  0  0  0
   -9.3130    0.9850    1.3950 C   0  0  0  0  0  0  0  0  0  0  0  0
  -10.4390    0.2340    0.7670 C   0  0  0  0  0  0  0  0  0  0  0  0
   -9.9460   -0.5560   -0.3980 C   0  0  1  0  0  0  0  0  0  0  0  0
   -9.3120    0.3740   -1.2600 O   0  0  0  0  0  0  0  0  0  0  0  0
   -9.0890   -1.7210   -0.0700 C   0  0  0  0  0  0  0  0  0  0  0  0
   -8.7620   -2.0000    1.3370 C   0  0  0  0  0  0  0  0  0  0  0  0
    1.4900   -0.2120    1.6720 N   0  0  0  0  0  0  0  0  0  0  0  0
    2.9240   -0.5420    1.3190 C   0  0  1  0  0  0  0  0  0  0  0  0
    2.7800   -1.5430    0.2580 C   0  0  0  0  0  0  0  0  0  0  0  0
    3.8520   -2.2940   -0.3590 C   0  0  0  0  0  0  0  0  0  0  0  0
    4.9520   -1.8970   -0.9630 O   0  0  0  0  0  0  0  0  0  0  0  0
    6.0940   -1.2860   -0.5970 C   0  0  0  0  0  0  0  0  0  0  0  0
    6.3720   -0.8980    0.6930 C   0  0  0  0  0  0  0  0  0  0  0  0
    7.5550   -0.2840    1.0300 C   0  0  0  0  0  0  0  0  0  0  0  0
    8.5420   -0.0200    0.0960 C   0  0  0  0  0  0  0  0  0  0  0  0
    9.8380    0.6300    0.4520 C   0  0  2  0  0  0  0  0  0  0  0  0
    9.6520    2.0910    0.7590 C   0  0  0  0  0  0  0  0  0  0  0  0
   10.8560    0.3830   -0.6430 C   0  0  0  0  0  0  0  0  0  0  0  0
   10.3580   -0.1190    1.6860 C   0  0  0  0  0  0  0  0  0  0  0  0
    8.2510   -0.4150   -1.2010 C   0  0  0  0  0  0  0  0  0  0  0  0
    7.0900   -1.0210   -1.5590 C   0  0  0  0  0  0  0  0  0  0  0  0
    3.2280    0.8610    0.8020 C   0  0  0  0  0  0  0  0  0  0  0  0
    4.2680    1.5370    0.9010 O   0  0  0  0  0  0  0  0  0  0  0  0
    1.8770    0.7970   -2.9210 N   0  0  0  0  0  0  0  0  0  0  0  0
    2.5450    0.2050   -3.9980 C   0  0  0  0  0  0  0  0  0  0  0  0
    3.6090    0.7490   -4.4990 O   0  0  0  0  0  0  0  0  0  0  0  0
  2  1  1  6
  2  3  1  0
  2 40  1  0
  3  4  1  0
  4  5  2  0
  4 38  1  0
  5  6  1  0
  5 23  1  0
  6  7  2  3
  7  8  1  0
  8  9  2  0
  8 10  1  0
 10 11  1  0
 11 12  1  1
 11 13  1  0
 13 14  1  0
 15 14  1  6
 15 16  1  0
 15 22  1  0
 16 17  1  0
 17 18  1  0
 18 19  1  0
 19 20  1  6
 19 21  1  0
 21 22  1  0
 23 24  1  0
 24 25  1  6
 24 38  1  0
 25 26  1  0
 26 27  1  0
 27 28  1  0
 28 29  2  0
 28 37  1  0
 29 30  1  0
 30 31  2  0
 31 32  1  0
 31 36  1  0
 32 33  1  1
 32 34  1  0
 32 35  1  0
 36 37  2  0
 38 39  2  0
 40 41  1  0
 41 42  2  0
M  CHG  1  14   1
M  END
