
     RDKit          3D

 43 46  0  0  0  0  0  0  0  0999 V2000
   -4.7830   -4.1510    1.4130 C   0  0  0  0  0  0  0  0  0  0  0  0
   -4.7090   -5.0490    0.1900 C   0  0  0  0  0  0  0  0  0  0  0  0
   -6.0510   -5.0190   -0.4810 C   0  0  0  0  0  0  0  0  0  0  0  0
   -6.3680   -3.6760   -0.8660 N   0  0  0  0  0  0  0  0  0  0  0  0
   -5.5930   -2.9060   -1.7650 C   0  0  0  0  0  0  0  0  0  0  0  0
   -4.5690   -3.3790   -2.2770 O   0  0  0  0  0  0  0  0  0  0  0  0
   -6.0150   -1.5270   -2.0900 C   0  0  0  0  0  0  0  0  0  0  0  0
   -5.0210   -0.9300   -3.0580 C   0  0  0  0  0  0  0  0  0  0  0  0
   -3.7130   -0.9250   -2.4340 N   0  0  0  0  0  0  0  0  0  0  0  0
   -3.4400   -0.2260   -1.2540 C   0  0  0  0  0  0  0  0  0  0  0  0
   -4.3720    0.4260   -0.7180 O   0  0  0  0  0  0  0  0  0  0  0  0
   -2.1150   -0.2320   -0.6310 C   0  0  0  0  0  0  0  0  0  0  0  0
   -1.0950   -0.8950   -1.1370 C   0  0  0  0  0  0  0  0  0  0  0  0
    0.2190   -0.8590   -0.4520 C   0  0  0  0  0  0  0  0  0  0  0  0
    1.1500   -1.6910   -0.9190 C   0  0  0  0  0  0  0  0  0  0  0  0
    0.8110   -2.5240   -2.0060 O   0  0  0  0  0  0  0  0  0  0  0  0
    2.4990   -1.8380   -0.4250 C   0  0  0  0  0  0  0  0  0  0  0  0
    3.3050   -2.6770   -0.9540 O   0  0  0  0  0  0  0  0  0  0  0  0
    2.9750   -1.1020    0.6100 O   0  0  0  0  0  0  0  0  0  0  0  0
    4.2540   -1.1670    1.1590 C   0  0  0  0  0  0  0  0  0  0  0  0
    5.2530   -0.8340    0.1110 C   0  0  0  0  0  0  0  0  0  0  0  0
    4.8750   -0.5650   -1.0040 O   0  0  0  0  0  0  0  0  0  0  0  0
    6.6850   -0.8530    0.5110 C   0  0  1  0  0  0  0  0  0  0  0  0
    7.1450   -2.2060    1.0070 C   0  0  0  0  0  0  0  0  0  0  0  0
    8.4220   -1.9640    1.8170 C   0  0  0  0  0  0  0  0  0  0  0  0
    9.3000   -1.1410    1.0320 N   0  0  0  0  0  0  0  0  0  0  0  0
    8.9460   -1.0780   -0.3640 C   0  0  0  0  0  0  0  0  0  0  0  0
    7.5990   -0.4260   -0.5920 C   0  0  0  0  0  0  0  0  0  0  0  0
    0.3870    0.0700    0.6610 C   0  0  1  0  0  0  0  0  0  0  0  0
    0.9160    1.4270    0.2170 C   0  0  0  0  0  0  0  0  0  0  0  0
   -0.8540    0.1870    1.4010 N   0  0  0  0  0  0  0  0  0  0  0  0
   -1.9730    0.5530    0.6140 C   0  0  1  0  0  0  0  0  0  0  0  0
   -2.0760    1.9930    0.3450 C   0  0  0  0  0  0  0  0  0  0  0  0
   -2.2470    2.5080   -0.9100 C   0  0  0  0  0  0  0  0  0  0  0  0
   -2.3500    3.8580   -1.0850 C   0  0  0  0  0  0  0  0  0  0  0  0
   -2.2810    4.7040    0.0130 C   0  0  0  0  0  0  0  0  0  0  0  0
   -2.3820    6.0640   -0.1370 C   0  0  0  0  0  0  0  0  0  0  0  0
   -2.3090    6.8770    0.9750 C   0  0  0  0  0  0  0  0  0  0  0  0
   -2.4250    8.3450    0.7580 C   0  0  0  0  0  0  0  0  0  0  0  0
   -2.1350    6.3510    2.2480 C   0  0  0  0  0  0  0  0  0  0  0  0
   -2.0330    4.9870    2.4040 C   0  0  0  0  0  0  0  0  0  0  0  0
   -2.1090    4.1780    1.2720 C   0  0  0  0  0  0  0  0  0  0  0  0
   -2.0020    2.8240    1.4730 C   0  0  0  0  0  0  0  0  0  0  0  0
  1  2  1  0
  2  3  1  0
  3  4  1  0
  4  5  1  0
  5  6  2  0
  5  7  1  0
  7  8  1  0
  8  9  1  0
  9 10  1  0
 10 11  2  0
 10 12  1  0
 12 13  2  0
 12 32  1  0
 13 14  1  0
 14 15  2  3
 14 29  1  0
 15 16  1  0
 15 17  1  0
 17 18  2  0
 17 19  1  0
 19 20  1  0
 20 21  1  0
 21 22  2  0
 23 21  1  6
 23 24  1  0
 23 28  1  0
 24 25  1  0
 25 26  1  0
 26 27  1  0
 27 28  1  0
 29 30  1  6
 29 31  1  0
 31 32  1  0
 32 33  1  6
 33 34  2  0
 33 43  1  0
 34 35  1  0
 35 36  2  0
 36 37  1  0
 36 42  1  0
 37 38  2  0
 38 39  1  0
 38 40  1  0
 40 41  2  0
 41 42  1  0
 42 43  2  0
M  CHG  1  26   1
M  END
