
     RDKit          3D

 43 47  0  0  0  0  0  0  0  0999 V2000
   -5.8200   -1.9740    2.9710 C   0  0  0  0  0  0  0  0  0  0  0  0
   -5.6680   -1.9260    1.4820 C   0  0  0  0  0  0  0  0  0  0  0  0
   -4.9660   -0.6980    1.0100 C   0  0  0  0  0  0  0  0  0  0  0  0
   -3.6250   -0.8290    0.6110 C   0  0  0  0  0  0  0  0  0  0  0  0
   -2.8760    0.2260    0.1590 C   0  0  0  0  0  0  0  0  0  0  0  0
   -1.4700    0.1600   -0.2820 C   0  0  0  0  0  0  0  0  0  0  0  0
   -0.8530   -1.1460   -0.2200 N   0  0  1  0  0  0  0  0  0  0  0  0
   -1.1780   -1.9730   -1.3320 C   0  0  0  0  0  0  0  0  0  0  0  0
   -1.4430   -3.4170   -1.0490 C   0  0  2  0  0  0  0  0  0  0  0  0
   -0.2260   -4.1120   -0.4200 C   0  0  0  0  0  0  0  0  0  0  0  0
   -0.3140   -5.5330   -0.9680 C   0  0  0  0  0  0  0  0  0  0  0  0
   -1.1540   -5.4820   -2.0420 O   0  0  0  0  0  0  0  0  0  0  0  0
   -1.4270   -4.1790   -2.3970 C   0  0  0  0  0  0  0  0  0  0  0  0
    0.5650   -1.0220    0.0650 C   0  0  0  0  0  0  0  0  0  0  0  0
    1.4760   -0.8600   -1.0640 C   0  0  1  0  0  0  0  0  0  0  0  0
    1.2810    0.3530   -1.9450 C   0  0  0  0  0  0  0  0  0  0  0  0
    2.5910    0.3410   -2.6510 C   0  0  0  0  0  0  0  0  0  0  0  0
    2.9750    0.7790   -3.8920 C   0  0  0  0  0  0  0  0  0  0  0  0
    4.2890    0.6220   -4.3430 C   0  0  0  0  0  0  0  0  0  0  0  0
    4.6550    1.0190   -5.4750 O   0  0  0  0  0  0  0  0  0  0  0  0
    5.1920    0.0330   -3.5540 N   0  0  0  0  0  0  0  0  0  0  0  0
    4.7820   -0.3910   -2.3300 C   0  0  0  0  0  0  0  0  0  0  0  0
    5.6800   -0.9410   -1.6310 O   0  0  0  0  0  0  0  0  0  0  0  0
    3.5320   -0.2530   -1.8710 N   0  0  0  0  0  0  0  0  0  0  0  0
    2.9160   -0.6220   -0.6000 C   0  0  1  0  0  0  0  0  0  0  0  0
    2.9590    0.5300    0.2820 N   0  0  0  0  0  0  0  0  0  0  0  0
    4.0870    0.8940    1.0690 C   0  0  0  0  0  0  0  0  0  0  0  0
    4.1680    2.1830    1.5960 C   0  0  0  0  0  0  0  0  0  0  0  0
    5.2290    2.5790    2.3830 C   0  0  0  0  0  0  0  0  0  0  0  0
    6.2630    1.7220    2.6900 C   0  0  0  0  0  0  0  0  0  0  0  0
    7.3260    2.1280    3.4830 O   0  0  0  0  0  0  0  0  0  0  0  0
    8.4020    1.3170    3.8320 C   0  0  0  0  0  0  0  0  0  0  0  0
    6.1930    0.4450    2.1750 C   0  0  0  0  0  0  0  0  0  0  0  0
    5.1220    0.0420    1.3790 C   0  0  0  0  0  0  0  0  0  0  0  0
   -3.5460    1.4760    0.1200 C   0  0  0  0  0  0  0  0  0  0  0  0
   -2.7970    2.5490   -0.3330 O   0  0  0  0  0  0  0  0  0  0  0  0
   -3.2030    3.8720   -0.4840 C   0  0  2  0  0  0  0  0  0  0  0  0
   -2.9150    4.3970   -1.8870 C   0  0  0  0  0  0  0  0  0  0  0  0
   -2.3170    4.7270    0.4420 C   0  0  0  0  0  0  0  0  0  0  0  0
   -2.4960    4.3000    1.7560 O   0  0  0  0  0  0  0  0  0  0  0  0
   -4.8360    1.6330    0.4980 C   0  0  0  0  0  0  0  0  0  0  0  0
   -5.5520    0.5290    0.9480 C   0  0  0  0  0  0  0  0  0  0  0  0
   -6.9620    0.6980    1.3600 C   0  0  0  0  0  0  0  0  0  0  0  0
  1  2  1  0
  2  3  1  0
  3  4  2  0
  3 42  1  0
  4  5  1  0
  5  6  1  0
  5 35  2  0
  7  6  1  6
  7  8  1  0
  7 14  1  0
  9  8  1  6
  9 10  1  0
  9 13  1  0
 10 11  1  0
 11 12  1  0
 12 13  1  0
 15 14  1  1
 15 16  1  0
 15 25  1  0
 16 17  1  0
 17 18  2  0
 17 24  1  0
 18 19  1  0
 19 20  2  0
 19 21  1  0
 21 22  1  0
 22 23  2  0
 22 24  1  0
 24 25  1  0
 25 26  1  1
 26 27  1  0
 27 28  2  0
 27 34  1  0
 28 29  1  0
 29 30  2  0
 30 31  1  0
 30 33  1  0
 31 32  1  0
 33 34  2  0
 35 36  1  0
 35 41  1  0
 36 37  1  0
 37 38  1  6
 37 39  1  0
 39 40  1  0
 41 42  2  0
 42 43  1  0
M  CHG  1   7   1
M  END
