
     RDKit          3D

 43 46  0  0  0  0  0  0  0  0999 V2000
   -6.9840   -2.1450    2.6970 C   0  0  0  0  0  0  0  0  0  0  0  0
   -5.9550   -3.1190    2.1670 C   0  0  0  0  0  0  0  0  0  0  0  0
   -6.0430   -3.1360    0.6730 C   0  0  0  0  0  0  0  0  0  0  0  0
   -5.0530   -4.0830    0.0330 C   0  0  1  0  0  0  0  0  0  0  0  0
   -5.2590   -3.9960   -1.4760 C   0  0  0  0  0  0  0  0  0  0  0  0
   -6.5720   -4.3580   -1.9000 N   0  0  0  0  0  0  0  0  0  0  0  0
   -3.6620   -3.4960    0.2810 C   0  0  0  0  0  0  0  0  0  0  0  0
   -3.6640   -2.2210   -0.3290 O   0  0  0  0  0  0  0  0  0  0  0  0
   -2.6020   -1.3510   -0.3530 C   0  0  0  0  0  0  0  0  0  0  0  0
   -1.5400   -1.7150    0.2120 O   0  0  0  0  0  0  0  0  0  0  0  0
   -2.6580   -0.0440   -0.9970 C   0  0  0  0  0  0  0  0  0  0  0  0
   -3.8110    0.3930   -1.6140 C   0  0  0  0  0  0  0  0  0  0  0  0
   -3.8820    1.6450   -2.2310 C   0  0  0  0  0  0  0  0  0  0  0  0
   -5.1000    2.0840   -2.8720 C   0  0  0  0  0  0  0  0  0  0  0  0
   -6.0980    1.3350   -2.8730 O   0  0  0  0  0  0  0  0  0  0  0  0
   -2.7900    2.4840   -2.2380 C   0  0  0  0  0  0  0  0  0  0  0  0
   -1.6350    2.0550   -1.6240 C   0  0  0  0  0  0  0  0  0  0  0  0
   -1.5740    0.8010   -1.0100 C   0  0  0  0  0  0  0  0  0  0  0  0
   -0.3740    0.3530   -0.3810 N   0  0  0  0  0  0  0  0  0  0  0  0
   -0.1570    0.7910    0.9780 C   0  0  0  0  0  0  0  0  0  0  0  0
    0.4610    2.1440    1.0430 C   0  0  0  0  0  0  0  0  0  0  0  0
   -0.3770    3.2370    1.2160 C   0  0  0  0  0  0  0  0  0  0  0  0
    0.1590    4.5000    1.2780 C   0  0  0  0  0  0  0  0  0  0  0  0
    1.5380    4.6660    1.1640 C   0  0  0  0  0  0  0  0  0  0  0  0
    2.3370    3.5650    0.9930 C   0  0  0  0  0  0  0  0  0  0  0  0
    1.8200    2.2950    0.9290 C   0  0  0  0  0  0  0  0  0  0  0  0
    3.7980    3.7610    0.8730 C   0  0  0  0  0  0  0  0  0  0  0  0
    4.2110    4.7090    1.9770 C   0  0  0  0  0  0  0  0  0  0  0  0
    3.5120    6.0200    1.8860 C   0  0  0  0  0  0  0  0  0  0  0  0
    2.1740    5.9960    1.2200 C   0  0  0  0  0  0  0  0  0  0  0  0
    0.5510   -0.4540   -1.0760 C   0  0  0  0  0  0  0  0  0  0  0  0
    0.2950   -0.7260   -2.2970 O   0  0  0  0  0  0  0  0  0  0  0  0
    1.7340   -0.9960   -0.5540 N   0  0  0  0  0  0  0  0  0  0  0  0
    2.6010   -1.8090   -1.3710 C   0  0  0  0  0  0  0  0  0  0  0  0
    3.8150   -2.2950   -0.6400 C   0  0  0  0  0  0  0  0  0  0  0  0
    4.6390   -1.1220   -0.1470 C   0  0  1  0  0  0  0  0  0  0  0  0
    5.8660   -1.5910    0.5900 C   0  0  0  0  0  0  0  0  0  0  0  0
    7.0910   -1.0910   -0.1400 C   0  0  1  0  0  0  0  0  0  0  0  0
    8.3650   -1.4980    0.5700 C   0  0  0  0  0  0  0  0  0  0  0  0
    7.0840   -1.5240   -1.4710 O   0  0  0  0  0  0  0  0  0  0  0  0
    6.1350   -0.7600   -2.0940 N   0  0  0  0  0  0  0  0  0  0  0  0
    4.9880   -0.3160   -1.3580 C   0  0  0  0  0  0  0  0  0  0  0  0
    4.3090    0.6860   -1.7000 O   0  0  0  0  0  0  0  0  0  0  0  0
  1  2  1  0
  2  3  1  0
  4  3  1  1
  4  5  1  0
  4  7  1  0
  5  6  1  0
  7  8  1  0
  8  9  1  0
  9 10  2  0
  9 11  1  0
 11 12  2  0
 11 18  1  0
 12 13  1  0
 13 14  1  0
 13 16  2  0
 14 15  2  0
 16 17  1  0
 17 18  2  0
 18 19  1  0
 19 20  1  0
 19 31  1  0
 20 21  1  0
 21 22  2  0
 21 26  1  0
 22 23  1  0
 23 24  2  0
 24 25  1  0
 24 30  1  0
 25 26  2  0
 25 27  1  0
 27 28  1  0
 28 29  1  0
 29 30  1  0
 31 32  2  0
 31 33  1  0
 33 34  1  0
 34 35  1  0
 36 35  1  6
 36 37  1  0
 36 42  1  0
 37 38  1  0
 38 39  1  1
 38 40  1  0
 40 41  1  0
 41 42  1  0
 42 43  2  0
M  CHG  1   6   1
M  END
