
     RDKit          3D

 47 50  0  0  0  0  0  0  0  0999 V2000
    1.1480   -4.9780   -1.0090 C   0  0  0  0  0  0  0  0  0  0  0  0
    0.1430   -4.0590   -0.4290 C   0  0  0  0  0  0  0  0  0  0  0  0
    0.5290   -3.2990    0.7750 C   0  0  0  0  0  0  0  0  0  0  0  0
    1.6530   -2.3270    0.7300 C   0  0  1  0  0  0  0  0  0  0  0  0
    2.9390   -3.0090    0.3960 C   0  0  0  0  0  0  0  0  0  0  0  0
    4.1600   -2.1540    0.7160 C   0  0  0  0  0  0  0  0  0  0  0  0
    4.8820   -1.6440   -0.4770 C   0  0  0  0  0  0  0  0  0  0  0  0
    6.3440   -1.4670   -0.2630 C   0  0  0  0  0  0  0  0  0  0  0  0
    7.1320   -2.5210   -0.6870 C   0  0  0  0  0  0  0  0  0  0  0  0
    8.5060   -2.5200   -0.5670 C   0  0  0  0  0  0  0  0  0  0  0  0
    9.0780   -1.3990    0.0080 C   0  0  0  0  0  0  0  0  0  0  0  0
    8.2840   -0.3510    0.4280 C   0  0  0  0  0  0  0  0  0  0  0  0
    6.9090   -0.3610    0.3030 C   0  0  0  0  0  0  0  0  0  0  0  0
    6.1510    0.8210    0.7910 C   0  0  0  0  0  0  0  0  0  0  0  0
    6.4540    2.0830    0.0170 C   0  0  2  0  0  0  0  0  0  0  0  0
    6.7580    3.2310    0.9560 C   0  0  0  0  0  0  0  0  0  0  0  0
    5.3700    2.4470   -0.9260 C   0  0  0  0  0  0  0  0  0  0  0  0
    5.5330    2.0460   -2.1300 O   0  0  0  0  0  0  0  0  0  0  0  0
    4.2100    3.1850   -0.5890 N   0  0  0  0  0  0  0  0  0  0  0  0
    3.6940    4.1280   -1.5690 C   0  0  0  0  0  0  0  0  0  0  0  0
    3.4870    3.0750    0.6610 C   0  0  0  0  0  0  0  0  0  0  0  0
    2.2970    2.1840    0.3780 C   0  0  0  0  0  0  0  0  0  0  0  0
    1.3720    2.0010    1.5330 C   0  0  0  0  0  0  0  0  0  0  0  0
    1.0650    0.4970    1.6200 C   0  0  0  0  0  0  0  0  0  0  0  0
    0.5610   -0.0610    0.3240 C   0  0  2  0  0  0  0  0  0  0  0  0
   -0.8440   -0.2260    0.3100 O   0  0  0  0  0  0  0  0  0  0  0  0
   -1.6760    0.5360   -0.4690 C   0  0  0  0  0  0  0  0  0  0  0  0
   -1.1530    1.4110   -1.1910 O   0  0  0  0  0  0  0  0  0  0  0  0
   -3.1520    0.2970   -0.4300 C   0  0  1  0  0  0  0  0  0  0  0  0
   -3.5890    0.4330    0.9980 C   0  0  0  0  0  0  0  0  0  0  0  0
   -4.7720    1.4180    0.9890 C   0  0  2  0  0  0  0  0  0  0  0  0
   -6.0290    0.7180    0.6490 C   0  0  0  0  0  0  0  0  0  0  0  0
   -7.1650    0.8420    1.6320 C   0  0  0  0  0  0  0  0  0  0  0  0
   -8.3200    0.1010    0.9180 C   0  0  0  0  0  0  0  0  0  0  0  0
   -7.8810   -1.3110    0.7580 C   0  0  0  0  0  0  0  0  0  0  0  0
   -7.4870   -1.9130   -0.3180 C   0  0  0  0  0  0  0  0  0  0  0  0
   -7.3630   -1.3700   -1.6950 C   0  0  0  0  0  0  0  0  0  0  0  0
   -5.9610   -1.5190   -2.2440 C   0  0  2  0  0  0  0  0  0  0  0  0
   -5.3180   -2.6590   -1.4550 C   0  0  0  0  0  0  0  0  0  0  0  0
   -5.2130   -0.4310   -2.4450 O   0  0  0  0  0  0  0  0  0  0  0  0
   -4.8870    0.8120   -2.1780 C   0  0  0  0  0  0  0  0  0  0  0  0
   -5.4830    1.7860   -2.7900 O   0  0  0  0  0  0  0  0  0  0  0  0
   -3.8710    1.3530   -1.2240 C   0  0  1  0  0  0  0  0  0  0  0  0
   -4.3760    2.2810   -0.1930 C   0  0  1  0  0  0  0  0  0  0  0  0
   -5.3970    3.2750   -0.5940 C   0  0  0  0  0  0  0  0  0  0  0  0
   -3.1660    3.1030    0.3000 C   0  0  0  0  0  0  0  0  0  0  0  0
    1.2880   -1.2330   -0.2350 C   0  0  0  0  0  0  0  0  0  0  0  0
  1  2  1  0
  2  3  1  0
  4  3  1  6
  4  5  1  0
  4 47  1  0
  5  6  1  0
  6  7  1  0
  7  8  1  0
  8  9  2  0
  8 13  1  0
  9 10  1  0
 10 11  2  0
 11 12  1  0
 12 13  2  0
 13 14  1  0
 14 15  1  0
 15 16  1  1
 15 17  1  0
 17 18  2  0
 17 19  1  0
 19 20  1  0
 19 21  1  0
 21 22  1  0
 22 23  1  0
 23 24  1  0
 24 25  1  0
 25 26  1  1
 25 47  1  0
 26 27  1  0
 27 28  2  0
 29 27  1  1
 29 30  1  0
 29 43  1  0
 31 30  1  6
 31 32  1  0
 31 44  1  0
 32 33  1  0
 33 34  1  0
 34 35  1  0
 35 36  2  0
 36 37  1  0
 37 38  1  0
 38 39  1  1
 38 40  1  0
 40 41  1  0
 41 42  2  0
 43 41  1  1
 43 44  1  0
 44 45  1  6
 44 46  1  0
M  END
