
     RDKit          3D

 20 23  0  0  0  0  0  0  0  0999 V2000
   -3.5260    2.3200    0.7500 C   0  0  0  0  0  0  0  0  0  0  0  0
   -3.5020    0.8060    0.7620 C   0  0  1  0  0  0  0  0  0  0  0  0
   -4.3370    0.3590   -0.4480 C   0  0  0  0  0  0  0  0  0  0  0  0
   -4.3350   -1.1210   -0.6170 C   0  0  0  0  0  0  0  0  0  0  0  0
   -3.3070   -1.8590    0.1750 C   0  0  0  0  0  0  0  0  0  0  0  0
   -2.0490   -1.0770    0.1890 C   0  0  0  0  0  0  0  0  0  0  0  0
   -2.1460    0.2660    0.4860 C   0  0  0  0  0  0  0  0  0  0  0  0
   -1.0410    0.9630    0.5030 O   0  0  0  0  0  0  0  0  0  0  0  0
    0.1410    0.4120    0.2450 C   0  0  0  0  0  0  0  0  0  0  0  0
    1.2930    1.2060    0.2770 C   0  0  0  0  0  0  0  0  0  0  0  0
    2.5490    0.7030    0.0200 C   0  0  0  0  0  0  0  0  0  0  0  0
    2.6280   -0.6360   -0.2740 C   0  0  0  0  0  0  0  0  0  0  0  0
    1.5290   -1.4590   -0.3180 C   0  0  0  0  0  0  0  0  0  0  0  0
    0.2850   -0.9230   -0.0560 C   0  0  0  0  0  0  0  0  0  0  0  0
   -0.8600   -1.7030   -0.0860 C   0  0  0  0  0  0  0  0  0  0  0  0
   -0.7470   -2.9140   -0.3560 O   0  0  0  0  0  0  0  0  0  0  0  0
    3.9570   -1.2820   -0.5690 C   0  0  0  0  0  0  0  0  0  0  0  0
    4.9920   -0.4830    0.1940 C   0  0  0  0  0  0  0  0  0  0  0  0
    4.9700    0.9220   -0.3840 C   0  0  0  0  0  0  0  0  0  0  0  0
    3.7310    1.6140    0.0730 C   0  0  0  0  0  0  0  0  0  0  0  0
  2  1  1  6
  2  3  1  0
  2  7  1  0
  3  4  1  0
  4  5  1  0
  5  6  1  0
  6  7  2  0
  6 15  1  0
  7  8  1  0
  8  9  1  0
  9 10  2  0
  9 14  1  0
 10 11  1  0
 11 12  2  0
 11 20  1  0
 12 13  1  0
 12 17  1  0
 13 14  2  0
 14 15  1  0
 15 16  2  0
 17 18  1  0
 18 19  1  0
 19 20  1  0
M  END
