
     RDKit          3D

 20 23  0  0  0  0  0  0  0  0999 V2000
   -2.0190   -0.8010    1.2190 C   0  0  0  0  0  0  0  0  0  0  0  0
   -2.2240   -0.6200   -0.2670 C   0  0  2  0  0  0  0  0  0  0  0  0
   -1.5170   -1.6400   -1.0850 C   0  0  0  0  0  0  0  0  0  0  0  0
   -0.0780   -1.6940   -0.6150 C   0  0  0  0  0  0  0  0  0  0  0  0
    0.4840   -0.3490   -0.3550 C   0  0  0  0  0  0  0  0  0  0  0  0
   -0.2590    0.8080   -0.4020 C   0  0  0  0  0  0  0  0  0  0  0  0
    0.3580    2.0050   -0.1440 C   0  0  0  0  0  0  0  0  0  0  0  0
    1.7130    2.0880    0.1650 C   0  0  0  0  0  0  0  0  0  0  0  0
    2.4570    0.9400    0.2130 C   0  0  0  0  0  0  0  0  0  0  0  0
    3.8110    1.0370    0.5220 C   0  0  0  0  0  0  0  0  0  0  0  0
    4.5410   -0.1300    0.5650 C   0  0  0  0  0  0  0  0  0  0  0  0
    5.8880   -0.1230    0.8640 O   0  0  0  0  0  0  0  0  0  0  0  0
    3.9390   -1.3480    0.3080 C   0  0  0  0  0  0  0  0  0  0  0  0
    2.5920   -1.4350    0.0020 C   0  0  0  0  0  0  0  0  0  0  0  0
    1.8330   -0.2670   -0.0480 C   0  0  0  0  0  0  0  0  0  0  0  0
   -1.6700    0.7450   -0.7200 C   0  0  2  0  0  0  0  0  0  0  0  0
   -2.5870    1.6600    0.0060 C   0  0  0  0  0  0  0  0  0  0  0  0
   -3.9490    1.0030   -0.2720 C   0  0  0  0  0  0  0  0  0  0  0  0
   -3.6490   -0.4100   -0.5920 C   0  0  0  0  0  0  0  0  0  0  0  0
   -4.4010   -1.2370   -1.0300 O   0  0  0  0  0  0  0  0  0  0  0  0
  2  1  1  1
  2  3  1  0
  2 16  1  0
  2 19  1  0
  3  4  1  0
  4  5  1  0
  5  6  2  0
  5 15  1  0
  6  7  1  0
  6 16  1  0
  7  8  2  0
  8  9  1  0
  9 10  2  0
  9 15  1  0
 10 11  1  0
 11 12  1  0
 11 13  2  0
 13 14  1  0
 14 15  2  0
 16 17  1  1
 17 18  1  0
 18 19  1  0
 19 20  2  0
M  END
