
     RDKit          3D

 20 23  0  0  0  0  0  0  0  0999 V2000
    4.8460   -1.3630    0.2860 O   0  0  0  0  0  0  0  0  0  0  0  0
    4.4020   -0.7600   -0.9040 C   0  0  2  0  0  0  0  0  0  0  0  0
    5.2920    0.4290   -1.1780 C   0  0  0  0  0  0  0  0  0  0  0  0
    4.5570    1.2740   -2.2270 C   0  0  0  0  0  0  0  0  0  0  0  0
    3.4640    2.0040   -1.4730 C   0  0  0  0  0  0  0  0  0  0  0  0
    2.5430    0.9520   -0.9360 C   0  0  0  0  0  0  0  0  0  0  0  0
    1.2690    0.9760   -0.6240 O   0  0  0  0  0  0  0  0  0  0  0  0
    0.8530   -0.1750   -0.1850 C   0  0  0  0  0  0  0  0  0  0  0  0
   -0.5290   -0.4770    0.2500 C   0  0  0  0  0  0  0  0  0  0  0  0
   -0.8430   -1.7440    0.6970 C   0  0  0  0  0  0  0  0  0  0  0  0
   -2.1270   -2.0390    1.1040 C   0  0  0  0  0  0  0  0  0  0  0  0
   -3.0800   -1.0460    1.0540 C   0  0  0  0  0  0  0  0  0  0  0  0
   -2.7700    0.2190    0.6090 C   0  0  0  0  0  0  0  0  0  0  0  0
   -1.4900    0.5120    0.2030 C   0  0  0  0  0  0  0  0  0  0  0  0
   -3.8140    1.2820    0.5610 C   0  0  0  0  0  0  0  0  0  0  0  0
   -4.7290    1.0210    1.7570 C   0  0  0  0  0  0  0  0  0  0  0  0
   -5.4170   -0.3000    1.4810 C   0  0  0  0  0  0  0  0  0  0  0  0
   -4.4430   -1.4290    1.5070 C   0  0  0  0  0  0  0  0  0  0  0  0
    1.9130   -1.0400   -0.1990 C   0  0  0  0  0  0  0  0  0  0  0  0
    3.0050   -0.3220   -0.6810 C   0  0  0  0  0  0  0  0  0  0  0  0
  2  1  1  1
  2  3  1  0
  2 20  1  0
  3  4  1  0
  4  5  1  0
  5  6  1  0
  6  7  1  0
  6 20  2  0
  7  8  1  0
  8  9  1  0
  8 19  2  0
  9 10  2  0
  9 14  1  0
 10 11  1  0
 11 12  2  0
 12 13  1  0
 12 18  1  0
 13 14  2  0
 13 15  1  0
 15 16  1  0
 16 17  1  0
 17 18  1  0
 19 20  1  0
M  END
