
     RDKit          3D

 20 22  0  0  0  0  0  0  0  0999 V2000
   -3.1040   -2.6320    0.3860 C   0  0  0  0  0  0  0  0  0  0  0  0
   -1.6820   -2.4650    0.2430 C   0  0  0  0  0  0  0  0  0  0  0  0
   -1.0250   -3.7680    0.2860 O   0  0  0  0  0  0  0  0  0  0  0  0
   -0.8410   -1.4780    0.0900 C   0  0  0  0  0  0  0  0  0  0  0  0
    0.6090   -1.8570   -0.0250 C   0  0  0  0  0  0  0  0  0  0  0  0
    0.8620   -3.0810   -0.1880 O   0  0  0  0  0  0  0  0  0  0  0  0
    1.7200   -0.9410    0.0350 C   0  0  2  0  0  0  0  0  0  0  0  0
    2.4500   -0.7170    1.2990 C   0  0  0  0  0  0  0  0  0  0  0  0
    3.9030   -0.4440    0.9400 C   0  0  0  0  0  0  0  0  0  0  0  0
    4.1810    0.8950    0.3750 C   0  0  0  0  0  0  0  0  0  0  0  0
    3.5840    1.1250   -1.0270 C   0  0  0  0  0  0  0  0  0  0  0  0
    2.1060    1.3190   -0.8880 C   0  0  0  0  0  0  0  0  0  0  0  0
    1.2550    0.4220   -0.4160 C   0  0  0  0  0  0  0  0  0  0  0  0
   -0.1150    0.8280   -0.2960 C   0  0  0  0  0  0  0  0  0  0  0  0
   -1.1320   -0.0610   -0.0540 C   0  0  0  0  0  0  0  0  0  0  0  0
   -2.4000    0.5950    0.0880 C   0  0  2  0  0  0  0  0  0  0  0  0
   -3.6200    0.2130    0.7380 C   0  0  0  0  0  0  0  0  0  0  0  0
   -2.6630    1.3480   -1.2290 C   0  0  0  0  0  0  0  0  0  0  0  0
   -1.5640    2.3460   -1.4700 C   0  0  0  0  0  0  0  0  0  0  0  0
   -0.4890    2.2420   -0.4550 C   0  0  0  0  0  0  0  0  0  0  0  0
  1  2  1  0
  2  3  1  0
  2  4  2  3
  4  5  1  0
  4 15  1  0
  5  6  2  0
  5  7  1  0
  7  8  1  1
  7 13  1  0
  8  9  1  0
  9 10  1  0
 10 11  1  0
 11 12  1  0
 12 13  2  0
 13 14  1  0
 14 15  2  0
 14 20  1  0
 15 16  1  0
 16 17  1  6
 16 18  1  0
 18 19  1  0
 19 20  1  0
M  END
