
     RDKit          3D

 20 22  0  0  0  0  0  0  0  0999 V2000
   -3.7910    0.3270   -0.6690 C   0  0  0  0  0  0  0  0  0  0  0  0
   -3.4500    0.2570    0.9190 C   0  0  2  0  0  0  0  0  0  0  0  0
   -3.4390    1.6990    1.3130 C   0  0  0  0  0  0  0  0  0  0  0  0
   -2.3170    2.3660    1.2950 C   0  0  0  0  0  0  0  0  0  0  0  0
   -1.0330    1.7740    0.9270 C   0  0  0  0  0  0  0  0  0  0  0  0
   -0.9430    0.4760    0.6140 C   0  0  0  0  0  0  0  0  0  0  0  0
    0.3400   -0.1380    0.2140 C   0  0  0  0  0  0  0  0  0  0  0  0
    1.4780    0.8600    0.1740 C   0  0  2  0  0  0  0  0  0  0  0  0
    1.2830    1.8930   -0.7230 O   0  0  0  0  0  0  0  0  0  0  0  0
    2.7760    0.1150   -0.0620 C   0  0  1  0  0  0  0  0  0  0  0  0
    2.7830   -0.6210   -1.3910 C   0  0  0  0  0  0  0  0  0  0  0  0
    4.0970   -1.3930   -1.4460 C   0  0  0  0  0  0  0  0  0  0  0  0
    5.2420   -0.4370   -1.3700 C   0  0  0  0  0  0  0  0  0  0  0  0
    4.7040    0.9410   -1.0440 C   0  0  0  0  0  0  0  0  0  0  0  0
    3.8790    0.9410    0.0540 O   0  0  0  0  0  0  0  0  0  0  0  0
   -2.1460   -0.3640    0.9040 C   0  0  0  0  0  0  0  0  0  0  0  0
   -1.9590   -1.6160    1.2280 C   0  0  0  0  0  0  0  0  0  0  0  0
   -3.0430   -2.4940    1.6610 C   0  0  0  0  0  0  0  0  0  0  0  0
   -4.2310   -1.9420    1.7350 C   0  0  0  0  0  0  0  0  0  0  0  0
   -4.5580   -0.5430    1.4410 C   0  0  0  0  0  0  0  0  0  0  0  0
  2  1  1  6
  2  3  1  0
  2 16  1  0
  2 20  1  0
  3  4  2  0
  4  5  1  0
  5  6  2  0
  6  7  1  0
  6 16  1  0
  7  8  1  0
  8  9  1  6
  8 10  1  0
 10 11  1  6
 10 15  1  0
 11 12  1  0
 12 13  1  0
 13 14  1  0
 14 15  1  0
 16 17  2  0
 17 18  1  0
 18 19  2  0
 19 20  1  0
M  END
