
     RDKit          3D

 20 23  0  0  0  0  0  0  0  0999 V2000
    3.7270    0.2400    2.2980 C   0  0  0  0  0  0  0  0  0  0  0  0
    2.8130    1.1200    1.5300 C   0  0  1  0  0  0  0  0  0  0  0  0
    3.6960    1.9480    0.5730 C   0  0  0  0  0  0  0  0  0  0  0  0
    4.0850    0.8050   -0.3980 C   0  0  0  0  0  0  0  0  0  0  0  0
    2.7310    0.2340   -0.6160 C   0  0  0  0  0  0  0  0  0  0  0  0
    2.1680   -0.3830   -1.6970 C   0  0  0  0  0  0  0  0  0  0  0  0
    0.8670   -0.8080   -1.6180 C   0  0  0  0  0  0  0  0  0  0  0  0
    0.0590   -0.6580   -0.5070 C   0  0  0  0  0  0  0  0  0  0  0  0
   -1.2960   -1.1360   -0.5290 C   0  0  1  0  0  0  0  0  0  0  0  0
   -1.4890   -1.9500   -1.6770 O   0  0  0  0  0  0  0  0  0  0  0  0
   -1.7320   -2.0080    0.6170 C   0  0  0  0  0  0  0  0  0  0  0  0
   -3.2460   -2.0580    0.4180 C   0  0  0  0  0  0  0  0  0  0  0  0
   -3.5550   -1.1130   -0.7380 C   0  0  0  0  0  0  0  0  0  0  0  0
   -2.3880   -0.1230   -0.5630 C   0  0  1  0  0  0  0  0  0  0  0  0
   -2.6540    0.6380    0.6690 C   0  0  0  0  0  0  0  0  0  0  0  0
   -2.1730    2.0270    0.3060 C   0  0  0  0  0  0  0  0  0  0  0  0
   -1.7750    2.0050   -1.0050 O   0  0  0  0  0  0  0  0  0  0  0  0
   -2.3180    0.8910   -1.6290 C   0  0  0  0  0  0  0  0  0  0  0  0
    0.6660   -0.0320    0.5620 C   0  0  0  0  0  0  0  0  0  0  0  0
    1.9750    0.4130    0.5250 C   0  0  0  0  0  0  0  0  0  0  0  0
  2  1  1  6
  2  3  1  0
  2 20  1  0
  3  4  1  0
  4  5  1  0
  5  6  2  0
  5 20  1  0
  6  7  1  0
  7  8  2  0
  8  9  1  0
  8 19  1  0
  9 10  1  6
  9 11  1  0
  9 14  1  0
 11 12  1  0
 12 13  1  0
 14 13  1  6
 14 15  1  0
 14 18  1  0
 15 16  1  0
 16 17  1  0
 17 18  1  0
 19 20  2  0
M  END
