
     RDKit          3D

 20 23  0  0  0  0  0  0  0  0999 V2000
    3.5780    0.0580    1.9500 C   0  0  0  0  0  0  0  0  0  0  0  0
    3.5100    0.5680    0.5540 C   0  0  1  0  0  0  0  0  0  0  0  0
    4.5800   -0.0470   -0.3720 C   0  0  0  0  0  0  0  0  0  0  0  0
    4.0500    0.5580   -1.6950 C   0  0  0  0  0  0  0  0  0  0  0  0
    2.5780    0.2410   -1.5240 C   0  0  0  0  0  0  0  0  0  0  0  0
    1.5840   -0.0500   -2.4320 C   0  0  0  0  0  0  0  0  0  0  0  0
    0.3130   -0.3460   -1.9910 C   0  0  0  0  0  0  0  0  0  0  0  0
   -0.0270   -0.3690   -0.6460 C   0  0  0  0  0  0  0  0  0  0  0  0
   -1.3700   -0.7770   -0.2840 C   0  0  1  0  0  0  0  0  0  0  0  0
   -1.9980   -1.4270   -1.3930 O   0  0  0  0  0  0  0  0  0  0  0  0
   -1.3410   -1.8730    0.7880 C   0  0  0  0  0  0  0  0  0  0  0  0
   -2.8130   -1.9220    1.1340 C   0  0  0  0  0  0  0  0  0  0  0  0
   -3.0750   -0.4500    1.3970 C   0  0  0  0  0  0  0  0  0  0  0  0
   -2.3400    0.1910    0.2200 C   0  0  1  0  0  0  0  0  0  0  0  0
   -1.9160    1.5790    0.5160 C   0  0  0  0  0  0  0  0  0  0  0  0
   -3.2640    2.2970    0.4530 C   0  0  0  0  0  0  0  0  0  0  0  0
   -4.1740    1.4390   -0.1260 O   0  0  0  0  0  0  0  0  0  0  0  0
   -3.4640    0.4750   -0.8180 C   0  0  0  0  0  0  0  0  0  0  0  0
    0.9850   -0.0730    0.2290 C   0  0  0  0  0  0  0  0  0  0  0  0
    2.2720    0.2290   -0.1760 C   0  0  0  0  0  0  0  0  0  0  0  0
  2  1  1  1
  2  3  1  0
  2 20  1  0
  3  4  1  0
  4  5  1  0
  5  6  2  0
  5 20  1  0
  6  7  1  0
  7  8  2  0
  8  9  1  0
  8 19  1  0
  9 10  1  6
  9 11  1  0
  9 14  1  0
 11 12  1  0
 12 13  1  0
 14 13  1  1
 14 15  1  0
 14 18  1  0
 15 16  1  0
 16 17  1  0
 17 18  1  0
 19 20  2  0
M  END
