
     RDKit          3D

 21 22  0  0  0  0  0  0  0  0999 V2000
   -4.2440    2.3050   -0.0830 O   0  0  0  0  0  0  0  0  0  0  0  0
   -4.8070    1.3160   -0.6130 C   0  0  0  0  0  0  0  0  0  0  0  0
   -6.1120    1.4480   -1.0040 O   0  0  0  0  0  0  0  0  0  0  0  0
   -4.0490    0.1680   -0.7550 O   0  0  0  0  0  0  0  0  0  0  0  0
   -2.7300    0.1540   -0.3190 C   0  0  2  0  0  0  0  0  0  0  0  0
   -1.7440   -0.2860   -1.3710 C   0  0  0  0  0  0  0  0  0  0  0  0
   -0.3510   -0.1820   -0.7600 C   0  0  1  0  0  0  0  0  0  0  0  0
    0.3740    1.0230   -1.3210 C   0  0  0  0  0  0  0  0  0  0  0  0
    1.6600    1.1740   -0.8260 O   0  0  0  0  0  0  0  0  0  0  0  0
    2.6950    0.2600   -0.9510 C   0  0  0  0  0  0  0  0  0  0  0  0
    2.4490   -0.8010   -1.5680 O   0  0  0  0  0  0  0  0  0  0  0  0
    4.0560    0.5230   -0.3730 C   0  0  1  0  0  0  0  0  0  0  0  0
    3.9470    0.7030    1.1070 C   0  0  0  0  0  0  0  0  0  0  0  0
    4.2260   -0.7260    1.5920 C   0  0  0  0  0  0  0  0  0  0  0  0
    5.1370   -1.2280    0.5080 C   0  0  0  0  0  0  0  0  0  0  0  0
    4.8820   -0.5320   -0.6380 O   0  0  0  0  0  0  0  0  0  0  0  0
   -0.4160   -0.0080    0.6180 O   0  0  0  0  0  0  0  0  0  0  0  0
   -1.1990   -0.9820    1.2330 C   0  0  0  0  0  0  0  0  0  0  0  0
   -2.6400   -0.8830    0.8100 C   0  0  1  0  0  0  0  0  0  0  0  0
   -3.5030   -0.4720    1.8940 N   0  0  0  0  0  0  0  0  0  0  0  0
   -4.7930   -0.7520    1.5740 O   0  0  0  0  0  0  0  0  0  0  0  0
  1  2  2  0
  2  3  1  0
  2  4  1  0
  5  4  1  6
  5  6  1  0
  5 19  1  0
  6  7  1  0
  7  8  1  6
  7 17  1  0
  8  9  1  0
  9 10  1  0
 10 11  2  0
 12 10  1  1
 12 13  1  0
 12 16  1  0
 13 14  1  0
 14 15  1  0
 15 16  1  0
 17 18  1  0
 18 19  1  0
 19 20  1  1
 20 21  1  0
M  CHG  2  20   1  21  -1
M  END
