
     RDKit          3D

 20 22  0  0  0  0  0  0  0  0999 V2000
   -3.0770   -0.2890   -1.6030 C   0  0  0  0  0  0  0  0  0  0  0  0
   -3.3580    0.3460   -0.1540 C   0  0  2  0  0  0  0  0  0  0  0  0
   -3.7060    1.7410   -0.4550 C   0  0  0  0  0  0  0  0  0  0  0  0
   -2.7980    2.6950   -0.4480 C   0  0  0  0  0  0  0  0  0  0  0  0
   -1.4090    2.4430   -0.1200 C   0  0  0  0  0  0  0  0  0  0  0  0
   -0.9920    1.2240    0.2260 C   0  0  0  0  0  0  0  0  0  0  0  0
    0.4000    0.9540    0.5290 C   0  0  0  0  0  0  0  0  0  0  0  0
    1.0200   -0.0560   -0.3760 C   0  0  2  0  0  0  0  0  0  0  0  0
    0.3980   -1.2980   -0.3440 O   0  0  0  0  0  0  0  0  0  0  0  0
    2.4720   -0.2600   -0.0630 C   0  0  1  0  0  0  0  0  0  0  0  0
    3.0800   -1.1260   -1.1490 C   0  0  0  0  0  0  0  0  0  0  0  0
    4.4560   -1.5130   -0.6020 C   0  0  0  0  0  0  0  0  0  0  0  0
    5.2320   -0.3010   -0.2520 C   0  0  0  0  0  0  0  0  0  0  0  0
    4.4650    0.8390    0.2870 C   0  0  0  0  0  0  0  0  0  0  0  0
    3.1590    0.9350   -0.0770 O   0  0  0  0  0  0  0  0  0  0  0  0
   -2.0650    0.2530    0.5290 C   0  0  0  0  0  0  0  0  0  0  0  0
   -1.8300   -0.6220    1.5120 C   0  0  0  0  0  0  0  0  0  0  0  0
   -2.9110   -1.4840    1.9270 C   0  0  0  0  0  0  0  0  0  0  0  0
   -4.1120   -1.4370    1.4090 C   0  0  0  0  0  0  0  0  0  0  0  0
   -4.4640   -0.4680    0.3530 C   0  0  0  0  0  0  0  0  0  0  0  0
  2  1  1  6
  2  3  1  0
  2 16  1  0
  2 20  1  0
  3  4  2  0
  4  5  1  0
  5  6  2  0
  6  7  1  0
  6 16  1  0
  7  8  1  0
  8  9  1  1
  8 10  1  0
 10 11  1  6
 10 15  1  0
 11 12  1  0
 12 13  1  0
 13 14  1  0
 14 15  1  0
 16 17  2  0
 17 18  1  0
 18 19  2  0
 19 20  1  0
M  END
