
     RDKit          3D

 20 23  0  0  0  0  0  0  0  0999 V2000
    3.2840    2.4100    0.6870 C   0  0  0  0  0  0  0  0  0  0  0  0
    3.3050    1.4240   -0.4780 C   0  0  1  0  0  0  0  0  0  0  0  0
    4.5790    0.6530   -0.5370 C   0  0  0  0  0  0  0  0  0  0  0  0
    4.4650   -0.5660    0.3330 C   0  0  0  0  0  0  0  0  0  0  0  0
    3.4730   -1.5000   -0.3630 C   0  0  0  0  0  0  0  0  0  0  0  0
    2.1530   -0.8240   -0.3180 C   0  0  0  0  0  0  0  0  0  0  0  0
    2.1060    0.5450   -0.3730 C   0  0  0  0  0  0  0  0  0  0  0  0
    0.9240    1.1270   -0.3310 O   0  0  0  0  0  0  0  0  0  0  0  0
   -0.2070    0.4770   -0.2400 C   0  0  0  0  0  0  0  0  0  0  0  0
   -1.4330    1.1340   -0.1990 C   0  0  0  0  0  0  0  0  0  0  0  0
   -2.6230    0.4510   -0.1040 C   0  0  0  0  0  0  0  0  0  0  0  0
   -2.6310   -0.9050   -0.0460 C   0  0  0  0  0  0  0  0  0  0  0  0
   -1.4150   -1.5960   -0.0850 C   0  0  0  0  0  0  0  0  0  0  0  0
   -0.2340   -0.8970   -0.1810 C   0  0  0  0  0  0  0  0  0  0  0  0
    0.9770   -1.5530   -0.2210 C   0  0  0  0  0  0  0  0  0  0  0  0
    1.0310   -2.8010   -0.1710 O   0  0  0  0  0  0  0  0  0  0  0  0
   -3.8490   -1.7370    0.0580 C   0  0  0  0  0  0  0  0  0  0  0  0
   -5.0230   -0.8540    0.3670 C   0  0  0  0  0  0  0  0  0  0  0  0
   -4.9800    0.3250   -0.5870 C   0  0  0  0  0  0  0  0  0  0  0  0
   -3.8730    1.2460   -0.0670 C   0  0  0  0  0  0  0  0  0  0  0  0
  2  1  1  1
  2  3  1  0
  2  7  1  0
  3  4  1  0
  4  5  1  0
  5  6  1  0
  6  7  2  0
  6 15  1  0
  7  8  1  0
  8  9  1  0
  9 10  2  0
  9 14  1  0
 10 11  1  0
 11 12  2  0
 11 20  1  0
 12 13  1  0
 12 17  1  0
 13 14  2  0
 14 15  1  0
 15 16  2  0
 17 18  1  0
 18 19  1  0
 19 20  1  0
M  END
