
     RDKit          3D

 20 22  0  0  0  0  0  0  0  0999 V2000
    3.1500    0.9960   -1.7070 C   0  0  0  0  0  0  0  0  0  0  0  0
    2.2470    0.3390   -1.0120 C   0  0  0  0  0  0  0  0  0  0  0  0
    1.0960   -0.4430   -1.5470 C   0  0  0  0  0  0  0  0  0  0  0  0
    0.1500   -0.6130   -0.4200 C   0  0  2  0  0  0  0  0  0  0  0  0
   -1.0380    0.3110   -0.4520 C   0  0  2  0  0  0  0  0  0  0  0  0
   -0.6730    1.7260   -0.3940 C   0  0  0  0  0  0  0  0  0  0  0  0
   -1.2780    2.5650    0.6370 C   0  0  0  0  0  0  0  0  0  0  0  0
   -2.1560    2.1330    1.4910 C   0  0  0  0  0  0  0  0  0  0  0  0
   -2.5650    0.7430    1.4330 C   0  0  0  0  0  0  0  0  0  0  0  0
   -2.0600   -0.0940    0.5430 C   0  0  0  0  0  0  0  0  0  0  0  0
   -2.5200   -1.4720    0.4390 C   0  0  0  0  0  0  0  0  0  0  0  0
   -2.9190   -2.0760    1.4540 O   0  0  0  0  0  0  0  0  0  0  0  0
   -2.5230   -2.1410   -0.8000 O   0  0  0  0  0  0  0  0  0  0  0  0
   -2.0250   -1.4910   -1.9260 C   0  0  0  0  0  0  0  0  0  0  0  0
   -1.7780   -0.0360   -1.7700 C   0  0  0  0  0  0  0  0  0  0  0  0
    1.0230   -0.6290    0.7470 C   0  0  1  0  0  0  0  0  0  0  0  0
    0.4350   -0.3970    2.0920 C   0  0  0  0  0  0  0  0  0  0  0  0
    1.6350   -2.0530    0.8260 C   0  0  0  0  0  0  0  0  0  0  0  0
    2.1710    0.2300    0.4390 C   0  0  0  0  0  0  0  0  0  0  0  0
    3.0120    0.8200    1.2670 C   0  0  0  0  0  0  0  0  0  0  0  0
  1  2  2  0
  2  3  1  0
  2 19  1  0
  4  3  1  6
  4  5  1  0
  4 16  1  0
  5  6  1  6
  5 10  1  0
  5 15  1  0
  6  7  1  0
  7  8  2  0
  8  9  1  0
  9 10  2  0
 10 11  1  0
 11 12  2  0
 11 13  1  0
 13 14  1  0
 14 15  1  0
 16 17  1  1
 16 18  1  0
 16 19  1  0
 19 20  2  0
M  END
