
     RDKit          3D

 20 22  0  0  0  0  0  0  0  0999 V2000
   -4.3410    2.8770    0.3600 O   0  0  0  0  0  0  0  0  0  0  0  0
   -3.1040    2.2720    0.2270 C   0  0  0  0  0  0  0  0  0  0  0  0
   -2.0160    2.7540    0.7900 C   0  0  0  0  0  0  0  0  0  0  0  0
   -0.6130    2.2730    0.7740 C   0  0  0  0  0  0  0  0  0  0  0  0
    0.2900    1.9940   -0.0730 C   0  0  0  0  0  0  0  0  0  0  0  0
    1.6970    1.5060   -0.1260 C   0  0  0  0  0  0  0  0  0  0  0  0
    2.2040    0.3840    0.3400 C   0  0  0  0  0  0  0  0  0  0  0  0
    3.6300    0.1540    0.1530 C   0  0  0  0  0  0  0  0  0  0  0  0
    4.2980   -0.9790    0.5730 C   0  0  0  0  0  0  0  0  0  0  0  0
    5.6330   -0.8600    0.2340 C   0  0  0  0  0  0  0  0  0  0  0  0
    5.7080    0.3680   -0.3890 C   0  0  0  0  0  0  0  0  0  0  0  0
    4.5260    0.9310   -0.4190 O   0  0  0  0  0  0  0  0  0  0  0  0
    1.4420   -0.6730    1.0380 C   0  0  0  0  0  0  0  0  0  0  0  0
    0.8010   -1.7240    0.1430 C   0  0  0  0  0  0  0  0  0  0  0  0
   -0.5920   -1.4570    0.0240 C   0  0  1  0  0  0  0  0  0  0  0  0
   -0.9300   -1.7330   -1.4630 C   0  0  0  0  0  0  0  0  0  0  0  0
   -1.7140   -2.2030   -0.3580 C   0  0  2  0  0  0  0  0  0  0  0  0
   -3.0460   -1.5210   -0.3760 C   0  0  0  0  0  0  0  0  0  0  0  0
   -3.2380   -0.2140    0.2250 C   0  0  0  0  0  0  0  0  0  0  0  0
   -3.1260    1.0330   -0.6080 C   0  0  0  0  0  0  0  0  0  0  0  0
  1  2  1  0
  2  3  2  0
  2 20  1  0
  3  4  1  0
  4  5  2  0
  5  6  1  0
  6  7  2  0
  7  8  1  0
  7 13  1  0
  8  9  2  0
  8 12  1  0
  9 10  1  0
 10 11  2  0
 11 12  1  0
 13 14  1  0
 15 14  1  1
 15 16  1  0
 15 17  1  0
 17 16  1  6
 17 18  1  0
 18 19  1  0
 19 20  1  0
M  END
