
     RDKit          3D

 40 44  0  0  0  0  0  0  0  0999 V2000
   10.0410    1.6070   -0.5660 C   0  0  0  0  0  0  0  0  0  0  0  0
    8.5910    1.6230   -0.2740 C   0  0  0  0  0  0  0  0  0  0  0  0
    7.6560    0.7220   -0.5730 N   0  0  0  0  0  0  0  0  0  0  0  0
    6.4910    1.1670   -0.1070 C   0  0  0  0  0  0  0  0  0  0  0  0
    5.1940    0.4660   -0.2280 C   0  0  0  0  0  0  0  0  0  0  0  0
    4.0640    1.0390    0.2990 C   0  0  0  0  0  0  0  0  0  0  0  0
    2.8410    0.3650    0.1770 C   0  0  0  0  0  0  0  0  0  0  0  0
    2.7230   -0.8340   -0.4410 C   0  0  0  0  0  0  0  0  0  0  0  0
    1.5180   -1.5530   -0.5900 N   0  0  0  0  0  0  0  0  0  0  0  0
    0.2310   -1.1680   -0.1320 C   0  0  0  0  0  0  0  0  0  0  0  0
    0.1320   -0.0740    0.4720 O   0  0  0  0  0  0  0  0  0  0  0  0
   -0.8930   -2.0470   -0.3840 C   0  0  0  0  0  0  0  0  0  0  0  0
   -2.1430   -1.8940   -0.0530 C   0  0  0  0  0  0  0  0  0  0  0  0
   -2.6050   -0.7020    0.6840 C   0  0  0  0  0  0  0  0  0  0  0  0
   -3.5720   -0.0300   -0.1150 O   0  0  0  0  0  0  0  0  0  0  0  0
   -4.1730    1.1240    0.3360 C   0  0  0  0  0  0  0  0  0  0  0  0
   -5.1040    1.7760   -0.4300 C   0  0  0  0  0  0  0  0  0  0  0  0
   -5.7020    2.9350    0.0330 C   0  0  0  0  0  0  0  0  0  0  0  0
   -5.3870    3.4710    1.2660 C   0  0  0  0  0  0  0  0  0  0  0  0
   -6.0310    4.6950    1.7350 C   0  0  0  0  0  0  0  0  0  0  0  0
   -6.0060    5.9040    0.9720 N   0  0  0  0  0  0  0  0  0  0  0  0
   -6.8190    4.7420    3.1710 S   0  0  0  0  0  0  0  0  0  0  0  0
   -4.4500    2.7980    2.0160 C   0  0  0  0  0  0  0  0  0  0  0  0
   -4.0150    3.4430    3.5950 Cl  0  0  0  0  0  0  0  0  0  0  0  0
   -3.8330    1.6290    1.5720 C   0  0  0  0  0  0  0  0  0  0  0  0
   -3.1830   -2.8970   -0.3950 C   0  0  0  0  0  0  0  0  0  0  0  0
   -4.4940   -2.6990    0.0200 C   0  0  0  0  0  0  0  0  0  0  0  0
   -5.4930   -3.6170   -0.2920 C   0  0  0  0  0  0  0  0  0  0  0  0
   -5.2190   -4.7510   -1.0220 C   0  0  0  0  0  0  0  0  0  0  0  0
   -3.9250   -4.9460   -1.4320 C   0  0  0  0  0  0  0  0  0  0  0  0
   -2.9180   -4.0240   -1.1190 C   0  0  0  0  0  0  0  0  0  0  0  0
   -3.8900   -6.1280   -2.1360 O   0  0  0  0  0  0  0  0  0  0  0  0
   -5.0540   -6.8530   -1.8340 C   0  0  0  0  0  0  0  0  0  0  0  0
   -5.9620   -5.8270   -1.4860 O   0  0  0  0  0  0  0  0  0  0  0  0
    3.9070   -1.3780   -0.9630 C   0  0  0  0  0  0  0  0  0  0  0  0
    3.8630   -2.9420   -1.7920 Cl  0  0  0  0  0  0  0  0  0  0  0  0
    5.1190   -0.7440   -0.8610 C   0  0  0  0  0  0  0  0  0  0  0  0
    6.7070    2.3240    0.4690 O   0  0  0  0  0  0  0  0  0  0  0  0
    7.9720    2.6570    0.4000 C   0  0  0  0  0  0  0  0  0  0  0  0
    8.6250    3.8850    0.9290 C   0  0  0  0  0  0  0  0  0  0  0  0
  1  2  1  0
  2  3  1  0
  2 39  2  0
  3  4  2  0
  4  5  1  0
  4 38  1  0
  5  6  2  0
  5 37  1  0
  6  7  1  0
  7  8  2  0
  8  9  1  0
  8 35  1  0
  9 10  1  0
 10 11  2  0
 10 12  1  0
 12 13  2  3
 13 14  1  0
 13 26  1  0
 14 15  1  0
 15 16  1  0
 16 17  2  0
 16 25  1  0
 17 18  1  0
 18 19  2  0
 19 20  1  0
 19 23  1  0
 20 21  1  0
 20 22  2  0
 23 24  1  0
 23 25  2  0
 26 27  2  0
 26 31  1  0
 27 28  1  0
 28 29  2  0
 29 30  1  0
 29 34  1  0
 30 31  2  0
 30 32  1  0
 32 33  1  0
 33 34  1  0
 35 36  1  0
 35 37  2  0
 38 39  1  0
 39 40  1  0
M  END
