
     RDKit          3D

 40 44  0  0  0  0  0  0  0  0999 V2000
   -5.5540    0.8350   -1.3720 C   0  0  0  0  0  0  0  0  0  0  0  0
   -6.2390   -0.1840   -0.5480 C   0  0  0  0  0  0  0  0  0  0  0  0
   -7.5280    0.0620   -0.1310 C   0  0  0  0  0  0  0  0  0  0  0  0
   -8.1530   -0.9130    0.5960 C   0  0  0  0  0  0  0  0  0  0  0  0
   -7.5440   -2.0990    0.9110 C   0  0  0  0  0  0  0  0  0  0  0  0
   -8.3590   -3.3380    1.8520 Cl  0  0  0  0  0  0  0  0  0  0  0  0
   -6.2420   -2.3090    0.4710 C   0  0  0  0  0  0  0  0  0  0  0  0
   -5.4850   -3.8360    0.8900 Cl  0  0  0  0  0  0  0  0  0  0  0  0
   -5.5750   -1.3500   -0.2640 C   0  0  0  0  0  0  0  0  0  0  0  0
   -4.2060   -1.5570   -0.6650 N   0  0  0  0  0  0  0  0  0  0  0  0
   -3.1350   -1.4140    0.3000 C   0  0  0  0  0  0  0  0  0  0  0  0
   -3.5130   -1.1430    1.4640 O   0  0  0  0  0  0  0  0  0  0  0  0
   -1.7890   -1.5690   -0.0500 N   0  0  0  0  0  0  0  0  0  0  0  0
   -0.7080   -1.4500    0.8410 C   0  0  0  0  0  0  0  0  0  0  0  0
   -0.5190   -0.1080    1.4960 C   0  0  0  0  0  0  0  0  0  0  0  0
   -0.2720    0.9950    0.5720 C   0  0  0  0  0  0  0  0  0  0  0  0
    1.0170    0.9800   -0.0570 C   0  0  0  0  0  0  0  0  0  0  0  0
    1.8890    0.0240    0.2360 O   0  0  0  0  0  0  0  0  0  0  0  0
    3.1020   -0.4420    0.0900 C   0  0  0  0  0  0  0  0  0  0  0  0
    3.3210   -1.7800    0.4970 C   0  0  0  0  0  0  0  0  0  0  0  0
    4.5480   -2.3920    0.4060 C   0  0  0  0  0  0  0  0  0  0  0  0
    5.6150   -1.6900   -0.0990 C   0  0  0  0  0  0  0  0  0  0  0  0
    6.9740   -2.2590   -0.1870 C   0  0  0  0  0  0  0  0  0  0  0  0
    7.1160   -3.4930   -0.2140 O   0  0  0  0  0  0  0  0  0  0  0  0
    8.0970   -1.3800   -0.2370 C   0  0  0  0  0  0  0  0  0  0  0  0
    9.0450   -1.0480    0.7150 C   0  0  0  0  0  0  0  0  0  0  0  0
   10.0130   -0.1990    0.3940 C   0  0  0  0  0  0  0  0  0  0  0  0
   10.0840    0.3460   -0.8500 C   0  0  0  0  0  0  0  0  0  0  0  0
    8.6140   -0.4170   -1.6900 S   0  0  0  0  0  0  0  0  0  0  0  0
    5.4080   -0.3940   -0.4970 C   0  0  0  0  0  0  0  0  0  0  0  0
    4.1870    0.2310   -0.4100 C   0  0  0  0  0  0  0  0  0  0  0  0
    1.2800    2.0010   -0.9460 C   0  0  0  0  0  0  0  0  0  0  0  0
    0.3930    3.0220   -1.2590 C   0  0  0  0  0  0  0  0  0  0  0  0
   -0.8320    3.0220   -0.6460 C   0  0  0  0  0  0  0  0  0  0  0  0
   -1.1440    2.0030    0.2640 C   0  0  0  0  0  0  0  0  0  0  0  0
   -2.4000    2.0480    0.9510 N   0  0  0  0  0  0  0  0  0  0  0  0
   -3.2610    3.1390    0.6580 C   0  0  0  0  0  0  0  0  0  0  0  0
   -4.1930    3.3990    1.4710 O   0  0  0  0  0  0  0  0  0  0  0  0
   -3.1090    3.9680   -0.5530 C   0  0  0  0  0  0  0  0  0  0  0  0
   -1.7570    4.0080   -0.9120 O   0  0  0  0  0  0  0  0  0  0  0  0
  1  2  1  0
  2  3  2  0
  2  9  1  0
  3  4  1  0
  4  5  2  0
  5  6  1  0
  5  7  1  0
  7  8  1  0
  7  9  2  0
  9 10  1  0
 10 11  1  0
 11 12  2  0
 11 13  1  0
 13 14  1  0
 14 15  1  0
 15 16  1  0
 16 17  1  0
 16 35  2  0
 17 18  1  0
 17 32  2  0
 18 19  1  0
 19 20  2  0
 19 31  1  0
 20 21  1  0
 21 22  2  0
 22 23  1  0
 22 30  1  0
 23 24  2  0
 23 25  1  0
 25 26  2  0
 25 29  1  0
 26 27  1  0
 27 28  2  0
 28 29  1  0
 30 31  2  0
 32 33  1  0
 33 34  2  0
 34 35  1  0
 34 40  1  0
 35 36  1  0
 36 37  1  0
 37 38  2  0
 37 39  1  0
 39 40  1  0
M  END
