
     RDKit          3D

 40 44  0  0  0  0  0  0  0  0999 V2000
   -9.1520   -2.2570    0.2460 C   0  0  0  0  0  0  0  0  0  0  0  0
   -7.7130   -2.4940    0.4600 C   0  0  0  0  0  0  0  0  0  0  0  0
   -7.1680   -3.9470    1.2960 Cl  0  0  0  0  0  0  0  0  0  0  0  0
   -6.8240   -1.5920    0.0130 C   0  0  0  0  0  0  0  0  0  0  0  0
   -7.4600   -0.1960   -0.7960 Cl  0  0  0  0  0  0  0  0  0  0  0  0
   -5.4310   -1.8330    0.2300 C   0  0  0  0  0  0  0  0  0  0  0  0
   -4.3980   -1.0560   -0.1390 C   0  0  0  0  0  0  0  0  0  0  0  0
   -4.6090    0.1760   -0.8380 C   0  0  0  0  0  0  0  0  0  0  0  0
   -2.9730    0.8120   -1.0190 S   0  0  1  0  0  0  0  0  0  0  0  0
   -2.8370    0.9280   -2.5150 O   0  0  0  0  0  0  0  0  0  0  0  0
   -3.0130    2.2930   -0.2360 N   0  0  0  0  0  0  0  0  0  0  0  0
   -4.2370    3.0420   -0.2320 C   0  0  0  0  0  0  0  0  0  0  0  0
   -4.5180    4.0410   -1.1360 C   0  0  0  0  0  0  0  0  0  0  0  0
   -5.7210    4.7350   -1.1070 C   0  0  0  0  0  0  0  0  0  0  0  0
   -6.6860    4.4510   -0.1690 C   0  0  0  0  0  0  0  0  0  0  0  0
   -6.4040    3.4450    0.7420 C   0  0  0  0  0  0  0  0  0  0  0  0
   -5.2110    2.7550    0.7150 C   0  0  0  0  0  0  0  0  0  0  0  0
   -2.1400   -0.4370   -0.3220 C   0  0  0  0  0  0  0  0  0  0  0  0
   -0.7570   -0.6400   -0.1310 C   0  0  0  0  0  0  0  0  0  0  0  0
   -0.2500   -1.7440    0.4980 C   0  0  0  0  0  0  0  0  0  0  0  0
    1.1860   -1.9740    0.7070 C   0  0  0  0  0  0  0  0  0  0  0  0
    1.5370   -2.9240    1.4760 O   0  0  0  0  0  0  0  0  0  0  0  0
    2.1720   -1.1950    0.0990 N   0  0  0  0  0  0  0  0  0  0  0  0
    3.5530   -1.4040    0.2990 C   0  0  0  0  0  0  0  0  0  0  0  0
    4.1890   -2.2450    1.1480 C   0  0  0  0  0  0  0  0  0  0  0  0
    5.5270   -2.1140    0.9880 N   0  0  0  0  0  0  0  0  0  0  0  0
    5.7680   -1.1950    0.0420 C   0  0  0  0  0  0  0  0  0  0  0  0
    7.1250   -0.7920   -0.3960 C   0  0  0  0  0  0  0  0  0  0  0  0
    7.2840    0.0740   -1.2930 O   0  0  0  0  0  0  0  0  0  0  0  0
    8.2380   -1.3480    0.1590 O   0  0  0  0  0  0  0  0  0  0  0  0
    9.5710   -1.0690   -0.1530 C   0  0  0  0  0  0  0  0  0  0  0  0
    9.9290    0.3400    0.0770 C   0  0  0  0  0  0  0  0  0  0  0  0
    9.9600    1.3540   -0.8780 C   0  0  0  0  0  0  0  0  0  0  0  0
   10.3440    2.4980   -0.2310 C   0  0  0  0  0  0  0  0  0  0  0  0
   10.5310    2.1440    1.0790 C   0  0  0  0  0  0  0  0  0  0  0  0
   10.2760    0.8500    1.2320 O   0  0  0  0  0  0  0  0  0  0  0  0
    4.5680   -0.7390   -0.4020 C   0  0  0  0  0  0  0  0  0  0  0  0
   -1.1520   -2.6810    0.9540 C   0  0  0  0  0  0  0  0  0  0  0  0
   -2.5030   -2.5150    0.7840 C   0  0  0  0  0  0  0  0  0  0  0  0
   -3.0140   -1.3810    0.1380 C   0  0  0  0  0  0  0  0  0  0  0  0
  1  2  1  0
  2  3  1  0
  2  4  2  3
  4  5  1  0
  4  6  1  0
  6  7  2  3
  7  8  1  0
  7 40  1  0
  8  9  2  0
  9 10  2  0
  9 11  1  1
  9 18  1  0
 11 12  1  0
 12 13  2  0
 12 17  1  0
 13 14  1  0
 14 15  2  0
 15 16  1  0
 16 17  2  0
 18 19  2  0
 18 40  1  0
 19 20  1  0
 20 21  1  0
 20 38  2  0
 21 22  2  0
 21 23  1  0
 23 24  1  0
 24 25  2  0
 24 37  1  0
 25 26  1  0
 26 27  1  0
 27 28  1  0
 27 37  2  0
 28 29  2  0
 28 30  1  0
 30 31  1  0
 31 32  1  0
 32 33  2  0
 32 36  1  0
 33 34  1  0
 34 35  2  0
 35 36  1  0
 38 39  1  0
 39 40  2  0
M  END
