
     RDKit          3D

 40 44  0  0  0  0  0  0  0  0999 V2000
   -5.9750   -4.5980   -0.4970 C   0  0  0  0  0  0  0  0  0  0  0  0
   -4.6340   -4.1930   -0.4530 O   0  0  0  0  0  0  0  0  0  0  0  0
   -4.2250   -2.8990   -0.1600 C   0  0  0  0  0  0  0  0  0  0  0  0
   -5.1060   -2.0710    0.0710 O   0  0  0  0  0  0  0  0  0  0  0  0
   -2.8110   -2.5380   -0.1300 C   0  0  0  0  0  0  0  0  0  0  0  0
   -1.8280   -3.4520   -0.4330 N   0  0  0  0  0  0  0  0  0  0  0  0
   -0.6740   -2.7910   -0.3640 C   0  0  0  0  0  0  0  0  0  0  0  0
    0.6390   -3.4360   -0.6250 C   0  0  0  0  0  0  0  0  0  0  0  0
   -0.8850   -1.4860   -0.0260 C   0  0  0  0  0  0  0  0  0  0  0  0
    0.0900   -0.3990    0.1580 C   0  0  0  0  0  0  0  0  0  0  0  0
    0.6440   -0.1180    1.2310 O   0  0  0  0  0  0  0  0  0  0  0  0
    0.3780    0.3430   -0.9800 O   0  0  0  0  0  0  0  0  0  0  0  0
    1.2420    1.4150   -1.0400 C   0  0  0  0  0  0  0  0  0  0  0  0
    2.6080    1.0320   -0.6490 C   0  0  0  0  0  0  0  0  0  0  0  0
    2.9420   -0.3100   -0.6140 C   0  0  0  0  0  0  0  0  0  0  0  0
    4.2080   -0.7070   -0.2520 C   0  0  0  0  0  0  0  0  0  0  0  0
    4.5630   -2.1290   -0.2140 C   0  0  0  0  0  0  0  0  0  0  0  0
    5.1470    0.2810    0.0790 C   0  0  0  0  0  0  0  0  0  0  0  0
    4.8590    1.6040    0.0580 C   0  0  0  0  0  0  0  0  0  0  0  0
    3.5520    1.9520   -0.3190 C   0  0  0  0  0  0  0  0  0  0  0  0
    5.7900    2.6690    0.3960 C   0  0  0  0  0  0  0  0  0  0  0  0
    7.1660    2.1320    0.7600 C   0  0  0  0  0  0  0  0  0  0  0  0
    7.4540    0.8370    0.7820 C   0  0  0  0  0  0  0  0  0  0  0  0
    8.7280    0.4240    1.1290 C   0  0  0  0  0  0  0  0  0  0  0  0
    9.5960    1.9690    1.4500 S   0  0  0  0  0  0  0  0  0  0  0  0
    8.2010    3.0370    1.0990 C   0  0  0  0  0  0  0  0  0  0  0  0
    8.1590    4.7850    1.1660 Cl  0  0  0  0  0  0  0  0  0  0  0  0
    6.4300   -0.1400    0.4350 N   0  0  0  0  0  0  0  0  0  0  0  0
   -2.2930   -1.3200    0.1310 C   0  0  0  0  0  0  0  0  0  0  0  0
   -2.8220   -0.0650    0.5820 C   0  0  0  0  0  0  0  0  0  0  0  0
   -2.2810    1.0190    0.1220 O   0  0  0  0  0  0  0  0  0  0  0  0
   -3.8700    0.1720    1.4860 N   0  0  0  0  0  0  0  0  0  0  0  0
   -4.3140    1.5180    1.8440 C   0  0  0  0  0  0  0  0  0  0  0  0
   -5.1570    2.1440    0.8130 C   0  0  0  0  0  0  0  0  0  0  0  0
   -4.6860    3.0660   -0.0830 C   0  0  0  0  0  0  0  0  0  0  0  0
   -5.5540    3.6080   -1.0290 C   0  0  0  0  0  0  0  0  0  0  0  0
   -6.8740    3.2570   -1.1050 C   0  0  0  0  0  0  0  0  0  0  0  0
   -7.3620    2.3210   -0.2000 C   0  0  0  0  0  0  0  0  0  0  0  0
   -9.0610    1.8600   -0.2840 Cl  0  0  0  0  0  0  0  0  0  0  0  0
   -6.5100    1.7820    0.7370 C   0  0  0  0  0  0  0  0  0  0  0  0
  1  2  1  0
  2  3  1  0
  3  4  2  0
  3  5  1  0
  5  6  1  0
  5 29  2  0
  6  7  1  0
  7  8  1  0
  7  9  2  0
  9 10  1  0
  9 29  1  0
 10 11  2  0
 10 12  1  0
 12 13  1  0
 13 14  1  0
 14 15  2  0
 14 20  1  0
 15 16  1  0
 16 17  1  0
 16 18  2  0
 18 19  1  0
 18 28  1  0
 19 20  2  0
 19 21  1  0
 21 22  1  0
 22 23  1  0
 22 26  2  0
 23 24  2  0
 23 28  1  0
 24 25  1  0
 25 26  1  0
 26 27  1  0
 29 30  1  0
 30 31  2  0
 30 32  1  0
 32 33  1  0
 33 34  1  0
 34 35  2  0
 34 40  1  0
 35 36  1  0
 36 37  2  0
 37 38  1  0
 38 39  1  0
 38 40  2  0
M  END
