
     RDKit          3D

 40 44  0  0  0  0  0  0  0  0999 V2000
   -7.2590    3.4180    0.4600 C   0  0  0  0  0  0  0  0  0  0  0  0
   -6.9340    2.0210   -0.0280 C   0  0  0  0  0  0  0  0  0  0  0  0
   -7.1380    1.0120    1.0610 C   0  0  0  0  0  0  0  0  0  0  0  0
   -6.8310   -0.3890    0.6440 C   0  0  0  0  0  0  0  0  0  0  0  0
   -7.7100   -1.4030    0.6080 C   0  0  0  0  0  0  0  0  0  0  0  0
   -9.0760   -1.2610    0.9720 N   0  0  0  0  0  0  0  0  0  0  0  0
   -7.0920   -2.6280    0.1630 C   0  0  0  0  0  0  0  0  0  0  0  0
   -7.5750   -3.7740   -0.0000 O   0  0  0  0  0  0  0  0  0  0  0  0
   -5.6850   -2.2990   -0.0920 C   0  0  0  0  0  0  0  0  0  0  0  0
   -4.6130   -3.0730   -0.5330 C   0  0  0  0  0  0  0  0  0  0  0  0
   -3.3730   -2.4950   -0.6850 C   0  0  0  0  0  0  0  0  0  0  0  0
   -2.2620   -3.2140   -1.1220 O   0  0  0  0  0  0  0  0  0  0  0  0
   -2.3180   -4.5720   -1.4380 C   0  0  0  0  0  0  0  0  0  0  0  0
   -3.2370   -1.1580   -0.3930 C   0  0  0  0  0  0  0  0  0  0  0  0
   -1.9650   -0.5500   -0.5430 N   0  0  0  0  0  0  0  0  0  0  0  0
   -1.6330    0.6580   -1.1940 C   0  0  0  0  0  0  0  0  0  0  0  0
   -2.4200    1.4490   -1.7840 O   0  0  0  0  0  0  0  0  0  0  0  0
   -0.1950    0.9020   -1.1040 C   0  0  0  0  0  0  0  0  0  0  0  0
    0.6350    1.9160   -1.5610 C   0  0  0  0  0  0  0  0  0  0  0  0
    2.0100    1.8350   -1.2890 C   0  0  0  0  0  0  0  0  0  0  0  0
    2.5580    0.8030   -0.5970 C   0  0  0  0  0  0  0  0  0  0  0  0
    3.9370    0.6920   -0.2860 N   0  0  0  0  0  0  0  0  0  0  0  0
    4.9140    1.6760   -0.3860 C   0  0  0  0  0  0  0  0  0  0  0  0
    4.5690    2.8320   -0.7960 O   0  0  0  0  0  0  0  0  0  0  0  0
    6.3040    1.4580   -0.0490 C   0  0  0  0  0  0  0  0  0  0  0  0
    7.5100    2.8330   -0.2070 S   0  0  0  0  0  0  0  0  0  0  0  0
    8.9260    1.8440    0.3550 C   0  0  0  0  0  0  0  0  0  0  0  0
   10.3300    2.3560    0.4800 C   0  0  0  0  0  0  0  0  0  0  0  0
    8.3750    0.6200    0.5990 C   0  0  0  0  0  0  0  0  0  0  0  0
    9.2830   -0.5080    1.1040 C   0  0  0  0  0  0  0  0  0  0  0  0
    9.5830   -0.3150    2.5530 C   0  0  0  0  0  0  0  0  0  0  0  0
   10.6350   -1.6530    3.0760 Cl  0  0  0  0  0  0  0  0  0  0  0  0
    7.0590    0.4250    0.3970 C   0  0  0  0  0  0  0  0  0  0  0  0
    6.2540   -1.1720    0.7010 Cl  0  0  0  0  0  0  0  0  0  0  0  0
    1.6960   -0.1940   -0.1570 C   0  0  0  0  0  0  0  0  0  0  0  0
    0.3260   -0.1560   -0.4020 C   0  0  0  0  0  0  0  0  0  0  0  0
   -0.7420   -1.0720   -0.0410 C   0  0  0  0  0  0  0  0  0  0  0  0
   -0.5900   -2.1620    0.6190 O   0  0  0  0  0  0  0  0  0  0  0  0
   -4.3050   -0.3900    0.0460 C   0  0  0  0  0  0  0  0  0  0  0  0
   -5.5670   -0.9590    0.2040 C   0  0  0  0  0  0  0  0  0  0  0  0
  1  2  1  0
  2  3  1  0
  3  4  1  0
  4  5  2  0
  4 40  1  0
  5  6  1  0
  5  7  1  0
  7  8  2  0
  7  9  1  0
  9 10  2  0
  9 40  1  0
 10 11  1  0
 11 12  1  0
 11 14  2  0
 12 13  1  0
 14 15  1  0
 14 39  1  0
 15 16  1  0
 15 37  1  0
 16 17  2  0
 16 18  1  0
 18 19  2  0
 18 36  1  0
 19 20  1  0
 20 21  2  0
 21 22  1  0
 21 35  1  0
 22 23  1  0
 23 24  2  0
 23 25  1  0
 25 26  1  0
 25 33  2  0
 26 27  1  0
 27 28  1  0
 27 29  2  0
 29 30  1  0
 29 33  1  0
 30 31  1  0
 31 32  1  0
 33 34  1  0
 35 36  2  0
 36 37  1  0
 37 38  2  0
 39 40  2  0
M  END
