
     RDKit          3D

 40 44  0  0  0  0  0  0  0  0999 V2000
   -3.9810   -5.2890    0.1350 C   0  0  0  0  0  0  0  0  0  0  0  0
   -2.9880   -4.2250   -0.2550 C   0  0  0  0  0  0  0  0  0  0  0  0
   -1.8940   -4.4620   -1.0470 C   0  0  0  0  0  0  0  0  0  0  0  0
   -1.2680   -3.2530   -1.1550 C   0  0  0  0  0  0  0  0  0  0  0  0
   -2.0160   -2.3080   -0.4120 C   0  0  0  0  0  0  0  0  0  0  0  0
   -1.5270   -0.9350   -0.3880 C   0  0  0  0  0  0  0  0  0  0  0  0
   -0.1620   -0.7920   -0.2870 N   0  0  0  0  0  0  0  0  0  0  0  0
    0.4560    0.3240    0.0490 C   0  0  0  0  0  0  0  0  0  0  0  0
    2.2640    0.3930    0.1430 S   0  0  0  0  0  0  0  0  0  0  0  0
    2.9040   -1.2470   -0.2890 C   0  0  0  0  0  0  0  0  0  0  0  0
    4.4090   -1.2520   -0.2290 C   0  0  0  0  0  0  0  0  0  0  0  0
    5.0470   -2.2880   -0.4920 O   0  0  0  0  0  0  0  0  0  0  0  0
    5.1040   -0.0780    0.1270 N   0  0  0  0  0  0  0  0  0  0  0  0
    6.5020    0.0830    0.2270 C   0  0  0  0  0  0  0  0  0  0  0  0
    6.9430    1.3260    0.7140 C   0  0  0  0  0  0  0  0  0  0  0  0
    8.2900    1.5730    0.8390 C   0  0  0  0  0  0  0  0  0  0  0  0
    9.2310    0.6250    0.4960 C   0  0  0  0  0  0  0  0  0  0  0  0
   10.5830    0.8920    0.6280 O   0  0  0  0  0  0  0  0  0  0  0  0
    8.7760   -0.5670    0.0280 C   0  0  0  0  0  0  0  0  0  0  0  0
    9.7790   -1.6140   -0.3530 C   0  0  0  0  0  0  0  0  0  0  0  0
    7.4300   -0.8670   -0.1180 C   0  0  0  0  0  0  0  0  0  0  0  0
   -0.2850    1.3980    0.3150 N   0  0  0  0  0  0  0  0  0  0  0  0
   -1.6100    1.3820    0.2450 C   0  0  0  0  0  0  0  0  0  0  0  0
   -2.3810    2.4910    0.4910 C   0  0  0  0  0  0  0  0  0  0  0  0
   -1.5700    3.9630    0.9580 Cl  0  0  0  0  0  0  0  0  0  0  0  0
   -3.7460    2.5080    0.3920 C   0  0  0  0  0  0  0  0  0  0  0  0
   -4.4940    3.6990    0.6700 C   0  0  0  0  0  0  0  0  0  0  0  0
   -4.8950    3.9140    1.8410 O   0  0  0  0  0  0  0  0  0  0  0  0
   -4.8070    4.6830   -0.3920 C   0  0  0  0  0  0  0  0  0  0  0  0
   -5.6030    5.8550    0.1340 C   0  0  0  0  0  0  0  0  0  0  0  0
   -4.6890    6.7010    1.4030 Cl  0  0  0  0  0  0  0  0  0  0  0  0
   -4.3620    1.3400    0.0170 C   0  0  0  0  0  0  0  0  0  0  0  0
   -3.6160    0.1710   -0.2480 C   0  0  0  0  0  0  0  0  0  0  0  0
   -2.2680    0.1650   -0.1300 C   0  0  0  0  0  0  0  0  0  0  0  0
   -4.3330   -0.9340   -0.9210 C   0  0  0  0  0  0  0  0  0  0  0  0
   -3.7700   -1.4120   -1.9320 O   0  0  0  0  0  0  0  0  0  0  0  0
   -5.6250   -1.3230   -0.3260 C   0  0  0  0  0  0  0  0  0  0  0  0
   -6.2330   -0.1470    0.4350 C   0  0  0  0  0  0  0  0  0  0  0  0
   -5.8300    1.1900   -0.1430 C   0  0  0  0  0  0  0  0  0  0  0  0
   -2.9890   -2.9730    0.0680 O   0  0  0  0  0  0  0  0  0  0  0  0
  1  2  1  0
  2  3  2  0
  2 40  1  0
  3  4  1  0
  4  5  2  0
  5  6  1  0
  5 40  1  0
  6  7  2  0
  6 34  1  0
  7  8  1  0
  8  9  1  0
  8 22  2  0
  9 10  1  0
 10 11  1  0
 11 12  2  0
 11 13  1  0
 13 14  1  0
 14 15  2  0
 14 21  1  0
 15 16  1  0
 16 17  2  0
 17 18  1  0
 17 19  1  0
 19 20  1  0
 19 21  2  0
 22 23  1  0
 23 24  2  0
 23 34  1  0
 24 25  1  0
 24 26  1  0
 26 27  1  0
 26 32  2  0
 27 28  2  0
 27 29  1  0
 29 30  1  0
 30 31  1  0
 32 33  1  0
 32 39  1  0
 33 34  2  0
 33 35  1  0
 35 36  2  0
 35 37  1  0
 37 38  1  0
 38 39  1  0
M  END
