
     RDKit          3D

 40 44  0  0  0  0  0  0  0  0999 V2000
    8.3630    0.2940    0.6680 C   0  0  0  0  0  0  0  0  0  0  0  0
    6.9850    0.8500    0.5090 C   0  0  0  0  0  0  0  0  0  0  0  0
    6.7610    2.2130    0.7440 C   0  0  0  0  0  0  0  0  0  0  0  0
    5.4720    2.7230    0.6000 C   0  0  0  0  0  0  0  0  0  0  0  0
    4.4060    1.9420    0.2360 C   0  0  0  0  0  0  0  0  0  0  0  0
    3.1230    2.3760    0.1570 C   0  0  0  0  0  0  0  0  0  0  0  0
    2.8850    3.6220    0.3740 O   0  0  0  0  0  0  0  0  0  0  0  0
    2.0210    1.5260   -0.1570 C   0  0  0  0  0  0  0  0  0  0  0  0
    0.7210    2.1630   -0.1000 C   0  0  0  0  0  0  0  0  0  0  0  0
   -0.4820    1.3670   -0.1590 N   0  0  0  0  0  0  0  0  0  0  0  0
   -0.7400    0.4030    0.8180 C   0  0  0  0  0  0  0  0  0  0  0  0
    0.2060    0.3110    1.7060 O   0  0  0  0  0  0  0  0  0  0  0  0
   -1.8820   -0.4620    0.9750 C   0  0  0  0  0  0  0  0  0  0  0  0
   -1.7130   -1.5510    1.8560 C   0  0  0  0  0  0  0  0  0  0  0  0
   -2.6310   -2.5350    2.0380 C   0  0  0  0  0  0  0  0  0  0  0  0
   -2.3580   -3.8550    3.1600 Cl  0  0  0  0  0  0  0  0  0  0  0  0
   -3.8150   -2.5030    1.3330 C   0  0  0  0  0  0  0  0  0  0  0  0
   -4.8360   -3.5890    1.5650 C   0  0  0  0  0  0  0  0  0  0  0  0
   -5.3650   -4.3530    0.6270 C   0  0  0  0  0  0  0  0  0  0  0  0
   -6.3050   -5.3200    0.9290 C   0  0  0  0  0  0  0  0  0  0  0  0
   -6.4400   -5.0960    2.7460 S   0  0  0  0  0  0  0  0  0  0  0  0
   -5.2810   -3.8090    2.8720 C   0  0  0  0  0  0  0  0  0  0  0  0
   -3.9920   -1.4730    0.4900 C   0  0  0  0  0  0  0  0  0  0  0  0
   -3.0520   -0.4200    0.2760 C   0  0  0  0  0  0  0  0  0  0  0  0
   -3.4550    0.4660   -0.5630 O   0  0  0  0  0  0  0  0  0  0  0  0
   -3.8560    1.3520   -1.4050 C   0  0  0  0  0  0  0  0  0  0  0  0
   -3.4000    1.5320   -2.6880 C   0  0  0  0  0  0  0  0  0  0  0  0
   -3.9110    2.5260   -3.4960 C   0  0  0  0  0  0  0  0  0  0  0  0
   -3.4890    2.7480   -4.7970 O   0  0  0  0  0  0  0  0  0  0  0  0
   -4.8890    3.3630   -3.0430 N   0  0  0  0  0  0  0  0  0  0  0  0
   -5.3800    3.2410   -1.8030 C   0  0  0  0  0  0  0  0  0  0  0  0
   -4.8910    2.2680   -0.9810 C   0  0  0  0  0  0  0  0  0  0  0  0
   -5.4390    2.0300    0.6690 Cl  0  0  0  0  0  0  0  0  0  0  0  0
    2.2790    0.2180   -0.3970 C   0  0  0  0  0  0  0  0  0  0  0  0
    1.2840   -0.7890   -0.9050 C   0  0  0  0  0  0  0  0  0  0  0  0
    3.5800   -0.2110   -0.3080 N   0  0  0  0  0  0  0  0  0  0  0  0
    4.6060    0.5810   -0.0050 C   0  0  0  0  0  0  0  0  0  0  0  0
    5.9040    0.1030    0.1490 C   0  0  0  0  0  0  0  0  0  0  0  0
    6.0890   -1.3530   -0.0200 C   0  0  0  0  0  0  0  0  0  0  0  0
    5.8430   -1.9980    1.0570 O   0  0  0  0  0  0  0  0  0  0  0  0
  1  2  1  0
  2  3  2  0
  2 38  1  0
  3  4  1  0
  4  5  2  0
  5  6  1  0
  5 37  1  0
  6  7  2  0
  6  8  1  0
  8  9  1  0
  8 34  2  0
  9 10  1  0
 10 11  1  0
 11 12  2  0
 11 13  1  0
 13 14  2  0
 13 24  1  0
 14 15  1  0
 15 16  1  0
 15 17  2  0
 17 18  1  0
 17 23  1  0
 18 19  1  0
 18 22  2  0
 19 20  2  0
 20 21  1  0
 21 22  1  0
 23 24  2  0
 24 25  1  0
 25 26  1  0
 26 27  2  0
 26 32  1  0
 27 28  1  0
 28 29  1  0
 28 30  2  0
 30 31  1  0
 31 32  2  0
 32 33  1  0
 34 35  1  0
 34 36  1  0
 36 37  1  0
 37 38  2  0
 38 39  1  0
 39 40  2  0
M  END
