
     RDKit          3D

 40 44  0  0  0  0  0  0  0  0999 V2000
    0.2730   -3.9400   -2.0310 C   0  0  0  0  0  0  0  0  0  0  0  0
    0.2680   -2.4910   -1.5720 C   0  0  0  0  0  0  0  0  0  0  0  0
    1.6650   -1.5080   -1.4860 S   0  0  0  0  0  0  0  0  0  0  0  0
    0.8540   -0.0600   -0.9390 C   0  0  0  0  0  0  0  0  0  0  0  0
    1.5730    1.1750   -0.6550 N   0  0  0  0  0  0  0  0  0  0  0  0
    2.9920    1.2340   -0.8570 C   0  0  0  0  0  0  0  0  0  0  0  0
    3.5640    0.2100   -1.2800 O   0  0  0  0  0  0  0  0  0  0  0  0
    3.7410    2.4630   -0.5700 C   0  0  0  0  0  0  0  0  0  0  0  0
    5.1030    2.3320   -0.7740 O   0  0  0  0  0  0  0  0  0  0  0  0
    5.9900    1.4850   -0.1580 C   0  0  0  0  0  0  0  0  0  0  0  0
    5.6290    0.6060    0.8140 C   0  0  0  0  0  0  0  0  0  0  0  0
    6.5900   -0.2280    1.4000 C   0  0  0  0  0  0  0  0  0  0  0  0
    7.9040   -0.1660    0.9990 C   0  0  0  0  0  0  0  0  0  0  0  0
    9.1090   -1.2170    1.7380 Cl  0  0  0  0  0  0  0  0  0  0  0  0
    8.2780    0.7200    0.0160 C   0  0  0  0  0  0  0  0  0  0  0  0
    7.3190    1.5370   -0.5540 C   0  0  0  0  0  0  0  0  0  0  0  0
    7.7970    2.6630   -1.8040 Cl  0  0  0  0  0  0  0  0  0  0  0  0
   -0.4580   -0.4070   -0.8490 C   0  0  0  0  0  0  0  0  0  0  0  0
   -1.3900    0.6530   -0.4640 C   0  0  0  0  0  0  0  0  0  0  0  0
   -0.9670    1.8810   -0.3990 O   0  0  0  0  0  0  0  0  0  0  0  0
   -2.7480    0.5750   -0.1230 N   0  0  0  0  0  0  0  0  0  0  0  0
   -3.5760    1.7050    0.2370 C   0  0  0  0  0  0  0  0  0  0  0  0
   -4.9630    1.5530    0.0750 C   0  0  0  0  0  0  0  0  0  0  0  0
   -5.8670    2.5360    0.3930 C   0  0  0  0  0  0  0  0  0  0  0  0
   -5.4280    3.7390    0.8960 C   0  0  0  0  0  0  0  0  0  0  0  0
   -6.2810    4.7650    1.2320 C   0  0  0  0  0  0  0  0  0  0  0  0
   -5.8420    5.8960    1.7050 O   0  0  0  0  0  0  0  0  0  0  0  0
   -4.5520    6.0790    1.8720 C   0  0  0  0  0  0  0  0  0  0  0  0
   -4.1800    7.1880    2.3310 O   0  0  0  0  0  0  0  0  0  0  0  0
   -3.6320    5.0950    1.5570 C   0  0  0  0  0  0  0  0  0  0  0  0
   -4.0780    3.8920    1.0560 C   0  0  0  0  0  0  0  0  0  0  0  0
   -3.1480    2.8880    0.7320 C   0  0  0  0  0  0  0  0  0  0  0  0
   -0.7660   -1.6900   -1.1830 C   0  0  0  0  0  0  0  0  0  0  0  0
   -2.1210   -2.3140   -1.1690 C   0  0  0  0  0  0  0  0  0  0  0  0
   -2.4730   -3.0310    0.0820 C   0  0  0  0  0  0  0  0  0  0  0  0
   -1.6210   -4.1550    0.4860 C   0  0  0  0  0  0  0  0  0  0  0  0
   -1.7060   -5.5040    0.1890 C   0  0  0  0  0  0  0  0  0  0  0  0
   -0.6800   -6.1280    0.8250 C   0  0  0  0  0  0  0  0  0  0  0  0
    0.0270   -5.2220    1.4950 N   0  0  0  0  0  0  0  0  0  0  0  0
   -0.5130   -4.0200    1.3120 C   0  0  0  0  0  0  0  0  0  0  0  0
  1  2  1  0
  2  3  1  0
  2 33  2  0
  3  4  1  0
  4  5  1  0
  4 18  2  0
  5  6  1  0
  6  7  2  0
  6  8  1  0
  8  9  1  0
  9 10  1  0
 10 11  2  0
 10 16  1  0
 11 12  1  0
 12 13  2  0
 13 14  1  0
 13 15  1  0
 15 16  2  0
 16 17  1  0
 18 19  1  0
 18 33  1  0
 19 20  2  0
 19 21  1  0
 21 22  1  0
 22 23  1  0
 22 32  2  0
 23 24  2  0
 24 25  1  0
 25 26  2  0
 25 31  1  0
 26 27  1  0
 27 28  1  0
 28 29  2  0
 28 30  1  0
 30 31  2  0
 31 32  1  0
 33 34  1  0
 34 35  1  0
 35 36  1  0
 36 37  1  0
 36 40  2  0
 37 38  2  0
 38 39  1  0
 39 40  1  0
M  END
