
     RDKit          3D

  9  9  0  0  0  0  0  0  0  0999 V2000
    2.6010    0.9240   -0.6230 O   0  0  0  0  0  0  0  0  0  0  0  0
    2.5010   -0.2300    0.1110 C   0  0  0  0  0  0  0  0  0  0  0  0
    1.1750   -0.4050    0.7910 C   0  0  0  0  0  0  0  0  0  0  0  0
    0.0110   -0.4520   -0.1370 C   0  0  2  0  0  0  0  0  0  0  0  0
    0.0500   -1.4710   -1.0530 O   0  0  0  0  0  0  0  0  0  0  0  0
   -0.3100    0.8950   -0.7570 C   0  0  0  0  0  0  0  0  0  0  0  0
   -1.7670    1.1680   -0.4050 C   0  0  0  0  0  0  0  0  0  0  0  0
   -2.2520   -0.1860   -0.1790 N   0  0  0  0  0  0  0  0  0  0  0  0
   -1.2260   -0.6720    0.7320 C   0  0  0  0  0  0  0  0  0  0  0  0
  1  2  1  0
  2  3  1  0
  3  4  1  0
  4  5  1  6
  4  6  1  0
  4  9  1  0
  6  7  1  0
  7  8  1  0
  8  9  1  0
M  CHG  1   8   1
M  END
