
     RDKit          3D

 10 10  0  0  0  0  0  0  0  0999 V2000
   -2.6990    0.4960    0.2820 N   0  0  0  0  0  0  0  0  0  0  0  0
   -1.8310   -0.1050   -0.7020 C   0  0  1  0  0  0  0  0  0  0  0  0
   -1.0010    0.9440   -1.4300 C   0  0  0  0  0  0  0  0  0  0  0  0
    0.2450    0.2980   -1.5970 O   0  0  0  0  0  0  0  0  0  0  0  0
    0.4780   -0.1110   -0.2970 C   0  0  2  0  0  0  0  0  0  0  0  0
    1.7520   -0.8700   -0.1170 C   0  0  0  0  0  0  0  0  0  0  0  0
    2.9750   -0.1120   -0.4920 C   0  0  0  0  0  0  0  0  0  0  0  0
    3.1300    1.0410    0.2550 O   0  0  0  0  0  0  0  0  0  0  0  0
   -0.7480   -0.9410   -0.0060 C   0  0  1  0  0  0  0  0  0  0  0  0
   -0.9320   -0.9800    1.3620 O   0  0  0  0  0  0  0  0  0  0  0  0
  2  1  1  1
  2  3  1  0
  2  9  1  0
  3  4  1  0
  4  5  1  0
  5  6  1  6
  5  9  1  0
  6  7  1  0
  7  8  1  0
  9 10  1  1
M  CHG  1   1   1
M  END
