
     RDKit          3D

 10 10  0  0  0  0  0  0  0  0999 V2000
    3.1840   -0.1930    0.2780 N   0  0  0  0  0  0  0  0  0  0  0  0
    1.9880    0.5460   -0.0700 C   0  0  0  0  0  0  0  0  0  0  0  0
    0.9030   -0.3540   -0.6120 C   0  0  2  0  0  0  0  0  0  0  0  0
   -0.3060    0.5320   -0.8810 C   0  0  0  0  0  0  0  0  0  0  0  0
   -1.2930    0.0010    0.1370 C   0  0  1  0  0  0  0  0  0  0  0  0
   -1.0970    0.5620    1.3840 O   0  0  0  0  0  0  0  0  0  0  0  0
   -2.7050    0.1750   -0.3610 C   0  0  0  0  0  0  0  0  0  0  0  0
   -2.9470    1.5470   -0.4320 O   0  0  0  0  0  0  0  0  0  0  0  0
   -0.8770   -1.4620    0.1680 C   0  0  0  0  0  0  0  0  0  0  0  0
    0.5070   -1.3220    0.2750 O   0  0  0  0  0  0  0  0  0  0  0  0
  1  2  1  0
  3  2  1  1
  3  4  1  0
  3 10  1  0
  4  5  1  0
  5  6  1  1
  5  7  1  0
  5  9  1  0
  7  8  1  0
  9 10  1  0
M  CHG  1   1   1
M  END
