
     RDKit          3D

 10 10  0  0  0  0  0  0  0  0999 V2000
    2.8910   -0.9130    0.4230 O   0  0  0  0  0  0  0  0  0  0  0  0
    1.8800    0.0030    0.6550 C   0  0  0  0  0  0  0  0  0  0  0  0
    0.9160    0.1080   -0.5160 C   0  0  1  0  0  0  0  0  0  0  0  0
    0.2520   -1.2110   -0.8070 C   0  0  0  0  0  0  0  0  0  0  0  0
   -0.8730   -1.4880    0.0410 N   0  0  0  0  0  0  0  0  0  0  0  0
   -1.8630   -0.4300   -0.2170 C   0  0  0  0  0  0  0  0  0  0  0  0
   -1.2980    0.8260    0.4150 C   0  0  1  0  0  0  0  0  0  0  0  0
   -1.0180    0.5220    1.7440 O   0  0  0  0  0  0  0  0  0  0  0  0
   -0.0400    1.2270   -0.2960 C   0  0  2  0  0  0  0  0  0  0  0  0
   -0.3990    1.8090   -1.5120 O   0  0  0  0  0  0  0  0  0  0  0  0
  1  2  1  0
  3  2  1  1
  3  4  1  0
  3  9  1  0
  4  5  1  0
  5  6  1  0
  6  7  1  0
  7  8  1  1
  7  9  1  0
  9 10  1  6
M  CHG  1   5   1
M  END
