
     RDKit          3D

 10 10  0  0  0  0  0  0  0  0999 V2000
    0.1740    0.5230    1.4960 N   0  0  0  0  0  0  0  0  0  0  0  0
   -0.3880    0.1970    0.2210 C   0  0  2  0  0  0  0  0  0  0  0  0
   -0.8520    1.4730   -0.4740 C   0  0  0  0  0  0  0  0  0  0  0  0
   -1.8140    2.0660    0.3490 O   0  0  0  0  0  0  0  0  0  0  0  0
   -1.5040   -0.7810    0.3960 C   0  0  0  0  0  0  0  0  0  0  0  0
   -0.9770   -2.0270   -0.2930 C   0  0  0  0  0  0  0  0  0  0  0  0
    0.3860   -1.8540   -0.4500 O   0  0  0  0  0  0  0  0  0  0  0  0
    0.5660   -0.5040   -0.6990 C   0  0  2  0  0  0  0  0  0  0  0  0
    1.9910   -0.0620   -0.4880 C   0  0  0  0  0  0  0  0  0  0  0  0
    2.8160   -0.7770   -1.3480 O   0  0  0  0  0  0  0  0  0  0  0  0
  2  1  1  1
  2  3  1  0
  2  5  1  0
  2  8  1  0
  3  4  1  0
  5  6  1  0
  6  7  1  0
  7  8  1  0
  8  9  1  1
  9 10  1  0
M  CHG  1   1   1
M  END
