
     RDKit          3D

 10 10  0  0  0  0  0  0  0  0999 V2000
    2.9760    0.3670    0.2380 N   0  0  0  0  0  0  0  0  0  0  0  0
    1.6270    0.2170    0.7860 C   0  0  0  0  0  0  0  0  0  0  0  0
    0.6880   -0.2720   -0.2840 C   0  0  2  0  0  0  0  0  0  0  0  0
    0.6670    0.6430   -1.3100 O   0  0  0  0  0  0  0  0  0  0  0  0
   -0.6630   -0.5570    0.2840 C   0  0  1  0  0  0  0  0  0  0  0  0
   -0.5510   -1.4860    1.3100 O   0  0  0  0  0  0  0  0  0  0  0  0
   -1.3640    0.7110    0.7260 C   0  0  0  0  0  0  0  0  0  0  0  0
   -2.2010    1.0450   -0.4720 C   0  0  0  0  0  0  0  0  0  0  0  0
   -2.0990    0.0320   -1.3820 O   0  0  0  0  0  0  0  0  0  0  0  0
   -1.6080   -1.0940   -0.7480 C   0  0  0  0  0  0  0  0  0  0  0  0
  1  2  1  0
  2  3  1  0
  3  4  1  6
  3  5  1  0
  5  6  1  1
  5  7  1  0
  5 10  1  0
  7  8  1  0
  8  9  1  0
  9 10  1  0
M  CHG  1   1   1
M  END
