
     RDKit          3D

 17 18  0  0  0  0  0  0  0  0999 V2000
   -4.4260    1.6040    0.1620 C   0  0  0  0  0  0  0  0  0  0  0  0
   -3.6510    0.4560   -0.3900 C   0  0  0  0  0  0  0  0  0  0  0  0
   -4.2790   -1.0150   -1.0790 S   0  0  0  0  0  0  0  0  0  0  0  0
   -2.6580   -1.7700   -1.4530 C   0  0  0  0  0  0  0  0  0  0  0  0
   -1.8110   -0.8160   -1.0110 C   0  0  0  0  0  0  0  0  0  0  0  0
   -2.2630    0.3120   -0.4720 C   0  0  0  0  0  0  0  0  0  0  0  0
   -1.3680    1.4440    0.0300 C   0  0  0  0  0  0  0  0  0  0  0  0
    0.0280    1.1070   -0.0940 N   0  0  0  0  0  0  0  0  0  0  0  0
    0.6150    0.0490    0.6420 C   0  0  0  0  0  0  0  0  0  0  0  0
   -0.0990   -0.6380    1.4550 O   0  0  0  0  0  0  0  0  0  0  0  0
    2.0130   -0.3420    0.5530 C   0  0  0  0  0  0  0  0  0  0  0  0
    2.5550   -1.3630    1.2940 C   0  0  0  0  0  0  0  0  0  0  0  0
    3.8810   -1.7310    1.2060 C   0  0  0  0  0  0  0  0  0  0  0  0
    4.6830   -1.0490    0.3460 N   0  0  0  0  0  0  0  0  0  0  0  0
    4.1980   -0.0380   -0.4030 C   0  0  0  0  0  0  0  0  0  0  0  0
    4.9910    0.5480   -1.1740 O   0  0  0  0  0  0  0  0  0  0  0  0
    2.8560    0.3230   -0.3040 C   0  0  0  0  0  0  0  0  0  0  0  0
  1  2  1  0
  2  3  1  0
  2  6  2  0
  3  4  1  0
  4  5  2  0
  5  6  1  0
  6  7  1  0
  7  8  1  0
  8  9  1  0
  9 10  2  0
  9 11  1  0
 11 12  1  0
 11 17  2  0
 12 13  2  0
 13 14  1  0
 14 15  1  0
 15 16  2  0
 15 17  1  0
M  END
