
     RDKit          3D

 17 17  0  0  0  0  0  0  0  0999 V2000
   -5.5320    1.0360   -1.3560 C   0  0  0  0  0  0  0  0  0  0  0  0
   -3.7440    0.9570   -1.5800 S   0  0  0  0  0  0  0  0  0  0  0  0
   -3.0230    0.0590   -0.1830 C   0  0  2  0  0  0  0  0  0  0  0  0
   -3.4640   -1.3990   -0.1860 C   0  0  0  0  0  0  0  0  0  0  0  0
   -3.4370    0.6380    1.1530 C   0  0  0  0  0  0  0  0  0  0  0  0
   -1.5260    0.0300   -0.2860 C   0  0  0  0  0  0  0  0  0  0  0  0
   -0.9740    0.5870   -1.2650 O   0  0  0  0  0  0  0  0  0  0  0  0
   -0.7350   -0.6080    0.6880 N   0  0  0  0  0  0  0  0  0  0  0  0
    0.6660   -0.6650    0.6380 N   0  0  0  0  0  0  0  0  0  0  0  0
    1.4830    0.4770    0.4310 C   0  0  0  0  0  0  0  0  0  0  0  0
    0.9010    1.5960    0.2870 O   0  0  0  0  0  0  0  0  0  0  0  0
    2.9620    0.4070    0.3790 C   0  0  0  0  0  0  0  0  0  0  0  0
    3.6980    1.4540    0.1910 C   0  0  0  0  0  0  0  0  0  0  0  0
    5.1390    1.3270    0.1490 C   0  0  0  0  0  0  0  0  0  0  0  0
    5.7410    0.1690    0.2990 C   0  0  0  0  0  0  0  0  0  0  0  0
    4.9990   -1.0730    0.5180 C   0  0  0  0  0  0  0  0  0  0  0  0
    3.5430   -0.9390    0.5550 C   0  0  0  0  0  0  0  0  0  0  0  0
  1  2  1  0
  2  3  1  0
  3  4  1  1
  3  5  1  0
  3  6  1  0
  6  7  2  0
  6  8  1  0
  8  9  1  0
  9 10  1  0
 10 11  2  0
 10 12  1  0
 12 13  2  0
 12 17  1  0
 13 14  1  0
 14 15  2  0
 15 16  1  0
 16 17  1  0
M  END
