
     RDKit          3D

 17 18  0  0  0  0  0  0  0  0999 V2000
   -3.1480    1.8030    1.0510 C   0  0  0  0  0  0  0  0  0  0  0  0
   -2.4500    0.6470    0.4460 C   0  0  0  0  0  0  0  0  0  0  0  0
   -1.0450    0.6690    0.4140 C   0  0  0  0  0  0  0  0  0  0  0  0
   -0.3170   -0.3590   -0.1270 C   0  0  0  0  0  0  0  0  0  0  0  0
    1.0910   -0.4200   -0.2010 N   0  0  0  0  0  0  0  0  0  0  0  0
    1.9690    0.5470    0.2600 C   0  0  0  0  0  0  0  0  0  0  0  0
    1.5880    1.5910    0.7980 O   0  0  0  0  0  0  0  0  0  0  0  0
    3.4260    0.3870    0.1340 C   0  0  0  0  0  0  0  0  0  0  0  0
    4.1410   -0.6760   -0.4240 C   0  0  0  0  0  0  0  0  0  0  0  0
    5.4710   -0.6020   -0.4280 C   0  0  0  0  0  0  0  0  0  0  0  0
    6.0790    0.4850    0.1010 C   0  0  0  0  0  0  0  0  0  0  0  0
    4.6680    1.4800    0.6470 S   0  0  0  0  0  0  0  0  0  0  0  0
   -1.0770   -1.4220   -0.6390 C   0  0  0  0  0  0  0  0  0  0  0  0
   -0.4030   -2.3830   -1.1450 O   0  0  0  0  0  0  0  0  0  0  0  0
   -2.4110   -1.4670   -0.6210 N   0  0  0  0  0  0  0  0  0  0  0  0
   -3.0980   -0.4410   -0.0820 C   0  0  0  0  0  0  0  0  0  0  0  0
   -4.5780   -0.4870   -0.0600 C   0  0  0  0  0  0  0  0  0  0  0  0
  1  2  1  0
  2  3  1  0
  2 16  2  0
  3  4  2  0
  4  5  1  0
  4 13  1  0
  5  6  1  0
  6  7  2  0
  6  8  1  0
  8  9  2  0
  8 12  1  0
  9 10  1  0
 10 11  2  0
 11 12  1  0
 13 14  2  0
 13 15  1  0
 15 16  1  0
 16 17  1  0
M  END
