
     RDKit          3D

 17 18  0  0  0  0  0  0  0  0999 V2000
   -3.9740   -0.3060    1.1000 C   0  0  0  0  0  0  0  0  0  0  0  0
   -2.5700   -0.2160    0.5960 C   0  0  0  0  0  0  0  0  0  0  0  0
   -1.5230   -0.1900    1.4340 N   0  0  0  0  0  0  0  0  0  0  0  0
   -0.2390   -0.1090    1.0130 C   0  0  0  0  0  0  0  0  0  0  0  0
    0.8180   -0.0840    1.8880 C   0  0  0  0  0  0  0  0  0  0  0  0
    2.1220    0.0000    1.4040 C   0  0  0  0  0  0  0  0  0  0  0  0
    2.4200    0.0610    0.0760 C   0  0  0  0  0  0  0  0  0  0  0  0
    3.7070    0.1550   -0.5040 N   0  0  0  0  0  0  0  0  0  0  0  0
    4.9040    0.3010    0.2050 C   0  0  0  0  0  0  0  0  0  0  0  0
    4.9250    0.3630    1.4550 O   0  0  0  0  0  0  0  0  0  0  0  0
    6.4550    0.4000   -0.7360 S   0  0  0  0  0  0  0  0  0  0  0  0
    1.3150    0.0320   -0.7870 C   0  0  0  0  0  0  0  0  0  0  0  0
    0.0150   -0.0500   -0.3480 C   0  0  0  0  0  0  0  0  0  0  0  0
   -1.0650   -0.0770   -1.2030 C   0  0  0  0  0  0  0  0  0  0  0  0
   -0.8560   -0.0250   -2.4350 O   0  0  0  0  0  0  0  0  0  0  0  0
   -2.3710   -0.1590   -0.7720 C   0  0  0  0  0  0  0  0  0  0  0  0
   -3.5170   -0.1870   -1.7290 C   0  0  0  0  0  0  0  0  0  0  0  0
  1  2  1  0
  2  3  1  0
  2 16  2  0
  3  4  1  0
  4  5  2  0
  4 13  1  0
  5  6  1  0
  6  7  2  0
  7  8  1  0
  7 12  1  0
  8  9  1  0
  9 10  2  0
  9 11  1  0
 12 13  2  0
 13 14  1  0
 14 15  2  0
 14 16  1  0
 16 17  1  0
M  END
