
     RDKit          3D

 17 18  0  0  0  0  0  0  0  0999 V2000
   -4.5530    1.5680    0.3540 C   0  0  0  0  0  0  0  0  0  0  0  0
   -3.4620    0.6530   -0.0150 C   0  0  0  0  0  0  0  0  0  0  0  0
   -3.6770   -0.8120   -0.9390 S   0  0  0  0  0  0  0  0  0  0  0  0
   -2.0000   -1.3220   -0.9630 C   0  0  0  0  0  0  0  0  0  0  0  0
   -1.4010   -2.5370   -1.6010 C   0  0  0  0  0  0  0  0  0  0  0  0
   -1.3490   -0.3080   -0.2390 C   0  0  0  0  0  0  0  0  0  0  0  0
    0.1330   -0.4110   -0.0440 C   0  0  0  0  0  0  0  0  0  0  0  0
    0.9980    0.5140   -0.0970 N   0  0  0  0  0  0  0  0  0  0  0  0
    2.3190    0.0420    0.1430 C   0  0  0  0  0  0  0  0  0  0  0  0
    3.4350    0.7490    0.1560 C   0  0  0  0  0  0  0  0  0  0  0  0
    4.7810    0.2440    0.4040 C   0  0  0  0  0  0  0  0  0  0  0  0
    5.5550    0.5260   -0.7430 O   0  0  0  0  0  0  0  0  0  0  0  0
    2.1740   -1.3890    0.3690 C   0  0  0  0  0  0  0  0  0  0  0  0
    3.0640   -2.2510    0.6230 O   0  0  0  0  0  0  0  0  0  0  0  0
    0.7680   -1.6470    0.2440 N   0  0  0  0  0  0  0  0  0  0  0  0
   -2.1320    0.6780    0.2260 C   0  0  0  0  0  0  0  0  0  0  0  0
   -1.5680    1.8450    1.0370 C   0  0  0  0  0  0  0  0  0  0  0  0
  1  2  1  0
  2  3  1  0
  2 16  2  0
  3  4  1  0
  4  5  1  0
  4  6  2  0
  6  7  1  0
  6 16  1  0
  7  8  2  0
  7 15  1  0
  8  9  1  0
  9 10  2  3
  9 13  1  0
 10 11  1  0
 11 12  1  0
 13 14  2  0
 13 15  1  0
 16 17  1  0
M  END
