
     RDKit          3D

 26 26  0  0  0  0  0  0  0  0999 V2000
    3.2110   -1.6440    1.1870 C   0  0  0  0  0  0  0  0  0  0  0  0
    3.4280   -1.6340   -0.1080 C   0  0  0  0  0  0  0  0  0  0  0  0
    3.0500   -0.5510   -0.9750 C   0  0  0  0  0  0  0  0  0  0  0  0
    2.3370    0.6970   -0.4490 C   0  0  0  0  0  0  0  0  0  0  0  0
    0.9420    0.2740   -0.2110 C   0  0  0  0  0  0  0  0  0  0  0  0
   -0.0660    1.1990    0.2730 C   0  0  0  0  0  0  0  0  0  0  0  0
   -1.4180    0.6610    0.4730 C   0  0  0  0  0  0  0  0  0  0  0  0
   -2.0680   -0.3950    0.3480 C   0  0  0  0  0  0  0  0  0  0  0  0
   -3.5320   -0.2520    0.7670 C   0  0  0  0  0  0  0  0  0  0  0  0
   -4.3340   -1.4000    0.6580 N   0  0  0  0  0  0  0  0  0  0  0  0
   -3.9440    0.8400    1.1770 O   0  0  0  0  0  0  0  0  0  0  0  0
   -1.7460   -1.6980   -0.1220 C   0  0  0  0  0  0  0  0  0  0  0  0
   -0.6860   -2.1710   -0.5670 O   0  0  0  0  0  0  0  0  0  0  0  0
   -2.7810   -2.7050   -0.1140 O   0  0  0  0  0  0  0  0  0  0  0  0
   -2.4840   -4.0290   -0.5830 C   0  0  0  0  0  0  0  0  0  0  0  0
   -1.4870   -4.5430    0.1900 F   0  0  0  0  0  0  0  0  0  0  0  0
    0.0570    2.4750    0.5830 C   0  0  0  0  0  0  0  0  0  0  0  0
   -1.4210    3.4180    1.1780 S   0  0  0  0  0  0  0  0  0  0  0  0
   -0.8040    4.9740    0.4780 C   0  0  0  0  0  0  0  0  0  0  0  0
   -1.7610    6.1380   -0.0630 S   0  0  0  0  0  0  0  0  0  0  0  0
    0.5780    4.8290    0.5610 N   0  0  0  0  0  0  0  0  0  0  0  0
    1.0470    3.4890    0.6200 C   0  0  0  0  0  0  0  0  0  0  0  0
    2.2770    3.2420    0.7030 O   0  0  0  0  0  0  0  0  0  0  0  0
    3.3320   -0.6120   -2.2660 C   0  0  0  0  0  0  0  0  0  0  0  0
    2.9730    0.4110   -3.0740 F   0  0  0  0  0  0  0  0  0  0  0  0
    3.9660   -1.6760   -2.7650 F   0  0  0  0  0  0  0  0  0  0  0  0
  1  2  2  0
  2  3  1  0
  3  4  1  0
  3 24  2  3
  4  5  1  0
  5  6  1  0
  6  7  1  0
  6 17  2  3
  7  8  2  3
  8  9  1  0
  8 12  1  0
  9 10  1  0
  9 11  2  0
 12 13  2  0
 12 14  1  0
 14 15  1  0
 15 16  1  0
 17 18  1  0
 17 22  1  0
 18 19  1  0
 19 20  2  0
 19 21  1  0
 21 22  1  0
 22 23  2  0
 24 25  1  0
 24 26  1  0
M  END
