
     RDKit          3D

 17 17  0  0  0  0  0  0  0  0999 V2000
   -3.9050   -1.1200   -0.4690 C   0  0  0  0  0  0  0  0  0  0  0  0
   -3.9180    0.1050   -0.0600 C   0  0  0  0  0  0  0  0  0  0  0  0
   -5.2180    0.6820    0.0330 O   0  0  0  0  0  0  0  0  0  0  0  0
   -2.7610    0.9340    0.3080 C   0  0  0  0  0  0  0  0  0  0  0  0
   -2.9440    2.2300    0.7180 N   0  0  0  0  0  0  0  0  0  0  0  0
   -1.7260    2.7110    0.9780 C   0  0  0  0  0  0  0  0  0  0  0  0
   -0.7950    1.7980    0.7550 N   0  0  0  0  0  0  0  0  0  0  0  0
   -1.4230    0.6770    0.3350 C   0  0  0  0  0  0  0  0  0  0  0  0
   -0.8000   -0.6080   -0.0360 C   0  0  0  0  0  0  0  0  0  0  0  0
    0.6460   -0.5780    0.0950 N   0  0  2  0  0  0  0  0  0  0  0  0
    1.2750    0.4110   -0.7080 C   0  0  0  0  0  0  0  0  0  0  0  0
    2.3640    1.1880    0.0480 C   0  0  0  0  0  0  0  0  0  0  0  0
    2.9210    2.1860   -0.9450 C   0  0  0  0  0  0  0  0  0  0  0  0
    3.9290    2.9700   -0.3940 O   0  0  0  0  0  0  0  0  0  0  0  0
    1.0910   -1.9340   -0.2270 C   0  0  2  0  0  0  0  0  0  0  0  0
    0.4300   -2.9460    0.6780 C   0  0  0  0  0  0  0  0  0  0  0  0
    2.5930   -2.0560   -0.1710 C   0  0  0  0  0  0  0  0  0  0  0  0
  1  2  2  0
  2  3  1  0
  2  4  1  0
  4  5  1  0
  4  8  2  0
  5  6  1  0
  6  7  2  0
  7  8  1  0
  8  9  1  0
 10  9  1  6
 10 11  1  0
 10 15  1  0
 11 12  1  0
 12 13  1  0
 13 14  1  0
 15 16  1  1
 15 17  1  0
M  CHG  1  10   1
M  END
