
     RDKit          3D

 17 17  0  0  0  0  0  0  0  0999 V2000
   -0.5340    2.2130    1.5120 C   0  0  0  0  0  0  0  0  0  0  0  0
    0.1990    0.9260    1.1350 C   0  0  1  0  0  0  0  0  0  0  0  0
    1.2060    0.5430    2.1580 C   0  0  0  0  0  0  0  0  0  0  0  0
    2.2210    1.6720    2.2830 C   0  0  0  0  0  0  0  0  0  0  0  0
    2.8580    1.9030    1.0860 O   0  0  0  0  0  0  0  0  0  0  0  0
   -0.8910   -0.0950    0.9700 C   0  0  0  0  0  0  0  0  0  0  0  0
   -1.5240   -0.7330    1.9760 N   0  0  0  0  0  0  0  0  0  0  0  0
   -2.4640   -1.5460    1.4890 C   0  0  0  0  0  0  0  0  0  0  0  0
   -2.4440   -1.4360    0.1300 C   0  0  0  0  0  0  0  0  0  0  0  0
   -1.4700   -0.5400   -0.1700 N   0  0  0  0  0  0  0  0  0  0  0  0
   -1.0920   -0.1380   -1.4790 C   0  0  0  0  0  0  0  0  0  0  0  0
   -0.1690   -0.9810   -2.2580 C   0  0  2  0  0  0  0  0  0  0  0  0
    0.1180   -0.3200   -3.6100 C   0  0  0  0  0  0  0  0  0  0  0  0
   -0.7800   -2.2500   -2.5170 O   0  0  0  0  0  0  0  0  0  0  0  0
    1.1280   -1.3050   -1.6080 C   0  0  0  0  0  0  0  0  0  0  0  0
    1.0310   -2.0710   -0.3760 C   0  0  0  0  0  0  0  0  0  0  0  0
    0.9720   -2.6820    0.6190 N   0  0  0  0  0  0  0  0  0  0  0  0
  2  1  1  1
  2  3  1  0
  2  6  1  0
  3  4  1  0
  4  5  1  0
  6  7  2  0
  6 10  1  0
  7  8  1  0
  8  9  2  0
  9 10  1  0
 10 11  1  0
 11 12  1  0
 12 13  1  6
 12 14  1  0
 12 15  1  0
 15 16  1  0
 16 17  3  0
M  CHG  1   7   1
M  END
