
     RDKit          3D

 17 17  0  0  0  0  0  0  0  0999 V2000
    3.9730   -0.5160    1.6270 C   0  0  0  0  0  0  0  0  0  0  0  0
    2.8270   -0.0490    2.2120 O   0  0  0  0  0  0  0  0  0  0  0  0
    1.6850   -0.4640    1.6320 C   0  0  0  0  0  0  0  0  0  0  0  0
    1.3790   -0.0460    0.2320 C   0  0  1  0  0  0  0  0  0  0  0  0
    2.2650   -0.3970   -0.7450 O   0  0  0  0  0  0  0  0  0  0  0  0
    2.6730    0.6970   -1.5230 C   0  0  0  0  0  0  0  0  0  0  0  0
   -0.0100   -0.5290   -0.1090 C   0  0  0  0  0  0  0  0  0  0  0  0
   -0.9880    0.2120   -0.4200 N   0  0  0  0  0  0  0  0  0  0  0  0
   -1.0090    1.6170   -0.5180 C   0  0  0  0  0  0  0  0  0  0  0  0
   -1.2290    2.4140    0.5130 C   0  0  0  0  0  0  0  0  0  0  0  0
   -1.1840    3.8120    0.0650 C   0  0  0  0  0  0  0  0  0  0  0  0
   -0.9040    3.7070   -1.3870 C   0  0  0  0  0  0  0  0  0  0  0  0
   -0.8080    2.4430   -1.7020 C   0  0  0  0  0  0  0  0  0  0  0  0
   -0.2190   -1.9290   -0.0670 N   0  0  0  0  0  0  0  0  0  0  0  0
   -1.4540   -2.5050   -0.4660 C   0  0  0  0  0  0  0  0  0  0  0  0
   -2.6140   -2.2040    0.4290 C   0  0  0  0  0  0  0  0  0  0  0  0
   -3.7840   -2.8700   -0.1310 N   0  0  0  0  0  0  0  0  0  0  0  0
  1  2  1  0
  2  3  1  0
  4  3  1  1
  4  5  1  0
  4  7  1  0
  5  6  1  0
  7  8  2  3
  7 14  1  0
  8  9  1  0
  9 10  2  0
  9 13  1  0
 10 11  1  0
 11 12  1  0
 12 13  2  0
 14 15  1  0
 15 16  1  0
 16 17  1  0
M  CHG  1  17   1
M  END
