
     RDKit          3D

 22 25  0  0  0  0  0  0  0  0999 V2000
    4.4570   -0.0130    0.4920 O   0  0  0  0  0  0  0  0  0  0  0  0
    3.8140   -1.0820    0.2010 C   0  0  0  0  0  0  0  0  0  0  0  0
    4.1190   -2.2020    0.9790 O   0  0  0  0  0  0  0  0  0  0  0  0
    2.8390   -1.0660   -0.8790 C   0  0  0  0  0  0  0  0  0  0  0  0
    1.6070   -0.3070   -0.6360 C   0  0  0  0  0  0  0  0  0  0  0  0
    1.3710    1.0410   -0.6440 C   0  0  0  0  0  0  0  0  0  0  0  0
    2.2480    2.1080   -0.8940 C   0  0  0  0  0  0  0  0  0  0  0  0
    1.8070    3.3890   -0.8560 C   0  0  0  0  0  0  0  0  0  0  0  0
    0.4950    3.6320   -0.5720 C   0  0  0  0  0  0  0  0  0  0  0  0
   -0.4230    2.5980   -0.3150 C   0  0  0  0  0  0  0  0  0  0  0  0
    0.0250    1.3040   -0.3540 C   0  0  0  0  0  0  0  0  0  0  0  0
   -0.5480    0.0880   -0.1700 N   0  0  0  0  0  0  0  0  0  0  0  0
    0.3700   -0.8760   -0.3310 C   0  0  0  0  0  0  0  0  0  0  0  0
    0.0630   -2.1810   -0.2110 N   0  0  0  0  0  0  0  0  0  0  0  0
   -1.1630   -2.5920    0.0740 C   0  0  0  0  0  0  0  0  0  0  0  0
   -1.4750   -3.8100    0.1930 O   0  0  0  0  0  0  0  0  0  0  0  0
   -2.1220   -1.6150    0.2440 C   0  0  0  0  0  0  0  0  0  0  0  0
   -3.4220   -2.0150    0.5410 C   0  0  0  0  0  0  0  0  0  0  0  0
   -4.4020   -1.0720    0.7140 C   0  0  0  0  0  0  0  0  0  0  0  0
   -4.1410    0.2690    0.6020 C   0  0  0  0  0  0  0  0  0  0  0  0
   -2.8340    0.6590    0.3030 C   0  0  0  0  0  0  0  0  0  0  0  0
   -1.8230   -0.2520    0.1230 C   0  0  0  0  0  0  0  0  0  0  0  0
  1  2  2  0
  2  3  1  0
  2  4  1  0
  4  5  1  0
  5  6  1  0
  5 13  2  0
  6  7  2  0
  6 11  1  0
  7  8  1  0
  8  9  2  0
  9 10  1  0
 10 11  2  0
 11 12  1  0
 12 13  1  0
 12 22  1  0
 13 14  1  0
 14 15  1  0
 15 16  2  0
 15 17  1  0
 17 18  2  0
 17 22  1  0
 18 19  1  0
 19 20  2  0
 20 21  1  0
 21 22  2  0
M  END
