
     RDKit          3D

 17 17  0  0  0  0  0  0  0  0999 V2000
   -3.4580    0.3250    0.7900 C   0  0  0  0  0  0  0  0  0  0  0  0
   -2.4910    0.9760    1.4000 C   0  0  0  0  0  0  0  0  0  0  0  0
   -1.9190    0.4230    2.6560 C   0  0  0  0  0  0  0  0  0  0  0  0
   -0.5280    0.1890    2.4460 O   0  0  0  0  0  0  0  0  0  0  0  0
   -0.1780   -0.7080    1.4330 C   0  0  0  0  0  0  0  0  0  0  0  0
   -0.3270   -1.9800    1.7070 C   0  0  0  0  0  0  0  0  0  0  0  0
   -0.8260   -2.5360    2.9720 C   0  0  0  0  0  0  0  0  0  0  0  0
    0.3210   -0.2570    0.1480 C   0  0  0  0  0  0  0  0  0  0  0  0
    0.6490   -1.2440   -0.8930 C   0  0  0  0  0  0  0  0  0  0  0  0
   -0.5680   -1.8600   -1.3550 N   0  0  0  0  0  0  0  0  0  0  0  0
    0.4740    0.9900   -0.1140 N   0  0  0  0  0  0  0  0  0  0  0  0
    0.9600    1.4670   -1.3630 C   0  0  0  0  0  0  0  0  0  0  0  0
    0.2090    1.6690   -2.4210 C   0  0  0  0  0  0  0  0  0  0  0  0
    1.0220    2.1310   -3.4400 O   0  0  0  0  0  0  0  0  0  0  0  0
    2.2890    2.4870   -2.9350 C   0  0  0  0  0  0  0  0  0  0  0  0
    2.2970    1.7890   -1.6670 N   0  0  0  0  0  0  0  0  0  0  0  0
    3.5040    1.5050   -0.8910 C   0  0  0  0  0  0  0  0  0  0  0  0
  1  2  2  0
  2  3  1  0
  3  4  1  0
  4  5  1  0
  5  6  2  3
  5  8  1  0
  6  7  1  0
  8  9  1  0
  8 11  2  3
  9 10  1  0
 11 12  1  0
 12 13  2  0
 12 16  1  0
 13 14  1  0
 14 15  1  0
 15 16  1  0
 16 17  1  0
M  CHG  1  10   1
M  END
