
     RDKit          3D

 17 17  0  0  0  0  0  0  0  0999 V2000
   -0.9000   -4.2990    0.8170 C   0  0  0  0  0  0  0  0  0  0  0  0
   -0.1630   -3.0010    1.0560 C   0  0  0  0  0  0  0  0  0  0  0  0
   -0.5880   -2.0640   -0.0610 C   0  0  0  0  0  0  0  0  0  0  0  0
    0.0280   -0.7790    0.0190 N   0  0  0  0  0  0  0  0  0  0  0  0
    1.4490   -0.8150   -0.2310 C   0  0  0  0  0  0  0  0  0  0  0  0
    2.1330    0.4830   -0.0880 C   0  0  0  0  0  0  0  0  0  0  0  0
    3.2130    0.8090   -0.9190 C   0  0  0  0  0  0  0  0  0  0  0  0
    3.8740    2.0070   -0.7940 C   0  0  0  0  0  0  0  0  0  0  0  0
    3.4990    2.9020    0.1330 N   0  0  0  0  0  0  0  0  0  0  0  0
    2.4490    2.5880    0.9420 C   0  0  0  0  0  0  0  0  0  0  0  0
    1.7990    1.4140    0.8230 N   0  0  0  0  0  0  0  0  0  0  0  0
   -0.5630    0.2550   -0.7530 C   0  0  0  0  0  0  0  0  0  0  0  0
   -1.8940    0.7620   -0.3450 C   0  0  1  0  0  0  0  0  0  0  0  0
   -2.2720    1.8430   -1.3770 C   0  0  0  0  0  0  0  0  0  0  0  0
   -2.9330   -0.1200   -0.3230 O   0  0  0  0  0  0  0  0  0  0  0  0
   -1.8600    1.4940    0.9890 C   0  0  0  0  0  0  0  0  0  0  0  0
   -3.0710    2.1600    1.1460 O   0  0  0  0  0  0  0  0  0  0  0  0
  1  2  1  0
  2  3  1  0
  3  4  1  0
  4  5  1  0
  4 12  1  0
  5  6  1  0
  6  7  2  0
  6 11  1  0
  7  8  1  0
  8  9  2  0
  9 10  1  0
 10 11  2  0
 12 13  1  0
 13 14  1  6
 13 15  1  0
 13 16  1  0
 16 17  1  0
M  CHG  1   9   1
M  END
