
     RDKit          3D

 41 44  0  0  0  0  0  0  0  0999 V2000
    0.7260   -3.6890   -2.7240 C   0  0  0  0  0  0  0  0  0  0  0  0
    0.8440   -2.6450   -1.6640 C   0  0  0  0  0  0  0  0  0  0  0  0
   -0.3120   -2.0390   -1.3290 C   0  0  0  0  0  0  0  0  0  0  0  0
   -0.3950   -1.0080   -0.3340 C   0  0  0  0  0  0  0  0  0  0  0  0
   -1.5960   -0.4410   -0.0500 C   0  0  0  0  0  0  0  0  0  0  0  0
   -1.7060    0.5980    0.9410 C   0  0  0  0  0  0  0  0  0  0  0  0
   -0.6520    0.9920    1.5590 O   0  0  0  0  0  0  0  0  0  0  0  0
   -2.9750    1.1850    1.2330 N   0  0  0  0  0  0  0  0  0  0  0  0
   -3.0080    2.2140    2.2230 C   0  0  0  0  0  0  0  0  0  0  0  0
   -4.3560    2.6870    2.6260 C   0  0  0  0  0  0  0  0  0  0  0  0
   -5.3940    1.8060    2.2720 N   0  0  0  0  0  0  0  0  0  0  0  0
   -6.1890    1.2360    3.2890 C   0  0  0  0  0  0  0  0  0  0  0  0
   -7.6340    1.3070    2.8880 C   0  0  0  0  0  0  0  0  0  0  0  0
   -8.5240    0.8160    3.8990 S   0  0  0  0  0  0  0  0  0  0  0  0
   -8.2770    1.7990    1.6320 C   0  0  0  0  0  0  0  0  0  0  0  0
   -7.8490    0.8440    0.5400 C   0  0  1  0  0  0  0  0  0  0  0  0
   -7.8920    1.4820   -0.8140 C   0  0  0  0  0  0  0  0  0  0  0  0
   -6.4940    0.2300    0.8400 C   0  0  0  0  0  0  0  0  0  0  0  0
   -5.4180    1.2570    0.9800 C   0  0  2  0  0  0  0  0  0  0  0  0
   -4.1190    0.6790    0.5030 C   0  0  0  0  0  0  0  0  0  0  0  0
    2.0400   -2.2990   -1.0150 C   0  0  0  0  0  0  0  0  0  0  0  0
    3.2730   -2.7050   -1.1390 C   0  0  0  0  0  0  0  0  0  0  0  0
    3.7720   -3.6770   -2.0380 C   0  0  0  0  0  0  0  0  0  0  0  0
    4.9700   -4.1390   -2.1920 C   0  0  0  0  0  0  0  0  0  0  0  0
    6.2170   -3.8810   -1.5460 C   0  0  0  0  0  0  0  0  0  0  0  0
    7.3950   -4.5930   -2.0030 N   0  0  0  0  0  0  0  0  0  0  0  0
    6.4080   -3.0980   -0.6120 O   0  0  0  0  0  0  0  0  0  0  0  0
    4.1820   -2.0440   -0.2260 O   0  0  0  0  0  0  0  0  0  0  0  0
    4.4700   -0.7300   -0.5630 C   0  0  0  0  0  0  0  0  0  0  0  0
    3.9560   -0.1320   -1.6630 C   0  0  0  0  0  0  0  0  0  0  0  0
    4.2550    1.1970   -2.0020 C   0  0  0  0  0  0  0  0  0  0  0  0
    5.1010    1.8860   -1.1660 C   0  0  0  0  0  0  0  0  0  0  0  0
    5.6420    1.3230   -0.0430 C   0  0  0  0  0  0  0  0  0  0  0  0
    6.5690    2.0620    0.8200 C   0  0  2  0  0  0  0  0  0  0  0  0
    6.3810    3.5050    0.7670 N   0  0  0  0  0  0  0  0  0  0  0  0
    7.2840    3.9420   -0.2680 C   0  0  0  0  0  0  0  0  0  0  0  0
    7.2210    5.0100   -0.9140 O   0  0  0  0  0  0  0  0  0  0  0  0
    8.3010    2.9440   -0.4580 N   0  0  0  0  0  0  0  0  0  0  0  0
    7.9950    1.8990    0.4780 C   0  0  0  0  0  0  0  0  0  0  0  0
    8.7980    1.0350    0.9040 O   0  0  0  0  0  0  0  0  0  0  0  0
    5.3280    0.0170    0.2600 C   0  0  0  0  0  0  0  0  0  0  0  0
  1  2  1  0
  2  3  2  3
  2 21  1  0
  3  4  1  0
  4  5  2  3
  5  6  1  0
  6  7  2  0
  6  8  1  0
  8  9  1  0
  8 20  1  0
  9 10  1  0
 10 11  1  0
 11 12  1  0
 11 19  1  0
 12 13  1  0
 13 14  2  0
 13 15  1  0
 15 16  1  0
 16 17  1  6
 16 18  1  0
 19 18  1  1
 19 20  1  0
 21 22  2  3
 22 23  1  0
 22 28  1  0
 23 24  2  3
 24 25  1  0
 25 26  1  0
 25 27  2  0
 28 29  1  0
 29 30  2  0
 29 41  1  0
 30 31  1  0
 31 32  2  0
 32 33  1  0
 34 33  1  6
 33 41  2  0
 34 35  1  0
 34 39  1  0
 35 36  1  0
 36 37  2  0
 36 38  1  0
 38 39  1  0
 39 40  2  0
M  END
