
     RDKit          3D

 41 43  0  0  0  0  0  0  0  0999 V2000
   -4.9700   -6.6390   -1.5500 C   0  0  0  0  0  0  0  0  0  0  0  0
   -3.9720   -5.8480   -2.8250 S   0  0  0  0  0  0  0  0  0  0  0  0
   -3.8730   -4.0810   -2.6150 C   0  0  0  0  0  0  0  0  0  0  0  0
   -3.2010   -3.3880   -3.4330 N   0  0  0  0  0  0  0  0  0  0  0  0
   -4.5760   -3.4210   -1.4840 C   0  0  2  0  0  0  0  0  0  0  0  0
   -6.0720   -3.5570   -1.5490 C   0  0  0  0  0  0  0  0  0  0  0  0
   -4.2350   -1.9980   -1.4550 N   0  0  0  0  0  0  0  0  0  0  0  0
   -3.4170   -1.5170   -0.4130 C   0  0  0  0  0  0  0  0  0  0  0  0
   -2.9950   -2.3110    0.4620 O   0  0  0  0  0  0  0  0  0  0  0  0
   -3.0590   -0.1080   -0.3410 C   0  0  0  0  0  0  0  0  0  0  0  0
   -3.4600    0.7820   -1.2040 C   0  0  0  0  0  0  0  0  0  0  0  0
   -3.0940    2.1850   -1.1120 C   0  0  0  0  0  0  0  0  0  0  0  0
   -3.2920    2.9830   -0.0290 C   0  0  0  0  0  0  0  0  0  0  0  0
   -2.8800    4.3200    0.0290 C   0  0  0  0  0  0  0  0  0  0  0  0
   -2.2400    4.8280   -1.0910 C   0  0  0  0  0  0  0  0  0  0  0  0
   -1.7780    6.2340   -1.0950 C   0  0  0  0  0  0  0  0  0  0  0  0
   -2.0170    4.0680   -2.2070 C   0  0  0  0  0  0  0  0  0  0  0  0
   -1.3220    4.6370   -3.3820 C   0  0  0  0  0  0  0  0  0  0  0  0
   -2.4400    2.7740   -2.2060 C   0  0  0  0  0  0  0  0  0  0  0  0
   -2.1750    0.2760    0.7350 N   0  0  0  0  0  0  0  0  0  0  0  0
   -0.8700   -0.2970    0.7730 C   0  0  0  0  0  0  0  0  0  0  0  0
   -0.5810   -1.1050   -0.1360 O   0  0  0  0  0  0  0  0  0  0  0  0
    0.1100    0.0410    1.8340 C   0  0  1  0  0  0  0  0  0  0  0  0
   -0.4220   -0.2770    3.2290 C   0  0  0  0  0  0  0  0  0  0  0  0
    1.3960   -0.5840    1.6400 N   0  0  0  0  0  0  0  0  0  0  0  0
    2.5630    0.2240    1.4260 C   0  0  0  0  0  0  0  0  0  0  0  0
    2.4530    1.3560    0.8540 O   0  0  0  0  0  0  0  0  0  0  0  0
    3.8560   -0.2280    1.8500 N   0  0  0  0  0  0  0  0  0  0  0  0
    5.0140    0.5720    1.6230 C   0  0  0  0  0  0  0  0  0  0  0  0
    5.5920    1.3820    2.5750 C   0  0  0  0  0  0  0  0  0  0  0  0
    6.7130    2.1400    2.3040 C   0  0  0  0  0  0  0  0  0  0  0  0
    7.3170    2.1270    1.0650 C   0  0  0  0  0  0  0  0  0  0  0  0
    8.5290    2.9480    0.7730 C   0  0  0  0  0  0  0  0  0  0  0  0
    6.7500    1.3200    0.1010 C   0  0  0  0  0  0  0  0  0  0  0  0
    5.6300    0.5650    0.3740 C   0  0  0  0  0  0  0  0  0  0  0  0
    3.8810   -1.5050    2.4830 C   0  0  0  0  0  0  0  0  0  0  0  0
    4.9680   -2.0130    2.7750 O   0  0  0  0  0  0  0  0  0  0  0  0
    2.6230   -2.2550    2.8060 C   0  0  0  0  0  0  0  0  0  0  0  0
    1.6270   -2.0130    1.6550 C   0  0  2  0  0  0  0  0  0  0  0  0
    2.3670   -2.4370    0.4070 C   0  0  0  0  0  0  0  0  0  0  0  0
    2.5530   -3.8260    0.4910 O   0  0  0  0  0  0  0  0  0  0  0  0
  1  2  1  0
  2  3  1  0
  3  4  2  0
  3  5  1  0
  5  6  1  6
  5  7  1  0
  7  8  1  0
  8  9  2  0
  8 10  1  0
 10 11  2  3
 10 20  1  0
 11 12  1  0
 12 13  2  0
 12 19  1  0
 13 14  1  0
 14 15  2  0
 15 16  1  0
 15 17  1  0
 17 18  1  0
 17 19  2  0
 20 21  1  0
 21 22  2  0
 21 23  1  0
 23 24  1  1
 23 25  1  0
 25 26  1  0
 25 39  1  0
 26 27  2  0
 26 28  1  0
 28 29  1  0
 28 36  1  0
 29 30  2  0
 29 35  1  0
 30 31  1  0
 31 32  2  0
 32 33  1  0
 32 34  1  0
 34 35  2  0
 36 37  2  0
 36 38  1  0
 38 39  1  0
 39 40  1  6
 40 41  1  0
M  END
