
     RDKit          3D

 41 44  0  0  0  0  0  0  0  0999 V2000
   -5.6450   -1.7390    3.3430 C   0  0  0  0  0  0  0  0  0  0  0  0
   -6.6450   -1.9270    2.2480 C   0  0  0  0  0  0  0  0  0  0  0  0
   -6.2680   -1.2450    1.0040 N   0  0  0  0  0  0  0  0  0  0  0  0
   -6.6160    0.0850    0.6520 C   0  0  0  0  0  0  0  0  0  0  0  0
   -7.2890    0.8040    1.4130 O   0  0  0  0  0  0  0  0  0  0  0  0
   -6.0600    0.4300   -0.6960 C   0  0  0  0  0  0  0  0  0  0  0  0
   -6.4880    1.4980   -1.3480 C   0  0  0  0  0  0  0  0  0  0  0  0
   -7.5760    2.3200   -0.5840 C   0  0  0  0  0  0  0  0  0  0  0  0
   -6.2060    2.0410   -2.5790 N   0  0  0  0  0  0  0  0  0  0  0  0
   -5.3810    1.6970   -3.6310 C   0  0  0  0  0  0  0  0  0  0  0  0
   -4.6780    0.7050   -3.6130 O   0  0  0  0  0  0  0  0  0  0  0  0
   -5.3000    2.4960   -4.8150 O   0  0  0  0  0  0  0  0  0  0  0  0
   -5.1150   -0.6290   -0.9310 C   0  0  1  0  0  0  0  0  0  0  0  0
   -3.6910   -0.4880   -1.0180 C   0  0  0  0  0  0  0  0  0  0  0  0
   -2.8300    0.2730   -0.3350 C   0  0  0  0  0  0  0  0  0  0  0  0
   -3.3700    1.2920    0.6070 C   0  0  0  0  0  0  0  0  0  0  0  0
   -1.4610    0.2600   -0.4420 N   0  0  0  0  0  0  0  0  0  0  0  0
   -0.6900    1.1770    0.3740 C   0  0  0  0  0  0  0  0  0  0  0  0
   -0.8350   -0.6010   -1.3300 C   0  0  0  0  0  0  0  0  0  0  0  0
    0.5040   -0.7170   -1.5720 C   0  0  0  0  0  0  0  0  0  0  0  0
    1.6710   -0.0570   -0.8720 C   0  0  0  0  0  0  0  0  0  0  0  0
    2.1660   -0.8330    0.2980 C   0  0  0  0  0  0  0  0  0  0  0  0
    3.2750   -0.0900    0.9080 N   0  0  0  0  0  0  0  0  0  0  0  0
    4.5420   -0.4500    0.3260 C   0  0  2  0  0  0  0  0  0  0  0  0
    5.0270   -1.8040    0.7780 C   0  0  0  0  0  0  0  0  0  0  0  0
    5.2400   -1.8970    2.2630 C   0  0  0  0  0  0  0  0  0  0  0  0
    6.1160   -0.7760    2.7130 C   0  0  0  0  0  0  0  0  0  0  0  0
    6.6850   -0.0010    1.5470 C   0  0  2  0  0  0  0  0  0  0  0  0
    7.5720    1.0820    2.0900 C   0  0  0  0  0  0  0  0  0  0  0  0
    5.5700    0.5660    0.6720 C   0  0  2  0  0  0  0  0  0  0  0  0
    4.9910    1.7440    1.4530 C   0  0  0  0  0  0  0  0  0  0  0  0
    6.2340    1.1410   -0.4780 N   0  0  0  0  0  0  0  0  0  0  0  0
    5.3890    1.8630   -1.3670 C   0  0  0  0  0  0  0  0  0  0  0  0
    0.8710   -1.6390   -2.5430 C   0  0  0  0  0  0  0  0  0  0  0  0
    2.1540   -2.0760   -3.0960 C   0  0  0  0  0  0  0  0  0  0  0  0
   -0.6800   -2.3980   -3.1630 S   0  0  0  0  0  0  0  0  0  0  0  0
   -1.6930   -1.3660   -2.0210 C   0  0  0  0  0  0  0  0  0  0  0  0
   -3.0660   -1.3800   -1.9370 C   0  0  0  0  0  0  0  0  0  0  0  0
   -3.7280   -2.1570   -2.6530 O   0  0  0  0  0  0  0  0  0  0  0  0
   -5.5130   -1.7840   -0.0460 C   0  0  0  0  0  0  0  0  0  0  0  0
   -5.1900   -2.9750   -0.2730 O   0  0  0  0  0  0  0  0  0  0  0  0
  1  2  1  0
  2  3  1  0
  3  4  1  0
  3 40  1  0
  4  5  2  0
  4  6  1  0
  6  7  2  3
  6 13  1  0
  7  8  1  0
  7  9  1  0
  9 10  1  0
 10 11  2  0
 10 12  1  0
 13 14  1  1
 13 40  1  0
 14 15  2  0
 14 38  1  0
 15 16  1  0
 15 17  1  0
 17 18  1  0
 17 19  1  0
 19 20  1  0
 19 37  2  0
 20 21  1  0
 20 34  2  0
 21 22  1  0
 22 23  1  0
 24 23  1  1
 24 25  1  0
 24 30  1  0
 25 26  1  0
 26 27  1  0
 27 28  1  0
 28 29  1  1
 28 30  1  0
 30 31  1  1
 30 32  1  0
 32 33  1  0
 34 35  1  0
 34 36  1  0
 36 37  1  0
 37 38  1  0
 38 39  2  0
 40 41  2  0
M  CHG  1  23   1
M  END
