
     RDKit          3D

 41 43  0  0  0  0  0  0  0  0999 V2000
   -2.9460    3.7280    1.6080 C   0  0  0  0  0  0  0  0  0  0  0  0
   -3.4860    3.0870    0.5920 C   0  0  0  0  0  0  0  0  0  0  0  0
   -4.3110    3.8960   -0.2860 C   0  0  0  0  0  0  0  0  0  0  0  0
   -4.9380    3.4870   -1.3240 C   0  0  0  0  0  0  0  0  0  0  0  0
   -5.7410    4.5450   -2.0810 C   0  0  0  0  0  0  0  0  0  0  0  0
   -3.3140    1.6590    0.4010 C   0  0  1  0  0  0  0  0  0  0  0  0
   -3.5020    1.1340   -0.8630 O   0  0  0  0  0  0  0  0  0  0  0  0
   -2.3000    0.9190    1.1860 C   0  0  0  0  0  0  0  0  0  0  0  0
   -1.0100    0.6890    0.6440 N   0  0  0  0  0  0  0  0  0  0  0  0
    0.0740    1.6440    0.7240 C   0  0  0  0  0  0  0  0  0  0  0  0
   -0.1480    2.8640    0.8550 O   0  0  0  0  0  0  0  0  0  0  0  0
    1.5190    1.2100    0.6530 C   0  0  0  0  0  0  0  0  0  0  0  0
    1.9080    0.5770    1.8620 N   0  0  0  0  0  0  0  0  0  0  0  0
    2.8900   -0.4340    2.0490 C   0  0  0  0  0  0  0  0  0  0  0  0
    2.8470   -1.0510    3.1750 O   0  0  0  0  0  0  0  0  0  0  0  0
    3.8920   -0.8370    1.1610 N   0  0  0  0  0  0  0  0  0  0  0  0
    3.8210   -1.1280   -0.2190 C   0  0  0  0  0  0  0  0  0  0  0  0
    4.8160   -0.5430   -0.9970 C   0  0  0  0  0  0  0  0  0  0  0  0
    5.9510    0.2160   -0.5030 C   0  0  0  0  0  0  0  0  0  0  0  0
    6.0420    1.1740    0.3200 C   0  0  0  0  0  0  0  0  0  0  0  0
    7.3550    1.8370    0.7080 C   0  0  0  0  0  0  0  0  0  0  0  0
    7.1360    3.2620    0.8630 C   0  0  0  0  0  0  0  0  0  0  0  0
    5.9290    3.6800    1.1760 C   0  0  0  0  0  0  0  0  0  0  0  0
    4.9270    2.1700    1.2990 S   0  0  0  0  0  0  0  0  0  0  0  0
    4.8090   -0.7350   -2.3920 C   0  0  0  0  0  0  0  0  0  0  0  0
    3.8200   -1.4980   -2.9400 C   0  0  0  0  0  0  0  0  0  0  0  0
    2.8250   -2.0950   -2.2030 C   0  0  0  0  0  0  0  0  0  0  0  0
    1.8070   -2.9160   -2.9190 C   0  0  0  0  0  0  0  0  0  0  0  0
    2.8190   -1.9130   -0.8100 C   0  0  0  0  0  0  0  0  0  0  0  0
    1.8020   -2.6690   -0.1050 C   0  0  0  0  0  0  0  0  0  0  0  0
    1.6220   -3.8830   -0.6260 O   0  0  0  0  0  0  0  0  0  0  0  0
    0.9990   -2.3500    1.0030 N   0  0  0  0  0  0  0  0  0  0  0  0
   -0.0370   -1.4270    1.1590 C   0  0  0  0  0  0  0  0  0  0  0  0
   -0.5320   -1.2020    2.3250 O   0  0  0  0  0  0  0  0  0  0  0  0
   -0.6710   -0.6190    0.0590 C   0  0  1  0  0  0  0  0  0  0  0  0
   -1.6440   -1.3740   -0.6890 C   0  0  0  0  0  0  0  0  0  0  0  0
   -2.8890   -1.8460   -0.0950 N   0  0  0  0  0  0  0  0  0  0  0  0
   -3.6810   -2.2840   -1.2960 C   0  0  0  0  0  0  0  0  0  0  0  0
   -5.0670   -2.6370   -0.9770 C   0  0  0  0  0  0  0  0  0  0  0  0
   -2.6320   -3.1230    0.5770 C   0  0  0  0  0  0  0  0  0  0  0  0
   -3.7510   -3.6140    1.4230 C   0  0  0  0  0  0  0  0  0  0  0  0
  1  2  2  0
  2  3  1  0
  2  6  1  0
  3  4  2  3
  4  5  1  0
  6  7  1  6
  6  8  1  0
  8  9  1  0
  9 10  1  0
  9 35  1  0
 10 11  2  0
 10 12  1  0
 12 13  1  0
 13 14  1  0
 14 15  2  0
 14 16  1  0
 16 17  1  0
 17 18  2  0
 17 29  1  0
 18 19  1  0
 18 25  1  0
 19 20  2  3
 20 21  1  0
 20 24  1  0
 21 22  1  0
 22 23  2  0
 23 24  1  0
 25 26  2  0
 26 27  1  0
 27 28  1  0
 27 29  2  0
 29 30  1  0
 30 31  2  0
 30 32  1  0
 32 33  1  0
 33 34  2  0
 33 35  1  0
 35 36  1  1
 36 37  1  0
 37 38  1  0
 37 40  1  0
 38 39  1  0
 40 41  1  0
M  END
