
     RDKit          3D

 41 43  0  0  0  0  0  0  0  0999 V2000
   -5.0200   -3.2320   -0.0210 C   0  0  0  0  0  0  0  0  0  0  0  0
   -3.7090   -3.2650    0.7030 C   0  0  0  0  0  0  0  0  0  0  0  0
   -3.4280   -1.9700    1.4370 C   0  0  0  0  0  0  0  0  0  0  0  0
   -3.3810   -0.8430    0.5420 N   0  0  0  0  0  0  0  0  0  0  0  0
   -4.3350    0.2120    0.5040 C   0  0  0  0  0  0  0  0  0  0  0  0
   -5.1130    0.5430    1.4790 N   0  0  0  0  0  0  0  0  0  0  0  0
   -6.0710    1.5970    1.4470 C   0  0  1  0  0  0  0  0  0  0  0  0
   -7.0760    1.3060    2.5710 C   0  0  0  0  0  0  0  0  0  0  0  0
   -5.3890    2.8930    1.8350 C   0  0  0  0  0  0  0  0  0  0  0  0
   -4.2250    0.8080   -0.8500 C   0  0  2  0  0  0  0  0  0  0  0  0
   -4.9060   -0.0200   -1.8330 N   0  0  0  0  0  0  0  0  0  0  0  0
   -5.8900    0.4770   -2.7100 C   0  0  0  0  0  0  0  0  0  0  0  0
   -6.5840   -0.3560   -3.7110 C   0  0  0  0  0  0  0  0  0  0  0  0
   -6.1690    1.7200   -2.6020 O   0  0  0  0  0  0  0  0  0  0  0  0
   -2.7440    0.7090   -1.1210 C   0  0  0  0  0  0  0  0  0  0  0  0
   -2.3500   -0.5950   -0.4730 C   0  0  1  0  0  0  0  0  0  0  0  0
   -1.0630   -0.3510    0.2960 C   0  0  0  0  0  0  0  0  0  0  0  0
    0.1110   -0.0800   -0.5980 C   0  0  0  0  0  0  0  0  0  0  0  0
    1.2880    0.1440    0.2590 N   0  0  0  0  0  0  0  0  0  0  0  0
    1.5090    1.5170    0.6550 C   0  0  0  0  0  0  0  0  0  0  0  0
    1.6360    2.4360   -0.5060 C   0  0  0  0  0  0  0  0  0  0  0  0
    0.6620    3.5260   -0.7220 C   0  0  0  0  0  0  0  0  0  0  0  0
    0.7360    4.4180   -1.7980 N   0  0  0  0  0  0  0  0  0  0  0  0
   -0.2640    3.6270    0.1190 O   0  0  0  0  0  0  0  0  0  0  0  0
    2.6000    2.3440   -1.3950 C   0  0  0  0  0  0  0  0  0  0  0  0
    3.9040    1.1380   -1.3840 S   0  0  0  0  0  0  0  0  0  0  0  0
    5.5360    1.9110   -1.3710 C   0  0  0  0  0  0  0  0  0  0  0  0
    6.6000    0.8760   -1.0030 C   0  0  0  0  0  0  0  0  0  0  0  0
    6.9320    1.0520    0.4420 C   0  0  0  0  0  0  0  0  0  0  0  0
    7.3190   -0.1170    1.1190 O   0  0  0  0  0  0  0  0  0  0  0  0
    7.2330   -1.4260    0.7540 C   0  0  0  0  0  0  0  0  0  0  0  0
    8.3720   -2.1970    0.6160 C   0  0  0  0  0  0  0  0  0  0  0  0
    8.3650   -3.5330    0.2470 C   0  0  0  0  0  0  0  0  0  0  0  0
    7.1770   -4.1520   -0.0040 C   0  0  0  0  0  0  0  0  0  0  0  0
    6.0120   -3.4070    0.1260 C   0  0  0  0  0  0  0  0  0  0  0  0
    6.0130   -2.0720    0.4970 C   0  0  0  0  0  0  0  0  0  0  0  0
    4.8100   -1.4050    0.6070 O   0  0  0  0  0  0  0  0  0  0  0  0
    4.3160   -0.6970    1.7290 C   0  0  0  0  0  0  0  0  0  0  0  0
    2.8280   -1.0360    1.9450 C   0  0  0  0  0  0  0  0  0  0  0  0
    2.1080   -0.9500    0.6350 C   0  0  0  0  0  0  0  0  0  0  0  0
    2.2200   -1.8980   -0.2070 O   0  0  0  0  0  0  0  0  0  0  0  0
  1  2  1  0
  2  3  1  0
  3  4  1  0
  4  5  1  0
  4 16  1  0
  5  6  2  3
  5 10  1  0
  6  7  1  0
  7  8  1  1
  7  9  1  0
 10 11  1  6
 10 15  1  0
 11 12  1  0
 12 13  1  0
 12 14  2  0
 15 16  1  0
 16 17  1  1
 17 18  1  0
 18 19  1  0
 19 20  1  0
 19 40  1  0
 20 21  1  0
 21 22  1  0
 21 25  2  0
 22 23  1  0
 22 24  2  0
 25 26  1  0
 26 27  1  0
 27 28  1  0
 28 29  1  0
 29 30  1  0
 30 31  1  0
 31 32  2  0
 31 36  1  0
 32 33  1  0
 33 34  2  0
 34 35  1  0
 35 36  2  0
 36 37  1  0
 37 38  1  0
 38 39  1  0
 39 40  1  0
 40 41  2  0
M  END
