
     RDKit          3D

 41 43  0  0  0  0  0  0  0  0999 V2000
   -2.3610   -3.8660   -3.2930 C   0  0  0  0  0  0  0  0  0  0  0  0
   -1.9630   -2.9490   -2.1930 C   0  0  0  0  0  0  0  0  0  0  0  0
   -0.7100   -2.5430   -2.1010 C   0  0  0  0  0  0  0  0  0  0  0  0
   -0.2530   -1.6060   -0.9950 C   0  0  0  0  0  0  0  0  0  0  0  0
    0.8180   -0.7570   -1.4950 C   0  0  0  0  0  0  0  0  0  0  0  0
    1.1760    0.5300   -0.9020 C   0  0  2  0  0  0  0  0  0  0  0  0
    1.9780    0.5510    0.3600 C   0  0  0  0  0  0  0  0  0  0  0  0
    1.3920   -0.0960    1.5020 N   0  0  0  0  0  0  0  0  0  0  0  0
    2.4970    0.0670    2.8430 S   0  0  2  0  0  0  0  0  0  0  0  0
    1.8370   -0.6090    4.0250 O   0  0  0  0  0  0  0  0  0  0  0  0
    2.7890    1.4930    3.1610 O   0  0  0  0  0  0  0  0  0  0  0  0
    3.9970   -0.7630    2.3950 C   0  0  0  0  0  0  0  0  0  0  0  0
    5.0360   -0.6640    3.5010 C   0  0  0  0  0  0  0  0  0  0  0  0
    6.2510   -1.4220    2.9990 C   0  0  0  0  0  0  0  0  0  0  0  0
    6.7720   -0.8800    1.7500 C   0  0  0  0  0  0  0  0  0  0  0  0
    7.1870   -0.4700    0.7640 N   0  0  0  0  0  0  0  0  0  0  0  0
    0.2430    1.6350   -1.0350 N   0  0  0  0  0  0  0  0  0  0  0  0
   -0.3640    1.7880   -2.3590 C   0  0  0  0  0  0  0  0  0  0  0  0
   -1.5130    1.1720   -2.7260 C   0  0  0  0  0  0  0  0  0  0  0  0
   -2.0840    1.3150   -3.9720 C   0  0  0  0  0  0  0  0  0  0  0  0
   -1.4900    2.1060   -4.9010 C   0  0  0  0  0  0  0  0  0  0  0  0
   -0.3220    2.7490   -4.5660 C   0  0  0  0  0  0  0  0  0  0  0  0
    0.2520    2.5970   -3.2950 C   0  0  0  0  0  0  0  0  0  0  0  0
    1.4890    3.3310   -3.0490 C   0  0  0  0  0  0  0  0  0  0  0  0
   -0.1020    2.5870   -0.0600 C   0  0  0  0  0  0  0  0  0  0  0  0
   -0.2260    3.7890   -0.5540 O   0  0  0  0  0  0  0  0  0  0  0  0
   -0.3500    2.5530    1.3630 C   0  0  0  0  0  0  0  0  0  0  0  0
    0.3800    3.4280    2.1820 C   0  0  0  0  0  0  0  0  0  0  0  0
    0.2680    3.5330    3.5360 C   0  0  0  0  0  0  0  0  0  0  0  0
   -0.6410    2.7140    4.1670 C   0  0  0  0  0  0  0  0  0  0  0  0
   -1.3930    1.8320    3.4230 C   0  0  0  0  0  0  0  0  0  0  0  0
   -1.2420    1.7620    2.0500 C   0  0  0  0  0  0  0  0  0  0  0  0
   -2.1480    0.7750    1.3890 C   0  0  2  0  0  0  0  0  0  0  0  0
   -3.4540    1.2950    1.5970 O   0  0  0  0  0  0  0  0  0  0  0  0
   -2.1310   -0.5830    1.9830 C   0  0  0  0  0  0  0  0  0  0  0  0
   -3.3310   -1.3410    1.7450 N   0  0  0  0  0  0  0  0  0  0  0  0
   -3.4230   -2.6790    1.2890 C   0  0  0  0  0  0  0  0  0  0  0  0
   -4.0670   -3.5410    2.0190 O   0  0  0  0  0  0  0  0  0  0  0  0
   -2.8430   -3.1150    0.0720 N   0  0  0  0  0  0  0  0  0  0  0  0
   -3.0060   -2.5200   -1.2250 C   0  0  2  0  0  0  0  0  0  0  0  0
   -4.3880   -2.9590   -1.7370 C   0  0  0  0  0  0  0  0  0  0  0  0
  1  2  1  0
  2  3  2  0
  2 40  1  0
  3  4  1  0
  4  5  1  0
  5  6  1  0
  6  7  1  1
  6 17  1  0
  7  8  1  0
  8  9  1  0
  9 10  2  0
  9 11  2  0
  9 12  1  6
 12 13  1  0
 13 14  1  0
 14 15  1  0
 15 16  3  0
 17 18  1  0
 17 25  1  0
 18 19  2  0
 18 23  1  0
 19 20  1  0
 20 21  2  0
 21 22  1  0
 22 23  2  0
 23 24  1  0
 25 26  2  0
 25 27  1  0
 27 28  2  0
 27 32  1  0
 28 29  1  0
 29 30  2  0
 30 31  1  0
 31 32  2  0
 32 33  1  0
 33 34  1  1
 33 35  1  0
 35 36  1  0
 36 37  1  0
 37 38  2  0
 37 39  1  0
 39 40  1  0
 40 41  1  6
M  END
