
     RDKit          3D

 41 44  0  0  0  0  0  0  0  0999 V2000
   -4.0060   -0.9430   -5.4780 C   0  0  0  0  0  0  0  0  0  0  0  0
   -3.2270    0.2230   -4.8660 C   0  0  0  0  0  0  0  0  0  0  0  0
   -2.8320   -0.1140   -3.4380 C   0  0  0  0  0  0  0  0  0  0  0  0
   -2.1130    0.9990   -2.7780 C   0  0  2  0  0  0  0  0  0  0  0  0
   -0.7980    1.2950   -3.5080 C   0  0  0  0  0  0  0  0  0  0  0  0
    0.3630    0.4370   -3.0650 C   0  0  0  0  0  0  0  0  0  0  0  0
    0.3070    0.1210   -1.5950 C   0  0  1  0  0  0  0  0  0  0  0  0
   -0.2890   -1.2670   -1.3570 C   0  0  0  0  0  0  0  0  0  0  0  0
    1.4590    0.1620   -0.8100 N   0  0  0  0  0  0  0  0  0  0  0  0
    1.1610    0.9360    0.3800 C   0  0  0  0  0  0  0  0  0  0  0  0
    2.0550    0.8740    1.5410 C   0  0  0  0  0  0  0  0  0  0  0  0
    1.8400    1.5200    2.5860 O   0  0  0  0  0  0  0  0  0  0  0  0
    3.2320    0.0600    1.5420 N   0  0  0  0  0  0  0  0  0  0  0  0
    4.1290   -0.0440    2.6520 C   0  0  0  0  0  0  0  0  0  0  0  0
    5.2510   -0.9780    2.2930 C   0  0  0  0  0  0  0  0  0  0  0  0
    5.2310   -1.4660    1.1260 O   0  0  0  0  0  0  0  0  0  0  0  0
    6.2690   -1.2930    3.2120 N   0  0  0  0  0  0  0  0  0  0  0  0
    7.3580   -2.1560    2.9450 C   0  0  0  0  0  0  0  0  0  0  0  0
    7.7600   -2.4990    1.6790 C   0  0  0  0  0  0  0  0  0  0  0  0
    8.8280   -3.3750    1.4700 C   0  0  0  0  0  0  0  0  0  0  0  0
    9.5220   -3.9320    2.5240 C   0  0  0  0  0  0  0  0  0  0  0  0
    9.1190   -3.5870    3.8080 C   0  0  0  0  0  0  0  0  0  0  0  0
    8.0690   -2.7260    4.0080 C   0  0  0  0  0  0  0  0  0  0  0  0
    0.0460    1.6000    0.2160 C   0  0  0  0  0  0  0  0  0  0  0  0
   -0.5680    2.5040    1.1800 C   0  0  0  0  0  0  0  0  0  0  0  0
   -0.1900    2.7640    2.3390 O   0  0  0  0  0  0  0  0  0  0  0  0
   -1.7330    3.2280    0.8350 O   0  0  0  0  0  0  0  0  0  0  0  0
   -2.3840    4.1220    1.6850 C   0  0  2  0  0  0  0  0  0  0  0  0
   -3.7790    3.6580    2.0050 C   0  0  0  0  0  0  0  0  0  0  0  0
   -2.3460    5.5520    1.1940 C   0  0  0  0  0  0  0  0  0  0  0  0
   -0.5050    1.2280   -1.0230 C   0  0  2  0  0  0  0  0  0  0  0  0
   -1.8980    0.8570   -1.3010 C   0  0  0  0  0  0  0  0  0  0  0  0
   -2.8190    0.5630   -0.4760 C   0  0  0  0  0  0  0  0  0  0  0  0
   -4.1450    0.3810   -0.9570 N   0  0  0  0  0  0  0  0  0  0  0  0
   -5.2860   -0.4500   -0.7580 C   0  0  0  0  0  0  0  0  0  0  0  0
   -6.3270   -0.0430   -1.3570 O   0  0  0  0  0  0  0  0  0  0  0  0
   -5.4820   -1.6500   -0.0160 N   0  0  0  0  0  0  0  0  0  0  0  0
   -4.6620   -2.5510    0.7670 C   0  0  0  0  0  0  0  0  0  0  0  0
   -3.9860   -1.8560    1.9230 C   0  0  0  0  0  0  0  0  0  0  0  0
   -2.5660   -1.4710    1.6050 C   0  0  0  0  0  0  0  0  0  0  0  0
   -2.3250    0.2550    1.2540 S   0  0  0  0  0  0  0  0  0  0  0  0
  1  2  1  0
  2  3  1  0
  4  3  1  6
  4  5  1  0
  4 32  1  0
  5  6  1  0
  6  7  1  0
  7  8  1  6
  7  9  1  0
  7 31  1  0
  9 10  1  0
 10 11  1  0
 10 24  2  0
 11 12  2  0
 11 13  1  0
 13 14  1  0
 14 15  1  0
 15 16  2  0
 15 17  1  0
 17 18  1  0
 18 19  2  0
 18 23  1  0
 19 20  1  0
 20 21  2  0
 21 22  1  0
 22 23  2  0
 24 25  1  0
 31 24  1  1
 25 26  2  0
 25 27  1  0
 27 28  1  0
 28 29  1  6
 28 30  1  0
 31 32  1  0
 32 33  2  3
 33 34  1  0
 33 41  1  0
 34 35  1  0
 35 36  2  0
 35 37  1  0
 37 38  1  0
 38 39  1  0
 39 40  1  0
 40 41  1  0
M  END
