
     RDKit          3D

 26 28  0  0  0  0  0  0  0  0999 V2000
    6.2860    1.5560    1.5580 C   0  0  0  0  0  0  0  0  0  0  0  0
    5.5250    2.0520    0.3360 C   0  0  0  0  0  0  0  0  0  0  0  0
    4.9630    0.8930   -0.3820 C   0  0  0  0  0  0  0  0  0  0  0  0
    5.7410    0.2890   -1.1660 O   0  0  0  0  0  0  0  0  0  0  0  0
    3.5810    0.4370   -0.2200 C   0  0  0  0  0  0  0  0  0  0  0  0
    2.7000    1.0620    0.6320 C   0  0  0  0  0  0  0  0  0  0  0  0
    1.3990    0.5750    0.7350 C   0  0  0  0  0  0  0  0  0  0  0  0
    0.9800   -0.5110    0.0070 C   0  0  0  0  0  0  0  0  0  0  0  0
    1.8530   -1.1630   -0.8630 C   0  0  0  0  0  0  0  0  0  0  0  0
    3.1550   -0.6560   -0.9510 C   0  0  0  0  0  0  0  0  0  0  0  0
    1.4720   -2.3300   -1.6750 C   0  0  0  0  0  0  0  0  0  0  0  0
    0.1640   -2.7460   -1.5060 O   0  0  0  0  0  0  0  0  0  0  0  0
   -0.7460   -2.1710   -0.6850 C   0  0  0  0  0  0  0  0  0  0  0  0
   -1.9320   -2.6420   -0.6110 O   0  0  0  0  0  0  0  0  0  0  0  0
   -0.4000   -1.0070    0.1340 C   0  0  0  0  0  0  0  0  0  0  0  0
   -1.2710   -0.4720    0.9090 C   0  0  0  0  0  0  0  0  0  0  0  0
   -1.2880    0.5730    1.7720 O   0  0  0  0  0  0  0  0  0  0  0  0
   -2.5860   -1.0910    0.9110 N   0  0  0  0  0  0  0  0  0  0  0  0
   -3.6730   -0.5590    0.1690 C   0  0  0  0  0  0  0  0  0  0  0  0
   -3.5440    0.5860   -0.5990 C   0  0  0  0  0  0  0  0  0  0  0  0
   -4.5930    1.1110   -1.3230 C   0  0  0  0  0  0  0  0  0  0  0  0
   -4.4930    2.2420   -2.0910 O   0  0  0  0  0  0  0  0  0  0  0  0
   -5.8090    0.4630   -1.2710 C   0  0  0  0  0  0  0  0  0  0  0  0
   -5.9880   -0.6790   -0.5220 C   0  0  0  0  0  0  0  0  0  0  0  0
   -7.2230   -1.3360   -0.4700 O   0  0  0  0  0  0  0  0  0  0  0  0
   -4.9100   -1.1630    0.1830 C   0  0  0  0  0  0  0  0  0  0  0  0
  1  2  1  0
  2  3  1  0
  3  4  2  0
  3  5  1  0
  5  6  2  0
  5 10  1  0
  6  7  1  0
  7  8  2  0
  8  9  1  0
  8 15  1  0
  9 10  2  0
  9 11  1  0
 11 12  1  0
 12 13  1  0
 13 14  2  0
 13 15  1  0
 15 16  2  3
 16 17  1  0
 16 18  1  0
 18 19  1  0
 19 20  2  0
 19 26  1  0
 20 21  1  0
 21 22  1  0
 21 23  2  0
 23 24  1  0
 24 25  1  0
 24 26  2  0
M  END
