
     RDKit          3D

 26 28  0  0  0  0  0  0  0  0999 V2000
    2.8100    2.5550   -0.7250 C   0  0  0  0  0  0  0  0  0  0  0  0
    2.7820    1.1230   -1.1600 C   0  0  0  0  0  0  0  0  0  0  0  0
    2.2200    0.1920   -0.1700 C   0  0  0  0  0  0  0  0  0  0  0  0
    0.8610    0.1520    0.0310 C   0  0  0  0  0  0  0  0  0  0  0  0
    0.3110   -0.7310    0.9600 C   0  0  0  0  0  0  0  0  0  0  0  0
    1.0950   -1.5550    1.6700 N   0  0  0  0  0  0  0  0  0  0  0  0
    2.4260   -1.5220    1.4780 C   0  0  0  0  0  0  0  0  0  0  0  0
    3.1810   -2.2990    2.1450 O   0  0  0  0  0  0  0  0  0  0  0  0
    3.0360   -0.6750    0.5780 C   0  0  0  0  0  0  0  0  0  0  0  0
    4.4530   -0.6100    0.3700 C   0  0  0  0  0  0  0  0  0  0  0  0
    5.1780    0.1600    1.0480 O   0  0  0  0  0  0  0  0  0  0  0  0
    5.0540   -1.4000   -0.5890 O   0  0  0  0  0  0  0  0  0  0  0  0
    6.4610   -1.2920   -0.7520 C   0  0  0  0  0  0  0  0  0  0  0  0
   -1.1500   -0.7780    1.2100 C   0  0  0  0  0  0  0  0  0  0  0  0
   -1.9310   -0.2470    0.0200 C   0  0  1  0  0  0  0  0  0  0  0  0
   -3.3610   -0.2820    0.3490 C   0  0  0  0  0  0  0  0  0  0  0  0
   -3.8380   -0.5270    1.6230 C   0  0  0  0  0  0  0  0  0  0  0  0
   -5.1850   -0.5350    1.9480 C   0  0  0  0  0  0  0  0  0  0  0  0
   -6.0830   -0.2830    0.9360 C   0  0  0  0  0  0  0  0  0  0  0  0
   -5.6120   -0.0380   -0.3430 C   0  0  0  0  0  0  0  0  0  0  0  0
   -6.5370    0.2150   -1.3570 O   0  0  0  0  0  0  0  0  0  0  0  0
   -4.2750   -0.0280   -0.6780 C   0  0  0  0  0  0  0  0  0  0  0  0
   -3.8860    0.2210   -1.9800 O   0  0  0  0  0  0  0  0  0  0  0  0
   -1.4160    1.1970   -0.1800 C   0  0  0  0  0  0  0  0  0  0  0  0
   -0.0210    1.0300   -0.7130 C   0  0  0  0  0  0  0  0  0  0  0  0
    0.3630    1.6190   -1.7470 O   0  0  0  0  0  0  0  0  0  0  0  0
  1  2  1  0
  2  3  1  0
  3  4  1  0
  3  9  2  0
  4  5  2  0
  4 25  1  0
  5  6  1  0
  5 14  1  0
  6  7  1  0
  7  8  2  0
  7  9  1  0
  9 10  1  0
 10 11  2  0
 10 12  1  0
 12 13  1  0
 14 15  1  0
 15 16  1  1
 15 24  1  0
 16 17  2  0
 16 22  1  0
 17 18  1  0
 18 19  2  0
 19 20  1  0
 20 21  1  0
 20 22  2  0
 22 23  1  0
 24 25  1  0
 25 26  2  0
M  END
