
     RDKit          3D

 26 28  0  0  0  0  0  0  0  0999 V2000
    6.8560   -1.2600    0.1720 C   0  0  0  0  0  0  0  0  0  0  0  0
    5.5030   -0.6650    0.2030 C   0  0  0  0  0  0  0  0  0  0  0  0
    5.3800    0.6980    0.0760 C   0  0  0  0  0  0  0  0  0  0  0  0
    4.1220    1.2430    0.1050 C   0  0  0  0  0  0  0  0  0  0  0  0
    3.0310    0.3800    0.2640 C   0  0  0  0  0  0  0  0  0  0  0  0
    1.6910    0.9690    0.2540 C   0  0  0  0  0  0  0  0  0  0  0  0
    1.6860    2.2120    0.5560 O   0  0  0  0  0  0  0  0  0  0  0  0
    0.5170    0.2540   -0.0580 N   0  0  0  0  0  0  0  0  0  0  0  0
   -0.7580    0.8470   -0.0590 C   0  0  0  0  0  0  0  0  0  0  0  0
   -0.9730    2.1980    0.0070 C   0  0  0  0  0  0  0  0  0  0  0  0
   -2.2580    2.7770   -0.0420 C   0  0  0  0  0  0  0  0  0  0  0  0
   -2.3450    4.2390    0.0390 C   0  0  0  0  0  0  0  0  0  0  0  0
   -3.2930    1.9220   -0.1610 C   0  0  0  0  0  0  0  0  0  0  0  0
   -4.5820    2.4380   -0.2150 O   0  0  0  0  0  0  0  0  0  0  0  0
   -3.1190    0.5530   -0.2310 C   0  0  0  0  0  0  0  0  0  0  0  0
   -4.2270   -0.2790   -0.3470 C   0  0  0  0  0  0  0  0  0  0  0  0
   -4.0630   -1.6440   -0.4100 C   0  0  0  0  0  0  0  0  0  0  0  0
   -5.1830   -2.4660   -0.5250 O   0  0  0  0  0  0  0  0  0  0  0  0
   -2.8330   -2.2330   -0.3630 C   0  0  0  0  0  0  0  0  0  0  0  0
   -2.6130   -3.6930   -0.4270 C   0  0  0  0  0  0  0  0  0  0  0  0
   -1.2590   -4.0060   -0.3570 O   0  0  0  0  0  0  0  0  0  0  0  0
   -1.7170   -1.3860   -0.2460 C   0  0  0  0  0  0  0  0  0  0  0  0
   -1.8650   -0.0210   -0.1830 C   0  0  0  0  0  0  0  0  0  0  0  0
    3.2140   -0.9620    0.3870 C   0  0  0  0  0  0  0  0  0  0  0  0
    2.2630   -1.8000    0.5380 O   0  0  0  0  0  0  0  0  0  0  0  0
    4.4630   -1.4400    0.3500 O   0  0  0  0  0  0  0  0  0  0  0  0
  1  2  1  0
  2  3  2  0
  2 26  1  0
  3  4  1  0
  4  5  2  0
  5  6  1  0
  5 24  1  0
  6  7  2  0
  6  8  1  0
  8  9  1  0
  9 10  2  0
  9 23  1  0
 10 11  1  0
 11 12  1  0
 11 13  2  0
 13 14  1  0
 13 15  1  0
 15 16  2  0
 15 23  1  0
 16 17  1  0
 17 18  1  0
 17 19  2  0
 19 20  1  0
 19 22  1  0
 20 21  1  0
 22 23  2  0
 24 25  2  0
 24 26  1  0
M  END
