
     RDKit          3D

 26 28  0  0  0  0  0  0  0  0999 V2000
    8.6320    0.1200    0.7420 C   0  0  0  0  0  0  0  0  0  0  0  0
    7.3560    0.3410    0.1500 O   0  0  0  0  0  0  0  0  0  0  0  0
    6.2070   -0.2710    0.6300 C   0  0  0  0  0  0  0  0  0  0  0  0
    6.3270   -1.0350    1.6170 O   0  0  0  0  0  0  0  0  0  0  0  0
    4.8880   -0.0230   -0.0090 C   0  0  0  0  0  0  0  0  0  0  0  0
    4.7900    0.8280   -1.0860 C   0  0  0  0  0  0  0  0  0  0  0  0
    3.5970    1.0890   -1.7120 C   0  0  0  0  0  0  0  0  0  0  0  0
    2.4380    0.4720   -1.2430 C   0  0  0  0  0  0  0  0  0  0  0  0
    2.5340   -0.3790   -0.1670 C   0  0  0  0  0  0  0  0  0  0  0  0
    3.7570   -0.6290    0.4540 C   0  0  0  0  0  0  0  0  0  0  0  0
    1.3760   -0.9810    0.2810 O   0  0  0  0  0  0  0  0  0  0  0  0
    0.1560   -0.7380   -0.3320 C   0  0  0  0  0  0  0  0  0  0  0  0
   -0.9840   -0.9900    0.3380 C   0  0  0  0  0  0  0  0  0  0  0  0
   -2.3120   -0.7930   -0.1670 C   0  0  0  0  0  0  0  0  0  0  0  0
   -2.6570   -1.2130   -1.4210 C   0  0  0  0  0  0  0  0  0  0  0  0
   -3.9500   -0.9680   -1.8330 C   0  0  0  0  0  0  0  0  0  0  0  0
   -4.8520   -0.3310   -1.0220 C   0  0  0  0  0  0  0  0  0  0  0  0
   -6.2260   -0.0980   -1.5240 C   0  0  0  0  0  0  0  0  0  0  0  0
   -4.5350    0.1160    0.2750 C   0  0  0  0  0  0  0  0  0  0  0  0
   -5.5350    0.7590    1.0280 N   0  0  0  0  0  0  0  0  0  0  0  0
   -5.3490    1.2400    2.3300 C   0  0  0  0  0  0  0  0  0  0  0  0
   -4.2810    1.1510    2.9640 O   0  0  0  0  0  0  0  0  0  0  0  0
   -6.3960    1.8810    3.0360 O   0  0  0  0  0  0  0  0  0  0  0  0
   -3.2470   -0.1390    0.6590 C   0  0  0  0  0  0  0  0  0  0  0  0
    0.1550   -0.2030   -1.7120 C   0  0  0  0  0  0  0  0  0  0  0  0
    1.2240    0.7120   -1.8460 O   0  0  0  0  0  0  0  0  0  0  0  0
  1  2  1  0
  2  3  1  0
  3  4  2  0
  3  5  1  0
  5  6  2  0
  5 10  1  0
  6  7  1  0
  7  8  2  0
  8  9  1  0
  8 26  1  0
  9 10  2  0
  9 11  1  0
 11 12  1  0
 12 13  2  3
 12 25  1  0
 13 14  1  0
 14 15  2  0
 14 24  1  0
 15 16  1  0
 16 17  2  0
 17 18  1  0
 17 19  1  0
 19 20  1  0
 19 24  2  0
 20 21  1  0
 21 22  2  0
 21 23  1  0
 25 26  1  0
M  END
