
     RDKit          3D

 26 28  0  0  0  0  0  0  0  0999 V2000
   -3.1910    1.5980   -0.9450 O   0  0  0  0  0  0  0  0  0  0  0  0
   -2.2630    2.0870   -1.6130 C   0  0  0  0  0  0  0  0  0  0  0  0
   -2.6750    2.9080   -2.6750 O   0  0  0  0  0  0  0  0  0  0  0  0
   -0.8690    1.8460   -1.3380 C   0  0  0  0  0  0  0  0  0  0  0  0
   -0.0150    2.4760   -2.0430 O   0  0  0  0  0  0  0  0  0  0  0  0
   -0.4590    0.9490   -0.3180 N   0  0  0  0  0  0  0  0  0  0  0  0
   -1.4140    0.1420    0.3190 C   0  0  0  0  0  0  0  0  0  0  0  0
   -1.6540    0.3610    1.6880 C   0  0  0  0  0  0  0  0  0  0  0  0
   -2.5820   -0.3600    2.3810 C   0  0  0  0  0  0  0  0  0  0  0  0
   -3.3240   -1.3370    1.7590 C   0  0  0  0  0  0  0  0  0  0  0  0
   -3.1100   -1.5700    0.4320 C   0  0  0  0  0  0  0  0  0  0  0  0
   -2.1670   -0.8370   -0.2700 C   0  0  0  0  0  0  0  0  0  0  0  0
   -1.9730   -1.1750   -1.6830 C   0  0  0  0  0  0  0  0  0  0  0  0
   -1.1400   -0.6590   -2.4510 O   0  0  0  0  0  0  0  0  0  0  0  0
   -2.7810   -2.1690   -2.2680 O   0  0  0  0  0  0  0  0  0  0  0  0
    0.9000    1.0790    0.0670 C   0  0  0  0  0  0  0  0  0  0  0  0
    1.3340    2.3720    0.4440 C   0  0  0  0  0  0  0  0  0  0  0  0
    2.6110    2.6470    0.8270 C   0  0  0  0  0  0  0  0  0  0  0  0
    3.5220    1.6300    0.8490 C   0  0  0  0  0  0  0  0  0  0  0  0
    3.1400    0.3550    0.4890 C   0  0  0  0  0  0  0  0  0  0  0  0
    4.0450   -0.6790    0.5080 C   0  0  0  0  0  0  0  0  0  0  0  0
    3.7460   -1.9810    0.1640 C   0  0  0  0  0  0  0  0  0  0  0  0
    2.4530   -2.2330   -0.2160 C   0  0  0  0  0  0  0  0  0  0  0  0
    2.1310   -3.5350   -0.5650 O   0  0  0  0  0  0  0  0  0  0  0  0
    1.5210   -1.2120   -0.2440 C   0  0  0  0  0  0  0  0  0  0  0  0
    1.8180    0.0900    0.0980 C   0  0  0  0  0  0  0  0  0  0  0  0
  1  2  2  0
  2  3  1  0
  2  4  1  0
  4  5  2  0
  4  6  1  0
  6  7  1  0
  6 16  1  0
  7  8  2  0
  7 12  1  0
  8  9  1  0
  9 10  2  0
 10 11  1  0
 11 12  2  0
 12 13  1  0
 13 14  2  0
 13 15  1  0
 16 17  2  0
 16 26  1  0
 17 18  1  0
 18 19  2  0
 19 20  1  0
 20 21  2  0
 20 26  1  0
 21 22  1  0
 22 23  2  0
 23 24  1  0
 23 25  1  0
 25 26  2  0
M  END
