
     RDKit          3D

 26 28  0  0  0  0  0  0  0  0999 V2000
   -1.0850    3.7160    1.3580 C   0  0  0  0  0  0  0  0  0  0  0  0
   -0.2700    3.4790    0.3770 C   0  0  0  0  0  0  0  0  0  0  0  0
    0.4250    4.5600   -0.4350 C   0  0  0  0  0  0  0  0  0  0  0  0
    1.7520    3.8410   -0.5490 C   0  0  0  0  0  0  0  0  0  0  0  0
    2.8490    4.4160   -0.5180 O   0  0  0  0  0  0  0  0  0  0  0  0
    1.4110    2.4060   -0.6940 C   0  0  0  0  0  0  0  0  0  0  0  0
    0.2070    2.2050   -0.1420 C   0  0  0  0  0  0  0  0  0  0  0  0
   -0.4510    0.9390   -0.0160 C   0  0  0  0  0  0  0  0  0  0  0  0
    0.2080   -0.3010    0.0460 C   0  0  0  0  0  0  0  0  0  0  0  0
    1.5910   -0.3140    0.2950 N   0  0  0  0  0  0  0  0  0  0  0  0
    2.4830   -1.3920    0.1320 C   0  0  0  0  0  0  0  0  0  0  0  0
    2.1050   -2.4970   -0.2780 O   0  0  0  0  0  0  0  0  0  0  0  0
    3.9170   -1.2230    0.4530 C   0  0  0  0  0  0  0  0  0  0  0  0
    4.3340   -0.1130    0.8720 O   0  0  0  0  0  0  0  0  0  0  0  0
    4.8740   -2.3360    0.2920 C   0  0  0  0  0  0  0  0  0  0  0  0
    6.2420   -1.8900    0.6860 C   0  0  0  0  0  0  0  0  0  0  0  0
   -0.4780   -1.4960   -0.0050 C   0  0  0  0  0  0  0  0  0  0  0  0
   -1.8740   -1.4760   -0.1180 C   0  0  0  0  0  0  0  0  0  0  0  0
   -2.5490   -0.2850   -0.1770 C   0  0  0  0  0  0  0  0  0  0  0  0
   -1.8370    0.8890   -0.1270 C   0  0  0  0  0  0  0  0  0  0  0  0
   -2.5770    2.0520   -0.1990 O   0  0  0  0  0  0  0  0  0  0  0  0
   -3.9330   -0.0540   -0.2870 O   0  0  0  0  0  0  0  0  0  0  0  0
   -4.9120   -1.0480    0.0310 C   0  0  0  0  0  0  0  0  0  0  0  0
   -4.7160   -2.2710   -0.8150 C   0  0  0  0  0  0  0  0  0  0  0  0
   -3.7300   -3.2460   -0.2120 C   0  0  0  0  0  0  0  0  0  0  0  0
   -2.4270   -2.7430   -0.1570 O   0  0  0  0  0  0  0  0  0  0  0  0
  1  2  2  0
  2  3  1  0
  2  7  1  0
  3  4  1  0
  4  5  2  0
  4  6  1  0
  6  7  2  0
  7  8  1  0
  8  9  2  0
  8 20  1  0
  9 10  1  0
  9 17  1  0
 10 11  1  0
 11 12  2  0
 11 13  1  0
 13 14  2  0
 13 15  1  0
 15 16  1  0
 17 18  2  0
 18 19  1  0
 18 26  1  0
 19 20  2  0
 19 22  1  0
 20 21  1  0
 22 23  1  0
 23 24  1  0
 24 25  1  0
 25 26  1  0
M  END
