
     RDKit          3D

 26 28  0  0  0  0  0  0  0  0999 V2000
   -4.2680    0.6530   -2.3880 C   0  0  0  0  0  0  0  0  0  0  0  0
   -4.4370   -0.7360   -2.2690 O   0  0  0  0  0  0  0  0  0  0  0  0
   -3.5400   -1.6070   -1.6940 C   0  0  0  0  0  0  0  0  0  0  0  0
   -3.8310   -2.9490   -1.6520 C   0  0  0  0  0  0  0  0  0  0  0  0
   -2.9800   -3.8660   -1.0950 C   0  0  0  0  0  0  0  0  0  0  0  0
   -1.7730   -3.3970   -0.5490 C   0  0  0  0  0  0  0  0  0  0  0  0
   -1.4520   -2.0740   -0.5710 C   0  0  0  0  0  0  0  0  0  0  0  0
   -2.3250   -1.1590   -1.1420 C   0  0  0  0  0  0  0  0  0  0  0  0
   -0.1250   -1.6300   -0.0190 C   0  0  0  0  0  0  0  0  0  0  0  0
    0.0540   -0.2360    0.1830 C   0  0  0  0  0  0  0  0  0  0  0  0
   -1.0720    0.4610    0.2940 O   0  0  0  0  0  0  0  0  0  0  0  0
    1.1800    0.6570    0.2900 C   0  0  0  0  0  0  0  0  0  0  0  0
    0.9500    1.9550    0.8220 C   0  0  0  0  0  0  0  0  0  0  0  0
    1.9510    2.8640    1.0840 C   0  0  0  0  0  0  0  0  0  0  0  0
    1.6520    4.0870    1.5770 O   0  0  0  0  0  0  0  0  0  0  0  0
    2.0910    5.2430    1.9710 C   0  0  0  0  0  0  0  0  0  0  0  0
    3.0030    5.3890    3.0920 C   0  0  0  0  0  0  0  0  0  0  0  0
    3.7320    5.4870    3.9790 N   0  0  0  0  0  0  0  0  0  0  0  0
    3.2500    2.4540    0.8060 C   0  0  0  0  0  0  0  0  0  0  0  0
    3.4990    1.2120    0.2950 C   0  0  0  0  0  0  0  0  0  0  0  0
    2.4600    0.2900    0.0220 C   0  0  0  0  0  0  0  0  0  0  0  0
    2.8340   -0.9170   -0.5230 O   0  0  0  0  0  0  0  0  0  0  0  0
    0.7050   -2.5250    0.4640 C   0  0  0  0  0  0  0  0  0  0  0  0
    1.9430   -2.2500    1.0140 O   0  0  0  0  0  0  0  0  0  0  0  0
    0.3600   -3.9840    0.4520 C   0  0  0  0  0  0  0  0  0  0  0  0
   -0.9010   -4.3000    0.0210 O   0  0  0  0  0  0  0  0  0  0  0  0
  1  2  1  0
  2  3  1  0
  3  4  2  0
  3  8  1  0
  4  5  1  0
  5  6  2  0
  6  7  1  0
  6 26  1  0
  7  8  2  0
  7  9  1  0
  9 10  1  0
  9 23  2  0
 10 11  2  0
 10 12  1  0
 12 13  2  0
 12 21  1  0
 13 14  1  0
 14 15  1  0
 14 19  2  0
 15 16  1  0
 16 17  1  0
 17 18  3  0
 19 20  1  0
 20 21  2  0
 21 22  1  0
 23 24  1  0
 23 25  1  0
 25 26  1  0
M  END
