
     RDKit          3D

 25 26  0  0  0  0  0  0  0  0999 V2000
    5.0520    1.5250    1.1860 O   0  0  0  0  0  0  0  0  0  0  0  0
    4.2030    0.9520    0.4430 C   0  0  0  0  0  0  0  0  0  0  0  0
    4.6940    0.3770   -0.7110 O   0  0  0  0  0  0  0  0  0  0  0  0
    2.8120    0.9630    0.9040 C   0  0  0  0  0  0  0  0  0  0  0  0
    1.7780    0.5270   -0.1100 C   0  0  1  0  0  0  0  0  0  0  0  0
    1.8370    1.5170   -1.2460 C   0  0  1  0  0  0  0  0  0  0  0  0
    0.9340    1.2260   -2.2490 F   0  0  0  0  0  0  0  0  0  0  0  0
    1.3710    2.7280   -0.6940 F   0  0  0  0  0  0  0  0  0  0  0  0
    3.0210    1.7810   -1.7960 F   0  0  0  0  0  0  0  0  0  0  0  0
    2.2030   -0.8500   -0.5230 C   0  0  0  0  0  0  0  0  0  0  0  0
    1.1740   -1.9100   -0.4930 C   0  0  0  0  0  0  0  0  0  0  0  0
   -0.2250   -1.4390   -0.3930 C   0  0  1  0  0  0  0  0  0  0  0  0
   -0.8330   -1.2230   -1.6470 O   0  0  0  0  0  0  0  0  0  0  0  0
   -1.0960   -2.5160    0.2490 C   0  0  0  0  0  0  0  0  0  0  0  0
   -2.5210   -2.1180    0.0150 C   0  0  0  0  0  0  0  0  0  0  0  0
   -2.8120   -0.6890   -0.0510 C   0  0  0  0  0  0  0  0  0  0  0  0
   -1.7520    0.3040    0.1510 C   0  0  1  0  0  0  0  0  0  0  0  0
   -2.1910    1.4240    1.0760 C   0  0  1  0  0  0  0  0  0  0  0  0
   -1.1580    2.3410    1.2510 O   0  0  0  0  0  0  0  0  0  0  0  0
   -3.3510    2.1160    0.3350 C   0  0  2  0  0  0  0  0  0  0  0  0
   -2.8450    2.5890   -0.8770 F   0  0  0  0  0  0  0  0  0  0  0  0
   -3.9240    3.0990    1.0760 F   0  0  0  0  0  0  0  0  0  0  0  0
   -0.3750   -0.2490    0.5170 C   0  0  1  0  0  0  0  0  0  0  0  0
   -0.4800   -0.7130    1.8290 O   0  0  0  0  0  0  0  0  0  0  0  0
    0.5730    0.6770    0.4790 O   0  0  0  0  0  0  0  0  0  0  0  0
  1  2  2  0
  2  3  1  0
  2  4  1  0
  5  4  1  1
  5  6  1  0
  5 10  1  0
  5 25  1  0
  6  7  1  6
  6  8  1  0
  6  9  1  0
 10 11  1  0
 11 12  1  0
 12 13  1  6
 12 14  1  0
 12 23  1  0
 14 15  1  0
 15 16  1  0
 17 16  1  1
 17 18  1  0
 17 23  1  0
 18 19  1  6
 18 20  1  0
 20 21  1  6
 20 22  1  0
 23 24  1  1
 23 25  1  0
M  END
