
     RDKit          3D

 21 21  0  0  0  0  0  0  0  0999 V2000
   -2.6950   -0.6790   -2.6350 C   0  0  0  0  0  0  0  0  0  0  0  0
   -2.1630   -2.0030   -2.2930 C   0  0  0  0  0  0  0  0  0  0  0  0
   -1.2000   -2.1070   -1.3430 C   0  0  0  0  0  0  0  0  0  0  0  0
   -0.7820   -0.8540   -0.7590 C   0  0  0  0  0  0  0  0  0  0  0  0
    0.0760   -0.5900    0.1820 C   0  0  0  0  0  0  0  0  0  0  0  0
    0.3110    0.7930    0.5750 C   0  0  0  0  0  0  0  0  0  0  0  0
   -0.3100    1.9070   -0.1680 C   0  0  0  0  0  0  0  0  0  0  0  0
    1.1640    1.0870    1.5570 C   0  0  0  0  0  0  0  0  0  0  0  0
    1.3210    2.4860    1.8690 C   0  0  0  0  0  0  0  0  0  0  0  0
    2.1210    3.0220    2.7760 C   0  0  0  0  0  0  0  0  0  0  0  0
    2.1810    4.4470    3.0000 C   0  0  0  0  0  0  0  0  0  0  0  0
    1.2730    5.2890    2.1680 C   0  0  0  0  0  0  0  0  0  0  0  0
    2.9710    5.0540    3.8530 C   0  0  0  0  0  0  0  0  0  0  0  0
    3.0770    6.4610    4.1270 C   0  0  0  0  0  0  0  0  0  0  0  0
    2.4850    7.4400    3.6860 O   0  0  0  0  0  0  0  0  0  0  0  0
   -0.5540   -3.3650   -0.9650 C   0  0  2  0  0  0  0  0  0  0  0  0
   -0.5120   -3.6610    0.5110 C   0  0  0  0  0  0  0  0  0  0  0  0
    0.9240   -3.2900   -1.4430 C   0  0  0  0  0  0  0  0  0  0  0  0
   -1.1690   -4.5560   -1.6700 C   0  0  0  0  0  0  0  0  0  0  0  0
   -1.6350   -4.2640   -3.0550 C   0  0  0  0  0  0  0  0  0  0  0  0
   -2.7030   -3.1600   -3.0070 C   0  0  0  0  0  0  0  0  0  0  0  0
  1  2  1  0
  2  3  2  0
  2 21  1  0
  3  4  1  0
  3 16  1  0
  4  5  2  3
  5  6  1  0
  6  7  1  0
  6  8  2  3
  8  9  1  0
  9 10  2  3
 10 11  1  0
 11 12  1  0
 11 13  2  3
 13 14  1  0
 14 15  2  0
 16 17  1  1
 16 18  1  0
 16 19  1  0
 19 20  1  0
 20 21  1  0
M  END
