
     RDKit          3D

 24 26  0  0  0  0  0  0  0  0999 V2000
    0.0040   -2.1840    1.1610 O   0  0  0  0  0  0  0  0  0  0  0  0
    0.0920   -0.8370    0.9950 C   0  0  1  0  0  0  0  0  0  0  0  0
    1.3530   -0.3310    0.3470 C   0  0  1  0  0  0  0  0  0  0  0  0
    2.1490    0.5780    1.2870 C   0  0  0  0  0  0  0  0  0  0  0  0
    3.5570    0.0120    1.5380 C   0  0  0  0  0  0  0  0  0  0  0  0
    4.2880   -0.1160    0.3870 O   0  0  0  0  0  0  0  0  0  0  0  0
    3.5510   -0.6940   -0.6240 C   0  0  0  0  0  0  0  0  0  0  0  0
    2.3320   -1.4180   -0.0350 C   0  0  0  0  0  0  0  0  0  0  0  0
    0.9650    0.3530   -0.8020 O   0  0  0  0  0  0  0  0  0  0  0  0
   -0.3100    0.8770   -0.4860 C   0  0  1  0  0  0  0  0  0  0  0  0
    0.0380    1.8750    0.4590 O   0  0  0  0  0  0  0  0  0  0  0  0
   -0.9880    1.5790   -1.5800 C   0  0  0  0  0  0  0  0  0  0  0  0
   -1.7190    2.8070   -1.0110 C   0  0  0  0  0  0  0  0  0  0  0  0
   -1.9330    2.6790    0.3560 O   0  0  0  0  0  0  0  0  0  0  0  0
   -2.7030    1.6250    0.7400 C   0  0  0  0  0  0  0  0  0  0  0  0
   -2.0200    0.4010    1.2260 C   0  0  0  0  0  0  0  0  0  0  0  0
   -1.0420   -0.2120    0.1900 C   0  0  2  0  0  0  0  0  0  0  0  0
   -1.8580   -1.1480   -0.5600 C   0  0  1  0  0  0  0  0  0  0  0  0
   -2.4270   -2.0200    0.4330 O   0  0  0  0  0  0  0  0  0  0  0  0
   -2.9900   -0.4800   -1.0490 F   0  0  0  0  0  0  0  0  0  0  0  0
   -1.3870   -2.0320   -1.6130 C   0  0  2  0  0  0  0  0  0  0  0  0
   -0.4280   -2.9450   -1.2210 F   0  0  0  0  0  0  0  0  0  0  0  0
   -1.0700   -1.4750   -2.8340 F   0  0  0  0  0  0  0  0  0  0  0  0
   -2.4850   -2.8660   -1.9370 F   0  0  0  0  0  0  0  0  0  0  0  0
  2  1  1  6
  2  3  1  0
  2 17  1  0
  3  4  1  1
  3  8  1  0
  3  9  1  0
  4  5  1  0
  5  6  1  0
  6  7  1  0
  7  8  1  0
  9 10  1  0
 10 11  1  1
 10 12  1  0
 10 17  1  0
 12 13  1  0
 13 14  1  0
 14 15  1  0
 15 16  1  0
 17 16  1  1
 17 18  1  0
 18 19  1  1
 18 20  1  0
 18 21  1  0
 21 22  1  1
 21 23  1  0
 21 24  1  0
M  END
