
     RDKit          3D

 25 25  0  0  0  0  0  0  0  0999 V2000
    4.9860   -1.2050   -2.4310 O   0  0  0  0  0  0  0  0  0  0  0  0
    4.0820   -0.9620   -1.4130 C   0  0  0  0  0  0  0  0  0  0  0  0
    2.9550   -1.6260   -1.3740 C   0  0  0  0  0  0  0  0  0  0  0  0
    2.7100   -2.5420   -2.3460 F   0  0  0  0  0  0  0  0  0  0  0  0
    1.9930   -1.3670   -0.2920 C   0  0  0  0  0  0  0  0  0  0  0  0
    0.8850   -2.0960   -0.3420 C   0  0  0  0  0  0  0  0  0  0  0  0
    0.7140   -3.0200   -1.3720 F   0  0  0  0  0  0  0  0  0  0  0  0
   -0.2320   -2.0820    0.5770 C   0  0  0  0  0  0  0  0  0  0  0  0
   -1.0370   -1.0960    0.8300 C   0  0  0  0  0  0  0  0  0  0  0  0
   -2.1580   -0.8510    0.2520 C   0  0  0  0  0  0  0  0  0  0  0  0
   -3.2230   -1.7360    0.4320 O   0  0  0  0  0  0  0  0  0  0  0  0
   -2.3350    0.3190   -0.5780 C   0  0  0  0  0  0  0  0  0  0  0  0
   -3.0520    0.2640   -1.6880 C   0  0  0  0  0  0  0  0  0  0  0  0
   -3.7120   -0.9840   -2.1500 C   0  0  1  0  0  0  0  0  0  0  0  0
   -4.0600   -0.8190   -3.4820 F   0  0  0  0  0  0  0  0  0  0  0  0
   -2.8310   -2.0370   -2.0860 F   0  0  0  0  0  0  0  0  0  0  0  0
   -4.8740   -1.2440   -1.4720 F   0  0  0  0  0  0  0  0  0  0  0  0
   -1.7430    1.5190   -0.2030 O   0  0  0  0  0  0  0  0  0  0  0  0
   -1.3990    1.8930    1.0980 C   0  0  0  0  0  0  0  0  0  0  0  0
    0.0090    2.4600    1.0690 C   0  0  1  0  0  0  0  0  0  0  0  0
    0.4070    2.7210    2.3650 O   0  0  0  0  0  0  0  0  0  0  0  0
    0.9490    1.5540    0.3420 C   0  0  1  0  0  0  0  0  0  0  0  0
    1.9430    2.3650   -0.2500 O   0  0  0  0  0  0  0  0  0  0  0  0
    1.6300    0.5680    1.3050 C   0  0  0  0  0  0  0  0  0  0  0  0
    2.3080   -0.4300    0.6470 O   0  0  0  0  0  0  0  0  0  0  0  0
  1  2  1  0
  2  3  2  3
  3  4  1  0
  3  5  1  0
  5  6  2  0
  5 25  1  0
  6  7  1  0
  6  8  1  0
  8  9  2  0
  9 10  2  0
 10 11  1  0
 10 12  1  0
 12 13  2  3
 12 18  1  0
 13 14  1  0
 14 15  1  6
 14 16  1  0
 14 17  1  0
 18 19  1  0
 19 20  1  0
 20 21  1  1
 20 22  1  0
 22 23  1  1
 22 24  1  0
 24 25  1  0
M  END
