
     RDKit          3D

 25 25  0  0  0  0  0  0  0  0999 V2000
    1.4230    0.7480   -2.5350 O   0  0  0  0  0  0  0  0  0  0  0  0
    1.3020    0.8310   -1.1080 C   0  0  0  0  0  0  0  0  0  0  0  0
    0.2390    1.4130   -0.5920 C   0  0  0  0  0  0  0  0  0  0  0  0
   -0.1140    1.6270    0.8220 C   0  0  2  0  0  0  0  0  0  0  0  0
    0.6360    0.9240    1.7430 O   0  0  0  0  0  0  0  0  0  0  0  0
   -1.5810    1.5370    1.0680 C   0  0  0  0  0  0  0  0  0  0  0  0
   -2.1400    2.4940    1.8600 F   0  0  0  0  0  0  0  0  0  0  0  0
   -2.4020    0.6130    0.5960 C   0  0  0  0  0  0  0  0  0  0  0  0
   -3.7900    0.6820    0.9330 O   0  0  0  0  0  0  0  0  0  0  0  0
   -2.0270   -0.5080   -0.2570 C   0  0  0  0  0  0  0  0  0  0  0  0
   -2.6810   -0.6930   -1.3880 C   0  0  0  0  0  0  0  0  0  0  0  0
   -3.7790    0.1480   -1.8830 C   0  0  0  0  0  0  0  0  0  0  0  0
   -4.9460   -0.6220   -2.0190 F   0  0  0  0  0  0  0  0  0  0  0  0
   -0.9820   -1.3920    0.1060 O   0  0  0  0  0  0  0  0  0  0  0  0
   -0.7770   -1.9520    1.3670 C   0  0  0  0  0  0  0  0  0  0  0  0
    0.6710   -2.2770    1.6400 C   0  0  1  0  0  0  0  0  0  0  0  0
    0.8370   -3.6200    1.9710 O   0  0  0  0  0  0  0  0  0  0  0  0
    1.4710   -1.9350    0.4420 C   0  0  0  0  0  0  0  0  0  0  0  0
    2.2300   -0.7530    0.6210 O   0  0  0  0  0  0  0  0  0  0  0  0
    2.4220    0.2310   -0.3760 C   0  0  0  0  0  0  0  0  0  0  0  0
    3.6510    0.6160   -0.6540 C   0  0  0  0  0  0  0  0  0  0  0  0
    3.9390    1.6270   -1.6770 C   0  0  2  0  0  0  0  0  0  0  0  0
    5.1490    2.2650   -1.4710 F   0  0  0  0  0  0  0  0  0  0  0  0
    2.9600    2.6100   -1.6190 F   0  0  0  0  0  0  0  0  0  0  0  0
    3.9400    1.1310   -2.9670 F   0  0  0  0  0  0  0  0  0  0  0  0
  1  2  1  0
  2  3  2  0
  2 20  1  0
  3  4  1  0
  4  5  1  1
  4  6  1  0
  6  7  1  0
  6  8  2  0
  8  9  1  0
  8 10  1  0
 10 11  2  3
 10 14  1  0
 11 12  1  0
 12 13  1  0
 14 15  1  0
 15 16  1  0
 16 17  1  6
 16 18  1  0
 18 19  1  0
 19 20  1  0
 20 21  2  3
 21 22  1  0
 22 23  1  1
 22 24  1  0
 22 25  1  0
M  END
