
     RDKit          3D

 25 26  0  0  0  0  0  0  0  0999 V2000
    2.8830    2.0780    0.3420 O   0  0  0  0  0  0  0  0  0  0  0  0
    3.2280    1.4810   -0.7050 C   0  0  0  0  0  0  0  0  0  0  0  0
    3.8190    2.2340   -1.7040 O   0  0  0  0  0  0  0  0  0  0  0  0
    2.9760    0.0250   -0.7840 C   0  0  0  0  0  0  0  0  0  0  0  0
    2.1680   -0.4650    0.3090 C   0  0  2  0  0  0  0  0  0  0  0  0
    2.0800   -1.9060    0.1390 O   0  0  0  0  0  0  0  0  0  0  0  0
    1.5060   -2.1540    1.4200 C   0  0  0  0  0  0  0  0  0  0  0  0
    0.2470   -1.3290    1.2940 C   0  0  0  0  0  0  0  0  0  0  0  0
    0.7590   -0.0900    0.5290 C   0  0  1  0  0  0  0  0  0  0  0  0
    0.6760    0.9500    1.4560 O   0  0  0  0  0  0  0  0  0  0  0  0
   -0.1330    0.2260   -0.6110 C   0  0  1  0  0  0  0  0  0  0  0  0
    0.2600    1.4160   -1.2260 O   0  0  0  0  0  0  0  0  0  0  0  0
   -0.2390   -0.8390   -1.6600 C   0  0  0  0  0  0  0  0  0  0  0  0
   -1.4610   -1.6050   -1.8410 C   0  0  0  0  0  0  0  0  0  0  0  0
   -2.5420   -1.4870   -0.9850 O   0  0  0  0  0  0  0  0  0  0  0  0
   -2.3870   -0.6240    0.1430 C   0  0  0  0  0  0  0  0  0  0  0  0
   -2.9690   -0.8620    1.2690 C   0  0  0  0  0  0  0  0  0  0  0  0
   -3.7630   -1.9790    1.3620 F   0  0  0  0  0  0  0  0  0  0  0  0
   -2.8160   -0.1260    2.3700 F   0  0  0  0  0  0  0  0  0  0  0  0
   -1.5280    0.5290   -0.0940 C   0  0  0  0  0  0  0  0  0  0  0  0
   -1.9960    1.7240    0.1400 C   0  0  0  0  0  0  0  0  0  0  0  0
   -3.2850    2.1880    0.6180 C   0  0  2  0  0  0  0  0  0  0  0  0
   -4.2820    1.3030    0.3380 F   0  0  0  0  0  0  0  0  0  0  0  0
   -3.6250    3.3410   -0.1660 F   0  0  0  0  0  0  0  0  0  0  0  0
   -3.3700    2.6300    1.8930 F   0  0  0  0  0  0  0  0  0  0  0  0
  1  2  2  0
  2  3  1  0
  2  4  1  0
  5  4  1  6
  5  6  1  0
  5  9  1  0
  6  7  1  0
  7  8  1  0
  8  9  1  0
  9 10  1  1
  9 11  1  0
 11 12  1  6
 11 13  1  0
 11 20  1  0
 13 14  1  0
 14 15  1  0
 15 16  1  0
 16 17  2  3
 16 20  1  0
 17 18  1  0
 17 19  1  0
 20 21  2  3
 21 22  1  0
 22 23  1  1
 22 24  1  0
 22 25  1  0
M  END
