
     RDKit          3D

 25 26  0  0  0  0  0  0  0  0999 V2000
    1.8680   -1.0690    1.2170 C   0  0  0  0  0  0  0  0  0  0  0  0
    0.9220   -1.4490    0.1300 C   0  0  2  0  0  0  0  0  0  0  0  0
    0.4160   -2.7270    0.4660 O   0  0  0  0  0  0  0  0  0  0  0  0
    1.6160   -1.6330   -1.1960 C   0  0  0  0  0  0  0  0  0  0  0  0
    2.1940   -0.5010   -1.7370 O   0  0  0  0  0  0  0  0  0  0  0  0
    3.2000    0.2590   -1.1630 C   0  0  0  0  0  0  0  0  0  0  0  0
    3.1670    1.5710   -1.0170 C   0  0  0  0  0  0  0  0  0  0  0  0
    4.4050    2.0500   -0.3670 C   0  0  2  0  0  0  0  0  0  0  0  0
    5.0860    2.9650   -1.1410 F   0  0  0  0  0  0  0  0  0  0  0  0
    5.1730    0.8040   -0.1550 C   0  0  0  0  0  0  0  0  0  0  0  0
    4.4760   -0.2190   -0.6140 C   0  0  0  0  0  0  0  0  0  0  0  0
    4.8260   -1.5460   -0.6110 F   0  0  0  0  0  0  0  0  0  0  0  0
   -0.1890   -0.4910   -0.0760 C   0  0  0  0  0  0  0  0  0  0  0  0
    0.1160    0.6910   -0.3790 O   0  0  0  0  0  0  0  0  0  0  0  0
   -1.5240   -0.8230    0.0470 O   0  0  0  0  0  0  0  0  0  0  0  0
   -2.4850    0.1660   -0.1710 C   0  0  1  0  0  0  0  0  0  0  0  0
   -3.3700   -0.3220   -1.3240 C   0  0  0  0  0  0  0  0  0  0  0  0
   -4.5770    0.2980   -1.0150 O   0  0  0  0  0  0  0  0  0  0  0  0
   -4.7660   -0.1520    0.3110 C   0  0  0  0  0  0  0  0  0  0  0  0
   -3.4690    0.3260    0.9450 C   0  0  1  0  0  0  0  0  0  0  0  0
   -3.1750   -0.3830    2.0780 O   0  0  0  0  0  0  0  0  0  0  0  0
   -3.6330    1.7970    1.2670 C   0  0  2  0  0  0  0  0  0  0  0  0
   -4.0970    2.4670    0.1340 F   0  0  0  0  0  0  0  0  0  0  0  0
   -2.3940    2.3350    1.5510 F   0  0  0  0  0  0  0  0  0  0  0  0
   -4.4980    1.9700    2.3200 F   0  0  0  0  0  0  0  0  0  0  0  0
  2  1  1  1
  2  3  1  0
  2  4  1  0
  2 13  1  0
  4  5  1  0
  5  6  1  0
  6  7  2  0
  6 11  1  0
  7  8  1  0
  8  9  1  6
  8 10  1  0
 10 11  2  0
 11 12  1  0
 13 14  2  0
 13 15  1  0
 16 15  1  1
 16 17  1  0
 16 20  1  0
 17 18  1  0
 18 19  1  0
 19 20  1  0
 20 21  1  1
 20 22  1  0
 22 23  1  6
 22 24  1  0
 22 25  1  0
M  END
