
     RDKit          3D

 25 25  0  0  0  0  0  0  0  0999 V2000
   -2.8260    3.4610   -0.3100 O   0  0  0  0  0  0  0  0  0  0  0  0
   -1.7850    2.8340    0.0210 C   0  0  0  0  0  0  0  0  0  0  0  0
   -1.9840    1.4410    0.5120 C   0  0  0  0  0  0  0  0  0  0  0  0
   -2.2080    0.5670   -0.6580 C   0  0  2  0  0  0  0  0  0  0  0  0
   -3.4030    1.0000   -1.2820 O   0  0  0  0  0  0  0  0  0  0  0  0
   -2.3450   -0.8850   -0.4080 C   0  0  2  0  0  0  0  0  0  0  0  0
   -2.1530   -1.5150   -1.6610 O   0  0  0  0  0  0  0  0  0  0  0  0
   -3.7720   -1.2710    0.0040 C   0  0  2  0  0  0  0  0  0  0  0  0
   -3.7560   -2.6450    0.2040 F   0  0  0  0  0  0  0  0  0  0  0  0
   -4.6550   -1.0300   -1.0310 F   0  0  0  0  0  0  0  0  0  0  0  0
   -4.1330   -0.6460    1.1720 F   0  0  0  0  0  0  0  0  0  0  0  0
   -1.3790   -1.4910    0.5380 C   0  0  0  0  0  0  0  0  0  0  0  0
   -0.4910   -2.5590   -0.1120 C   0  0  0  0  0  0  0  0  0  0  0  0
    0.8720   -1.9500   -0.4790 C   0  0  2  0  0  0  0  0  0  0  0  0
    1.0170   -2.1300   -1.8570 F   0  0  0  0  0  0  0  0  0  0  0  0
    1.8200   -2.7000    0.1270 F   0  0  0  0  0  0  0  0  0  0  0  0
    0.8340   -0.6420   -0.2120 O   0  0  0  0  0  0  0  0  0  0  0  0
    1.9760    0.0620   -0.0520 C   0  0  2  0  0  0  0  0  0  0  0  0
    3.2230   -0.6980    0.1880 C   0  0  0  0  0  0  0  0  0  0  0  0
    4.3560    0.3330    0.3330 C   0  0  0  0  0  0  0  0  0  0  0  0
    5.5150   -0.3990    0.5560 O   0  0  0  0  0  0  0  0  0  0  0  0
    1.7790    1.0040    1.0860 C   0  0  0  0  0  0  0  0  0  0  0  0
    1.1970    2.1890    0.9700 C   0  0  0  0  0  0  0  0  0  0  0  0
    0.6590    2.7500   -0.2980 C   0  0  0  0  0  0  0  0  0  0  0  0
   -0.5530    3.4430   -0.0800 O   0  0  0  0  0  0  0  0  0  0  0  0
  1  2  2  0
  2  3  1  0
  2 25  1  0
  3  4  1  0
  4  5  1  1
  4  6  1  0
  6  7  1  6
  6  8  1  0
  6 12  1  0
  8  9  1  1
  8 10  1  0
  8 11  1  0
 12 13  1  0
 13 14  1  0
 14 15  1  6
 14 16  1  0
 14 17  1  0
 17 18  1  0
 18 19  1  1
 18 22  1  0
 19 20  1  0
 20 21  1  0
 22 23  2  0
 23 24  1  0
 24 25  1  0
M  END
