
     RDKit          3D

 26 28  0  0  0  0  0  0  0  0999 V2000
   -6.0180   -2.5910   -0.4880 C   0  0  0  0  0  0  0  0  0  0  0  0
   -4.8850   -1.6500   -0.3260 C   0  0  0  0  0  0  0  0  0  0  0  0
   -4.7110   -0.5450   -1.1340 C   0  0  0  0  0  0  0  0  0  0  0  0
   -3.6330    0.3020   -0.9390 C   0  0  0  0  0  0  0  0  0  0  0  0
   -2.7090    0.0760    0.0550 C   0  0  0  0  0  0  0  0  0  0  0  0
   -1.5550    0.7650    0.4540 C   0  0  0  0  0  0  0  0  0  0  0  0
   -1.1010    2.0120   -0.1900 C   0  0  0  0  0  0  0  0  0  0  0  0
    0.1120    2.5570    0.2900 N   0  0  0  0  0  0  0  0  0  0  0  0
    1.3890    1.9700    0.0580 C   0  0  0  0  0  0  0  0  0  0  0  0
    2.4410    2.2960    0.7970 C   0  0  0  0  0  0  0  0  0  0  0  0
    3.7740    1.7420    0.6200 C   0  0  0  0  0  0  0  0  0  0  0  0
    3.8720    0.5730   -0.1810 N   0  0  0  0  0  0  0  0  0  0  0  0
    4.8590   -0.3610    0.2440 C   0  0  0  0  0  0  0  0  0  0  0  0
    4.9550   -1.8150   -0.7660 S   0  0  1  0  0  0  0  0  0  0  0  0
    3.6320   -2.5500   -0.6860 O   0  0  0  0  0  0  0  0  0  0  0  0
    5.3080   -1.5230   -2.1770 O   0  0  0  0  0  0  0  0  0  0  0  0
    6.1760   -2.8100   -0.1360 F   0  0  0  0  0  0  0  0  0  0  0  0
    2.6580    0.0220   -0.6600 C   0  0  0  0  0  0  0  0  0  0  0  0
    1.5810    0.9870   -1.0240 C   0  0  1  0  0  0  0  0  0  0  0  0
    0.4530    0.2310   -1.2980 F   0  0  0  0  0  0  0  0  0  0  0  0
    1.9530    1.5990   -2.2110 F   0  0  0  0  0  0  0  0  0  0  0  0
   -1.0500    0.0530    1.5090 C   0  0  0  0  0  0  0  0  0  0  0  0
    0.1530    0.3340    2.3450 C   0  0  0  0  0  0  0  0  0  0  0  0
   -1.8710   -1.0190    1.7300 N   0  0  0  0  0  0  0  0  0  0  0  0
   -2.8870   -1.0190    0.8520 C   0  0  0  0  0  0  0  0  0  0  0  0
   -3.9670   -1.8850    0.6720 C   0  0  0  0  0  0  0  0  0  0  0  0
  1  2  1  0
  2  3  2  0
  2 26  1  0
  3  4  1  0
  4  5  2  0
  5  6  1  0
  5 25  1  0
  6  7  1  0
  6 22  2  0
  7  8  1  0
  8  9  1  0
  9 10  2  0
  9 19  1  0
 10 11  1  0
 11 12  1  0
 12 13  1  0
 12 18  1  0
 13 14  1  0
 14 15  2  0
 14 16  2  0
 14 17  1  1
 18 19  1  0
 19 20  1  6
 19 21  1  0
 22 23  1  0
 22 24  1  0
 24 25  1  0
 25 26  2  0
M  END
