
     RDKit          3D

 26 28  0  0  0  0  0  0  0  0999 V2000
   -2.1320    1.3370    0.3750 O   0  0  0  0  0  0  0  0  0  0  0  0
   -1.4160    0.3300    0.1720 C   0  0  0  0  0  0  0  0  0  0  0  0
   -2.0300   -0.8860   -0.1600 N   0  0  0  0  0  0  0  0  0  0  0  0
   -3.4250   -1.1110   -0.2950 C   0  0  0  0  0  0  0  0  0  0  0  0
   -4.4200   -0.1880   -0.1100 C   0  0  0  0  0  0  0  0  0  0  0  0
   -5.7760   -0.4950   -0.2660 C   0  0  0  0  0  0  0  0  0  0  0  0
   -6.1260   -1.7270   -0.6070 N   0  0  0  0  0  0  0  0  0  0  0  0
   -5.2010   -2.6620   -0.7990 C   0  0  0  0  0  0  0  0  0  0  0  0
   -5.5880   -3.9140   -1.1460 F   0  0  0  0  0  0  0  0  0  0  0  0
   -3.8610   -2.3900   -0.6530 C   0  0  0  0  0  0  0  0  0  0  0  0
    0.0220    0.4800    0.2930 C   0  0  0  0  0  0  0  0  0  0  0  0
    0.8330   -0.5000    0.1020 C   0  0  0  0  0  0  0  0  0  0  0  0
    2.2870   -0.5350    0.1890 C   0  0  0  0  0  0  0  0  0  0  0  0
    2.9870   -0.2030    1.3000 C   0  0  0  0  0  0  0  0  0  0  0  0
    4.3740   -0.2380    1.3220 C   0  0  0  0  0  0  0  0  0  0  0  0
    5.0610    0.1030    2.4610 F   0  0  0  0  0  0  0  0  0  0  0  0
    5.0760   -0.6100    0.2150 C   0  0  0  0  0  0  0  0  0  0  0  0
    4.3930   -0.9540   -0.9330 C   0  0  0  0  0  0  0  0  0  0  0  0
    5.1070   -1.3170   -2.0130 F   0  0  0  0  0  0  0  0  0  0  0  0
    3.0090   -0.9130   -0.9350 C   0  0  0  0  0  0  0  0  0  0  0  0
    2.3160   -1.2560   -2.0800 O   0  0  0  0  0  0  0  0  0  0  0  0
    0.4500    1.8800    0.5520 C   0  0  0  0  0  0  0  0  0  0  0  0
    0.0040    2.8940    0.8280 N   0  0  0  0  0  0  0  0  0  0  0  0
    0.5920    4.0470    0.9460 C   0  0  0  0  0  0  0  0  0  0  0  0
    1.9210    4.1260    0.7240 C   0  0  0  0  0  0  0  0  0  0  0  0
    2.2440    2.3350    0.3200 S   0  0  0  0  0  0  0  0  0  0  0  0
  1  2  2  0
  2  3  1  0
  2 11  1  0
  3  4  1  0
  4  5  2  0
  4 10  1  0
  5  6  1  0
  6  7  2  0
  7  8  1  0
  8  9  1  0
  8 10  2  0
 11 12  2  3
 11 22  1  0
 12 13  1  0
 13 14  2  0
 13 20  1  0
 14 15  1  0
 15 16  1  0
 15 17  2  0
 17 18  1  0
 18 19  1  0
 18 20  2  0
 20 21  1  0
 22 23  2  0
 22 26  1  0
 23 24  1  0
 24 25  2  0
 25 26  1  0
M  END
