
     RDKit          3D

 26 28  0  0  0  0  0  0  0  0999 V2000
    2.3990   -0.2620    1.7220 O   0  0  0  0  0  0  0  0  0  0  0  0
    2.6570   -0.1700    0.5140 C   0  0  0  0  0  0  0  0  0  0  0  0
    1.6330   -0.0670   -0.4520 N   0  0  0  0  0  0  0  0  0  0  0  0
    0.2480   -0.0550   -0.1850 C   0  0  0  0  0  0  0  0  0  0  0  0
   -0.3380   -0.1330    1.0500 C   0  0  0  0  0  0  0  0  0  0  0  0
   -1.6720   -0.1120    1.2010 N   0  0  0  0  0  0  0  0  0  0  0  0
   -2.4850   -0.0140    0.1410 C   0  0  0  0  0  0  0  0  0  0  0  0
   -3.9360   -0.0210    0.3830 C   0  0  0  0  0  0  0  0  0  0  0  0
   -4.4610   -0.8810    1.2330 C   0  0  0  0  0  0  0  0  0  0  0  0
   -3.5950   -1.7420    1.8660 F   0  0  0  0  0  0  0  0  0  0  0  0
   -5.8620   -1.0600    1.5100 C   0  0  0  0  0  0  0  0  0  0  0  0
   -6.8460   -0.3930    0.9510 C   0  0  0  0  0  0  0  0  0  0  0  0
   -6.4780    0.8520   -0.2690 S   0  0  0  0  0  0  0  0  0  0  0  0
   -4.7010    0.9960   -0.2980 C   0  0  0  0  0  0  0  0  0  0  0  0
   -4.1360    2.0030   -0.8860 C   0  0  0  0  0  0  0  0  0  0  0  0
   -4.8850    2.9400   -1.5170 F   0  0  0  0  0  0  0  0  0  0  0  0
   -1.9380    0.0630   -1.0800 N   0  0  0  0  0  0  0  0  0  0  0  0
   -0.6110    0.0470   -1.2830 C   0  0  0  0  0  0  0  0  0  0  0  0
   -0.1330    0.1230   -2.4640 O   0  0  0  0  0  0  0  0  0  0  0  0
    4.0520   -0.1690    0.0850 C   0  0  0  0  0  0  0  0  0  0  0  0
    5.0470   -0.1070    1.0710 C   0  0  0  0  0  0  0  0  0  0  0  0
    6.3830   -0.1040    0.7560 C   0  0  0  0  0  0  0  0  0  0  0  0
    6.8160   -0.1620   -0.5560 C   0  0  0  0  0  0  0  0  0  0  0  0
    8.1420   -0.1580   -0.8330 F   0  0  0  0  0  0  0  0  0  0  0  0
    5.8490   -0.2230   -1.5270 C   0  0  0  0  0  0  0  0  0  0  0  0
    4.4860   -0.2270   -1.2110 C   0  0  0  0  0  0  0  0  0  0  0  0
  1  2  2  0
  2  3  1  0
  2 20  1  0
  3  4  1  0
  4  5  2  0
  4 18  1  0
  5  6  1  0
  6  7  2  0
  7  8  1  0
  7 17  1  0
  8  9  2  0
  8 14  1  0
  9 10  1  0
  9 11  1  0
 11 12  2  0
 12 13  1  0
 13 14  1  0
 14 15  2  3
 15 16  1  0
 17 18  1  0
 18 19  2  0
 20 21  2  0
 20 26  1  0
 21 22  1  0
 22 23  2  0
 23 24  1  0
 23 25  1  0
 25 26  2  0
M  END
