
     RDKit          3D

 26 28  0  0  0  0  0  0  0  0999 V2000
   -0.6220   -2.2560   -2.5120 C   0  0  0  0  0  0  0  0  0  0  0  0
   -0.4150   -1.0640   -1.5730 C   0  0  0  0  0  0  0  0  0  0  0  0
    0.7930   -0.7480   -1.1030 C   0  0  0  0  0  0  0  0  0  0  0  0
    0.8930    0.3550   -0.2690 C   0  0  0  0  0  0  0  0  0  0  0  0
    2.1040    0.9060    0.3760 C   0  0  0  0  0  0  0  0  0  0  0  0
    2.0180    1.9180    1.1080 O   0  0  0  0  0  0  0  0  0  0  0  0
    3.3430    0.3000    0.1710 N   0  0  0  0  0  0  0  0  0  0  0  0
    4.5940    0.6910    0.7080 C   0  0  0  0  0  0  0  0  0  0  0  0
    4.8000    1.7460    1.5350 C   0  0  0  0  0  0  0  0  0  0  0  0
    6.0210    2.0800    2.0240 N   0  0  0  0  0  0  0  0  0  0  0  0
    7.0940    1.3550    1.6940 C   0  0  0  0  0  0  0  0  0  0  0  0
    6.9220    0.2750    0.8550 C   0  0  0  0  0  0  0  0  0  0  0  0
    5.7060   -0.0360    0.3840 N   0  0  0  0  0  0  0  0  0  0  0  0
   -0.7150    0.9290   -0.1600 S   0  0  0  0  0  0  0  0  0  0  0  0
   -1.4900   -0.3090   -1.2260 C   0  0  0  0  0  0  0  0  0  0  0  0
   -2.9310   -0.3640   -1.5310 C   0  0  1  0  0  0  0  0  0  0  0  0
   -3.2560   -1.6350   -1.9300 O   0  0  0  0  0  0  0  0  0  0  0  0
   -3.7860   -0.0420   -0.3430 C   0  0  0  0  0  0  0  0  0  0  0  0
   -3.6820    1.2180    0.2460 C   0  0  0  0  0  0  0  0  0  0  0  0
   -4.4730    1.5280    1.3510 C   0  0  0  0  0  0  0  0  0  0  0  0
   -4.3970    2.7460    1.9490 F   0  0  0  0  0  0  0  0  0  0  0  0
   -5.3520    0.6210    1.8720 C   0  0  0  0  0  0  0  0  0  0  0  0
   -6.1410    0.8940    2.9530 F   0  0  0  0  0  0  0  0  0  0  0  0
   -5.4400   -0.6160    1.2770 C   0  0  0  0  0  0  0  0  0  0  0  0
   -4.6720   -0.9570    0.1820 C   0  0  0  0  0  0  0  0  0  0  0  0
   -4.8380   -2.1950   -0.3290 F   0  0  0  0  0  0  0  0  0  0  0  0
  1  2  1  0
  2  3  1  0
  2 15  2  0
  3  4  2  0
  4  5  1  0
  4 14  1  0
  5  6  2  0
  5  7  1  0
  7  8  1  0
  8  9  2  0
  8 13  1  0
  9 10  1  0
 10 11  2  0
 11 12  1  0
 12 13  2  0
 14 15  1  0
 15 16  1  0
 16 17  1  1
 16 18  1  0
 18 19  2  0
 18 25  1  0
 19 20  1  0
 20 21  1  0
 20 22  2  0
 22 23  1  0
 22 24  1  0
 24 25  2  0
 25 26  1  0
M  END
