
     RDKit          3D

 26 28  0  0  0  0  0  0  0  0999 V2000
   -7.3240   -0.2140    1.1980 C   0  0  0  0  0  0  0  0  0  0  0  0
   -6.3010    0.1070    0.1690 C   0  0  0  0  0  0  0  0  0  0  0  0
   -6.6650    0.7040   -1.0220 C   0  0  0  0  0  0  0  0  0  0  0  0
   -5.7060    0.9940   -1.9620 C   0  0  0  0  0  0  0  0  0  0  0  0
   -4.3430    0.6810   -1.7130 C   0  0  0  0  0  0  0  0  0  0  0  0
   -3.3460    0.9530   -2.6280 C   0  0  0  0  0  0  0  0  0  0  0  0
   -1.9040    0.3710   -1.8140 S   0  0  0  0  0  0  0  0  0  0  0  0
   -2.6620   -0.1900   -0.3450 C   0  0  0  0  0  0  0  0  0  0  0  0
   -2.0380   -0.8230    0.8390 C   0  0  0  0  0  0  0  0  0  0  0  0
   -0.6130   -0.9390    0.6370 N   0  0  0  0  0  0  0  0  0  0  0  0
    0.1470    0.2400    0.4250 C   0  0  0  0  0  0  0  0  0  0  0  0
   -0.3940    1.3760    0.4100 O   0  0  0  0  0  0  0  0  0  0  0  0
    1.5440    0.1270    0.2270 N   0  0  0  0  0  0  0  0  0  0  0  0
    2.3540    1.3070    0.0070 C   0  0  0  0  0  0  0  0  0  0  0  0
    3.5680    1.1730    0.9170 C   0  0  0  0  0  0  0  0  0  0  0  0
    4.3580   -0.0830    0.6190 C   0  0  2  0  0  0  0  0  0  0  0  0
    4.6250   -0.7090    1.8590 O   0  0  0  0  0  0  0  0  0  0  0  0
    5.6930    0.3310    0.0610 C   0  0  0  0  0  0  0  0  0  0  0  0
    6.5740   -0.8440   -0.2770 C   0  0  2  0  0  0  0  0  0  0  0  0
    5.9930   -1.6720   -1.2230 F   0  0  0  0  0  0  0  0  0  0  0  0
    6.9780   -1.5330    0.8490 F   0  0  0  0  0  0  0  0  0  0  0  0
    7.7250   -0.3300   -0.8630 F   0  0  0  0  0  0  0  0  0  0  0  0
    3.6330   -1.0680   -0.2270 C   0  0  0  0  0  0  0  0  0  0  0  0
    2.1950   -1.1560    0.2380 C   0  0  0  0  0  0  0  0  0  0  0  0
   -4.0220    0.1060   -0.5580 C   0  0  0  0  0  0  0  0  0  0  0  0
   -5.0340   -0.1680    0.3640 N   0  0  0  0  0  0  0  0  0  0  0  0
  1  2  1  0
  2  3  1  0
  2 26  2  0
  3  4  2  0
  4  5  1  0
  5  6  2  0
  5 25  1  0
  6  7  1  0
  7  8  1  0
  8  9  1  0
  8 25  2  0
  9 10  1  0
 10 11  1  0
 11 12  2  0
 11 13  1  0
 13 14  1  0
 13 24  1  0
 14 15  1  0
 15 16  1  0
 16 17  1  1
 16 18  1  0
 16 23  1  0
 18 19  1  0
 19 20  1  6
 19 21  1  0
 19 22  1  0
 23 24  1  0
 25 26  1  0
M  END
