
     RDKit          3D

 37 40  0  0  0  0  0  0  0  0999 V2000
    4.1650    3.3460   -1.5040 C   0  0  0  0  0  0  0  0  0  0  0  0
    3.1720    2.5010   -0.7780 C   0  0  0  0  0  0  0  0  0  0  0  0
    3.4720    1.2580   -0.5880 C   0  0  0  0  0  0  0  0  0  0  0  0
    4.6860    0.7810   -1.0630 O   0  0  0  0  0  0  0  0  0  0  0  0
    2.6090    0.2600    0.1150 C   0  0  2  0  0  0  0  0  0  0  0  0
    2.8030    0.3380    1.5320 O   0  0  0  0  0  0  0  0  0  0  0  0
    1.8640   -0.2330    2.4190 C   0  0  0  0  0  0  0  0  0  0  0  0
    2.3920   -0.7780    3.4480 O   0  0  0  0  0  0  0  0  0  0  0  0
    0.4200   -0.2270    2.2240 C   0  0  0  0  0  0  0  0  0  0  0  0
   -0.2780   -1.5020    1.9620 C   0  0  0  0  0  0  0  0  0  0  0  0
   -1.0260   -1.5900    0.6450 C   0  0  1  0  0  0  0  0  0  0  0  0
   -0.9050   -2.9270   -0.0350 C   0  0  0  0  0  0  0  0  0  0  0  0
    0.0500   -3.8930    0.5320 C   0  0  0  0  0  0  0  0  0  0  0  0
   -0.3810   -4.6390    1.4980 O   0  0  0  0  0  0  0  0  0  0  0  0
    1.3270   -4.0120    0.0720 O   0  0  0  0  0  0  0  0  0  0  0  0
    2.2490   -3.0670    0.0150 C   0  0  2  0  0  0  0  0  0  0  0  0
    2.0210   -1.9110   -0.9700 C   0  0  0  0  0  0  0  0  0  0  0  0
    2.8500   -1.0930   -0.3930 C   0  0  0  0  0  0  0  0  0  0  0  0
    4.1760   -1.8700   -0.2970 C   0  0  1  0  0  0  0  0  0  0  0  0
    4.8530   -1.6890    1.0040 C   0  0  0  0  0  0  0  0  0  0  0  0
    3.6650   -3.3390   -0.4510 C   0  0  0  0  0  0  0  0  0  0  0  0
   -2.4690   -1.2520    0.7890 C   0  0  2  0  0  0  0  0  0  0  0  0
   -2.8690   -1.9630    1.9610 O   0  0  0  0  0  0  0  0  0  0  0  0
   -3.3930   -1.7170   -0.2630 C   0  0  2  0  0  0  0  0  0  0  0  0
   -2.9910   -1.5780   -1.6800 C   0  0  0  0  0  0  0  0  0  0  0  0
   -4.6900   -0.9110   -0.0880 C   0  0  0  0  0  0  0  0  0  0  0  0
   -4.3720    0.0770    0.9720 C   0  0  0  0  0  0  0  0  0  0  0  0
   -2.8450    0.1690    1.0450 C   0  0  2  0  0  0  0  0  0  0  0  0
   -2.2660    1.2280    0.2480 C   0  0  0  0  0  0  0  0  0  0  0  0
   -3.1660    2.2150   -0.4290 C   0  0  1  0  0  0  0  0  0  0  0  0
   -3.6640    3.2390    0.5640 C   0  0  0  0  0  0  0  0  0  0  0  0
   -2.3120    2.9830   -1.4210 C   0  0  0  0  0  0  0  0  0  0  0  0
   -1.2140    2.2280   -2.0150 C   0  0  0  0  0  0  0  0  0  0  0  0
   -1.5410    1.4490   -2.9810 O   0  0  0  0  0  0  0  0  0  0  0  0
    0.1000    2.2540   -1.6660 O   0  0  0  0  0  0  0  0  0  0  0  0
    0.8860    3.3590   -1.3650 C   0  0  0  0  0  0  0  0  0  0  0  0
    1.9320    3.1750   -0.3430 C   0  0  0  0  0  0  0  0  0  0  0  0
  1  2  1  0
  2  3  2  0
  2 37  1  0
  3  4  1  0
  5  3  1  6
  5  6  1  0
  5 18  1  0
  6  7  1  0
  7  8  2  0
  7  9  1  0
  9 10  1  0
 10 11  1  0
 11 12  1  1
 11 22  1  0
 12 13  1  0
 13 14  2  0
 13 15  1  0
 15 16  1  0
 16 17  1  0
 16 21  1  6
 17 18  2  0
 18 19  1  0
 19 20  1  1
 19 21  1  0
 22 23  1  1
 22 24  1  0
 22 28  1  0
 24 25  1  6
 24 26  1  0
 26 27  1  0
 28 27  1  6
 28 29  1  0
 29 30  1  0
 30 31  1  1
 30 32  1  0
 32 33  1  0
 33 34  2  0
 33 35  1  0
 35 36  1  0
 36 37  1  0
M  END
