
     RDKit          3D

 37 39  0  0  0  0  0  0  0  0999 V2000
   -5.3620   -0.9180   -1.2550 C   0  0  0  0  0  0  0  0  0  0  0  0
   -4.0450   -0.7910   -0.8730 O   0  0  0  0  0  0  0  0  0  0  0  0
   -3.8770   -0.4080    0.4260 C   0  0  1  0  0  0  0  0  0  0  0  0
   -2.9260   -1.1860    1.2520 C   0  0  0  0  0  0  0  0  0  0  0  0
   -1.6510   -1.4720    0.4980 C   0  0  1  0  0  0  0  0  0  0  0  0
   -1.8980   -2.7360   -0.2850 C   0  0  0  0  0  0  0  0  0  0  0  0
   -2.2570   -3.8800    0.5990 C   0  0  0  0  0  0  0  0  0  0  0  0
   -3.4090   -4.1650    0.7870 O   0  0  0  0  0  0  0  0  0  0  0  0
   -1.2430   -4.7110    1.2820 C   0  0  1  0  0  0  0  0  0  0  0  0
   -1.8020   -5.7060    2.0480 O   0  0  0  0  0  0  0  0  0  0  0  0
   -0.5140   -5.3590    0.2560 O   0  0  0  0  0  0  0  0  0  0  0  0
   -1.0800   -0.3050   -0.2050 C   0  0  2  0  0  0  0  0  0  0  0  0
   -0.8440   -0.6630   -1.6670 C   0  0  0  0  0  0  0  0  0  0  0  0
    0.2440    0.1910   -2.2970 C   0  0  2  0  0  0  0  0  0  0  0  0
    0.2690   -0.2250   -3.7580 C   0  0  0  0  0  0  0  0  0  0  0  0
    1.3220    0.5590   -4.5130 C   0  0  0  0  0  0  0  0  0  0  0  0
    1.2710    0.1090   -5.8440 O   0  0  0  0  0  0  0  0  0  0  0  0
    1.6100   -0.1840   -1.7350 C   0  0  0  0  0  0  0  0  0  0  0  0
    1.3380   -0.9290   -0.4250 C   0  0  1  0  0  0  0  0  0  0  0  0
    2.7020   -0.8880    0.3200 C   0  0  2  0  0  0  0  0  0  0  0  0
    3.6560   -1.5950   -0.6060 C   0  0  0  0  0  0  0  0  0  0  0  0
    2.5070   -1.8000    1.5210 C   0  0  0  0  0  0  0  0  0  0  0  0
    2.9320    0.3970    0.5960 O   0  0  0  0  0  0  0  0  0  0  0  0
    4.0090    0.8490    1.2410 C   0  0  2  0  0  0  0  0  0  0  0  0
    5.3570    0.5690    0.6000 C   0  0  0  0  0  0  0  0  0  0  0  0
    4.1350    0.4500    2.6930 C   0  0  0  0  0  0  0  0  0  0  0  0
    3.9040    2.3890    1.2650 C   0  0  0  0  0  0  0  0  0  0  0  0
    0.3360   -0.0940    0.3380 C   0  0  0  0  0  0  0  0  0  0  0  0
   -1.8480    0.9840   -0.1580 C   0  0  2  0  0  0  0  0  0  0  0  0
   -1.1740    2.1730    0.4520 C   0  0  2  0  0  0  0  0  0  0  0  0
   -0.8020    2.1050    1.8800 C   0  0  0  0  0  0  0  0  0  0  0  0
   -1.4470    3.1310    2.6320 O   0  0  0  0  0  0  0  0  0  0  0  0
   -0.9020    4.3250    2.1000 C   0  0  0  0  0  0  0  0  0  0  0  0
   -1.4030    4.5790    0.6860 C   0  0  2  0  0  0  0  0  0  0  0  0
   -2.3570    5.6100    0.7560 O   0  0  0  0  0  0  0  0  0  0  0  0
   -2.2050    3.3210    0.3080 C   0  0  0  0  0  0  0  0  0  0  0  0
   -3.2220    0.9720    0.3940 C   0  0  0  0  0  0  0  0  0  0  0  0
  1  2  1  0
  3  2  1  6
  3  4  1  0
  3 37  1  0
  4  5  1  0
  5  6  1  6
  5 12  1  0
  6  7  1  0
  7  8  2  0
  7  9  1  0
  9 10  1  1
  9 11  1  0
 12 13  1  6
 12 28  1  0
 12 29  1  0
 13 14  1  0
 14 15  1  6
 14 18  1  0
 15 16  1  0
 16 17  1  0
 19 18  1  6
 19 20  1  0
 19 28  1  0
 20 21  1  6
 20 22  1  0
 20 23  1  0
 23 24  1  0
 24 25  1  6
 24 26  1  0
 24 27  1  0
 29 30  1  0
 29 37  1  1
 30 31  1  1
 30 36  1  0
 31 32  1  0
 32 33  1  0
 33 34  1  0
 34 35  1  1
 34 36  1  0
M  END
