
     RDKit          3D

 37 39  0  0  0  0  0  0  0  0999 V2000
   -4.6890    0.8140    2.0810 C   0  0  0  0  0  0  0  0  0  0  0  0
   -5.7470    0.7930    1.1730 O   0  0  0  0  0  0  0  0  0  0  0  0
   -6.4830   -0.3420    1.3620 C   0  0  1  0  0  0  0  0  0  0  0  0
   -7.8630    0.0210    1.9000 C   0  0  0  0  0  0  0  0  0  0  0  0
   -8.4080   -1.2130    2.3280 O   0  0  0  0  0  0  0  0  0  0  0  0
   -8.6980   -1.9350    1.1740 C   0  0  0  0  0  0  0  0  0  0  0  0
   -7.4130   -2.4470    0.5070 C   0  0  0  0  0  0  0  0  0  0  0  0
   -6.6200   -1.2080    0.1480 C   0  0  2  0  0  0  0  0  0  0  0  0
   -5.3730   -1.4570   -0.4110 O   0  0  0  0  0  0  0  0  0  0  0  0
   -5.0670   -1.0630   -1.7280 C   0  0  0  0  0  0  0  0  0  0  0  0
   -5.9960   -0.4770   -2.3420 O   0  0  0  0  0  0  0  0  0  0  0  0
   -3.7510   -1.3140   -2.3650 C   0  0  0  0  0  0  0  0  0  0  0  0
   -2.9130   -0.0800   -2.4010 C   0  0  1  0  0  0  0  0  0  0  0  0
   -2.6760    0.3910   -0.9840 C   0  0  0  0  0  0  0  0  0  0  0  0
   -1.1990    0.2170   -0.6010 C   0  0  2  0  0  0  0  0  0  0  0  0
   -1.0970    0.6020    0.7260 O   0  0  0  0  0  0  0  0  0  0  0  0
   -0.4330    1.1740   -1.4850 C   0  0  1  0  0  0  0  0  0  0  0  0
    1.0250    1.1090   -1.2650 C   0  0  0  0  0  0  0  0  0  0  0  0
    1.7420    0.8160   -2.1920 O   0  0  0  0  0  0  0  0  0  0  0  0
    1.6090    1.3930    0.0410 C   0  0  2  0  0  0  0  0  0  0  0  0
    1.2510    2.8090    0.4320 C   0  0  0  0  0  0  0  0  0  0  0  0
    3.0180    1.2880    0.0710 O   0  0  0  0  0  0  0  0  0  0  0  0
    3.7040    0.4750    0.9950 C   0  0  0  0  0  0  0  0  0  0  0  0
    2.9720   -0.1470    1.7860 O   0  0  0  0  0  0  0  0  0  0  0  0
    5.1620    0.4020    0.9840 C   0  0  0  0  0  0  0  0  0  0  0  0
    5.8990    1.1220    0.0660 C   0  0  0  0  0  0  0  0  0  0  0  0
    7.2780    1.0710    0.0350 C   0  0  0  0  0  0  0  0  0  0  0  0
    8.0640    1.8590   -0.9690 C   0  0  0  0  0  0  0  0  0  0  0  0
    7.9810    0.2880    0.9300 C   0  0  0  0  0  0  0  0  0  0  0  0
    9.4780    0.2420    0.8840 C   0  0  0  0  0  0  0  0  0  0  0  0
    7.2590   -0.4350    1.8500 C   0  0  0  0  0  0  0  0  0  0  0  0
    7.9750   -1.2910    2.8300 C   0  0  0  0  0  0  0  0  0  0  0  0
    5.8590   -0.3790    1.8770 C   0  0  0  0  0  0  0  0  0  0  0  0
    5.0990   -1.1690    2.8790 C   0  0  0  0  0  0  0  0  0  0  0  0
   -0.8210    1.0400   -2.9240 C   0  0  0  0  0  0  0  0  0  0  0  0
   -1.6780   -0.1650   -3.2280 C   0  0  1  0  0  0  0  0  0  0  0  0
   -0.9370   -1.4560   -3.1660 C   0  0  0  0  0  0  0  0  0  0  0  0
  1  2  1  0
  3  2  1  6
  3  4  1  0
  3  8  1  0
  4  5  1  0
  5  6  1  0
  6  7  1  0
  7  8  1  0
  8  9  1  1
  9 10  1  0
 10 11  2  0
 10 12  1  0
 13 12  1  1
 13 14  1  0
 13 36  1  0
 14 15  1  0
 15 16  1  1
 15 17  1  0
 17 18  1  6
 17 35  1  0
 18 19  2  0
 18 20  1  0
 20 21  1  6
 20 22  1  0
 22 23  1  0
 23 24  2  0
 23 25  1  0
 25 26  2  0
 25 33  1  0
 26 27  1  0
 27 28  1  0
 27 29  2  0
 29 30  1  0
 29 31  1  0
 31 32  1  0
 31 33  2  0
 33 34  1  0
 35 36  1  0
 36 37  1  1
M  END
