
     RDKit          3D

 37 40  0  0  0  0  0  0  0  0999 V2000
    8.8480    2.4220    0.7940 C   0  0  0  0  0  0  0  0  0  0  0  0
    9.0450    1.1920   -0.0520 C   0  0  0  0  0  0  0  0  0  0  0  0
    7.6850    0.8330   -0.6630 C   0  0  2  0  0  0  0  0  0  0  0  0
    6.7220    0.5660    0.4400 C   0  0  0  0  0  0  0  0  0  0  0  0
    5.9290   -0.6870    0.2990 C   0  0  1  0  0  0  0  0  0  0  0  0
    4.7030   -0.6330    1.1670 C   0  0  0  0  0  0  0  0  0  0  0  0
    4.4890   -1.5460    2.0050 O   0  0  0  0  0  0  0  0  0  0  0  0
    3.7920    0.3810    1.0880 O   0  0  0  0  0  0  0  0  0  0  0  0
    2.6150    0.5440    1.8340 C   0  0  0  0  0  0  0  0  0  0  0  0
    1.7120   -0.5970    1.5670 C   0  0  0  0  0  0  0  0  0  0  0  0
    1.6160   -1.7420    2.3080 C   0  0  0  0  0  0  0  0  0  0  0  0
    0.6610   -2.5520    1.7260 C   0  0  0  0  0  0  0  0  0  0  0  0
    0.1970   -1.8380    0.6100 C   0  0  0  0  0  0  0  0  0  0  0  0
   -0.8140   -2.3680   -0.2570 C   0  0  0  0  0  0  0  0  0  0  0  0
   -1.8500   -1.7130   -0.6890 C   0  0  0  0  0  0  0  0  0  0  0  0
   -2.0520   -0.2980   -0.2840 C   0  0  0  0  0  0  0  0  0  0  0  0
   -2.9270   -0.1950    0.7990 O   0  0  0  0  0  0  0  0  0  0  0  0
   -3.8270    0.8410    0.6430 C   0  0  2  0  0  0  0  0  0  0  0  0
   -3.2160    2.2080    0.8430 C   0  0  0  0  0  0  0  0  0  0  0  0
   -4.2510    3.0350    1.5610 C   0  0  0  0  0  0  0  0  0  0  0  0
   -5.3170    2.0900    2.0740 C   0  0  0  0  0  0  0  0  0  0  0  0
   -4.9080    0.7080    1.6910 C   0  0  1  0  0  0  0  0  0  0  0  0
   -5.9130   -0.1100    1.2370 O   0  0  0  0  0  0  0  0  0  0  0  0
   -6.9020    0.4960    0.5090 C   0  0  0  0  0  0  0  0  0  0  0  0
   -7.7680   -0.4010   -0.3020 C   0  0  1  0  0  0  0  0  0  0  0  0
   -8.5320    0.4160   -1.1680 O   0  0  0  0  0  0  0  0  0  0  0  0
   -7.0470   -1.4370   -1.1190 C   0  0  0  0  0  0  0  0  0  0  0  0
   -6.2350   -0.7780   -2.1770 C   0  0  0  0  0  0  0  0  0  0  0  0
   -4.9510   -1.4520   -2.5330 C   0  0  0  0  0  0  0  0  0  0  0  0
   -4.3090   -2.1820   -1.3950 C   0  0  0  0  0  0  0  0  0  0  0  0
   -2.8340   -2.3850   -1.5660 C   0  0  0  0  0  0  0  0  0  0  0  0
   -2.3840   -3.1340   -2.4620 O   0  0  0  0  0  0  0  0  0  0  0  0
    0.8530   -0.7130    0.5820 O   0  0  0  0  0  0  0  0  0  0  0  0
    5.6070   -1.0400   -1.1300 C   0  0  0  0  0  0  0  0  0  0  0  0
    6.6790   -0.5810   -2.0870 C   0  0  1  0  0  0  0  0  0  0  0  0
    6.2420    0.5550   -2.9630 C   0  0  0  0  0  0  0  0  0  0  0  0
    7.8780   -0.3030   -1.4030 O   0  0  0  0  0  0  0  0  0  0  0  0
  1  2  1  0
  3  2  1  1
  3  4  1  0
  3 37  1  0
  4  5  1  0
  5  6  1  1
  5 34  1  0
  6  7  2  0
  6  8  1  0
  8  9  1  0
  9 10  1  0
 10 11  2  0
 10 33  1  0
 11 12  1  0
 12 13  2  0
 13 14  1  0
 13 33  1  0
 14 15  2  3
 15 16  1  0
 15 31  1  0
 16 17  1  0
 17 18  1  0
 18 19  1  1
 18 22  1  0
 19 20  1  0
 20 21  1  0
 22 21  1  6
 22 23  1  0
 23 24  1  0
 24 25  1  0
 25 26  1  6
 25 27  1  0
 27 28  1  0
 28 29  1  0
 29 30  1  0
 30 31  1  0
 31 32  2  0
 34 35  1  0
 35 36  1  1
 35 37  1  0
M  END
