
     RDKit          3D

 37 39  0  0  0  0  0  0  0  0999 V2000
   -2.3830   -4.5710   -0.2340 C   0  0  0  0  0  0  0  0  0  0  0  0
   -1.2100   -3.6230   -0.3330 C   0  0  0  0  0  0  0  0  0  0  0  0
   -1.5470   -2.2640   -0.7940 C   0  0  1  0  0  0  0  0  0  0  0  0
   -2.4940   -1.4710    0.0460 C   0  0  2  0  0  0  0  0  0  0  0  0
   -2.9460   -2.0670    1.3280 C   0  0  0  0  0  0  0  0  0  0  0  0
   -3.6280   -0.9140    2.0930 C   0  0  0  0  0  0  0  0  0  0  0  0
   -3.7880    0.2030    1.2900 O   0  0  0  0  0  0  0  0  0  0  0  0
   -4.5530   -0.1490    0.1810 C   0  0  1  0  0  0  0  0  0  0  0  0
   -4.9930    1.0470   -0.6110 C   0  0  0  0  0  0  0  0  0  0  0  0
   -4.8670    2.2120    0.1460 O   0  0  0  0  0  0  0  0  0  0  0  0
   -3.5750    2.7000    0.0190 C   0  0  0  0  0  0  0  0  0  0  0  0
   -3.4860    3.4980   -1.2610 C   0  0  0  0  0  0  0  0  0  0  0  0
   -2.1910    4.3200   -1.2490 C   0  0  0  0  0  0  0  0  0  0  0  0
   -0.9740    3.4360   -1.1630 C   0  0  0  0  0  0  0  0  0  0  0  0
   -0.2400    3.7440    0.0660 C   0  0  0  0  0  0  0  0  0  0  0  0
   -0.8450    4.3420    1.0170 O   0  0  0  0  0  0  0  0  0  0  0  0
    1.0890    3.4420    0.3090 O   0  0  0  0  0  0  0  0  0  0  0  0
    1.7780    2.4190   -0.4650 C   0  0  0  0  0  0  0  0  0  0  0  0
    2.8020    1.7530    0.2840 C   0  0  0  0  0  0  0  0  0  0  0  0
    2.9400    0.2730    0.4930 C   0  0  1  0  0  0  0  0  0  0  0  0
    4.1440    0.2440    1.4020 C   0  0  0  0  0  0  0  0  0  0  0  0
    5.4290    0.8320    1.0090 C   0  0  0  0  0  0  0  0  0  0  0  0
    6.1340    0.4090   -0.0480 O   0  0  0  0  0  0  0  0  0  0  0  0
    1.8140   -0.2950    1.3500 C   0  0  1  0  0  0  0  0  0  0  0  0
    2.2510   -0.7080    2.7530 C   0  0  0  0  0  0  0  0  0  0  0  0
    0.7640    0.7790    1.7150 C   0  0  0  0  0  0  0  0  0  0  0  0
    1.0520   -1.4460    0.8340 C   0  0  0  0  0  0  0  0  0  0  0  0
    0.9400   -1.6930   -0.6050 C   0  0  2  0  0  0  0  0  0  0  0  0
    1.9170   -0.9680   -1.4630 C   0  0  0  0  0  0  0  0  0  0  0  0
    3.1920   -0.5560   -0.7030 C   0  0  2  0  0  0  0  0  0  0  0  0
    3.8280   -1.9180   -0.3440 C   0  0  0  0  0  0  0  0  0  0  0  0
    3.9830    0.0070   -1.8070 C   0  0  0  0  0  0  0  0  0  0  0  0
    4.8310   -0.6860   -2.4190 O   0  0  0  0  0  0  0  0  0  0  0  0
    3.8830    1.2890   -2.2710 O   0  0  0  0  0  0  0  0  0  0  0  0
   -0.4280   -1.3810   -1.2050 C   0  0  1  0  0  0  0  0  0  0  0  0
   -0.2210   -1.4110   -2.5990 O   0  0  0  0  0  0  0  0  0  0  0  0
   -3.7320   -1.0170   -0.7560 C   0  0  0  0  0  0  0  0  0  0  0  0
  1  2  1  0
  3  2  1  1
  3  4  1  0
  3 35  1  0
  4  5  1  1
  4 37  1  0
  5  6  1  0
  6  7  1  0
  7  8  1  0
  8  9  1  6
  8 37  1  0
  9 10  1  0
 10 11  1  0
 11 12  1  0
 12 13  1  0
 13 14  1  0
 14 15  1  0
 15 16  2  0
 15 17  1  0
 17 18  1  0
 18 19  1  0
 19 20  1  0
 20 21  1  1
 20 24  1  0
 20 30  1  0
 21 22  1  0
 22 23  1  0
 24 25  1  1
 24 26  1  0
 24 27  1  0
 27 28  1  0
 28 29  1  6
 28 35  1  0
 29 30  1  0
 30 31  1  1
 30 32  1  0
 32 33  2  0
 32 34  1  0
 35 36  1  6
M  END
