
     RDKit          3D

 37 39  0  0  0  0  0  0  0  0999 V2000
   -5.9990   -0.4550   -2.8770 C   0  0  0  0  0  0  0  0  0  0  0  0
   -5.7830    0.7560   -1.9940 C   0  0  0  0  0  0  0  0  0  0  0  0
   -5.7270    0.3860   -0.5700 C   0  0  0  0  0  0  0  0  0  0  0  0
   -6.9590    0.1630    0.0640 C   0  0  0  0  0  0  0  0  0  0  0  0
   -8.2080    0.3130   -0.7210 C   0  0  0  0  0  0  0  0  0  0  0  0
   -6.9770   -0.1830    1.3890 C   0  0  0  0  0  0  0  0  0  0  0  0
   -5.8030   -0.3120    2.0950 C   0  0  0  0  0  0  0  0  0  0  0  0
   -5.8960   -0.6880    3.5290 C   0  0  0  0  0  0  0  0  0  0  0  0
   -4.6130   -0.0910    1.4590 C   0  0  0  0  0  0  0  0  0  0  0  0
   -4.5420    0.2670    0.0960 C   0  0  0  0  0  0  0  0  0  0  0  0
   -3.2310    0.4520   -0.5060 C   0  0  0  0  0  0  0  0  0  0  0  0
   -3.0900    0.6470   -1.7220 O   0  0  0  0  0  0  0  0  0  0  0  0
   -2.1110    0.4130    0.2750 O   0  0  0  0  0  0  0  0  0  0  0  0
   -0.7640    0.5760   -0.2180 C   0  0  1  0  0  0  0  0  0  0  0  0
   -0.6860    1.8740   -0.8800 C   0  0  0  0  0  0  0  0  0  0  0  0
    0.0200    0.7010    1.1060 C   0  0  2  0  0  0  0  0  0  0  0  0
   -0.2370    2.0310    1.5280 O   0  0  0  0  0  0  0  0  0  0  0  0
    1.4380    0.3420    1.0850 C   0  0  1  0  0  0  0  0  0  0  0  0
    1.7230   -0.5790    2.1310 O   0  0  0  0  0  0  0  0  0  0  0  0
    2.0210   -0.2160   -0.1610 C   0  0  1  0  0  0  0  0  0  0  0  0
    2.9620    0.9280   -0.6530 C   0  0  0  0  0  0  0  0  0  0  0  0
    2.9940   -1.3580    0.0180 C   0  0  0  0  0  0  0  0  0  0  0  0
    4.2010   -1.0410    0.8040 C   0  0  0  0  0  0  0  0  0  0  0  0
    4.2170   -1.1180    2.0590 O   0  0  0  0  0  0  0  0  0  0  0  0
    5.3970   -0.6370    0.2020 O   0  0  0  0  0  0  0  0  0  0  0  0
    6.4950   -0.3570    1.0290 C   0  0  0  0  0  0  0  0  0  0  0  0
    7.7160    0.0700    0.2760 C   0  0  1  0  0  0  0  0  0  0  0  0
    8.2570   -1.0840   -0.5470 C   0  0  0  0  0  0  0  0  0  0  0  0
    7.5330    1.2090   -0.4730 O   0  0  0  0  0  0  0  0  0  0  0  0
    8.3550    2.2420   -0.0580 C   0  0  0  0  0  0  0  0  0  0  0  0
    1.1100   -0.4970   -1.2540 C   0  0  1  0  0  0  0  0  0  0  0  0
    1.2710    0.3820   -2.4860 C   0  0  0  0  0  0  0  0  0  0  0  0
    0.8550   -1.8400   -1.8210 C   0  0  0  0  0  0  0  0  0  0  0  0
   -0.5040   -1.2040   -2.1200 C   0  0  0  0  0  0  0  0  0  0  0  0
   -1.1900   -1.2740   -3.0880 O   0  0  0  0  0  0  0  0  0  0  0  0
   -0.3450   -0.6650   -0.8010 C   0  0  2  0  0  0  0  0  0  0  0  0
   -0.6380   -1.7960    0.1540 C   0  0  0  0  0  0  0  0  0  0  0  0
  1  2  1  0
  2  3  1  0
  3  4  2  0
  3 10  1  0
  4  5  1  0
  4  6  1  0
  6  7  2  0
  7  8  1  0
  7  9  1  0
  9 10  2  0
 10 11  1  0
 11 12  2  0
 11 13  1  0
 13 14  1  0
 14 15  1  6
 14 16  1  0
 14 36  1  0
 16 17  1  6
 16 18  1  0
 18 19  1  1
 18 20  1  0
 20 21  1  6
 20 22  1  0
 20 31  1  0
 22 23  1  0
 23 24  2  0
 23 25  1  0
 25 26  1  0
 26 27  1  0
 27 28  1  6
 27 29  1  0
 29 30  1  0
 31 32  1  6
 31 33  1  0
 31 36  1  0
 33 34  1  0
 34 35  2  0
 34 36  1  0
 36 37  1  1
M  END
