
     RDKit          3D

 37 38  0  0  0  0  0  0  0  0999 V2000
   -5.0600   -3.2980   -1.7200 C   0  0  0  0  0  0  0  0  0  0  0  0
   -4.7720   -3.5100   -0.2740 C   0  0  0  0  0  0  0  0  0  0  0  0
   -3.2890   -3.6350   -0.0130 C   0  0  0  0  0  0  0  0  0  0  0  0
   -2.8440   -4.7480    0.5260 C   0  0  0  0  0  0  0  0  0  0  0  0
   -1.4430   -5.0520    0.8510 C   0  0  0  0  0  0  0  0  0  0  0  0
   -1.3470   -5.9060    1.8180 O   0  0  0  0  0  0  0  0  0  0  0  0
   -0.4380   -4.4760    0.1820 O   0  0  0  0  0  0  0  0  0  0  0  0
    0.5510   -3.5470    0.4040 C   0  0  0  0  0  0  0  0  0  0  0  0
    1.8650   -4.2710    0.6350 C   0  0  2  0  0  0  0  0  0  0  0  0
    1.5150   -5.5020    1.2320 O   0  0  0  0  0  0  0  0  0  0  0  0
    2.8250   -3.5320    1.4560 C   0  0  0  0  0  0  0  0  0  0  0  0
    3.3000   -4.1460    2.4780 O   0  0  0  0  0  0  0  0  0  0  0  0
    3.2610   -2.2620    1.2440 O   0  0  0  0  0  0  0  0  0  0  0  0
    3.7350   -1.6640    0.0810 C   0  0  2  0  0  0  0  0  0  0  0  0
    4.6800   -2.5070   -0.7210 C   0  0  0  0  0  0  0  0  0  0  0  0
    4.5080   -0.4060    0.5000 C   0  0  0  0  0  0  0  0  0  0  0  0
    4.4270    0.6860   -0.5250 C   0  0  2  0  0  0  0  0  0  0  0  0
    5.6990    0.7270   -1.3400 C   0  0  0  0  0  0  0  0  0  0  0  0
    4.3740    2.0090    0.2360 C   0  0  0  0  0  0  0  0  0  0  0  0
    3.9760    3.1530   -0.6450 C   0  0  0  0  0  0  0  0  0  0  0  0
    2.9720    4.0010    0.1410 C   0  0  0  0  0  0  0  0  0  0  0  0
    1.7040    3.1640    0.3430 C   0  0  1  0  0  0  0  0  0  0  0  0
    1.2190    3.4380    1.7300 C   0  0  0  0  0  0  0  0  0  0  0  0
    0.9150    4.7630    1.9710 O   0  0  0  0  0  0  0  0  0  0  0  0
    0.8280    3.4820   -0.6550 O   0  0  0  0  0  0  0  0  0  0  0  0
   -0.2730    4.2090   -0.2680 C   0  0  0  0  0  0  0  0  0  0  0  0
   -1.2600    4.1640   -1.3820 C   0  0  0  0  0  0  0  0  0  0  0  0
   -2.1070    3.1590   -1.5620 C   0  0  0  0  0  0  0  0  0  0  0  0
   -2.1690    1.9650   -0.6740 C   0  0  1  0  0  0  0  0  0  0  0  0
   -2.9610    2.2570    0.5880 C   0  0  0  0  0  0  0  0  0  0  0  0
   -4.3410    1.6480    0.5290 C   0  0  2  0  0  0  0  0  0  0  0  0
   -5.0840    2.1110    1.7660 C   0  0  0  0  0  0  0  0  0  0  0  0
   -4.2840    0.1370    0.4840 C   0  0  0  0  0  0  0  0  0  0  0  0
   -3.0780   -0.2650   -0.3100 C   0  0  2  0  0  0  0  0  0  0  0  0
   -2.8500    0.8080   -1.3750 C   0  0  0  0  0  0  0  0  0  0  0  0
   -3.2540   -1.4820   -0.9660 O   0  0  0  0  0  0  0  0  0  0  0  0
   -2.4710   -2.4650   -0.4020 C   0  0  0  0  0  0  0  0  0  0  0  0
  1  2  1  0
  2  3  1  0
  3  4  2  0
  3 37  1  0
  4  5  1  0
  5  6  2  0
  5  7  1  0
  7  8  1  0
  8  9  1  0
  9 10  1  1
  9 11  1  0
 11 12  2  0
 11 13  1  0
 13 14  1  0
 14 15  1  1
 14 16  1  0
 16 17  1  0
 17 18  1  6
 17 19  1  0
 19 20  1  0
 20 21  1  0
 21 22  1  0
 22 23  1  1
 22 25  1  0
 23 24  1  0
 25 26  1  0
 26 27  1  0
 27 28  2  0
 28 29  1  0
 29 30  1  1
 29 35  1  0
 30 31  1  0
 31 32  1  1
 31 33  1  0
 34 33  1  6
 34 35  1  0
 34 36  1  0
 36 37  1  0
M  END
