
     RDKit          3D

 37 39  0  0  0  0  0  0  0  0999 V2000
   -4.8630    0.3540    3.6710 C   0  0  0  0  0  0  0  0  0  0  0  0
   -4.1530   -0.4120    2.7540 O   0  0  0  0  0  0  0  0  0  0  0  0
   -3.5550    0.1790    1.6040 C   0  0  0  0  0  0  0  0  0  0  0  0
   -3.7550    1.3960    1.5550 O   0  0  0  0  0  0  0  0  0  0  0  0
   -2.8480   -0.7540    0.7440 C   0  0  0  0  0  0  0  0  0  0  0  0
   -1.8470   -0.1960   -0.2810 C   0  0  2  0  0  0  0  0  0  0  0  0
   -0.7450    0.4050    0.4340 C   0  0  1  0  0  0  0  0  0  0  0  0
   -1.5080    1.2740    1.2820 O   0  0  0  0  0  0  0  0  0  0  0  0
    0.0420   -0.3990    1.4410 C   0  0  1  0  0  0  0  0  0  0  0  0
   -0.3810   -0.2530    2.8560 C   0  0  0  0  0  0  0  0  0  0  0  0
    0.4100   -1.0140    3.9000 C   0  0  0  0  0  0  0  0  0  0  0  0
    1.7420   -0.6750    3.9550 O   0  0  0  0  0  0  0  0  0  0  0  0
    0.3550   -1.8270    1.1640 C   0  0  0  0  0  0  0  0  0  0  0  0
    1.8210   -2.1810    1.4090 C   0  0  0  0  0  0  0  0  0  0  0  0
    2.3180   -3.1230    0.2880 C   0  0  0  0  0  0  0  0  0  0  0  0
    3.5760   -2.6340   -0.3680 C   0  0  0  0  0  0  0  0  0  0  0  0
    3.4600   -2.5970   -1.7620 O   0  0  0  0  0  0  0  0  0  0  0  0
    3.5520   -1.3440   -2.3090 C   0  0  0  0  0  0  0  0  0  0  0  0
    2.1820   -0.6680   -2.4920 C   0  0  0  0  0  0  0  0  0  0  0  0
    2.1640    0.4870   -1.4480 C   0  0  1  0  0  0  0  0  0  0  0  0
    3.3380    1.3620   -1.9250 C   0  0  0  0  0  0  0  0  0  0  0  0
    0.8790    1.1760   -1.4070 C   0  0  2  0  0  0  0  0  0  0  0  0
    1.1110    2.4290   -2.0550 O   0  0  0  0  0  0  0  0  0  0  0  0
    0.1330    1.5130   -0.1860 C   0  0  1  0  0  0  0  0  0  0  0  0
   -0.7290    2.7300   -0.5910 C   0  0  0  0  0  0  0  0  0  0  0  0
    1.0570    2.1500    0.8060 C   0  0  2  0  0  0  0  0  0  0  0  0
    1.6140    3.5190    0.4400 C   0  0  0  0  0  0  0  0  0  0  0  0
    2.5770    3.7000    1.6530 C   0  0  0  0  0  0  0  0  0  0  0  0
    2.9030    2.2430    1.9380 C   0  0  0  0  0  0  0  0  0  0  0  0
    2.3400    1.5450    0.8750 O   0  0  0  0  0  0  0  0  0  0  0  0
   -2.7970    0.6780   -1.0450 C   0  0  0  0  0  0  0  0  0  0  0  0
   -2.7650    0.6360   -2.5520 C   0  0  0  0  0  0  0  0  0  0  0  0
   -3.0900   -0.6860   -3.1360 C   0  0  0  0  0  0  0  0  0  0  0  0
   -2.8470   -1.6920   -2.0910 C   0  0  1  0  0  0  0  0  0  0  0  0
   -2.4180   -2.9810   -2.8450 C   0  0  0  0  0  0  0  0  0  0  0  0
   -1.2830   -2.7730   -3.5870 O   0  0  0  0  0  0  0  0  0  0  0  0
   -1.6590   -1.4060   -1.1660 C   0  0  0  0  0  0  0  0  0  0  0  0
  1  2  1  0
  2  3  1  0
  3  4  2  0
  3  5  1  0
  6  5  1  1
  6  7  1  0
  6 31  1  0
  6 37  1  0
  7  8  1  1
  7  9  1  0
  7 24  1  0
  9 10  1  1
  9 13  1  0
 10 11  1  0
 11 12  1  0
 13 14  1  0
 14 15  1  0
 15 16  1  0
 16 17  1  0
 17 18  1  0
 18 19  1  0
 19 20  1  0
 20 21  1  6
 20 22  1  0
 22 23  1  1
 22 24  1  0
 24 25  1  6
 24 26  1  0
 26 27  1  6
 26 30  1  0
 27 28  1  0
 28 29  1  0
 29 30  1  0
 31 32  1  0
 32 33  1  0
 33 34  1  0
 34 35  1  6
 34 37  1  0
 35 36  1  0
M  END
