
     RDKit          3D

 37 40  0  0  0  0  0  0  0  0999 V2000
    2.4580    1.4420    1.6060 C   0  0  0  0  0  0  0  0  0  0  0  0
    1.3620    0.4910    1.1840 C   0  0  0  0  0  0  0  0  0  0  0  0
   -0.0070    1.0620    1.0390 C   0  0  1  0  0  0  0  0  0  0  0  0
   -0.2630    1.5870    2.4210 C   0  0  0  0  0  0  0  0  0  0  0  0
    0.1420    0.7270    3.5820 C   0  0  0  0  0  0  0  0  0  0  0  0
   -0.2720   -0.5400    3.6760 O   0  0  0  0  0  0  0  0  0  0  0  0
    0.5950   -1.3900    4.3600 C   0  0  0  0  0  0  0  0  0  0  0  0
    0.3860   -2.7480    3.7880 C   0  0  0  0  0  0  0  0  0  0  0  0
   -0.4780   -3.4390    4.4610 O   0  0  0  0  0  0  0  0  0  0  0  0
    0.9250   -3.3530    2.7260 O   0  0  0  0  0  0  0  0  0  0  0  0
    1.4290   -3.0470    1.5140 C   0  0  0  0  0  0  0  0  0  0  0  0
    0.7360   -2.4870    0.4770 C   0  0  0  0  0  0  0  0  0  0  0  0
    1.3900   -2.1930   -0.8020 C   0  0  0  0  0  0  0  0  0  0  0  0
    1.1520   -2.1540   -2.0500 C   0  0  0  0  0  0  0  0  0  0  0  0
    1.7580   -1.8610   -3.3300 C   0  0  0  0  0  0  0  0  0  0  0  0
    2.7850   -1.1870   -3.7660 C   0  0  0  0  0  0  0  0  0  0  0  0
    3.7980   -0.4090   -3.0480 C   0  0  2  0  0  0  0  0  0  0  0  0
    4.7080   -1.3220   -2.3980 O   0  0  0  0  0  0  0  0  0  0  0  0
    3.4320    0.6710   -2.1360 C   0  0  0  0  0  0  0  0  0  0  0  0
    2.1280    1.3750   -2.2270 C   0  0  0  0  0  0  0  0  0  0  0  0
    2.0830    2.6080   -1.3980 C   0  0  0  0  0  0  0  0  0  0  0  0
    2.7370    3.6340   -1.8090 O   0  0  0  0  0  0  0  0  0  0  0  0
    1.3870    2.7020   -0.2300 O   0  0  0  0  0  0  0  0  0  0  0  0
    0.1510    2.3060    0.1240 C   0  0  2  0  0  0  0  0  0  0  0  0
   -0.8400    3.2880    0.6360 C   0  0  0  0  0  0  0  0  0  0  0  0
   -2.2000    2.6510    0.6060 C   0  0  1  0  0  0  0  0  0  0  0  0
   -2.8020    3.0740   -0.5990 O   0  0  0  0  0  0  0  0  0  0  0  0
   -2.3330    1.2130    0.9070 C   0  0  0  0  0  0  0  0  0  0  0  0
   -1.1200    0.3340    0.3920 C   0  0  1  0  0  0  0  0  0  0  0  0
   -1.2760    0.7310   -0.9230 O   0  0  0  0  0  0  0  0  0  0  0  0
   -1.7650    0.2520   -1.9720 C   0  0  0  0  0  0  0  0  0  0  0  0
   -3.2150    0.1280   -2.3160 C   0  0  0  0  0  0  0  0  0  0  0  0
   -4.0540   -0.8970   -1.6990 C   0  0  0  0  0  0  0  0  0  0  0  0
   -3.5200   -1.8780   -0.7660 C   0  0  0  0  0  0  0  0  0  0  0  0
   -2.8920   -1.4370    0.5110 C   0  0  0  0  0  0  0  0  0  0  0  0
   -1.3920   -1.0790    0.3480 C   0  0  2  0  0  0  0  0  0  0  0  0
   -0.6410   -2.1980    0.9090 C   0  0  0  0  0  0  0  0  0  0  0  0
  1  2  1  0
  3  2  1  1
  3  4  1  0
  3 24  1  0
  3 29  1  0
  4  5  1  0
  5  6  1  0
  6  7  1  0
  7  8  1  0
  8  9  2  0
  8 10  1  0
 10 11  1  0
 11 12  2  0
 12 13  1  0
 12 37  1  0
 13 14  2  0
 14 15  1  0
 15 16  2  0
 16 17  1  0
 17 18  1  1
 17 19  1  0
 19 20  1  0
 20 21  1  0
 21 22  2  0
 21 23  1  0
 23 24  1  0
 24 25  1  1
 25 26  1  0
 26 27  1  6
 26 28  1  0
 29 28  1  1
 29 30  1  0
 29 36  1  0
 30 31  1  0
 31 32  1  0
 32 33  1  0
 33 34  1  0
 34 35  1  0
 36 35  1  1
 36 37  1  0
M  END
