
     RDKit          3D

 37 40  0  0  0  0  0  0  0  0999 V2000
    9.3650    0.1200    0.1740 C   0  0  0  0  0  0  0  0  0  0  0  0
    7.9060    0.3080    0.1200 N   0  0  2  0  0  0  0  0  0  0  0  0
    7.6710    1.0830   -1.0990 C   0  0  0  0  0  0  0  0  0  0  0  0
    7.5610    1.0880    1.2480 C   0  0  0  0  0  0  0  0  0  0  0  0
    6.0880    1.1460    1.5570 C   0  0  0  0  0  0  0  0  0  0  0  0
    5.7300    1.8240    2.5470 O   0  0  0  0  0  0  0  0  0  0  0  0
    5.1780    0.4610    0.7550 N   0  0  0  0  0  0  0  0  0  0  0  0
    3.7780    0.4600    0.9740 C   0  0  0  0  0  0  0  0  0  0  0  0
    3.1420    1.1210    1.9730 C   0  0  0  0  0  0  0  0  0  0  0  0
    1.7590    1.1000    2.1610 C   0  0  0  0  0  0  0  0  0  0  0  0
    0.9750    0.3750    1.2970 C   0  0  0  0  0  0  0  0  0  0  0  0
    1.5930   -0.3100    0.2690 C   0  0  0  0  0  0  0  0  0  0  0  0
    2.9510   -0.2870    0.0870 C   0  0  0  0  0  0  0  0  0  0  0  0
    3.5820   -0.9590   -0.9270 O   0  0  0  0  0  0  0  0  0  0  0  0
    0.7190   -1.0860   -0.6140 C   0  0  0  0  0  0  0  0  0  0  0  0
    1.1920   -1.7360   -1.5730 O   0  0  0  0  0  0  0  0  0  0  0  0
   -0.7270   -1.0790   -0.3420 C   0  0  0  0  0  0  0  0  0  0  0  0
   -1.5720   -1.2570   -1.3080 C   0  0  0  0  0  0  0  0  0  0  0  0
   -1.0390   -1.4520   -2.6050 O   0  0  0  0  0  0  0  0  0  0  0  0
   -3.0390   -1.2770   -1.1860 C   0  0  2  0  0  0  0  0  0  0  0  0
   -3.4760   -2.4320   -1.8790 O   0  0  0  0  0  0  0  0  0  0  0  0
   -3.5900   -0.1270   -1.9400 C   0  0  0  0  0  0  0  0  0  0  0  0
   -3.5470   -0.0950   -3.1950 O   0  0  0  0  0  0  0  0  0  0  0  0
   -4.1940    0.9980   -1.2430 C   0  0  0  0  0  0  0  0  0  0  0  0
   -4.1190    2.3620   -1.7560 C   0  0  0  0  0  0  0  0  0  0  0  0
   -4.7290    3.4040   -1.0240 N   0  0  0  0  0  0  0  0  0  0  0  0
   -3.5160    2.5580   -2.8330 O   0  0  0  0  0  0  0  0  0  0  0  0
   -4.8320    0.7530   -0.1050 C   0  0  0  0  0  0  0  0  0  0  0  0
   -5.4290    1.7990    0.6030 O   0  0  0  0  0  0  0  0  0  0  0  0
   -4.8850   -0.6430    0.3750 C   0  0  1  0  0  0  0  0  0  0  0  0
   -5.9300   -1.3500   -0.3050 N   0  0  1  0  0  0  0  0  0  0  0  0
   -6.0810   -2.7010    0.2070 C   0  0  0  0  0  0  0  0  0  0  0  0
   -7.1640   -0.6150   -0.0640 C   0  0  0  0  0  0  0  0  0  0  0  0
   -3.5230   -1.3320    0.2260 C   0  0  2  0  0  0  0  0  0  0  0  0
   -2.6260   -0.6960    1.2180 C   0  0  0  0  0  0  0  0  0  0  0  0
   -1.1680   -0.8790    1.0500 C   0  0  2  0  0  0  0  0  0  0  0  0
   -0.4930    0.3970    1.5230 C   0  0  0  0  0  0  0  0  0  0  0  0
  2  1  1  1
  2  3  1  0
  2  4  1  0
  4  5  1  0
  5  6  2  0
  5  7  1  0
  7  8  1  0
  8  9  2  0
  8 13  1  0
  9 10  1  0
 10 11  2  0
 11 12  1  0
 11 37  1  0
 12 13  2  0
 12 15  1  0
 13 14  1  0
 15 16  2  0
 15 17  1  0
 17 18  2  0
 17 36  1  0
 18 19  1  0
 18 20  1  0
 20 21  1  6
 20 22  1  0
 20 34  1  0
 22 23  2  0
 22 24  1  0
 24 25  1  0
 24 28  2  0
 25 26  1  0
 25 27  2  0
 28 29  1  0
 30 28  1  6
 30 31  1  0
 30 34  1  0
 31 32  1  1
 31 33  1  0
 34 35  1  1
 36 35  1  6
 36 37  1  0
M  CHG  2   2   1  31   1
M  END
