
     RDKit          3D

 34 38  0  0  0  0  0  0  0  0999 V2000
   -5.0860    3.0800    0.6730 C   0  0  0  0  0  0  0  0  0  0  0  0
   -3.9360    2.1530    0.7070 C   0  0  0  0  0  0  0  0  0  0  0  0
   -4.0590    0.9920    1.3610 C   0  0  0  0  0  0  0  0  0  0  0  0
   -5.1920    0.5750    2.0260 O   0  0  0  0  0  0  0  0  0  0  0  0
   -4.9770   -0.6570    2.5900 C   0  0  0  0  0  0  0  0  0  0  0  0
   -3.5580   -1.0540    2.2440 C   0  0  0  0  0  0  0  0  0  0  0  0
   -3.0750   -2.3450    2.7680 C   0  0  1  0  0  0  0  0  0  0  0  0
   -3.4130   -2.4200    4.1480 F   0  0  0  0  0  0  0  0  0  0  0  0
   -3.7860   -3.3700    2.1790 F   0  0  0  0  0  0  0  0  0  0  0  0
   -1.3760   -2.6720    2.6610 Cl  0  0  0  0  0  0  0  0  0  0  0  0
   -3.0700   -0.0830    1.5370 C   0  0  0  0  0  0  0  0  0  0  0  0
   -1.7660   -0.0790    0.9920 N   0  0  0  0  0  0  0  0  0  0  0  0
   -0.6960    0.4970    1.7740 C   0  0  0  0  0  0  0  0  0  0  0  0
    0.6250    0.3780    1.1080 C   0  0  0  0  0  0  0  0  0  0  0  0
    0.9850    1.3210    0.1760 C   0  0  0  0  0  0  0  0  0  0  0  0
    2.2030    1.2350   -0.4550 C   0  0  0  0  0  0  0  0  0  0  0  0
    3.1080    0.2390   -0.2060 C   0  0  0  0  0  0  0  0  0  0  0  0
    4.3790    0.2020   -0.9020 C   0  0  0  0  0  0  0  0  0  0  0  0
    5.5700   -0.0490   -0.2450 C   0  0  0  0  0  0  0  0  0  0  0  0
    6.7740   -0.0750   -0.9610 C   0  0  0  0  0  0  0  0  0  0  0  0
    8.0580   -0.2840   -0.6320 N   0  0  0  0  0  0  0  0  0  0  0  0
    8.8170   -0.1920   -1.7410 C   0  0  0  0  0  0  0  0  0  0  0  0
    8.0160    0.0790   -2.8050 N   0  0  0  0  0  0  0  0  0  0  0  0
    6.7690    0.1490   -2.3200 C   0  0  0  0  0  0  0  0  0  0  0  0
    5.6100    0.3880   -2.9300 N   0  0  0  0  0  0  0  0  0  0  0  0
    4.4290    0.4190   -2.2600 C   0  0  0  0  0  0  0  0  0  0  0  0
    3.4030    0.6480   -2.9110 O   0  0  0  0  0  0  0  0  0  0  0  0
    2.7380   -0.7180    0.7430 C   0  0  0  0  0  0  0  0  0  0  0  0
    1.5200   -0.6360    1.3780 C   0  0  0  0  0  0  0  0  0  0  0  0
   -1.5080   -0.5790   -0.3130 C   0  0  1  0  0  0  0  0  0  0  0  0
   -2.2100   -1.8260   -0.7380 C   0  0  0  0  0  0  0  0  0  0  0  0
   -3.5170   -1.3740   -1.3740 C   0  0  0  0  0  0  0  0  0  0  0  0
   -3.1400   -0.0500   -2.0030 C   0  0  0  0  0  0  0  0  0  0  0  0
   -1.7780    0.3270   -1.4760 C   0  0  0  0  0  0  0  0  0  0  0  0
  1  2  1  0
  2  3  2  3
  3  4  1  0
  3 11  1  0
  4  5  1  0
  5  6  1  0
  6  7  1  0
  6 11  2  0
  7  8  1  1
  7  9  1  0
  7 10  1  0
 11 12  1  0
 12 13  1  0
 30 12  1  1
 13 14  1  0
 14 15  2  0
 14 29  1  0
 15 16  1  0
 16 17  2  0
 17 18  1  0
 17 28  1  0
 18 19  2  0
 18 26  1  0
 19 20  1  0
 20 21  1  0
 20 24  2  0
 21 22  1  0
 22 23  2  0
 23 24  1  0
 24 25  1  0
 25 26  1  0
 26 27  2  0
 28 29  2  0
 30 31  1  0
 30 34  1  0
 31 32  1  0
 32 33  1  0
 33 34  1  0
M  END
