
     RDKit          3D

 34 38  0  0  0  0  0  0  0  0999 V2000
   -2.2380   -2.2230   -1.6280 C   0  0  0  0  0  0  0  0  0  0  0  0
   -3.2780   -1.2850   -1.1210 C   0  0  0  0  0  0  0  0  0  0  0  0
   -4.6110   -1.5380   -1.4780 C   0  0  0  0  0  0  0  0  0  0  0  0
   -5.6240   -0.7370   -0.9950 C   0  0  0  0  0  0  0  0  0  0  0  0
   -6.9020   -0.9990   -1.3780 F   0  0  0  0  0  0  0  0  0  0  0  0
   -5.3830    0.3220   -0.1580 C   0  0  0  0  0  0  0  0  0  0  0  0
   -6.4400    1.1970    0.4010 C   0  0  0  0  0  0  0  0  0  0  0  0
   -7.1820    0.6720    1.5630 C   0  0  0  0  0  0  0  0  0  0  0  0
   -7.9880   -0.5600    1.3910 C   0  0  0  0  0  0  0  0  0  0  0  0
   -9.0300   -0.4310    0.4680 F   0  0  0  0  0  0  0  0  0  0  0  0
   -4.0720    0.5750    0.1950 C   0  0  0  0  0  0  0  0  0  0  0  0
   -3.0310   -0.2370   -0.2960 C   0  0  0  0  0  0  0  0  0  0  0  0
   -1.6600    0.1350    0.0680 C   0  0  0  0  0  0  0  0  0  0  0  0
   -1.5480    0.6560    1.2180 O   0  0  0  0  0  0  0  0  0  0  0  0
   -0.5050   -0.0120   -0.6880 N   0  0  0  0  0  0  0  0  0  0  0  0
    0.8270    0.3220   -0.3610 C   0  0  0  0  0  0  0  0  0  0  0  0
    1.8710    0.0400   -1.2430 C   0  0  0  0  0  0  0  0  0  0  0  0
    3.1780    0.3240   -1.0120 C   0  0  0  0  0  0  0  0  0  0  0  0
    4.3220    0.2210   -2.3760 Cl  0  0  0  0  0  0  0  0  0  0  0  0
    3.5530    0.9320    0.1810 C   0  0  0  0  0  0  0  0  0  0  0  0
    2.5360    1.2270    1.0590 C   0  0  0  0  0  0  0  0  0  0  0  0
    1.2130    0.9320    0.8020 C   0  0  0  0  0  0  0  0  0  0  0  0
    3.1710    1.9590    2.1600 C   0  0  0  0  0  0  0  0  0  0  0  0
    2.5380    2.4050    3.1620 O   0  0  0  0  0  0  0  0  0  0  0  0
    4.5410    2.0690    1.9110 N   0  0  0  0  0  0  0  0  0  0  0  0
    4.8340    1.3830    0.6060 C   0  0  0  0  0  0  0  0  0  0  0  0
    6.0720    1.0290    0.3620 C   0  0  0  0  0  0  0  0  0  0  0  0
    7.1940    1.6990    0.8930 C   0  0  0  0  0  0  0  0  0  0  0  0
    8.2750    0.9710    0.6850 N   0  0  0  0  0  0  0  0  0  0  0  0
    7.9800   -0.1350    0.0630 N   0  0  0  0  0  0  0  0  0  0  0  0
    8.5590   -1.2720   -0.3690 C   0  0  0  0  0  0  0  0  0  0  0  0
    7.5860   -2.0810   -0.8870 C   0  0  0  0  0  0  0  0  0  0  0  0
    6.4160   -1.3670   -0.7390 C   0  0  0  0  0  0  0  0  0  0  0  0
    6.6360   -0.1290   -0.1460 C   0  0  0  0  0  0  0  0  0  0  0  0
  1  2  1  0
  2  3  2  0
  2 12  1  0
  3  4  1  0
  4  5  1  0
  4  6  2  0
  6  7  1  0
  6 11  1  0
  7  8  1  0
  8  9  1  0
  9 10  1  0
 11 12  2  0
 12 13  1  0
 13 14  2  0
 13 15  1  0
 15 16  1  0
 16 17  2  0
 16 22  1  0
 17 18  1  0
 18 19  1  0
 18 20  2  0
 20 21  1  0
 20 26  1  0
 21 22  2  0
 21 23  1  0
 23 24  2  0
 23 25  1  0
 25 26  1  0
 26 27  2  3
 27 28  1  0
 27 34  1  0
 28 29  2  0
 29 30  1  0
 30 31  1  0
 30 34  1  0
 31 32  2  0
 32 33  1  0
 33 34  2  0
M  END
