
     RDKit          3D

 34 39  0  0  0  0  0  0  0  0999 V2000
    6.1640    2.3890    1.6820 C   0  0  0  0  0  0  0  0  0  0  0  0
    5.8230    1.0370    1.3810 N   0  0  0  0  0  0  0  0  0  0  0  0
    6.5080    0.4700    0.2650 C   0  0  0  0  0  0  0  0  0  0  0  0
    5.8050    0.8060   -1.0340 C   0  0  0  0  0  0  0  0  0  0  0  0
    4.4620    0.1720   -0.9700 C   0  0  0  0  0  0  0  0  0  0  0  0
    3.8430   -0.3760   -2.0710 C   0  0  0  0  0  0  0  0  0  0  0  0
    2.5790   -0.9730   -2.0060 C   0  0  0  0  0  0  0  0  0  0  0  0
    1.9800   -0.9860   -0.7810 C   0  0  0  0  0  0  0  0  0  0  0  0
    2.5970   -0.4330    0.3460 C   0  0  0  0  0  0  0  0  0  0  0  0
    3.8430    0.1510    0.2620 C   0  0  0  0  0  0  0  0  0  0  0  0
    4.4410    0.7160    1.4830 C   0  0  0  0  0  0  0  0  0  0  0  0
    0.6400   -1.5980   -0.6200 C   0  0  0  0  0  0  0  0  0  0  0  0
    0.1170   -1.5890    0.5390 N   0  0  0  0  0  0  0  0  0  0  0  0
   -1.1370   -2.1350    0.8090 N   0  0  0  0  0  0  0  0  0  0  0  0
   -1.5010   -3.4270    0.8020 C   0  0  0  0  0  0  0  0  0  0  0  0
   -2.8230   -3.5840    1.1380 C   0  0  0  0  0  0  0  0  0  0  0  0
   -3.2880   -2.3180    1.3620 C   0  0  0  0  0  0  0  0  0  0  0  0
   -2.2610   -1.4410    1.1620 C   0  0  0  0  0  0  0  0  0  0  0  0
   -2.3470   -0.0730    1.3130 N   0  0  0  0  0  0  0  0  0  0  0  0
   -3.0720    0.8380    0.8660 C   0  0  0  0  0  0  0  0  0  0  0  0
   -2.8740    2.2780    1.2650 C   0  0  0  0  0  0  0  0  0  0  0  0
   -4.1260    3.0670    1.2280 C   0  0  0  0  0  0  0  0  0  0  0  0
   -5.3930    2.2880    1.1340 C   0  0  0  0  0  0  0  0  0  0  0  0
   -5.3520    1.2860    0.0360 C   0  0  0  0  0  0  0  0  0  0  0  0
   -6.3830    1.0450   -0.8340 C   0  0  0  0  0  0  0  0  0  0  0  0
   -6.1980    0.0810   -1.8070 C   0  0  0  0  0  0  0  0  0  0  0  0
   -5.0280   -0.6410   -1.9360 C   0  0  0  0  0  0  0  0  0  0  0  0
   -4.8290   -1.8510   -3.1770 Cl  0  0  0  0  0  0  0  0  0  0  0  0
   -3.9770   -0.4000   -1.0550 C   0  0  0  0  0  0  0  0  0  0  0  0
   -4.1590    0.5700   -0.0730 C   0  0  0  0  0  0  0  0  0  0  0  0
    0.0320   -2.1630   -1.8170 C   0  0  0  0  0  0  0  0  0  0  0  0
   -1.1140   -2.7040   -1.7580 O   0  0  0  0  0  0  0  0  0  0  0  0
    0.7270   -2.1090   -3.0650 N   0  0  0  0  0  0  0  0  0  0  0  0
    2.0160   -1.5280   -3.2560 C   0  0  0  0  0  0  0  0  0  0  0  0
  1  2  1  0
  2  3  1  0
  2 11  1  0
  3  4  1  0
  4  5  1  0
  5  6  2  0
  5 10  1  0
  6  7  1  0
  7  8  2  0
  7 34  1  0
  8  9  1  0
  8 12  1  0
  9 10  2  0
 10 11  1  0
 12 13  2  3
 12 31  1  0
 13 14  1  0
 14 15  1  0
 14 18  1  0
 15 16  2  0
 16 17  1  0
 17 18  2  0
 18 19  1  0
 19 20  2  3
 20 21  1  0
 20 30  1  0
 21 22  1  0
 22 23  1  0
 23 24  1  0
 24 25  2  0
 24 30  1  0
 25 26  1  0
 26 27  2  0
 27 28  1  0
 27 29  1  0
 29 30  2  0
 31 32  2  0
 31 33  1  0
 33 34  1  0
M  END
