
     RDKit          3D

 34 38  0  0  0  0  0  0  0  0999 V2000
   -4.3720    3.4840   -1.8110 C   0  0  0  0  0  0  0  0  0  0  0  0
   -5.3510    2.7460   -2.2180 C   0  0  0  0  0  0  0  0  0  0  0  0
   -6.8710    3.5410   -2.6070 Cl  0  0  0  0  0  0  0  0  0  0  0  0
   -5.2450    1.3190   -2.3720 C   0  0  0  0  0  0  0  0  0  0  0  0
   -6.3620    0.6900   -2.8000 C   0  0  0  0  0  0  0  0  0  0  0  0
   -7.4950    1.3730   -3.0610 F   0  0  0  0  0  0  0  0  0  0  0  0
   -6.3700   -0.6430   -2.9760 F   0  0  0  0  0  0  0  0  0  0  0  0
   -4.0740    0.4840   -2.1390 C   0  0  1  0  0  0  0  0  0  0  0  0
   -2.8810    0.7450   -3.0010 C   0  0  0  0  0  0  0  0  0  0  0  0
   -1.7450    0.4990   -2.0700 C   0  0  0  0  0  0  0  0  0  0  0  0
   -0.5550    0.1810   -2.4910 N   0  0  0  0  0  0  0  0  0  0  0  0
    0.5030   -0.0480   -1.6260 N   0  0  0  0  0  0  0  0  0  0  0  0
    1.6370   -0.7550   -2.0760 C   0  0  0  0  0  0  0  0  0  0  0  0
    1.6840   -1.1730   -3.2570 O   0  0  0  0  0  0  0  0  0  0  0  0
    2.7820   -1.0180   -1.1800 C   0  0  0  0  0  0  0  0  0  0  0  0
    2.8500   -0.6090    0.1450 C   0  0  0  0  0  0  0  0  0  0  0  0
    4.0490   -1.0160    0.6920 C   0  0  0  0  0  0  0  0  0  0  0  0
    4.6110   -0.8780    1.9380 C   0  0  0  0  0  0  0  0  0  0  0  0
    5.8570   -1.4170    2.1640 C   0  0  0  0  0  0  0  0  0  0  0  0
    6.5140   -2.0810    1.1410 C   0  0  0  0  0  0  0  0  0  0  0  0
    7.8480   -2.6530    1.4010 C   0  0  0  0  0  0  0  0  0  0  0  0
    8.3100   -2.4110    2.8070 C   0  0  0  0  0  0  0  0  0  0  0  0
    5.9130   -2.1880   -0.0670 N   0  0  0  0  0  0  0  0  0  0  0  0
    4.7010   -1.6820   -0.3400 C   0  0  0  0  0  0  0  0  0  0  0  0
    3.9190   -1.6690   -1.4550 N   0  0  0  0  0  0  0  0  0  0  0  0
   -2.2170    0.6770   -0.7140 C   0  0  0  0  0  0  0  0  0  0  0  0
   -1.8170    0.8390    0.5280 O   0  0  0  0  0  0  0  0  0  0  0  0
   -2.8490    0.9490    1.3400 C   0  0  0  0  0  0  0  0  0  0  0  0
   -2.9450    1.1300    2.7160 C   0  0  0  0  0  0  0  0  0  0  0  0
   -4.1650    1.2180    3.3530 C   0  0  0  0  0  0  0  0  0  0  0  0
   -5.3060    1.1200    2.5850 C   0  0  0  0  0  0  0  0  0  0  0  0
   -5.2040    0.9400    1.2240 C   0  0  0  0  0  0  0  0  0  0  0  0
   -3.9810    0.8510    0.5740 C   0  0  0  0  0  0  0  0  0  0  0  0
   -3.6020    0.6770   -0.7400 C   0  0  0  0  0  0  0  0  0  0  0  0
  1  2  2  0
  2  3  1  0
  2  4  1  0
  4  5  2  3
  8  4  1  6
  5  6  1  0
  5  7  1  0
  8  9  1  0
  8 34  1  0
  9 10  1  0
 10 11  2  3
 10 26  1  0
 11 12  1  0
 12 13  1  0
 13 14  2  0
 13 15  1  0
 15 16  2  0
 15 25  1  0
 16 17  1  0
 17 18  2  0
 17 24  1  0
 18 19  1  0
 19 20  2  0
 20 21  1  0
 20 23  1  0
 21 22  1  0
 23 24  2  0
 24 25  1  0
 26 27  1  0
 26 34  2  0
 27 28  1  0
 28 29  2  0
 28 33  1  0
 29 30  1  0
 30 31  2  0
 31 32  1  0
 32 33  2  0
 33 34  1  0
M  END
