
     RDKit          3D

 34 39  0  0  0  0  0  0  0  0999 V2000
   -3.0220   -1.4450    3.2750 C   0  0  0  0  0  0  0  0  0  0  0  0
   -3.0470   -0.6630    1.9900 C   0  0  0  0  0  0  0  0  0  0  0  0
   -1.8810   -0.1440    1.4930 C   0  0  0  0  0  0  0  0  0  0  0  0
   -1.9000    0.5830    0.2990 C   0  0  0  0  0  0  0  0  0  0  0  0
   -3.1110    0.7350   -0.3140 C   0  0  0  0  0  0  0  0  0  0  0  0
   -4.3120    0.2170    0.1710 C   0  0  0  0  0  0  0  0  0  0  0  0
   -4.2650   -0.4940    1.3470 C   0  0  0  0  0  0  0  0  0  0  0  0
   -5.4790   -1.1000    1.9680 C   0  0  0  0  0  0  0  0  0  0  0  0
   -6.5400   -1.3370    0.8880 C   0  0  0  0  0  0  0  0  0  0  0  0
   -6.7650   -0.0020    0.2350 C   0  0  0  0  0  0  0  0  0  0  0  0
   -5.5920    0.4370   -0.5710 C   0  0  0  0  0  0  0  0  0  0  0  0
   -3.2250    1.4760   -1.5460 N   0  0  0  0  0  0  0  0  0  0  0  0
   -2.0450    2.0370   -2.0950 C   0  0  0  0  0  0  0  0  0  0  0  0
   -2.0990    2.6920   -3.1680 O   0  0  0  0  0  0  0  0  0  0  0  0
   -0.8080    1.8740   -1.4580 N   0  0  0  0  0  0  0  0  0  0  0  0
    0.4150    2.4510   -2.0290 C   0  0  0  0  0  0  0  0  0  0  0  0
    1.5710    2.1220   -1.1250 C   0  0  0  0  0  0  0  0  0  0  0  0
    1.6080    0.7710   -0.7960 N   0  0  0  0  0  0  0  0  0  0  0  0
    2.8430    0.2000   -0.4000 C   0  0  0  0  0  0  0  0  0  0  0  0
    3.8540    0.0890   -1.4660 C   0  0  0  0  0  0  0  0  0  0  0  0
    3.5260    0.4450   -2.7650 C   0  0  0  0  0  0  0  0  0  0  0  0
    4.4570    0.2840   -3.7740 C   0  0  0  0  0  0  0  0  0  0  0  0
    5.6580   -0.2200   -3.4490 N   0  0  0  0  0  0  0  0  0  0  0  0
    5.9670   -0.5540   -2.2350 N   0  0  0  0  0  0  0  0  0  0  0  0
    5.1080   -0.4270   -1.1760 C   0  0  0  0  0  0  0  0  0  0  0  0
    5.5360   -0.8740    0.1370 C   0  0  0  0  0  0  0  0  0  0  0  0
    5.5540   -0.1450    1.2850 C   0  0  0  0  0  0  0  0  0  0  0  0
    5.9510   -0.6800    2.5090 C   0  0  0  0  0  0  0  0  0  0  0  0
    6.3460   -1.9770    2.6050 C   0  0  0  0  0  0  0  0  0  0  0  0
    6.8410   -2.6230    4.1600 Cl  0  0  0  0  0  0  0  0  0  0  0  0
    6.3410   -2.7440    1.4600 C   0  0  0  0  0  0  0  0  0  0  0  0
    5.9460   -2.2090    0.2500 C   0  0  0  0  0  0  0  0  0  0  0  0
    0.4360    0.1030   -0.3710 C   0  0  0  0  0  0  0  0  0  0  0  0
   -0.6710    1.1440   -0.2500 C   0  0  2  0  0  0  0  0  0  0  0  0
  1  2  1  0
  2  3  2  0
  2  7  1  0
  3  4  1  0
  4  5  2  0
  4 34  1  0
  5  6  1  0
  5 12  1  0
  6  7  2  0
  6 11  1  0
  7  8  1  0
  8  9  1  0
  9 10  1  0
 10 11  1  0
 12 13  1  0
 13 14  2  0
 13 15  1  0
 15 16  1  0
 15 34  1  0
 16 17  1  0
 17 18  1  0
 18 19  1  0
 18 33  1  0
 19 20  1  0
 20 21  2  0
 20 25  1  0
 21 22  1  0
 22 23  2  0
 23 24  1  0
 24 25  2  0
 25 26  1  0
 26 27  2  0
 26 32  1  0
 27 28  1  0
 28 29  2  0
 29 30  1  0
 29 31  1  0
 31 32  2  0
 34 33  1  6
M  END
