
     RDKit          3D

 34 38  0  0  0  0  0  0  0  0999 V2000
   -4.2910    4.0430    0.4660 C   0  0  0  0  0  0  0  0  0  0  0  0
   -4.3180    2.6950   -0.2270 C   0  0  0  0  0  0  0  0  0  0  0  0
   -4.5640    1.6480    0.8170 C   0  0  0  0  0  0  0  0  0  0  0  0
   -4.6150    0.3040    0.2710 N   0  0  0  0  0  0  0  0  0  0  0  0
   -5.7450   -0.2580   -0.1640 C   0  0  0  0  0  0  0  0  0  0  0  0
   -5.7750   -1.5330   -0.6760 C   0  0  0  0  0  0  0  0  0  0  0  0
   -4.6220   -2.2760   -0.7560 C   0  0  0  0  0  0  0  0  0  0  0  0
   -4.6250   -3.5650   -1.2410 C   0  0  0  0  0  0  0  0  0  0  0  0
   -3.5040   -4.2930   -1.2960 N   0  0  0  0  0  0  0  0  0  0  0  0
   -2.3220   -3.7930   -0.8780 C   0  0  0  0  0  0  0  0  0  0  0  0
   -2.2740   -2.4940   -0.3820 C   0  0  0  0  0  0  0  0  0  0  0  0
   -1.0290   -1.9010   -0.0320 N   0  0  0  0  0  0  0  0  0  0  0  0
    0.1560   -2.6200    0.3150 C   0  0  0  0  0  0  0  0  0  0  0  0
    0.1560   -3.8500    0.3460 O   0  0  0  0  0  0  0  0  0  0  0  0
    1.3930   -1.9220    0.6430 C   0  0  0  0  0  0  0  0  0  0  0  0
    1.9890   -2.0930    1.8710 C   0  0  0  0  0  0  0  0  0  0  0  0
    3.1550   -1.4830    2.2590 C   0  0  0  0  0  0  0  0  0  0  0  0
    3.7770   -0.6420    1.3660 C   0  0  0  0  0  0  0  0  0  0  0  0
    4.9070    0.0660    1.4800 N   0  0  0  0  0  0  0  0  0  0  0  0
    5.1250    0.7370    0.3520 C   0  0  0  0  0  0  0  0  0  0  0  0
    6.1410    1.5910   -0.0260 C   0  0  0  0  0  0  0  0  0  0  0  0
    7.2340    1.8880    0.9470 C   0  0  2  0  0  0  0  0  0  0  0  0
    7.8370    0.6840    1.2570 F   0  0  0  0  0  0  0  0  0  0  0  0
    6.7200    2.4520    2.1020 F   0  0  0  0  0  0  0  0  0  0  0  0
    8.3670    2.9940    0.1330 Cl  0  0  0  0  0  0  0  0  0  0  0  0
    6.0910    2.1420   -1.2980 C   0  0  0  0  0  0  0  0  0  0  0  0
    5.0650    1.8650   -2.1900 C   0  0  0  0  0  0  0  0  0  0  0  0
    4.0640    1.0070   -1.7780 C   0  0  0  0  0  0  0  0  0  0  0  0
    4.0710    0.4370   -0.5270 C   0  0  0  0  0  0  0  0  0  0  0  0
    3.2120   -0.4400    0.1140 C   0  0  0  0  0  0  0  0  0  0  0  0
    2.0380   -1.0740   -0.2330 C   0  0  0  0  0  0  0  0  0  0  0  0
   -3.4240   -1.7070   -0.3080 C   0  0  0  0  0  0  0  0  0  0  0  0
   -3.4670   -0.4410    0.1890 C   0  0  0  0  0  0  0  0  0  0  0  0
   -2.4280    0.1120    0.6080 O   0  0  0  0  0  0  0  0  0  0  0  0
  1  2  1  0
  2  3  1  0
  3  4  1  0
  4  5  1  0
  4 33  1  0
  5  6  2  0
  6  7  1  0
  7  8  2  0
  7 32  1  0
  8  9  1  0
  9 10  2  0
 10 11  1  0
 11 12  1  0
 11 32  2  0
 12 13  1  0
 13 14  2  0
 13 15  1  0
 15 16  2  0
 15 31  1  0
 16 17  1  0
 17 18  2  0
 18 19  1  0
 18 30  1  0
 19 20  1  0
 20 21  2  0
 20 29  1  0
 21 22  1  0
 21 26  1  0
 22 23  1  1
 22 24  1  0
 22 25  1  0
 26 27  2  0
 27 28  1  0
 28 29  2  0
 29 30  1  0
 30 31  2  0
 32 33  1  0
 33 34  2  0
M  END
