
     RDKit          3D

 35 38  0  0  0  0  0  0  0  0999 V2000
   -4.7760    0.8360   -3.9970 C   0  0  0  0  0  0  0  0  0  0  0  0
   -4.6360    0.6170   -2.5410 C   0  0  0  0  0  0  0  0  0  0  0  0
   -3.7530   -0.3440   -2.0710 C   0  0  0  0  0  0  0  0  0  0  0  0
   -3.6270   -0.5430   -0.7120 C   0  0  0  0  0  0  0  0  0  0  0  0
   -2.5250   -1.7640   -0.0980 S   0  0  0  0  0  0  0  0  0  0  0  0
   -0.8440   -1.1780    0.0590 C   0  0  0  0  0  0  0  0  0  0  0  0
    0.0510   -1.9700    0.5710 C   0  0  0  0  0  0  0  0  0  0  0  0
   -0.3610   -3.2680    0.9790 O   0  0  0  0  0  0  0  0  0  0  0  0
    1.4460   -1.5520    0.7310 C   0  0  0  0  0  0  0  0  0  0  0  0
    1.9400   -0.4350   -0.1020 C   0  0  1  0  0  0  0  0  0  0  0  0
    2.9830    0.4040    0.6030 C   0  0  0  0  0  0  0  0  0  0  0  0
    4.2070   -0.2840    1.0510 C   0  0  0  0  0  0  0  0  0  0  0  0
    5.0580    0.7630    1.7370 C   0  0  0  0  0  0  0  0  0  0  0  0
    5.9820    1.5160    1.0450 C   0  0  0  0  0  0  0  0  0  0  0  0
    6.7590    2.4780    1.6970 C   0  0  0  0  0  0  0  0  0  0  0  0
    6.5980    2.6760    3.0570 C   0  0  0  0  0  0  0  0  0  0  0  0
    7.3500    3.6250    3.7600 O   0  0  0  0  0  0  0  0  0  0  0  0
    5.6900    1.9400    3.7550 C   0  0  0  0  0  0  0  0  0  0  0  0
    4.9220    0.9830    3.0880 C   0  0  0  0  0  0  0  0  0  0  0  0
    2.3450   -0.7360   -1.4910 C   0  0  2  0  0  0  0  0  0  0  0  0
    1.2130   -1.2760   -2.3450 C   0  0  0  0  0  0  0  0  0  0  0  0
    1.9950   -1.6370   -3.6260 C   0  0  0  0  0  0  0  0  0  0  0  0
    3.0670   -2.5230   -2.9670 C   0  0  0  0  0  0  0  0  0  0  0  0
    3.4420   -1.6990   -1.7140 C   0  0  0  0  0  0  0  0  0  0  0  0
    0.8470    0.5240   -0.2290 O   0  0  0  0  0  0  0  0  0  0  0  0
   -0.4480    0.1500   -0.3740 C   0  0  0  0  0  0  0  0  0  0  0  0
   -1.3610    0.8680   -0.8620 O   0  0  0  0  0  0  0  0  0  0  0  0
   -4.3790    0.2120    0.1580 C   0  0  0  0  0  0  0  0  0  0  0  0
   -4.3170    0.0370    1.6290 C   0  0  1  0  0  0  0  0  0  0  0  0
   -2.9500    0.2730    2.2180 C   0  0  0  0  0  0  0  0  0  0  0  0
   -5.2680    1.0300    2.3090 C   0  0  0  0  0  0  0  0  0  0  0  0
   -4.8390   -1.3360    2.0360 C   0  0  0  0  0  0  0  0  0  0  0  0
   -5.2680    1.1810   -0.3410 C   0  0  0  0  0  0  0  0  0  0  0  0
   -5.4040    1.3910   -1.6730 C   0  0  0  0  0  0  0  0  0  0  0  0
   -6.3080    2.3760   -2.1630 N   0  0  0  0  0  0  0  0  0  0  0  0
  1  2  1  0
  2  3  2  0
  2 34  1  0
  3  4  1  0
  4  5  1  0
  4 28  2  0
  5  6  1  0
  6  7  2  0
  6 26  1  0
  7  8  1  0
  7  9  1  0
  9 10  1  0
 10 11  1  1
 10 20  1  0
 10 25  1  0
 11 12  1  0
 12 13  1  0
 13 14  2  0
 13 19  1  0
 14 15  1  0
 15 16  2  0
 16 17  1  0
 16 18  1  0
 18 19  2  0
 20 21  1  6
 20 24  1  0
 21 22  1  0
 22 23  1  0
 23 24  1  0
 25 26  1  0
 26 27  2  0
 28 29  1  0
 28 33  1  0
 29 30  1  1
 29 31  1  0
 29 32  1  0
 33 34  2  0
 34 35  1  0
M  END
