
     RDKit          3D

 34 38  0  0  0  0  0  0  0  0999 V2000
    0.1570   -2.6660    0.2550 C   0  0  0  0  0  0  0  0  0  0  0  0
   -0.5690   -1.3750    0.1690 C   0  0  0  0  0  0  0  0  0  0  0  0
   -1.9670   -1.3780    0.0990 C   0  0  0  0  0  0  0  0  0  0  0  0
   -2.7000   -0.2160    0.0170 C   0  0  0  0  0  0  0  0  0  0  0  0
   -4.0840   -0.2230   -0.0530 C   0  0  0  0  0  0  0  0  0  0  0  0
   -4.8330    0.9120   -0.1360 C   0  0  0  0  0  0  0  0  0  0  0  0
   -6.2830    0.9220   -0.2040 C   0  0  0  0  0  0  0  0  0  0  0  0
   -7.0800    0.8820    0.9310 C   0  0  0  0  0  0  0  0  0  0  0  0
   -6.2750    0.8250    2.4940 Cl  0  0  0  0  0  0  0  0  0  0  0  0
   -8.4550    0.8880    0.8210 C   0  0  0  0  0  0  0  0  0  0  0  0
   -9.0880    0.9330   -0.4060 C   0  0  0  0  0  0  0  0  0  0  0  0
   -8.2880    0.9720   -1.5290 C   0  0  0  0  0  0  0  0  0  0  0  0
   -6.8910    0.9660   -1.4360 C   0  0  0  0  0  0  0  0  0  0  0  0
   -6.0380    1.0040   -2.6500 C   0  0  2  0  0  0  0  0  0  0  0  0
   -5.3470   -0.2110   -2.7520 F   0  0  0  0  0  0  0  0  0  0  0  0
   -5.1400    2.0310   -2.6660 F   0  0  0  0  0  0  0  0  0  0  0  0
   -4.1640    2.1160   -0.1500 C   0  0  0  0  0  0  0  0  0  0  0  0
   -2.7860    2.1920   -0.0830 C   0  0  0  0  0  0  0  0  0  0  0  0
   -2.0600    1.0010    0.0010 C   0  0  0  0  0  0  0  0  0  0  0  0
   -0.6850    1.0050    0.0700 C   0  0  0  0  0  0  0  0  0  0  0  0
    0.1960    2.0140    0.0740 N   0  0  0  0  0  0  0  0  0  0  0  0
    1.4410    1.5360    0.1560 N   0  0  0  0  0  0  0  0  0  0  0  0
    1.4240    0.1990    0.2070 C   0  0  0  0  0  0  0  0  0  0  0  0
    2.5330   -0.6740    0.2980 N   0  0  0  0  0  0  0  0  0  0  0  0
    3.8900   -0.1870    0.3470 C   0  0  0  0  0  0  0  0  0  0  0  0
    4.1250    1.0360    0.3090 O   0  0  0  0  0  0  0  0  0  0  0  0
    4.9950   -1.1940    0.4450 C   0  0  0  0  0  0  0  0  0  0  0  0
    6.2830   -0.5430    0.4810 N   0  0  0  0  0  0  0  0  0  0  0  0
    6.5750    0.0630   -0.7820 C   0  0  0  0  0  0  0  0  0  0  0  0
    8.0710    0.2930   -0.9050 C   0  0  0  0  0  0  0  0  0  0  0  0
    8.5700    0.4500    0.3940 O   0  0  0  0  0  0  0  0  0  0  0  0
    8.6300   -0.8310    0.9620 C   0  0  0  0  0  0  0  0  0  0  0  0
    7.2880   -1.5250    0.8710 C   0  0  0  0  0  0  0  0  0  0  0  0
    0.0790   -0.1670    0.1540 C   0  0  0  0  0  0  0  0  0  0  0  0
  1  2  1  0
  2  3  2  0
  2 34  1  0
  3  4  1  0
  4  5  2  0
  4 19  1  0
  5  6  1  0
  6  7  1  0
  6 17  2  0
  7  8  2  0
  7 13  1  0
  8  9  1  0
  8 10  1  0
 10 11  2  0
 11 12  1  0
 12 13  2  0
 13 14  1  0
 14 15  1  1
 14 16  1  0
 17 18  1  0
 18 19  2  0
 19 20  1  0
 20 21  2  0
 20 34  1  0
 21 22  1  0
 22 23  1  0
 23 24  1  0
 23 34  2  0
 24 25  1  0
 25 26  2  0
 25 27  1  0
 27 28  1  0
 28 29  1  0
 28 33  1  0
 29 30  1  0
 30 31  1  0
 31 32  1  0
 32 33  1  0
M  END
