
     RDKit          3D

  9  9  0  0  0  0  0  0  0  0999 V2000
   -3.2550   -0.3880   -0.0150 C   0  0  0  0  0  0  0  0  0  0  0  0
   -2.3140    0.6950   -0.1360 N   0  0  0  0  0  0  0  0  0  0  0  0
   -0.9170    0.4400   -0.0800 C   0  0  0  0  0  0  0  0  0  0  0  0
    0.0180    1.4460   -0.1910 C   0  0  0  0  0  0  0  0  0  0  0  0
    1.3710    1.1820   -0.1340 C   0  0  0  0  0  0  0  0  0  0  0  0
    1.8410   -0.0980    0.0360 C   0  0  0  0  0  0  0  0  0  0  0  0
    3.2510   -0.3860    0.0970 N   0  0  0  0  0  0  0  0  0  0  0  0
    0.9170   -1.1160    0.1490 C   0  0  0  0  0  0  0  0  0  0  0  0
   -0.4540   -0.8450    0.0910 C   0  0  0  0  0  0  0  0  0  0  0  0
  1  2  1  0
  2  3  1  0
  3  4  2  0
  3  9  1  0
  4  5  1  0
  5  6  2  0
  6  7  1  0
  6  8  1  0
  8  9  2  0
M  CHG  1   7   1
M  END
