
     RDKit          3D

  9  9  0  0  0  0  0  0  0  0999 V2000
   -1.9550   -1.4480    0.5630 C   0  0  0  0  0  0  0  0  0  0  0  0
   -0.7090   -0.7950    0.9810 N   0  0  0  0  0  0  0  0  0  0  0  0
   -0.2740    0.4050    0.3250 C   0  0  0  0  0  0  0  0  0  0  0  0
   -0.9040    1.5860    0.3240 C   0  0  0  0  0  0  0  0  0  0  0  0
   -0.1250    2.5490   -0.4640 C   0  0  0  0  0  0  0  0  0  0  0  0
    0.9640    1.9580   -0.9340 C   0  0  0  0  0  0  0  0  0  0  0  0
    0.9400    0.5720   -0.4680 C   0  0  0  0  0  0  0  0  0  0  0  0
    1.8410   -0.3670   -0.7100 C   0  0  0  0  0  0  0  0  0  0  0  0
    1.6680   -1.6740   -0.1780 N   0  0  0  0  0  0  0  0  0  0  0  0
  1  2  1  0
  2  3  1  0
  3  4  2  0
  3  7  1  0
  4  5  1  0
  5  6  2  0
  6  7  1  0
  7  8  2  3
  8  9  1  0
M  END
