
     RDKit          3D

  9  9  0  0  0  0  0  0  0  0999 V2000
    2.0720   -1.0470   -1.1620 C   0  0  0  0  0  0  0  0  0  0  0  0
    1.4780    0.0760   -0.8420 C   0  0  0  0  0  0  0  0  0  0  0  0
    2.0500    1.3340   -1.1850 N   0  0  0  0  0  0  0  0  0  0  0  0
    0.2200    0.0680   -0.1270 C   0  0  0  0  0  0  0  0  0  0  0  0
   -0.3360    1.2550    0.1710 C   0  0  0  0  0  0  0  0  0  0  0  0
   -1.5980    1.1990    0.8890 C   0  0  0  0  0  0  0  0  0  0  0  0
   -2.2070    0.0910    1.2510 C   0  0  0  0  0  0  0  0  0  0  0  0
   -1.6210   -1.2150    0.9380 C   0  0  0  0  0  0  0  0  0  0  0  0
   -0.3850   -1.1470    0.2350 N   0  0  0  0  0  0  0  0  0  0  0  0
  1  2  2  0
  2  3  1  0
  2  4  1  0
  4  5  2  0
  4  9  1  0
  5  6  1  0
  6  7  2  0
  7  8  1  0
  8  9  1  0
M  END
