
     RDKit          3D

  9  9  0  0  0  0  0  0  0  0999 V2000
   -2.8610    0.2960    0.5450 C   0  0  0  0  0  0  0  0  0  0  0  0
   -2.0490   -0.4270   -0.3900 N   0  0  0  0  0  0  0  0  0  0  0  0
   -0.6700   -0.2160   -0.2330 C   0  0  0  0  0  0  0  0  0  0  0  0
    0.2080   -1.0470   -0.9010 C   0  0  0  0  0  0  0  0  0  0  0  0
    1.5830   -0.9020   -0.7970 C   0  0  0  0  0  0  0  0  0  0  0  0
    2.1220    0.0940   -0.0090 C   0  0  0  0  0  0  0  0  0  0  0  0
    3.5260    0.2730    0.1230 N   0  0  0  0  0  0  0  0  0  0  0  0
    1.2460    0.9200    0.6550 C   0  0  0  0  0  0  0  0  0  0  0  0
   -0.1320    0.7760    0.5520 C   0  0  0  0  0  0  0  0  0  0  0  0
  1  2  1  0
  2  3  1  0
  3  4  2  0
  3  9  1  0
  4  5  1  0
  5  6  2  0
  6  7  1  0
  6  8  1  0
  8  9  2  0
M  CHG  1   2   1
M  END
