
     RDKit          3D

  9  9  0  0  0  0  0  0  0  0999 V2000
   -2.6770   -1.4930   -0.3460 N   0  0  0  0  0  0  0  0  0  0  0  0
   -1.2830   -1.3020   -0.3170 C   0  0  0  0  0  0  0  0  0  0  0  0
   -0.8190   -0.0840   -0.0610 C   0  0  0  0  0  0  0  0  0  0  0  0
   -1.5680    1.1350    0.2050 C   0  0  0  0  0  0  0  0  0  0  0  0
   -0.6730    2.1130    0.4070 C   0  0  0  0  0  0  0  0  0  0  0  0
    0.6860    1.5660    0.2790 C   0  0  0  0  0  0  0  0  0  0  0  0
    0.5930    0.2670    0.0030 C   0  0  0  0  0  0  0  0  0  0  0  0
    1.7250   -0.6750   -0.2070 C   0  0  0  0  0  0  0  0  0  0  0  0
    3.0050   -0.0190   -0.0770 N   0  0  0  0  0  0  0  0  0  0  0  0
  1  2  1  0
  2  3  2  3
  3  4  1  0
  3  7  1  0
  4  5  2  0
  5  6  1  0
  6  7  2  0
  7  8  1  0
  8  9  1  0
M  END
