
     RDKit          3D

  9  9  0  0  0  0  0  0  0  0999 V2000
   -0.8660    2.0990   -0.0670 C   0  0  0  0  0  0  0  0  0  0  0  0
   -0.7310    0.5860   -0.1250 C   0  0  0  0  0  0  0  0  0  0  0  0
   -1.7860   -0.0780   -0.4030 C   0  0  0  0  0  0  0  0  0  0  0  0
   -1.9900   -1.4820   -0.5320 N   0  0  0  0  0  0  0  0  0  0  0  0
    0.5780    0.0690    0.1430 C   0  0  0  0  0  0  0  0  0  0  0  0
    1.7310    0.8340    0.4450 C   0  0  0  0  0  0  0  0  0  0  0  0
    2.7920   -0.0110    0.6410 C   0  0  0  0  0  0  0  0  0  0  0  0
    2.2750   -1.2650    0.4570 C   0  0  0  0  0  0  0  0  0  0  0  0
    0.9450   -1.2070    0.1590 N   0  0  0  0  0  0  0  0  0  0  0  0
  1  2  1  0
  2  3  2  3
  2  5  1  0
  3  4  1  0
  5  6  2  0
  5  9  1  0
  6  7  1  0
  7  8  2  0
  8  9  1  0
M  CHG  1   4   1
M  END
