
     RDKit          3D

 31 33  0  0  0  0  0  0  0  0999 V2000
   -5.7620    2.2690   -0.1870 C   0  0  0  0  0  0  0  0  0  0  0  0
   -4.5160    1.4940    0.0450 C   0  0  0  0  0  0  0  0  0  0  0  0
   -4.1410    0.4850   -0.8070 C   0  0  0  0  0  0  0  0  0  0  0  0
   -2.9760   -0.2540   -0.6070 C   0  0  0  0  0  0  0  0  0  0  0  0
   -2.7060   -1.2300   -1.5010 N   0  0  0  0  0  0  0  0  0  0  0  0
   -1.6040   -1.9870   -1.3650 C   0  0  0  0  0  0  0  0  0  0  0  0
   -1.2930   -3.0010   -2.2560 C   0  0  0  0  0  0  0  0  0  0  0  0
   -2.0350   -3.2500   -3.2380 O   0  0  0  0  0  0  0  0  0  0  0  0
   -0.1740   -3.7190   -2.0520 N   0  0  0  0  0  0  0  0  0  0  0  0
    0.6220   -3.4450   -0.9900 C   0  0  0  0  0  0  0  0  0  0  0  0
    1.6680   -4.1510   -0.8390 O   0  0  0  0  0  0  0  0  0  0  0  0
    0.3550   -2.4690   -0.1030 N   0  0  0  0  0  0  0  0  0  0  0  0
   -0.7560   -1.6810   -0.2190 C   0  0  0  0  0  0  0  0  0  0  0  0
   -1.0250   -0.7050    0.6750 N   0  0  0  0  0  0  0  0  0  0  0  0
   -0.1590   -0.4430    1.7770 C   0  0  0  0  0  0  0  0  0  0  0  0
    0.9000    0.5620    1.6820 C   0  0  2  0  0  0  0  0  0  0  0  0
    0.5790    1.8700    1.4210 O   0  0  0  0  0  0  0  0  0  0  0  0
    2.1980    0.2100    1.0270 C   0  0  2  0  0  0  0  0  0  0  0  0
    3.2620    0.9330    1.6890 O   0  0  0  0  0  0  0  0  0  0  0  0
    2.3280    0.7920   -0.3940 C   0  0  2  0  0  0  0  0  0  0  0  0
    1.4140    0.2500   -1.2130 O   0  0  0  0  0  0  0  0  0  0  0  0
    3.7350    0.3820   -0.8470 C   0  0  0  0  0  0  0  0  0  0  0  0
    3.7730   -1.0080   -0.7870 O   0  0  0  0  0  0  0  0  0  0  0  0
    5.3380   -1.4740   -1.2910 P   0  0  2  0  0  0  0  0  0  0  0  0
    5.2900   -2.8640   -1.8490 O   0  0  0  0  0  0  0  0  0  0  0  0
    6.3780   -1.4890    0.0530 O   0  0  0  0  0  0  0  0  0  0  0  0
    5.8580   -0.3410   -2.4280 O   0  0  0  0  0  0  0  0  0  0  0  0
   -2.1640    0.0250    0.4760 C   0  0  0  0  0  0  0  0  0  0  0  0
   -2.5220    1.0390    1.3490 C   0  0  0  0  0  0  0  0  0  0  0  0
   -3.6900    1.7520    1.1160 C   0  0  0  0  0  0  0  0  0  0  0  0
   -4.0180    2.8320    2.0960 C   0  0  0  0  0  0  0  0  0  0  0  0
  1  2  1  0
  2  3  2  0
  2 30  1  0
  3  4  1  0
  4  5  1  0
  4 28  2  0
  5  6  2  0
  6  7  1  0
  6 13  1  0
  7  8  2  0
  7  9  1  0
  9 10  1  0
 10 11  2  0
 10 12  1  0
 12 13  2  0
 13 14  1  0
 14 15  1  0
 14 28  1  0
 15 16  1  0
 16 17  1  6
 16 18  1  0
 18 19  1  1
 18 20  1  0
 20 21  1  6
 20 22  1  0
 22 23  1  0
 23 24  1  0
 24 25  2  0
 24 26  1  1
 24 27  1  0
 28 29  1  0
 29 30  2  0
 30 31  1  0
M  END
