
     RDKit          3D

 31 33  0  0  0  0  0  0  0  0999 V2000
    6.3630    3.1160   -1.1520 O   0  0  0  0  0  0  0  0  0  0  0  0
    5.9220    2.1280   -1.7780 C   0  0  0  0  0  0  0  0  0  0  0  0
    6.4910    1.7210   -2.9700 O   0  0  0  0  0  0  0  0  0  0  0  0
    4.7820    1.3980   -1.2310 C   0  0  0  0  0  0  0  0  0  0  0  0
    4.1470    1.7310   -0.0580 C   0  0  0  0  0  0  0  0  0  0  0  0
    3.0580    1.0060    0.4340 C   0  0  0  0  0  0  0  0  0  0  0  0
    2.5900   -0.0680   -0.2480 C   0  0  0  0  0  0  0  0  0  0  0  0
    1.4790   -0.8210    0.1570 N   0  0  0  0  0  0  0  0  0  0  0  0
    0.4560   -0.3550    0.9960 C   0  0  0  0  0  0  0  0  0  0  0  0
    0.4660    0.8050    1.4490 O   0  0  0  0  0  0  0  0  0  0  0  0
   -0.6710   -1.2470    1.3560 C   0  0  2  0  0  0  0  0  0  0  0  0
   -0.9380   -2.3380    0.3860 C   0  0  0  0  0  0  0  0  0  0  0  0
   -2.1130   -3.1560    0.8530 C   0  0  0  0  0  0  0  0  0  0  0  0
   -1.8360   -3.8880    2.5270 P   0  0  0  0  0  0  0  0  0  0  0  0
   -2.8950   -5.1790    2.8740 O   0  0  0  0  0  0  0  0  0  0  0  0
   -0.1980   -4.2760    2.8450 O   0  0  0  0  0  0  0  0  0  0  0  0
   -1.8000   -0.4600    1.7660 N   0  0  0  0  0  0  0  0  0  0  0  0
   -2.3350    0.5030    0.8560 C   0  0  0  0  0  0  0  0  0  0  0  0
   -2.3260    0.3760   -0.4400 N   0  0  0  0  0  0  0  0  0  0  0  0
   -2.9360    1.5110   -1.0520 C   0  0  0  0  0  0  0  0  0  0  0  0
   -3.1760    1.8740   -2.3330 N   0  0  0  0  0  0  0  0  0  0  0  0
   -3.7810    3.0400   -2.5870 C   0  0  0  0  0  0  0  0  0  0  0  0
   -3.9990    3.3670   -3.7910 O   0  0  0  0  0  0  0  0  0  0  0  0
   -4.1750    3.8900   -1.6520 O   0  0  0  0  0  0  0  0  0  0  0  0
   -3.9740    3.6000   -0.4150 C   0  0  0  0  0  0  0  0  0  0  0  0
   -4.3190    4.3560    0.5210 O   0  0  0  0  0  0  0  0  0  0  0  0
   -3.3520    2.4070   -0.0750 C   0  0  0  0  0  0  0  0  0  0  0  0
   -2.9710    1.7720    1.1890 C   0  0  0  0  0  0  0  0  0  0  0  0
   -3.1540    2.2280    2.3530 O   0  0  0  0  0  0  0  0  0  0  0  0
    3.2040   -0.4470   -1.4460 C   0  0  0  0  0  0  0  0  0  0  0  0
    4.2660    0.2890   -1.8930 C   0  0  0  0  0  0  0  0  0  0  0  0
  1  2  2  0
  2  3  1  0
  2  4  1  0
  4  5  2  0
  4 31  1  0
  5  6  1  0
  6  7  2  0
  7  8  1  0
  7 30  1  0
  8  9  1  0
  9 10  2  0
  9 11  1  0
 11 12  1  6
 11 17  1  0
 12 13  1  0
 13 14  1  0
 14 15  1  0
 14 16  1  0
 17 18  1  0
 18 19  2  0
 18 28  1  0
 19 20  1  0
 20 21  1  0
 20 27  2  0
 21 22  1  0
 22 23  2  0
 22 24  1  0
 24 25  1  0
 25 26  2  0
 25 27  1  0
 27 28  1  0
 28 29  2  0
 30 31  2  0
M  END
