
     RDKit          3D

 31 33  0  0  0  0  0  0  0  0999 V2000
   -3.0470    2.5980    2.2670 C   0  0  0  0  0  0  0  0  0  0  0  0
   -3.0750    2.4540    0.7550 C   0  0  1  0  0  0  0  0  0  0  0  0
   -2.0650    1.4210    0.4090 C   0  0  0  0  0  0  0  0  0  0  0  0
   -0.8670    1.5680    0.6480 O   0  0  0  0  0  0  0  0  0  0  0  0
   -2.7390    0.3400   -0.1990 N   0  0  0  0  0  0  0  0  0  0  0  0
   -2.5940   -0.9590   -0.7940 C   0  0  0  0  0  0  0  0  0  0  0  0
   -1.3570   -1.6820   -0.9610 C   0  0  0  0  0  0  0  0  0  0  0  0
   -1.3330   -2.8390   -1.5060 O   0  0  0  0  0  0  0  0  0  0  0  0
   -0.0560   -1.2580   -0.5750 N   0  0  0  0  0  0  0  0  0  0  0  0
    1.1140   -2.1400   -0.8280 C   0  0  0  0  0  0  0  0  0  0  0  0
    2.3640   -1.4550   -0.3250 C   0  0  0  0  0  0  0  0  0  0  0  0
    3.4150   -2.3280   -0.5900 O   0  0  0  0  0  0  0  0  0  0  0  0
    4.9400   -1.6930   -0.0730 P   0  0  0  0  0  0  0  0  0  0  0  0
    6.0190   -1.7280   -1.4560 O   0  0  0  0  0  0  0  0  0  0  0  0
    4.7080    0.0240    0.5250 C   0  0  1  0  0  0  0  0  0  0  0  0
    5.3890    0.1430    1.8790 C   0  0  0  0  0  0  0  0  0  0  0  0
    5.7070    1.6020    2.0890 C   0  0  0  0  0  0  0  0  0  0  0  0
    4.7710    2.5010    1.3120 C   0  0  0  0  0  0  0  0  0  0  0  0
    4.8910    2.3150   -0.0600 O   0  0  0  0  0  0  0  0  0  0  0  0
    5.3550    1.0450   -0.3830 C   0  0  0  0  0  0  0  0  0  0  0  0
   -3.8060   -1.4220   -1.1850 C   0  0  0  0  0  0  0  0  0  0  0  0
   -4.1050   -2.6790   -1.8230 C   0  0  0  0  0  0  0  0  0  0  0  0
   -5.3600   -3.1850   -2.2400 N   0  0  0  0  0  0  0  0  0  0  0  0
   -3.1780   -3.5260   -2.0930 O   0  0  0  0  0  0  0  0  0  0  0  0
   -4.7850   -0.4330   -0.8550 N   0  0  0  0  0  0  0  0  0  0  0  0
   -6.1760   -0.4480   -1.0590 C   0  0  0  0  0  0  0  0  0  0  0  0
   -6.8520    0.5860   -0.6640 O   0  0  0  0  0  0  0  0  0  0  0  0
   -6.9600   -1.3980   -1.6210 O   0  0  0  0  0  0  0  0  0  0  0  0
   -4.1110    0.6940   -0.2260 C   0  0  0  0  0  0  0  0  0  0  0  0
   -4.3350    1.8790    0.3040 C   0  0  0  0  0  0  0  0  0  0  0  0
   -5.6090    2.4970    0.4170 O   0  0  0  0  0  0  0  0  0  0  0  0
  2  1  1  1
  2  3  1  0
  2 30  1  0
  3  4  2  0
  3  5  1  0
  5  6  1  0
  5 29  1  0
  6  7  1  0
  6 21  2  0
  7  8  2  0
  7  9  1  0
  9 10  1  0
 10 11  1  0
 11 12  1  0
 12 13  1  0
 13 14  1  0
 15 13  1  6
 15 16  1  0
 15 20  1  0
 16 17  1  0
 17 18  1  0
 18 19  1  0
 19 20  1  0
 21 22  1  0
 21 25  1  0
 22 23  1  0
 22 24  2  0
 25 26  1  0
 25 29  1  0
 26 27  2  0
 26 28  1  0
 29 30  2  0
 30 31  1  0
M  END
