
     RDKit          3D

 31 33  0  0  0  0  0  0  0  0999 V2000
    9.5010    2.0370    1.0410 N   0  0  0  0  0  0  0  0  0  0  0  0
    8.1000    1.8550    0.9840 C   0  0  0  0  0  0  0  0  0  0  0  0
    7.2840    2.6680    1.5320 O   0  0  0  0  0  0  0  0  0  0  0  0
    7.5150    0.7540    0.3120 N   0  0  0  0  0  0  0  0  0  0  0  0
    6.0910    0.5280    0.2280 C   0  0  1  0  0  0  0  0  0  0  0  0
    5.7110    0.1870   -1.1980 C   0  0  0  0  0  0  0  0  0  0  0  0
    4.7750   -0.7760   -0.6730 N   0  0  0  0  0  0  0  0  0  0  0  0
    3.5700   -1.3580   -1.1330 C   0  0  0  0  0  0  0  0  0  0  0  0
    3.1290   -1.0170   -2.2570 O   0  0  0  0  0  0  0  0  0  0  0  0
    2.8490   -2.2870   -0.4050 O   0  0  0  0  0  0  0  0  0  0  0  0
    1.6370   -2.8660   -0.8780 C   0  0  0  0  0  0  0  0  0  0  0  0
    0.6420   -1.9140   -1.1220 O   0  0  0  0  0  0  0  0  0  0  0  0
    0.1550   -1.0860   -0.1380 C   0  0  0  0  0  0  0  0  0  0  0  0
    0.6060   -1.1770    1.0120 O   0  0  0  0  0  0  0  0  0  0  0  0
   -0.9080   -0.1130   -0.5290 C   0  0  2  0  0  0  0  0  0  0  0  0
   -1.2970    0.6860    0.6780 C   0  0  0  0  0  0  0  0  0  0  0  0
   -2.6130   -0.0280    1.0990 C   0  0  0  0  0  0  0  0  0  0  0  0
   -3.2500   -0.2540   -0.1540 N   0  0  0  0  0  0  0  0  0  0  0  0
   -4.4910   -0.0870   -0.7580 C   0  0  0  0  0  0  0  0  0  0  0  0
   -4.5190   -0.4260   -2.0130 O   0  0  0  0  0  0  0  0  0  0  0  0
   -5.7180    0.3980   -0.1950 C   0  0  0  0  0  0  0  0  0  0  0  0
   -6.7690    0.4830   -1.0190 C   0  0  0  0  0  0  0  0  0  0  0  0
   -8.0850    0.9530   -0.6150 C   0  0  1  0  0  0  0  0  0  0  0  0
   -8.3910    2.0920   -1.3830 O   0  0  0  0  0  0  0  0  0  0  0  0
   -9.3880   -0.3360   -1.0390 P   0  0  0  0  0  0  0  0  0  0  0  0
   -9.2790   -1.7870   -0.5350 O   0  0  0  0  0  0  0  0  0  0  0  0
   -8.1600    1.2730    0.7330 O   0  0  0  0  0  0  0  0  0  0  0  0
   -7.1370    1.2120    1.6260 C   0  0  0  0  0  0  0  0  0  0  0  0
   -5.9500    0.7870    1.1770 C   0  0  0  0  0  0  0  0  0  0  0  0
   -2.1220   -0.8950   -0.9380 C   0  0  0  0  0  0  0  0  0  0  0  0
    5.6300   -0.8620    0.5140 C   0  0  0  0  0  0  0  0  0  0  0  0
  1  2  1  0
  2  3  2  0
  2  4  1  0
  5  4  1  6
  5  6  1  0
  5 31  1  0
  6  7  1  0
  7  8  1  0
  7 31  1  0
  8  9  2  0
  8 10  1  0
 10 11  1  0
 11 12  1  0
 12 13  1  0
 13 14  2  0
 15 13  1  1
 15 16  1  0
 15 30  1  0
 16 17  1  0
 17 18  1  0
 18 19  1  0
 18 30  1  0
 19 20  2  0
 19 21  1  0
 21 22  2  0
 21 29  1  0
 22 23  1  0
 23 24  1  6
 23 25  1  0
 23 27  1  0
 25 26  2  0
 27 28  1  0
 28 29  2  0
M  END
