
     RDKit          3D

 31 33  0  0  0  0  0  0  0  0999 V2000
   -5.8440   -1.4830    1.0540 C   0  0  0  0  0  0  0  0  0  0  0  0
   -4.3600   -1.3560    0.9480 C   0  0  0  0  0  0  0  0  0  0  0  0
   -3.7310   -0.6330    0.0350 C   0  0  0  0  0  0  0  0  0  0  0  0
   -2.2520   -0.6120    0.0660 C   0  0  0  0  0  0  0  0  0  0  0  0
   -1.6740    0.0760   -0.8030 O   0  0  0  0  0  0  0  0  0  0  0  0
   -1.4640   -1.2940    0.9820 N   0  0  0  0  0  0  0  0  0  0  0  0
   -0.0590   -1.3080    1.0560 C   0  0  0  0  0  0  0  0  0  0  0  0
    0.8110   -0.6960    0.2960 C   0  0  0  0  0  0  0  0  0  0  0  0
    0.6900    0.1380   -0.7920 O   0  0  0  0  0  0  0  0  0  0  0  0
    1.9190    0.7780   -1.1450 C   0  0  0  0  0  0  0  0  0  0  0  0
    2.7840    0.5240    0.0720 C   0  0  2  0  0  0  0  0  0  0  0  0
    4.1990    0.5870   -0.0700 C   0  0  0  0  0  0  0  0  0  0  0  0
    4.8290    1.4900   -0.7180 O   0  0  0  0  0  0  0  0  0  0  0  0
    5.0490   -0.3900    0.5230 N   0  0  0  0  0  0  0  0  0  0  0  0
    6.4870   -0.2040    0.5730 C   0  0  1  0  0  0  0  0  0  0  0  0
    6.9560   -0.1460   -0.8410 C   0  0  0  0  0  0  0  0  0  0  0  0
    7.4980    0.9850   -1.0790 N   0  0  0  0  0  0  0  0  0  0  0  0
    7.4910    1.8180    0.0350 N   0  0  0  0  0  0  0  0  0  0  0  0
    6.8640    1.1090    1.0960 C   0  0  0  0  0  0  0  0  0  0  0  0
    6.6870    1.5620    2.2500 O   0  0  0  0  0  0  0  0  0  0  0  0
    4.5160   -1.5760    1.0860 C   0  0  0  0  0  0  0  0  0  0  0  0
    5.2310   -2.4640    1.6090 O   0  0  0  0  0  0  0  0  0  0  0  0
    3.0680   -1.7270    1.0290 C   0  0  0  0  0  0  0  0  0  0  0  0
    2.2910   -0.8130    0.5050 C   0  0  0  0  0  0  0  0  0  0  0  0
   -4.4920    0.1030   -0.9480 C   0  0  0  0  0  0  0  0  0  0  0  0
   -4.0360    0.8530   -1.9040 C   0  0  0  0  0  0  0  0  0  0  0  0
   -4.8910    1.5250   -2.8070 O   0  0  0  0  0  0  0  0  0  0  0  0
   -5.9110    0.0340   -0.9100 O   0  0  0  0  0  0  0  0  0  0  0  0
   -6.7570    1.5660   -1.0700 P   0  0  0  0  0  0  0  0  0  0  0  0
   -7.7850    1.8670    0.2930 O   0  0  0  0  0  0  0  0  0  0  0  0
   -7.6110    1.6360   -2.5640 O   0  0  0  0  0  0  0  0  0  0  0  0
  1  2  1  0
  2  3  2  3
  3  4  1  0
  3 25  1  0
  4  5  2  0
  4  6  1  0
  6  7  1  0
  7  8  2  3
  8  9  1  0
  8 24  1  0
  9 10  1  0
 11 10  1  6
 11 12  1  0
 11 24  1  0
 12 13  2  0
 12 14  1  0
 15 14  1  6
 14 21  1  0
 15 16  1  0
 15 19  1  0
 16 17  2  0
 17 18  1  0
 18 19  1  0
 19 20  2  0
 21 22  2  0
 21 23  1  0
 23 24  2  0
 25 26  2  3
 25 28  1  0
 26 27  1  0
 28 29  1  0
 29 30  1  0
 29 31  1  0
M  END
