
     RDKit          3D

 30 32  0  0  0  0  0  0  0  0999 V2000
   -5.9340   -0.1100    1.6380 O   0  0  0  0  0  0  0  0  0  0  0  0
   -5.2280   -1.0000    1.1100 C   0  0  0  0  0  0  0  0  0  0  0  0
   -5.7540   -2.2840    0.9860 O   0  0  0  0  0  0  0  0  0  0  0  0
   -3.9280   -0.6990    0.6530 N   0  0  0  0  0  0  0  0  0  0  0  0
   -3.0120   -1.6370    0.6950 C   0  0  0  0  0  0  0  0  0  0  0  0
   -3.3050   -2.8820    1.1720 O   0  0  0  0  0  0  0  0  0  0  0  0
   -2.2870   -3.8090    1.4440 C   0  0  0  0  0  0  0  0  0  0  0  0
   -1.3200   -3.7560    0.2570 C   0  0  0  0  0  0  0  0  0  0  0  0
   -0.7400   -2.4050    0.3080 N   0  0  0  0  0  0  0  0  0  0  0  0
   -1.6340   -1.3350    0.2170 C   0  0  0  0  0  0  0  0  0  0  0  0
   -1.3870   -0.1490   -0.2530 C   0  0  0  0  0  0  0  0  0  0  0  0
   -0.2170    0.4680   -0.7800 C   0  0  0  0  0  0  0  0  0  0  0  0
   -0.3250    1.7130   -1.2150 N   0  0  0  0  0  0  0  0  0  0  0  0
   -1.4850    2.4050   -1.1770 O   0  0  0  0  0  0  0  0  0  0  0  0
   -2.2120    2.8600   -2.2730 C   0  0  0  0  0  0  0  0  0  0  0  0
   -3.4410    3.5840   -1.7730 C   0  0  2  0  0  0  0  0  0  0  0  0
   -3.1170    4.7780   -0.8970 C   0  0  0  0  0  0  0  0  0  0  0  0
   -3.7220    3.4810   -0.2950 C   0  0  0  0  0  0  0  0  0  0  0  0
    1.1230   -0.1050   -0.8440 C   0  0  1  0  0  0  0  0  0  0  0  0
    1.9880    0.8350   -1.7170 C   0  0  0  0  0  0  0  0  0  0  0  0
    3.1070    0.1280   -2.0960 O   0  0  0  0  0  0  0  0  0  0  0  0
    4.1570    0.5200   -1.2780 C   0  0  0  0  0  0  0  0  0  0  0  0
    4.2390   -0.4480   -0.1250 C   0  0  1  0  0  0  0  0  0  0  0  0
    5.5080   -0.1260    0.6340 C   0  0  0  0  0  0  0  0  0  0  0  0
    5.7820   -1.2140    2.0880 P   0  0  0  0  0  0  0  0  0  0  0  0
    5.5120   -0.4220    3.5860 O   0  0  0  0  0  0  0  0  0  0  0  0
    4.9280   -2.7000    2.0130 O   0  0  0  0  0  0  0  0  0  0  0  0
    3.0930   -0.3770    0.7780 C   0  0  0  0  0  0  0  0  0  0  0  0
    3.4080   -0.5500    2.0060 O   0  0  0  0  0  0  0  0  0  0  0  0
    1.7430   -0.1510    0.4810 N   0  0  0  0  0  0  0  0  0  0  0  0
  1  2  2  0
  2  3  1  0
  2  4  1  0
  4  5  2  3
  5  6  1  0
  5 10  1  0
  6  7  1  0
  7  8  1  0
  8  9  1  0
  9 10  1  0
 10 11  2  3
 11 12  1  0
 12 13  2  3
 19 12  1  1
 13 14  1  0
 14 15  1  0
 16 15  1  1
 16 17  1  0
 16 18  1  0
 17 18  1  0
 19 20  1  0
 19 30  1  0
 20 21  1  0
 21 22  1  0
 22 23  1  0
 23 24  1  1
 23 28  1  0
 24 25  1  0
 25 26  1  0
 25 27  1  0
 28 29  2  0
 28 30  1  0
M  END
