
     RDKit          3D

 44 48  0  0  0  0  0  0  0  0999 V2000
   10.3010   -1.4820    2.6350 N   0  0  0  0  0  0  0  0  0  0  0  0
   10.0390   -2.2030    1.4540 C   0  0  0  0  0  0  0  0  0  0  0  0
   10.6270   -3.2790    1.1960 O   0  0  0  0  0  0  0  0  0  0  0  0
    9.0650   -1.6900    0.5120 C   0  0  0  0  0  0  0  0  0  0  0  0
    8.8120   -2.3910   -0.6400 C   0  0  0  0  0  0  0  0  0  0  0  0
    7.8800   -1.8850   -1.5250 C   0  0  0  0  0  0  0  0  0  0  0  0
    7.2380   -0.6960   -1.2220 C   0  0  0  0  0  0  0  0  0  0  0  0
    7.4810   -0.0050   -0.0970 N   0  0  0  0  0  0  0  0  0  0  0  0
    6.8400    1.2300    0.2580 C   0  0  2  0  0  0  0  0  0  0  0  0
    5.8410    0.9720    1.1550 O   0  0  0  0  0  0  0  0  0  0  0  0
    4.6950    1.6220    0.7870 C   0  0  2  0  0  0  0  0  0  0  0  0
    3.4490    0.8720    1.2080 C   0  0  0  0  0  0  0  0  0  0  0  0
    2.2940    1.5340    0.8340 O   0  0  0  0  0  0  0  0  0  0  0  0
    0.9000    0.7360    1.2830 P   0  0  1  0  0  0  0  0  0  0  0  0
    1.2360   -0.6690    1.7370 O   0  0  0  0  0  0  0  0  0  0  0  0
    0.2540    1.5460    2.6390 O   0  0  0  0  0  0  0  0  0  0  0  0
   -0.2480    0.6570    0.0580 O   0  0  0  0  0  0  0  0  0  0  0  0
   -1.4980    1.7470    0.2790 P   0  0  1  0  0  0  0  0  0  0  0  0
   -1.5920    2.2290    1.7210 O   0  0  0  0  0  0  0  0  0  0  0  0
   -1.1800    3.0940   -0.7170 O   0  0  0  0  0  0  0  0  0  0  0  0
   -2.9990    1.1340   -0.1520 O   0  0  0  0  0  0  0  0  0  0  0  0
   -2.8810   -0.0660   -0.8530 C   0  0  0  0  0  0  0  0  0  0  0  0
   -4.2380   -0.6120   -1.2380 C   0  0  1  0  0  0  0  0  0  0  0  0
   -5.0350   -0.8630   -0.1450 O   0  0  0  0  0  0  0  0  0  0  0  0
   -6.2910   -1.0970   -0.6680 C   0  0  1  0  0  0  0  0  0  0  0  0
   -7.3220   -0.8720    0.3130 N   0  0  0  0  0  0  0  0  0  0  0  0
   -7.2270   -0.1690    1.4530 C   0  0  0  0  0  0  0  0  0  0  0  0
   -8.4080   -0.1880    2.1060 N   0  0  0  0  0  0  0  0  0  0  0  0
   -9.2860   -0.9050    1.3940 C   0  0  0  0  0  0  0  0  0  0  0  0
  -10.6030   -1.2490    1.5720 C   0  0  0  0  0  0  0  0  0  0  0  0
  -11.3170   -0.8230    2.7100 N   0  0  0  0  0  0  0  0  0  0  0  0
  -11.2060   -2.0000    0.6440 N   0  0  0  0  0  0  0  0  0  0  0  0
  -10.5340   -2.4250   -0.4680 C   0  0  0  0  0  0  0  0  0  0  0  0
   -9.2490   -2.0850   -0.6350 N   0  0  0  0  0  0  0  0  0  0  0  0
   -8.5830   -1.3330    0.2590 C   0  0  0  0  0  0  0  0  0  0  0  0
   -6.4630   -0.1260   -1.8330 C   0  0  2  0  0  0  0  0  0  0  0  0
   -6.8780   -0.8460   -2.9500 O   0  0  0  0  0  0  0  0  0  0  0  0
   -5.0480    0.4010   -2.0090 C   0  0  2  0  0  0  0  0  0  0  0  0
   -4.6740    0.4710   -3.3420 O   0  0  0  0  0  0  0  0  0  0  0  0
    4.7770    1.7550   -0.7190 C   0  0  1  0  0  0  0  0  0  0  0  0
    4.0300    2.8110   -1.1980 O   0  0  0  0  0  0  0  0  0  0  0  0
    6.2820    1.9930   -0.8900 C   0  0  1  0  0  0  0  0  0  0  0  0
    6.4630    3.3720   -0.6540 O   0  0  0  0  0  0  0  0  0  0  0  0
    8.3910   -0.5050    0.7610 C   0  0  0  0  0  0  0  0  0  0  0  0
  1  2  1  0
  2  3  2  0
  2  4  1  0
  4  5  2  0
  4 44  1  0
  5  6  1  0
  6  7  2  0
  7  8  1  0
  9  8  1  6
  8 44  2  0
  9 10  1  0
  9 42  1  0
 10 11  1  0
 11 12  1  6
 11 40  1  0
 12 13  1  0
 13 14  1  0
 14 15  2  0
 14 16  1  1
 14 17  1  0
 17 18  1  0
 18 19  2  0
 18 20  1  6
 18 21  1  0
 21 22  1  0
 23 22  1  1
 23 24  1  0
 23 38  1  0
 24 25  1  0
 25 26  1  1
 25 36  1  0
 26 27  1  0
 26 35  1  0
 27 28  2  0
 28 29  1  0
 29 30  2  0
 29 35  1  0
 30 31  1  0
 30 32  1  0
 32 33  2  0
 33 34  1  0
 34 35  2  0
 36 37  1  6
 36 38  1  0
 38 39  1  6
 40 41  1  1
 40 42  1  0
 42 43  1  1
M  CHG  2   8   1  16  -1
M  END
