
     RDKit          3D

 43 47  0  0  0  0  0  0  0  0999 V2000
    0.9410   -3.6550   -3.3220 O   0  0  0  0  0  0  0  0  0  0  0  0
    0.8350   -3.1080   -2.1090 C   0  0  0  0  0  0  0  0  0  0  0  0
   -0.3150   -2.2750   -1.9800 N   0  0  0  0  0  0  0  0  0  0  0  0
   -0.4690   -0.8820   -1.8650 C   0  0  0  0  0  0  0  0  0  0  0  0
   -1.3510   -0.2710   -0.8510 C   0  0  1  0  0  0  0  0  0  0  0  0
   -1.5390    1.1880   -1.2940 C   0  0  0  0  0  0  0  0  0  0  0  0
   -2.5780    1.8860   -0.7710 O   0  0  0  0  0  0  0  0  0  0  0  0
   -2.9300    2.3290    0.4430 C   0  0  0  0  0  0  0  0  0  0  0  0
   -2.1900    2.1130    1.4130 O   0  0  0  0  0  0  0  0  0  0  0  0
   -4.1920    3.0820    0.6780 C   0  0  2  0  0  0  0  0  0  0  0  0
   -5.1450    2.3500    1.5800 C   0  0  0  0  0  0  0  0  0  0  0  0
   -6.3930    2.6490    1.0330 O   0  0  0  0  0  0  0  0  0  0  0  0
   -6.1870    3.6080    0.0520 C   0  0  0  0  0  0  0  0  0  0  0  0
   -4.9330    3.2620   -0.4710 O   0  0  0  0  0  0  0  0  0  0  0  0
   -2.7650   -0.8350   -1.1680 C   0  0  0  0  0  0  0  0  0  0  0  0
   -2.9540   -2.1270   -0.8590 O   0  0  0  0  0  0  0  0  0  0  0  0
   -2.6630   -2.3860    0.4450 C   0  0  0  0  0  0  0  0  0  0  0  0
   -2.2590   -1.1350    1.1490 C   0  0  0  0  0  0  0  0  0  0  0  0
   -1.0970   -0.4580    0.5270 N   0  0  0  0  0  0  0  0  0  0  0  0
   -0.0230   -0.1320    1.3630 C   0  0  0  0  0  0  0  0  0  0  0  0
   -0.3630   -0.1870    2.6580 O   0  0  0  0  0  0  0  0  0  0  0  0
    1.3490    0.2520    1.3030 C   0  0  2  0  0  0  0  0  0  0  0  0
    2.1430    0.4950    0.1350 C   0  0  0  0  0  0  0  0  0  0  0  0
    2.1620    1.6830   -0.5810 C   0  0  0  0  0  0  0  0  0  0  0  0
    2.9480    1.9180   -1.6810 C   0  0  0  0  0  0  0  0  0  0  0  0
    3.7960    0.9430   -2.1490 C   0  0  0  0  0  0  0  0  0  0  0  0
    4.6090    1.1610   -3.2730 O   0  0  0  0  0  0  0  0  0  0  0  0
    5.8540    1.6730   -3.1230 O   0  0  0  0  0  0  0  0  0  0  0  0
    5.8380    2.6430   -2.2430 O   0  0  0  0  0  0  0  0  0  0  0  0
    6.6810    3.5990   -2.4970 O   0  0  0  0  0  0  0  0  0  0  0  0
    3.8200   -0.2570   -1.4770 C   0  0  0  0  0  0  0  0  0  0  0  0
    3.0260   -0.4690   -0.3810 C   0  0  0  0  0  0  0  0  0  0  0  0
    2.2240   -0.5220    2.2220 N   0  0  0  0  0  0  0  0  0  0  0  0
    3.3210    0.0210    2.8020 C   0  0  0  0  0  0  0  0  0  0  0  0
    3.9280   -0.9080    3.6170 C   0  0  0  0  0  0  0  0  0  0  0  0
    3.1660   -1.9750    3.4900 N   0  0  0  0  0  0  0  0  0  0  0  0
    2.0970   -1.7560    2.6230 C   0  0  0  0  0  0  0  0  0  0  0  0
    1.1230   -2.7640    2.3130 N   0  0  0  0  0  0  0  0  0  0  0  0
    1.0640   -3.7530    1.3130 C   0  0  0  0  0  0  0  0  0  0  0  0
    0.1040   -4.6510    1.4870 O   0  0  0  0  0  0  0  0  0  0  0  0
    1.8370   -4.0150    0.1190 C   0  0  0  0  0  0  0  0  0  0  0  0
    2.7100   -5.0280    0.3020 O   0  0  0  0  0  0  0  0  0  0  0  0
    1.8310   -3.4110   -1.1560 N   0  0  0  0  0  0  0  0  0  0  0  0
  1  2  2  0
  2  3  1  0
  2 43  1  0
  3  4  1  0
  4  5  1  0
  5  6  1  1
  5 15  1  0
  5 19  1  0
  6  7  1  0
  7  8  1  0
  8  9  2  0
 10  8  1  6
 10 11  1  0
 10 14  1  0
 11 12  1  0
 12 13  1  0
 13 14  1  0
 15 16  1  0
 16 17  1  0
 17 18  1  0
 18 19  1  0
 19 20  1  0
 20 21  2  0
 20 22  1  0
 22 23  1  6
 22 33  1  0
 23 24  2  0
 23 32  1  0
 24 25  1  0
 25 26  2  0
 26 27  1  0
 26 31  1  0
 27 28  1  0
 28 29  1  0
 29 30  1  0
 31 32  2  0
 33 34  1  0
 33 37  1  0
 34 35  2  0
 35 36  1  0
 36 37  2  0
 37 38  1  0
 38 39  1  0
 39 40  2  0
 39 41  1  0
 41 42  2  0
 41 43  1  0
M  END
