
     RDKit          3D

 44 48  0  0  0  0  0  0  0  0999 V2000
    2.7510    1.5980    1.9460 C   0  0  0  0  0  0  0  0  0  0  0  0
    2.5440    0.5440    0.8290 C   0  0  1  0  0  0  0  0  0  0  0  0
    3.9390   -0.0370    0.6690 C   0  0  0  0  0  0  0  0  0  0  0  0
    4.3810   -0.6900    1.8240 O   0  0  0  0  0  0  0  0  0  0  0  0
    5.6320   -1.2850    1.8680 C   0  0  0  0  0  0  0  0  0  0  0  0
    6.3540   -1.2180    0.8400 O   0  0  0  0  0  0  0  0  0  0  0  0
    6.1270   -1.9470    2.9830 O   0  0  0  0  0  0  0  0  0  0  0  0
    1.5200   -0.4030    1.3430 C   0  0  0  0  0  0  0  0  0  0  0  0
    1.5320   -1.8050    0.9510 C   0  0  0  0  0  0  0  0  0  0  0  0
    1.2730   -2.2510   -0.3620 N   0  0  0  0  0  0  0  0  0  0  0  0
    2.3360   -2.9550   -1.0120 C   0  0  0  0  0  0  0  0  0  0  0  0
    3.4440   -3.1780   -0.4510 O   0  0  0  0  0  0  0  0  0  0  0  0
    2.2200   -3.4440   -2.3080 O   0  0  0  0  0  0  0  0  0  0  0  0
    0.0610   -2.1160   -1.1300 C   0  0  2  0  0  0  0  0  0  0  0  0
   -0.2510   -0.7420   -1.6390 C   0  0  0  0  0  0  0  0  0  0  0  0
    0.7320   -0.4020   -2.7450 C   0  0  0  0  0  0  0  0  0  0  0  0
    0.7020    0.9330   -3.0000 O   0  0  0  0  0  0  0  0  0  0  0  0
   -0.2120    1.9240   -3.0300 C   0  0  0  0  0  0  0  0  0  0  0  0
   -0.3530    2.4800   -4.1860 O   0  0  0  0  0  0  0  0  0  0  0  0
   -1.0530    2.4390   -1.9260 C   0  0  0  0  0  0  0  0  0  0  0  0
   -0.5590    2.8920   -0.7860 C   0  0  0  0  0  0  0  0  0  0  0  0
    0.8170    3.1600   -0.5030 N   0  0  0  0  0  0  0  0  0  0  0  0
    1.9670    2.3960   -0.8040 C   0  0  0  0  0  0  0  0  0  0  0  0
    2.8370    3.0100   -1.5760 O   0  0  0  0  0  0  0  0  0  0  0  0
    2.2580    1.1290   -0.3870 O   0  0  0  0  0  0  0  0  0  0  0  0
   -1.6710    3.1150    0.1190 C   0  0  2  0  0  0  0  0  0  0  0  0
   -1.8100    2.0560    1.2070 C   0  0  0  0  0  0  0  0  0  0  0  0
   -0.9090    2.3240    2.0740 O   0  0  0  0  0  0  0  0  0  0  0  0
   -2.7030    1.1180    1.1510 O   0  0  0  0  0  0  0  0  0  0  0  0
   -3.2220   -0.0970    1.2150 C   0  0  1  0  0  0  0  0  0  0  0  0
   -4.0160   -0.4190    2.5200 C   0  0  0  0  0  0  0  0  0  0  0  0
   -4.3110   -0.2400    0.1830 C   0  0  0  0  0  0  0  0  0  0  0  0
   -4.5230   -1.6390    0.0110 O   0  0  0  0  0  0  0  0  0  0  0  0
   -3.4280   -2.3260   -0.5010 C   0  0  0  0  0  0  0  0  0  0  0  0
   -3.5310   -3.1150   -1.4830 O   0  0  0  0  0  0  0  0  0  0  0  0
   -2.1110   -2.1040    0.1510 N   0  0  0  0  0  0  0  0  0  0  0  0
   -1.0670   -2.8510   -0.4810 C   0  0  0  0  0  0  0  0  0  0  0  0
   -2.2150   -1.2250    1.1970 C   0  0  0  0  0  0  0  0  0  0  0  0
   -1.5770   -1.1130    2.3220 O   0  0  0  0  0  0  0  0  0  0  0  0
   -2.8520    3.0100   -0.7000 N   0  0  0  0  0  0  0  0  0  0  0  0
   -4.2120    3.1830   -0.6310 C   0  0  0  0  0  0  0  0  0  0  0  0
   -4.7230    2.7850   -1.8020 N   0  0  0  0  0  0  0  0  0  0  0  0
   -3.7130    2.3910   -2.5450 N   0  0  0  0  0  0  0  0  0  0  0  0
   -2.5250    2.5240   -1.8780 C   0  0  0  0  0  0  0  0  0  0  0  0
  2  1  1  1
  2  3  1  0
  2  8  1  0
  2 25  1  0
  3  4  1  0
  4  5  1  0
  5  6  2  0
  5  7  1  0
  8  9  1  0
  9 10  1  0
 10 11  1  0
 10 14  1  0
 11 12  2  0
 11 13  1  0
 14 15  1  0
 14 37  1  1
 15 16  1  0
 16 17  1  0
 17 18  1  0
 18 19  2  0
 18 20  1  0
 20 21  2  0
 20 44  1  0
 21 22  1  0
 21 26  1  0
 22 23  1  0
 23 24  2  0
 23 25  1  0
 26 27  1  0
 26 40  1  6
 27 28  2  0
 27 29  1  0
 29 30  1  0
 30 31  1  1
 30 32  1  0
 30 38  1  0
 32 33  1  0
 33 34  1  0
 34 35  2  0
 34 36  1  0
 36 37  1  0
 36 38  1  0
 38 39  2  0
 40 41  1  0
 40 44  1  0
 41 42  2  0
 42 43  1  0
 43 44  2  0
M  END
