
     RDKit          3D

 43 46  0  0  0  0  0  0  0  0999 V2000
    8.2400   -1.3250   -2.2880 C   0  0  0  0  0  0  0  0  0  0  0  0
    6.8820   -1.0020   -2.4130 O   0  0  0  0  0  0  0  0  0  0  0  0
    6.0520   -1.0580   -1.3000 C   0  0  0  0  0  0  0  0  0  0  0  0
    6.4860   -1.4270   -0.0700 C   0  0  0  0  0  0  0  0  0  0  0  0
    5.6050   -1.4600    0.9740 C   0  0  0  0  0  0  0  0  0  0  0  0
    4.2930   -1.1250    0.7780 C   0  0  0  0  0  0  0  0  0  0  0  0
    3.8270   -0.7450   -0.4550 C   0  0  0  0  0  0  0  0  0  0  0  0
    2.3520   -0.4440   -0.6210 C   0  0  0  0  0  0  0  0  0  0  0  0
    2.0880    0.8370   -0.1470 C   0  0  2  0  0  0  0  0  0  0  0  0
    2.3530    1.2780    1.2570 C   0  0  0  0  0  0  0  0  0  0  0  0
    2.1320    0.8770    2.3910 N   0  0  0  0  0  0  0  0  0  0  0  0
    1.4580   -0.2230    3.0090 C   0  0  0  0  0  0  0  0  0  0  0  0
    0.9690   -1.1620    2.4760 N   0  0  0  0  0  0  0  0  0  0  0  0
    0.5000   -2.1090    1.6010 C   0  0  0  0  0  0  0  0  0  0  0  0
    1.1340   -3.2560    1.6550 O   0  0  0  0  0  0  0  0  0  0  0  0
   -0.5220   -1.8450    0.7480 O   0  0  0  0  0  0  0  0  0  0  0  0
   -1.7400   -2.1870    0.3550 C   0  0  0  0  0  0  0  0  0  0  0  0
   -2.8570   -1.1540    0.2020 C   0  0  1  0  0  0  0  0  0  0  0  0
   -2.9950   -0.8340   -1.1660 O   0  0  0  0  0  0  0  0  0  0  0  0
   -4.1720   -0.2680   -1.3260 C   0  0  0  0  0  0  0  0  0  0  0  0
   -4.4580    0.7980   -2.3960 C   0  0  0  0  0  0  0  0  0  0  0  0
   -5.8050    0.9860   -2.1650 O   0  0  0  0  0  0  0  0  0  0  0  0
   -6.3090    2.0840   -1.7750 O   0  0  0  0  0  0  0  0  0  0  0  0
   -7.2660    1.6390   -0.8340 O   0  0  0  0  0  0  0  0  0  0  0  0
   -4.0340   -1.9310    0.5080 O   0  0  0  0  0  0  0  0  0  0  0  0
   -4.4320   -3.0460   -0.1460 C   0  0  0  0  0  0  0  0  0  0  0  0
   -3.8070   -3.4930   -1.1020 O   0  0  0  0  0  0  0  0  0  0  0  0
   -5.6020   -3.7550    0.2210 O   0  0  0  0  0  0  0  0  0  0  0  0
   -2.6730   -0.0440    1.1050 C   0  0  0  0  0  0  0  0  0  0  0  0
   -1.9840   -0.4000    2.1820 O   0  0  0  0  0  0  0  0  0  0  0  0
   -3.0300    1.3190    1.1840 N   0  0  0  0  0  0  0  0  0  0  0  0
   -3.6880    1.7110    2.4550 C   0  0  0  0  0  0  0  0  0  0  0  0
   -2.7100    2.3640    0.2340 C   0  0  0  0  0  0  0  0  0  0  0  0
   -3.5490    3.1370   -0.1410 O   0  0  0  0  0  0  0  0  0  0  0  0
   -1.2430    2.5150   -0.3030 C   0  0  0  0  0  0  0  0  0  0  0  0
   -0.4830    1.4520   -0.4510 C   0  0  0  0  0  0  0  0  0  0  0  0
    0.9130    1.6580   -0.2080 N   0  0  0  0  0  0  0  0  0  0  0  0
    1.4690    2.9450    0.1200 C   0  0  0  0  0  0  0  0  0  0  0  0
    2.7340    2.6750    0.6570 N   0  0  0  0  0  0  0  0  0  0  0  0
    0.6700    4.1180    0.2160 N   0  0  0  0  0  0  0  0  0  0  0  0
   -0.7470    3.8720   -0.0030 C   0  0  0  0  0  0  0  0  0  0  0  0
   -1.5090    4.8800    0.0680 O   0  0  0  0  0  0  0  0  0  0  0  0
    4.7090   -0.7080   -1.4930 C   0  0  0  0  0  0  0  0  0  0  0  0
  1  2  1  0
  2  3  1  0
  3  4  2  0
  3 43  1  0
  4  5  1  0
  5  6  2  0
  6  7  1  0
  7  8  1  0
  7 43  2  0
  9  8  1  1
  9 10  1  0
  9 37  1  0
 10 11  2  0
 10 39  1  0
 11 12  1  0
 12 13  2  0
 13 14  1  0
 14 15  2  0
 14 16  1  0
 16 17  1  0
 17 18  1  0
 18 19  1  6
 18 25  1  0
 18 29  1  0
 19 20  1  0
 20 21  1  0
 21 22  1  0
 22 23  1  0
 23 24  1  0
 25 26  1  0
 26 27  2  0
 26 28  1  0
 29 30  2  0
 29 31  1  0
 31 32  1  0
 31 33  1  0
 33 34  2  0
 33 35  1  0
 35 36  2  0
 35 41  1  0
 36 37  1  0
 37 38  1  0
 38 39  2  0
 38 40  1  0
 40 41  1  0
 41 42  2  0
M  END
