
     RDKit          3D

 43 46  0  0  0  0  0  0  0  0999 V2000
    3.2020    5.5970   -1.4280 C   0  0  0  0  0  0  0  0  0  0  0  0
    1.7250    5.7610   -1.0730 C   0  0  0  0  0  0  0  0  0  0  0  0
    1.2250    4.5690   -0.4800 O   0  0  0  0  0  0  0  0  0  0  0  0
    1.2400    3.3610   -1.1610 C   0  0  0  0  0  0  0  0  0  0  0  0
    1.7050    3.3410   -2.3130 O   0  0  0  0  0  0  0  0  0  0  0  0
    0.7590    2.1840   -0.6100 O   0  0  0  0  0  0  0  0  0  0  0  0
    0.8150    1.0140   -1.3730 C   0  0  0  0  0  0  0  0  0  0  0  0
    0.2640   -0.1860   -0.6600 C   0  0  1  0  0  0  0  0  0  0  0  0
    1.0430   -0.4310    0.6150 C   0  0  0  0  0  0  0  0  0  0  0  0
    2.5070   -0.6790    0.2640 C   0  0  0  0  0  0  0  0  0  0  0  0
    3.2560   -0.9340    1.4170 O   0  0  0  0  0  0  0  0  0  0  0  0
    3.2990    0.0680    2.3240 C   0  0  0  0  0  0  0  0  0  0  0  0
    4.0330    1.3180    1.9860 C   0  0  0  0  0  0  0  0  0  0  0  0
    5.3720    1.1730    1.7820 O   0  0  0  0  0  0  0  0  0  0  0  0
    6.0820    0.4600    0.8970 C   0  0  0  0  0  0  0  0  0  0  0  0
    5.5370   -0.2550    0.0310 O   0  0  0  0  0  0  0  0  0  0  0  0
    7.5120    0.4860    0.9050 N   0  0  0  0  0  0  0  0  0  0  0  0
    8.3810   -0.2150    0.0450 C   0  0  0  0  0  0  0  0  0  0  0  0
    8.3290   -1.7070    0.1030 C   0  0  0  0  0  0  0  0  0  0  0  0
    7.0920   -2.1870   -0.2170 O   0  0  0  0  0  0  0  0  0  0  0  0
   -1.2270   -0.0290   -0.3800 C   0  0  0  0  0  0  0  0  0  0  0  0
   -1.8560   -1.2470   -0.7910 N   0  0  0  0  0  0  0  0  0  0  0  0
   -3.2400   -1.5510   -0.8810 C   0  0  0  0  0  0  0  0  0  0  0  0
   -3.4440   -2.7710   -1.3100 O   0  0  0  0  0  0  0  0  0  0  0  0
   -4.3460   -0.7590   -0.5910 N   0  0  0  0  0  0  0  0  0  0  0  0
   -4.2680    0.5850   -0.0640 C   0  0  0  0  0  0  0  0  0  0  0  0
   -4.6200    1.4830   -1.2450 C   0  0  0  0  0  0  0  0  0  0  0  0
   -5.2980    0.7640   -2.2280 O   0  0  0  0  0  0  0  0  0  0  0  0
   -6.2700   -0.0840   -1.7570 C   0  0  0  0  0  0  0  0  0  0  0  0
   -5.7160   -1.1770   -0.8230 C   0  0  1  0  0  0  0  0  0  0  0  0
   -5.9450   -2.4820   -1.4650 C   0  0  0  0  0  0  0  0  0  0  0  0
   -5.7140   -3.6210   -0.7170 O   0  0  0  0  0  0  0  0  0  0  0  0
   -5.7480   -4.0180    0.6030 C   0  0  0  0  0  0  0  0  0  0  0  0
   -5.4750   -5.2470    1.1430 C   0  0  0  0  0  0  0  0  0  0  0  0
   -5.6350   -5.1760    2.4630 O   0  0  0  0  0  0  0  0  0  0  0  0
   -5.9980   -3.9510    2.7800 N   0  0  0  0  0  0  0  0  0  0  0  0
   -6.0850   -3.1940    1.6790 C   0  0  0  0  0  0  0  0  0  0  0  0
   -6.4530   -1.8090    1.6410 N   0  0  0  0  0  0  0  0  0  0  0  0
   -6.4980   -1.0180    0.4500 C   0  0  0  0  0  0  0  0  0  0  0  0
   -7.3230   -0.0680    0.5260 O   0  0  0  0  0  0  0  0  0  0  0  0
   -0.7820   -2.1520   -1.1040 C   0  0  0  0  0  0  0  0  0  0  0  0
   -0.8200   -3.4230   -1.0670 O   0  0  0  0  0  0  0  0  0  0  0  0
    0.3420   -1.3780   -1.4660 N   0  0  0  0  0  0  0  0  0  0  0  0
  1  2  1  0
  2  3  1  0
  3  4  1  0
  4  5  2  0
  4  6  1  0
  6  7  1  0
  8  7  1  6
  8  9  1  0
  8 21  1  0
  8 43  1  0
  9 10  1  0
 10 11  1  0
 11 12  1  0
 12 13  1  0
 13 14  1  0
 14 15  1  0
 15 16  2  0
 15 17  1  0
 17 18  1  0
 18 19  1  0
 19 20  1  0
 21 22  1  0
 22 23  1  0
 22 41  1  0
 23 24  2  0
 23 25  1  0
 25 26  1  0
 25 30  1  0
 26 27  1  0
 27 28  1  0
 28 29  1  0
 30 29  1  6
 30 31  1  0
 30 39  1  0
 31 32  1  0
 32 33  1  0
 33 34  2  0
 33 37  1  0
 34 35  1  0
 35 36  1  0
 36 37  2  0
 37 38  1  0
 38 39  1  0
 39 40  2  0
 41 42  2  0
 41 43  1  0
M  END
