
     RDKit          3D

 43 45  0  0  0  0  0  0  0  0999 V2000
   -1.3670   -2.1520   -1.6370 C   0  0  0  0  0  0  0  0  0  0  0  0
   -1.1820   -2.0680   -0.1580 C   0  0  1  0  0  0  0  0  0  0  0  0
   -2.4040   -2.3540    0.6590 C   0  0  0  0  0  0  0  0  0  0  0  0
   -3.7230   -2.0070    0.1100 C   0  0  0  0  0  0  0  0  0  0  0  0
   -4.0560   -0.5960    0.0740 N   0  0  0  0  0  0  0  0  0  0  0  0
   -5.4090   -0.2350    0.3440 C   0  0  0  0  0  0  0  0  0  0  0  0
   -5.7420    0.0880    1.7560 C   0  0  0  0  0  0  0  0  0  0  0  0
   -5.5050   -0.9900    2.7600 C   0  0  0  0  0  0  0  0  0  0  0  0
   -5.8930   -0.4880    4.0080 O   0  0  0  0  0  0  0  0  0  0  0  0
   -5.7210   -1.3700    4.9620 O   0  0  0  0  0  0  0  0  0  0  0  0
   -3.1410    0.4860   -0.2270 C   0  0  0  0  0  0  0  0  0  0  0  0
   -3.6840    1.5960   -0.3350 O   0  0  0  0  0  0  0  0  0  0  0  0
   -1.6800    0.4070   -0.4130 N   0  0  0  0  0  0  0  0  0  0  0  0
   -1.3400    1.5120   -1.2760 C   0  0  0  0  0  0  0  0  0  0  0  0
   -0.9570    2.7770   -0.5430 C   0  0  2  0  0  0  0  0  0  0  0  0
   -1.6710    3.9480   -0.9930 N   0  0  0  0  0  0  0  0  0  0  0  0
   -2.4970    4.6470   -0.0810 C   0  0  0  0  0  0  0  0  0  0  0  0
   -2.5830    4.2230    1.0960 O   0  0  0  0  0  0  0  0  0  0  0  0
   -3.2250    5.7800   -0.4080 O   0  0  0  0  0  0  0  0  0  0  0  0
    0.5220    3.0300   -0.5370 C   0  0  0  0  0  0  0  0  0  0  0  0
    1.0280    3.8120   -1.7050 C   0  0  0  0  0  0  0  0  0  0  0  0
    2.5400    3.9790   -1.4750 C   0  0  0  0  0  0  0  0  0  0  0  0
    3.0040    3.1080   -0.5240 O   0  0  0  0  0  0  0  0  0  0  0  0
    4.2050    2.5600   -0.9620 C   0  0  0  0  0  0  0  0  0  0  0  0
    4.3140    1.1800   -0.3860 C   0  0  0  0  0  0  0  0  0  0  0  0
    5.5890    0.5540   -0.7240 N   0  0  0  0  0  0  0  0  0  0  0  0
    5.9220   -0.7670   -0.3250 C   0  0  0  0  0  0  0  0  0  0  0  0
    7.1030   -1.0660    0.0640 O   0  0  0  0  0  0  0  0  0  0  0  0
    4.9430   -1.8700   -0.3300 C   0  0  0  0  0  0  0  0  0  0  0  0
    3.7750   -1.7500   -0.8920 O   0  0  0  0  0  0  0  0  0  0  0  0
    3.0730   -2.8250   -0.7860 N   0  0  0  0  0  0  0  0  0  0  0  0
    3.7950   -3.7290   -0.1170 C   0  0  0  0  0  0  0  0  0  0  0  0
    3.4650   -4.9140    0.1970 O   0  0  0  0  0  0  0  0  0  0  0  0
    5.0040   -3.1450    0.1920 C   0  0  0  0  0  0  0  0  0  0  0  0
    6.1070   -3.7040    0.8980 N   0  0  0  0  0  0  0  0  0  0  0  0
    6.1610   -3.5590    2.3040 C   0  0  0  0  0  0  0  0  0  0  0  0
    5.2160   -2.9320    2.8810 O   0  0  0  0  0  0  0  0  0  0  0  0
    1.7180   -2.9100   -1.3530 C   0  0  0  0  0  0  0  0  0  0  0  0
    0.7870   -3.5860   -0.4220 C   0  0  0  0  0  0  0  0  0  0  0  0
    0.9050   -4.8390   -0.3250 O   0  0  0  0  0  0  0  0  0  0  0  0
   -0.1290   -2.8630    0.2740 O   0  0  0  0  0  0  0  0  0  0  0  0
   -0.8850   -0.5990    0.1590 C   0  0  0  0  0  0  0  0  0  0  0  0
    0.0880   -0.5270    0.9350 O   0  0  0  0  0  0  0  0  0  0  0  0
  2  1  1  6
  2  3  1  0
  2 41  1  0
  2 42  1  0
  3  4  1  0
  4  5  1  0
  5  6  1  0
  5 11  1  0
  6  7  1  0
  7  8  1  0
  8  9  1  0
  9 10  1  0
 11 12  2  0
 11 13  1  0
 13 14  1  0
 13 42  1  0
 14 15  1  0
 15 16  1  6
 15 20  1  0
 16 17  1  0
 17 18  2  0
 17 19  1  0
 20 21  1  0
 21 22  1  0
 22 23  1  0
 23 24  1  0
 24 25  1  0
 25 26  1  0
 26 27  1  0
 27 28  2  0
 27 29  1  0
 29 30  1  0
 29 34  2  0
 30 31  1  0
 31 32  1  0
 31 38  1  0
 32 33  2  0
 32 34  1  0
 34 35  1  0
 35 36  1  0
 36 37  2  0
 38 39  1  0
 39 40  2  0
 39 41  1  0
 42 43  2  0
M  END
