
     RDKit          3D

 43 46  0  0  0  0  0  0  0  0999 V2000
    2.9720   -6.1420    0.8780 C   0  0  0  0  0  0  0  0  0  0  0  0
    3.1130   -5.0670    1.8130 O   0  0  0  0  0  0  0  0  0  0  0  0
    4.1550   -4.2070    1.5890 N   0  0  0  0  0  0  0  0  0  0  0  0
    3.9850   -3.0640    0.9600 C   0  0  0  0  0  0  0  0  0  0  0  0
    2.6760   -2.7180    0.5010 C   0  0  0  0  0  0  0  0  0  0  0  0
    2.4300   -1.5970   -0.1400 C   0  0  0  0  0  0  0  0  0  0  0  0
    3.4880   -0.6350   -0.4230 C   0  0  0  0  0  0  0  0  0  0  0  0
    3.3700    0.6820   -0.2060 C   0  0  0  0  0  0  0  0  0  0  0  0
    2.2230    1.2510    0.3110 O   0  0  0  0  0  0  0  0  0  0  0  0
    2.5530    2.5230    0.8210 C   0  0  2  0  0  0  0  0  0  0  0  0
    1.3350    3.4140    0.7230 C   0  0  0  0  0  0  0  0  0  0  0  0
    0.1230    2.7300    1.3190 C   0  0  0  0  0  0  0  0  0  0  0  0
   -1.0920    3.3670    0.6610 C   0  0  0  0  0  0  0  0  0  0  0  0
   -2.3320    2.8560    1.1460 N   0  0  0  0  0  0  0  0  0  0  0  0
   -3.4140    2.4140    0.3340 C   0  0  0  0  0  0  0  0  0  0  0  0
   -4.6030    2.6890    0.7380 O   0  0  0  0  0  0  0  0  0  0  0  0
   -3.1430    1.7310   -0.8160 O   0  0  0  0  0  0  0  0  0  0  0  0
   -2.4580    0.5480   -1.0190 C   0  0  1  0  0  0  0  0  0  0  0  0
   -1.0910    0.6690   -1.1890 O   0  0  0  0  0  0  0  0  0  0  0  0
   -0.6420   -0.3720   -1.9590 C   0  0  2  0  0  0  0  0  0  0  0  0
   -1.4000   -1.6630   -1.7330 C   0  0  0  0  0  0  0  0  0  0  0  0
   -1.9420   -1.7540   -0.3270 C   0  0  0  0  0  0  0  0  0  0  0  0
   -2.6940   -0.5120    0.0300 C   0  0  2  0  0  0  0  0  0  0  0  0
   -4.1270   -0.7490    0.0850 N   0  0  0  0  0  0  0  0  0  0  0  0
   -4.9000   -1.3110   -1.0070 C   0  0  0  0  0  0  0  0  0  0  0  0
   -6.3370   -1.0010   -0.7170 C   0  0  0  0  0  0  0  0  0  0  0  0
   -6.3700   -0.7460    0.6940 N   0  0  0  0  0  0  0  0  0  0  0  0
   -7.5760   -0.7500    1.4630 C   0  0  0  0  0  0  0  0  0  0  0  0
   -7.8970    0.3320    2.0760 N   0  0  0  0  0  0  0  0  0  0  0  0
   -5.0470   -0.5060    1.1370 C   0  0  0  0  0  0  0  0  0  0  0  0
   -4.7110   -0.1320    2.2900 O   0  0  0  0  0  0  0  0  0  0  0  0
    0.8190   -0.6850   -1.8090 C   0  0  0  0  0  0  0  0  0  0  0  0
    1.1250   -1.2830   -0.5780 O   0  0  0  0  0  0  0  0  0  0  0  0
    3.6350    2.9830   -0.0080 N   0  0  0  0  0  0  0  0  0  0  0  0
    3.9660    4.3340   -0.3420 C   0  0  0  0  0  0  0  0  0  0  0  0
    3.3190    4.7510   -1.5020 O   0  0  0  0  0  0  0  0  0  0  0  0
    3.6550    5.9960   -1.7650 O   0  0  0  0  0  0  0  0  0  0  0  0
    4.3010    1.8040   -0.4210 C   0  0  0  0  0  0  0  0  0  0  0  0
    5.4620    1.6840   -0.8860 O   0  0  0  0  0  0  0  0  0  0  0  0
    5.1370   -2.3180    0.8200 O   0  0  0  0  0  0  0  0  0  0  0  0
    6.3600   -2.7380    1.2990 C   0  0  0  0  0  0  0  0  0  0  0  0
    6.4520   -3.8330    1.8860 O   0  0  0  0  0  0  0  0  0  0  0  0
    7.5240   -1.9730    1.1520 O   0  0  0  0  0  0  0  0  0  0  0  0
  1  2  1  0
  2  3  1  0
  3  4  2  3
  4  5  1  0
  4 40  1  0
  5  6  2  3
  6  7  1  0
  6 33  1  0
  7  8  2  0
  8  9  1  0
  8 38  1  0
  9 10  1  0
 10 11  1  6
 10 34  1  0
 11 12  1  0
 12 13  1  0
 13 14  1  0
 14 15  1  0
 15 16  2  0
 15 17  1  0
 18 17  1  1
 18 19  1  0
 18 23  1  0
 19 20  1  0
 20 21  1  1
 20 32  1  0
 21 22  1  0
 22 23  1  0
 23 24  1  6
 24 25  1  0
 24 30  1  0
 25 26  1  0
 26 27  1  0
 27 28  1  0
 27 30  1  0
 28 29  2  0
 30 31  2  0
 32 33  1  0
 34 35  1  0
 34 38  1  0
 35 36  1  0
 36 37  1  0
 38 39  2  0
 40 41  1  0
 41 42  2  0
 41 43  1  0
M  END
