
     RDKit          3D

 43 46  0  0  0  0  0  0  0  0999 V2000
    9.0980    2.4930    1.6170 C   0  0  0  0  0  0  0  0  0  0  0  0
    9.0950    1.9730    0.2210 C   0  0  0  0  0  0  0  0  0  0  0  0
    8.0530    2.4340   -0.5860 O   0  0  0  0  0  0  0  0  0  0  0  0
    6.7120    2.2930   -0.3550 C   0  0  0  0  0  0  0  0  0  0  0  0
    6.3410    1.6970    0.6750 O   0  0  0  0  0  0  0  0  0  0  0  0
    5.7610    2.8100   -1.2570 O   0  0  0  0  0  0  0  0  0  0  0  0
    4.3790    2.6720   -1.0070 C   0  0  0  0  0  0  0  0  0  0  0  0
    4.0410    1.2230   -0.9020 C   0  0  0  0  0  0  0  0  0  0  0  0
    4.7880    0.1980   -1.0250 O   0  0  0  0  0  0  0  0  0  0  0  0
    4.0780   -0.9600   -0.8480 C   0  0  0  0  0  0  0  0  0  0  0  0
    4.5440   -2.0560   -0.9200 N   0  0  0  0  0  0  0  0  0  0  0  0
    2.7860   -0.6150   -0.5950 N   0  0  0  0  0  0  0  0  0  0  0  0
    1.6560   -1.3560   -0.3570 C   0  0  0  0  0  0  0  0  0  0  0  0
    1.6610   -2.6270   -0.2310 C   0  0  0  0  0  0  0  0  0  0  0  0
    2.5750   -3.7270   -0.2630 C   0  0  0  0  0  0  0  0  0  0  0  0
    2.8560   -4.5800   -1.3380 C   0  0  0  0  0  0  0  0  0  0  0  0
    3.7600   -5.4440   -0.8840 N   0  0  0  0  0  0  0  0  0  0  0  0
    4.0350   -5.1610    0.3880 C   0  0  0  0  0  0  0  0  0  0  0  0
    3.3230   -4.1420    0.7360 O   0  0  0  0  0  0  0  0  0  0  0  0
    0.4720   -0.6500   -0.1630 C   0  0  0  0  0  0  0  0  0  0  0  0
   -0.7200   -1.1530   -0.1590 C   0  0  0  0  0  0  0  0  0  0  0  0
   -1.4230   -2.3670   -0.3140 C   0  0  0  0  0  0  0  0  0  0  0  0
   -2.7820   -2.3840   -0.1980 C   0  0  0  0  0  0  0  0  0  0  0  0
   -3.6590   -1.3150    0.0680 N   0  0  0  0  0  0  0  0  0  0  0  0
   -4.8810   -1.7240    0.0920 C   0  0  0  0  0  0  0  0  0  0  0  0
   -5.9910   -0.8730    0.3350 N   0  0  0  0  0  0  0  0  0  0  0  0
   -5.8670    0.3140    1.1370 C   0  0  2  0  0  0  0  0  0  0  0  0
   -4.9180    1.3400    0.6190 C   0  0  0  0  0  0  0  0  0  0  0  0
   -5.0670    1.8640   -0.5760 O   0  0  0  0  0  0  0  0  0  0  0  0
   -6.0270    2.5980   -1.0890 C   0  0  0  0  0  0  0  0  0  0  0  0
   -7.4280    2.1060   -1.2210 C   0  0  0  0  0  0  0  0  0  0  0  0
   -8.1790    3.1600   -1.8290 O   0  0  0  0  0  0  0  0  0  0  0  0
   -9.4290    2.8260   -1.9900 O   0  0  0  0  0  0  0  0  0  0  0  0
   -5.4590   -0.1080    2.5420 C   0  0  0  0  0  0  0  0  0  0  0  0
   -5.3040   -1.3200    2.8000 O   0  0  0  0  0  0  0  0  0  0  0  0
   -5.2580    0.8260    3.5260 O   0  0  0  0  0  0  0  0  0  0  0  0
   -4.9330   -3.1140   -0.1560 O   0  0  0  0  0  0  0  0  0  0  0  0
   -3.6200   -3.5480   -0.3410 C   0  0  0  0  0  0  0  0  0  0  0  0
   -3.2510   -4.7370   -0.5870 O   0  0  0  0  0  0  0  0  0  0  0  0
    0.5450    0.7690   -0.2110 C   0  0  0  0  0  0  0  0  0  0  0  0
   -0.5210    1.4530   -0.0250 N   0  0  0  0  0  0  0  0  0  0  0  0
    1.6660    1.3600   -0.4370 O   0  0  0  0  0  0  0  0  0  0  0  0
    2.7770    0.7260   -0.6330 C   0  0  0  0  0  0  0  0  0  0  0  0
  1  2  1  0
  2  3  1  0
  3  4  1  0
  4  5  2  0
  4  6  1  0
  6  7  1  0
  7  8  1  0
  8  9  1  0
  8 43  2  0
  9 10  1  0
 10 11  2  0
 10 12  1  0
 12 13  1  0
 12 43  1  0
 13 14  2  3
 13 20  1  0
 14 15  1  0
 15 16  2  0
 15 19  1  0
 16 17  1  0
 17 18  2  0
 18 19  1  0
 20 21  2  3
 20 40  1  0
 21 22  1  0
 22 23  2  3
 23 24  1  0
 23 38  1  0
 24 25  2  0
 25 26  1  0
 25 37  1  0
 26 27  1  0
 27 28  1  6
 27 34  1  0
 28 29  1  0
 29 30  1  0
 30 31  1  0
 31 32  1  0
 32 33  1  0
 34 35  2  0
 34 36  1  0
 37 38  1  0
 38 39  2  0
 40 41  2  0
 40 42  1  0
 42 43  1  0
M  END
