
     RDKit          3D

 22 24  0  0  0  0  0  0  0  0999 V2000
    7.3080    0.6440    0.9360 C   0  0  0  0  0  0  0  0  0  0  0  0
    5.9800    0.4500    0.8830 C   0  0  0  0  0  0  0  0  0  0  0  0
    5.1260    0.1930    1.9670 N   0  0  0  0  0  0  0  0  0  0  0  0
    3.8160    0.0520    1.4760 C   0  0  0  0  0  0  0  0  0  0  0  0
    2.6230   -0.2110    2.1770 C   0  0  0  0  0  0  0  0  0  0  0  0
    1.4340   -0.3060    1.4500 C   0  0  0  0  0  0  0  0  0  0  0  0
    1.4100   -0.1500    0.0870 C   0  0  0  0  0  0  0  0  0  0  0  0
    0.2190   -0.2250   -0.6500 N   0  0  0  0  0  0  0  0  0  0  0  0
   -1.1100   -0.1900   -0.1930 C   0  0  0  0  0  0  0  0  0  0  0  0
   -1.3060   -0.0730    1.0170 O   0  0  0  0  0  0  0  0  0  0  0  0
   -2.2050   -0.2850   -1.0820 N   0  0  0  0  0  0  0  0  0  0  0  0
   -3.5620   -0.2550   -0.7100 C   0  0  0  0  0  0  0  0  0  0  0  0
   -4.5290   -0.5880   -1.6780 C   0  0  0  0  0  0  0  0  0  0  0  0
   -5.8770   -0.5820   -1.4370 C   0  0  0  0  0  0  0  0  0  0  0  0
   -6.3670   -0.2400   -0.1960 C   0  0  0  0  0  0  0  0  0  0  0  0
   -7.8210   -0.2240    0.0980 C   0  0  0  0  0  0  0  0  0  0  0  0
   -5.4420    0.0890    0.7640 C   0  0  0  0  0  0  0  0  0  0  0  0
   -4.0600    0.0850    0.5230 C   0  0  0  0  0  0  0  0  0  0  0  0
    2.6230    0.1120   -0.5740 C   0  0  0  0  0  0  0  0  0  0  0  0
    3.8090    0.2100    0.1220 C   0  0  0  0  0  0  0  0  0  0  0  0
    5.1700    0.4680   -0.3220 C   0  0  0  0  0  0  0  0  0  0  0  0
    5.5910    0.6780   -1.5670 C   0  0  0  0  0  0  0  0  0  0  0  0
  1  2  2  0
  2  3  1  0
  2 21  1  0
  3  4  1  0
  4  5  2  0
  4 20  1  0
  5  6  1  0
  6  7  2  0
  7  8  1  0
  7 19  1  0
  8  9  1  0
  9 10  2  0
  9 11  1  0
 11 12  1  0
 12 13  2  0
 12 18  1  0
 13 14  1  0
 14 15  2  0
 15 16  1  0
 15 17  1  0
 17 18  2  0
 19 20  2  0
 20 21  1  0
 21 22  2  0
M  CHG  1   3   1
M  END
