
     RDKit          3D

 21 23  0  0  0  0  0  0  0  0999 V2000
    6.2740   -0.5410    1.3490 N   0  0  0  0  0  0  0  0  0  0  0  0
    5.3670    0.5920    1.6130 C   0  0  0  0  0  0  0  0  0  0  0  0
    4.1200    0.4420    0.7940 C   0  0  0  0  0  0  0  0  0  0  0  0
    4.0820    0.8360   -0.5280 C   0  0  0  0  0  0  0  0  0  0  0  0
    2.9380    0.7000   -1.2810 C   0  0  0  0  0  0  0  0  0  0  0  0
    1.7580    0.1580   -0.7510 C   0  0  0  0  0  0  0  0  0  0  0  0
    0.5810    0.0190   -1.5970 C   0  0  0  0  0  0  0  0  0  0  0  0
    0.8090   -0.1510   -2.8590 O   0  0  0  0  0  0  0  0  0  0  0  0
   -0.7910    0.0500   -1.1770 C   0  0  0  0  0  0  0  0  0  0  0  0
   -1.1730    0.6670   -0.0290 C   0  0  0  0  0  0  0  0  0  0  0  0
   -2.5070    0.6780    0.3560 C   0  0  0  0  0  0  0  0  0  0  0  0
   -3.4880    0.0740   -0.3940 C   0  0  0  0  0  0  0  0  0  0  0  0
   -4.8970    0.0850    0.0310 C   0  0  0  0  0  0  0  0  0  0  0  0
   -5.9260   -0.4650   -0.7070 C   0  0  0  0  0  0  0  0  0  0  0  0
   -7.0940   -0.2770   -0.0370 C   0  0  0  0  0  0  0  0  0  0  0  0
   -6.7850    0.3820    1.1000 N   0  0  0  0  0  0  0  0  0  0  0  0
   -5.4610    0.5860    1.1150 N   0  0  0  0  0  0  0  0  0  0  0  0
   -3.1090   -0.5520   -1.5570 C   0  0  0  0  0  0  0  0  0  0  0  0
   -1.7890   -0.5610   -1.9360 C   0  0  0  0  0  0  0  0  0  0  0  0
    1.8160   -0.2280    0.5670 C   0  0  0  0  0  0  0  0  0  0  0  0
    2.9640   -0.0920    1.3250 C   0  0  0  0  0  0  0  0  0  0  0  0
  1  2  1  0
  2  3  1  0
  3  4  2  0
  3 21  1  0
  4  5  1  0
  5  6  2  0
  6  7  1  0
  6 20  1  0
  7  8  2  0
  7  9  1  0
  9 10  2  0
  9 19  1  0
 10 11  1  0
 11 12  2  0
 12 13  1  0
 12 18  1  0
 13 14  1  0
 13 17  2  0
 14 15  2  0
 15 16  1  0
 16 17  1  0
 18 19  2  0
 20 21  2  0
M  CHG  1   1   1
M  END
