
     RDKit          3D

 22 24  0  0  0  0  0  0  0  0999 V2000
    1.0090    2.8890    0.2800 C   0  0  0  0  0  0  0  0  0  0  0  0
    1.2510    1.6100   -0.2760 O   0  0  0  0  0  0  0  0  0  0  0  0
    1.7960    0.5550    0.4460 C   0  0  0  0  0  0  0  0  0  0  0  0
    1.0000   -0.3360    1.1270 C   0  0  0  0  0  0  0  0  0  0  0  0
   -0.4660   -0.2120    1.0890 C   0  0  2  0  0  0  0  0  0  0  0  0
   -1.0430   -0.4600    2.3610 N   0  0  0  0  0  0  0  0  0  0  0  0
   -1.0710   -0.9530   -0.0430 C   0  0  0  0  0  0  0  0  0  0  0  0
   -0.6330   -2.2220   -0.3770 C   0  0  0  0  0  0  0  0  0  0  0  0
   -1.1690   -2.9210   -1.4180 C   0  0  0  0  0  0  0  0  0  0  0  0
   -2.1540   -2.3560   -2.1410 N   0  0  0  0  0  0  0  0  0  0  0  0
   -2.6030   -1.1030   -1.8280 C   0  0  0  0  0  0  0  0  0  0  0  0
   -2.0790   -0.3800   -0.7840 C   0  0  0  0  0  0  0  0  0  0  0  0
   -2.5810    0.9970   -0.4470 C   0  0  0  0  0  0  0  0  0  0  0  0
   -3.8890    1.2380   -1.1200 C   0  0  0  0  0  0  0  0  0  0  0  0
   -3.6980    0.9160   -2.5960 C   0  0  0  0  0  0  0  0  0  0  0  0
   -3.6920   -0.5920   -2.6930 C   0  0  0  0  0  0  0  0  0  0  0  0
    1.6120   -1.3500    1.8170 C   0  0  0  0  0  0  0  0  0  0  0  0
    3.0070   -1.4800    1.8300 C   0  0  0  0  0  0  0  0  0  0  0  0
    3.7750   -0.5780    1.1430 C   0  0  0  0  0  0  0  0  0  0  0  0
    5.2620   -0.6960    1.1420 C   0  0  0  0  0  0  0  0  0  0  0  0
    3.1880    0.4600    0.4350 C   0  0  0  0  0  0  0  0  0  0  0  0
    4.0150    1.3760   -0.2690 N   0  0  0  0  0  0  0  0  0  0  0  0
  1  2  1  0
  2  3  1  0
  3  4  2  0
  3 21  1  0
  4  5  1  0
  4 17  1  0
  5  6  1  1
  5  7  1  0
  7  8  2  0
  7 12  1  0
  8  9  1  0
  9 10  2  0
 10 11  1  0
 11 12  2  0
 11 16  1  0
 12 13  1  0
 13 14  1  0
 14 15  1  0
 15 16  1  0
 17 18  2  0
 18 19  1  0
 19 20  1  0
 19 21  2  0
 21 22  1  0
M  CHG  1   6   1
M  END
