
     RDKit          3D

 22 22  0  0  0  0  0  0  0  0999 V2000
    4.0750    1.3490    1.8460 C   0  0  0  0  0  0  0  0  0  0  0  0
    3.6540    0.3930    0.9010 O   0  0  0  0  0  0  0  0  0  0  0  0
    3.8870   -0.9490    1.1430 C   0  0  0  0  0  0  0  0  0  0  0  0
    4.4710   -1.2660    2.2050 O   0  0  0  0  0  0  0  0  0  0  0  0
    3.4460   -1.9560    0.1520 C   0  0  1  0  0  0  0  0  0  0  0  0
    3.7660   -3.2490    0.5550 O   0  0  0  0  0  0  0  0  0  0  0  0
    2.0770   -1.8400   -0.1560 O   0  0  0  0  0  0  0  0  0  0  0  0
    1.5600   -1.5490   -1.3880 C   0  0  0  0  0  0  0  0  0  0  0  0
    2.3470   -1.3640   -2.3500 O   0  0  0  0  0  0  0  0  0  0  0  0
    0.1020   -1.4410   -1.6440 C   0  0  0  0  0  0  0  0  0  0  0  0
   -0.3580   -0.0020   -1.5950 C   0  0  1  0  0  0  0  0  0  0  0  0
   -1.8440    0.0530   -1.8620 C   0  0  1  0  0  0  0  0  0  0  0  0
   -2.4950   -1.0880   -1.4380 O   0  0  0  0  0  0  0  0  0  0  0  0
   -2.4000    1.2630   -1.1460 C   0  0  2  0  0  0  0  0  0  0  0  0
   -1.9840    2.3750   -1.9290 O   0  0  0  0  0  0  0  0  0  0  0  0
   -1.8350    1.4040    0.1160 N   0  0  0  0  0  0  0  0  0  0  0  0
   -2.5810    1.4300    1.2890 C   0  0  0  0  0  0  0  0  0  0  0  0
   -3.5170    0.2980    1.5190 C   0  0  0  0  0  0  0  0  0  0  0  0
   -4.4860    0.1820    0.5430 O   0  0  0  0  0  0  0  0  0  0  0  0
   -0.3470    0.5930    0.1070 S   0  0  2  0  0  0  0  0  0  0  0  0
    0.7520    1.5920    0.2950 O   0  0  0  0  0  0  0  0  0  0  0  0
   -0.2630   -0.5420    1.0780 O   0  0  0  0  0  0  0  0  0  0  0  0
  1  2  1  0
  2  3  1  0
  3  4  2  0
  3  5  1  0
  5  6  1  1
  5  7  1  0
  7  8  1  0
  8  9  2  0
  8 10  1  0
 11 10  1  1
 11 12  1  0
 11 20  1  0
 12 13  1  1
 12 14  1  0
 14 15  1  6
 14 16  1  0
 16 17  1  0
 20 16  1  1
 17 18  1  0
 18 19  1  0
 20 21  2  0
 20 22  2  0
M  END
