
     RDKit          3D

 22 24  0  0  0  0  0  0  0  0999 V2000
    6.3700    2.4510   -0.0660 C   0  0  0  0  0  0  0  0  0  0  0  0
    5.3150    1.4220    0.1690 C   0  0  0  0  0  0  0  0  0  0  0  0
    5.5070    0.1020    0.5220 C   0  0  0  0  0  0  0  0  0  0  0  0
    4.2820   -0.5300    0.6470 C   0  0  0  0  0  0  0  0  0  0  0  0
    3.8610   -1.8060    0.9680 C   0  0  0  0  0  0  0  0  0  0  0  0
    2.5160   -2.1290    1.0080 C   0  0  0  0  0  0  0  0  0  0  0  0
    1.5740   -1.1580    0.7210 C   0  0  0  0  0  0  0  0  0  0  0  0
    1.9610    0.1180    0.3990 C   0  0  0  0  0  0  0  0  0  0  0  0
    1.0310    1.2380    0.0990 C   0  0  0  0  0  0  0  0  0  0  0  0
   -0.3230    0.7800    0.1190 N   0  0  0  0  0  0  0  0  0  0  0  0
   -0.8310   -0.1430   -0.8260 C   0  0  0  0  0  0  0  0  0  0  0  0
   -0.0150   -0.5530   -1.7220 O   0  0  0  0  0  0  0  0  0  0  0  0
   -2.1880   -0.6410   -0.8410 C   0  0  0  0  0  0  0  0  0  0  0  0
   -2.5960   -1.5280   -1.8100 C   0  0  0  0  0  0  0  0  0  0  0  0
   -3.8900   -2.0150   -1.8400 C   0  0  0  0  0  0  0  0  0  0  0  0
   -4.8130   -1.6200   -0.8890 C   0  0  0  0  0  0  0  0  0  0  0  0
   -4.4320   -0.7320    0.0940 C   0  0  0  0  0  0  0  0  0  0  0  0
   -5.4030   -0.2810    1.1410 C   0  0  0  0  0  0  0  0  0  0  0  0
   -6.1160    0.9170    0.6920 N   0  0  0  0  0  0  0  0  0  0  0  0
   -3.1150   -0.2590    0.0950 C   0  0  0  0  0  0  0  0  0  0  0  0
    3.3330    0.4200    0.3660 C   0  0  0  0  0  0  0  0  0  0  0  0
    3.9820    1.5790    0.0830 N   0  0  0  0  0  0  0  0  0  0  0  0
  1  2  1  0
  2  3  2  0
  2 22  1  0
  3  4  1  0
  4  5  2  0
  4 21  1  0
  5  6  1  0
  6  7  2  0
  7  8  1  0
  8  9  1  0
  8 21  2  0
  9 10  1  0
 10 11  1  0
 11 12  2  0
 11 13  1  0
 13 14  2  0
 13 20  1  0
 14 15  1  0
 15 16  2  0
 16 17  1  0
 17 18  1  0
 17 20  2  0
 18 19  1  0
 21 22  1  0
M  CHG  1  19   1
M  END
