
     RDKit          3D

 21 23  0  0  0  0  0  0  0  0999 V2000
    0.9980   -1.2670   -0.0930 O   0  0  0  0  0  0  0  0  0  0  0  0
    0.6780   -0.3790   -0.9010 C   0  0  0  0  0  0  0  0  0  0  0  0
    1.6900    0.0860   -1.9220 C   0  0  0  0  0  0  0  0  0  0  0  0
    2.8900   -0.6500   -1.7150 N   0  0  0  0  0  0  0  0  0  0  0  0
    3.6530   -0.5660   -0.5150 C   0  0  0  0  0  0  0  0  0  0  0  0
    3.3580    0.2850    0.5070 C   0  0  0  0  0  0  0  0  0  0  0  0
    4.1090    0.3530    1.6760 C   0  0  0  0  0  0  0  0  0  0  0  0
    5.1750   -0.4540    1.8110 N   0  0  0  0  0  0  0  0  0  0  0  0
    5.4900   -1.3040    0.8190 C   0  0  0  0  0  0  0  0  0  0  0  0
    4.7620   -1.3900   -0.3470 C   0  0  0  0  0  0  0  0  0  0  0  0
   -0.6120    0.2060   -0.8850 N   0  0  0  0  0  0  0  0  0  0  0  0
   -1.6650   -0.1190    0.0040 C   0  0  0  0  0  0  0  0  0  0  0  0
   -1.5660   -1.0660    0.9880 C   0  0  0  0  0  0  0  0  0  0  0  0
   -2.6120   -1.3850    1.8690 C   0  0  0  0  0  0  0  0  0  0  0  0
   -3.8060   -0.7280    1.7560 C   0  0  0  0  0  0  0  0  0  0  0  0
   -3.9240    0.2260    0.7740 C   0  0  0  0  0  0  0  0  0  0  0  0
   -5.1450    0.8630    0.6960 C   0  0  0  0  0  0  0  0  0  0  0  0
   -5.3500    1.8270   -0.2520 C   0  0  0  0  0  0  0  0  0  0  0  0
   -4.3290    2.1330   -1.1050 C   0  0  0  0  0  0  0  0  0  0  0  0
   -3.0750    1.5160   -1.0680 C   0  0  0  0  0  0  0  0  0  0  0  0
   -2.8920    0.5500   -0.1050 C   0  0  0  0  0  0  0  0  0  0  0  0
  1  2  2  0
  2  3  1  0
  2 11  1  0
  3  4  1  0
  4  5  1  0
  5  6  2  0
  5 10  1  0
  6  7  1  0
  7  8  2  0
  8  9  1  0
  9 10  2  0
 11 12  1  0
 12 13  2  0
 12 21  1  0
 13 14  1  0
 14 15  2  0
 15 16  1  0
 16 17  2  0
 16 21  1  0
 17 18  1  0
 18 19  2  0
 19 20  1  0
 20 21  2  0
M  CHG  1   8   1
M  END
