
     RDKit          3D

 25 27  0  0  0  0  0  0  0  0999 V2000
    4.7720    1.7880    1.2300 O   0  0  0  0  0  0  0  0  0  0  0  0
    3.6600    1.2480    0.8980 C   0  0  0  0  0  0  0  0  0  0  0  0
    2.4010    1.8900    1.2640 C   0  0  0  0  0  0  0  0  0  0  0  0
    1.2180    1.2140    0.8510 N   0  0  0  0  0  0  0  0  0  0  0  0
   -0.0350    1.8410    1.2070 C   0  0  0  0  0  0  0  0  0  0  0  0
   -0.0380    2.9240    1.8460 O   0  0  0  0  0  0  0  0  0  0  0  0
   -1.3030    1.2510    0.8450 C   0  0  0  0  0  0  0  0  0  0  0  0
   -2.5510    1.7540    1.1280 C   0  0  0  0  0  0  0  0  0  0  0  0
   -3.4780    0.9350    0.6340 N   0  0  0  0  0  0  0  0  0  0  0  0
   -2.8430   -0.0840    0.0390 C   0  0  0  0  0  0  0  0  0  0  0  0
   -3.4090   -1.0920   -0.5620 N   0  0  0  0  0  0  0  0  0  0  0  0
   -4.8270   -1.1750   -0.6270 C   0  0  0  0  0  0  0  0  0  0  0  0
   -5.5600   -2.0390    0.1630 C   0  0  0  0  0  0  0  0  0  0  0  0
   -6.9480   -2.0950    0.0750 C   0  0  0  0  0  0  0  0  0  0  0  0
   -7.5930   -1.2660   -0.8230 C   0  0  0  0  0  0  0  0  0  0  0  0
   -6.8820   -0.3890   -1.6270 C   0  0  0  0  0  0  0  0  0  0  0  0
   -5.5090   -0.3620   -1.5110 C   0  0  0  0  0  0  0  0  0  0  0  0
   -1.5150    0.0920    0.1580 N   0  0  0  0  0  0  0  0  0  0  0  0
    3.8020    0.0300    0.1810 N   0  0  0  0  0  0  0  0  0  0  0  0
    5.0770   -0.5310   -0.1360 C   0  0  0  0  0  0  0  0  0  0  0  0
    5.5920   -1.6890    0.1970 C   0  0  0  0  0  0  0  0  0  0  0  0
    6.9680   -1.8100   -0.3850 C   0  0  0  0  0  0  0  0  0  0  0  0
    7.1480   -0.5360   -1.1010 C   0  0  0  0  0  0  0  0  0  0  0  0
    6.0550    0.1910   -0.9510 C   0  0  0  0  0  0  0  0  0  0  0  0
    5.9000    1.4660   -1.5100 O   0  0  0  0  0  0  0  0  0  0  0  0
  1  2  2  0
  2  3  1  0
  2 19  1  0
  3  4  1  0
  4  5  1  0
  5  6  2  0
  5  7  1  0
  7  8  2  0
  7 18  1  0
  8  9  1  0
  9 10  1  0
 10 11  2  3
 10 18  1  0
 11 12  1  0
 12 13  2  0
 12 17  1  0
 13 14  1  0
 14 15  2  0
 15 16  1  0
 16 17  2  0
 19 20  1  0
 20 21  2  0
 20 24  1  0
 21 22  1  0
 22 23  1  0
 23 24  2  0
 24 25  1  0
M  END
