
     RDKit          3D

 25 27  0  0  0  0  0  0  0  0999 V2000
    3.7500   -3.4040   -0.6150 N   0  0  0  0  0  0  0  0  0  0  0  0
    3.6820   -2.2470    0.1850 C   0  0  0  0  0  0  0  0  0  0  0  0
    4.8060   -1.8160    0.6370 O   0  0  0  0  0  0  0  0  0  0  0  0
    2.4670   -1.5640    0.4970 C   0  0  0  0  0  0  0  0  0  0  0  0
    1.2790   -1.8910    0.1070 C   0  0  0  0  0  0  0  0  0  0  0  0
    0.8900   -3.0030   -0.7220 C   0  0  0  0  0  0  0  0  0  0  0  0
   -0.3890   -3.1500   -0.9970 N   0  0  0  0  0  0  0  0  0  0  0  0
   -1.2950   -2.2460   -0.4890 N   0  0  0  0  0  0  0  0  0  0  0  0
   -2.0930   -1.4390   -1.3370 C   0  0  0  0  0  0  0  0  0  0  0  0
   -2.0100   -1.5090   -2.5820 O   0  0  0  0  0  0  0  0  0  0  0  0
   -3.0440   -0.4900   -0.7390 C   0  0  0  0  0  0  0  0  0  0  0  0
   -3.2710   -0.2750    0.5950 C   0  0  0  0  0  0  0  0  0  0  0  0
   -4.2370    0.6920    0.7440 C   0  0  0  0  0  0  0  0  0  0  0  0
   -4.9850    1.4340    1.6300 C   0  0  0  0  0  0  0  0  0  0  0  0
   -5.7890    2.2480    0.9270 N   0  0  0  0  0  0  0  0  0  0  0  0
   -5.5710    2.0410   -0.3730 C   0  0  0  0  0  0  0  0  0  0  0  0
   -4.5970    1.0650   -0.5250 C   0  0  0  0  0  0  0  0  0  0  0  0
   -3.8690    0.3440   -1.4000 N   0  0  0  0  0  0  0  0  0  0  0  0
    2.5390   -0.4010    1.3190 O   0  0  0  0  0  0  0  0  0  0  0  0
    2.9550    0.7650    0.6830 C   0  0  0  0  0  0  0  0  0  0  0  0
    3.0560    1.9420    1.3960 C   0  0  0  0  0  0  0  0  0  0  0  0
    3.4620    3.1300    0.8270 C   0  0  0  0  0  0  0  0  0  0  0  0
    3.7890    3.1770   -0.5120 C   0  0  0  0  0  0  0  0  0  0  0  0
    3.6910    2.0050   -1.2340 C   0  0  0  0  0  0  0  0  0  0  0  0
    3.2840    0.8200   -0.6550 C   0  0  0  0  0  0  0  0  0  0  0  0
  1  2  1  0
  2  3  2  0
  2  4  1  0
  4  5  2  3
  4 19  1  0
  5  6  1  0
  6  7  2  3
  7  8  1  0
  8  9  1  0
  9 10  2  0
  9 11  1  0
 11 12  2  0
 11 18  1  0
 12 13  1  0
 13 14  2  0
 13 17  1  0
 14 15  1  0
 15 16  1  0
 16 17  2  0
 17 18  1  0
 19 20  1  0
 20 21  2  0
 20 25  1  0
 21 22  1  0
 22 23  2  0
 23 24  1  0
 24 25  2  0
M  END
