
     RDKit          3D

 25 27  0  0  0  0  0  0  0  0999 V2000
   -3.8340    3.0540    0.5600 C   0  0  0  0  0  0  0  0  0  0  0  0
   -4.0930    1.6220    0.2170 C   0  0  0  0  0  0  0  0  0  0  0  0
   -4.8580    1.2210   -0.8690 C   0  0  0  0  0  0  0  0  0  0  0  0
   -4.8390   -0.1570   -0.8140 C   0  0  0  0  0  0  0  0  0  0  0  0
   -4.0810   -0.5490    0.2790 C   0  0  0  0  0  0  0  0  0  0  0  0
   -3.8000   -1.8730    0.7080 N   0  0  0  0  0  0  0  0  0  0  0  0
   -2.6480   -2.3630    0.4330 C   0  0  0  0  0  0  0  0  0  0  0  0
   -1.7360   -1.6540   -0.2350 N   0  0  0  0  0  0  0  0  0  0  0  0
   -0.5340   -2.1860   -0.5130 C   0  0  0  0  0  0  0  0  0  0  0  0
    0.4340   -1.3670   -1.2500 C   0  0  0  0  0  0  0  0  0  0  0  0
    1.2570   -0.5960   -0.3040 N   0  0  0  0  0  0  0  0  0  0  0  0
    2.2720    0.2790   -0.7400 C   0  0  0  0  0  0  0  0  0  0  0  0
    2.4930    0.4150   -1.9750 O   0  0  0  0  0  0  0  0  0  0  0  0
    3.0910    1.0420    0.1460 N   0  0  0  0  0  0  0  0  0  0  0  0
    4.1090    1.9190   -0.3020 C   0  0  0  0  0  0  0  0  0  0  0  0
    4.1300    3.2110   -0.0510 C   0  0  0  0  0  0  0  0  0  0  0  0
    5.3330    3.7900   -0.6730 C   0  0  0  0  0  0  0  0  0  0  0  0
    6.0030    2.6420   -1.3210 C   0  0  0  0  0  0  0  0  0  0  0  0
    5.2740    1.5620   -1.0930 C   0  0  0  0  0  0  0  0  0  0  0  0
    5.5830    0.2710   -1.5480 O   0  0  0  0  0  0  0  0  0  0  0  0
   -0.2600   -3.4710   -0.0970 C   0  0  0  0  0  0  0  0  0  0  0  0
   -1.1880   -4.2150    0.5920 C   0  0  0  0  0  0  0  0  0  0  0  0
   -2.4060   -3.6410    0.8590 C   0  0  0  0  0  0  0  0  0  0  0  0
   -3.3940   -4.3850    1.5740 N   0  0  0  0  0  0  0  0  0  0  0  0
   -3.6710    0.5620    0.8440 O   0  0  0  0  0  0  0  0  0  0  0  0
  1  2  1  0
  2  3  2  0
  2 25  1  0
  3  4  1  0
  4  5  2  0
  5  6  1  0
  5 25  1  0
  6  7  2  3
  7  8  1  0
  7 23  1  0
  8  9  1  0
  9 10  1  0
  9 21  2  0
 10 11  1  0
 11 12  1  0
 12 13  2  0
 12 14  1  0
 14 15  1  0
 15 16  2  0
 15 19  1  0
 16 17  1  0
 17 18  1  0
 18 19  2  0
 19 20  1  0
 21 22  1  0
 22 23  2  0
 23 24  1  0
M  END
