
     RDKit          3D

 24 26  0  0  0  0  0  0  0  0999 V2000
   -7.3980   -0.2250   -1.7630 N   0  0  0  0  0  0  0  0  0  0  0  0
   -6.8750    0.5910   -0.6950 C   0  0  0  0  0  0  0  0  0  0  0  0
   -7.6670    1.3330   -0.0340 N   0  0  0  0  0  0  0  0  0  0  0  0
   -5.4470    0.5220   -0.4220 C   0  0  0  0  0  0  0  0  0  0  0  0
   -4.8340    1.2520    0.5680 C   0  0  0  0  0  0  0  0  0  0  0  0
   -3.4760    1.1460    0.7800 C   0  0  0  0  0  0  0  0  0  0  0  0
   -2.7400    0.2940   -0.0210 C   0  0  0  0  0  0  0  0  0  0  0  0
   -1.3780    0.1850    0.1890 C   0  0  0  0  0  0  0  0  0  0  0  0
   -0.5990   -0.6450   -0.5760 C   0  0  0  0  0  0  0  0  0  0  0  0
    0.8670   -0.7810   -0.3830 C   0  0  0  0  0  0  0  0  0  0  0  0
    1.4210   -1.7360   -0.9740 O   0  0  0  0  0  0  0  0  0  0  0  0
    1.5640    0.1360    0.4280 N   0  0  0  0  0  0  0  0  0  0  0  0
    2.9510    0.0430    0.6490 C   0  0  0  0  0  0  0  0  0  0  0  0
    3.5830    1.2060    1.1180 C   0  0  0  0  0  0  0  0  0  0  0  0
    4.9350    1.1190    1.3590 C   0  0  0  0  0  0  0  0  0  0  0  0
    5.6670   -0.0140    1.1680 C   0  0  0  0  0  0  0  0  0  0  0  0
    7.1150   -0.0480    1.4430 C   0  0  0  0  0  0  0  0  0  0  0  0
    7.7970    0.3340    0.2010 N   0  0  0  0  0  0  0  0  0  0  0  0
    5.0460   -1.1470    0.7090 C   0  0  0  0  0  0  0  0  0  0  0  0
    3.6640   -1.1000    0.4510 C   0  0  0  0  0  0  0  0  0  0  0  0
   -1.1980   -1.3950   -1.5870 C   0  0  0  0  0  0  0  0  0  0  0  0
   -2.5510   -1.3140   -1.8260 C   0  0  0  0  0  0  0  0  0  0  0  0
   -3.3060   -0.4540   -1.0210 C   0  0  0  0  0  0  0  0  0  0  0  0
   -4.6600   -0.3310   -1.2120 C   0  0  0  0  0  0  0  0  0  0  0  0
  1  2  1  0
  2  3  2  0
  2  4  1  0
  4  5  2  0
  4 24  1  0
  5  6  1  0
  6  7  2  0
  7  8  1  0
  7 23  1  0
  8  9  2  0
  9 10  1  0
  9 21  1  0
 10 11  2  0
 10 12  1  0
 12 13  1  0
 13 14  2  0
 13 20  1  0
 14 15  1  0
 15 16  2  0
 16 17  1  0
 16 19  1  0
 17 18  1  0
 19 20  2  0
 21 22  2  0
 22 23  1  0
 23 24  2  0
M  CHG  2   3   1  18   1
M  END
