
     RDKit          3D

 25 27  0  0  0  0  0  0  0  0999 V2000
    8.7330    0.4300   -0.4820 N   0  0  0  0  0  0  0  0  0  0  0  0
    7.3220    0.3890   -0.3530 C   0  0  0  0  0  0  0  0  0  0  0  0
    6.6630   -0.7240   -0.8160 C   0  0  0  0  0  0  0  0  0  0  0  0
    5.2730   -0.7490   -0.6820 C   0  0  0  0  0  0  0  0  0  0  0  0
    4.5540    0.2710   -0.1190 C   0  0  0  0  0  0  0  0  0  0  0  0
    3.1590    0.2620    0.0240 N   0  0  0  0  0  0  0  0  0  0  0  0
    2.2370   -0.7300   -0.3530 C   0  0  0  0  0  0  0  0  0  0  0  0
    2.6530   -1.7760   -0.8970 O   0  0  0  0  0  0  0  0  0  0  0  0
    0.8200   -0.5740   -0.1300 N   0  0  0  0  0  0  0  0  0  0  0  0
   -0.0650   -1.6440   -0.5480 C   0  0  0  0  0  0  0  0  0  0  0  0
   -1.4920   -1.3310   -0.2480 C   0  0  0  0  0  0  0  0  0  0  0  0
   -1.9360   -0.1610   -0.8990 O   0  0  0  0  0  0  0  0  0  0  0  0
   -3.2450    0.2570   -0.7140 C   0  0  0  0  0  0  0  0  0  0  0  0
   -3.7080    1.4050   -1.3430 C   0  0  0  0  0  0  0  0  0  0  0  0
   -5.0090    1.8370   -1.1710 C   0  0  0  0  0  0  0  0  0  0  0  0
   -5.8920    1.1410   -0.3680 C   0  0  0  0  0  0  0  0  0  0  0  0
   -7.1650    1.5340   -0.1800 N   0  0  0  0  0  0  0  0  0  0  0  0
   -8.0230    0.8540    0.6030 C   0  0  0  0  0  0  0  0  0  0  0  0
   -7.5830   -0.2810    1.2300 C   0  0  0  0  0  0  0  0  0  0  0  0
   -6.2900   -0.6940    1.0490 C   0  0  0  0  0  0  0  0  0  0  0  0
   -5.3990    0.0000    0.2440 C   0  0  0  0  0  0  0  0  0  0  0  0
   -4.1100   -0.4350    0.0790 C   0  0  0  0  0  0  0  0  0  0  0  0
    5.2960    1.3660    0.3260 C   0  0  0  0  0  0  0  0  0  0  0  0
    4.6680    2.3160    0.8460 O   0  0  0  0  0  0  0  0  0  0  0  0
    6.6310    1.3890    0.1970 N   0  0  0  0  0  0  0  0  0  0  0  0
  1  2  1  0
  2  3  2  0
  2 25  1  0
  3  4  1  0
  4  5  2  0
  5  6  1  0
  5 23  1  0
  6  7  1  0
  7  8  2  0
  7  9  1  0
  9 10  1  0
 10 11  1  0
 11 12  1  0
 12 13  1  0
 13 14  2  0
 13 22  1  0
 14 15  1  0
 15 16  2  0
 16 17  1  0
 16 21  1  0
 17 18  2  0
 18 19  1  0
 19 20  2  0
 20 21  1  0
 21 22  2  0
 23 24  2  0
 23 25  1  0
M  END
