
     RDKit          3D

 16 16  0  0  0  0  0  0  0  0999 V2000
    3.7280    2.1200   -0.8940 C   0  0  0  0  0  0  0  0  0  0  0  0
    2.8250    1.5160    0.0160 O   0  0  0  0  0  0  0  0  0  0  0  0
    2.6850    0.1400    0.0900 C   0  0  0  0  0  0  0  0  0  0  0  0
    3.3820   -0.5790   -0.6750 O   0  0  0  0  0  0  0  0  0  0  0  0
    1.7240   -0.4450    1.0610 C   0  0  2  0  0  0  0  0  0  0  0  0
    0.8720   -1.4180    0.3940 C   0  0  0  0  0  0  0  0  0  0  0  0
   -0.3200   -1.0800   -0.0670 C   0  0  0  0  0  0  0  0  0  0  0  0
   -1.1610   -1.9840   -0.7090 O   0  0  0  0  0  0  0  0  0  0  0  0
   -1.2050   -3.3530   -0.2760 C   0  0  0  0  0  0  0  0  0  0  0  0
   -0.6990    0.3400    0.1510 C   0  0  1  0  0  0  0  0  0  0  0  0
   -2.1420    0.4650    0.1320 N   0  0  0  0  0  0  0  0  0  0  0  0
   -2.7800    1.2170   -0.8910 C   0  0  0  0  0  0  0  0  0  0  0  0
   -4.1990    1.3250   -0.8890 N   0  0  0  0  0  0  0  0  0  0  0  0
   -2.1220    1.7970   -1.8090 O   0  0  0  0  0  0  0  0  0  0  0  0
   -0.1420    0.9150    1.4120 C   0  0  0  0  0  0  0  0  0  0  0  0
    1.1130    0.5430    1.7500 O   0  0  0  0  0  0  0  0  0  0  0  0
  1  2  1  0
  2  3  1  0
  3  4  2  0
  5  3  1  6
  5  6  1  0
  5 16  1  0
  6  7  2  0
  7  8  1  0
  7 10  1  0
  8  9  1  0
 10 11  1  1
 10 15  1  0
 11 12  1  0
 12 13  1  0
 12 14  2  0
 15 16  1  0
M  END
