
     RDKit          3D

 15 16  0  0  0  0  0  0  0  0999 V2000
   -3.0890    1.8520    0.7500 N   0  0  0  0  0  0  0  0  0  0  0  0
   -2.5620    0.6080    0.2180 C   0  0  2  0  0  0  0  0  0  0  0  0
   -2.6380   -0.3460    1.2110 O   0  0  0  0  0  0  0  0  0  0  0  0
   -2.1750   -1.5820    0.8240 C   0  0  0  0  0  0  0  0  0  0  0  0
   -0.7900   -1.6000    0.2920 C   0  0  0  0  0  0  0  0  0  0  0  0
   -0.3810   -0.4150   -0.4980 C   0  0  2  0  0  0  0  0  0  0  0  0
    1.0180   -0.1000   -0.3720 N   0  0  0  0  0  0  0  0  0  0  0  0
    1.6510    0.2590    0.8880 C   0  0  0  0  0  0  0  0  0  0  0  0
    3.0050   -0.4640    0.8500 C   0  0  0  0  0  0  0  0  0  0  0  0
    3.8190    0.1750   -0.0490 O   0  0  0  0  0  0  0  0  0  0  0  0
    3.2510    0.4760   -1.2560 C   0  0  0  0  0  0  0  0  0  0  0  0
    1.9240   -0.1110   -1.4850 C   0  0  0  0  0  0  0  0  0  0  0  0
    1.5480   -0.6090   -2.5750 O   0  0  0  0  0  0  0  0  0  0  0  0
   -1.1530    0.8400   -0.2000 C   0  0  1  0  0  0  0  0  0  0  0  0
   -1.1830    1.6350   -1.3630 O   0  0  0  0  0  0  0  0  0  0  0  0
  2  1  1  1
  2  3  1  0
  2 14  1  0
  3  4  1  0
  4  5  1  0
  5  6  1  0
  6  7  1  1
  6 14  1  0
  7  8  1  0
  7 12  1  0
  8  9  1  0
  9 10  1  0
 10 11  1  0
 11 12  1  0
 12 13  2  0
 14 15  1  6
M  END
