
     RDKit          3D

 16 16  0  0  0  0  0  0  0  0999 V2000
    2.7480    1.6100   -1.9220 C   0  0  0  0  0  0  0  0  0  0  0  0
    2.6350    0.3740   -1.0210 C   0  0  2  0  0  0  0  0  0  0  0  0
    1.3860    0.3350   -0.4120 O   0  0  0  0  0  0  0  0  0  0  0  0
    0.4070   -0.5980   -0.6320 C   0  0  0  0  0  0  0  0  0  0  0  0
    0.6540   -1.5110   -1.4630 O   0  0  0  0  0  0  0  0  0  0  0  0
   -0.9140   -0.6210    0.0270 C   0  0  2  0  0  0  0  0  0  0  0  0
   -1.1350   -1.9320    0.7800 C   0  0  0  0  0  0  0  0  0  0  0  0
   -2.0310   -0.4820   -0.9840 C   0  0  0  0  0  0  0  0  0  0  0  0
   -2.9930    0.4980   -0.3610 C   0  0  1  0  0  0  0  0  0  0  0  0
   -4.3220   -0.0810   -0.3980 N   0  0  0  0  0  0  0  0  0  0  0  0
   -2.4770    0.6480    1.0110 C   0  0  0  0  0  0  0  0  0  0  0  0
   -3.1820    0.9310    2.0410 O   0  0  0  0  0  0  0  0  0  0  0  0
   -1.1100    0.4220    0.9320 O   0  0  0  0  0  0  0  0  0  0  0  0
    3.7730    0.3660   -0.1120 C   0  0  0  0  0  0  0  0  0  0  0  0
    3.6480    0.3220    1.2990 N   0  0  0  0  0  0  0  0  0  0  0  0
    4.9350    0.3990   -0.5820 O   0  0  0  0  0  0  0  0  0  0  0  0
  2  1  1  1
  2  3  1  0
  2 14  1  0
  3  4  1  0
  4  5  2  0
  4  6  1  0
  6  7  1  1
  6  8  1  0
  6 13  1  0
  8  9  1  0
  9 10  1  1
  9 11  1  0
 11 12  2  0
 11 13  1  0
 14 15  1  0
 14 16  2  0
M  END
