
     RDKit          3D

 26 27  0  0  0  0  0  0  0  0999 V2000
    8.1240    1.7630    0.2770 N   0  0  0  0  0  0  0  0  0  0  0  0
    7.5070    1.7730   -0.8540 C   0  0  0  0  0  0  0  0  0  0  0  0
    6.5120    0.7990   -1.1550 N   0  0  0  0  0  0  0  0  0  0  0  0
    5.6730    0.3760   -0.1170 N   0  0  0  0  0  0  0  0  0  0  0  0
    4.2640    0.3130   -0.2530 C   0  0  0  0  0  0  0  0  0  0  0  0
    3.7600    0.6490   -1.3440 O   0  0  0  0  0  0  0  0  0  0  0  0
    3.4460   -0.1390    0.8680 C   0  0  0  0  0  0  0  0  0  0  0  0
    1.9910   -0.3140    0.5790 C   0  0  1  0  0  0  0  0  0  0  0  0
    1.3140   -0.7570    1.8110 N   0  0  0  0  0  0  0  0  0  0  0  0
    1.2790    0.9000    0.0930 C   0  0  0  0  0  0  0  0  0  0  0  0
    0.3070    0.6550   -1.0190 C   0  0  0  0  0  0  0  0  0  0  0  0
   -0.4410   -0.5970   -0.7690 N   0  0  0  0  0  0  0  0  0  0  0  0
   -1.8060   -0.5690   -0.7370 C   0  0  0  0  0  0  0  0  0  0  0  0
   -2.7100   -0.4220    0.3670 C   0  0  2  0  0  0  0  0  0  0  0  0
   -2.5060   -1.6000    1.3570 C   0  0  0  0  0  0  0  0  0  0  0  0
   -2.7690   -2.8840    0.8530 N   0  0  0  0  0  0  0  0  0  0  0  0
   -4.1330   -0.7210   -0.1610 C   0  0  0  0  0  0  0  0  0  0  0  0
   -4.5360   -0.0060   -1.3840 C   0  0  0  0  0  0  0  0  0  0  0  0
   -4.7900    1.4750   -1.2000 C   0  0  0  0  0  0  0  0  0  0  0  0
   -3.2660    2.3930   -1.0840 S   0  0  0  0  0  0  0  0  0  0  0  0
   -3.4370    3.8290   -1.4760 O   0  0  0  0  0  0  0  0  0  0  0  0
   -2.5720    2.1370    0.5220 C   0  0  0  0  0  0  0  0  0  0  0  0
   -2.8410    0.8360    1.1390 C   0  0  0  0  0  0  0  0  0  0  0  0
    0.4070   -1.6990   -0.6170 C   0  0  0  0  0  0  0  0  0  0  0  0
   -0.0460   -2.8160   -0.6240 O   0  0  0  0  0  0  0  0  0  0  0  0
    1.8610   -1.4460   -0.4510 C   0  0  0  0  0  0  0  0  0  0  0  0
  1  2  2  0
  2  3  1  0
  3  4  1  0
  4  5  1  0
  5  6  2  0
  5  7  1  0
  7  8  1  0
  8  9  1  1
  8 10  1  0
  8 26  1  0
 10 11  1  0
 11 12  1  0
 12 13  1  0
 12 24  1  0
 14 13  1  6
 14 15  1  0
 14 17  1  0
 14 23  1  0
 15 16  1  0
 17 18  1  0
 18 19  1  0
 20 19  1  1
 20 21  2  0
 20 22  1  0
 22 23  1  0
 24 25  2  0
 24 26  1  0
M  CHG  2   9   1  16   1
M  END
