
     RDKit          3D

 16 16  0  0  0  0  0  0  0  0999 V2000
   -1.4140   -1.5040   -1.0310 C   0  0  0  0  0  0  0  0  0  0  0  0
   -1.3130   -0.8050    0.3190 C   0  0  1  0  0  0  0  0  0  0  0  0
   -2.6620   -0.5010    0.8830 C   0  0  0  0  0  0  0  0  0  0  0  0
   -0.4960   -1.5420    1.2130 O   0  0  0  0  0  0  0  0  0  0  0  0
    0.7350   -0.9960    1.5390 C   0  0  0  0  0  0  0  0  0  0  0  0
    1.1970   -1.0030    2.7270 O   0  0  0  0  0  0  0  0  0  0  0  0
    1.5260   -0.3820    0.4240 C   0  0  2  0  0  0  0  0  0  0  0  0
    2.5030   -1.4270   -0.0570 C   0  0  0  0  0  0  0  0  0  0  0  0
    2.2670    0.8120    0.8730 C   0  0  0  0  0  0  0  0  0  0  0  0
    1.9940    2.0610    0.2660 N   0  0  0  0  0  0  0  0  0  0  0  0
    3.1430    0.7940    1.7780 O   0  0  0  0  0  0  0  0  0  0  0  0
    0.6520    0.0210   -0.5800 O   0  0  0  0  0  0  0  0  0  0  0  0
   -0.5050    0.4730    0.0550 C   0  0  1  0  0  0  0  0  0  0  0  0
   -1.2600    1.4430   -0.7450 C   0  0  0  0  0  0  0  0  0  0  0  0
   -0.8880    1.9020   -2.0370 N   0  0  0  0  0  0  0  0  0  0  0  0
   -2.3230    1.9160   -0.2660 O   0  0  0  0  0  0  0  0  0  0  0  0
  2  1  1  6
  2  3  1  0
  2  4  1  0
  2 13  1  0
  4  5  1  0
  5  6  2  0
  5  7  1  0
  7  8  1  6
  7  9  1  0
  7 12  1  0
  9 10  1  0
  9 11  2  0
 12 13  1  0
 13 14  1  6
 14 15  1  0
 14 16  2  0
M  END
