
     RDKit          3D

 13 13  0  0  0  0  0  0  0  0999 V2000
    3.5270   -0.4650   -0.2180 C   0  0  0  0  0  0  0  0  0  0  0  0
    2.0910   -0.5390    0.1620 C   0  0  0  0  0  0  0  0  0  0  0  0
    1.7590   -0.7000    1.3660 O   0  0  0  0  0  0  0  0  0  0  0  0
    1.0550   -0.4400   -0.7580 O   0  0  0  0  0  0  0  0  0  0  0  0
   -0.2860   -0.5140   -0.3680 C   0  0  0  0  0  0  0  0  0  0  0  0
   -0.9690   -1.7080   -0.3090 C   0  0  0  0  0  0  0  0  0  0  0  0
   -2.2910   -1.7330    0.0810 C   0  0  0  0  0  0  0  0  0  0  0  0
   -2.9340   -0.5480    0.4160 C   0  0  0  0  0  0  0  0  0  0  0  0
   -2.2160    0.6270    0.3440 C   0  0  0  0  0  0  0  0  0  0  0  0
   -0.9020    0.6750   -0.0410 C   0  0  0  0  0  0  0  0  0  0  0  0
   -0.1980    1.9470   -0.0970 C   0  0  0  0  0  0  0  0  0  0  0  0
    1.0200    1.9290   -0.4620 O   0  0  0  0  0  0  0  0  0  0  0  0
   -0.8380    3.1310    0.2370 O   0  0  0  0  0  0  0  0  0  0  0  0
  1  2  1  0
  2  3  2  0
  2  4  1  0
  4  5  1  0
  5  6  2  0
  5 10  1  0
  6  7  1  0
  7  8  2  0
  8  9  1  0
  9 10  2  0
 10 11  1  0
 11 12  2  0
 11 13  1  0
M  END
