
     RDKit          3D

 26 28  0  0  0  0  0  0  0  0999 V2000
    6.2020   -0.8060   -0.4520 N   0  0  0  0  0  0  0  0  0  0  0  0
    6.0680   -1.2350    0.9230 C   0  0  1  0  0  0  0  0  0  0  0  0
    6.7420   -0.2170    1.8010 C   0  0  0  0  0  0  0  0  0  0  0  0
    5.8440    0.9560    1.6600 C   0  0  0  0  0  0  0  0  0  0  0  0
    5.7180    2.2960    1.6920 N   0  0  0  0  0  0  0  0  0  0  0  0
    4.4850    2.6590    1.4560 N   0  0  0  0  0  0  0  0  0  0  0  0
    3.7140    1.5560    1.2510 C   0  0  0  0  0  0  0  0  0  0  0  0
    2.2970    1.6210    0.9650 C   0  0  0  0  0  0  0  0  0  0  0  0
    1.7580    2.7720    0.8190 O   0  0  0  0  0  0  0  0  0  0  0  0
    1.4370    0.5040    0.8310 N   0  0  0  0  0  0  0  0  0  0  0  0
    0.0170    0.5780    0.5340 C   0  0  0  0  0  0  0  0  0  0  0  0
   -0.1720    1.2320   -0.8090 C   0  0  0  0  0  0  0  0  0  0  0  0
   -1.4890    1.3210   -1.1140 O   0  0  0  0  0  0  0  0  0  0  0  0
   -2.2410    0.1930   -1.2170 C   0  0  2  0  0  0  0  0  0  0  0  0
   -2.6960   -0.0630   -2.6530 C   0  0  0  0  0  0  0  0  0  0  0  0
   -3.0060   -1.5210   -2.8960 C   0  0  0  0  0  0  0  0  0  0  0  0
   -4.4840   -1.7880   -2.6820 C   0  0  0  0  0  0  0  0  0  0  0  0
   -4.7160   -1.6810   -1.1910 C   0  0  0  0  0  0  0  0  0  0  0  0
   -4.7020   -0.2360   -0.8150 C   0  0  0  0  0  0  0  0  0  0  0  0
   -3.3810    0.2470   -0.2650 C   0  0  1  0  0  0  0  0  0  0  0  0
   -3.0850   -0.3990    0.9920 N   0  0  0  0  0  0  0  0  0  0  0  0
   -4.4170   -0.3250    2.0950 S   0  0  0  0  0  0  0  0  0  0  0  0
   -5.0350    1.3000    2.2740 N   0  0  0  0  0  0  0  0  0  0  0  0
   -3.9430   -0.8390    3.4590 O   0  0  0  0  0  0  0  0  0  0  0  0
    4.5550    0.4850    1.3760 C   0  0  0  0  0  0  0  0  0  0  0  0
    4.5970   -1.0040    1.3100 C   0  0  0  0  0  0  0  0  0  0  0  0
  2  1  1  6
  2  3  1  0
  2 26  1  0
  3  4  1  0
  4  5  2  0
  4 25  1  0
  5  6  1  0
  6  7  1  0
  7  8  1  0
  7 25  2  0
  8  9  2  0
  8 10  1  0
 10 11  1  0
 11 12  1  0
 12 13  1  0
 14 13  1  6
 14 15  1  0
 14 20  1  0
 15 16  1  0
 16 17  1  0
 17 18  1  0
 18 19  1  0
 19 20  1  0
 20 21  1  1
 21 22  1  0
 22 23  1  1
 22 24  2  0
 25 26  1  0
M  CHG  2   1   1  23   1
M  END
