
     RDKit          3D

 16 17  0  0  0  0  0  0  0  0999 V2000
    4.2380    1.8480    1.2040 O   0  0  0  0  0  0  0  0  0  0  0  0
    3.3140    1.1760    0.6390 C   0  0  0  0  0  0  0  0  0  0  0  0
    3.2940    0.6870   -0.7030 N   0  0  0  0  0  0  0  0  0  0  0  0
    2.1020   -0.0030   -0.9350 C   0  0  0  0  0  0  0  0  0  0  0  0
    1.7770   -0.5960   -1.9850 O   0  0  0  0  0  0  0  0  0  0  0  0
    1.2690    0.0800    0.2870 C   0  0  2  0  0  0  0  0  0  0  0  0
    1.0810   -1.3120    0.8130 C   0  0  0  0  0  0  0  0  0  0  0  0
   -0.1460   -1.9510    0.2170 C   0  0  0  0  0  0  0  0  0  0  0  0
   -1.2230   -1.1630    0.5610 O   0  0  0  0  0  0  0  0  0  0  0  0
   -1.2370    0.0790   -0.0040 C   0  0  2  0  0  0  0  0  0  0  0  0
   -2.3410    0.8780    0.7030 C   0  0  0  0  0  0  0  0  0  0  0  0
   -3.5720    0.2960    0.5580 O   0  0  0  0  0  0  0  0  0  0  0  0
   -1.7400   -0.0890   -1.4470 C   0  0  0  0  0  0  0  0  0  0  0  0
   -3.0230   -0.6400   -1.3800 O   0  0  0  0  0  0  0  0  0  0  0  0
    0.0320    0.8300    0.0140 C   0  0  0  0  0  0  0  0  0  0  0  0
    2.1110    0.7830    1.2580 N   0  0  0  0  0  0  0  0  0  0  0  0
  1  2  2  0
  2  3  1  0
  2 16  1  0
  3  4  1  0
  4  5  2  0
  4  6  1  0
  6  7  1  1
  6 15  1  0
  6 16  1  0
  7  8  1  0
  8  9  1  0
  9 10  1  0
 10 11  1  1
 10 13  1  0
 10 15  1  0
 11 12  1  0
 13 14  1  0
M  END
