
     RDKit          3D

 39 42  0  0  0  0  0  0  0  0999 V2000
   -4.3170   -0.3510   -1.7820 C   0  0  0  0  0  0  0  0  0  0  0  0
   -4.0380    0.8900   -1.1400 O   0  0  0  0  0  0  0  0  0  0  0  0
   -3.7670    0.8620    0.2220 C   0  0  0  0  0  0  0  0  0  0  0  0
   -4.8410    0.8950    1.0860 C   0  0  0  0  0  0  0  0  0  0  0  0
   -6.1460    0.9570    0.5500 O   0  0  0  0  0  0  0  0  0  0  0  0
   -4.6960    0.8690    2.4550 C   0  0  0  0  0  0  0  0  0  0  0  0
   -3.4270    0.8090    2.9500 C   0  0  0  0  0  0  0  0  0  0  0  0
   -3.2610    0.7810    4.3470 O   0  0  0  0  0  0  0  0  0  0  0  0
   -2.3560    0.7770    2.0960 C   0  0  0  0  0  0  0  0  0  0  0  0
   -2.4850    0.8030    0.6970 C   0  0  0  0  0  0  0  0  0  0  0  0
   -1.3470    0.7680   -0.0000 O   0  0  0  0  0  0  0  0  0  0  0  0
   -0.9370    0.8140   -1.2900 C   0  0  1  0  0  0  0  0  0  0  0  0
   -0.0430    2.0010   -1.6360 C   0  0  0  0  0  0  0  0  0  0  0  0
    0.0290    3.0400   -0.5730 C   0  0  2  0  0  0  0  0  0  0  0  0
   -0.8720    4.0850   -0.9240 O   0  0  0  0  0  0  0  0  0  0  0  0
    1.4080    3.5770   -0.4680 C   0  0  0  0  0  0  0  0  0  0  0  0
    1.6460    4.6100   -1.1750 O   0  0  0  0  0  0  0  0  0  0  0  0
    2.3330    3.0220    0.3080 O   0  0  0  0  0  0  0  0  0  0  0  0
    3.0650    1.8500    0.3120 C   0  0  2  0  0  0  0  0  0  0  0  0
    3.8980    1.6050   -0.9190 C   0  0  0  0  0  0  0  0  0  0  0  0
    4.8760    2.7940   -1.0240 C   0  0  0  0  0  0  0  0  0  0  0  0
    5.6810    2.8670    0.0940 O   0  0  0  0  0  0  0  0  0  0  0  0
    2.2580    0.6440    0.7560 C   0  0  2  0  0  0  0  0  0  0  0  0
    2.5320    0.3630    2.2180 C   0  0  0  0  0  0  0  0  0  0  0  0
    3.8820    0.0650    2.5400 N   0  0  0  0  0  0  0  0  0  0  0  0
    2.3880   -0.5150   -0.1600 C   0  0  0  0  0  0  0  0  0  0  0  0
    1.5700   -1.6970    0.1950 C   0  0  0  0  0  0  0  0  0  0  0  0
    1.7920   -2.4520    1.2930 C   0  0  0  0  0  0  0  0  0  0  0  0
    0.7790   -3.5560    1.3270 C   0  0  0  0  0  0  0  0  0  0  0  0
    0.4990   -3.7100   -0.1680 C   0  0  2  0  0  0  0  0  0  0  0  0
    1.6420   -4.2480   -0.7870 O   0  0  0  0  0  0  0  0  0  0  0  0
    0.4610   -2.2450   -0.5700 C   0  0  0  0  0  0  0  0  0  0  0  0
   -0.3670   -1.6670   -1.4110 C   0  0  0  0  0  0  0  0  0  0  0  0
   -1.4090   -2.5820   -2.0220 C   0  0  0  0  0  0  0  0  0  0  0  0
   -2.3120   -3.2910   -1.2840 C   0  0  0  0  0  0  0  0  0  0  0  0
   -3.0890   -4.0090   -2.1910 C   0  0  0  0  0  0  0  0  0  0  0  0
   -2.5910   -3.6760   -3.4320 C   0  0  0  0  0  0  0  0  0  0  0  0
   -1.6050   -2.8340   -3.2730 O   0  0  0  0  0  0  0  0  0  0  0  0
   -0.3890   -0.3560   -1.7830 O   0  0  0  0  0  0  0  0  0  0  0  0
  1  2  1  0
  2  3  1  0
  3  4  2  0
  3 10  1  0
  4  5  1  0
  4  6  1  0
  6  7  2  0
  7  8  1  0
  7  9  1  0
  9 10  2  0
 10 11  1  0
 12 11  1  1
 12 13  1  0
 12 39  1  0
 13 14  1  0
 14 15  1  6
 14 16  1  0
 16 17  2  0
 16 18  1  0
 18 19  1  0
 19 20  1  6
 19 23  1  0
 20 21  1  0
 21 22  1  0
 23 24  1  1
 23 26  1  0
 24 25  1  0
 26 27  1  0
 27 28  2  0
 27 32  1  0
 28 29  1  0
 29 30  1  0
 30 31  1  6
 30 32  1  0
 32 33  2  0
 33 34  1  0
 33 39  1  0
 34 35  2  0
 34 38  1  0
 35 36  1  0
 36 37  2  0
 37 38  1  0
M  CHG  1  25   1
M  END
