
     RDKit          3D

 39 42  0  0  0  0  0  0  0  0999 V2000
   -6.3750    0.9180   -0.7330 C   0  0  0  0  0  0  0  0  0  0  0  0
   -5.6890    0.4040    0.5200 C   0  0  1  0  0  0  0  0  0  0  0  0
   -6.6560   -0.4500    1.2680 C   0  0  0  0  0  0  0  0  0  0  0  0
   -4.3610   -0.1370    0.2370 C   0  0  0  0  0  0  0  0  0  0  0  0
   -4.2020   -1.5330    0.3400 C   0  0  0  0  0  0  0  0  0  0  0  0
   -5.3690   -2.2860    0.5690 O   0  0  0  0  0  0  0  0  0  0  0  0
   -2.9950   -2.1420    0.2180 C   0  0  0  0  0  0  0  0  0  0  0  0
   -1.8120   -1.4130   -0.0200 C   0  0  0  0  0  0  0  0  0  0  0  0
   -1.9170   -0.0650   -0.1160 C   0  0  0  0  0  0  0  0  0  0  0  0
   -0.8370    0.7980   -0.2830 C   0  0  0  0  0  0  0  0  0  0  0  0
   -0.9710    2.1840   -0.3430 C   0  0  0  0  0  0  0  0  0  0  0  0
   -2.1810    2.7820   -0.2340 C   0  0  0  0  0  0  0  0  0  0  0  0
   -2.3400    4.2440   -0.2510 C   0  0  0  0  0  0  0  0  0  0  0  0
   -1.0600    4.8170   -0.4760 O   0  0  0  0  0  0  0  0  0  0  0  0
   -3.2780    1.9370   -0.0570 C   0  0  0  0  0  0  0  0  0  0  0  0
   -4.4840    2.5820    0.0560 O   0  0  0  0  0  0  0  0  0  0  0  0
   -3.1870    0.5770    0.0070 C   0  0  0  0  0  0  0  0  0  0  0  0
    0.6030    0.4000   -0.2170 C   0  0  0  0  0  0  0  0  0  0  0  0
    1.1880    0.4150   -1.4480 O   0  0  0  0  0  0  0  0  0  0  0  0
    2.2680    1.0620   -1.9730 C   0  0  0  0  0  0  0  0  0  0  0  0
    2.1600    1.9680   -2.8970 O   0  0  0  0  0  0  0  0  0  0  0  0
    3.6270    0.8490   -1.6000 C   0  0  1  0  0  0  0  0  0  0  0  0
    4.4080    2.1030   -1.1790 C   0  0  0  0  0  0  0  0  0  0  0  0
    5.7370    1.4380   -0.9020 C   0  0  2  0  0  0  0  0  0  0  0  0
    6.6570    1.8360   -2.0690 C   0  0  0  0  0  0  0  0  0  0  0  0
    6.7680    3.2480   -1.9900 O   0  0  0  0  0  0  0  0  0  0  0  0
    5.5310    0.0680   -0.8490 O   0  0  0  0  0  0  0  0  0  0  0  0
    4.1030   -0.0930   -0.5860 C   0  0  1  0  0  0  0  0  0  0  0  0
    3.9650    0.1830    0.8440 C   0  0  2  0  0  0  0  0  0  0  0  0
    5.2150    0.5390    1.4630 O   0  0  0  0  0  0  0  0  0  0  0  0
    3.5210   -0.9900    1.6970 C   0  0  0  0  0  0  0  0  0  0  0  0
    3.4140   -0.6170    2.9390 O   0  0  0  0  0  0  0  0  0  0  0  0
    3.2720   -2.2270    1.2750 O   0  0  0  0  0  0  0  0  0  0  0  0
    2.2280   -2.8930    0.6470 C   0  0  0  0  0  0  0  0  0  0  0  0
    1.0270   -2.9950    1.5240 C   0  0  2  0  0  0  0  0  0  0  0  0
    1.1670   -4.0030    2.4930 O   0  0  0  0  0  0  0  0  0  0  0  0
   -0.2770   -3.2040    0.8590 C   0  0  2  0  0  0  0  0  0  0  0  0
   -0.4740   -4.6430    0.5370 N   0  0  0  0  0  0  0  0  0  0  0  0
   -0.6470   -2.3170   -0.2650 C   0  0  0  0  0  0  0  0  0  0  0  0
  2  1  1  6
  2  3  1  0
  2  4  1  0
  4  5  2  0
  4 17  1  0
  5  6  1  0
  5  7  1  0
  7  8  2  0
  8  9  1  0
  8 39  1  0
  9 10  2  0
  9 17  1  0
 10 11  1  0
 10 18  1  0
 11 12  2  0
 12 13  1  0
 12 15  1  0
 13 14  1  0
 15 16  1  0
 15 17  2  0
 18 19  1  0
 19 20  1  0
 20 21  2  0
 20 22  1  0
 22 23  1  1
 22 28  1  0
 23 24  1  0
 24 25  1  6
 24 27  1  0
 25 26  1  0
 28 27  1  6
 28 29  1  0
 29 30  1  1
 29 31  1  0
 31 32  2  0
 31 33  1  0
 33 34  1  0
 34 35  1  0
 35 36  1  1
 35 37  1  0
 37 38  1  6
 37 39  1  0
M  CHG  1  38   1
M  END
