
     RDKit          3D

 38 42  0  0  0  0  0  0  0  0999 V2000
   -3.4960    0.7890    2.2310 O   0  0  0  0  0  0  0  0  0  0  0  0
   -3.8830    1.2180    1.1380 C   0  0  0  0  0  0  0  0  0  0  0  0
   -3.3160    0.7260   -0.1570 C   0  0  1  0  0  0  0  0  0  0  0  0
   -2.8500    1.9320   -0.8880 C   0  0  0  0  0  0  0  0  0  0  0  0
   -2.2770    1.7570   -2.1080 O   0  0  0  0  0  0  0  0  0  0  0  0
   -2.2800   -0.2240    0.1420 N   0  0  0  0  0  0  0  0  0  0  0  0
   -0.9330    0.1240   -0.1540 C   0  0  1  0  0  0  0  0  0  0  0  0
   -0.1320    0.0220    1.1470 C   0  0  0  0  0  0  0  0  0  0  0  0
    0.6610    1.2220    1.4430 C   0  0  0  0  0  0  0  0  0  0  0  0
    0.3290    2.2900    0.8530 O   0  0  0  0  0  0  0  0  0  0  0  0
    1.7010    1.1070    2.3340 O   0  0  0  0  0  0  0  0  0  0  0  0
    2.7390    0.1560    2.2660 C   0  0  0  0  0  0  0  0  0  0  0  0
    3.6130    0.5320    1.1230 C   0  0  0  0  0  0  0  0  0  0  0  0
    3.7680    1.8930    0.9310 C   0  0  0  0  0  0  0  0  0  0  0  0
    4.5230    2.3690   -0.1050 C   0  0  0  0  0  0  0  0  0  0  0  0
    5.1210    1.4930   -0.9450 C   0  0  0  0  0  0  0  0  0  0  0  0
    4.9660    0.1290   -0.7510 C   0  0  0  0  0  0  0  0  0  0  0  0
    4.2110   -0.3990    0.2830 C   0  0  0  0  0  0  0  0  0  0  0  0
    4.0610   -1.6980    0.4750 O   0  0  0  0  0  0  0  0  0  0  0  0
    3.1810   -2.6830    0.7140 C   0  0  0  0  0  0  0  0  0  0  0  0
    3.4520   -3.5340    1.7630 C   0  0  0  0  0  0  0  0  0  0  0  0
    2.6480   -4.6060    2.1450 C   0  0  0  0  0  0  0  0  0  0  0  0
    1.4970   -4.8580    1.4440 C   0  0  0  0  0  0  0  0  0  0  0  0
    1.2070   -4.0180    0.3900 C   0  0  0  0  0  0  0  0  0  0  0  0
    2.0010   -2.9430   -0.0010 C   0  0  0  0  0  0  0  0  0  0  0  0
    1.6150   -2.1600   -1.0770 O   0  0  0  0  0  0  0  0  0  0  0  0
    1.1640   -0.8570   -1.2010 C   0  0  0  0  0  0  0  0  0  0  0  0
   -0.3500   -0.7740   -1.2240 C   0  0  1  0  0  0  0  0  0  0  0  0
   -0.9290   -2.0320   -1.0820 O   0  0  0  0  0  0  0  0  0  0  0  0
    5.8180    2.2440   -1.8980 O   0  0  0  0  0  0  0  0  0  0  0  0
    5.7800    3.6000   -1.6030 C   0  0  0  0  0  0  0  0  0  0  0  0
    4.8140    3.7830   -0.4860 C   0  0  0  0  0  0  0  0  0  0  0  0
   -4.4970    0.0480   -0.8400 C   0  0  1  0  0  0  0  0  0  0  0  0
   -5.0270   -1.0820   -0.0090 C   0  0  0  0  0  0  0  0  0  0  0  0
   -5.6770   -0.4150    1.0200 O   0  0  0  0  0  0  0  0  0  0  0  0
   -6.5510    0.4000    0.2830 C   0  0  0  0  0  0  0  0  0  0  0  0
   -5.6820    0.9700   -0.8500 C   0  0  2  0  0  0  0  0  0  0  0  0
   -6.4370    0.8360   -2.0210 O   0  0  0  0  0  0  0  0  0  0  0  0
  1  2  2  0
  2  3  1  0
  3  4  1  6
  3  6  1  0
  3 33  1  0
  4  5  1  0
  7  6  1  1
  7  8  1  0
  7 28  1  0
  8  9  1  0
  9 10  2  0
  9 11  1  0
 11 12  1  0
 12 13  1  0
 13 14  2  0
 13 18  1  0
 14 15  1  0
 15 16  2  0
 15 32  1  0
 16 17  1  0
 16 30  1  0
 17 18  2  0
 18 19  1  0
 19 20  1  0
 20 21  2  0
 20 25  1  0
 21 22  1  0
 22 23  2  0
 23 24  1  0
 24 25  2  0
 25 26  1  0
 26 27  1  0
 27 28  1  0
 28 29  1  1
 30 31  1  0
 31 32  1  0
 33 34  1  1
 33 37  1  0
 34 35  1  0
 35 36  1  0
 36 37  1  0
 37 38  1  6
M  CHG  1   6   1
M  END
