
     RDKit          3D

 39 42  0  0  0  0  0  0  0  0999 V2000
   -4.9630    4.2040   -0.9910 C   0  0  0  0  0  0  0  0  0  0  0  0
   -5.5360    3.0480   -1.5670 O   0  0  0  0  0  0  0  0  0  0  0  0
   -5.8650    1.9280   -0.7530 C   0  0  0  0  0  0  0  0  0  0  0  0
   -7.1750    2.0280   -0.2680 C   0  0  0  0  0  0  0  0  0  0  0  0
   -7.9480    3.1470   -0.6170 O   0  0  0  0  0  0  0  0  0  0  0  0
   -7.6460    1.0280    0.5270 C   0  0  0  0  0  0  0  0  0  0  0  0
   -8.9310    1.0540    1.0460 O   0  0  0  0  0  0  0  0  0  0  0  0
   -6.8000   -0.0350    0.8120 C   0  0  0  0  0  0  0  0  0  0  0  0
   -5.4980   -0.1570    0.3450 C   0  0  0  0  0  0  0  0  0  0  0  0
   -5.0050    0.8900   -0.4880 C   0  0  0  0  0  0  0  0  0  0  0  0
   -3.7700    0.8930   -1.0080 O   0  0  0  0  0  0  0  0  0  0  0  0
   -2.4590    1.0620   -0.6860 C   0  0  0  0  0  0  0  0  0  0  0  0
   -2.2640    1.4770    0.7270 C   0  0  0  0  0  0  0  0  0  0  0  0
   -0.9690    1.3100    1.2190 O   0  0  0  0  0  0  0  0  0  0  0  0
    0.2200    0.8730    0.7230 C   0  0  0  0  0  0  0  0  0  0  0  0
    1.1850    1.8680    0.4720 C   0  0  0  0  0  0  0  0  0  0  0  0
    2.4420    1.6340   -0.0380 C   0  0  0  0  0  0  0  0  0  0  0  0
    2.8340    0.3600   -0.3400 C   0  0  0  0  0  0  0  0  0  0  0  0
    4.0700    0.0880   -0.8450 O   0  0  0  0  0  0  0  0  0  0  0  0
    5.1410    0.8860   -1.1380 C   0  0  0  0  0  0  0  0  0  0  0  0
    5.7750    1.6100   -0.0140 C   0  0  0  0  0  0  0  0  0  0  0  0
    7.0770    1.4040    0.2940 C   0  0  0  0  0  0  0  0  0  0  0  0
    7.9030    0.4470   -0.4890 C   0  0  2  0  0  0  0  0  0  0  0  0
    7.4770   -0.8850   -0.2990 O   0  0  0  0  0  0  0  0  0  0  0  0
    9.3300    0.5130    0.0240 C   0  0  0  0  0  0  0  0  0  0  0  0
    9.8410    1.8160   -0.1260 O   0  0  0  0  0  0  0  0  0  0  0  0
    1.9020   -0.6390   -0.1010 C   0  0  0  0  0  0  0  0  0  0  0  0
    0.6260   -0.4060    0.4190 C   0  0  0  0  0  0  0  0  0  0  0  0
   -0.1200   -1.6940    0.6290 C   0  0  2  0  0  0  0  0  0  0  0  0
   -1.3010   -1.6280    1.5260 C   0  0  0  0  0  0  0  0  0  0  0  0
   -2.5680   -2.1410    0.8650 C   0  0  0  0  0  0  0  0  0  0  0  0
   -3.8040   -1.6360    1.5790 C   0  0  0  0  0  0  0  0  0  0  0  0
   -4.7350   -1.2220    0.6630 O   0  0  0  0  0  0  0  0  0  0  0  0
    0.7820   -2.8340    1.1830 C   0  0  2  0  0  0  0  0  0  0  0  0
    2.0430   -2.4940    1.5440 O   0  0  0  0  0  0  0  0  0  0  0  0
    0.5130   -3.7040    0.0150 C   0  0  2  0  0  0  0  0  0  0  0  0
    1.6020   -4.2430   -0.7300 N   0  0  0  0  0  0  0  0  0  0  0  0
   -0.2280   -2.5270   -0.6240 C   0  0  2  0  0  0  0  0  0  0  0  0
    0.4180   -1.9550   -1.7200 O   0  0  0  0  0  0  0  0  0  0  0  0
  1  2  1  0
  2  3  1  0
  3  4  2  0
  3 10  1  0
  4  5  1  0
  4  6  1  0
  6  7  1  0
  6  8  2  0
  8  9  1  0
  9 10  2  0
  9 33  1  0
 10 11  1  0
 11 12  1  0
 12 13  1  0
 13 14  1  0
 14 15  1  0
 15 16  2  0
 15 28  1  0
 16 17  1  0
 17 18  2  0
 18 19  1  0
 18 27  1  0
 19 20  1  0
 20 21  1  0
 21 22  2  3
 22 23  1  0
 23 24  1  1
 23 25  1  0
 25 26  1  0
 27 28  2  0
 28 29  1  0
 29 30  1  1
 29 34  1  0
 29 38  1  0
 30 31  1  0
 31 32  1  0
 32 33  1  0
 34 35  1  6
 34 36  1  0
 36 37  1  6
 36 38  1  0
 38 39  1  6
M  CHG  1  37   1
M  END
