
     RDKit          3D

 39 43  0  0  0  0  0  0  0  0999 V2000
    8.0890   -1.2000    0.2340 C   0  0  0  0  0  0  0  0  0  0  0  0
    8.0430    0.0790   -0.6520 C   0  0  0  0  0  0  0  0  0  0  0  0
    7.0880   -0.1650   -1.6150 O   0  0  0  0  0  0  0  0  0  0  0  0
    6.7660    0.5370   -2.7530 C   0  0  0  0  0  0  0  0  0  0  0  0
    7.3850    1.5410   -3.0630 O   0  0  0  0  0  0  0  0  0  0  0  0
    5.5970   -0.0720   -3.5490 C   0  0  0  0  0  0  0  0  0  0  0  0
    4.4980    0.0930   -2.5880 O   0  0  0  0  0  0  0  0  0  0  0  0
    4.4980   -0.8090   -1.5310 N   0  0  0  0  0  0  0  0  0  0  0  0
    4.0830   -0.2960   -0.3770 C   0  0  0  0  0  0  0  0  0  0  0  0
    4.0740   -1.1500    0.7850 C   0  0  0  0  0  0  0  0  0  0  0  0
    3.6800   -0.7470    2.0310 C   0  0  0  0  0  0  0  0  0  0  0  0
    3.7590   -1.6230    3.1210 C   0  0  0  0  0  0  0  0  0  0  0  0
    4.2290   -2.9060    2.9810 C   0  0  0  0  0  0  0  0  0  0  0  0
    4.6160   -3.2680    1.7070 C   0  0  0  0  0  0  0  0  0  0  0  0
    4.5280   -2.4110    0.6900 N   0  0  0  0  0  0  0  0  0  0  0  0
    3.6090    1.0790   -0.3460 C   0  0  1  0  0  0  0  0  0  0  0  0
    2.0840    1.0560   -0.1100 C   0  0  0  0  0  0  0  0  0  0  0  0
    1.5300    1.7670    0.9210 C   0  0  0  0  0  0  0  0  0  0  0  0
    0.1530    1.7470    1.1450 C   0  0  0  0  0  0  0  0  0  0  0  0
   -0.6650    0.9930    0.3080 C   0  0  0  0  0  0  0  0  0  0  0  0
   -0.1190    0.2810   -0.7250 C   0  0  0  0  0  0  0  0  0  0  0  0
    1.2580    0.3220   -0.9230 C   0  0  0  0  0  0  0  0  0  0  0  0
   -1.1730   -0.3320   -1.3110 N   0  0  0  0  0  0  0  0  0  0  0  0
   -2.3250   -0.0450   -0.7080 C   0  0  0  0  0  0  0  0  0  0  0  0
   -3.7190   -0.5360   -1.0070 C   0  0  0  0  0  0  0  0  0  0  0  0
   -4.6650    0.4650   -0.6580 N   0  0  0  0  0  0  0  0  0  0  0  0
   -6.0040    0.1860   -0.3170 C   0  0  0  0  0  0  0  0  0  0  0  0
   -6.8910    1.2170   -0.0270 C   0  0  0  0  0  0  0  0  0  0  0  0
   -8.1930    0.9730    0.3510 C   0  0  0  0  0  0  0  0  0  0  0  0
   -8.6920   -0.2920    0.4640 C   0  0  0  0  0  0  0  0  0  0  0  0
  -10.0460   -0.6320    0.8750 C   0  0  0  0  0  0  0  0  0  0  0  0
  -10.4570   -2.0060    0.8860 N   0  0  0  0  0  0  0  0  0  0  0  0
  -10.8780    0.2560    1.2080 N   0  0  0  0  0  0  0  0  0  0  0  0
   -7.7960   -1.3330    0.1690 C   0  0  0  0  0  0  0  0  0  0  0  0
   -6.4960   -1.0980   -0.2080 C   0  0  0  0  0  0  0  0  0  0  0  0
   -1.9900    0.7840    0.3040 N   0  0  0  0  0  0  0  0  0  0  0  0
   -2.8970    1.3710    1.2960 C   0  0  0  0  0  0  0  0  0  0  0  0
    4.3410    2.2140    0.2820 C   0  0  0  0  0  0  0  0  0  0  0  0
    4.0030    2.2060   -1.1800 C   0  0  0  0  0  0  0  0  0  0  0  0
  1  2  1  0
  2  3  1  0
  3  4  1  0
  4  5  2  0
  4  6  1  0
  6  7  1  0
  7  8  1  0
  8  9  2  3
  9 10  1  0
 16  9  1  6
 10 11  2  0
 10 15  1  0
 11 12  1  0
 12 13  2  0
 13 14  1  0
 14 15  2  0
 16 17  1  0
 16 38  1  0
 16 39  1  0
 17 18  2  0
 17 22  1  0
 18 19  1  0
 19 20  2  0
 20 21  1  0
 20 36  1  0
 21 22  2  0
 21 23  1  0
 23 24  2  0
 24 25  1  0
 24 36  1  0
 25 26  1  0
 26 27  1  0
 27 28  2  0
 27 35  1  0
 28 29  1  0
 29 30  2  0
 30 31  1  0
 30 34  1  0
 31 32  1  0
 31 33  2  0
 34 35  2  0
 36 37  1  0
 38 39  1  0
M  CHG  1  33   1
M  END
