
     RDKit          3D

 39 42  0  0  0  0  0  0  0  0999 V2000
   -2.8110    5.3770    0.0430 C   0  0  0  0  0  0  0  0  0  0  0  0
   -2.0800    4.1420    0.5230 C   0  0  0  0  0  0  0  0  0  0  0  0
   -1.5240    3.3470   -0.6380 C   0  0  0  0  0  0  0  0  0  0  0  0
   -0.8000    2.1190   -0.2600 C   0  0  0  0  0  0  0  0  0  0  0  0
   -1.4700    1.0250    0.4430 C   0  0  2  0  0  0  0  0  0  0  0  0
   -0.3510   -0.0150    0.7060 C   0  0  0  0  0  0  0  0  0  0  0  0
    0.1940   -0.4410   -0.4580 O   0  0  0  0  0  0  0  0  0  0  0  0
    1.1780   -1.3820   -0.3970 C   0  0  1  0  0  0  0  0  0  0  0  0
    2.4750   -0.9520    0.2140 C   0  0  0  0  0  0  0  0  0  0  0  0
    3.1280    0.1750   -0.5250 C   0  0  1  0  0  0  0  0  0  0  0  0
    2.3670    1.3140   -0.5940 O   0  0  0  0  0  0  0  0  0  0  0  0
    4.4890    0.4520    0.0180 C   0  0  0  0  0  0  0  0  0  0  0  0
    4.9800   -0.2470    1.0700 C   0  0  0  0  0  0  0  0  0  0  0  0
    6.2580    0.0530    1.5490 C   0  0  0  0  0  0  0  0  0  0  0  0
    7.0100    1.0340    0.9730 C   0  0  0  0  0  0  0  0  0  0  0  0
    6.4980    1.7420   -0.1020 C   0  0  0  0  0  0  0  0  0  0  0  0
    5.2380    1.4560   -0.5850 C   0  0  0  0  0  0  0  0  0  0  0  0
    4.9440    2.2830   -1.6520 O   0  0  0  0  0  0  0  0  0  0  0  0
    6.0060    3.2060   -1.7670 C   0  0  0  0  0  0  0  0  0  0  0  0
    7.0130    2.7700   -0.8750 O   0  0  0  0  0  0  0  0  0  0  0  0
    8.2350    1.1530    1.6130 O   0  0  0  0  0  0  0  0  0  0  0  0
    8.3070    0.0860    2.5320 C   0  0  0  0  0  0  0  0  0  0  0  0
    6.9960   -0.4820    2.5820 O   0  0  0  0  0  0  0  0  0  0  0  0
    0.6930   -2.6950    0.1840 C   0  0  0  0  0  0  0  0  0  0  0  0
    0.2630   -3.6580   -0.8840 C   0  0  0  0  0  0  0  0  0  0  0  0
    0.8460   -3.4750   -1.9900 O   0  0  0  0  0  0  0  0  0  0  0  0
   -0.6500   -4.5930   -0.6250 O   0  0  0  0  0  0  0  0  0  0  0  0
   -2.0120   -4.7360   -0.7970 C   0  0  0  0  0  0  0  0  0  0  0  0
   -2.8070   -3.4980   -1.0210 C   0  0  0  0  0  0  0  0  0  0  0  0
   -3.6250   -3.1730    0.1760 C   0  0  2  0  0  0  0  0  0  0  0  0
   -4.8340   -3.8390    0.1380 O   0  0  0  0  0  0  0  0  0  0  0  0
   -3.9440   -1.6660    0.3090 C   0  0  1  0  0  0  0  0  0  0  0  0
   -4.7920   -1.6190    1.5930 C   0  0  0  0  0  0  0  0  0  0  0  0
   -5.9620   -2.3570    1.4480 O   0  0  0  0  0  0  0  0  0  0  0  0
   -2.7630   -0.9230    0.4520 N   0  0  0  0  0  0  0  0  0  0  0  0
   -2.6400    0.3470   -0.2250 C   0  0  1  0  0  0  0  0  0  0  0  0
   -3.8990    1.1240    0.0570 C   0  0  0  0  0  0  0  0  0  0  0  0
   -2.4850    0.1920   -1.7080 C   0  0  0  0  0  0  0  0  0  0  0  0
   -3.5930   -0.4500   -2.2580 O   0  0  0  0  0  0  0  0  0  0  0  0
  1  2  1  0
  2  3  1  0
  3  4  1  0
  5  4  1  6
  5  6  1  0
  5 36  1  0
  6  7  1  0
  7  8  1  0
  8  9  1  1
  8 24  1  0
  9 10  1  0
 10 11  1  1
 10 12  1  0
 12 13  2  0
 12 17  1  0
 13 14  1  0
 14 15  2  0
 14 23  1  0
 15 16  1  0
 15 21  1  0
 16 17  2  0
 16 20  1  0
 17 18  1  0
 18 19  1  0
 19 20  1  0
 21 22  1  0
 22 23  1  0
 24 25  1  0
 25 26  2  0
 25 27  1  0
 27 28  1  0
 28 29  1  0
 29 30  1  0
 30 31  1  6
 30 32  1  0
 32 33  1  1
 32 35  1  0
 33 34  1  0
 35 36  1  0
 36 37  1  6
 36 38  1  0
 38 39  1  0
M  CHG  1  35   1
M  END
