
     RDKit          3D

 39 42  0  0  0  0  0  0  0  0999 V2000
   -0.5330    6.4690   -0.4890 C   0  0  0  0  0  0  0  0  0  0  0  0
    0.6270    5.7440   -1.1610 C   0  0  0  0  0  0  0  0  0  0  0  0
    0.9750    4.6290   -0.3600 O   0  0  0  0  0  0  0  0  0  0  0  0
    0.0630    3.5950   -0.1110 C   0  0  0  0  0  0  0  0  0  0  0  0
   -1.0670    3.6980   -0.6330 O   0  0  0  0  0  0  0  0  0  0  0  0
    0.4790    2.4710    0.7300 C   0  0  0  0  0  0  0  0  0  0  0  0
    0.2760    1.1110    0.1340 C   0  0  1  0  0  0  0  0  0  0  0  0
   -1.0820    0.7890   -0.2020 N   0  0  0  0  0  0  0  0  0  0  0  0
   -1.4910   -0.3630    0.6140 C   0  0  0  0  0  0  0  0  0  0  0  0
   -2.9760   -0.4340    0.7140 C   0  0  0  0  0  0  0  0  0  0  0  0
   -3.7440   -1.4250    0.1290 C   0  0  0  0  0  0  0  0  0  0  0  0
   -5.1210   -1.3160    0.3180 C   0  0  0  0  0  0  0  0  0  0  0  0
   -5.6910   -0.2910    1.0410 C   0  0  0  0  0  0  0  0  0  0  0  0
   -7.0870   -0.2120    1.2140 O   0  0  0  0  0  0  0  0  0  0  0  0
   -7.8830   -1.2150    0.6270 C   0  0  0  0  0  0  0  0  0  0  0  0
   -4.8900    0.6850    1.6140 C   0  0  0  0  0  0  0  0  0  0  0  0
   -5.4690    1.7220    2.3460 O   0  0  0  0  0  0  0  0  0  0  0  0
   -3.5250    0.6190    1.4530 C   0  0  0  0  0  0  0  0  0  0  0  0
   -2.7090    1.6010    2.0280 O   0  0  0  0  0  0  0  0  0  0  0  0
   -3.2120   -2.4520   -0.5920 O   0  0  0  0  0  0  0  0  0  0  0  0
   -2.2780   -3.4310   -0.2340 C   0  0  0  0  0  0  0  0  0  0  0  0
   -1.2720   -3.6250   -1.3430 C   0  0  2  0  0  0  0  0  0  0  0  0
   -1.5200   -4.7590   -2.1110 O   0  0  0  0  0  0  0  0  0  0  0  0
    0.1440   -3.7140   -0.8340 C   0  0  0  0  0  0  0  0  0  0  0  0
    1.0830   -3.2850   -1.7390 O   0  0  0  0  0  0  0  0  0  0  0  0
    1.1330   -1.9360   -1.9720 C   0  0  0  0  0  0  0  0  0  0  0  0
    2.2880   -1.2760   -1.2680 C   0  0  0  0  0  0  0  0  0  0  0  0
    3.4170   -2.0480   -1.0020 C   0  0  0  0  0  0  0  0  0  0  0  0
    4.5390   -1.5440   -0.3700 C   0  0  0  0  0  0  0  0  0  0  0  0
    4.5070   -0.2030    0.0030 C   0  0  0  0  0  0  0  0  0  0  0  0
    3.4030    0.5670   -0.2530 C   0  0  0  0  0  0  0  0  0  0  0  0
    2.2820    0.0420   -0.8890 C   0  0  0  0  0  0  0  0  0  0  0  0
    1.1470    0.9820   -1.0960 C   0  0  2  0  0  0  0  0  0  0  0  0
    1.6070    2.2480   -1.4590 O   0  0  0  0  0  0  0  0  0  0  0  0
    5.5430    0.4610    0.6440 O   0  0  0  0  0  0  0  0  0  0  0  0
    6.5110    0.0260    1.5720 C   0  0  0  0  0  0  0  0  0  0  0  0
    6.6010   -1.4590    1.6790 C   0  0  0  0  0  0  0  0  0  0  0  0
    6.8310   -2.1650    0.3830 C   0  0  0  0  0  0  0  0  0  0  0  0
    5.5540   -2.4650   -0.1970 O   0  0  0  0  0  0  0  0  0  0  0  0
  1  2  1  0
  2  3  1  0
  3  4  1  0
  4  5  2  0
  4  6  1  0
  7  6  1  6
  7  8  1  0
  7 33  1  0
  8  9  1  0
  9 10  1  0
 10 11  2  0
 10 18  1  0
 11 12  1  0
 11 20  1  0
 12 13  2  0
 13 14  1  0
 13 16  1  0
 14 15  1  0
 16 17  1  0
 16 18  2  0
 18 19  1  0
 20 21  1  0
 21 22  1  0
 22 23  1  1
 22 24  1  0
 24 25  1  0
 25 26  1  0
 26 27  1  0
 27 28  2  0
 27 32  1  0
 28 29  1  0
 29 30  2  0
 29 39  1  0
 30 31  1  0
 30 35  1  0
 31 32  2  0
 32 33  1  0
 33 34  1  1
 35 36  1  0
 36 37  1  0
 37 38  1  0
 38 39  1  0
M  CHG  1   8   1
M  END
