
     RDKit          3D

 38 41  0  0  0  0  0  0  0  0999 V2000
   -4.6070    5.1080    2.1570 C   0  0  0  0  0  0  0  0  0  0  0  0
   -3.4480    4.2770    1.7870 C   0  0  0  0  0  0  0  0  0  0  0  0
   -2.2610    4.5210    2.2960 C   0  0  0  0  0  0  0  0  0  0  0  0
   -1.1240    3.7180    1.9430 C   0  0  0  0  0  0  0  0  0  0  0  0
   -1.1980    2.6670    1.0720 C   0  0  0  0  0  0  0  0  0  0  0  0
   -2.4820    2.3730    0.4960 C   0  0  0  0  0  0  0  0  0  0  0  0
   -2.8570    1.4430   -0.3610 C   0  0  0  0  0  0  0  0  0  0  0  0
   -2.2440    0.3590   -1.0850 C   0  0  1  0  0  0  0  0  0  0  0  0
   -1.4990    0.6660   -2.2780 O   0  0  0  0  0  0  0  0  0  0  0  0
   -2.0170   -0.9370   -0.4970 C   0  0  1  0  0  0  0  0  0  0  0  0
   -2.1360   -1.0860    0.9930 C   0  0  0  0  0  0  0  0  0  0  0  0
   -1.3600   -2.2650    1.5300 C   0  0  2  0  0  0  0  0  0  0  0  0
   -1.9360   -3.5800    1.0130 C   0  0  0  0  0  0  0  0  0  0  0  0
   -1.5000   -2.3230    2.9150 O   0  0  0  0  0  0  0  0  0  0  0  0
    0.0930   -2.2440    1.1890 C   0  0  0  0  0  0  0  0  0  0  0  0
    0.9660   -2.0720    2.3460 C   0  0  0  0  0  0  0  0  0  0  0  0
    0.4680   -1.8390    3.4890 O   0  0  0  0  0  0  0  0  0  0  0  0
    2.3450   -2.1410    2.3210 O   0  0  0  0  0  0  0  0  0  0  0  0
    3.1910   -1.9340    1.2400 C   0  0  0  0  0  0  0  0  0  0  0  0
    4.0980   -2.9220    0.8940 C   0  0  0  0  0  0  0  0  0  0  0  0
    4.9730   -2.8040   -0.1630 C   0  0  0  0  0  0  0  0  0  0  0  0
    5.8800   -3.8080   -0.4990 O   0  0  0  0  0  0  0  0  0  0  0  0
    4.9290   -1.6400   -0.8990 C   0  0  0  0  0  0  0  0  0  0  0  0
    4.0380   -0.6350   -0.5830 C   0  0  0  0  0  0  0  0  0  0  0  0
    4.0410    0.4890   -1.3570 O   0  0  0  0  0  0  0  0  0  0  0  0
    4.7890    0.7440   -2.4680 C   0  0  0  0  0  0  0  0  0  0  0  0
    4.5580   -0.0760   -3.6900 C   0  0  0  0  0  0  0  0  0  0  0  0
    3.2390    0.0440   -4.1580 O   0  0  0  0  0  0  0  0  0  0  0  0
    3.1550   -0.7790    0.5040 C   0  0  0  0  0  0  0  0  0  0  0  0
    2.3030    0.2690    0.7570 O   0  0  0  0  0  0  0  0  0  0  0  0
    2.0600    0.8870    2.0060 C   0  0  0  0  0  0  0  0  0  0  0  0
    0.6680    1.4050    2.1720 C   0  0  0  0  0  0  0  0  0  0  0  0
    0.1150    1.9870    0.8810 C   0  0  1  0  0  0  0  0  0  0  0  0
    0.2780    1.1500   -0.1410 O   0  0  0  0  0  0  0  0  0  0  0  0
   -3.2020   -0.8220   -1.3440 C   0  0  2  0  0  0  0  0  0  0  0  0
   -3.2780   -1.4050   -2.7260 C   0  0  0  0  0  0  0  0  0  0  0  0
   -3.6870   -0.4770   -3.7290 N   0  0  0  0  0  0  0  0  0  0  0  0
   -3.5630    3.2440    0.9190 O   0  0  0  0  0  0  0  0  0  0  0  0
  1  2  1  0
  2  3  2  0
  2 38  1  0
  3  4  1  0
  4  5  2  0
  5  6  1  0
  5 33  1  0
  6  7  2  0
  6 38  1  0
  7  8  1  0
  8  9  1  6
  8 10  1  0
  8 35  1  0
 10 11  1  1
 10 35  1  0
 11 12  1  0
 12 13  1  6
 12 14  1  0
 12 15  1  0
 15 16  1  0
 16 17  2  0
 16 18  1  0
 18 19  1  0
 19 20  2  0
 19 29  1  0
 20 21  1  0
 21 22  1  0
 21 23  2  0
 23 24  1  0
 24 25  1  0
 24 29  2  0
 25 26  1  0
 26 27  1  0
 27 28  1  0
 29 30  1  0
 30 31  1  0
 31 32  1  0
 32 33  1  0
 33 34  1  6
 35 36  1  6
 36 37  1  0
M  CHG  1  37   1
M  END
