
     RDKit          3D

 39 43  0  0  0  0  0  0  0  0999 V2000
   -4.1250    2.4550    4.2220 C   0  0  0  0  0  0  0  0  0  0  0  0
   -3.6200    1.0420    4.4200 C   0  0  0  0  0  0  0  0  0  0  0  0
   -4.0340    0.2820    3.2980 O   0  0  0  0  0  0  0  0  0  0  0  0
   -3.6500    0.5960    2.0040 C   0  0  0  0  0  0  0  0  0  0  0  0
   -2.9090    1.5970    1.8600 O   0  0  0  0  0  0  0  0  0  0  0  0
   -4.1040   -0.2200    0.8840 C   0  0  0  0  0  0  0  0  0  0  0  0
   -4.9200   -1.3070    1.1290 C   0  0  0  0  0  0  0  0  0  0  0  0
   -5.2750   -1.5770    2.4490 O   0  0  0  0  0  0  0  0  0  0  0  0
   -5.3860   -2.1240    0.1000 C   0  0  0  0  0  0  0  0  0  0  0  0
   -6.2590   -3.2710    0.4440 C   0  0  0  0  0  0  0  0  0  0  0  0
   -6.6590   -4.0040   -0.6470 O   0  0  0  0  0  0  0  0  0  0  0  0
   -5.0350   -1.8550   -1.2020 C   0  0  0  0  0  0  0  0  0  0  0  0
   -4.2130   -0.7630   -1.4620 C   0  0  0  0  0  0  0  0  0  0  0  0
   -3.7520    0.0490   -0.4210 C   0  0  0  0  0  0  0  0  0  0  0  0
   -2.9450    1.1160   -0.7160 O   0  0  0  0  0  0  0  0  0  0  0  0
   -1.5800    1.0920   -0.7860 C   0  0  0  0  0  0  0  0  0  0  0  0
   -0.8050   -0.0270   -0.5720 C   0  0  0  0  0  0  0  0  0  0  0  0
    0.5700    0.0230   -0.6590 C   0  0  0  0  0  0  0  0  0  0  0  0
    1.2350    1.1990   -0.9670 C   0  0  0  0  0  0  0  0  0  0  0  0
    0.4710    2.3140   -1.1820 C   0  0  0  0  0  0  0  0  0  0  0  0
   -0.9040    2.2550   -1.0920 C   0  0  0  0  0  0  0  0  0  0  0  0
    1.0480    3.5600   -1.5020 O   0  0  0  0  0  0  0  0  0  0  0  0
    2.3600    3.4890   -2.0820 C   0  0  0  0  0  0  0  0  0  0  0  0
    3.1640    2.6890   -1.0270 C   0  0  0  0  0  0  0  0  0  0  0  0
    2.7160    1.2880   -1.0640 C   0  0  1  0  0  0  0  0  0  0  0  0
    3.4010    0.2910   -0.2070 C   0  0  0  0  0  0  0  0  0  0  0  0
    4.8780    0.3860   -0.2650 C   0  0  1  0  0  0  0  0  0  0  0  0
    5.3480    0.2520   -1.5850 O   0  0  0  0  0  0  0  0  0  0  0  0
    5.5370    1.4640    0.5240 C   0  0  0  0  0  0  0  0  0  0  0  0
    6.7810    1.6940   -0.0860 O   0  0  0  0  0  0  0  0  0  0  0  0
    7.4810    0.4910   -0.1990 C   0  0  0  0  0  0  0  0  0  0  0  0
    6.9090   -0.6190    0.6460 C   0  0  2  0  0  0  0  0  0  0  0  0
    7.6400   -1.7760    0.2870 O   0  0  0  0  0  0  0  0  0  0  0  0
    5.4730   -0.9290    0.3850 C   0  0  1  0  0  0  0  0  0  0  0  0
    4.8040   -1.2140    1.6130 N   0  0  0  0  0  0  0  0  0  0  0  0
   -4.0380   -0.7500   -2.8350 O   0  0  0  0  0  0  0  0  0  0  0  0
   -4.2490   -2.0330   -3.3930 C   0  0  0  0  0  0  0  0  0  0  0  0
   -5.3720   -2.5390   -2.4800 C   0  0  2  0  0  0  0  0  0  0  0  0
   -6.6070   -2.1970   -2.9750 O   0  0  0  0  0  0  0  0  0  0  0  0
  1  2  1  0
  2  3  1  0
  3  4  1  0
  4  5  2  0
  4  6  1  0
  6  7  2  0
  6 14  1  0
  7  8  1  0
  7  9  1  0
  9 10  1  0
  9 12  2  0
 10 11  1  0
 12 13  1  0
 12 38  1  0
 13 14  2  0
 13 36  1  0
 14 15  1  0
 15 16  1  0
 16 17  2  0
 16 21  1  0
 17 18  1  0
 18 19  2  0
 19 20  1  0
 19 25  1  0
 20 21  2  0
 20 22  1  0
 22 23  1  0
 23 24  1  0
 24 25  1  0
 25 26  1  1
 26 27  1  0
 27 28  1  6
 27 29  1  0
 27 34  1  0
 29 30  1  0
 30 31  1  0
 31 32  1  0
 32 33  1  6
 32 34  1  0
 34 35  1  1
 36 37  1  0
 37 38  1  0
 38 39  1  6
M  CHG  1  35   1
M  END
