
     RDKit          3D

 39 42  0  0  0  0  0  0  0  0999 V2000
   -3.5730    4.1630    1.1640 C   0  0  0  0  0  0  0  0  0  0  0  0
   -2.8820    2.8940    1.1790 O   0  0  0  0  0  0  0  0  0  0  0  0
   -2.8340    2.2390   -0.0020 C   0  0  0  0  0  0  0  0  0  0  0  0
   -3.3470    2.7270   -1.0310 O   0  0  0  0  0  0  0  0  0  0  0  0
   -2.1770    0.8820   -0.1800 C   0  0  1  0  0  0  0  0  0  0  0  0
   -3.2530    0.0400   -0.8560 C   0  0  0  0  0  0  0  0  0  0  0  0
   -4.4870    0.0630   -0.0170 C   0  0  0  0  0  0  0  0  0  0  0  0
   -4.3810    0.5960    1.1230 O   0  0  0  0  0  0  0  0  0  0  0  0
   -5.7060   -0.4350   -0.3990 O   0  0  0  0  0  0  0  0  0  0  0  0
   -6.8490   -0.3730    0.4110 C   0  0  1  0  0  0  0  0  0  0  0  0
   -7.7870    0.7130   -0.0430 C   0  0  0  0  0  0  0  0  0  0  0  0
   -7.4790   -1.6750    0.7390 C   0  0  0  0  0  0  0  0  0  0  0  0
   -7.9090   -2.5180   -0.4110 C   0  0  0  0  0  0  0  0  0  0  0  0
   -8.8860   -1.9280   -1.2890 N   0  0  0  0  0  0  0  0  0  0  0  0
   -1.1110    1.2310   -1.2380 C   0  0  0  0  0  0  0  0  0  0  0  0
   -0.2040    0.0440   -1.3880 C   0  0  1  0  0  0  0  0  0  0  0  0
    0.4980    0.1710   -2.5380 O   0  0  0  0  0  0  0  0  0  0  0  0
    1.8330    0.3500   -2.5410 C   0  0  0  0  0  0  0  0  0  0  0  0
    2.2480    1.4840   -1.6870 C   0  0  0  0  0  0  0  0  0  0  0  0
    2.6390    0.9600   -0.2940 C   0  0  2  0  0  0  0  0  0  0  0  0
    2.9250    2.2000    0.4080 O   0  0  0  0  0  0  0  0  0  0  0  0
    3.9360    0.3220   -0.4280 C   0  0  2  0  0  0  0  0  0  0  0  0
    3.9500   -0.8890   -1.2030 O   0  0  0  0  0  0  0  0  0  0  0  0
    4.8330   -0.0570    0.7040 C   0  0  1  0  0  0  0  0  0  0  0  0
    4.5190   -1.1760    1.4150 O   0  0  0  0  0  0  0  0  0  0  0  0
    6.2510    0.1640    0.3920 C   0  0  0  0  0  0  0  0  0  0  0  0
    6.8690    1.3780    0.2360 C   0  0  0  0  0  0  0  0  0  0  0  0
    8.1690    1.1740    0.1390 O   0  0  0  0  0  0  0  0  0  0  0  0
    8.4800   -0.0860    0.2120 C   0  0  0  0  0  0  0  0  0  0  0  0
    9.6850   -0.7370    0.1360 C   0  0  0  0  0  0  0  0  0  0  0  0
    9.7130   -2.1060    0.2100 C   0  0  0  0  0  0  0  0  0  0  0  0
    8.5270   -2.8030    0.3610 C   0  0  0  0  0  0  0  0  0  0  0  0
    8.6480   -4.1850    0.4080 O   0  0  0  0  0  0  0  0  0  0  0  0
    7.3190   -2.1430    0.4480 C   0  0  0  0  0  0  0  0  0  0  0  0
    7.2840   -0.7570    0.3760 C   0  0  0  0  0  0  0  0  0  0  0  0
    1.5330    0.3700    0.4630 C   0  0  0  0  0  0  0  0  0  0  0  0
    0.4550   -0.4010   -0.1540 C   0  0  1  0  0  0  0  0  0  0  0  0
   -0.6770   -0.5680    0.8880 C   0  0  0  0  0  0  0  0  0  0  0  0
   -1.5960    0.4340    0.9090 O   0  0  0  0  0  0  0  0  0  0  0  0
  1  2  1  0
  2  3  1  0
  3  4  2  0
  3  5  1  0
  5  6  1  6
  5 15  1  0
  5 39  1  0
  6  7  1  0
  7  8  2  0
  7  9  1  0
  9 10  1  0
 10 11  1  6
 10 12  1  0
 12 13  1  0
 13 14  1  0
 16 15  1  1
 16 17  1  0
 16 37  1  0
 17 18  1  0
 18 19  1  0
 19 20  1  0
 20 21  1  1
 20 22  1  0
 20 36  1  0
 22 23  1  1
 22 24  1  0
 24 25  1  6
 24 26  1  0
 26 27  2  0
 26 35  1  0
 27 28  1  0
 28 29  1  0
 29 30  2  0
 29 35  1  0
 30 31  1  0
 31 32  2  0
 32 33  1  0
 32 34  1  0
 34 35  2  0
 37 36  1  1
 37 38  1  0
 38 39  1  0
M  CHG  1  14   1
M  END
