
     RDKit          3D

 30 34  0  0  0  0  0  0  0  0999 V2000
   -4.1810   -4.6750   -0.2070 N   0  0  0  0  0  0  0  0  0  0  0  0
   -4.6100   -3.3980   -0.6430 C   0  0  0  0  0  0  0  0  0  0  0  0
   -5.7210   -3.3030   -1.2720 N   0  0  0  0  0  0  0  0  0  0  0  0
   -3.7730   -2.2280   -0.3610 C   0  0  0  0  0  0  0  0  0  0  0  0
   -4.1090   -0.9490   -0.7440 C   0  0  0  0  0  0  0  0  0  0  0  0
   -3.2800    0.1430   -0.4550 C   0  0  0  0  0  0  0  0  0  0  0  0
   -2.0970   -0.0280    0.2260 C   0  0  0  0  0  0  0  0  0  0  0  0
   -1.2320    1.0920    0.5390 C   0  0  1  0  0  0  0  0  0  0  0  0
    0.1830    0.7200    0.9010 C   0  0  1  0  0  0  0  0  0  0  0  0
    0.9680    0.1480   -0.2080 C   0  0  0  0  0  0  0  0  0  0  0  0
    0.5750   -0.6910   -1.0400 O   0  0  0  0  0  0  0  0  0  0  0  0
    2.2850    0.7200   -0.1820 N   0  0  0  0  0  0  0  0  0  0  0  0
    3.4660    0.2770   -0.9190 C   0  0  0  0  0  0  0  0  0  0  0  0
    4.2520   -0.7070   -0.1790 C   0  0  0  0  0  0  0  0  0  0  0  0
    5.2600   -0.3040    0.6610 C   0  0  0  0  0  0  0  0  0  0  0  0
    6.0350   -1.1860    1.3840 C   0  0  0  0  0  0  0  0  0  0  0  0
    5.7470   -2.5230    1.2220 C   0  0  0  0  0  0  0  0  0  0  0  0
    6.4880   -3.4310    1.9170 F   0  0  0  0  0  0  0  0  0  0  0  0
    4.7420   -2.9580    0.3860 C   0  0  0  0  0  0  0  0  0  0  0  0
    3.9840   -2.0470   -0.3240 C   0  0  0  0  0  0  0  0  0  0  0  0
    2.2080    1.8250    0.7260 C   0  0  0  0  0  0  0  0  0  0  0  0
    3.1430    2.4100    1.2910 O   0  0  0  0  0  0  0  0  0  0  0  0
    0.7770    2.1470    0.8650 C   0  0  1  0  0  0  0  0  0  0  0  0
    0.2530    2.5960   -0.4590 C   0  0  2  0  0  0  0  0  0  0  0  0
    0.1930    4.0930   -0.6030 C   0  0  0  0  0  0  0  0  0  0  0  0
   -1.2050    4.4040   -0.1270 C   0  0  0  0  0  0  0  0  0  0  0  0
   -2.0010    3.1410   -0.3630 C   0  0  0  0  0  0  0  0  0  0  0  0
   -1.0720    2.0660   -0.5300 N   0  0  2  0  0  0  0  0  0  0  0  0
   -1.7780   -1.3000    0.6000 C   0  0  0  0  0  0  0  0  0  0  0  0
   -2.5730   -2.3930    0.3290 C   0  0  0  0  0  0  0  0  0  0  0  0
  1  2  1  0
  2  3  2  0
  2  4  1  0
  4  5  2  0
  4 30  1  0
  5  6  1  0
  6  7  2  0
  8  7  1  6
  7 29  1  0
  8  9  1  0
  8 28  1  0
  9 10  1  6
  9 23  1  0
 10 11  2  0
 10 12  1  0
 12 13  1  0
 12 21  1  0
 13 14  1  0
 14 15  2  0
 14 20  1  0
 15 16  1  0
 16 17  2  0
 17 18  1  0
 17 19  1  0
 19 20  2  0
 21 22  2  0
 23 21  1  6
 23 24  1  0
 24 25  1  1
 24 28  1  0
 25 26  1  0
 26 27  1  0
 28 27  1  1
 29 30  2  0
M  CHG  2   3   1  28   1
M  END
