
     RDKit          3D

 30 32  0  0  0  0  0  0  0  0999 V2000
   -7.8060    3.7140    0.7640 C   0  0  0  0  0  0  0  0  0  0  0  0
   -6.3360    3.6850    0.6590 N   0  0  0  0  0  0  0  0  0  0  0  0
   -5.6090    4.8970    0.8420 C   0  0  0  0  0  0  0  0  0  0  0  0
   -6.3210    6.0780    1.1120 C   0  0  0  0  0  0  0  0  0  0  0  0
   -5.6760    7.2790    1.3020 C   0  0  0  0  0  0  0  0  0  0  0  0
   -4.3050    7.3300    1.2270 C   0  0  0  0  0  0  0  0  0  0  0  0
   -3.5520    8.6100    1.4140 C   0  0  0  0  0  0  0  0  0  0  0  0
   -3.6290    6.1360    0.9570 C   0  0  0  0  0  0  0  0  0  0  0  0
   -4.2240    4.9240    0.7620 C   0  0  0  0  0  0  0  0  0  0  0  0
   -3.5360    3.7140    0.4600 N   0  0  0  0  0  0  0  0  0  0  0  0
   -2.1350    3.5480    0.5140 C   0  0  0  0  0  0  0  0  0  0  0  0
   -1.3590    4.4660    0.8590 O   0  0  0  0  0  0  0  0  0  0  0  0
   -1.4970    2.3010    0.1760 N   0  0  0  0  0  0  0  0  0  0  0  0
   -0.0700    2.1440    0.2550 C   0  0  0  0  0  0  0  0  0  0  0  0
    0.3710    0.7710   -0.1510 C   0  0  0  0  0  0  0  0  0  0  0  0
    0.9910   -0.1130    0.6460 C   0  0  0  0  0  0  0  0  0  0  0  0
    1.2600   -1.3380   -0.0990 C   0  0  2  0  0  0  0  0  0  0  0  0
    2.6930   -1.8270   -0.0480 C   0  0  0  0  0  0  0  0  0  0  0  0
    2.9820   -2.7230   -1.1890 C   0  0  0  0  0  0  0  0  0  0  0  0
    3.6310   -3.8440   -1.0330 C   0  0  0  0  0  0  0  0  0  0  0  0
    4.1540   -4.3940    0.2000 C   0  0  0  0  0  0  0  0  0  0  0  0
    4.8040   -5.5220    0.3290 C   0  0  0  0  0  0  0  0  0  0  0  0
    5.0990   -6.3930   -0.7900 C   0  0  0  0  0  0  0  0  0  0  0  0
    5.7390   -7.5420   -0.5880 C   0  0  0  0  0  0  0  0  0  0  0  0
    6.0580   -8.4560   -1.7080 C   0  0  0  0  0  0  0  0  0  0  0  0
    6.1580   -7.9380    0.7890 C   0  0  0  0  0  0  0  0  0  0  0  0
    2.4920   -2.3800   -2.5650 C   0  0  0  0  0  0  0  0  0  0  0  0
    1.0140   -2.0380   -2.5270 C   0  0  0  0  0  0  0  0  0  0  0  0
    0.8270   -1.0090   -1.4540 C   0  0  0  0  0  0  0  0  0  0  0  0
    0.2990    0.1710   -1.4320 N   0  0  0  0  0  0  0  0  0  0  0  0
  1  2  1  0
  2  3  1  0
  3  4  2  0
  3  9  1  0
  4  5  1  0
  5  6  2  0
  6  7  1  0
  6  8  1  0
  8  9  2  0
  9 10  1  0
 10 11  1  0
 11 12  2  0
 11 13  1  0
 13 14  1  0
 14 15  1  0
 15 16  2  0
 15 30  1  0
 16 17  1  0
 17 18  1  6
 17 29  1  0
 18 19  1  0
 19 20  2  3
 19 27  1  0
 20 21  1  0
 21 22  2  3
 22 23  1  0
 23 24  2  3
 24 25  1  0
 24 26  1  0
 27 28  1  0
 28 29  1  0
 29 30  2  0
M  END
