
     RDKit          3D

 30 32  0  0  0  0  0  0  0  0999 V2000
    6.4520    1.8820    2.5590 C   0  0  0  0  0  0  0  0  0  0  0  0
    5.2300    1.4430    3.3740 C   0  0  0  0  0  0  0  0  0  0  0  0
    4.1940    1.0570    2.3840 C   0  0  0  0  0  0  0  0  0  0  0  0
    3.7650   -0.2080    2.4500 C   0  0  0  0  0  0  0  0  0  0  0  0
    2.7710   -0.9950    1.6820 C   0  0  0  0  0  0  0  0  0  0  0  0
    2.3210   -0.9240    0.4020 C   0  0  0  0  0  0  0  0  0  0  0  0
    1.3300   -1.9010    0.0880 C   0  0  0  0  0  0  0  0  0  0  0  0
   -0.0490   -1.4670    0.0300 N   0  0  0  0  0  0  0  0  0  0  0  0
   -0.6480   -0.4580   -0.6910 C   0  0  0  0  0  0  0  0  0  0  0  0
    0.1160    0.2430   -1.4460 O   0  0  0  0  0  0  0  0  0  0  0  0
   -2.0480   -0.0500   -0.7380 C   0  0  0  0  0  0  0  0  0  0  0  0
   -2.5390    0.6810   -1.7760 N   0  0  0  0  0  0  0  0  0  0  0  0
   -3.8220    0.9720   -1.5710 C   0  0  0  0  0  0  0  0  0  0  0  0
   -4.7360    1.6940   -2.3590 C   0  0  0  0  0  0  0  0  0  0  0  0
   -6.0250    1.8460   -1.9100 C   0  0  0  0  0  0  0  0  0  0  0  0
   -7.0040    2.6040   -2.7260 C   0  0  0  0  0  0  0  0  0  0  0  0
   -6.3880    1.3100   -0.7400 N   0  0  0  0  0  0  0  0  0  0  0  0
   -5.5100    0.6050    0.0380 C   0  0  0  0  0  0  0  0  0  0  0  0
   -6.0240    0.0430    1.2920 C   0  0  0  0  0  0  0  0  0  0  0  0
   -4.1930    0.4230   -0.3700 C   0  0  0  0  0  0  0  0  0  0  0  0
   -3.0780   -0.2140    0.1460 C   0  0  0  0  0  0  0  0  0  0  0  0
   -3.0900   -0.9230    1.4400 C   0  0  0  0  0  0  0  0  0  0  0  0
   -3.3060   -2.4070    1.3480 C   0  0  0  0  0  0  0  0  0  0  0  0
    2.7700   -0.1220   -0.7380 C   0  0  0  0  0  0  0  0  0  0  0  0
    2.8560   -0.9420   -1.9660 C   0  0  0  0  0  0  0  0  0  0  0  0
    3.7340   -2.0740   -1.6830 N   0  0  0  0  0  0  0  0  0  0  0  0
    3.9010   -2.9490   -2.7970 C   0  0  0  0  0  0  0  0  0  0  0  0
    3.1970    1.1270   -0.8170 C   0  0  0  0  0  0  0  0  0  0  0  0
    3.4030    2.2090    0.1890 C   0  0  0  0  0  0  0  0  0  0  0  0
    3.8050    2.1500    1.4680 C   0  0  0  0  0  0  0  0  0  0  0  0
  1  2  1  0
  2  3  1  0
  3  4  2  0
  3 30  1  0
  4  5  1  0
  5  6  2  0
  6  7  1  0
  6 24  1  0
  7  8  1  0
  8  9  1  0
  9 10  2  0
  9 11  1  0
 11 12  1  0
 11 21  2  0
 12 13  1  0
 13 14  2  0
 13 20  1  0
 14 15  1  0
 15 16  1  0
 15 17  2  0
 17 18  1  0
 18 19  1  0
 18 20  2  0
 20 21  1  0
 21 22  1  0
 22 23  1  0
 24 25  1  0
 24 28  2  0
 25 26  1  0
 26 27  1  0
 28 29  1  0
 29 30  2  0
M  END
