
     RDKit          3D

 30 32  0  0  0  0  0  0  0  0999 V2000
    8.7560    0.1060    1.4850 C   0  0  0  0  0  0  0  0  0  0  0  0
    7.3810   -0.2880    1.0920 C   0  0  0  0  0  0  0  0  0  0  0  0
    6.4340    0.7060    1.0330 C   0  0  0  0  0  0  0  0  0  0  0  0
    5.1580    0.3930    0.6750 C   0  0  0  0  0  0  0  0  0  0  0  0
    4.7640   -0.9120    0.3620 C   0  0  0  0  0  0  0  0  0  0  0  0
    3.3890   -1.2040   -0.0150 C   0  0  0  0  0  0  0  0  0  0  0  0
    2.9400   -2.3930   -0.3190 C   0  0  0  0  0  0  0  0  0  0  0  0
    1.5250   -2.5570   -0.6840 C   0  0  0  0  0  0  0  0  0  0  0  0
    0.6800   -1.7250   -0.7510 N   0  0  0  0  0  0  0  0  0  0  0  0
   -0.0420   -0.5800   -0.7390 C   0  0  2  0  0  0  0  0  0  0  0  0
   -1.4520   -0.7950   -0.2070 C   0  0  0  0  0  0  0  0  0  0  0  0
   -1.8530   -1.9500   -0.0580 O   0  0  0  0  0  0  0  0  0  0  0  0
   -2.2640    0.3080    0.1050 N   0  0  0  0  0  0  0  0  0  0  0  0
   -3.5930    0.2750    0.6070 C   0  0  0  0  0  0  0  0  0  0  0  0
   -4.2710   -0.8870    0.8730 C   0  0  0  0  0  0  0  0  0  0  0  0
   -5.5780   -0.8080    1.3660 C   0  0  0  0  0  0  0  0  0  0  0  0
   -6.3040   -1.9960    1.6520 N   0  0  0  0  0  0  0  0  0  0  0  0
   -6.1580    0.4200    1.5740 C   0  0  0  0  0  0  0  0  0  0  0  0
   -7.5340    0.4920    2.0910 C   0  0  0  0  0  0  0  0  0  0  0  0
   -5.4550    1.5840    1.2980 C   0  0  0  0  0  0  0  0  0  0  0  0
   -4.1730    1.5280    0.8150 C   0  0  0  0  0  0  0  0  0  0  0  0
   -3.4480    2.7990    0.5290 C   0  0  0  0  0  0  0  0  0  0  0  0
   -0.1130    0.1260   -2.0740 C   0  0  0  0  0  0  0  0  0  0  0  0
   -1.2900    0.5100   -2.6570 C   0  0  0  0  0  0  0  0  0  0  0  0
   -1.2610    1.1730   -3.8890 C   0  0  0  0  0  0  0  0  0  0  0  0
   -0.0720    1.4460   -4.5260 C   0  0  0  0  0  0  0  0  0  0  0  0
    1.0640    1.0540   -3.9260 N   0  0  0  0  0  0  0  0  0  0  0  0
    1.0660    0.4050   -2.7230 C   0  0  0  0  0  0  0  0  0  0  0  0
    5.7030   -1.9000    0.4200 C   0  0  0  0  0  0  0  0  0  0  0  0
    7.0100   -1.5770    0.7870 C   0  0  0  0  0  0  0  0  0  0  0  0
  1  2  1  0
  2  3  2  0
  2 30  1  0
  3  4  1  0
  4  5  2  0
  5  6  1  0
  5 29  1  0
  6  7  2  3
  7  8  1  0
  8  9  2  3
 10  9  1  6
 10 11  1  0
 10 23  1  0
 11 12  2  0
 11 13  1  0
 13 14  1  0
 14 15  2  0
 14 21  1  0
 15 16  1  0
 16 17  1  0
 16 18  2  0
 18 19  1  0
 18 20  1  0
 20 21  2  0
 21 22  1  0
 23 24  2  0
 23 28  1  0
 24 25  1  0
 25 26  2  0
 26 27  1  0
 27 28  2  0
 29 30  2  0
M  END
