
     RDKit          3D

 30 32  0  0  0  0  0  0  0  0999 V2000
    5.2550    1.5530    3.0120 C   0  0  0  0  0  0  0  0  0  0  0  0
    3.7800    1.6100    2.8600 C   0  0  0  0  0  0  0  0  0  0  0  0
    3.1180    0.6580    2.1810 C   0  0  0  0  0  0  0  0  0  0  0  0
    3.7690   -0.4640    1.5620 C   0  0  0  0  0  0  0  0  0  0  0  0
    3.4340   -1.4720    0.8770 C   0  0  0  0  0  0  0  0  0  0  0  0
    2.3260   -2.0900    0.3100 C   0  0  0  0  0  0  0  0  0  0  0  0
    2.4530   -3.3890   -0.1830 C   0  0  0  0  0  0  0  0  0  0  0  0
    1.3490   -4.1050   -0.7720 C   0  0  0  0  0  0  0  0  0  0  0  0
    0.1680   -3.5920   -0.8850 N   0  0  0  0  0  0  0  0  0  0  0  0
   -0.0880   -2.2980   -0.4430 C   0  0  0  0  0  0  0  0  0  0  0  0
   -1.3640   -1.9040   -0.5550 C   0  0  0  0  0  0  0  0  0  0  0  0
   -2.3220   -2.7450   -1.1030 C   0  0  0  0  0  0  0  0  0  0  0  0
   -3.4910   -2.3490   -1.2960 O   0  0  0  0  0  0  0  0  0  0  0  0
   -2.1450   -4.0790   -1.4950 N   0  0  0  0  0  0  0  0  0  0  0  0
   -3.3230   -4.7950   -2.0680 C   0  0  0  0  0  0  0  0  0  0  0  0
   -1.9140   -0.6850    0.1020 C   0  0  0  0  0  0  0  0  0  0  0  0
   -3.1640   -0.6690    0.7410 C   0  0  0  0  0  0  0  0  0  0  0  0
   -4.5360   -0.6960    0.3520 C   0  0  0  0  0  0  0  0  0  0  0  0
   -5.0710    0.3460   -0.6030 C   0  0  0  0  0  0  0  0  0  0  0  0
   -1.2160    0.4650    0.2530 C   0  0  0  0  0  0  0  0  0  0  0  0
   -1.8720    1.5630    0.9070 C   0  0  0  0  0  0  0  0  0  0  0  0
    0.1760    0.7830   -0.1600 C   0  0  0  0  0  0  0  0  0  0  0  0
    0.4710    2.0820   -0.6610 C   0  0  2  0  0  0  0  0  0  0  0  0
    0.9270    3.2230    0.1230 C   0  0  0  0  0  0  0  0  0  0  0  0
    1.4830    4.0940   -1.0570 C   0  0  0  0  0  0  0  0  0  0  0  0
    0.1430    4.1270   -1.8190 C   0  0  0  0  0  0  0  0  0  0  0  0
   -0.3460    2.6800   -1.7750 C   0  0  0  0  0  0  0  0  0  0  0  0
    1.1310   -0.1280   -0.1440 C   0  0  0  0  0  0  0  0  0  0  0  0
    2.4100    0.3100   -0.5710 N   0  0  0  0  0  0  0  0  0  0  0  0
    1.0540   -1.6020    0.1280 N   0  0  0  0  0  0  0  0  0  0  0  0
  1  2  1  0
  2  3  2  3
  3  4  1  0
  4  5  2  3
  5  6  1  0
  6  7  2  0
  6 30  1  0
  7  8  1  0
  8  9  2  0
  9 10  1  0
 10 11  2  0
 10 30  1  0
 11 12  1  0
 11 16  1  0
 12 13  2  0
 12 14  1  0
 14 15  1  0
 16 17  1  0
 16 20  2  0
 17 18  1  0
 18 19  1  0
 20 21  1  0
 20 22  1  0
 23 22  1  1
 22 28  2  0
 23 24  1  0
 23 27  1  0
 24 25  1  0
 25 26  1  0
 26 27  1  0
 28 29  1  0
 28 30  1  0
M  END
