
     RDKit          3D

 29 32  0  0  0  0  0  0  0  0999 V2000
    4.7810   -2.6450    0.3050 C   0  0  0  0  0  0  0  0  0  0  0  0
    3.6370   -2.6680   -0.6190 C   0  0  0  0  0  0  0  0  0  0  0  0
    3.6120   -3.4060   -1.7820 C   0  0  0  0  0  0  0  0  0  0  0  0
    2.5310   -3.4530   -2.6330 C   0  0  0  0  0  0  0  0  0  0  0  0
    1.4630   -2.7430   -2.3000 N   0  0  0  0  0  0  0  0  0  0  0  0
    1.4260   -2.0100   -1.1910 C   0  0  0  0  0  0  0  0  0  0  0  0
    0.3930   -1.2320   -0.6990 C   0  0  0  0  0  0  0  0  0  0  0  0
   -0.8630   -1.0320   -1.2790 N   0  0  0  0  0  0  0  0  0  0  0  0
   -1.9030   -0.2260   -0.7470 C   0  0  0  0  0  0  0  0  0  0  0  0
   -1.6660    0.3520    0.3350 O   0  0  0  0  0  0  0  0  0  0  0  0
   -3.1460   -0.0690   -1.3860 N   0  0  0  0  0  0  0  0  0  0  0  0
   -4.2280    0.7120   -0.9250 C   0  0  0  0  0  0  0  0  0  0  0  0
   -5.4130    0.7380   -1.6780 C   0  0  0  0  0  0  0  0  0  0  0  0
   -6.5200    1.4540   -1.3340 C   0  0  0  0  0  0  0  0  0  0  0  0
   -7.9460    1.4300   -2.3240 Cl  0  0  0  0  0  0  0  0  0  0  0  0
   -6.5030    2.2010   -0.1940 C   0  0  0  0  0  0  0  0  0  0  0  0
   -5.3740    2.2240    0.5960 C   0  0  0  0  0  0  0  0  0  0  0  0
   -5.3800    3.0390    1.8240 C   0  0  0  0  0  0  0  0  0  0  0  0
   -4.8000    4.6760    1.4270 Cl  0  0  0  0  0  0  0  0  0  0  0  0
   -4.2580    1.4760    0.2100 C   0  0  0  0  0  0  0  0  0  0  0  0
    0.8810   -0.7150    0.4660 C   0  0  0  0  0  0  0  0  0  0  0  0
    2.1710   -1.1560    0.6890 N   0  0  0  0  0  0  0  0  0  0  0  0
    2.9360   -0.7210    1.8050 C   0  0  0  0  0  0  0  0  0  0  0  0
    3.5550    0.6450    1.6100 C   0  0  0  0  0  0  0  0  0  0  0  0
    4.8460    1.0200    1.3900 C   0  0  0  0  0  0  0  0  0  0  0  0
    4.8980    2.4130    1.2750 C   0  0  0  0  0  0  0  0  0  0  0  0
    3.5960    2.8120    1.4380 C   0  0  0  0  0  0  0  0  0  0  0  0
    2.8580    1.7800    1.6270 O   0  0  0  0  0  0  0  0  0  0  0  0
    2.4900   -1.9380   -0.3160 C   0  0  0  0  0  0  0  0  0  0  0  0
  1  2  1  0
  2  3  2  0
  2 29  1  0
  3  4  1  0
  4  5  2  0
  5  6  1  0
  6  7  1  0
  6 29  2  0
  7  8  1  0
  7 21  2  0
  8  9  1  0
  9 10  2  0
  9 11  1  0
 11 12  1  0
 12 13  2  0
 12 20  1  0
 13 14  1  0
 14 15  1  0
 14 16  2  0
 16 17  1  0
 17 18  1  0
 17 20  2  0
 18 19  1  0
 21 22  1  0
 22 23  1  0
 22 29  1  0
 23 24  1  0
 24 25  2  0
 24 28  1  0
 25 26  1  0
 26 27  2  0
 27 28  1  0
M  END
