
     RDKit          3D

 29 32  0  0  0  0  0  0  0  0999 V2000
   -6.1180   -1.9760   -1.5250 C   0  0  0  0  0  0  0  0  0  0  0  0
   -4.8070   -1.5120   -0.9440 C   0  0  0  0  0  0  0  0  0  0  0  0
   -4.8250   -0.5140   -0.1000 C   0  0  0  0  0  0  0  0  0  0  0  0
   -6.1530    0.1180    0.2470 C   0  0  0  0  0  0  0  0  0  0  0  0
   -3.6570    0.0980    0.5800 C   0  0  2  0  0  0  0  0  0  0  0  0
   -3.8090    0.0130    2.0910 C   0  0  0  0  0  0  0  0  0  0  0  0
   -3.4790    1.4840    0.2000 N   0  0  0  0  0  0  0  0  0  0  0  0
   -2.0980    1.7790    0.3480 C   0  0  0  0  0  0  0  0  0  0  0  0
   -1.6300    2.9660    0.4340 O   0  0  0  0  0  0  0  0  0  0  0  0
   -1.3850    0.5530    0.3780 N   0  0  0  0  0  0  0  0  0  0  0  0
    0.0590    0.4080    0.5170 C   0  0  0  0  0  0  0  0  0  0  0  0
    0.6310    0.4120   -0.8490 C   0  0  0  0  0  0  0  0  0  0  0  0
    0.0340    0.5200   -2.0260 N   0  0  0  0  0  0  0  0  0  0  0  0
    0.9090    0.4780   -3.0160 N   0  0  0  0  0  0  0  0  0  0  0  0
    2.1420    0.3370   -2.5010 C   0  0  0  0  0  0  0  0  0  0  0  0
    3.4150    0.2340   -2.9960 C   0  0  0  0  0  0  0  0  0  0  0  0
    4.5300    0.0900   -2.1400 C   0  0  0  0  0  0  0  0  0  0  0  0
    6.0710   -0.1460   -2.9200 Cl  0  0  0  0  0  0  0  0  0  0  0  0
    4.4070    0.0480   -0.7950 C   0  0  0  0  0  0  0  0  0  0  0  0
    5.4800    0.0120    0.2030 C   0  0  0  0  0  0  0  0  0  0  0  0
    5.2890   -0.3920    1.4720 C   0  0  0  0  0  0  0  0  0  0  0  0
    6.5340   -0.3120    2.2240 C   0  0  0  0  0  0  0  0  0  0  0  0
    7.4950    0.2340    1.2550 C   0  0  0  0  0  0  0  0  0  0  0  0
    6.8490    0.4050    0.0920 C   0  0  0  0  0  0  0  0  0  0  0  0
    7.7480    1.1220   -1.2550 Cl  0  0  0  0  0  0  0  0  0  0  0  0
    3.0840    0.1540   -0.3100 C   0  0  0  0  0  0  0  0  0  0  0  0
    2.0000    0.2920   -1.1330 C   0  0  0  0  0  0  0  0  0  0  0  0
   -2.3580   -0.5070    0.2450 C   0  0  0  0  0  0  0  0  0  0  0  0
   -2.0430   -1.6840   -0.0960 O   0  0  0  0  0  0  0  0  0  0  0  0
  1  2  1  0
  2  3  2  3
  3  4  1  0
  3  5  1  0
  5  6  1  1
  5  7  1  0
  5 28  1  0
  7  8  1  0
  8  9  2  0
  8 10  1  0
 10 11  1  0
 10 28  1  0
 11 12  1  0
 12 13  2  0
 12 27  1  0
 13 14  1  0
 14 15  1  0
 15 16  2  0
 15 27  1  0
 16 17  1  0
 17 18  1  0
 17 19  2  0
 19 20  1  0
 19 26  1  0
 20 21  2  0
 20 24  1  0
 21 22  1  0
 22 23  1  0
 23 24  2  0
 24 25  1  0
 26 27  2  0
 28 29  2  0
M  END
