
     RDKit          3D

 20 21  0  0  0  0  0  0  0  0999 V2000
   -0.3860    1.8450    0.5190 C   0  0  0  0  0  0  0  0  0  0  0  0
   -1.7150    1.3430    0.2900 N   0  0  0  0  0  0  0  0  0  0  0  0
   -2.8330    2.1000    0.8310 C   0  0  0  0  0  0  0  0  0  0  0  0
   -2.6950    3.3290    1.0640 O   0  0  0  0  0  0  0  0  0  0  0  0
   -4.1170    1.3920    1.0920 C   0  0  0  0  0  0  0  0  0  0  0  0
   -4.3820    0.5450   -0.0500 N   0  0  0  0  0  0  0  0  0  0  0  0
   -3.3390   -0.2440   -0.6050 C   0  0  0  0  0  0  0  0  0  0  0  0
   -3.5730   -1.3120   -1.2590 N   0  0  0  0  0  0  0  0  0  0  0  0
   -1.9340    0.1690   -0.4310 C   0  0  0  0  0  0  0  0  0  0  0  0
   -0.9850   -0.5610   -0.9420 C   0  0  0  0  0  0  0  0  0  0  0  0
    0.4060   -0.3680   -0.9020 N   0  0  0  0  0  0  0  0  0  0  0  0
    1.2470   -1.3230   -0.2570 C   0  0  0  0  0  0  0  0  0  0  0  0
    0.8920   -2.4850    0.3780 C   0  0  0  0  0  0  0  0  0  0  0  0
    1.9860   -3.0390    0.8180 O   0  0  0  0  0  0  0  0  0  0  0  0
    3.0080   -2.3150    0.5110 N   0  0  0  0  0  0  0  0  0  0  0  0
    2.6170   -1.2230   -0.1650 C   0  0  0  0  0  0  0  0  0  0  0  0
    3.4530   -0.1740   -0.6810 N   0  0  0  0  0  0  0  0  0  0  0  0
    5.2250   -0.2520   -0.4420 P   0  0  0  0  0  0  0  0  0  0  0  0
    6.1060    0.3820   -1.7740 O   0  0  0  0  0  0  0  0  0  0  0  0
    5.7410   -1.8530   -0.0450 O   0  0  0  0  0  0  0  0  0  0  0  0
  1  2  1  0
  2  3  1  0
  2  9  1  0
  3  4  2  0
  3  5  1  0
  5  6  1  0
  6  7  1  0
  7  8  2  0
  7  9  1  0
  9 10  2  3
 10 11  1  0
 11 12  1  0
 12 13  2  0
 12 16  1  0
 13 14  1  0
 14 15  1  0
 15 16  2  0
 16 17  1  0
 17 18  1  0
 18 19  1  0
 18 20  1  0
M  END
