
     RDKit          3D

 20 21  0  0  0  0  0  0  0  0999 V2000
   -2.1730    1.7270    0.1500 C   0  0  0  0  0  0  0  0  0  0  0  0
   -2.6320    0.3810    0.6910 C   0  0  1  0  0  0  0  0  0  0  0  0
   -4.1340    0.4590    0.8300 C   0  0  0  0  0  0  0  0  0  0  0  0
   -4.6540   -0.7630    1.2840 O   0  0  0  0  0  0  0  0  0  0  0  0
   -2.2400   -0.6500   -0.2550 N   0  0  0  0  0  0  0  0  0  0  0  0
   -0.8890   -0.8800   -0.6070 C   0  0  0  0  0  0  0  0  0  0  0  0
    0.1420   -0.1780   -0.1070 N   0  0  0  0  0  0  0  0  0  0  0  0
    1.4340   -0.4130   -0.4560 C   0  0  0  0  0  0  0  0  0  0  0  0
    2.5500    0.3770    0.1110 C   0  0  1  0  0  0  0  0  0  0  0  0
    2.4200    1.8530   -0.2690 C   0  0  0  0  0  0  0  0  0  0  0  0
    2.4370    2.0140   -1.6340 O   0  0  0  0  0  0  0  0  0  0  0  0
    2.6640    0.1890    1.9520 P   0  0  0  0  0  0  0  0  0  0  0  0
    3.0620    1.7370    2.6670 O   0  0  0  0  0  0  0  0  0  0  0  0
    3.9400   -0.9110    2.4060 O   0  0  0  0  0  0  0  0  0  0  0  0
    1.7140   -1.3820   -1.3360 N   0  0  0  0  0  0  0  0  0  0  0  0
    0.7360   -2.1010   -1.8560 N   0  0  0  0  0  0  0  0  0  0  0  0
    0.7760   -3.1160   -2.7500 C   0  0  0  0  0  0  0  0  0  0  0  0
   -0.4950   -3.4910   -2.9360 N   0  0  0  0  0  0  0  0  0  0  0  0
   -1.2930   -2.7440   -2.1940 N   0  0  0  0  0  0  0  0  0  0  0  0
   -0.5660   -1.8690   -1.5090 C   0  0  0  0  0  0  0  0  0  0  0  0
  2  1  1  6
  2  3  1  0
  2  5  1  0
  3  4  1  0
  5  6  1  0
  6  7  2  0
  6 20  1  0
  7  8  1  0
  8  9  1  0
  8 15  2  0
  9 10  1  1
  9 12  1  0
 10 11  1  0
 12 13  1  0
 12 14  1  0
 15 16  1  0
 16 17  1  0
 16 20  1  0
 17 18  2  0
 18 19  1  0
 19 20  2  0
M  END
