
     RDKit          3D

 20 20  0  0  0  0  0  0  0  0999 V2000
    5.1550   -1.5470   -0.9550 N   0  0  0  0  0  0  0  0  0  0  0  0
    4.9810   -0.3500   -0.5470 C   0  0  0  0  0  0  0  0  0  0  0  0
    6.1170    0.4230   -0.4030 N   0  0  0  0  0  0  0  0  0  0  0  0
    7.2580    0.0800    0.1710 O   0  0  0  0  0  0  0  0  0  0  0  0
    8.0170   -0.5600   -0.6960 O   0  0  0  0  0  0  0  0  0  0  0  0
    3.6370   -0.1350   -0.6180 N   0  0  0  0  0  0  0  0  0  0  0  0
    2.7980    0.7060    0.0880 C   0  0  0  0  0  0  0  0  0  0  0  0
    3.4070    1.3100    0.9810 O   0  0  0  0  0  0  0  0  0  0  0  0
    1.4390    0.8220   -0.1940 N   0  0  0  0  0  0  0  0  0  0  0  0
    0.5860    1.6600    0.5790 C   0  0  0  0  0  0  0  0  0  0  0  0
   -0.8250    1.4830    0.0030 C   0  0  0  0  0  0  0  0  0  0  0  0
   -1.2260    0.0630    0.1620 C   0  0  0  0  0  0  0  0  0  0  0  0
   -2.5420   -0.2780   -0.3070 N   0  0  0  0  0  0  0  0  0  0  0  0
   -2.9740   -1.6700   -0.2110 C   0  0  0  0  0  0  0  0  0  0  0  0
   -4.0130   -1.8680    0.8750 C   0  0  0  0  0  0  0  0  0  0  0  0
   -5.4590   -0.7270    0.4990 P   0  0  0  0  0  0  0  0  0  0  0  0
   -6.8650   -1.6130    0.0750 O   0  0  0  0  0  0  0  0  0  0  0  0
   -4.8960    0.3400   -0.8430 N   0  0  0  0  0  0  0  0  0  0  0  0
   -3.4810    0.6300   -0.8560 C   0  0  0  0  0  0  0  0  0  0  0  0
   -3.0350    1.7240   -1.3680 N   0  0  0  0  0  0  0  0  0  0  0  0
  1  2  2  0
  2  3  1  0
  2  6  1  0
  3  4  1  0
  4  5  1  0
  6  7  1  0
  7  8  2  0
  7  9  1  0
  9 10  1  0
 10 11  1  0
 11 12  1  0
 12 13  1  0
 13 14  1  0
 13 19  1  0
 14 15  1  0
 15 16  1  0
 16 17  1  0
 16 18  1  0
 18 19  1  0
 19 20  2  0
M  END
