
     RDKit          3D

 19 20  0  0  0  0  0  0  0  0999 V2000
   -5.3960    1.0460    1.5320 N   0  0  0  0  0  0  0  0  0  0  0  0
   -4.1150    0.6290    1.0290 C   0  0  0  0  0  0  0  0  0  0  0  0
   -3.1370    1.1550    1.5960 O   0  0  0  0  0  0  0  0  0  0  0  0
   -4.0620   -0.3360   -0.0590 C   0  0  0  0  0  0  0  0  0  0  0  0
   -2.7600   -0.7190   -0.5230 N   0  0  0  0  0  0  0  0  0  0  0  0
   -2.6590   -1.6730   -1.6050 C   0  0  0  0  0  0  0  0  0  0  0  0
   -1.5410   -2.0720   -2.0870 N   0  0  0  0  0  0  0  0  0  0  0  0
   -0.3440   -1.5520   -1.5320 C   0  0  0  0  0  0  0  0  0  0  0  0
   -0.3150   -0.6800   -0.5460 C   0  0  0  0  0  0  0  0  0  0  0  0
    0.9810   -0.1910   -0.0290 C   0  0  0  0  0  0  0  0  0  0  0  0
    1.1630    0.7160    0.9930 C   0  0  0  0  0  0  0  0  0  0  0  0
    2.4780    0.9120    1.1780 N   0  0  0  0  0  0  0  0  0  0  0  0
    3.1370    0.1470    0.2940 C   0  0  0  0  0  0  0  0  0  0  0  0
    4.5560    0.0320    0.1240 N   0  0  0  0  0  0  0  0  0  0  0  0
    5.7120    0.9460    1.1260 P   0  0  0  0  0  0  0  0  0  0  0  0
    5.6950    2.6010    0.6340 O   0  0  0  0  0  0  0  0  0  0  0  0
    7.2710    0.2390    1.0360 O   0  0  0  0  0  0  0  0  0  0  0  0
    2.2180   -0.5070   -0.4220 N   0  0  0  0  0  0  0  0  0  0  0  0
   -1.5740   -0.1740    0.0650 C   0  0  0  0  0  0  0  0  0  0  0  0
  1  2  1  0
  2  3  2  0
  2  4  1  0
  4  5  1  0
  5  6  1  0
  5 19  1  0
  6  7  2  0
  7  8  1  0
  8  9  2  0
  9 10  1  0
  9 19  1  0
 10 11  2  0
 10 18  1  0
 11 12  1  0
 12 13  2  0
 13 14  1  0
 13 18  1  0
 14 15  1  0
 15 16  1  0
 15 17  1  0
M  END
