
     RDKit          3D

 19 20  0  0  0  0  0  0  0  0999 V2000
   -2.9890    1.7990   -1.7040 C   0  0  0  0  0  0  0  0  0  0  0  0
   -2.8830    0.4450   -1.2890 O   0  0  0  0  0  0  0  0  0  0  0  0
   -3.2430    0.1690    0.0320 C   0  0  0  0  0  0  0  0  0  0  0  0
   -4.4720   -0.0780    0.5450 N   0  0  0  0  0  0  0  0  0  0  0  0
   -4.3240   -0.2830    1.8360 N   0  0  0  0  0  0  0  0  0  0  0  0
   -3.0120   -0.1760    2.1870 C   0  0  0  0  0  0  0  0  0  0  0  0
   -2.3140    0.1130    1.0420 C   0  0  0  0  0  0  0  0  0  0  0  0
   -0.8240    0.3150    0.9720 C   0  0  0  0  0  0  0  0  0  0  0  0
   -0.1800   -0.8900    0.3930 C   0  0  0  0  0  0  0  0  0  0  0  0
   -0.8770   -2.0150    0.0320 N   0  0  0  0  0  0  0  0  0  0  0  0
   -0.0320   -2.9300   -0.4560 C   0  0  0  0  0  0  0  0  0  0  0  0
    1.1970   -2.3910   -0.4060 N   0  0  0  0  0  0  0  0  0  0  0  0
    1.1390   -1.1210    0.1190 C   0  0  0  0  0  0  0  0  0  0  0  0
    2.2570   -0.2380    0.3220 C   0  0  0  0  0  0  0  0  0  0  0  0
    2.1980    0.9140    0.7970 N   0  0  0  0  0  0  0  0  0  0  0  0
    3.5740   -0.7110   -0.0520 N   0  0  0  0  0  0  0  0  0  0  0  0
    4.9290    0.3910   -0.4030 P   0  0  0  0  0  0  0  0  0  0  0  0
    5.5690    0.2000   -1.9820 O   0  0  0  0  0  0  0  0  0  0  0  0
    4.5660    2.0270   -0.0040 O   0  0  0  0  0  0  0  0  0  0  0  0
  1  2  1  0
  2  3  1  0
  3  4  1  0
  3  7  2  0
  4  5  1  0
  5  6  2  0
  6  7  1  0
  7  8  1  0
  8  9  1  0
  9 10  1  0
  9 13  2  0
 10 11  2  0
 11 12  1  0
 12 13  1  0
 13 14  1  0
 14 15  2  0
 14 16  1  0
 16 17  1  0
 17 18  1  0
 17 19  1  0
M  END
