
     RDKit          3D

 27 28  0  0  0  0  0  0  0  0999 V2000
    0.9690   -4.6630   -0.1930 O   0  0  0  0  0  0  0  0  0  0  0  0
    0.5730   -3.5290   -0.6300 C   0  0  0  0  0  0  0  0  0  0  0  0
   -0.7560   -3.4980   -1.2840 C   0  0  0  0  0  0  0  0  0  0  0  0
   -1.7780   -3.2950   -0.3300 O   0  0  0  0  0  0  0  0  0  0  0  0
   -1.1860   -3.0480    0.8270 O   0  0  0  0  0  0  0  0  0  0  0  0
   -1.5960   -2.0090    1.6910 C   0  0  0  0  0  0  0  0  0  0  0  0
   -1.1000   -2.1410    2.8630 O   0  0  0  0  0  0  0  0  0  0  0  0
   -2.3980   -1.0740    1.2200 O   0  0  0  0  0  0  0  0  0  0  0  0
   -2.3540    0.1230    0.5940 C   0  0  0  0  0  0  0  0  0  0  0  0
   -3.5820    0.5670    0.1080 C   0  0  0  0  0  0  0  0  0  0  0  0
   -3.7550    1.7590   -0.5580 C   0  0  0  0  0  0  0  0  0  0  0  0
   -5.0100    2.1670   -1.0310 O   0  0  0  0  0  0  0  0  0  0  0  0
   -5.2400    3.4600   -1.2030 O   0  0  0  0  0  0  0  0  0  0  0  0
   -2.6690    2.5480   -0.7510 C   0  0  0  0  0  0  0  0  0  0  0  0
   -1.4280    2.1180   -0.2690 C   0  0  0  0  0  0  0  0  0  0  0  0
   -1.2270    0.9270    0.4000 C   0  0  0  0  0  0  0  0  0  0  0  0
    0.0260    0.6290    0.8140 O   0  0  0  0  0  0  0  0  0  0  0  0
    0.9160   -0.3960    0.7320 C   0  0  2  0  0  0  0  0  0  0  0  0
    2.3080    0.2870    0.5610 C   0  0  0  0  0  0  0  0  0  0  0  0
    2.3240    1.0460   -0.5680 O   0  0  0  0  0  0  0  0  0  0  0  0
    3.4060    1.6800   -0.8550 O   0  0  0  0  0  0  0  0  0  0  0  0
    4.5780    1.6800   -0.1670 C   0  0  0  0  0  0  0  0  0  0  0  0
    4.7120    1.0190    0.8740 O   0  0  0  0  0  0  0  0  0  0  0  0
    5.6710    2.4320   -0.6180 O   0  0  0  0  0  0  0  0  0  0  0  0
    6.8370    2.4440    0.0490 O   0  0  0  0  0  0  0  0  0  0  0  0
    0.7370   -1.1220   -0.6050 C   0  0  0  0  0  0  0  0  0  0  0  0
    1.3130   -2.3880   -0.5150 O   0  0  0  0  0  0  0  0  0  0  0  0
  1  2  2  0
  2  3  1  0
  2 27  1  0
  3  4  1  0
  4  5  1  0
  5  6  1  0
  6  7  2  0
  6  8  1  0
  8  9  1  0
  9 10  2  0
  9 16  1  0
 10 11  1  0
 11 12  1  0
 11 14  2  0
 12 13  1  0
 14 15  1  0
 15 16  2  0
 16 17  1  0
 17 18  1  0
 18 19  1  6
 18 26  1  0
 19 20  1  0
 20 21  1  0
 21 22  1  0
 22 23  2  0
 22 24  1  0
 24 25  1  0
 26 27  1  0
M  END
