
     RDKit          3D

 20 21  0  0  0  0  0  0  0  0999 V2000
   -6.6260    1.2360    1.3180 N   0  0  0  0  0  0  0  0  0  0  0  0
   -5.5580    0.4520    0.8090 C   0  0  0  0  0  0  0  0  0  0  0  0
   -5.5590   -0.8330    0.4270 N   0  0  0  0  0  0  0  0  0  0  0  0
   -4.3630   -1.2070    0.0080 N   0  0  0  0  0  0  0  0  0  0  0  0
   -3.5920   -0.1150    0.1350 C   0  0  0  0  0  0  0  0  0  0  0  0
   -2.1590   -0.0210   -0.2060 C   0  0  0  0  0  0  0  0  0  0  0  0
   -1.3400    1.0640   -0.0940 C   0  0  0  0  0  0  0  0  0  0  0  0
   -0.0930    0.6820   -0.5280 C   0  0  0  0  0  0  0  0  0  0  0  0
   -0.1950   -0.6490   -0.8980 C   0  0  0  0  0  0  0  0  0  0  0  0
    0.9130   -1.5120   -1.4400 C   0  0  0  0  0  0  0  0  0  0  0  0
    1.5830   -2.1640   -0.2730 C   0  0  0  0  0  0  0  0  0  0  0  0
    2.1350   -1.1790    0.6340 N   0  0  0  0  0  0  0  0  0  0  0  0
    3.1230   -0.2650    0.1780 C   0  0  0  0  0  0  0  0  0  0  0  0
    3.5330   -0.2980   -1.0170 O   0  0  0  0  0  0  0  0  0  0  0  0
    3.6910    0.7180    1.0380 N   0  0  0  0  0  0  0  0  0  0  0  0
    4.9500    1.8550    0.3920 P   0  0  0  0  0  0  0  0  0  0  0  0
    6.4910    1.1850    0.9060 O   0  0  0  0  0  0  0  0  0  0  0  0
    4.9060    1.8270   -1.3440 O   0  0  0  0  0  0  0  0  0  0  0  0
   -1.4390   -1.0050   -0.6840 O   0  0  0  0  0  0  0  0  0  0  0  0
   -4.2960    0.9110    0.6210 N   0  0  0  0  0  0  0  0  0  0  0  0
  1  2  1  0
  2  3  2  0
  2 20  1  0
  3  4  1  0
  4  5  1  0
  5  6  1  0
  5 20  2  0
  6  7  2  0
  6 19  1  0
  7  8  1  0
  8  9  2  0
  9 10  1  0
  9 19  1  0
 10 11  1  0
 11 12  1  0
 12 13  1  0
 13 14  2  0
 13 15  1  0
 15 16  1  0
 16 17  1  0
 16 18  1  0
M  END
