
     RDKit          3D

 15 15  0  0  0  0  0  0  0  0999 V2000
    5.5060    0.6150    0.9790 C   0  0  0  0  0  0  0  0  0  0  0  0
    5.3330   -0.5470    0.0180 C   0  0  0  0  0  0  0  0  0  0  0  0
    4.0690   -1.1680    0.1910 O   0  0  0  0  0  0  0  0  0  0  0  0
    2.8800   -0.4760    0.0190 C   0  0  0  0  0  0  0  0  0  0  0  0
    2.9830    0.7510   -0.3050 O   0  0  0  0  0  0  0  0  0  0  0  0
    1.5500   -1.1120    0.1970 C   0  0  0  0  0  0  0  0  0  0  0  0
    0.5530   -0.1970   -0.0360 O   0  0  0  0  0  0  0  0  0  0  0  0
   -0.7310   -0.7230    0.1120 C   0  0  1  0  0  0  0  0  0  0  0  0
   -1.4160   -0.0930    1.2610 C   0  0  0  0  0  0  0  0  0  0  0  0
   -2.8220    0.3290    1.0570 C   0  0  0  0  0  0  0  0  0  0  0  0
   -2.8590    1.1320   -0.2510 C   0  0  2  0  0  0  0  0  0  0  0  0
   -4.2130    1.6570   -0.4030 N   0  0  0  0  0  0  0  0  0  0  0  0
   -2.6490    0.1020   -1.3210 C   0  0  2  0  0  0  0  0  0  0  0  0
   -3.7860   -0.7380   -1.2960 O   0  0  0  0  0  0  0  0  0  0  0  0
   -1.4100   -0.7030   -1.1960 C   0  0  0  0  0  0  0  0  0  0  0  0
  1  2  1  0
  2  3  1  0
  3  4  1  0
  4  5  2  0
  4  6  1  0
  6  7  1  0
  8  7  1  6
  8  9  1  0
  8 15  1  0
  9 10  1  0
 10 11  1  0
 11 12  1  6
 11 13  1  0
 13 14  1  1
 13 15  1  0
M  CHG  1  12   1
M  END
