
     RDKit          3D

 15 15  0  0  0  0  0  0  0  0999 V2000
    3.9720    0.8580    0.5200 C   0  0  0  0  0  0  0  0  0  0  0  0
    3.3680   -0.5210    0.6240 C   0  0  0  0  0  0  0  0  0  0  0  0
    2.7080   -0.9600   -0.6440 C   0  0  1  0  0  0  0  0  0  0  0  0
    2.1260   -2.2850   -0.5830 N   0  0  0  0  0  0  0  0  0  0  0  0
    1.8760    0.0210   -1.3740 C   0  0  0  0  0  0  0  0  0  0  0  0
    0.5890    0.2570   -1.0000 O   0  0  0  0  0  0  0  0  0  0  0  0
   -0.0360    0.7310    0.0850 C   0  0  0  0  0  0  0  0  0  0  0  0
    0.6570    1.0800    1.0660 O   0  0  0  0  0  0  0  0  0  0  0  0
   -1.5270    0.8730    0.2060 C   0  0  2  0  0  0  0  0  0  0  0  0
   -1.8610    1.3850    1.4310 O   0  0  0  0  0  0  0  0  0  0  0  0
   -3.1920    1.8390    1.3460 C   0  0  0  0  0  0  0  0  0  0  0  0
   -4.0740    0.6370    1.3390 C   0  0  0  0  0  0  0  0  0  0  0  0
   -3.4040   -0.6310    0.9290 C   0  0  0  0  0  0  0  0  0  0  0  0
   -2.2220   -0.4510    0.0340 C   0  0  1  0  0  0  0  0  0  0  0  0
   -2.6300   -0.6040   -1.2910 O   0  0  0  0  0  0  0  0  0  0  0  0
  1  2  1  0
  2  3  1  0
  3  4  1  1
  3  5  1  0
  5  6  1  0
  6  7  1  0
  7  8  2  0
  9  7  1  1
  9 10  1  0
  9 14  1  0
 10 11  1  0
 11 12  1  0
 12 13  1  0
 13 14  1  0
 14 15  1  6
M  CHG  1   4   1
M  END
