
     RDKit          3D

 15 15  0  0  0  0  0  0  0  0999 V2000
    4.7800   -1.7720    0.5050 C   0  0  0  0  0  0  0  0  0  0  0  0
    3.6880   -1.0610   -0.0100 O   0  0  0  0  0  0  0  0  0  0  0  0
    4.0160    0.3070   -0.1080 C   0  0  0  0  0  0  0  0  0  0  0  0
    2.8680    1.0960   -0.6560 C   0  0  0  0  0  0  0  0  0  0  0  0
    1.7150    0.9960    0.1620 O   0  0  0  0  0  0  0  0  0  0  0  0
    0.5780    1.6820   -0.2350 C   0  0  0  0  0  0  0  0  0  0  0  0
    0.6150    2.3690   -1.3080 O   0  0  0  0  0  0  0  0  0  0  0  0
   -0.6910    1.6680    0.5170 C   0  0  0  0  0  0  0  0  0  0  0  0
   -1.6850    0.7430   -0.1640 C   0  0  1  0  0  0  0  0  0  0  0  0
   -1.8910    1.2330   -1.4550 O   0  0  0  0  0  0  0  0  0  0  0  0
   -1.1670   -0.6720   -0.2190 C   0  0  0  0  0  0  0  0  0  0  0  0
   -1.8230   -1.3040    0.9830 C   0  0  0  0  0  0  0  0  0  0  0  0
   -3.2620   -0.7920    0.8340 C   0  0  2  0  0  0  0  0  0  0  0  0
   -3.8800   -1.3760   -0.3500 N   0  0  0  0  0  0  0  0  0  0  0  0
   -2.9890    0.6890    0.6060 C   0  0  0  0  0  0  0  0  0  0  0  0
  1  2  1  0
  2  3  1  0
  3  4  1  0
  4  5  1  0
  5  6  1  0
  6  7  2  0
  6  8  1  0
  8  9  1  0
  9 10  1  6
  9 11  1  0
  9 15  1  0
 11 12  1  0
 12 13  1  0
 13 14  1  6
 13 15  1  0
M  CHG  1  14   1
M  END
