
     RDKit          3D

 15 15  0  0  0  0  0  0  0  0999 V2000
   -2.9190    2.8000   -0.1900 C   0  0  0  0  0  0  0  0  0  0  0  0
   -2.3780    1.4200   -0.6240 C   0  0  0  0  0  0  0  0  0  0  0  0
   -1.5930    0.9070    0.3690 O   0  0  0  0  0  0  0  0  0  0  0  0
   -1.0070   -0.3390    0.0890 C   0  0  2  0  0  0  0  0  0  0  0  0
   -2.1180   -1.3330   -0.0460 C   0  0  0  0  0  0  0  0  0  0  0  0
   -1.7350   -2.6840   -0.2940 N   0  0  0  0  0  0  0  0  0  0  0  0
   -0.0960   -0.6320    1.2580 C   0  0  0  0  0  0  0  0  0  0  0  0
    1.3660   -0.6080    0.8680 C   0  0  2  0  0  0  0  0  0  0  0  0
    2.1170   -1.1720    1.9100 O   0  0  0  0  0  0  0  0  0  0  0  0
    1.8760    0.7900    0.6670 C   0  0  0  0  0  0  0  0  0  0  0  0
    3.2240    0.7850    0.3320 O   0  0  0  0  0  0  0  0  0  0  0  0
    3.7050    2.0910    0.1430 C   0  0  0  0  0  0  0  0  0  0  0  0
    1.6170   -1.4450   -0.3520 C   0  0  0  0  0  0  0  0  0  0  0  0
    0.6260   -1.0890   -1.4250 C   0  0  0  0  0  0  0  0  0  0  0  0
   -0.2450   -0.1320   -1.0220 O   0  0  0  0  0  0  0  0  0  0  0  0
  1  2  1  0
  2  3  1  0
  3  4  1  0
  4  5  1  6
  4  7  1  0
  4 15  1  0
  5  6  1  0
  7  8  1  0
  8  9  1  1
  8 10  1  0
  8 13  1  0
 10 11  1  0
 11 12  1  0
 13 14  1  0
 14 15  1  0
M  CHG  1   6   1
M  END
