
     RDKit          3D

 15 15  0  0  0  0  0  0  0  0999 V2000
    3.9700    1.5040   -0.5190 C   0  0  0  0  0  0  0  0  0  0  0  0
    3.3210    0.5010   -1.2150 O   0  0  0  0  0  0  0  0  0  0  0  0
    3.0580   -0.6110   -0.3980 C   0  0  0  0  0  0  0  0  0  0  0  0
    2.1810   -0.2550    0.7820 C   0  0  2  0  0  0  0  0  0  0  0  0
    1.7380   -1.5820    1.4010 C   0  0  0  0  0  0  0  0  0  0  0  0
    0.7390   -1.9650    0.5400 O   0  0  0  0  0  0  0  0  0  0  0  0
    0.2290   -0.8220   -0.0610 C   0  0  1  0  0  0  0  0  0  0  0  0
   -1.2580   -0.7030    0.1380 C   0  0  2  0  0  0  0  0  0  0  0  0
   -1.9240   -1.8470   -0.4400 N   0  0  0  0  0  0  0  0  0  0  0  0
   -1.8300    0.6060   -0.2680 C   0  0  2  0  0  0  0  0  0  0  0  0
   -1.6460    0.9760   -1.6920 C   0  0  0  0  0  0  0  0  0  0  0  0
   -1.2710    1.6950    0.6140 C   0  0  0  0  0  0  0  0  0  0  0  0
   -3.3310    0.5530    0.0090 C   0  0  0  0  0  0  0  0  0  0  0  0
   -3.4780    0.3250    1.3750 O   0  0  0  0  0  0  0  0  0  0  0  0
    0.9470    0.2510    0.3790 O   0  0  0  0  0  0  0  0  0  0  0  0
  1  2  1  0
  2  3  1  0
  4  3  1  6
  4  5  1  0
  4 15  1  0
  5  6  1  0
  7  6  1  1
  7  8  1  0
  7 15  1  0
  8  9  1  6
  8 10  1  0
 10 11  1  6
 10 12  1  0
 10 13  1  0
 13 14  1  0
M  CHG  1   9   1
M  END
