
     RDKit          3D

 15 15  0  0  0  0  0  0  0  0999 V2000
    0.7510    2.7880    0.1070 C   0  0  0  0  0  0  0  0  0  0  0  0
    1.7060    1.8530    0.0420 C   0  0  0  0  0  0  0  0  0  0  0  0
    2.8860    2.2180   -0.5240 O   0  0  0  0  0  0  0  0  0  0  0  0
    1.4770    0.5150    0.5570 C   0  0  0  0  0  0  0  0  0  0  0  0
    2.4030   -0.4040    0.4980 C   0  0  0  0  0  0  0  0  0  0  0  0
    3.7620   -0.3810   -0.0250 C   0  0  0  0  0  0  0  0  0  0  0  0
    3.9350   -1.3750   -1.1100 N   0  0  0  0  0  0  0  0  0  0  0  0
    0.2970    0.2580    1.0880 O   0  0  0  0  0  0  0  0  0  0  0  0
   -0.8520    0.0110    1.6040 C   0  0  0  0  0  0  0  0  0  0  0  0
   -2.0690    0.0830    0.6380 C   0  0  1  0  0  0  0  0  0  0  0  0
   -1.7920   -0.9020   -0.4600 C   0  0  0  0  0  0  0  0  0  0  0  0
   -2.8760   -1.1270   -1.2780 O   0  0  0  0  0  0  0  0  0  0  0  0
   -4.0230   -0.4920   -0.8030 C   0  0  0  0  0  0  0  0  0  0  0  0
   -4.1870   -0.8500    0.6430 C   0  0  0  0  0  0  0  0  0  0  0  0
   -3.1890   -0.2100    1.3750 O   0  0  0  0  0  0  0  0  0  0  0  0
  1  2  2  0
  2  3  1  0
  2  4  1  0
  4  5  2  3
  4  8  1  0
  5  6  1  0
  6  7  1  0
  8  9  1  0
 10  9  1  1
 10 11  1  0
 10 15  1  0
 11 12  1  0
 12 13  1  0
 13 14  1  0
 14 15  1  0
M  CHG  1   7   1
M  END
