
     RDKit          3D

 22 23  0  0  0  0  0  0  0  0999 V2000
    7.3530    0.6550   -0.2270 C   0  0  0  0  0  0  0  0  0  0  0  0
    6.1950    0.0310   -0.1050 C   0  0  0  0  0  0  0  0  0  0  0  0
    6.1420   -1.4130   -0.2050 C   0  0  0  0  0  0  0  0  0  0  0  0
    4.9660   -1.9750   -0.0760 C   0  0  0  0  0  0  0  0  0  0  0  0
    3.7170   -1.2180    0.1620 C   0  0  0  0  0  0  0  0  0  0  0  0
    3.6610    0.0790    0.2660 C   0  0  0  0  0  0  0  0  0  0  0  0
    2.4950    0.8010    0.4890 N   0  0  0  0  0  0  0  0  0  0  0  0
    1.1840    0.2920    0.6420 C   0  0  0  0  0  0  0  0  0  0  0  0
    0.9660   -0.9340    0.5820 O   0  0  0  0  0  0  0  0  0  0  0  0
    0.0650    1.1320    0.8670 N   0  0  0  0  0  0  0  0  0  0  0  0
   -1.3010    0.7510    1.0080 C   0  0  0  0  0  0  0  0  0  0  0  0
   -1.8520    0.1390   -0.2260 C   0  0  1  0  0  0  0  0  0  0  0  0
   -1.1830   -1.0090   -0.5750 O   0  0  0  0  0  0  0  0  0  0  0  0
   -3.3210   -0.2490   -0.0680 C   0  0  2  0  0  0  0  0  0  0  0  0
   -3.7470   -0.8570   -1.3980 C   0  0  0  0  0  0  0  0  0  0  0  0
   -5.1180   -1.4560   -1.1780 C   0  0  0  0  0  0  0  0  0  0  0  0
   -5.9230   -0.6240   -0.4430 O   0  0  0  0  0  0  0  0  0  0  0  0
   -5.5630    0.7030   -0.4680 C   0  0  0  0  0  0  0  0  0  0  0  0
   -4.1970    0.9520    0.1660 C   0  0  1  0  0  0  0  0  0  0  0  0
   -4.3800    1.1270    1.5250 O   0  0  0  0  0  0  0  0  0  0  0  0
    4.9590    0.7810    0.1300 C   0  0  0  0  0  0  0  0  0  0  0  0
    5.0610    2.0470    0.2090 N   0  0  0  0  0  0  0  0  0  0  0  0
  1  2  2  0
  2  3  1  0
  2 21  1  0
  3  4  2  0
  4  5  1  0
  5  6  2  0
  6  7  1  0
  6 21  1  0
  7  8  1  0
  8  9  2  0
  8 10  1  0
 10 11  1  0
 11 12  1  0
 12 13  1  1
 12 14  1  0
 14 15  1  6
 14 19  1  0
 15 16  1  0
 16 17  1  0
 17 18  1  0
 18 19  1  0
 19 20  1  1
 21 22  2  0
M  END
