
     RDKit          3D

 12 12  0  0  0  0  0  0  0  0999 V2000
   -0.3510   -2.3360    0.0910 N   0  0  0  0  0  0  0  0  0  0  0  0
    0.0780   -0.9460    0.2590 C   0  0  1  0  0  0  0  0  0  0  0  0
    1.1130   -0.6970   -0.8160 C   0  0  0  0  0  0  0  0  0  0  0  0
    1.6230    0.6020   -0.7870 O   0  0  0  0  0  0  0  0  0  0  0  0
    2.2820    1.1260    0.2980 C   0  0  0  0  0  0  0  0  0  0  0  0
    2.4670    0.4610    1.3380 O   0  0  0  0  0  0  0  0  0  0  0  0
    2.7850    2.4330    0.3040 O   0  0  0  0  0  0  0  0  0  0  0  0
   -1.0980   -0.0560    0.0480 C   0  0  0  0  0  0  0  0  0  0  0  0
   -2.2840   -0.4330   -0.2320 N   0  0  0  0  0  0  0  0  0  0  0  0
   -3.1450    0.6350   -0.3640 O   0  0  0  0  0  0  0  0  0  0  0  0
   -2.4210    1.7550    0.1630 C   0  0  0  0  0  0  0  0  0  0  0  0
   -1.0730    1.3310    0.1260 O   0  0  0  0  0  0  0  0  0  0  0  0
  2  1  1  6
  2  3  1  0
  2  8  1  0
  3  4  1  0
  4  5  1  0
  5  6  2  0
  5  7  1  0
  8  9  2  0
  8 12  1  0
  9 10  1  0
 10 11  1  0
 11 12  1  0
M  CHG  1   1   1
M  END
