
     RDKit          3D

 12 12  0  0  0  0  0  0  0  0999 V2000
    2.9570    0.9780    1.1980 N   0  0  0  0  0  0  0  0  0  0  0  0
    3.1410   -0.3090    0.6430 C   0  0  0  0  0  0  0  0  0  0  0  0
    4.2990   -0.7880    0.5280 O   0  0  0  0  0  0  0  0  0  0  0  0
    1.9930   -1.1120    0.1900 C   0  0  0  0  0  0  0  0  0  0  0  0
    0.7850   -0.4140    0.3980 O   0  0  0  0  0  0  0  0  0  0  0  0
   -0.4130   -0.9930    0.0410 C   0  0  0  0  0  0  0  0  0  0  0  0
   -0.3820   -2.1430   -0.4660 O   0  0  0  0  0  0  0  0  0  0  0  0
   -1.7240   -0.3520    0.2140 C   0  0  2  0  0  0  0  0  0  0  0  0
   -2.3270   -0.0440   -1.1210 C   0  0  0  0  0  0  0  0  0  0  0  0
   -2.9050    1.0910   -0.9890 N   0  0  0  0  0  0  0  0  0  0  0  0
   -2.7270    1.5340    0.3010 N   0  0  0  0  0  0  0  0  0  0  0  0
   -1.6240    0.9130    0.7830 O   0  0  0  0  0  0  0  0  0  0  0  0
  1  2  1  0
  2  3  2  0
  2  4  1  0
  4  5  1  0
  5  6  1  0
  6  7  2  0
  8  6  1  6
  8  9  1  0
  8 12  1  0
  9 10  2  0
 10 11  1  0
 11 12  1  0
M  CHG  1  11   1
M  END
