
     RDKit          3D

 13 13  0  0  0  0  0  0  0  0999 V2000
    3.2530    0.8030    0.8600 N   0  0  0  0  0  0  0  0  0  0  0  0
    3.3740   -0.4410    0.2070 C   0  0  0  0  0  0  0  0  0  0  0  0
    4.4440   -0.9990    0.1690 O   0  0  0  0  0  0  0  0  0  0  0  0
    2.2030   -1.0610   -0.4270 C   0  0  0  0  0  0  0  0  0  0  0  0
    1.0150   -0.2480   -0.2790 N   0  0  0  0  0  0  0  0  0  0  0  0
   -0.2490   -0.6210   -0.8010 C   0  0  0  0  0  0  0  0  0  0  0  0
   -0.3170   -1.7160   -1.4190 O   0  0  0  0  0  0  0  0  0  0  0  0
   -1.4660    0.2140   -0.6470 C   0  0  1  0  0  0  0  0  0  0  0  0
   -2.6150   -0.4030   -1.2740 N   0  0  0  0  0  0  0  0  0  0  0  0
   -3.6650    0.1770   -0.6520 O   0  0  0  0  0  0  0  0  0  0  0  0
   -3.2030    0.7270    0.5250 C   0  0  1  0  0  0  0  0  0  0  0  0
   -3.9820    0.3190    1.6130 O   0  0  0  0  0  0  0  0  0  0  0  0
   -1.8700    0.3380    0.6690 O   0  0  0  0  0  0  0  0  0  0  0  0
  1  2  1  0
  2  3  2  0
  2  4  1  0
  4  5  1  0
  5  6  1  0
  6  7  2  0
  8  6  1  1
  8  9  1  0
  8 13  1  0
  9 10  1  0
 10 11  1  0
 11 12  1  1
 11 13  1  0
M  CHG  1   1   1
M  END
