
     RDKit          3D

 13 13  0  0  0  0  0  0  0  0999 V2000
    1.2320   -2.2240    0.0630 N   0  0  0  0  0  0  0  0  0  0  0  0
    1.4480   -0.9560    0.6790 C   0  0  0  0  0  0  0  0  0  0  0  0
    2.2870   -0.8840    1.6090 O   0  0  0  0  0  0  0  0  0  0  0  0
    0.7380    0.2610    0.2780 C   0  0  1  0  0  0  0  0  0  0  0  0
   -0.7570    0.1170    0.4860 C   0  0  0  0  0  0  0  0  0  0  0  0
   -1.2720   -0.9500   -0.2580 O   0  0  0  0  0  0  0  0  0  0  0  0
   -2.5880   -1.0130   -0.0230 N   0  0  0  0  0  0  0  0  0  0  0  0
    1.1560    1.3460    1.0570 O   0  0  0  0  0  0  0  0  0  0  0  0
    1.0860    2.4980    0.2660 C   0  0  0  0  0  0  0  0  0  0  0  0
    1.0900    3.6910    0.6670 O   0  0  0  0  0  0  0  0  0  0  0  0
    1.0070    2.1090   -1.1050 N   0  0  0  0  0  0  0  0  0  0  0  0
    1.0320    0.6890   -1.0990 C   0  0  0  0  0  0  0  0  0  0  0  0
    1.2620   -0.0500   -2.0840 O   0  0  0  0  0  0  0  0  0  0  0  0
  1  2  1  0
  2  3  2  0
  2  4  1  0
  4  5  1  6
  4  8  1  0
  4 12  1  0
  5  6  1  0
  6  7  1  0
  8  9  1  0
  9 10  2  0
  9 11  1  0
 11 12  1  0
 12 13  2  0
M  CHG  1   7   1
M  END
