
     RDKit          3D

 13 12  0  0  0  0  0  0  0  0999 V2000
   -4.7630    0.1160    0.5640 C   0  0  0  0  0  0  0  0  0  0  0  0
   -4.2260   -0.2410   -0.7000 N   0  0  0  0  0  0  0  0  0  0  0  0
   -2.9700    0.2240   -0.9900 N   0  0  0  0  0  0  0  0  0  0  0  0
   -1.7870   -0.0770   -0.2760 C   0  0  0  0  0  0  0  0  0  0  0  0
   -1.8690   -0.8370    0.7180 O   0  0  0  0  0  0  0  0  0  0  0  0
   -0.4800    0.4520   -0.6400 C   0  0  0  0  0  0  0  0  0  0  0  0
   -0.4520    1.2190   -1.6600 O   0  0  0  0  0  0  0  0  0  0  0  0
    0.6730    0.1520    0.0670 O   0  0  0  0  0  0  0  0  0  0  0  0
    1.8660    0.7500   -0.4190 C   0  0  0  0  0  0  0  0  0  0  0  0
    3.0380    0.3840    0.3780 C   0  0  0  0  0  0  0  0  0  0  0  0
    2.8560   -0.3980    1.3750 O   0  0  0  0  0  0  0  0  0  0  0  0
    4.3220    0.8220    0.1280 O   0  0  0  0  0  0  0  0  0  0  0  0
    5.4180    0.4780    0.8750 N   0  0  0  0  0  0  0  0  0  0  0  0
  1  2  1  0
  2  3  1  0
  3  4  1  0
  4  5  2  0
  4  6  1  0
  6  7  2  0
  6  8  1  0
  8  9  1  0
  9 10  1  0
 10 11  2  0
 10 12  1  0
 12 13  1  0
M  CHG  1  13   1
M  END
