
     RDKit          3D

 22 24  0  0  0  0  0  0  0  0999 V2000
   -4.7370    1.8890    1.8380 N   0  0  0  0  0  0  0  0  0  0  0  0
   -4.1100    1.0090    1.1380 C   0  0  0  0  0  0  0  0  0  0  0  0
   -4.8010    0.0230    0.4960 C   0  0  0  0  0  0  0  0  0  0  0  0
   -4.1500   -0.9350   -0.2630 C   0  0  0  0  0  0  0  0  0  0  0  0
   -2.7670   -0.8430   -0.3370 C   0  0  0  0  0  0  0  0  0  0  0  0
   -2.0710   -1.7610   -1.0720 C   0  0  0  0  0  0  0  0  0  0  0  0
   -2.7590   -2.7660   -1.7280 O   0  0  0  0  0  0  0  0  0  0  0  0
   -0.6680   -1.7040   -1.1740 C   0  0  0  0  0  0  0  0  0  0  0  0
   -0.0810   -2.6570   -1.9220 O   0  0  0  0  0  0  0  0  0  0  0  0
   -0.0370   -0.6980   -0.5110 C   0  0  0  0  0  0  0  0  0  0  0  0
    1.4300   -0.5760   -0.5720 C   0  0  0  0  0  0  0  0  0  0  0  0
    2.0440   -1.4280   -1.2500 O   0  0  0  0  0  0  0  0  0  0  0  0
    2.0980    0.4630    0.1110 N   0  0  0  0  0  0  0  0  0  0  0  0
    3.4990    0.6060    0.0840 C   0  0  0  0  0  0  0  0  0  0  0  0
    4.1020    1.8410    0.3590 C   0  0  0  0  0  0  0  0  0  0  0  0
    5.4660    2.0210    0.3710 C   0  0  0  0  0  0  0  0  0  0  0  0
    6.2730    0.9790    0.1100 N   0  0  0  0  0  0  0  0  0  0  0  0
    5.7510   -0.2220   -0.1590 C   0  0  0  0  0  0  0  0  0  0  0  0
    4.3540   -0.4160   -0.1730 C   0  0  0  0  0  0  0  0  0  0  0  0
   -0.7340    0.2310    0.2320 C   0  0  0  0  0  0  0  0  0  0  0  0
   -2.1030    0.1620    0.3220 C   0  0  0  0  0  0  0  0  0  0  0  0
   -2.7730    1.0830    1.0560 N   0  0  0  0  0  0  0  0  0  0  0  0
  1  2  2  0
  2  3  1  0
  2 22  1  0
  3  4  2  0
  4  5  1  0
  5  6  2  0
  5 21  1  0
  6  7  1  0
  6  8  1  0
  8  9  1  0
  8 10  2  0
 10 11  1  0
 10 20  1  0
 11 12  2  0
 11 13  1  0
 13 14  1  0
 14 15  2  0
 14 19  1  0
 15 16  1  0
 16 17  2  0
 17 18  1  0
 18 19  2  0
 20 21  2  0
 21 22  1  0
M  CHG  1   1   1
M  END
