
     RDKit          3D

 23 24  0  0  0  0  0  0  0  0999 V2000
   -2.6430   -2.0250   -2.6920 C   0  0  0  0  0  0  0  0  0  0  0  0
   -2.3860   -1.5330   -1.3220 C   0  0  0  0  0  0  0  0  0  0  0  0
   -1.1760   -1.8260   -0.7310 C   0  0  0  0  0  0  0  0  0  0  0  0
   -0.8460   -1.4060    0.5470 C   0  0  0  0  0  0  0  0  0  0  0  0
    0.4210   -1.7930    1.0380 N   0  0  0  0  0  0  0  0  0  0  0  0
    1.5320   -0.9160    1.0050 C   0  0  0  0  0  0  0  0  0  0  0  0
    1.3830    0.2300    0.5250 O   0  0  0  0  0  0  0  0  0  0  0  0
    2.8130   -1.2990    1.4960 N   0  0  0  0  0  0  0  0  0  0  0  0
    3.9410   -0.4960    1.4800 N   0  0  0  0  0  0  0  0  0  0  0  0
    4.5520   -0.0640    0.2750 C   0  0  0  0  0  0  0  0  0  0  0  0
    3.9980   -0.4520   -0.7810 O   0  0  0  0  0  0  0  0  0  0  0  0
    5.7680    0.7900    0.2580 C   0  0  0  0  0  0  0  0  0  0  0  0
    6.3740    1.1540   -0.8580 C   0  0  0  0  0  0  0  0  0  0  0  0
    7.5220    1.9540   -0.7550 C   0  0  0  0  0  0  0  0  0  0  0  0
    7.7050    2.1700    1.0380 S   0  0  0  0  0  0  0  0  0  0  0  0
    6.2960    1.2160    1.4770 C   0  0  0  0  0  0  0  0  0  0  0  0
   -1.7770   -0.6700    1.2330 C   0  0  0  0  0  0  0  0  0  0  0  0
   -3.0020   -0.3650    0.6590 C   0  0  0  0  0  0  0  0  0  0  0  0
   -4.0420    0.4030    1.3680 C   0  0  0  0  0  0  0  0  0  0  0  0
   -4.1000    1.8040    0.8080 C   0  0  0  0  0  0  0  0  0  0  0  0
   -5.1160    2.6000    1.4780 N   0  0  0  0  0  0  0  0  0  0  0  0
   -3.3070   -0.7940   -0.6170 C   0  0  0  0  0  0  0  0  0  0  0  0
   -4.5140   -0.5030   -1.2080 O   0  0  0  0  0  0  0  0  0  0  0  0
  1  2  1  0
  2  3  2  0
  2 22  1  0
  3  4  1  0
  4  5  1  0
  4 17  2  0
  5  6  1  0
  6  7  2  0
  6  8  1  0
  8  9  1  0
  9 10  1  0
 10 11  2  0
 10 12  1  0
 12 13  1  0
 12 16  2  0
 13 14  2  0
 14 15  1  0
 15 16  1  0
 17 18  1  0
 18 19  1  0
 18 22  2  0
 19 20  1  0
 20 21  1  0
 22 23  1  0
M  CHG  1  21   1
M  END
