
     RDKit          3D

 23 25  0  0  0  0  0  0  0  0999 V2000
    6.9920    0.8840    0.1800 N   0  0  0  0  0  0  0  0  0  0  0  0
    5.6020    0.6110   -0.0790 C   0  0  2  0  0  0  0  0  0  0  0  0
    4.7850    0.4640    1.1880 C   0  0  0  0  0  0  0  0  0  0  0  0
    3.3550    0.7080    0.8730 C   0  0  0  0  0  0  0  0  0  0  0  0
    2.9390   -0.3330   -0.1800 C   0  0  0  0  0  0  0  0  0  0  0  0
    3.9320   -0.9190   -0.9100 C   0  0  0  0  0  0  0  0  0  0  0  0
    3.0530   -2.0810   -2.0340 S   0  0  0  0  0  0  0  0  0  0  0  0
    1.4500   -1.6500   -1.3970 C   0  0  0  0  0  0  0  0  0  0  0  0
    0.2480   -2.1450   -1.7860 N   0  0  0  0  0  0  0  0  0  0  0  0
   -0.9010   -1.7290   -1.2250 C   0  0  0  0  0  0  0  0  0  0  0  0
   -0.7690   -0.7810   -0.2450 C   0  0  0  0  0  0  0  0  0  0  0  0
   -1.9450   -0.2450    0.3770 N   0  0  0  0  0  0  0  0  0  0  0  0
   -3.2250   -0.2360   -0.1410 C   0  0  0  0  0  0  0  0  0  0  0  0
   -3.4810   -0.7190   -1.2600 O   0  0  0  0  0  0  0  0  0  0  0  0
   -4.3820    0.3350    0.5700 C   0  0  0  0  0  0  0  0  0  0  0  0
   -4.1790    0.8240    1.6980 O   0  0  0  0  0  0  0  0  0  0  0  0
   -5.6890    0.3520    0.0380 N   0  0  0  0  0  0  0  0  0  0  0  0
   -6.8260    0.9120    0.7310 C   0  0  0  0  0  0  0  0  0  0  0  0
   -8.0480    0.7490   -0.1500 C   0  0  0  0  0  0  0  0  0  0  0  0
   -8.3070   -0.5720   -0.4320 O   0  0  0  0  0  0  0  0  0  0  0  0
    0.4640   -0.2650    0.1660 C   0  0  0  0  0  0  0  0  0  0  0  0
    1.6610   -0.7230   -0.4440 C   0  0  0  0  0  0  0  0  0  0  0  0
    5.3800   -0.6810   -0.8240 C   0  0  0  0  0  0  0  0  0  0  0  0
  2  1  1  1
  2  3  1  0
  2 23  1  0
  3  4  1  0
  4  5  1  0
  5  6  2  0
  5 22  1  0
  6  7  1  0
  6 23  1  0
  7  8  1  0
  8  9  2  0
  8 22  1  0
  9 10  1  0
 10 11  2  0
 11 12  1  0
 11 21  1  0
 12 13  1  0
 13 14  2  0
 13 15  1  0
 15 16  2  0
 15 17  1  0
 17 18  1  0
 18 19  1  0
 19 20  1  0
 21 22  2  0
M  CHG  1   1   1
M  END
