
     RDKit          3D

 23 24  0  0  0  0  0  0  0  0999 V2000
   -4.4710   -2.6990    1.5340 C   0  0  0  0  0  0  0  0  0  0  0  0
   -5.1840   -1.8360    0.8940 C   0  0  0  0  0  0  0  0  0  0  0  0
   -4.8120   -0.5770    0.3280 C   0  0  0  0  0  0  0  0  0  0  0  0
   -5.7770    0.3400   -0.0740 C   0  0  0  0  0  0  0  0  0  0  0  0
   -7.1970   -0.0010    0.1150 C   0  0  0  0  0  0  0  0  0  0  0  0
   -5.3240    1.4860   -0.6020 N   0  0  0  0  0  0  0  0  0  0  0  0
   -4.0400    1.8000   -0.7640 C   0  0  0  0  0  0  0  0  0  0  0  0
   -3.7740    2.9370   -1.2850 O   0  0  0  0  0  0  0  0  0  0  0  0
   -3.0120    0.9170   -0.3780 C   0  0  0  0  0  0  0  0  0  0  0  0
   -1.6870    1.0930   -0.4780 C   0  0  0  0  0  0  0  0  0  0  0  0
   -0.8570    0.1090   -0.0450 C   0  0  0  0  0  0  0  0  0  0  0  0
    0.6060    0.0400   -0.0330 C   0  0  0  0  0  0  0  0  0  0  0  0
    1.1030   -1.0100    0.4050 O   0  0  0  0  0  0  0  0  0  0  0  0
    1.4290    1.0810   -0.4770 N   0  0  0  0  0  0  0  0  0  0  0  0
    2.8000    1.1720   -0.5210 N   0  0  0  0  0  0  0  0  0  0  0  0
    3.7540    0.3060    0.0380 C   0  0  0  0  0  0  0  0  0  0  0  0
    3.4380   -0.7080    0.6680 O   0  0  0  0  0  0  0  0  0  0  0  0
    5.1740    0.5900   -0.1110 C   0  0  0  0  0  0  0  0  0  0  0  0
    6.0540   -0.2340    0.4000 C   0  0  0  0  0  0  0  0  0  0  0  0
    7.4930    0.0520    0.2540 C   0  0  0  0  0  0  0  0  0  0  0  0
    8.2310   -0.9560   -0.4560 N   0  0  0  0  0  0  0  0  0  0  0  0
   -1.9650   -1.1250    0.5310 S   0  0  0  0  0  0  0  0  0  0  0  0
   -3.4640   -0.2650    0.1670 C   0  0  0  0  0  0  0  0  0  0  0  0
  1  2  2  0
  2  3  1  0
  3  4  2  0
  3 23  1  0
  4  5  1  0
  4  6  1  0
  6  7  1  0
  7  8  2  0
  7  9  1  0
  9 10  1  0
  9 23  2  0
 10 11  2  0
 11 12  1  0
 11 22  1  0
 12 13  2  0
 12 14  1  0
 14 15  1  0
 15 16  1  0
 16 17  2  0
 16 18  1  0
 18 19  2  3
 19 20  1  0
 20 21  1  0
 22 23  1  0
M  CHG  1  21   1
M  END
