
     RDKit          3D

 23 24  0  0  0  0  0  0  0  0999 V2000
   -6.5750    0.4880   -0.4780 C   0  0  0  0  0  0  0  0  0  0  0  0
   -5.2540    0.2570    0.1430 C   0  0  0  0  0  0  0  0  0  0  0  0
   -4.2090    0.9790   -0.2750 C   0  0  0  0  0  0  0  0  0  0  0  0
   -2.8730    0.9740    0.1250 N   0  0  0  0  0  0  0  0  0  0  0  0
   -2.1090    0.0240    0.5560 C   0  0  0  0  0  0  0  0  0  0  0  0
   -0.7690    0.3870    0.8830 N   0  0  0  0  0  0  0  0  0  0  0  0
   -2.4060   -1.3610    0.7770 C   0  0  0  0  0  0  0  0  0  0  0  0
   -1.3940   -2.4240    0.6010 C   0  0  0  0  0  0  0  0  0  0  0  0
   -0.7210   -2.6160   -1.0150 S   0  0  0  0  0  0  0  0  0  0  0  0
    0.5910   -1.5710   -1.4430 C   0  0  0  0  0  0  0  0  0  0  0  0
    0.6930   -1.1690   -2.6640 O   0  0  0  0  0  0  0  0  0  0  0  0
    1.6350   -1.0770   -0.5190 C   0  0  0  0  0  0  0  0  0  0  0  0
    1.6370   -1.4650    0.6800 O   0  0  0  0  0  0  0  0  0  0  0  0
    2.6350   -0.1780   -0.9480 N   0  0  0  0  0  0  0  0  0  0  0  0
    3.6790    0.3700   -0.1790 C   0  0  0  0  0  0  0  0  0  0  0  0
    3.8670    0.1530    1.1740 C   0  0  0  0  0  0  0  0  0  0  0  0
    4.9190    0.7360    1.8600 C   0  0  0  0  0  0  0  0  0  0  0  0
    5.8160    1.5550    1.2180 C   0  0  0  0  0  0  0  0  0  0  0  0
    5.6250    1.7680   -0.1270 C   0  0  0  0  0  0  0  0  0  0  0  0
    4.5980    1.2060   -0.8250 C   0  0  0  0  0  0  0  0  0  0  0  0
    4.4450    1.4480   -2.1760 O   0  0  0  0  0  0  0  0  0  0  0  0
   -3.5930   -1.9030    1.1390 C   0  0  0  0  0  0  0  0  0  0  0  0
   -5.1170   -1.0080    1.4300 S   0  0  0  0  0  0  0  0  0  0  0  0
  1  2  1  0
  2  3  2  0
  2 23  1  0
  3  4  1  0
  4  5  2  0
  5  6  1  0
  5  7  1  0
  7  8  1  0
  7 22  2  0
  8  9  1  0
  9 10  1  0
 10 11  2  0
 10 12  1  0
 12 13  2  0
 12 14  1  0
 14 15  1  0
 15 16  2  0
 15 20  1  0
 16 17  1  0
 17 18  2  0
 18 19  1  0
 19 20  2  0
 20 21  1  0
 22 23  1  0
M  CHG  1   4   1
M  END
