
     RDKit          3D

 23 25  0  0  0  0  0  0  0  0999 V2000
    7.4920    0.6250    2.1760 N   0  0  0  0  0  0  0  0  0  0  0  0
    7.5240   -0.0520    0.9400 C   0  0  0  0  0  0  0  0  0  0  0  0
    8.6090   -0.4120    0.4420 O   0  0  0  0  0  0  0  0  0  0  0  0
    6.2700   -0.3280    0.2440 C   0  0  0  0  0  0  0  0  0  0  0  0
    5.1230    0.0380    0.7430 C   0  0  0  0  0  0  0  0  0  0  0  0
    3.8660   -0.2910   -0.0480 C   0  0  0  0  0  0  0  0  0  0  0  0
    3.7230   -0.9150   -1.2140 C   0  0  0  0  0  0  0  0  0  0  0  0
    2.4890   -1.0570   -1.6580 N   0  0  0  0  0  0  0  0  0  0  0  0
    1.5030   -0.6940   -1.1420 C   0  0  0  0  0  0  0  0  0  0  0  0
    0.0820   -0.6810   -1.3320 N   0  0  0  0  0  0  0  0  0  0  0  0
   -0.7900   -0.0970   -0.3920 C   0  0  0  0  0  0  0  0  0  0  0  0
   -0.2880    0.4370    0.6620 O   0  0  0  0  0  0  0  0  0  0  0  0
   -2.2290   -0.0440   -0.5100 C   0  0  0  0  0  0  0  0  0  0  0  0
   -2.9720    0.5640    0.4910 C   0  0  0  0  0  0  0  0  0  0  0  0
   -4.3550    0.6710    0.4790 C   0  0  0  0  0  0  0  0  0  0  0  0
   -5.0340    0.1380   -0.5970 C   0  0  0  0  0  0  0  0  0  0  0  0
   -4.3130   -0.4780   -1.6180 C   0  0  0  0  0  0  0  0  0  0  0  0
   -2.9150   -0.5670   -1.5710 C   0  0  0  0  0  0  0  0  0  0  0  0
   -2.2960   -1.1940   -2.6270 O   0  0  0  0  0  0  0  0  0  0  0  0
   -6.3190    0.3480   -0.4060 C   0  0  0  0  0  0  0  0  0  0  0  0
   -6.5190    1.0260    0.8060 N   0  0  0  0  0  0  0  0  0  0  0  0
   -5.2210    1.2030    1.3250 C   0  0  0  0  0  0  0  0  0  0  0  0
    2.2500    0.0920    0.4110 S   0  0  0  0  0  0  0  0  0  0  0  0
  1  2  1  0
  2  3  2  0
  2  4  1  0
  4  5  2  3
  5  6  1  0
  6  7  2  0
  6 23  1  0
  7  8  1  0
  8  9  2  0
  9 10  1  0
  9 23  1  0
 10 11  1  0
 11 12  2  0
 11 13  1  0
 13 14  2  0
 13 18  1  0
 14 15  1  0
 15 16  1  0
 15 22  2  0
 16 17  1  0
 16 20  2  0
 17 18  2  0
 18 19  1  0
 20 21  1  0
 21 22  1  0
M  CHG  1  21   1
M  END
