
     RDKit          3D

 23 24  0  0  0  0  0  0  0  0999 V2000
    8.2290   -0.9270   -0.3550 C   0  0  0  0  0  0  0  0  0  0  0  0
    6.9000   -0.4550   -0.3070 O   0  0  0  0  0  0  0  0  0  0  0  0
    6.1210   -1.5460    0.0110 C   0  0  0  0  0  0  0  0  0  0  0  0
    4.6800   -1.2620    0.1140 C   0  0  0  0  0  0  0  0  0  0  0  0
    3.9090   -2.2120    0.4040 O   0  0  0  0  0  0  0  0  0  0  0  0
    4.0820    0.0160   -0.0910 N   0  0  0  0  0  0  0  0  0  0  0  0
    2.7070    0.1840    0.0310 N   0  0  0  0  0  0  0  0  0  0  0  0
    2.0470    1.3850   -0.2410 C   0  0  0  0  0  0  0  0  0  0  0  0
    2.7060    2.3800   -0.6200 O   0  0  0  0  0  0  0  0  0  0  0  0
    0.6010    1.5390   -0.1020 C   0  0  0  0  0  0  0  0  0  0  0  0
   -0.3470    0.6890    0.2810 C   0  0  0  0  0  0  0  0  0  0  0  0
   -1.6360    1.0790    0.3340 C   0  0  0  0  0  0  0  0  0  0  0  0
   -2.7910    0.2160    0.7530 C   0  0  0  0  0  0  0  0  0  0  0  0
   -2.9460   -0.1710    2.0670 C   0  0  0  0  0  0  0  0  0  0  0  0
   -4.0310   -0.9770    2.4180 C   0  0  0  0  0  0  0  0  0  0  0  0
   -4.9490   -1.3870    1.4570 C   0  0  0  0  0  0  0  0  0  0  0  0
   -4.7590   -0.9790    0.1540 C   0  0  0  0  0  0  0  0  0  0  0  0
   -5.6890   -1.3970   -0.8110 N   0  0  0  0  0  0  0  0  0  0  0  0
   -3.6850   -0.1790   -0.2070 C   0  0  0  0  0  0  0  0  0  0  0  0
   -3.5590    0.1950   -1.5500 N   0  0  0  0  0  0  0  0  0  0  0  0
   -1.9130    2.3770   -0.0220 C   0  0  0  0  0  0  0  0  0  0  0  0
   -3.1870    3.1340   -0.0810 C   0  0  0  0  0  0  0  0  0  0  0  0
   -0.2760    3.0810   -0.4530 S   0  0  0  0  0  0  0  0  0  0  0  0
  1  2  1  0
  2  3  1  0
  3  4  1  0
  4  5  2  0
  4  6  1  0
  6  7  1  0
  7  8  1  0
  8  9  2  0
  8 10  1  0
 10 11  2  0
 10 23  1  0
 11 12  1  0
 12 13  1  0
 12 21  2  0
 13 14  2  0
 13 19  1  0
 14 15  1  0
 15 16  2  0
 16 17  1  0
 17 18  1  0
 17 19  2  0
 19 20  1  0
 21 22  1  0
 21 23  1  0
M  CHG  1  18   1
M  END
