
     RDKit          3D

 13 13  0  0  0  0  0  0  0  0999 V2000
    2.5200    0.6240   -1.1030 C   0  0  0  0  0  0  0  0  0  0  0  0
    1.9760   -0.4730   -0.2790 C   0  0  0  0  0  0  0  0  0  0  0  0
    2.5200   -1.6680   -0.2040 O   0  0  0  0  0  0  0  0  0  0  0  0
    1.8530   -2.4490    0.5850 N   0  0  0  0  0  0  0  0  0  0  0  0
    0.8120   -1.7510    1.0660 C   0  0  0  0  0  0  0  0  0  0  0  0
   -0.0150   -2.2590    1.8640 O   0  0  0  0  0  0  0  0  0  0  0  0
    0.8640   -0.4870    0.5320 C   0  0  0  0  0  0  0  0  0  0  0  0
   -0.0900    0.6000    0.7930 C   0  0  0  0  0  0  0  0  0  0  0  0
   -1.0540    0.8070   -0.3640 C   0  0  2  0  0  0  0  0  0  0  0  0
   -1.9600    1.8840   -0.0370 N   0  0  0  0  0  0  0  0  0  0  0  0
   -1.8600   -0.4120   -0.6100 C   0  0  0  0  0  0  0  0  0  0  0  0
   -1.2950   -1.4790   -0.9490 O   0  0  0  0  0  0  0  0  0  0  0  0
   -3.2560   -0.4530   -0.4870 O   0  0  0  0  0  0  0  0  0  0  0  0
  1  2  1  0
  2  3  1  0
  2  7  2  0
  3  4  1  0
  4  5  1  0
  5  6  2  0
  5  7  1  0
  7  8  1  0
  8  9  1  0
  9 10  1  1
  9 11  1  0
 11 12  2  0
 11 13  1  0
M  CHG  1  10   1
M  END
