
     RDKit          3D

 23 24  0  0  0  0  0  0  0  0999 V2000
    7.6720    1.5420    0.6450 C   0  0  0  0  0  0  0  0  0  0  0  0
    6.2530    1.0650    0.4750 C   0  0  0  0  0  0  0  0  0  0  0  0
    5.5380    1.6760   -0.3500 O   0  0  0  0  0  0  0  0  0  0  0  0
    5.7300   -0.0140    1.1970 N   0  0  0  0  0  0  0  0  0  0  0  0
    4.3760   -0.5140    1.0680 C   0  0  0  0  0  0  0  0  0  0  0  0
    4.1830   -0.9820   -0.3550 C   0  0  0  0  0  0  0  0  0  0  0  0
    2.8490   -1.5190   -0.5890 N   0  0  0  0  0  0  0  0  0  0  0  0
    1.7020   -0.6610   -0.4050 C   0  0  0  0  0  0  0  0  0  0  0  0
    1.8990    0.5280   -0.0510 O   0  0  0  0  0  0  0  0  0  0  0  0
    0.4050   -1.1690   -0.6230 N   0  0  0  0  0  0  0  0  0  0  0  0
   -0.8020   -0.4490   -0.4930 C   0  0  0  0  0  0  0  0  0  0  0  0
   -0.9010    0.9000   -0.3660 C   0  0  0  0  0  0  0  0  0  0  0  0
   -2.1030    1.5610   -0.2240 C   0  0  0  0  0  0  0  0  0  0  0  0
   -3.2930    0.8480   -0.2060 C   0  0  0  0  0  0  0  0  0  0  0  0
   -3.2090   -0.5100   -0.3340 C   0  0  0  0  0  0  0  0  0  0  0  0
   -2.0020   -1.1740   -0.4770 C   0  0  0  0  0  0  0  0  0  0  0  0
   -4.1720   -1.4400   -0.3520 C   0  0  0  0  0  0  0  0  0  0  0  0
   -5.6100   -1.3920   -0.2490 C   0  0  0  0  0  0  0  0  0  0  0  0
   -6.2850   -2.6340   -0.3140 O   0  0  0  0  0  0  0  0  0  0  0  0
   -6.4000   -0.3500   -0.1010 C   0  0  0  0  0  0  0  0  0  0  0  0
   -6.0660    1.3660    0.0300 S   0  0  0  0  0  0  0  0  0  0  0  0
   -6.6130    1.9900    1.3480 N   0  0  0  0  0  0  0  0  0  0  0  0
   -4.3360    1.6380   -0.0640 C   0  0  0  0  0  0  0  0  0  0  0  0
  1  2  1  0
  2  3  2  0
  2  4  1  0
  4  5  1  0
  5  6  1  0
  6  7  1  0
  7  8  1  0
  8  9  2  0
  8 10  1  0
 10 11  1  0
 11 12  1  0
 11 16  2  0
 12 13  2  0
 13 14  1  0
 14 15  1  0
 14 23  2  0
 15 16  1  0
 15 17  2  0
 17 18  1  0
 18 19  1  0
 18 20  2  0
 21 20  1  1
 21 22  2  0
 21 23  1  0
M  CHG  1  22   1
M  END
