
     RDKit          3D

 17 18  0  0  0  0  0  0  0  0999 V2000
    4.3250    0.5020    0.3190 N   0  0  0  0  0  0  0  0  0  0  0  0
    3.2630   -0.3960   -0.6960 S   0  0  1  0  0  0  0  0  0  0  0  0
    2.9520    0.3810   -1.9570 O   0  0  0  0  0  0  0  0  0  0  0  0
    3.8340   -1.7220   -1.0960 O   0  0  0  0  0  0  0  0  0  0  0  0
    1.8130   -0.6950    0.1930 N   0  0  0  0  0  0  0  0  0  0  0  0
    0.8390    0.3650   -0.0020 C   0  0  2  0  0  0  0  0  0  0  0  0
    0.6470    1.0310    1.3010 C   0  0  0  0  0  0  0  0  0  0  0  0
    1.4820    0.8110    2.2190 O   0  0  0  0  0  0  0  0  0  0  0  0
   -0.3570    1.8910    1.6680 O   0  0  0  0  0  0  0  0  0  0  0  0
   -1.5350    2.3310    1.0290 C   0  0  0  0  0  0  0  0  0  0  0  0
   -2.3010    1.2260    0.3720 C   0  0  0  0  0  0  0  0  0  0  0  0
   -1.6040   -0.0870    0.3380 C   0  0  1  0  0  0  0  0  0  0  0  0
   -2.5460   -1.0920   -0.3060 C   0  0  0  0  0  0  0  0  0  0  0  0
   -1.6260   -2.2720   -0.5080 C   0  0  0  0  0  0  0  0  0  0  0  0
   -0.2890   -1.6690   -0.7870 C   0  0  0  0  0  0  0  0  0  0  0  0
   -0.4330   -0.1600   -0.5930 C   0  0  2  0  0  0  0  0  0  0  0  0
   -0.6570    0.3770   -1.8360 O   0  0  0  0  0  0  0  0  0  0  0  0
  2  1  1  1
  2  3  2  0
  2  4  2  0
  2  5  1  0
  6  5  1  1
  6  7  1  0
  6 16  1  0
  7  8  2  0
  7  9  1  0
  9 10  1  0
 10 11  1  0
 12 11  1  6
 12 13  1  0
 12 16  1  0
 13 14  1  0
 14 15  1  0
 15 16  1  0
 16 17  1  6
M  END
