
     RDKit          3D

 23 24  0  0  0  0  0  0  0  0999 V2000
   -3.3200   -0.1090   -2.2170 C   0  0  0  0  0  0  0  0  0  0  0  0
   -2.8650    0.6240   -1.0770 O   0  0  0  0  0  0  0  0  0  0  0  0
   -3.0910    0.1360    0.1970 C   0  0  0  0  0  0  0  0  0  0  0  0
   -4.4960    0.3360    0.6720 C   0  0  0  0  0  0  0  0  0  0  0  0
   -2.1780   -0.4470    0.9310 C   0  0  0  0  0  0  0  0  0  0  0  0
   -2.2700   -1.0230    2.3010 C   0  0  0  0  0  0  0  0  0  0  0  0
   -1.6270   -2.3730    2.0870 C   0  0  0  0  0  0  0  0  0  0  0  0
   -0.5710   -2.1660    1.0420 C   0  0  0  0  0  0  0  0  0  0  0  0
   -0.7900   -0.7180    0.5960 C   0  0  0  0  0  0  0  0  0  0  0  0
    0.1140    0.0930    0.1040 C   0  0  0  0  0  0  0  0  0  0  0  0
    1.4250   -0.5770   -0.1150 C   0  0  0  0  0  0  0  0  0  0  0  0
    1.4960   -1.5640   -1.0590 C   0  0  0  0  0  0  0  0  0  0  0  0
    2.6750   -2.2240   -1.2530 C   0  0  0  0  0  0  0  0  0  0  0  0
    3.7880   -1.8990   -0.5030 C   0  0  0  0  0  0  0  0  0  0  0  0
    5.0830   -2.6090   -0.7020 C   0  0  0  0  0  0  0  0  0  0  0  0
    3.7060   -0.9130    0.4370 C   0  0  0  0  0  0  0  0  0  0  0  0
    2.5020   -0.2250    0.6510 C   0  0  0  0  0  0  0  0  0  0  0  0
    2.5190    0.7800    1.7190 C   0  0  0  0  0  0  0  0  0  0  0  0
    0.0800    1.5090   -0.1950 C   0  0  2  0  0  0  0  0  0  0  0  0
   -0.8730    2.3840    0.5090 C   0  0  0  0  0  0  0  0  0  0  0  0
    0.2120    1.8400   -1.6880 C   0  0  0  0  0  0  0  0  0  0  0  0
    0.1680    3.3160   -1.8950 C   0  0  0  0  0  0  0  0  0  0  0  0
    1.2200    3.9540   -1.2020 O   0  0  0  0  0  0  0  0  0  0  0  0
  1  2  1  0
  2  3  1  0
  3  4  1  0
  3  5  2  3
  5  6  1  0
  5  9  1  0
  6  7  1  0
  7  8  1  0
  8  9  1  0
  9 10  2  3
 10 11  1  0
 10 19  1  0
 11 12  2  0
 11 17  1  0
 12 13  1  0
 13 14  2  0
 14 15  1  0
 14 16  1  0
 16 17  2  0
 17 18  1  0
 19 20  1  6
 19 21  1  0
 21 22  1  0
 22 23  1  0
M  END
