
     RDKit          3D

 23 24  0  0  0  0  0  0  0  0999 V2000
   -2.6250    4.0480    0.0050 C   0  0  0  0  0  0  0  0  0  0  0  0
   -3.6150    2.9400    0.0990 C   0  0  0  0  0  0  0  0  0  0  0  0
   -2.9710    1.6110   -0.0690 C   0  0  0  0  0  0  0  0  0  0  0  0
   -1.6870    1.3210   -0.2810 C   0  0  0  0  0  0  0  0  0  0  0  0
   -1.5130   -0.1160   -0.3820 C   0  0  0  0  0  0  0  0  0  0  0  0
   -0.3850   -0.8280   -0.5930 C   0  0  0  0  0  0  0  0  0  0  0  0
    0.8410   -0.0660   -0.7410 C   0  0  0  0  0  0  0  0  0  0  0  0
    2.0460   -0.5510   -0.9500 C   0  0  0  0  0  0  0  0  0  0  0  0
    2.3040   -1.9630   -1.0630 C   0  0  0  0  0  0  0  0  0  0  0  0
    1.4580   -2.8940   -0.9500 O   0  0  0  0  0  0  0  0  0  0  0  0
    3.1420    0.4230   -1.1290 C   0  0  0  0  0  0  0  0  0  0  0  0
    4.2120    0.4550   -0.1010 C   0  0  2  0  0  0  0  0  0  0  0  0
    3.6000    0.8000    1.2700 C   0  0  0  0  0  0  0  0  0  0  0  0
    5.0290    1.5780   -0.4050 O   0  0  0  0  0  0  0  0  0  0  0  0
    5.1250   -0.7030    0.0070 C   0  0  0  0  0  0  0  0  0  0  0  0
    6.1880   -0.4610    1.0940 C   0  0  0  0  0  0  0  0  0  0  0  0
   -2.8280   -0.7170   -0.2120 C   0  0  0  0  0  0  0  0  0  0  0  0
   -3.2470   -2.0330   -0.2170 C   0  0  0  0  0  0  0  0  0  0  0  0
   -4.5750   -2.3490   -0.0300 C   0  0  0  0  0  0  0  0  0  0  0  0
   -5.0440   -3.7730   -0.0320 C   0  0  0  0  0  0  0  0  0  0  0  0
   -5.4520   -1.3020    0.1590 C   0  0  0  0  0  0  0  0  0  0  0  0
   -5.0350    0.0130    0.1640 C   0  0  0  0  0  0  0  0  0  0  0  0
   -3.6970    0.3380   -0.0240 C   0  0  0  0  0  0  0  0  0  0  0  0
  1  2  1  0
  2  3  1  0
  3  4  2  0
  3 23  1  0
  4  5  1  0
  5  6  2  3
  5 17  1  0
  6  7  1  0
  7  8  2  3
  8  9  1  0
  8 11  1  0
  9 10  2  0
 11 12  1  0
 12 13  1  1
 12 14  1  0
 12 15  1  0
 15 16  1  0
 17 18  2  0
 17 23  1  0
 18 19  1  0
 19 20  1  0
 19 21  2  0
 21 22  1  0
 22 23  2  0
M  END
