
     RDKit          3D

 23 24  0  0  0  0  0  0  0  0999 V2000
   -4.8730   -2.2650   -0.7770 C   0  0  0  0  0  0  0  0  0  0  0  0
   -3.7250   -1.9190   -0.2360 C   0  0  0  0  0  0  0  0  0  0  0  0
   -2.8810   -2.9720    0.3600 C   0  0  0  0  0  0  0  0  0  0  0  0
   -3.2810   -0.5480   -0.2350 C   0  0  0  0  0  0  0  0  0  0  0  0
   -3.9610    0.4160   -0.9930 C   0  0  0  0  0  0  0  0  0  0  0  0
   -3.5740    1.7380   -1.0120 C   0  0  0  0  0  0  0  0  0  0  0  0
   -4.3160    2.7550   -1.8310 C   0  0  0  0  0  0  0  0  0  0  0  0
   -2.4850    2.1080   -0.2590 C   0  0  0  0  0  0  0  0  0  0  0  0
   -1.8060    1.1580    0.4950 C   0  0  0  0  0  0  0  0  0  0  0  0
   -2.1830   -0.1640    0.5220 C   0  0  0  0  0  0  0  0  0  0  0  0
   -1.5170   -1.1060    1.2660 O   0  0  0  0  0  0  0  0  0  0  0  0
   -0.4080   -0.9450    2.0760 C   0  0  0  0  0  0  0  0  0  0  0  0
    0.7580   -0.4670    1.3110 C   0  0  0  0  0  0  0  0  0  0  0  0
    1.8930    0.0420    1.9450 C   0  0  0  0  0  0  0  0  0  0  0  0
    2.9960    0.4870    1.2560 C   0  0  0  0  0  0  0  0  0  0  0  0
    3.0070    0.4390   -0.1120 C   0  0  0  0  0  0  0  0  0  0  0  0
    4.1490    0.8650   -0.8870 C   0  0  0  0  0  0  0  0  0  0  0  0
    5.3490    0.4070   -0.7680 C   0  0  0  0  0  0  0  0  0  0  0  0
    6.3830    1.0330   -1.7030 C   0  0  0  0  0  0  0  0  0  0  0  0
    5.7520   -0.6650    0.1020 C   0  0  0  0  0  0  0  0  0  0  0  0
    4.9840   -1.2850    0.8210 O   0  0  0  0  0  0  0  0  0  0  0  0
    1.8680   -0.0720   -0.7570 C   0  0  0  0  0  0  0  0  0  0  0  0
    0.7780   -0.5100   -0.0600 C   0  0  0  0  0  0  0  0  0  0  0  0
  1  2  2  0
  2  3  1  0
  2  4  1  0
  4  5  2  0
  4 10  1  0
  5  6  1  0
  6  7  1  0
  6  8  2  0
  8  9  1  0
  9 10  2  0
 10 11  1  0
 11 12  1  0
 12 13  1  0
 13 14  2  0
 13 23  1  0
 14 15  1  0
 15 16  2  0
 16 17  1  0
 16 22  1  0
 17 18  2  3
 18 19  1  0
 18 20  1  0
 20 21  2  0
 22 23  2  0
M  END
