
     RDKit          3D

 23 24  0  0  0  0  0  0  0  0999 V2000
   -4.6680   -2.0250   -0.4300 C   0  0  0  0  0  0  0  0  0  0  0  0
   -4.8190   -0.7740   -0.6510 C   0  0  0  0  0  0  0  0  0  0  0  0
   -3.9400    0.2840   -0.2480 C   0  0  0  0  0  0  0  0  0  0  0  0
   -4.2990    1.5190   -0.5300 C   0  0  0  0  0  0  0  0  0  0  0  0
   -3.6220    2.7780   -0.2560 C   0  0  0  0  0  0  0  0  0  0  0  0
   -2.7430    0.0340    0.5210 C   0  0  0  0  0  0  0  0  0  0  0  0
   -2.2880    0.8420    1.5410 C   0  0  0  0  0  0  0  0  0  0  0  0
   -1.0790    0.6360    2.1580 C   0  0  0  0  0  0  0  0  0  0  0  0
   -0.2260   -0.3870    1.8170 C   0  0  0  0  0  0  0  0  0  0  0  0
    1.0640   -0.5990    2.5550 C   0  0  0  0  0  0  0  0  0  0  0  0
   -0.6500   -1.2090    0.8040 C   0  0  0  0  0  0  0  0  0  0  0  0
    0.2060   -2.3080    0.3250 C   0  0  0  0  0  0  0  0  0  0  0  0
   -0.2100   -3.5130    0.4720 O   0  0  0  0  0  0  0  0  0  0  0  0
    1.4930   -2.1300   -0.3080 C   0  0  0  0  0  0  0  0  0  0  0  0
    2.2550   -3.3750   -0.6820 C   0  0  0  0  0  0  0  0  0  0  0  0
    2.0500   -0.9640   -0.5820 C   0  0  0  0  0  0  0  0  0  0  0  0
    3.4000   -0.8210   -1.2410 C   0  0  0  0  0  0  0  0  0  0  0  0
    3.9020    0.4620   -0.6270 C   0  0  0  0  0  0  0  0  0  0  0  0
    2.6260    1.2860   -0.5430 C   0  0  1  0  0  0  0  0  0  0  0  0
    2.6420    2.2280    0.6160 C   0  0  0  0  0  0  0  0  0  0  0  0
    2.5080    2.0750   -1.8250 C   0  0  0  0  0  0  0  0  0  0  0  0
    1.6190    0.3350   -0.3770 O   0  0  0  0  0  0  0  0  0  0  0  0
   -1.8640   -1.0060    0.1790 C   0  0  0  0  0  0  0  0  0  0  0  0
  1  2  2  0
  2  3  1  0
  3  4  2  3
  3  6  1  0
  4  5  1  0
  6  7  2  0
  6 23  1  0
  7  8  1  0
  8  9  2  0
  9 10  1  0
  9 11  1  0
 11 12  1  0
 11 23  2  0
 12 13  2  0
 12 14  1  0
 14 15  1  0
 14 16  2  3
 16 17  1  0
 16 22  1  0
 17 18  1  0
 18 19  1  0
 19 20  1  1
 19 21  1  0
 19 22  1  0
M  END
