
     RDKit          3D

 30 30  0  0  0  0  0  0  0  0999 V2000
   -6.4720    2.7480   -0.3570 C   0  0  0  0  0  0  0  0  0  0  0  0
   -7.1670    1.5800    0.2450 C   0  0  0  0  0  0  0  0  0  0  0  0
   -7.6650    0.6810   -0.6710 O   0  0  0  0  0  0  0  0  0  0  0  0
   -6.7480    0.0970   -1.5010 C   0  0  0  0  0  0  0  0  0  0  0  0
   -5.6960   -0.6880   -0.7800 C   0  0  0  0  0  0  0  0  0  0  0  0
   -5.9890   -1.9810   -0.4510 C   0  0  0  0  0  0  0  0  0  0  0  0
   -5.0270   -2.7000    0.2090 C   0  0  0  0  0  0  0  0  0  0  0  0
   -3.7880   -2.1650    0.5470 C   0  0  0  0  0  0  0  0  0  0  0  0
   -2.8060   -3.0160    1.2580 C   0  0  0  0  0  0  0  0  0  0  0  0
   -1.6980   -3.5290    0.3970 C   0  0  0  0  0  0  0  0  0  0  0  0
   -3.5320   -0.8780    0.2050 C   0  0  0  0  0  0  0  0  0  0  0  0
   -2.2660   -0.2340    0.5190 C   0  0  0  0  0  0  0  0  0  0  0  0
   -1.3820   -0.8680    1.1270 O   0  0  0  0  0  0  0  0  0  0  0  0
   -2.0430    1.1050    0.1350 O   0  0  0  0  0  0  0  0  0  0  0  0
   -0.8020    1.6960    0.4550 C   0  0  0  0  0  0  0  0  0  0  0  0
    0.3190    0.9710   -0.1770 C   0  0  0  0  0  0  0  0  0  0  0  0
    0.0730    0.0060   -0.8720 O   0  0  0  0  0  0  0  0  0  0  0  0
    1.7380    1.3670   -0.0020 C   0  0  0  0  0  0  0  0  0  0  0  0
    2.6570    0.4440   -0.7650 C   0  0  0  0  0  0  0  0  0  0  0  0
    4.0810    0.8250   -0.6010 C   0  0  0  0  0  0  0  0  0  0  0  0
    4.4320    2.1100   -1.0920 O   0  0  0  0  0  0  0  0  0  0  0  0
    3.6980    2.7360   -2.0030 O   0  0  0  0  0  0  0  0  0  0  0  0
    5.0250    0.1130   -0.0630 C   0  0  0  0  0  0  0  0  0  0  0  0
    4.6990   -1.2490    0.4690 C   0  0  0  0  0  0  0  0  0  0  0  0
    5.4240   -2.2260   -0.1700 O   0  0  0  0  0  0  0  0  0  0  0  0
    6.4230    0.5400    0.0830 C   0  0  2  0  0  0  0  0  0  0  0  0
    6.7300    1.9300   -0.3950 C   0  0  0  0  0  0  0  0  0  0  0  0
    7.2940   -0.4770   -0.6720 C   0  0  0  0  0  0  0  0  0  0  0  0
    6.9460    0.4360    1.8730 P   0  0  0  0  0  0  0  0  0  0  0  0
   -4.4970   -0.1130   -0.4720 C   0  0  0  0  0  0  0  0  0  0  0  0
  1  2  1  0
  2  3  1  0
  3  4  1  0
  4  5  1  0
  5  6  2  0
  5 30  1  0
  6  7  1  0
  7  8  2  0
  8  9  1  0
  8 11  1  0
  9 10  1  0
 11 12  1  0
 11 30  2  0
 12 13  2  0
 12 14  1  0
 14 15  1  0
 15 16  1  0
 16 17  2  0
 16 18  1  0
 18 19  1  0
 19 20  1  0
 20 21  1  0
 20 23  2  3
 21 22  1  0
 23 24  1  0
 23 26  1  0
 24 25  1  0
 26 27  1  6
 26 28  1  0
 26 29  1  0
M  END
