
     RDKit          3D

 29 28  0  0  0  0  0  0  0  0999 V2000
   -2.7970   -4.1680    2.2440 C   0  0  0  0  0  0  0  0  0  0  0  0
   -3.2780   -2.7910    2.5810 C   0  0  0  0  0  0  0  0  0  0  0  0
   -2.7140   -1.7460    1.6070 C   0  0  0  0  0  0  0  0  0  0  0  0
   -1.2640   -1.7870    1.7000 C   0  0  0  0  0  0  0  0  0  0  0  0
   -0.6290   -2.5120    2.4550 O   0  0  0  0  0  0  0  0  0  0  0  0
   -0.4500   -0.8430    0.7770 C   0  0  0  0  0  0  0  0  0  0  0  0
   -1.1760   -0.1170    0.0250 C   0  0  0  0  0  0  0  0  0  0  0  0
   -0.9290    0.8670   -0.9700 C   0  0  0  0  0  0  0  0  0  0  0  0
   -2.0510    1.4550   -1.5500 C   0  0  0  0  0  0  0  0  0  0  0  0
   -1.7460    2.4700   -2.5770 C   0  0  0  0  0  0  0  0  0  0  0  0
   -3.2370    1.0400   -1.1150 O   0  0  0  0  0  0  0  0  0  0  0  0
   -4.4720    0.8550   -1.5820 N   0  0  0  0  0  0  0  0  0  0  0  0
   -5.5770    0.5400   -0.6320 C   0  0  0  0  0  0  0  0  0  0  0  0
   -4.8620    0.9270   -2.9610 C   0  0  0  0  0  0  0  0  0  0  0  0
   -6.2940    0.6930   -3.3010 C   0  0  0  0  0  0  0  0  0  0  0  0
   -4.0240    1.1770   -3.8410 O   0  0  0  0  0  0  0  0  0  0  0  0
    0.9340   -0.9470    1.0380 C   0  0  0  0  0  0  0  0  0  0  0  0
    1.2000   -1.9900    1.9230 O   0  0  0  0  0  0  0  0  0  0  0  0
    2.1280   -0.3230    0.6870 C   0  0  0  0  0  0  0  0  0  0  0  0
    2.4680    0.6710   -0.0390 C   0  0  0  0  0  0  0  0  0  0  0  0
    3.8950    1.0540   -0.1860 C   0  0  0  0  0  0  0  0  0  0  0  0
    4.1250    2.0280   -0.9510 O   0  0  0  0  0  0  0  0  0  0  0  0
    4.9650    0.3550    0.5070 C   0  0  1  0  0  0  0  0  0  0  0  0
    4.8750    0.4410    2.0240 C   0  0  0  0  0  0  0  0  0  0  0  0
    5.1270   -1.0720    0.1380 C   0  0  0  0  0  0  0  0  0  0  0  0
    5.5700   -1.9260    0.8810 O   0  0  0  0  0  0  0  0  0  0  0  0
    6.2990    1.0220    0.0720 C   0  0  2  0  0  0  0  0  0  0  0  0
    6.2450    2.4530    0.4990 C   0  0  0  0  0  0  0  0  0  0  0  0
    6.2950    0.9310   -1.3360 O   0  0  0  0  0  0  0  0  0  0  0  0
  1  2  1  0
  2  3  1  0
  3  4  1  0
  4  5  2  0
  4  6  1  0
  6  7  2  3
  6 17  1  0
  7  8  1  0
  8  9  2  3
  9 10  1  0
  9 11  1  0
 11 12  1  0
 12 13  1  0
 12 14  1  0
 14 15  1  0
 14 16  2  0
 17 18  2  0
 17 19  1  0
 19 20  2  3
 20 21  1  0
 21 22  2  0
 21 23  1  0
 23 24  1  1
 23 25  1  0
 23 27  1  0
 25 26  2  0
 27 28  1  6
 27 29  1  0
M  END
