
     RDKit          3D

 30 30  0  0  0  0  0  0  0  0999 V2000
    7.1040   -0.6320   -0.9730 C   0  0  0  0  0  0  0  0  0  0  0  0
    7.1330   -0.9570    0.5070 C   0  0  0  0  0  0  0  0  0  0  0  0
    6.2770   -1.9720    0.8500 O   0  0  0  0  0  0  0  0  0  0  0  0
    4.9500   -1.7610    0.5880 C   0  0  0  0  0  0  0  0  0  0  0  0
    4.3740   -0.5540    1.3180 C   0  0  0  0  0  0  0  0  0  0  0  0
    2.9450   -0.3700    1.0050 C   0  0  0  0  0  0  0  0  0  0  0  0
    2.0680   -1.4990    1.4960 C   0  0  0  0  0  0  0  0  0  0  0  0
    2.4450    0.6090    0.3560 C   0  0  0  0  0  0  0  0  0  0  0  0
    3.4130    1.6580   -0.1360 C   0  0  0  0  0  0  0  0  0  0  0  0
    4.5980    1.5890    0.0520 O   0  0  0  0  0  0  0  0  0  0  0  0
    2.9460    2.7810   -0.8500 O   0  0  0  0  0  0  0  0  0  0  0  0
    1.0690    0.9470   -0.0300 C   0  0  1  0  0  0  0  0  0  0  0  0
    0.8290    2.3940    0.5530 C   0  0  0  0  0  0  0  0  0  0  0  0
    1.0230    1.1070   -1.5510 C   0  0  0  0  0  0  0  0  0  0  0  0
    1.9750    0.6890   -2.2000 O   0  0  0  0  0  0  0  0  0  0  0  0
   -0.1680    1.7490   -2.0470 C   0  0  0  0  0  0  0  0  0  0  0  0
   -1.2620    1.7960   -1.2640 C   0  0  0  0  0  0  0  0  0  0  0  0
   -2.4340    2.4710   -1.8520 C   0  0  0  0  0  0  0  0  0  0  0  0
   -1.2210    1.2350   -0.0190 O   0  0  0  0  0  0  0  0  0  0  0  0
   -0.1380    0.2090    0.2980 C   0  0  1  0  0  0  0  0  0  0  0  0
   -0.4370   -0.8680   -0.4870 O   0  0  0  0  0  0  0  0  0  0  0  0
   -1.1080   -1.9090    0.0570 C   0  0  0  0  0  0  0  0  0  0  0  0
   -2.5240   -1.6300    0.5350 C   0  0  0  0  0  0  0  0  0  0  0  0
   -3.4350   -1.2260   -0.5850 C   0  0  0  0  0  0  0  0  0  0  0  0
   -4.8040   -0.9760   -0.1220 N   0  0  0  0  0  0  0  0  0  0  0  0
   -5.6370   -0.6600   -1.2910 C   0  0  0  0  0  0  0  0  0  0  0  0
   -4.8620    0.1140    0.8290 C   0  0  0  0  0  0  0  0  0  0  0  0
   -6.2090    0.3840    1.3580 C   0  0  0  0  0  0  0  0  0  0  0  0
   -7.4130   -0.4290    1.0760 C   0  0  0  0  0  0  0  0  0  0  0  0
   -6.3700    1.3550    2.0960 O   0  0  0  0  0  0  0  0  0  0  0  0
  1  2  1  0
  2  3  1  0
  3  4  1  0
  4  5  1  0
  5  6  1  0
  6  7  1  0
  6  8  2  3
  8  9  1  0
  8 12  1  0
  9 10  2  0
  9 11  1  0
 12 13  1  1
 12 14  1  0
 12 20  1  0
 14 15  2  0
 14 16  1  0
 16 17  2  0
 17 18  1  0
 17 19  1  0
 19 20  1  0
 20 21  1  6
 21 22  1  0
 22 23  1  0
 23 24  1  0
 24 25  1  0
 25 26  1  0
 25 27  1  0
 27 28  1  0
 28 29  1  0
 28 30  2  0
M  END
