
     RDKit          3D

 29 29  0  0  0  0  0  0  0  0999 V2000
   -1.5700   -4.8760   -1.0880 C   0  0  0  0  0  0  0  0  0  0  0  0
   -0.4160   -4.3520   -0.3100 C   0  0  0  0  0  0  0  0  0  0  0  0
   -0.1700   -2.8420   -0.6120 C   0  0  0  0  0  0  0  0  0  0  0  0
   -1.2520   -2.2130   -0.2770 O   0  0  0  0  0  0  0  0  0  0  0  0
   -1.4820   -0.8400   -0.4130 C   0  0  1  0  0  0  0  0  0  0  0  0
   -1.2190   -0.4600   -1.8320 C   0  0  0  0  0  0  0  0  0  0  0  0
   -1.4500    0.9250   -2.3030 C   0  0  0  0  0  0  0  0  0  0  0  0
   -2.9770   -0.7050   -0.2320 C   0  0  0  0  0  0  0  0  0  0  0  0
   -3.5180   -1.2060    1.0750 C   0  0  0  0  0  0  0  0  0  0  0  0
   -0.7630   -0.1670    0.6910 C   0  0  1  0  0  0  0  0  0  0  0  0
   -1.0990    1.2790    0.9900 C   0  0  0  0  0  0  0  0  0  0  0  0
   -0.7470    2.2200    0.0540 O   0  0  0  0  0  0  0  0  0  0  0  0
   -0.9640    3.5580    0.1430 C   0  0  0  0  0  0  0  0  0  0  0  0
   -1.5380    4.0240    1.1610 O   0  0  0  0  0  0  0  0  0  0  0  0
   -0.5410    4.5210   -0.9380 C   0  0  0  0  0  0  0  0  0  0  0  0
   -0.8990    5.9250   -0.5860 C   0  0  0  0  0  0  0  0  0  0  0  0
   -1.1830   -0.8220    1.8330 O   0  0  0  0  0  0  0  0  0  0  0  0
   -0.8600   -0.5270    3.0660 C   0  0  0  0  0  0  0  0  0  0  0  0
   -1.3230    0.7350    3.6460 N   0  0  0  0  0  0  0  0  0  0  0  0
   -0.7740    0.7580    4.9970 C   0  0  0  0  0  0  0  0  0  0  0  0
    0.7320   -0.2750    0.6220 C   0  0  0  0  0  0  0  0  0  0  0  0
    1.4440   -0.7370    1.5340 O   0  0  0  0  0  0  0  0  0  0  0  0
    1.4160    0.1630   -0.5290 O   0  0  0  0  0  0  0  0  0  0  0  0
    2.7960    0.0710   -0.6110 C   0  0  0  0  0  0  0  0  0  0  0  0
    3.4230   -0.4110    0.3640 O   0  0  0  0  0  0  0  0  0  0  0  0
    3.5620    0.5190   -1.8050 C   0  0  0  0  0  0  0  0  0  0  0  0
    5.0410    0.2880   -1.5890 C   0  0  1  0  0  0  0  0  0  0  0  0
    5.5180   -1.1350   -1.3400 C   0  0  0  0  0  0  0  0  0  0  0  0
    5.8510   -0.4170   -2.6180 C   0  0  0  0  0  0  0  0  0  0  0  0
  1  2  1  0
  2  3  1  0
  3  4  1  0
  4  5  1  0
  5  6  1  6
  5  8  1  0
  5 10  1  0
  6  7  1  0
  8  9  1  0
 10 11  1  1
 10 17  1  0
 10 21  1  0
 11 12  1  0
 12 13  1  0
 13 14  2  0
 13 15  1  0
 15 16  1  0
 17 18  1  0
 18 19  1  0
 19 20  1  0
 21 22  2  0
 21 23  1  0
 23 24  1  0
 24 25  2  0
 24 26  1  0
 27 26  1  6
 27 28  1  0
 27 29  1  0
 28 29  1  0
M  END
