
     RDKit          3D

 30 29  0  0  0  0  0  0  0  0999 V2000
   -6.4560   -4.5930    1.3920 C   0  0  0  0  0  0  0  0  0  0  0  0
   -5.7200   -4.6810    0.0460 C   0  0  0  0  0  0  0  0  0  0  0  0
   -4.2710   -4.4850    0.3550 C   0  0  0  0  0  0  0  0  0  0  0  0
   -3.3610   -4.5490   -0.8420 C   0  0  0  0  0  0  0  0  0  0  0  0
   -3.6570   -3.5220   -1.8990 C   0  0  0  0  0  0  0  0  0  0  0  0
   -3.5720   -2.1450   -1.4110 C   0  0  0  0  0  0  0  0  0  0  0  0
   -4.6320   -1.4570   -1.2270 O   0  0  0  0  0  0  0  0  0  0  0  0
   -2.3970   -1.4710   -1.1070 O   0  0  0  0  0  0  0  0  0  0  0  0
   -2.4270   -0.1230   -0.6390 C   0  0  0  0  0  0  0  0  0  0  0  0
   -1.0120    0.3790   -0.3390 C   0  0  2  0  0  0  0  0  0  0  0  0
   -0.4410   -0.3590    0.8390 C   0  0  0  0  0  0  0  0  0  0  0  0
    0.9330    0.1100    1.1500 C   0  0  0  0  0  0  0  0  0  0  0  0
    2.0900   -0.1840   -0.1800 P   0  0  2  0  0  0  0  0  0  0  0  0
    2.4730    1.1040   -0.9100 O   0  0  0  0  0  0  0  0  0  0  0  0
    1.4060   -1.2390   -1.3030 O   0  0  0  0  0  0  0  0  0  0  0  0
    3.5280   -0.9030    0.3930 O   0  0  0  0  0  0  0  0  0  0  0  0
    4.4800    0.0430    0.6820 C   0  0  0  0  0  0  0  0  0  0  0  0
    5.7320   -0.6010    1.1920 C   0  0  0  0  0  0  0  0  0  0  0  0
    6.3580   -1.5130    0.2820 N   0  0  2  0  0  0  0  0  0  0  0  0
    5.4400   -2.4870   -0.2440 C   0  0  0  0  0  0  0  0  0  0  0  0
    7.3500   -2.2510    1.0690 C   0  0  0  0  0  0  0  0  0  0  0  0
    7.0860   -0.8440   -0.7810 C   0  0  0  0  0  0  0  0  0  0  0  0
   -1.1910    1.7330    0.0870 O   0  0  0  0  0  0  0  0  0  0  0  0
   -0.6860    2.7910   -0.6280 C   0  0  0  0  0  0  0  0  0  0  0  0
   -0.0640    2.5710   -1.6820 O   0  0  0  0  0  0  0  0  0  0  0  0
   -0.9280    4.1810   -0.0770 C   0  0  0  0  0  0  0  0  0  0  0  0
   -2.3560    4.5410   -0.2570 C   0  0  0  0  0  0  0  0  0  0  0  0
   -2.8280    5.8470    0.2230 C   0  0  0  0  0  0  0  0  0  0  0  0
   -2.2510    7.0840   -0.3520 C   0  0  0  0  0  0  0  0  0  0  0  0
   -0.7770    7.2770   -0.1320 C   0  0  0  0  0  0  0  0  0  0  0  0
  1  2  1  0
  2  3  1  0
  3  4  1  0
  4  5  1  0
  5  6  1  0
  6  7  2  0
  6  8  1  0
  8  9  1  0
 10  9  1  1
 10 11  1  0
 10 23  1  0
 11 12  1  0
 12 13  1  0
 13 14  2  0
 13 15  1  6
 13 16  1  0
 16 17  1  0
 17 18  1  0
 18 19  1  0
 19 20  1  6
 19 21  1  0
 19 22  1  0
 23 24  1  0
 24 25  2  0
 24 26  1  0
 26 27  1  0
 27 28  1  0
 28 29  1  0
 29 30  1  0
M  CHG  2  15  -1  19   1
M  END
