
     RDKit          3D

 30 30  0  0  0  0  0  0  0  0999 V2000
   -2.5380    1.9160    1.4910 C   0  0  0  0  0  0  0  0  0  0  0  0
   -2.5220    0.6310    1.1870 C   0  0  0  0  0  0  0  0  0  0  0  0
   -2.5480    0.1800   -0.2050 C   0  0  2  0  0  0  0  0  0  0  0  0
   -1.2770    0.4060   -0.9350 C   0  0  0  0  0  0  0  0  0  0  0  0
   -0.1290   -0.1870   -0.5240 O   0  0  0  0  0  0  0  0  0  0  0  0
    0.2110   -1.4850   -0.4370 C   0  0  0  0  0  0  0  0  0  0  0  0
   -0.6800   -2.3380   -0.8030 O   0  0  0  0  0  0  0  0  0  0  0  0
    1.5160   -2.0450    0.0480 C   0  0  0  0  0  0  0  0  0  0  0  0
    2.5340   -1.2500    0.2650 O   0  0  0  0  0  0  0  0  0  0  0  0
    3.2920   -0.6090   -0.6190 C   0  0  2  0  0  0  0  0  0  0  0  0
    2.5790    0.3010   -1.5470 C   0  0  0  0  0  0  0  0  0  0  0  0
    4.1560   -1.5310   -1.4830 C   0  0  0  0  0  0  0  0  0  0  0  0
    4.3390    0.2430    0.1640 C   0  0  1  0  0  0  0  0  0  0  0  0
    3.5620    1.2210    0.9740 C   0  0  0  0  0  0  0  0  0  0  0  0
    5.0480   -0.7030    0.8910 O   0  0  0  0  0  0  0  0  0  0  0  0
    5.9800   -0.1450    1.7080 C   0  0  0  0  0  0  0  0  0  0  0  0
    6.7640   -1.2110    2.4860 C   0  0  0  0  0  0  0  0  0  0  0  0
    5.1930    0.9370   -0.8210 C   0  0  0  0  0  0  0  0  0  0  0  0
    6.3580    0.4630   -1.0230 O   0  0  0  0  0  0  0  0  0  0  0  0
    4.8150    2.0680   -1.5330 O   0  0  0  0  0  0  0  0  0  0  0  0
    5.7090    2.6400   -2.4350 C   0  0  0  0  0  0  0  0  0  0  0  0
   -3.6480    0.8520   -0.9970 C   0  0  0  0  0  0  0  0  0  0  0  0
   -4.8870    0.5180   -0.6410 C   0  0  0  0  0  0  0  0  0  0  0  0
   -6.0670    1.1200   -1.3590 C   0  0  0  0  0  0  0  0  0  0  0  0
   -5.0260   -0.4280    0.4670 C   0  0  1  0  0  0  0  0  0  0  0  0
   -6.4190   -1.0010    0.6280 C   0  0  2  0  0  0  0  0  0  0  0  0
   -7.4790    0.0050    0.8970 C   0  0  0  0  0  0  0  0  0  0  0  0
   -6.3490   -1.9400    1.8380 C   0  0  0  0  0  0  0  0  0  0  0  0
   -4.0950   -1.3980    0.4790 O   0  0  0  0  0  0  0  0  0  0  0  0
   -2.9680   -1.2260   -0.2360 N   0  0  0  0  0  0  0  0  0  0  0  0
  1  2  2  0
  2  3  1  0
  3  4  1  6
  3 22  1  0
  3 30  1  0
  4  5  1  0
  5  6  1  0
  6  7  2  0
  6  8  1  0
  8  9  1  0
  9 10  1  0
 10 11  1  6
 10 12  1  0
 10 13  1  0
 13 14  1  1
 13 15  1  0
 13 18  1  0
 15 16  1  0
 16 17  1  0
 18 19  2  0
 18 20  1  0
 20 21  1  0
 22 23  2  0
 23 24  1  0
 23 25  1  0
 25 26  1  0
 25 29  1  6
 26 27  1  1
 26 28  1  0
 29 30  1  0
M  END
