
     RDKit          3D

 29 30  0  0  0  0  0  0  0  0999 V2000
   -4.7250   -1.2510    1.7220 C   0  0  0  0  0  0  0  0  0  0  0  0
   -3.9830   -0.2500    1.1400 O   0  0  0  0  0  0  0  0  0  0  0  0
   -2.8450   -0.8080    0.5520 C   0  0  2  0  0  0  0  0  0  0  0  0
   -3.1190   -1.8110   -0.5030 C   0  0  0  0  0  0  0  0  0  0  0  0
   -1.8430   -1.1270    1.6210 C   0  0  0  0  0  0  0  0  0  0  0  0
   -1.0770    0.1480    1.2990 C   0  0  1  0  0  0  0  0  0  0  0  0
   -1.5240    1.2870    2.2110 C   0  0  0  0  0  0  0  0  0  0  0  0
   -1.3440    2.4040    1.7710 O   0  0  0  0  0  0  0  0  0  0  0  0
    0.3490   -0.0340    1.3060 C   0  0  0  0  0  0  0  0  0  0  0  0
    0.9930    0.7270    2.1400 O   0  0  0  0  0  0  0  0  0  0  0  0
    1.1970   -0.9200    0.5420 C   0  0  0  0  0  0  0  0  0  0  0  0
    0.7540   -1.8430   -0.3790 C   0  0  0  0  0  0  0  0  0  0  0  0
    1.6310   -2.6790   -1.0810 C   0  0  0  0  0  0  0  0  0  0  0  0
    2.9840   -2.6120   -0.8770 C   0  0  0  0  0  0  0  0  0  0  0  0
    3.8890   -3.5130   -1.6380 C   0  0  0  0  0  0  0  0  0  0  0  0
    3.4530   -1.7010    0.0370 C   0  0  0  0  0  0  0  0  0  0  0  0
    2.5930   -0.8850    0.7220 C   0  0  0  0  0  0  0  0  0  0  0  0
    3.1200    0.0470    1.6600 N   0  0  0  0  0  0  0  0  0  0  0  0
    3.7100    1.1310    1.2590 C   0  0  0  0  0  0  0  0  0  0  0  0
    3.8240    1.3740   -0.1680 C   0  0  0  0  0  0  0  0  0  0  0  0
    4.3980    2.4320   -0.7130 C   0  0  0  0  0  0  0  0  0  0  0  0
    4.9980    3.5010    0.0620 C   0  0  0  0  0  0  0  0  0  0  0  0
    5.5250    4.4750   -0.5450 O   0  0  0  0  0  0  0  0  0  0  0  0
   -1.8650    0.2580    0.0450 C   0  0  2  0  0  0  0  0  0  0  0  0
   -2.5260    1.4890   -0.1310 O   0  0  0  0  0  0  0  0  0  0  0  0
   -2.3110    2.0180   -1.2930 O   0  0  0  0  0  0  0  0  0  0  0  0
   -3.2530    3.0080   -1.5200 C   0  0  0  0  0  0  0  0  0  0  0  0
   -3.0200    3.6250   -2.8500 C   0  0  0  0  0  0  0  0  0  0  0  0
   -2.1160    3.2370   -3.5350 O   0  0  0  0  0  0  0  0  0  0  0  0
  1  2  1  0
  2  3  1  0
  3  4  1  6
  3  5  1  0
  3 24  1  0
  5  6  1  0
  6  7  1  1
  6  9  1  0
  6 24  1  0
  7  8  2  0
  9 10  2  0
  9 11  1  0
 11 12  2  0
 11 17  1  0
 12 13  1  0
 13 14  2  0
 14 15  1  0
 14 16  1  0
 16 17  2  0
 17 18  1  0
 18 19  2  3
 19 20  1  0
 20 21  2  3
 21 22  1  0
 22 23  2  0
 24 25  1  1
 25 26  1  0
 26 27  1  0
 27 28  1  0
 28 29  2  0
M  END
