
     RDKit          3D

 29 29  0  0  0  0  0  0  0  0999 V2000
   -6.9030   -0.2770   -1.9730 C   0  0  0  0  0  0  0  0  0  0  0  0
   -6.6910    0.7580   -1.0290 O   0  0  0  0  0  0  0  0  0  0  0  0
   -6.9640    0.6010    0.3210 C   0  0  0  0  0  0  0  0  0  0  0  0
   -5.9520    0.5670    1.1680 C   0  0  0  0  0  0  0  0  0  0  0  0
   -4.5830    0.6890    0.7070 C   0  0  0  0  0  0  0  0  0  0  0  0
   -3.5980    0.6500    1.5770 C   0  0  0  0  0  0  0  0  0  0  0  0
   -2.1960    0.7690    1.1670 C   0  0  0  0  0  0  0  0  0  0  0  0
   -1.2040    0.7300    2.0220 C   0  0  0  0  0  0  0  0  0  0  0  0
    0.2060    0.8500    1.5870 C   0  0  2  0  0  0  0  0  0  0  0  0
    0.7060    2.1440    1.6320 O   0  0  0  0  0  0  0  0  0  0  0  0
    1.7410    2.2520    2.5540 C   0  0  0  0  0  0  0  0  0  0  0  0
    0.3690    0.1820    0.2630 C   0  0  2  0  0  0  0  0  0  0  0  0
   -0.1890   -1.0900    0.3300 O   0  0  0  0  0  0  0  0  0  0  0  0
    1.7490    0.1070   -0.1250 O   0  0  0  0  0  0  0  0  0  0  0  0
    2.2490    0.6380   -1.2830 C   0  0  0  0  0  0  0  0  0  0  0  0
    1.3610    1.2220   -2.0060 O   0  0  0  0  0  0  0  0  0  0  0  0
    3.6260    0.5900   -1.7130 C   0  0  0  0  0  0  0  0  0  0  0  0
    4.0270    1.3420   -2.8400 C   0  0  0  0  0  0  0  0  0  0  0  0
    5.3410    1.3470   -3.2390 C   0  0  0  0  0  0  0  0  0  0  0  0
    6.2700    0.6170   -2.5390 C   0  0  0  0  0  0  0  0  0  0  0  0
    5.8890   -0.1280   -1.4280 C   0  0  0  0  0  0  0  0  0  0  0  0
    4.5790   -0.1410   -1.0220 C   0  0  0  0  0  0  0  0  0  0  0  0
    4.1290   -0.9350    0.1350 C   0  0  1  0  0  0  0  0  0  0  0  0
    3.1840   -1.9590   -0.3500 N   0  0  0  0  0  0  0  0  0  0  0  0
    5.2840   -1.7290    0.6950 C   0  0  0  0  0  0  0  0  0  0  0  0
    5.8450   -2.7110   -0.2920 C   0  0  0  0  0  0  0  0  0  0  0  0
    6.8110   -3.4130    0.0190 O   0  0  0  0  0  0  0  0  0  0  0  0
   -8.2770    0.4770    0.7950 O   0  0  0  0  0  0  0  0  0  0  0  0
   -8.6210   -0.7710    1.3830 C   0  0  0  0  0  0  0  0  0  0  0  0
  1  2  1  0
  2  3  1  0
  3  4  2  3
  3 28  1  0
  4  5  1  0
  5  6  2  3
  6  7  1  0
  7  8  2  3
  8  9  1  0
  9 10  1  6
  9 12  1  0
 10 11  1  0
 12 13  1  1
 12 14  1  0
 14 15  1  0
 15 16  2  0
 15 17  1  0
 17 18  2  0
 17 22  1  0
 18 19  1  0
 19 20  2  0
 20 21  1  0
 21 22  2  0
 22 23  1  0
 23 24  1  6
 23 25  1  0
 25 26  1  0
 26 27  2  0
 28 29  1  0
M  END
