
     RDKit          3D

 11 12  0  0  0  0  0  0  0  0999 V2000
    0.1810    2.4700   -0.1180 N   0  0  0  0  0  0  0  0  0  0  0  0
    0.5370    1.0860   -0.0570 C   0  0  0  0  0  0  0  0  0  0  0  0
    1.8330    0.7140   -0.0480 N   0  0  0  0  0  0  0  0  0  0  0  0
    2.1850   -0.5950    0.0090 C   0  0  0  0  0  0  0  0  0  0  0  0
    3.8910   -0.9970    0.0170 Cl  0  0  0  0  0  0  0  0  0  0  0  0
    1.2200   -1.5780    0.0600 C   0  0  0  0  0  0  0  0  0  0  0  0
   -0.1220   -1.2470    0.0530 C   0  0  0  0  0  0  0  0  0  0  0  0
   -1.2250   -1.9590    0.0930 O   0  0  0  0  0  0  0  0  0  0  0  0
   -2.2470   -1.1310    0.0610 C   0  0  0  0  0  0  0  0  0  0  0  0
   -1.8010    0.1690   -0.0010 C   0  0  0  0  0  0  0  0  0  0  0  0
   -0.4220    0.1010   -0.0060 C   0  0  0  0  0  0  0  0  0  0  0  0
  1  2  1  0
  2  3  2  0
  2 11  1  0
  3  4  1  0
  4  5  1  0
  4  6  2  0
  6  7  1  0
  7  8  1  0
  7 11  2  0
  8  9  1  0
  9 10  2  0
 10 11  1  0
M  END
