
     RDKit          3D

 11 12  0  0  0  0  0  0  0  0999 V2000
    3.7030   -0.2810   -0.1280 O   0  0  0  0  0  0  0  0  0  0  0  0
    2.4420   -0.1650   -0.0820 C   0  0  0  0  0  0  0  0  0  0  0  0
    1.5730   -1.1870   -0.1770 N   0  0  0  0  0  0  0  0  0  0  0  0
    0.3050   -0.7280   -0.0920 C   0  0  0  0  0  0  0  0  0  0  0  0
   -0.9400   -1.3280   -0.1280 C   0  0  0  0  0  0  0  0  0  0  0  0
   -2.0770   -0.5670   -0.0120 C   0  0  0  0  0  0  0  0  0  0  0  0
   -2.0190    0.8020    0.1440 C   0  0  0  0  0  0  0  0  0  0  0  0
   -3.4900    1.7630    0.2920 Cl  0  0  0  0  0  0  0  0  0  0  0  0
   -0.7690    1.3940    0.1800 C   0  0  0  0  0  0  0  0  0  0  0  0
    0.3810    0.6350    0.0630 C   0  0  0  0  0  0  0  0  0  0  0  0
    1.6940    0.9410    0.0650 N   0  0  0  0  0  0  0  0  0  0  0  0
  1  2  2  0
  2  3  1  0
  2 11  1  0
  3  4  1  0
  4  5  2  0
  4 10  1  0
  5  6  1  0
  6  7  2  0
  7  8  1  0
  7  9  1  0
  9 10  2  0
 10 11  1  0
M  END
