
     RDKit          3D

 11 12  0  0  0  0  0  0  0  0999 V2000
   -2.1870    0.8880    0.2880 N   0  0  0  0  0  0  0  0  0  0  0  0
   -1.0640    0.0370    0.1010 C   0  0  0  0  0  0  0  0  0  0  0  0
   -1.2030   -1.3330   -0.0140 C   0  0  0  0  0  0  0  0  0  0  0  0
   -0.1040   -2.1520   -0.1960 C   0  0  0  0  0  0  0  0  0  0  0  0
    1.1340   -1.6370   -0.2660 N   0  0  0  0  0  0  0  0  0  0  0  0
    1.3130   -0.2970   -0.1580 C   0  0  0  0  0  0  0  0  0  0  0  0
    2.4410    0.4900   -0.1910 C   0  0  0  0  0  0  0  0  0  0  0  0
    4.0850   -0.1080   -0.4050 Cl  0  0  0  0  0  0  0  0  0  0  0  0
    2.0480    1.7270   -0.0380 O   0  0  0  0  0  0  0  0  0  0  0  0
    0.7470    1.8050    0.0940 C   0  0  0  0  0  0  0  0  0  0  0  0
    0.2220    0.5390    0.0250 C   0  0  0  0  0  0  0  0  0  0  0  0
  1  2  1  0
  2  3  2  0
  2 11  1  0
  3  4  1  0
  4  5  2  0
  5  6  1  0
  6  7  2  0
  6 11  1  0
  7  8  1  0
  7  9  1  0
  9 10  1  0
 10 11  2  0
M  END
