
     RDKit          3D

 26 28  0  0  0  0  0  0  0  0999 V2000
   -7.4200   -0.5870    0.6300 N   0  0  0  0  0  0  0  0  0  0  0  0
   -6.1080   -0.1920    0.9900 C   0  0  0  0  0  0  0  0  0  0  0  0
   -5.8260    0.0530    2.2800 N   0  0  0  0  0  0  0  0  0  0  0  0
   -4.6020    0.4310    2.6920 C   0  0  0  0  0  0  0  0  0  0  0  0
   -3.6480    0.5600    1.7560 N   0  0  0  0  0  0  0  0  0  0  0  0
   -3.8420    0.3360    0.4370 C   0  0  0  0  0  0  0  0  0  0  0  0
   -5.1170   -0.0540    0.0420 C   0  0  0  0  0  0  0  0  0  0  0  0
   -5.0450   -0.2100   -1.2900 N   0  0  0  0  0  0  0  0  0  0  0  0
   -3.7940    0.0650   -1.7180 C   0  0  0  0  0  0  0  0  0  0  0  0
   -3.0450    0.4040   -0.6480 N   0  0  0  0  0  0  0  0  0  0  0  0
   -1.6570    0.7780   -0.5860 C   0  0  2  0  0  0  0  0  0  0  0  0
   -1.0340    0.8130   -1.7970 O   0  0  0  0  0  0  0  0  0  0  0  0
    0.3430    0.8510   -1.4330 C   0  0  2  0  0  0  0  0  0  0  0  0
    1.1600    0.6900   -2.6720 C   0  0  0  0  0  0  0  0  0  0  0  0
    2.8790    0.7260   -2.5080 S   0  0  0  0  0  0  0  0  0  0  0  0
    3.8700   -0.5180   -1.8420 C   0  0  0  0  0  0  0  0  0  0  0  0
    3.9390   -0.8060   -0.3920 C   0  0  0  0  0  0  0  0  0  0  0  0
    4.4310    0.3720    0.4280 C   0  0  2  0  0  0  0  0  0  0  0  0
    5.7700    0.7580   -0.0060 N   0  0  0  0  0  0  0  0  0  0  0  0
    4.5400   -0.0100    1.8560 C   0  0  0  0  0  0  0  0  0  0  0  0
    3.5630   -0.4040    2.5490 O   0  0  0  0  0  0  0  0  0  0  0  0
    5.7570    0.0460    2.5280 O   0  0  0  0  0  0  0  0  0  0  0  0
    0.4770   -0.1080   -0.3510 C   0  0  1  0  0  0  0  0  0  0  0  0
    1.2100    0.4010    0.7500 O   0  0  0  0  0  0  0  0  0  0  0  0
   -0.9390   -0.3730    0.1420 C   0  0  1  0  0  0  0  0  0  0  0  0
   -1.0410   -0.0950    1.4830 O   0  0  0  0  0  0  0  0  0  0  0  0
  1  2  1  0
  2  3  2  0
  2  7  1  0
  3  4  1  0
  4  5  2  0
  5  6  1  0
  6  7  2  0
  6 10  1  0
  7  8  1  0
  8  9  2  0
  9 10  1  0
 11 10  1  6
 11 12  1  0
 11 25  1  0
 12 13  1  0
 13 14  1  6
 13 23  1  0
 14 15  1  0
 15 16  1  0
 16 17  1  0
 17 18  1  0
 18 19  1  6
 18 20  1  0
 20 21  2  0
 20 22  1  0
 23 24  1  1
 23 25  1  0
 25 26  1  1
M  END
