
     RDKit          3D

 11 12  0  0  0  0  0  0  0  0999 V2000
   -1.1090    2.1110    0.0180 N   0  0  0  0  0  0  0  0  0  0  0  0
   -0.9640    0.7020    0.0760 C   0  0  0  0  0  0  0  0  0  0  0  0
   -2.0220   -0.1290    0.2430 N   0  0  0  0  0  0  0  0  0  0  0  0
   -1.8600   -1.4640    0.2950 C   0  0  0  0  0  0  0  0  0  0  0  0
   -0.5900   -1.9810    0.1760 C   0  0  0  0  0  0  0  0  0  0  0  0
    0.5100   -1.1670    0.0050 C   0  0  0  0  0  0  0  0  0  0  0  0
    1.8070   -1.3850   -0.1330 O   0  0  0  0  0  0  0  0  0  0  0  0
    2.4530   -0.2550   -0.2680 C   0  0  0  0  0  0  0  0  0  0  0  0
    1.5640    0.7940   -0.2210 C   0  0  0  0  0  0  0  0  0  0  0  0
    1.8580    2.5090   -0.3460 Cl  0  0  0  0  0  0  0  0  0  0  0  0
    0.3210    0.1990   -0.0460 C   0  0  0  0  0  0  0  0  0  0  0  0
  1  2  1  0
  2  3  2  0
  2 11  1  0
  3  4  1  0
  4  5  2  0
  5  6  1  0
  6  7  1  0
  6 11  2  0
  7  8  1  0
  8  9  2  0
  9 10  1  0
  9 11  1  0
M  END
