
     RDKit          3D

 11 12  0  0  0  0  0  0  0  0999 V2000
    0.1600    2.7650   -0.4840 O   0  0  0  0  0  0  0  0  0  0  0  0
    0.4420    1.4350   -0.2330 C   0  0  0  0  0  0  0  0  0  0  0  0
    1.7530    1.0300   -0.0960 C   0  0  0  0  0  0  0  0  0  0  0  0
    1.9850   -0.3050    0.1530 C   0  0  0  0  0  0  0  0  0  0  0  0
    3.6390   -0.8650    0.3350 Cl  0  0  0  0  0  0  0  0  0  0  0  0
    0.9790   -1.2410    0.2690 C   0  0  0  0  0  0  0  0  0  0  0  0
   -0.3180   -0.8290    0.1320 C   0  0  0  0  0  0  0  0  0  0  0  0
   -1.4970   -1.5120    0.1940 N   0  0  0  0  0  0  0  0  0  0  0  0
   -2.4890   -0.6250   -0.0130 C   0  0  0  0  0  0  0  0  0  0  0  0
   -1.9300    0.5840   -0.2000 N   0  0  0  0  0  0  0  0  0  0  0  0
   -0.5820    0.5010   -0.1180 C   0  0  0  0  0  0  0  0  0  0  0  0
  1  2  1  0
  2  3  2  0
  2 11  1  0
  3  4  1  0
  4  5  1  0
  4  6  2  0
  6  7  1  0
  7  8  1  0
  7 11  2  0
  8  9  1  0
  9 10  2  0
 10 11  1  0
M  END
