
     RDKit          3D

 11 12  0  0  0  0  0  0  0  0999 V2000
    2.2760    2.0680   -0.2420 O   0  0  0  0  0  0  0  0  0  0  0  0
    1.7830    0.8980   -0.1770 C   0  0  0  0  0  0  0  0  0  0  0  0
    2.4160   -0.2790   -0.2120 N   0  0  0  0  0  0  0  0  0  0  0  0
    1.5110   -1.2510   -0.1130 N   0  0  0  0  0  0  0  0  0  0  0  0
    0.2700   -0.7010   -0.0120 C   0  0  0  0  0  0  0  0  0  0  0  0
   -1.0030   -1.2500    0.1130 C   0  0  0  0  0  0  0  0  0  0  0  0
   -2.1210   -0.4510    0.1990 C   0  0  0  0  0  0  0  0  0  0  0  0
   -3.6970   -1.1990    0.3540 Cl  0  0  0  0  0  0  0  0  0  0  0  0
   -1.9320    0.9080    0.1570 C   0  0  0  0  0  0  0  0  0  0  0  0
   -0.6730    1.4740    0.0340 C   0  0  0  0  0  0  0  0  0  0  0  0
    0.4450    0.6710   -0.0520 C   0  0  0  0  0  0  0  0  0  0  0  0
  1  2  2  0
  2  3  1  0
  2 11  1  0
  3  4  1  0
  4  5  1  0
  5  6  2  0
  5 11  1  0
  6  7  1  0
  7  8  1  0
  7  9  2  0
  9 10  1  0
 10 11  2  0
M  END
