
     RDKit          3D

 24 27  0  0  0  0  0  0  0  0999 V2000
   -4.5940   -2.3550    1.3920 O   0  0  0  0  0  0  0  0  0  0  0  0
   -5.1390   -1.5410    0.6110 C   0  0  0  0  0  0  0  0  0  0  0  0
   -6.4690   -1.5760    0.3820 N   0  0  0  0  0  0  0  0  0  0  0  0
   -7.0070   -0.6850   -0.4620 C   0  0  0  0  0  0  0  0  0  0  0  0
   -8.6260   -0.7180   -0.7500 S   0  0  0  0  0  0  0  0  0  0  0  0
   -6.2530    0.2070   -1.0550 O   0  0  0  0  0  0  0  0  0  0  0  0
   -4.9600    0.2880   -0.8710 C   0  0  0  0  0  0  0  0  0  0  0  0
   -4.1810    1.2310   -1.5010 C   0  0  0  0  0  0  0  0  0  0  0  0
   -2.8170    1.2850   -1.2800 C   0  0  0  0  0  0  0  0  0  0  0  0
   -2.1910    0.4040   -0.4280 C   0  0  0  0  0  0  0  0  0  0  0  0
   -0.7850    0.4840   -0.2210 N   0  0  0  0  0  0  0  0  0  0  0  0
   -0.0830   -0.4100    0.6570 C   0  0  0  0  0  0  0  0  0  0  0  0
    1.3700   -0.0840    0.6680 C   0  0  0  0  0  0  0  0  0  0  0  0
    2.0660    0.7790    1.4750 C   0  0  0  0  0  0  0  0  0  0  0  0
    3.3410    0.8940    1.2910 N   0  0  0  0  0  0  0  0  0  0  0  0
    4.0130    0.2890    0.4380 C   0  0  0  0  0  0  0  0  0  0  0  0
    5.3780    0.1710   -0.0340 C   0  0  0  0  0  0  0  0  0  0  0  0
    6.3780    0.8300    0.4670 C   0  0  0  0  0  0  0  0  0  0  0  0
    7.6310    0.4470   -0.2760 C   0  0  0  0  0  0  0  0  0  0  0  0
    7.1110   -0.5310   -1.2590 C   0  0  0  0  0  0  0  0  0  0  0  0
    5.8570   -0.6560   -1.0900 N   0  0  0  0  0  0  0  0  0  0  0  0
    2.6520   -0.7150   -0.3650 S   0  0  0  0  0  0  0  0  0  0  0  0
   -2.9670   -0.5380    0.2020 C   0  0  0  0  0  0  0  0  0  0  0  0
   -4.3440   -0.6050   -0.0110 C   0  0  0  0  0  0  0  0  0  0  0  0
  1  2  2  0
  2  3  1  0
  2 24  1  0
  3  4  1  0
  4  5  2  0
  4  6  1  0
  6  7  1  0
  7  8  2  0
  7 24  1  0
  8  9  1  0
  9 10  2  0
 10 11  1  0
 10 23  1  0
 11 12  1  0
 12 13  1  0
 13 14  2  0
 13 22  1  0
 14 15  1  0
 15 16  2  0
 16 17  1  0
 16 22  1  0
 17 18  2  0
 17 21  1  0
 18 19  1  0
 19 20  1  0
 20 21  2  0
 23 24  2  0
M  END
