
     RDKit          3D

 24 27  0  0  0  0  0  0  0  0999 V2000
   -4.5510   -2.3190   -0.6760 C   0  0  0  0  0  0  0  0  0  0  0  0
   -3.7740   -1.0720   -0.6680 C   0  0  0  0  0  0  0  0  0  0  0  0
   -4.4000    0.0950   -1.0660 C   0  0  0  0  0  0  0  0  0  0  0  0
   -3.6840    1.2730   -1.0640 C   0  0  0  0  0  0  0  0  0  0  0  0
   -4.3030    2.5760   -1.4850 C   0  0  0  0  0  0  0  0  0  0  0  0
   -2.3750    1.2350   -0.6660 C   0  0  0  0  0  0  0  0  0  0  0  0
   -1.7330    0.0780   -0.2650 C   0  0  0  0  0  0  0  0  0  0  0  0
   -0.3310    0.1130    0.1070 N   0  0  0  0  0  0  0  0  0  0  0  0
    0.1270   -0.6840    1.1100 C   0  0  0  0  0  0  0  0  0  0  0  0
   -0.9450   -1.6810    2.0940 S   0  0  0  0  0  0  0  0  0  0  0  0
    0.2540   -2.3770    3.0990 N   0  0  0  0  0  0  0  0  0  0  0  0
    1.3470   -1.8290    2.6400 C   0  0  0  0  0  0  0  0  0  0  0  0
    3.1160   -2.0830    3.2210 S   0  0  0  0  0  0  0  0  0  0  0  0
    3.7800   -0.9990    2.0670 C   0  0  0  0  0  0  0  0  0  0  0  0
    5.0980   -0.6400    1.8560 N   0  0  0  0  0  0  0  0  0  0  0  0
    5.4030    0.2230    0.8940 C   0  0  0  0  0  0  0  0  0  0  0  0
    6.6130    0.5340    0.7220 O   0  0  0  0  0  0  0  0  0  0  0  0
    4.4320    0.7280    0.1480 N   0  0  0  0  0  0  0  0  0  0  0  0
    4.7990    1.6800   -0.9090 C   0  0  0  0  0  0  0  0  0  0  0  0
    3.1530    0.3880    0.3430 C   0  0  0  0  0  0  0  0  0  0  0  0
    2.3640    0.9550   -0.4480 O   0  0  0  0  0  0  0  0  0  0  0  0
    2.7360   -0.5150    1.3340 C   0  0  0  0  0  0  0  0  0  0  0  0
    1.4550   -0.9830    1.6740 C   0  0  0  0  0  0  0  0  0  0  0  0
   -2.4330   -1.0940   -0.2640 C   0  0  0  0  0  0  0  0  0  0  0  0
  1  2  1  0
  2  3  2  0
  2 24  1  0
  3  4  1  0
  4  5  1  0
  4  6  2  0
  6  7  1  0
  7  8  1  0
  7 24  2  0
  8  9  1  0
  9 10  1  0
  9 23  2  0
 10 11  1  0
 11 12  2  0
 12 13  1  0
 12 23  1  0
 13 14  1  0
 14 15  1  0
 14 22  2  0
 15 16  1  0
 16 17  2  0
 16 18  1  0
 18 19  1  0
 18 20  1  0
 20 21  2  0
 20 22  1  0
 22 23  1  0
M  END
