
     RDKit          3D

 24 27  0  0  0  0  0  0  0  0999 V2000
   -1.4720    1.0060   -1.0450 O   0  0  0  0  0  0  0  0  0  0  0  0
   -1.0720    0.1940   -0.2030 C   0  0  0  0  0  0  0  0  0  0  0  0
    0.3970    0.0100    0.0860 C   0  0  0  0  0  0  0  0  0  0  0  0
    1.2190    0.9210   -0.7680 C   0  0  0  0  0  0  0  0  0  0  0  0
    2.6390    0.7300   -0.4760 C   0  0  0  0  0  0  0  0  0  0  0  0
    3.6210    0.0540   -0.8260 N   0  0  0  0  0  0  0  0  0  0  0  0
    4.8180    0.1100   -0.3620 C   0  0  0  0  0  0  0  0  0  0  0  0
    5.9460   -0.6360   -0.7340 C   0  0  0  0  0  0  0  0  0  0  0  0
    7.1480   -0.4360   -0.1220 C   0  0  0  0  0  0  0  0  0  0  0  0
    8.1540   -1.1430   -0.4950 O   0  0  0  0  0  0  0  0  0  0  0  0
    7.3330    0.4660    0.8540 N   0  0  0  0  0  0  0  0  0  0  0  0
    6.2800    1.2030    1.2410 C   0  0  0  0  0  0  0  0  0  0  0  0
    5.0700    1.0250    0.6500 C   0  0  0  0  0  0  0  0  0  0  0  0
    3.4820    1.7660    0.8590 S   0  0  0  0  0  0  0  0  0  0  0  0
   -1.9810   -0.6060    0.5340 N   0  0  0  0  0  0  0  0  0  0  0  0
   -3.3760   -0.5970    0.4280 C   0  0  0  0  0  0  0  0  0  0  0  0
   -4.1420   -1.5250    1.1290 C   0  0  0  0  0  0  0  0  0  0  0  0
   -5.4970   -1.6050    1.1070 C   0  0  0  0  0  0  0  0  0  0  0  0
   -6.2370   -0.7060    0.3350 C   0  0  0  0  0  0  0  0  0  0  0  0
   -7.5400   -0.6170    0.1800 N   0  0  0  0  0  0  0  0  0  0  0  0
   -8.1520    0.0960   -0.4340 C   0  0  0  0  0  0  0  0  0  0  0  0
   -6.7640    1.1570   -1.2020 S   0  0  0  0  0  0  0  0  0  0  0  0
   -5.5040    0.2100   -0.3570 C   0  0  0  0  0  0  0  0  0  0  0  0
   -4.1120    0.2920   -0.3350 C   0  0  0  0  0  0  0  0  0  0  0  0
  1  2  2  0
  2  3  1  0
  2 15  1  0
  3  4  1  0
  4  5  1  0
  5  6  2  0
  5 14  1  0
  6  7  1  0
  7  8  2  0
  7 13  1  0
  8  9  1  0
  9 10  2  0
  9 11  1  0
 11 12  1  0
 12 13  2  0
 13 14  1  0
 15 16  1  0
 16 17  2  0
 16 24  1  0
 17 18  1  0
 18 19  2  0
 19 20  1  0
 19 23  1  0
 20 21  2  0
 21 22  1  0
 22 23  1  0
 23 24  2  0
M  END
