
     RDKit          3D

 24 27  0  0  0  0  0  0  0  0999 V2000
   -6.1550    1.2060    1.2170 C   0  0  0  0  0  0  0  0  0  0  0  0
   -5.1870    0.1810    0.7440 C   0  0  0  0  0  0  0  0  0  0  0  0
   -4.6020   -0.8130    1.4300 N   0  0  0  0  0  0  0  0  0  0  0  0
   -3.7730   -1.5300    0.6060 C   0  0  0  0  0  0  0  0  0  0  0  0
   -2.9600   -2.7140    1.0410 C   0  0  0  0  0  0  0  0  0  0  0  0
   -1.3360   -2.2450    1.6610 S   0  0  0  0  0  0  0  0  0  0  0  0
   -0.2840   -1.6480    0.2940 C   0  0  0  0  0  0  0  0  0  0  0  0
   -0.7440   -1.7060   -1.0780 C   0  0  0  0  0  0  0  0  0  0  0  0
    0.6550   -0.9920   -1.9040 S   0  0  0  0  0  0  0  0  0  0  0  0
    1.6590   -0.7110   -0.3480 C   0  0  0  0  0  0  0  0  0  0  0  0
    2.9850   -0.1060   -0.4580 C   0  0  0  0  0  0  0  0  0  0  0  0
    3.5250    0.2660   -1.6690 C   0  0  0  0  0  0  0  0  0  0  0  0
    4.7730    0.8350   -1.7750 C   0  0  0  0  0  0  0  0  0  0  0  0
    5.5460    1.0570   -0.6320 C   0  0  0  0  0  0  0  0  0  0  0  0
    6.7700    1.5840   -0.4490 N   0  0  0  0  0  0  0  0  0  0  0  0
    6.9930    1.5410    0.8760 C   0  0  0  0  0  0  0  0  0  0  0  0
    8.0400    1.9460    1.4510 O   0  0  0  0  0  0  0  0  0  0  0  0
    5.9420    1.0030    1.5110 N   0  0  0  0  0  0  0  0  0  0  0  0
    4.9990    0.6820    0.5800 C   0  0  0  0  0  0  0  0  0  0  0  0
    3.7490    0.1130    0.6700 C   0  0  0  0  0  0  0  0  0  0  0  0
    0.8770   -1.1470    0.4570 N   0  0  0  0  0  0  0  0  0  0  0  0
   -3.8800   -0.9500   -0.5530 O   0  0  0  0  0  0  0  0  0  0  0  0
   -4.7000    0.0680   -0.5410 C   0  0  0  0  0  0  0  0  0  0  0  0
   -5.0660    0.9660   -1.6860 C   0  0  0  0  0  0  0  0  0  0  0  0
  1  2  1  0
  2  3  1  0
  2 23  2  0
  3  4  2  0
  4  5  1  0
  4 22  1  0
  5  6  1  0
  6  7  1  0
  7  8  2  0
  7 21  1  0
  8  9  1  0
  9 10  1  0
 10 11  1  0
 10 21  2  0
 11 12  2  0
 11 20  1  0
 12 13  1  0
 13 14  2  0
 14 15  1  0
 14 19  1  0
 15 16  1  0
 16 17  2  0
 16 18  1  0
 18 19  1  0
 19 20  2  0
 22 23  1  0
 23 24  1  0
M  END
