
     RDKit          3D

 24 27  0  0  0  0  0  0  0  0999 V2000
    7.3700    1.3470    1.3100 N   0  0  0  0  0  0  0  0  0  0  0  0
    7.0060   -0.0000    1.5190 C   0  0  0  0  0  0  0  0  0  0  0  0
    7.7570   -0.7590    2.1640 O   0  0  0  0  0  0  0  0  0  0  0  0
    5.7500   -0.4920    0.9770 C   0  0  0  0  0  0  0  0  0  0  0  0
    5.2470   -1.7570    1.0840 N   0  0  0  0  0  0  0  0  0  0  0  0
    4.1050   -1.8070    0.4700 O   0  0  0  0  0  0  0  0  0  0  0  0
    3.8240   -0.6530   -0.0360 C   0  0  0  0  0  0  0  0  0  0  0  0
    2.6480   -0.2360   -0.8110 C   0  0  0  0  0  0  0  0  0  0  0  0
    2.3870    1.0100   -1.3340 C   0  0  0  0  0  0  0  0  0  0  0  0
    1.1710    0.9350   -1.9810 C   0  0  0  0  0  0  0  0  0  0  0  0
    0.6710   -0.3070   -1.8790 N   0  0  0  0  0  0  0  0  0  0  0  0
   -0.5880   -0.8140   -2.4180 C   0  0  0  0  0  0  0  0  0  0  0  0
   -1.6760   -0.6290   -1.4200 C   0  0  0  0  0  0  0  0  0  0  0  0
   -2.5230    0.4300   -1.2440 C   0  0  0  0  0  0  0  0  0  0  0  0
   -3.4330    0.3470   -0.2520 C   0  0  0  0  0  0  0  0  0  0  0  0
   -3.4840   -0.7430    0.5170 C   0  0  0  0  0  0  0  0  0  0  0  0
   -2.1560   -1.7460   -0.1910 S   0  0  0  0  0  0  0  0  0  0  0  0
   -4.3560   -1.0760    1.6330 C   0  0  0  0  0  0  0  0  0  0  0  0
   -5.3430    0.0090    1.8560 C   0  0  0  0  0  0  0  0  0  0  0  0
   -4.6540    1.3360    1.5880 C   0  0  0  0  0  0  0  0  0  0  0  0
   -4.4690    1.4260    0.1050 C   0  0  0  0  0  0  0  0  0  0  0  0
    1.5610   -1.0170   -1.1720 C   0  0  0  0  0  0  0  0  0  0  0  0
    1.3960   -2.7460   -0.7370 S   0  0  0  0  0  0  0  0  0  0  0  0
    4.8310    0.1820    0.2650 N   0  0  0  0  0  0  0  0  0  0  0  0
  1  2  1  0
  2  3  2  0
  2  4  1  0
  4  5  2  0
  4 24  1  0
  5  6  1  0
  6  7  1  0
  7  8  1  0
  7 24  2  0
  8  9  1  0
  8 22  2  0
  9 10  2  0
 10 11  1  0
 11 12  1  0
 11 22  1  0
 12 13  1  0
 13 14  2  0
 13 17  1  0
 14 15  1  0
 15 16  2  0
 15 21  1  0
 16 17  1  0
 16 18  1  0
 18 19  1  0
 19 20  1  0
 20 21  1  0
 22 23  1  0
M  END
