
     RDKit          3D

 24 27  0  0  0  0  0  0  0  0999 V2000
    6.4360    0.2690    0.6120 C   0  0  0  0  0  0  0  0  0  0  0  0
    5.8620   -1.0650    0.1050 C   0  0  0  0  0  0  0  0  0  0  0  0
    4.2130   -1.2270    0.0890 S   0  0  0  0  0  0  0  0  0  0  0  0
    3.4430   -2.4630    0.9310 O   0  0  0  0  0  0  0  0  0  0  0  0
    3.3420    0.2020   -0.1350 N   0  0  0  0  0  0  0  0  0  0  0  0
    2.0070    0.5270   -0.3970 C   0  0  0  0  0  0  0  0  0  0  0  0
    1.7400    1.9030   -0.4260 C   0  0  0  0  0  0  0  0  0  0  0  0
    0.4510    2.2930   -0.6820 C   0  0  0  0  0  0  0  0  0  0  0  0
   -0.5950    1.3830   -0.9130 C   0  0  0  0  0  0  0  0  0  0  0  0
   -1.8890    1.8280   -1.2110 N   0  0  0  0  0  0  0  0  0  0  0  0
   -3.0430    1.2080   -0.6420 C   0  0  0  0  0  0  0  0  0  0  0  0
   -4.3360    1.5830   -0.9110 N   0  0  0  0  0  0  0  0  0  0  0  0
   -5.1960    0.8500   -0.2070 C   0  0  0  0  0  0  0  0  0  0  0  0
   -6.5880    0.8060   -0.0950 C   0  0  0  0  0  0  0  0  0  0  0  0
   -7.2250   -0.0760    0.7290 C   0  0  0  0  0  0  0  0  0  0  0  0
   -6.4600   -0.9490    1.4740 C   0  0  0  0  0  0  0  0  0  0  0  0
   -5.0830   -0.9190    1.3750 C   0  0  0  0  0  0  0  0  0  0  0  0
   -4.4390   -0.0200    0.5340 C   0  0  0  0  0  0  0  0  0  0  0  0
   -3.1420    0.2220    0.2490 N   0  0  0  0  0  0  0  0  0  0  0  0
   -0.2910    0.0430   -0.8770 C   0  0  0  0  0  0  0  0  0  0  0  0
    1.0000   -0.3870   -0.6210 C   0  0  0  0  0  0  0  0  0  0  0  0
    1.0560   -1.8640   -0.6480 C   0  0  0  0  0  0  0  0  0  0  0  0
    2.4720   -2.5020   -1.5470 S   0  0  0  0  0  0  0  0  0  0  0  0
    3.9490   -1.7840   -1.0260 O   0  0  0  0  0  0  0  0  0  0  0  0
  1  2  1  0
  2  3  1  0
  3  4  2  0
  3  5  1  0
  3 24  1  0
  5  6  1  0
  6  7  2  0
  6 21  1  0
  7  8  1  0
  8  9  2  0
  9 10  1  0
  9 20  1  0
 10 11  1  0
 11 12  2  0
 11 19  1  0
 12 13  1  0
 13 14  2  0
 13 18  1  0
 14 15  1  0
 15 16  2  0
 16 17  1  0
 17 18  2  0
 18 19  1  0
 20 21  2  0
 21 22  1  0
 22 23  1  0
 23 24  1  0
M  END
