
     RDKit          3D

 24 27  0  0  0  0  0  0  0  0999 V2000
   -6.1200    0.7540    0.0050 C   0  0  0  0  0  0  0  0  0  0  0  0
   -4.6990    0.2640   -0.0960 C   0  0  0  0  0  0  0  0  0  0  0  0
   -4.5180   -0.9050   -0.6800 C   0  0  0  0  0  0  0  0  0  0  0  0
   -5.9350   -1.8300   -1.3080 S   0  0  0  0  0  0  0  0  0  0  0  0
   -3.1880   -1.4790   -0.8340 C   0  0  0  0  0  0  0  0  0  0  0  0
   -2.1020   -0.6470   -0.2890 C   0  0  0  0  0  0  0  0  0  0  0  0
   -0.8080   -1.1320   -0.4010 C   0  0  0  0  0  0  0  0  0  0  0  0
    0.2930   -0.4450    0.0700 C   0  0  0  0  0  0  0  0  0  0  0  0
    1.5990   -0.9900   -0.0820 N   0  0  0  0  0  0  0  0  0  0  0  0
    2.7650   -0.3900    0.5100 C   0  0  0  0  0  0  0  0  0  0  0  0
    2.6910    0.1080    1.6870 N   0  0  0  0  0  0  0  0  0  0  0  0
    4.2370    0.7360    2.0940 S   0  0  2  0  0  0  0  0  0  0  0  0
    4.8380    0.0190    3.2630 O   0  0  0  0  0  0  0  0  0  0  0  0
    4.2060    2.2200    2.2910 O   0  0  0  0  0  0  0  0  0  0  0  0
    5.0340    0.2920    0.5940 C   0  0  0  0  0  0  0  0  0  0  0  0
    6.3280    0.4630    0.1610 C   0  0  0  0  0  0  0  0  0  0  0  0
    6.6860    0.0250   -1.0480 N   0  0  0  0  0  0  0  0  0  0  0  0
    5.7670   -0.5670   -1.7950 C   0  0  0  0  0  0  0  0  0  0  0  0
    4.4630   -0.7610   -1.4080 C   0  0  0  0  0  0  0  0  0  0  0  0
    4.0420   -0.3130   -0.1380 C   0  0  0  0  0  0  0  0  0  0  0  0
    0.0330    0.7670    0.6680 C   0  0  0  0  0  0  0  0  0  0  0  0
   -1.2590    1.2810    0.7950 C   0  0  0  0  0  0  0  0  0  0  0  0
   -2.3330    0.5640    0.3110 C   0  0  0  0  0  0  0  0  0  0  0  0
   -3.6750    1.0780    0.4330 N   0  0  0  0  0  0  0  0  0  0  0  0
  1  2  1  0
  2  3  2  0
  2 24  1  0
  3  4  1  0
  3  5  1  0
  5  6  1  0
  6  7  2  0
  6 23  1  0
  7  8  1  0
  8  9  1  0
  8 21  2  0
  9 10  1  0
 10 11  2  0
 10 20  1  0
 12 11  1  6
 12 13  2  0
 12 14  2  0
 12 15  1  0
 15 16  2  0
 15 20  1  0
 16 17  1  0
 17 18  2  0
 18 19  1  0
 19 20  2  0
 21 22  1  0
 22 23  2  0
 23 24  1  0
M  END
