
     RDKit          3D

 24 27  0  0  0  0  0  0  0  0999 V2000
    7.7020    0.1820   -0.1090 O   0  0  0  0  0  0  0  0  0  0  0  0
    6.4910    0.9790   -0.4200 S   0  0  2  0  0  0  0  0  0  0  0  0
    6.6150    2.3490    0.2080 O   0  0  0  0  0  0  0  0  0  0  0  0
    5.0210    0.2670    0.1800 C   0  0  0  0  0  0  0  0  0  0  0  0
    4.0250   -0.3950   -0.3860 C   0  0  0  0  0  0  0  0  0  0  0  0
    2.9800   -0.8460    0.3400 C   0  0  0  0  0  0  0  0  0  0  0  0
    1.7770   -1.6160   -0.2130 C   0  0  0  0  0  0  0  0  0  0  0  0
    0.6960   -0.6100   -0.5610 C   0  0  0  0  0  0  0  0  0  0  0  0
   -0.4460   -0.6940    0.0240 C   0  0  0  0  0  0  0  0  0  0  0  0
   -1.6630    0.0490   -0.0420 C   0  0  0  0  0  0  0  0  0  0  0  0
   -1.8530    1.2240   -0.7450 C   0  0  0  0  0  0  0  0  0  0  0  0
   -1.0020    2.0070   -1.4780 C   0  0  0  0  0  0  0  0  0  0  0  0
   -1.7480    3.0540   -1.9310 N   0  0  0  0  0  0  0  0  0  0  0  0
   -2.9770    2.9350   -1.5110 N   0  0  0  0  0  0  0  0  0  0  0  0
   -3.1120    1.8060   -0.7590 C   0  0  0  0  0  0  0  0  0  0  0  0
   -4.1660    1.2800   -0.1150 N   0  0  0  0  0  0  0  0  0  0  0  0
   -4.0070    0.1410    0.5760 C   0  0  0  0  0  0  0  0  0  0  0  0
   -5.1410   -0.3590    1.2270 C   0  0  0  0  0  0  0  0  0  0  0  0
   -4.9980   -1.5250    1.9380 C   0  0  0  0  0  0  0  0  0  0  0  0
   -3.7490   -2.1250    1.9660 C   0  0  0  0  0  0  0  0  0  0  0  0
   -2.6940   -1.6120    1.3300 N   0  0  0  0  0  0  0  0  0  0  0  0
   -2.7910   -0.4730    0.6220 C   0  0  0  0  0  0  0  0  0  0  0  0
    3.0140   -0.5800    1.6840 C   0  0  0  0  0  0  0  0  0  0  0  0
    4.5630    0.3250    1.8900 S   0  0  0  0  0  0  0  0  0  0  0  0
  1  2  2  0
  2  3  2  0
  2  4  1  1
  4  5  2  0
  4 24  1  0
  5  6  1  0
  6  7  1  0
  6 23  2  0
  7  8  1  0
  8  9  2  3
  9 10  1  0
 10 11  2  0
 10 22  1  0
 11 12  1  0
 11 15  1  0
 12 13  2  0
 13 14  1  0
 14 15  1  0
 15 16  2  0
 16 17  1  0
 17 18  2  0
 17 22  1  0
 18 19  1  0
 19 20  2  0
 20 21  1  0
 21 22  2  0
 23 24  1  0
M  END
