
     RDKit          3D

 18 19  0  0  0  0  0  0  0  0999 V2000
    3.8170    0.7830   -1.2850 N   0  0  0  0  0  0  0  0  0  0  0  0
    4.2860   -0.4650   -0.8020 C   0  0  0  0  0  0  0  0  0  0  0  0
    4.8670   -1.2550   -1.5830 O   0  0  0  0  0  0  0  0  0  0  0  0
    4.0780   -0.9650    0.8960 S   0  0  0  0  0  0  0  0  0  0  0  0
    3.2190    0.3200    1.8320 C   0  0  0  0  0  0  0  0  0  0  0  0
    1.8210    0.5020    1.3720 C   0  0  0  0  0  0  0  0  0  0  0  0
    1.1220    1.3690    1.9540 O   0  0  0  0  0  0  0  0  0  0  0  0
    1.2360   -0.2100    0.3570 O   0  0  0  0  0  0  0  0  0  0  0  0
   -0.1000   -0.0140   -0.0590 C   0  0  0  0  0  0  0  0  0  0  0  0
   -0.3720    0.9110   -1.0410 C   0  0  0  0  0  0  0  0  0  0  0  0
   -1.6650    1.1190   -1.4640 C   0  0  0  0  0  0  0  0  0  0  0  0
   -2.7240    0.4130   -0.9230 C   0  0  0  0  0  0  0  0  0  0  0  0
   -4.0460    0.6370   -1.3670 N   0  0  0  0  0  0  0  0  0  0  0  0
   -2.4010   -0.5040    0.0600 C   0  0  0  0  0  0  0  0  0  0  0  0
   -1.1250   -0.7280    0.4960 C   0  0  0  0  0  0  0  0  0  0  0  0
   -1.0980   -1.7010    1.4850 O   0  0  0  0  0  0  0  0  0  0  0  0
   -2.3610   -2.3720    1.3440 C   0  0  0  0  0  0  0  0  0  0  0  0
   -3.2170   -1.3610    0.7940 O   0  0  0  0  0  0  0  0  0  0  0  0
  1  2  1  0
  2  3  2  0
  2  4  1  0
  4  5  1  0
  5  6  1  0
  6  7  2  0
  6  8  1  0
  8  9  1  0
  9 10  2  0
  9 15  1  0
 10 11  1  0
 11 12  2  0
 12 13  1  0
 12 14  1  0
 14 15  2  0
 14 18  1  0
 15 16  1  0
 16 17  1  0
 17 18  1  0
M  CHG  1  13   1
M  END
