
     RDKit          3D

 18 18  0  0  0  0  0  0  0  0999 V2000
   -5.7660    1.2120   -1.3020 C   0  0  0  0  0  0  0  0  0  0  0  0
   -4.8700    0.5240   -0.4870 O   0  0  0  0  0  0  0  0  0  0  0  0
   -5.1870   -0.2120    0.6280 C   0  0  0  0  0  0  0  0  0  0  0  0
   -6.4030   -0.2660    0.9370 O   0  0  0  0  0  0  0  0  0  0  0  0
   -4.2290   -0.9200    1.4590 C   0  0  0  0  0  0  0  0  0  0  0  0
   -2.9200   -0.9380    1.2360 C   0  0  0  0  0  0  0  0  0  0  0  0
   -2.1560   -0.3070    0.1860 C   0  0  0  0  0  0  0  0  0  0  0  0
   -0.8460   -0.5880    0.3390 C   0  0  0  0  0  0  0  0  0  0  0  0
    0.4070    0.0220   -0.7740 S   0  0  0  0  0  0  0  0  0  0  0  0
    2.0390   -0.5060   -0.3280 C   0  0  0  0  0  0  0  0  0  0  0  0
    2.3420   -1.2230    0.6410 O   0  0  0  0  0  0  0  0  0  0  0  0
    3.1210   -0.0750   -1.1510 N   0  0  0  0  0  0  0  0  0  0  0  0
    4.4870   -0.4380   -0.8910 C   0  0  0  0  0  0  0  0  0  0  0  0
    4.9660    0.0360    0.4640 C   0  0  0  0  0  0  0  0  0  0  0  0
    4.8690    1.4920    0.5350 N   0  0  0  0  0  0  0  0  0  0  0  0
   -0.7270   -1.4190    1.5060 C   0  0  0  0  0  0  0  0  0  0  0  0
    0.2980   -1.9070    2.0110 O   0  0  0  0  0  0  0  0  0  0  0  0
   -2.0110   -1.6150    2.0310 O   0  0  0  0  0  0  0  0  0  0  0  0
  1  2  1  0
  2  3  1  0
  3  4  2  0
  3  5  1  0
  5  6  2  3
  6  7  1  0
  6 18  1  0
  7  8  2  0
  8  9  1  0
  8 16  1  0
  9 10  1  0
 10 11  2  0
 10 12  1  0
 12 13  1  0
 13 14  1  0
 14 15  1  0
 16 17  2  0
 16 18  1  0
M  CHG  1  15   1
M  END
