
     RDKit          3D

 18 18  0  0  0  0  0  0  0  0999 V2000
   -4.3250    0.1930    0.9950 N   0  0  0  0  0  0  0  0  0  0  0  0
   -3.5850    0.5010   -0.2400 C   0  0  0  0  0  0  0  0  0  0  0  0
   -2.3680   -0.3420   -0.1730 C   0  0  0  0  0  0  0  0  0  0  0  0
   -2.6280   -1.7310   -0.1010 O   0  0  0  0  0  0  0  0  0  0  0  0
   -1.1290    0.1030   -0.1770 C   0  0  0  0  0  0  0  0  0  0  0  0
    0.1640   -1.1620   -0.0840 S   0  0  0  0  0  0  0  0  0  0  0  0
    0.5210   -1.6520   -1.7800 C   0  0  0  0  0  0  0  0  0  0  0  0
    1.7560   -2.4680   -1.8950 C   0  0  0  0  0  0  0  0  0  0  0  0
    1.6760   -3.5390   -2.5490 O   0  0  0  0  0  0  0  0  0  0  0  0
    2.9350   -2.0940   -1.3270 O   0  0  0  0  0  0  0  0  0  0  0  0
    3.1520   -1.5490   -0.0640 C   0  0  0  0  0  0  0  0  0  0  0  0
    3.1890   -0.0470   -0.0350 C   0  0  0  0  0  0  0  0  0  0  0  0
    2.8250    0.3610    1.2660 O   0  0  0  0  0  0  0  0  0  0  0  0
    2.2820    1.6220    1.2910 C   0  0  0  0  0  0  0  0  0  0  0  0
    0.8140    1.6370    1.6750 C   0  0  0  0  0  0  0  0  0  0  0  0
    0.0820    2.2110    0.5920 N   0  0  0  0  0  0  0  0  0  0  0  0
   -0.8100    1.5170   -0.2590 C   0  0  0  0  0  0  0  0  0  0  0  0
   -1.3980    2.1700   -1.1890 O   0  0  0  0  0  0  0  0  0  0  0  0
  1  2  1  0
  2  3  1  0
  3  4  1  0
  3  5  2  3
  5  6  1  0
  5 17  1  0
  6  7  1  0
  7  8  1  0
  8  9  2  0
  8 10  1  0
 10 11  1  0
 11 12  1  0
 12 13  1  0
 13 14  1  0
 14 15  1  0
 15 16  1  0
 16 17  1  0
 17 18  2  0
M  CHG  1   1   1
M  END
