
     RDKit          3D

 18 19  0  0  0  0  0  0  0  0999 V2000
    0.4910    0.2610   -0.9600 O   0  0  0  0  0  0  0  0  0  0  0  0
    0.3020    1.2370   -0.1910 C   0  0  0  0  0  0  0  0  0  0  0  0
    1.3430    2.2160   -0.0220 N   0  0  0  0  0  0  0  0  0  0  0  0
    2.5900    2.0820   -0.7250 C   0  0  0  0  0  0  0  0  0  0  0  0
    3.2390    0.8040   -0.3360 C   0  0  0  0  0  0  0  0  0  0  0  0
    3.5950   -0.2450   -1.0460 C   0  0  0  0  0  0  0  0  0  0  0  0
    4.1930   -1.3110   -0.4050 N   0  0  0  0  0  0  0  0  0  0  0  0
    3.7790   -1.4320    0.9780 C   0  0  0  0  0  0  0  0  0  0  0  0
    3.6940    0.3790    1.3550 S   0  0  0  0  0  0  0  0  0  0  0  0
   -0.9040    1.3170    0.4550 O   0  0  0  0  0  0  0  0  0  0  0  0
   -1.9710    0.4250    0.3600 C   0  0  2  0  0  0  0  0  0  0  0  0
   -3.0760    0.9680    1.2710 C   0  0  0  0  0  0  0  0  0  0  0  0
   -3.3920    2.2310    0.7780 O   0  0  0  0  0  0  0  0  0  0  0  0
   -1.5400   -0.9410    0.8510 C   0  0  0  0  0  0  0  0  0  0  0  0
   -2.6240   -1.8200    0.8670 O   0  0  0  0  0  0  0  0  0  0  0  0
   -3.1570   -1.9580   -0.4150 C   0  0  0  0  0  0  0  0  0  0  0  0
   -3.4450   -0.6270   -1.0400 C   0  0  0  0  0  0  0  0  0  0  0  0
   -2.4160    0.2860   -0.9320 O   0  0  0  0  0  0  0  0  0  0  0  0
  1  2  2  0
  2  3  1  0
  2 10  1  0
  3  4  1  0
  4  5  1  0
  5  6  2  0
  5  9  1  0
  6  7  1  0
  7  8  1  0
  8  9  1  0
 10 11  1  0
 11 12  1  1
 11 14  1  0
 11 18  1  0
 12 13  1  0
 14 15  1  0
 15 16  1  0
 16 17  1  0
 17 18  1  0
M  CHG  1   7   1
M  END
