
     RDKit          3D

 18 18  0  0  0  0  0  0  0  0999 V2000
    6.6790   -1.0020    0.0320 C   0  0  0  0  0  0  0  0  0  0  0  0
    5.3960   -1.0700   -0.6060 O   0  0  0  0  0  0  0  0  0  0  0  0
    4.4820   -0.0290   -0.4920 C   0  0  0  0  0  0  0  0  0  0  0  0
    4.7970    0.9860    0.1860 O   0  0  0  0  0  0  0  0  0  0  0  0
    3.1990   -0.0220   -1.0910 N   0  0  0  0  0  0  0  0  0  0  0  0
    2.3300    1.0360   -0.9470 O   0  0  0  0  0  0  0  0  0  0  0  0
    0.9790    0.9890   -1.1270 C   0  0  0  0  0  0  0  0  0  0  0  0
    0.4530   -0.1050   -1.4540 O   0  0  0  0  0  0  0  0  0  0  0  0
    0.0690    2.1570   -0.9610 C   0  0  0  0  0  0  0  0  0  0  0  0
   -1.6440    1.7330   -1.2720 S   0  0  0  0  0  0  0  0  0  0  0  0
   -2.1820    0.5840    0.0150 C   0  0  0  0  0  0  0  0  0  0  0  0
   -1.4570    0.1140    1.0020 C   0  0  0  0  0  0  0  0  0  0  0  0
   -2.2180   -0.8040    1.8680 C   0  0  0  0  0  0  0  0  0  0  0  0
   -3.5720   -0.8420    1.2650 C   0  0  0  0  0  0  0  0  0  0  0  0
   -4.5590   -1.5380    1.7290 N   0  0  0  0  0  0  0  0  0  0  0  0
   -3.5380    0.0270    0.1080 C   0  0  0  0  0  0  0  0  0  0  0  0
   -4.5440    0.2650   -0.6970 C   0  0  0  0  0  0  0  0  0  0  0  0
   -4.3610    1.1250   -1.7660 O   0  0  0  0  0  0  0  0  0  0  0  0
  1  2  1  0
  2  3  1  0
  3  4  2  0
  3  5  1  0
  5  6  1  0
  6  7  1  0
  7  8  2  0
  7  9  1  0
  9 10  1  0
 10 11  1  0
 11 12  2  0
 11 16  1  0
 12 13  1  0
 13 14  1  0
 14 15  2  0
 14 16  1  0
 16 17  2  3
 17 18  1  0
M  CHG  1  15   1
M  END
