
     RDKit          3D

  7  6  0  0  0  0  0  0  0  0999 V2000
   -0.3500    1.4930   -0.3350 N   0  0  0  0  0  0  0  0  0  0  0  0
    0.1250    0.1540   -0.5850 C   0  0  2  0  0  0  0  0  0  0  0  0
   -1.0400   -0.8370   -0.4570 C   0  0  0  0  0  0  0  0  0  0  0  0
   -1.5130   -0.7100    0.8390 O   0  0  0  0  0  0  0  0  0  0  0  0
    1.1150   -0.1840    0.4730 C   0  0  0  0  0  0  0  0  0  0  0  0
    1.4170    0.6370    1.3910 O   0  0  0  0  0  0  0  0  0  0  0  0
    1.7590   -1.4170    0.5100 O   0  0  0  0  0  0  0  0  0  0  0  0
  2  1  1  1
  2  3  1  0
  2  5  1  0
  3  4  1  0
  5  6  2  0
  5  7  1  0
M  CHG  1   1   1
M  END
