
     RDKit          3D

 18 18  0  0  0  0  0  0  0  0999 V2000
    2.6520    0.6910   -1.5340 C   0  0  0  0  0  0  0  0  0  0  0  0
    2.0150    0.1290   -0.3120 C   0  0  0  0  0  0  0  0  0  0  0  0
    2.6650   -0.6000    0.5630 C   0  0  0  0  0  0  0  0  0  0  0  0
    4.0790   -0.9200    0.4050 C   0  0  0  0  0  0  0  0  0  0  0  0
    4.6940   -1.6360    1.2760 N   0  0  0  0  0  0  0  0  0  0  0  0
    0.6720    0.4070   -0.1180 O   0  0  0  0  0  0  0  0  0  0  0  0
   -0.3130   -0.3880   -0.5930 C   0  0  0  0  0  0  0  0  0  0  0  0
    0.1150   -1.4250   -1.2420 O   0  0  0  0  0  0  0  0  0  0  0  0
   -1.7540   -0.2730   -0.4980 C   0  0  0  0  0  0  0  0  0  0  0  0
   -2.4210    0.6880    0.1080 C   0  0  0  0  0  0  0  0  0  0  0  0
   -1.7650    1.7780    0.7710 C   0  0  0  0  0  0  0  0  0  0  0  0
   -2.5950    2.7760    1.3990 N   0  0  0  0  0  0  0  0  0  0  0  0
   -0.5620    1.9700    0.8730 O   0  0  0  0  0  0  0  0  0  0  0  0
   -3.8480    0.6370    0.1000 O   0  0  0  0  0  0  0  0  0  0  0  0
   -4.5400   -0.6120    0.0640 C   0  0  0  0  0  0  0  0  0  0  0  0
   -3.9880   -1.2730   -1.0840 O   0  0  0  0  0  0  0  0  0  0  0  0
   -2.6040   -1.3150   -1.1310 C   0  0  0  0  0  0  0  0  0  0  0  0
   -1.8320   -2.5410   -1.9040 S   0  0  0  0  0  0  0  0  0  0  0  0
  1  2  1  0
  2  3  2  3
  2  6  1  0
  3  4  1  0
  4  5  2  0
  6  7  1  0
  7  8  2  0
  7  9  1  0
  9 10  2  0
  9 17  1  0
 10 11  1  0
 10 14  1  0
 11 12  1  0
 11 13  2  0
 14 15  1  0
 15 16  1  0
 16 17  1  0
 17 18  2  0
M  CHG  1   5   1
M  END
