
     RDKit          3D

  7  7  0  0  0  0  0  0  0  0999 V2000
   -1.6440   -0.2410   -0.1270 N   0  0  0  0  0  0  0  0  0  0  0  0
   -0.2500    0.0430   -0.0110 C   0  0  0  0  0  0  0  0  0  0  0  0
    0.2950    1.2820    0.2540 C   0  0  0  0  0  0  0  0  0  0  0  0
    1.5980    1.1080    0.2770 O   0  0  0  0  0  0  0  0  0  0  0  0
    1.8960   -0.1370    0.0490 N   0  0  0  0  0  0  0  0  0  0  0  0
    0.7880   -0.8590   -0.1400 C   0  0  0  0  0  0  0  0  0  0  0  0
    0.6900   -2.1100   -0.3860 O   0  0  0  0  0  0  0  0  0  0  0  0
  1  2  1  0
  2  3  2  0
  2  6  1  0
  3  4  1  0
  4  5  1  0
  5  6  1  0
  6  7  2  0
M  CHG  1   1   1
M  END
