
     RDKit          3D

  7  6  0  0  0  0  0  0  0  0999 V2000
   -0.4820   -1.9190    0.2420 C   0  0  0  0  0  0  0  0  0  0  0  0
   -0.3810   -0.5500   -0.1670 N   0  0  0  0  0  0  0  0  0  0  0  0
   -1.3480    0.3230    0.3820 C   0  0  0  0  0  0  0  0  0  0  0  0
   -1.1760    1.6270   -0.0730 O   0  0  0  0  0  0  0  0  0  0  0  0
    0.9730   -0.1160   -0.1530 C   0  0  1  0  0  0  0  0  0  0  0  0
    1.2180    1.2290   -0.5490 N   0  0  0  0  0  0  0  0  0  0  0  0
    1.5740   -0.3420    1.0950 O   0  0  0  0  0  0  0  0  0  0  0  0
  1  2  1  0
  2  3  1  0
  2  5  1  0
  3  4  1  0
  5  6  1  1
  5  7  1  0
M  CHG  1   6   1
M  END
