
     RDKit          3D

  7  6  0  0  0  0  0  0  0  0999 V2000
    2.1110   -0.3370   -0.0850 C   0  0  0  0  0  0  0  0  0  0  0  0
    0.8640   -0.2580   -0.8140 N   0  0  0  0  0  0  0  0  0  0  0  0
   -0.3770    0.0370   -0.1910 C   0  0  0  0  0  0  0  0  0  0  0  0
   -1.6530   -0.3520   -0.8430 C   0  0  0  0  0  0  0  0  0  0  0  0
   -2.7270    0.0390   -0.0510 O   0  0  0  0  0  0  0  0  0  0  0  0
   -0.3710    0.6480    0.9470 N   0  0  0  0  0  0  0  0  0  0  0  0
    0.8080    1.0100    1.5520 O   0  0  0  0  0  0  0  0  0  0  0  0
  1  2  1  0
  2  3  1  0
  3  4  1  0
  3  6  2  3
  4  5  1  0
  6  7  1  0
M  CHG  1   6   1
M  END
