
     RDKit          3D

  7  7  0  0  0  0  0  0  0  0999 V2000
    1.6420   -0.0120   -0.1450 N   0  0  0  0  0  0  0  0  0  0  0  0
    0.3510    0.0630    0.4440 C   0  0  2  0  0  0  0  0  0  0  0  0
   -0.5210   -1.1490    0.1110 C   0  0  0  0  0  0  0  0  0  0  0  0
   -1.8110   -0.6950    0.2010 O   0  0  0  0  0  0  0  0  0  0  0  0
   -1.8230    0.6030   -0.1350 N   0  0  0  0  0  0  0  0  0  0  0  0
   -0.5020    1.1370   -0.1770 C   0  0  0  0  0  0  0  0  0  0  0  0
   -0.1780    2.2410   -0.6330 O   0  0  0  0  0  0  0  0  0  0  0  0
  2  1  1  6
  2  3  1  0
  2  6  1  0
  3  4  1  0
  4  5  1  0
  5  6  1  0
  6  7  2  0
M  CHG  1   1   1
M  END
