
     RDKit          3D

  7  7  0  0  0  0  0  0  0  0999 V2000
   -2.3780    1.3520    0.0170 O   0  0  0  0  0  0  0  0  0  0  0  0
   -1.2860    0.7320   -0.1020 C   0  0  0  0  0  0  0  0  0  0  0  0
    0.0020    1.3180   -0.2520 N   0  0  0  0  0  0  0  0  0  0  0  0
    0.9430    0.3580    0.2820 C   0  0  2  0  0  0  0  0  0  0  0  0
    2.1510    0.4670   -0.3570 O   0  0  0  0  0  0  0  0  0  0  0  0
    0.2430   -0.9510    0.0680 C   0  0  0  0  0  0  0  0  0  0  0  0
   -1.1550   -0.6700   -0.1060 N   0  0  0  0  0  0  0  0  0  0  0  0
  1  2  2  0
  2  3  1  0
  2  7  1  0
  3  4  1  0
  4  5  1  6
  4  6  1  0
  6  7  1  0
M  CHG  1   7   1
M  END
