
     RDKit          3D

  7  7  0  0  0  0  0  0  0  0999 V2000
   -1.2150   -1.0710   -0.5340 N   0  0  0  0  0  0  0  0  0  0  0  0
   -1.1220    0.3510   -0.4620 C   0  0  0  0  0  0  0  0  0  0  0  0
    0.1160    0.9440   -0.8720 N   0  0  0  0  0  0  0  0  0  0  0  0
   -0.0190    2.3090   -0.8260 O   0  0  0  0  0  0  0  0  0  0  0  0
    1.2000    0.5120   -0.0610 C   0  0  1  0  0  0  0  0  0  0  0  0
    1.5990   -0.9280   -0.1210 C   0  0  0  0  0  0  0  0  0  0  0  0
    2.4240    0.1250   -0.5320 O   0  0  0  0  0  0  0  0  0  0  0  0
  1  2  1  0
  2  3  1  0
  3  4  1  0
  5  3  1  6
  5  6  1  0
  5  7  1  0
  6  7  1  0
M  CHG  1   1   1
M  END
