
     RDKit          3D

  7  7  0  0  0  0  0  0  0  0999 V2000
   -1.5310    1.3260   -0.3580 N   0  0  0  0  0  0  0  0  0  0  0  0
   -0.5570    0.2990   -0.1220 C   0  0  1  0  0  0  0  0  0  0  0  0
   -1.1510   -1.0310   -0.1090 N   0  0  0  0  0  0  0  0  0  0  0  0
    0.4080    0.4230   -1.1290 O   0  0  0  0  0  0  0  0  0  0  0  0
    1.6270    0.0900   -0.5470 C   0  0  0  0  0  0  0  0  0  0  0  0
    1.3790   -0.0310    0.9380 C   0  0  0  0  0  0  0  0  0  0  0  0
    0.0810    0.4770    1.0830 O   0  0  0  0  0  0  0  0  0  0  0  0
  2  1  1  6
  2  3  1  0
  2  4  1  0
  2  7  1  0
  4  5  1  0
  5  6  1  0
  6  7  1  0
M  CHG  1   3   1
M  END
