
     RDKit          3D

  7  7  0  0  0  0  0  0  0  0999 V2000
    1.7560    0.1630   -0.2320 N   0  0  0  0  0  0  0  0  0  0  0  0
    0.4470   -0.1600    0.2970 C   0  0  2  0  0  0  0  0  0  0  0  0
   -0.0130   -1.3780   -0.1920 O   0  0  0  0  0  0  0  0  0  0  0  0
   -1.3820   -1.3110    0.0190 C   0  0  0  0  0  0  0  0  0  0  0  0
   -1.6760    0.0810   -0.2880 N   0  0  0  0  0  0  0  0  0  0  0  0
   -0.6020    0.7750   -0.1280 C   0  0  0  0  0  0  0  0  0  0  0  0
   -0.4570    2.1260   -0.3150 O   0  0  0  0  0  0  0  0  0  0  0  0
  2  1  1  6
  2  3  1  0
  2  6  1  0
  3  4  1  0
  4  5  1  0
  5  6  2  0
  6  7  1  0
M  CHG  1   1   1
M  END
