
     RDKit          3D

  7  7  0  0  0  0  0  0  0  0999 V2000
    1.8200    0.0470    0.3700 N   0  0  0  0  0  0  0  0  0  0  0  0
    0.6100   -0.1550   -0.4430 C   0  0  2  0  0  0  0  0  0  0  0  0
   -0.2370    1.0340   -0.3570 N   0  0  0  0  0  0  0  0  0  0  0  0
   -1.5190    0.5880    0.0720 C   0  0  0  0  0  0  0  0  0  0  0  0
   -2.4900    1.3250    0.3740 O   0  0  0  0  0  0  0  0  0  0  0  0
   -1.4420   -0.8880    0.0790 C   0  0  0  0  0  0  0  0  0  0  0  0
   -0.0850   -1.1870    0.1240 O   0  0  0  0  0  0  0  0  0  0  0  0
  2  1  1  1
  2  3  1  0
  2  7  1  0
  3  4  1  0
  4  5  2  0
  4  6  1  0
  6  7  1  0
M  CHG  1   1   1
M  END
