
     RDKit          3D

 22 23  0  0  0  0  0  0  0  0999 V2000
    5.7030    0.6850   -0.8180 C   0  0  0  0  0  0  0  0  0  0  0  0
    4.4470    0.6690   -0.5110 O   0  0  0  0  0  0  0  0  0  0  0  0
    3.2390    0.6860   -0.0270 C   0  0  0  0  0  0  0  0  0  0  0  0
    2.9560    0.9110    1.3350 C   0  0  0  0  0  0  0  0  0  0  0  0
    1.6570    0.9130    1.7650 C   0  0  0  0  0  0  0  0  0  0  0  0
    0.6270    0.7060    0.9320 N   0  0  0  0  0  0  0  0  0  0  0  0
    0.8220    0.4830   -0.3860 C   0  0  0  0  0  0  0  0  0  0  0  0
   -0.3130    0.2590   -1.2470 N   0  0  0  0  0  0  0  0  0  0  0  0
   -1.6280    0.2600   -0.7870 N   0  0  0  0  0  0  0  0  0  0  0  0
   -2.0700   -0.6360   -0.0230 C   0  0  0  0  0  0  0  0  0  0  0  0
   -1.1710   -1.7270    0.4060 C   0  0  0  0  0  0  0  0  0  0  0  0
   -2.0200   -3.2910    0.2140 S   0  0  0  0  0  0  0  0  0  0  0  0
   -3.7770   -2.9920    0.2030 C   0  0  0  0  0  0  0  0  0  0  0  0
   -4.2210   -1.6440    0.4940 C   0  0  0  0  0  0  0  0  0  0  0  0
   -3.4710   -0.5630    0.4000 C   0  0  0  0  0  0  0  0  0  0  0  0
   -4.2070    1.0450    0.7880 S   0  0  0  0  0  0  0  0  0  0  0  0
   -3.0650    2.4040    0.5710 C   0  0  1  0  0  0  0  0  0  0  0  0
   -2.6940    2.6150   -0.7550 F   0  0  0  0  0  0  0  0  0  0  0  0
   -3.7430    3.5570    0.9930 F   0  0  0  0  0  0  0  0  0  0  0  0
   -1.9980    2.2080    1.4060 F   0  0  0  0  0  0  0  0  0  0  0  0
    2.1080    0.4760   -0.8380 C   0  0  0  0  0  0  0  0  0  0  0  0
    2.4120    0.2560   -2.1740 O   0  0  0  0  0  0  0  0  0  0  0  0
  1  2  1  0
  2  3  1  0
  3  4  2  0
  3 21  1  0
  4  5  1  0
  5  6  2  0
  6  7  1  0
  7  8  1  0
  7 21  2  0
  8  9  1  0
  9 10  2  3
 10 11  1  0
 10 15  1  0
 11 12  1  0
 12 13  1  0
 13 14  1  0
 14 15  2  0
 15 16  1  0
 16 17  1  0
 17 18  1  6
 17 19  1  0
 17 20  1  0
 21 22  1  0
M  END
