
     RDKit          3D

 27 30  0  0  0  0  0  0  0  0999 V2000
    7.7780   -0.9100    0.4810 C   0  0  0  0  0  0  0  0  0  0  0  0
    6.2830   -0.7780    0.2180 C   0  0  0  0  0  0  0  0  0  0  0  0
    5.5960   -0.3050    1.4090 N   0  0  0  0  0  0  0  0  0  0  0  0
    4.7920    0.8830    1.1320 C   0  0  1  0  0  0  0  0  0  0  0  0
    5.5100    1.8380    0.2060 C   0  0  0  0  0  0  0  0  0  0  0  0
    3.4710    0.5030    0.5650 C   0  0  0  0  0  0  0  0  0  0  0  0
    3.1580   -0.3990   -0.4080 C   0  0  0  0  0  0  0  0  0  0  0  0
    1.8220   -0.3790   -0.5630 N   0  0  0  0  0  0  0  0  0  0  0  0
    1.2580    0.4900    0.2590 N   0  0  0  0  0  0  0  0  0  0  0  0
   -0.1640    0.7640    0.3560 C   0  0  1  0  0  0  0  0  0  0  0  0
   -0.6430    1.7330   -0.6910 C   0  0  0  0  0  0  0  0  0  0  0  0
   -1.7910    1.1580   -1.5010 C   0  0  0  0  0  0  0  0  0  0  0  0
   -1.3650   -0.2280   -1.9260 C   0  0  0  0  0  0  0  0  0  0  0  0
   -1.3440   -1.0740   -0.7930 N   0  0  0  0  0  0  0  0  0  0  0  0
   -2.4270   -1.9890   -0.6480 C   0  0  0  0  0  0  0  0  0  0  0  0
   -3.7630   -1.3680   -0.5460 C   0  0  0  0  0  0  0  0  0  0  0  0
   -4.5270   -1.1970   -1.6710 C   0  0  0  0  0  0  0  0  0  0  0  0
   -5.7700   -0.6150   -1.5540 C   0  0  0  0  0  0  0  0  0  0  0  0
   -6.2460   -0.2090   -0.3270 C   0  0  0  0  0  0  0  0  0  0  0  0
   -7.5010    0.3800   -0.1970 C   0  0  0  0  0  0  0  0  0  0  0  0
   -7.9770    0.7870    1.0340 C   0  0  0  0  0  0  0  0  0  0  0  0
   -7.1450    0.5790    2.1250 C   0  0  0  0  0  0  0  0  0  0  0  0
   -5.9280    0.0060    1.9820 N   0  0  0  0  0  0  0  0  0  0  0  0
   -5.4560   -0.3920    0.7980 C   0  0  0  0  0  0  0  0  0  0  0  0
   -4.2490   -0.9650    0.6330 N   0  0  0  0  0  0  0  0  0  0  0  0
   -0.9500   -0.4920    0.4340 C   0  0  0  0  0  0  0  0  0  0  0  0
    2.2750    1.0530    0.9750 C   0  0  0  0  0  0  0  0  0  0  0  0
  1  2  1  0
  2  3  1  0
  3  4  1  0
  4  5  1  6
  4  6  1  0
  6  7  1  0
  6 27  2  0
  7  8  2  0
  8  9  1  0
 10  9  1  6
  9 27  1  0
 10 11  1  0
 10 26  1  0
 11 12  1  0
 12 13  1  0
 13 14  1  0
 14 15  1  0
 14 26  1  0
 15 16  1  0
 16 17  2  0
 16 25  1  0
 17 18  1  0
 18 19  2  0
 19 20  1  0
 19 24  1  0
 20 21  2  0
 21 22  1  0
 22 23  2  0
 23 24  1  0
 24 25  2  0
M  CHG  1   3   1
M  END
