
     RDKit          3D

 22 23  0  0  0  0  0  0  0  0999 V2000
   -6.5910    0.8290   -1.4450 C   0  0  0  0  0  0  0  0  0  0  0  0
   -5.2520    0.4870   -0.9990 N   0  0  0  0  0  0  0  0  0  0  0  0
   -5.0260   -0.5420   -0.0660 C   0  0  0  0  0  0  0  0  0  0  0  0
   -5.9890   -1.1880    0.4000 O   0  0  0  0  0  0  0  0  0  0  0  0
   -3.6730   -0.8560    0.3560 C   0  0  0  0  0  0  0  0  0  0  0  0
   -3.3170   -1.8500    1.2730 C   0  0  0  0  0  0  0  0  0  0  0  0
   -1.9450   -1.8270    1.3990 C   0  0  0  0  0  0  0  0  0  0  0  0
   -1.5300   -0.8220    0.5580 C   0  0  0  0  0  0  0  0  0  0  0  0
   -0.1110   -0.4650    0.3950 C   0  0  0  0  0  0  0  0  0  0  0  0
    1.0110   -1.0000    0.9880 C   0  0  0  0  0  0  0  0  0  0  0  0
    2.2000   -0.4740    0.6510 C   0  0  0  0  0  0  0  0  0  0  0  0
    2.3070    0.5270   -0.2210 C   0  0  0  0  0  0  0  0  0  0  0  0
    3.3300    1.3050   -0.7970 N   0  0  0  0  0  0  0  0  0  0  0  0
    4.7020    1.3150   -0.6590 C   0  0  0  0  0  0  0  0  0  0  0  0
    5.5390    2.4460   -1.5670 S   0  0  0  0  0  0  0  0  0  0  0  0
    5.5210    0.5090    0.1410 N   0  0  0  0  0  0  0  0  0  0  0  0
    6.9960    0.6980    0.1330 C   0  0  1  0  0  0  0  0  0  0  0  0
    7.5020    0.4990   -1.1300 F   0  0  0  0  0  0  0  0  0  0  0  0
    7.2100    2.0250    0.4750 F   0  0  0  0  0  0  0  0  0  0  0  0
    7.5930   -0.0880    1.0690 F   0  0  0  0  0  0  0  0  0  0  0  0
    0.5510    0.7950   -0.6460 S   0  0  0  0  0  0  0  0  0  0  0  0
   -2.5600   -0.2940   -0.0200 O   0  0  0  0  0  0  0  0  0  0  0  0
  1  2  1  0
  2  3  1  0
  3  4  2  0
  3  5  1  0
  5  6  2  0
  5 22  1  0
  6  7  1  0
  7  8  2  0
  8  9  1  0
  8 22  1  0
  9 10  2  0
  9 21  1  0
 10 11  1  0
 11 12  2  0
 12 13  1  0
 12 21  1  0
 13 14  1  0
 14 15  2  0
 14 16  1  0
 16 17  1  0
 17 18  1  6
 17 19  1  0
 17 20  1  0
M  END
