
     RDKit          3D

 27 30  0  0  0  0  0  0  0  0999 V2000
   -2.3110   -4.9030    0.0480 C   0  0  0  0  0  0  0  0  0  0  0  0
   -1.7000   -3.6850    0.7180 C   0  0  0  0  0  0  0  0  0  0  0  0
   -2.4600   -2.4560    0.4290 C   0  0  0  0  0  0  0  0  0  0  0  0
   -3.8600   -2.4940    0.9810 C   0  0  0  0  0  0  0  0  0  0  0  0
   -1.9320   -1.4400   -0.1860 C   0  0  0  0  0  0  0  0  0  0  0  0
   -0.5270   -1.4040   -0.6480 C   0  0  0  0  0  0  0  0  0  0  0  0
    0.2020   -0.3100   -0.0010 N   0  0  1  0  0  0  0  0  0  0  0  0
    1.6060   -0.6420   -0.1700 C   0  0  0  0  0  0  0  0  0  0  0  0
    2.4770   -0.0130    0.8890 C   0  0  0  0  0  0  0  0  0  0  0  0
    3.8830   -0.4430    0.5860 C   0  0  0  0  0  0  0  0  0  0  0  0
    4.4510   -1.5470    1.0730 N   0  0  0  0  0  0  0  0  0  0  0  0
    5.6990   -1.6610    0.6280 N   0  0  0  0  0  0  0  0  0  0  0  0
    5.9310   -0.5970   -0.1660 C   0  0  0  0  0  0  0  0  0  0  0  0
    6.8220    0.0720   -0.9750 C   0  0  0  0  0  0  0  0  0  0  0  0
    6.2090    1.1930   -1.4540 C   0  0  0  0  0  0  0  0  0  0  0  0
    4.9810    1.2110   -0.9550 N   0  0  0  0  0  0  0  0  0  0  0  0
    4.8010    0.1460   -0.1820 N   0  0  0  0  0  0  0  0  0  0  0  0
    0.0070    0.9630   -0.6960 C   0  0  0  0  0  0  0  0  0  0  0  0
   -1.2780    1.6160   -0.3700 C   0  0  0  0  0  0  0  0  0  0  0  0
   -1.2210    3.0630   -0.1500 C   0  0  0  0  0  0  0  0  0  0  0  0
   -0.1440    3.8390   -0.2140 C   0  0  0  0  0  0  0  0  0  0  0  0
   -0.5520    5.2330    0.0800 C   0  0  0  0  0  0  0  0  0  0  0  0
   -1.9950    5.1710    0.3220 C   0  0  0  0  0  0  0  0  0  0  0  0
   -2.3640    3.8940    0.1820 C   0  0  0  0  0  0  0  0  0  0  0  0
   -2.5040    1.0900   -0.2470 C   0  0  0  0  0  0  0  0  0  0  0  0
   -2.8120   -0.3100   -0.4250 N   0  0  0  0  0  0  0  0  0  0  0  0
   -4.1500   -0.5560   -0.9090 C   0  0  0  0  0  0  0  0  0  0  0  0
  1  2  1  0
  2  3  1  0
  3  4  1  0
  3  5  2  3
  5  6  1  0
  5 26  1  0
  6  7  1  0
  7  8  1  6
  7 18  1  0
  8  9  1  0
  9 10  1  0
 10 11  2  0
 10 17  1  0
 11 12  1  0
 12 13  2  0
 13 14  1  0
 13 17  1  0
 14 15  2  0
 15 16  1  0
 16 17  1  0
 18 19  1  0
 19 20  1  0
 19 25  2  0
 20 21  2  0
 20 24  1  0
 21 22  1  0
 22 23  1  0
 23 24  2  0
 25 26  1  0
 26 27  1  0
M  CHG  1   7   1
M  END
