
     RDKit          3D

 23 24  0  0  0  0  0  0  0  0999 V2000
   -0.6130    1.5590   -1.3010 O   0  0  0  0  0  0  0  0  0  0  0  0
   -0.3960    0.4880   -0.6560 C   0  0  0  0  0  0  0  0  0  0  0  0
   -1.4710   -0.0750   -0.0160 O   0  0  0  0  0  0  0  0  0  0  0  0
   -2.7640    0.4780   -0.0490 C   0  0  0  0  0  0  0  0  0  0  0  0
   -3.6340    0.1480   -0.9870 C   0  0  0  0  0  0  0  0  0  0  0  0
   -4.8850    0.8800   -0.7610 C   0  0  0  0  0  0  0  0  0  0  0  0
   -4.6060    1.6740    0.4360 C   0  0  0  0  0  0  0  0  0  0  0  0
   -5.5040    2.5310    1.0300 F   0  0  0  0  0  0  0  0  0  0  0  0
   -3.3710    1.4260    0.8330 C   0  0  0  0  0  0  0  0  0  0  0  0
    0.9460   -0.0530   -0.6430 C   0  0  0  0  0  0  0  0  0  0  0  0
    1.9110    0.5190   -1.2610 N   0  0  0  0  0  0  0  0  0  0  0  0
    3.2300   -0.0050   -1.2530 C   0  0  0  0  0  0  0  0  0  0  0  0
    4.1970    0.5420   -0.5560 C   0  0  0  0  0  0  0  0  0  0  0  0
    3.9020    1.7470    0.2510 C   0  0  1  0  0  0  0  0  0  0  0  0
    4.7290    1.8340    1.3500 F   0  0  0  0  0  0  0  0  0  0  0  0
    4.1390    2.8430   -0.5860 F   0  0  0  0  0  0  0  0  0  0  0  0
    2.5840    1.7320    0.5930 F   0  0  0  0  0  0  0  0  0  0  0  0
    1.2250   -1.2840    0.0920 C   0  0  0  0  0  0  0  0  0  0  0  0
    0.4250   -2.0290    0.7810 N   0  0  0  0  0  0  0  0  0  0  0  0
    0.7760   -3.0780    1.3780 N   0  0  0  0  0  0  0  0  0  0  0  0
    2.0570   -3.5030    1.3310 C   0  0  0  0  0  0  0  0  0  0  0  0
    2.8620   -4.7110    1.9170 S   0  0  0  0  0  0  0  0  0  0  0  0
    2.7340   -2.1310    0.2630 S   0  0  0  0  0  0  0  0  0  0  0  0
  1  2  2  0
  2  3  1  0
  2 10  1  0
  3  4  1  0
  4  5  2  0
  4  9  1  0
  5  6  1  0
  6  7  1  0
  7  8  1  0
  7  9  2  0
 10 11  2  3
 10 18  1  0
 11 12  1  0
 12 13  2  3
 13 14  1  0
 14 15  1  1
 14 16  1  0
 14 17  1  0
 18 19  2  0
 18 23  1  0
 19 20  1  0
 20 21  1  0
 21 22  2  0
 21 23  1  0
M  END
