
     RDKit          3D

 16 16  0  0  0  0  0  0  0  0999 V2000
    4.3680    2.3330   -0.6670 O   0  0  0  0  0  0  0  0  0  0  0  0
    4.3160    1.1270   -1.2110 O   0  0  0  0  0  0  0  0  0  0  0  0
    4.3680    0.1480   -0.2190 C   0  0  0  0  0  0  0  0  0  0  0  0
    3.0600   -0.0040    0.5150 C   0  0  0  0  0  0  0  0  0  0  0  0
    2.1730   -0.8570   -0.1240 O   0  0  0  0  0  0  0  0  0  0  0  0
    1.4670   -1.5820    0.7340 O   0  0  0  0  0  0  0  0  0  0  0  0
    0.2100   -1.8150    0.1510 C   0  0  0  0  0  0  0  0  0  0  0  0
   -0.7210   -0.6750    0.4530 C   0  0  0  0  0  0  0  0  0  0  0  0
   -1.9860   -0.7900   -0.3450 C   0  0  1  0  0  0  0  0  0  0  0  0
   -1.6820   -1.2850   -2.1780 Br  0  0  0  0  0  0  0  0  0  0  0  0
   -2.8990   -1.6750    0.1890 O   0  0  0  0  0  0  0  0  0  0  0  0
   -4.0920   -1.3570   -0.1820 O   0  0  0  0  0  0  0  0  0  0  0  0
   -4.1330   -0.0810   -0.6790 C   0  0  0  0  0  0  0  0  0  0  0  0
   -2.7930    0.5010   -0.2430 C   0  0  2  0  0  0  0  0  0  0  0  0
   -2.3400    1.4820   -1.0990 O   0  0  0  0  0  0  0  0  0  0  0  0
   -2.3630    2.6200   -0.4180 O   0  0  0  0  0  0  0  0  0  0  0  0
  1  2  1  0
  2  3  1  0
  3  4  1  0
  4  5  1  0
  5  6  1  0
  6  7  1  0
  7  8  1  0
  8  9  1  0
  9 10  1  6
  9 11  1  0
  9 14  1  0
 11 12  1  0
 12 13  1  0
 13 14  1  0
 14 15  1  6
 15 16  1  0
M  END
