
     RDKit          3D

 23 24  0  0  0  0  0  0  0  0999 V2000
   -1.3780   -1.9340    0.9050 C   0  0  0  0  0  0  0  0  0  0  0  0
   -0.2870   -1.0030    0.8680 N   0  0  0  0  0  0  0  0  0  0  0  0
    0.9200   -1.6750    0.4780 C   0  0  0  0  0  0  0  0  0  0  0  0
    1.1360   -1.8170   -0.9690 C   0  0  0  0  0  0  0  0  0  0  0  0
    0.1270   -2.3390   -1.5910 O   0  0  0  0  0  0  0  0  0  0  0  0
    2.3180   -1.4450   -1.7290 C   0  0  0  0  0  0  0  0  0  0  0  0
    2.6820   -2.3730   -2.5600 O   0  0  0  0  0  0  0  0  0  0  0  0
    2.9830   -0.2990   -1.6220 O   0  0  0  0  0  0  0  0  0  0  0  0
    3.9440    0.2460   -0.7850 C   0  0  0  0  0  0  0  0  0  0  0  0
    3.3390    1.4970   -0.2100 C   0  0  0  0  0  0  0  0  0  0  0  0
    3.7030    2.7560    0.0270 N   0  0  0  0  0  0  0  0  0  0  0  0
    2.6510    3.3780    0.5820 N   0  0  0  0  0  0  0  0  0  0  0  0
    1.6400    2.5040    0.6880 C   0  0  0  0  0  0  0  0  0  0  0  0
    2.0850    1.3550    0.1950 N   0  0  0  0  0  0  0  0  0  0  0  0
    0.2780    2.5370    1.1910 N   0  0  0  0  0  0  0  0  0  0  0  0
   -0.4990    1.3600    1.3160 C   0  0  0  0  0  0  0  0  0  0  0  0
   -1.2040    1.1760    2.3410 O   0  0  0  0  0  0  0  0  0  0  0  0
   -0.5600    0.2620    0.2880 C   0  0  2  0  0  0  0  0  0  0  0  0
   -2.0090    0.3610   -0.2200 C   0  0  0  0  0  0  0  0  0  0  0  0
   -2.3180   -0.5660   -1.1810 O   0  0  0  0  0  0  0  0  0  0  0  0
   -3.9750   -0.3050   -1.6310 P   0  0  0  0  0  0  0  0  0  0  0  0
   -4.7400   -1.7840   -2.1140 O   0  0  0  0  0  0  0  0  0  0  0  0
   -4.8900    0.3640   -0.3180 O   0  0  0  0  0  0  0  0  0  0  0  0
  1  2  1  0
  2  3  1  0
  2 18  1  0
  3  4  1  0
  4  5  2  0
  4  6  1  0
  6  7  2  0
  6  8  1  0
  8  9  1  0
  9 10  1  0
 10 11  2  0
 10 14  1  0
 11 12  1  0
 12 13  1  0
 13 14  2  0
 13 15  1  0
 15 16  1  0
 16 17  2  0
 16 18  1  0
 18 19  1  1
 19 20  1  0
 20 21  1  0
 21 22  1  0
 21 23  1  0
M  END
