
     RDKit          3D

 23 25  0  0  0  0  0  0  0  0999 V2000
    4.5460   -0.9660   -1.4680 N   0  0  0  0  0  0  0  0  0  0  0  0
    3.8710   -0.1070   -0.9080 C   0  0  0  0  0  0  0  0  0  0  0  0
    2.6730    0.1840   -1.5690 N   0  0  0  0  0  0  0  0  0  0  0  0
    1.4280    0.4760   -1.0520 C   0  0  0  0  0  0  0  0  0  0  0  0
    1.4410    0.3700    0.1970 O   0  0  0  0  0  0  0  0  0  0  0  0
    0.3150    0.8240   -1.7470 O   0  0  0  0  0  0  0  0  0  0  0  0
   -0.8360    1.0420   -0.9670 C   0  0  0  0  0  0  0  0  0  0  0  0
   -1.0470    2.2380   -0.3410 C   0  0  0  0  0  0  0  0  0  0  0  0
   -2.1890    2.4460    0.4420 C   0  0  0  0  0  0  0  0  0  0  0  0
   -3.0970    1.4110    0.5630 C   0  0  0  0  0  0  0  0  0  0  0  0
   -2.8880    0.2110   -0.0650 C   0  0  0  0  0  0  0  0  0  0  0  0
   -1.7520    0.0250   -0.8350 C   0  0  0  0  0  0  0  0  0  0  0  0
   -3.9850   -0.6170    0.2560 N   0  0  0  0  0  0  0  0  0  0  0  0
   -4.5320   -1.9450    0.2750 C   0  0  0  0  0  0  0  0  0  0  0  0
   -4.0800   -2.8920   -0.4020 O   0  0  0  0  0  0  0  0  0  0  0  0
   -5.6640   -1.8610    1.2320 C   0  0  0  0  0  0  0  0  0  0  0  0
   -5.4980   -0.5770    1.7840 O   0  0  0  0  0  0  0  0  0  0  0  0
   -5.0130    0.1910    0.8030 N   0  0  0  0  0  0  0  0  0  0  0  0
   -4.3180    1.2910    1.2600 O   0  0  0  0  0  0  0  0  0  0  0  0
    4.6260    0.6890    0.0570 N   0  0  0  0  0  0  0  0  0  0  0  0
    5.6120   -0.0680    1.2790 P   0  0  0  0  0  0  0  0  0  0  0  0
    7.2370   -0.3910    0.7710 O   0  0  0  0  0  0  0  0  0  0  0  0
    4.8910   -1.4950    1.9430 O   0  0  0  0  0  0  0  0  0  0  0  0
  1  2  2  0
  2  3  1  0
  2 20  1  0
  3  4  1  0
  4  5  2  0
  4  6  1  0
  6  7  1  0
  7  8  2  0
  7 12  1  0
  8  9  1  0
  9 10  2  0
 10 11  1  0
 10 19  1  0
 11 12  2  0
 11 13  1  0
 13 14  1  0
 13 18  1  0
 14 15  2  0
 14 16  1  0
 16 17  1  0
 17 18  1  0
 18 19  1  0
 20 21  1  0
 21 22  1  0
 21 23  1  0
M  END
