
     RDKit          3D

  9  8  0  0  0  0  0  0  0  0999 V2000
    1.8810    1.3070   -1.1910 O   0  0  0  0  0  0  0  0  0  0  0  0
    1.9300    0.2630   -0.5870 C   0  0  0  0  0  0  0  0  0  0  0  0
    3.1590   -0.0290    0.0850 O   0  0  0  0  0  0  0  0  0  0  0  0
    0.8380   -0.7290   -0.4880 C   0  0  0  0  0  0  0  0  0  0  0  0
   -0.3120   -0.0920   -0.9960 O   0  0  0  0  0  0  0  0  0  0  0  0
   -1.4330    0.2620    0.1470 P   0  0  0  0  0  0  0  0  0  0  0  0
   -1.0950    1.6530    1.0060 O   0  0  0  0  0  0  0  0  0  0  0  0
   -2.9230   -0.3450    0.3170 O   0  0  0  0  0  0  0  0  0  0  0  0
   -0.8650   -0.6570    1.1830 O   0  0  0  0  0  0  0  0  0  0  0  0
  1  2  2  0
  2  3  1  0
  2  4  1  0
  4  5  1  0
  5  6  1  0
  6  7  1  0
  6  8  1  0
  6  9  1  0
M  END
