
     RDKit          3D

 23 25  0  0  0  0  0  0  0  0999 V2000
    3.3330   -0.1490   -0.6060 O   0  0  0  0  0  0  0  0  0  0  0  0
    3.8040   -0.4620    0.5340 C   0  0  0  0  0  0  0  0  0  0  0  0
    5.2410   -0.7220    0.7130 C   0  0  0  0  0  0  0  0  0  0  0  0
    5.8690   -0.5590   -0.5190 O   0  0  0  0  0  0  0  0  0  0  0  0
    7.5770   -0.8560   -0.3600 P   0  0  0  0  0  0  0  0  0  0  0  0
    8.1700    0.2940    0.8250 O   0  0  0  0  0  0  0  0  0  0  0  0
    8.3790   -0.6290   -1.8610 O   0  0  0  0  0  0  0  0  0  0  0  0
    2.8590   -0.5390    1.5920 N   0  0  0  0  0  0  0  0  0  0  0  0
    1.4790   -0.2740    1.3480 C   0  0  0  0  0  0  0  0  0  0  0  0
    0.4950   -0.3140    2.2570 N   0  0  0  0  0  0  0  0  0  0  0  0
   -0.6450   -0.0140    1.6690 N   0  0  0  0  0  0  0  0  0  0  0  0
   -0.3830    0.2180    0.3790 C   0  0  0  0  0  0  0  0  0  0  0  0
   -1.3710    0.5970   -0.6950 C   0  0  0  0  0  0  0  0  0  0  0  0
   -2.6560    0.6630   -0.0870 N   0  0  0  0  0  0  0  0  0  0  0  0
   -3.1530   -0.5330    0.5280 C   0  0  0  0  0  0  0  0  0  0  0  0
   -4.0560   -0.7240   -0.6740 C   0  0  1  0  0  0  0  0  0  0  0  0
   -5.3210   -1.0900   -0.4580 O   0  0  0  0  0  0  0  0  0  0  0  0
   -6.3220   -0.1930   -0.7060 C   0  0  0  0  0  0  0  0  0  0  0  0
   -6.0720    1.1490   -0.2500 N   0  0  0  0  0  0  0  0  0  0  0  0
   -4.7760    1.6520   -0.5130 C   0  0  0  0  0  0  0  0  0  0  0  0
   -4.4580    2.8410   -0.3260 O   0  0  0  0  0  0  0  0  0  0  0  0
   -3.7810    0.6970   -1.0320 C   0  0  1  0  0  0  0  0  0  0  0  0
    0.9150    0.0530    0.2100 O   0  0  0  0  0  0  0  0  0  0  0  0
  1  2  2  0
  2  3  1  0
  2  8  1  0
  3  4  1  0
  4  5  1  0
  5  6  1  0
  5  7  1  0
  8  9  1  0
  9 10  2  0
  9 23  1  0
 10 11  1  0
 11 12  2  0
 12 13  1  0
 12 23  1  0
 13 14  1  0
 14 15  1  0
 22 14  1  1
 16 15  1  1
 16 17  1  0
 16 22  1  0
 17 18  1  0
 18 19  1  0
 19 20  1  0
 20 21  2  0
 20 22  1  0
M  END
