
     RDKit          3D

 23 25  0  0  0  0  0  0  0  0999 V2000
    1.6110   -0.5700   -1.8890 O   0  0  0  0  0  0  0  0  0  0  0  0
    2.1960   -0.2930   -0.8300 C   0  0  0  0  0  0  0  0  0  0  0  0
    3.6000   -0.2880   -0.8900 O   0  0  0  0  0  0  0  0  0  0  0  0
    4.4310   -0.6600   -2.4100 P   0  0  0  0  0  0  0  0  0  0  0  0
    6.1150   -0.8440   -2.0450 O   0  0  0  0  0  0  0  0  0  0  0  0
    4.2130    0.6030   -3.5660 O   0  0  0  0  0  0  0  0  0  0  0  0
    1.5650    0.0190    0.4420 C   0  0  0  0  0  0  0  0  0  0  0  0
    2.2370    0.3210    1.6000 N   0  0  0  0  0  0  0  0  0  0  0  0
    1.3880    0.5610    2.5960 C   0  0  0  0  0  0  0  0  0  0  0  0
    1.6780    0.9020    3.9270 O   0  0  0  0  0  0  0  0  0  0  0  0
    0.1720    0.4110    2.0760 N   0  0  0  0  0  0  0  0  0  0  0  0
    0.2270    0.0790    0.7580 C   0  0  0  0  0  0  0  0  0  0  0  0
   -0.8990   -0.1640   -0.1350 C   0  0  0  0  0  0  0  0  0  0  0  0
   -0.8470   -0.4920   -1.4370 N   0  0  0  0  0  0  0  0  0  0  0  0
   -2.0470   -0.6450   -1.9720 C   0  0  0  0  0  0  0  0  0  0  0  0
   -2.9590   -0.4030   -0.9610 C   0  0  0  0  0  0  0  0  0  0  0  0
   -4.2990   -0.4320   -1.0010 N   0  0  0  0  0  0  0  0  0  0  0  0
   -4.9400   -0.1530    0.1420 C   0  0  0  0  0  0  0  0  0  0  0  0
   -6.2060   -0.1570    0.2010 O   0  0  0  0  0  0  0  0  0  0  0  0
   -4.2670    0.1410    1.2630 N   0  0  0  0  0  0  0  0  0  0  0  0
   -2.9000    0.1610    1.2650 C   0  0  0  0  0  0  0  0  0  0  0  0
   -2.3000    0.4390    2.3280 O   0  0  0  0  0  0  0  0  0  0  0  0
   -2.2290   -0.1110    0.1520 N   0  0  0  0  0  0  0  0  0  0  0  0
  1  2  2  0
  2  3  1  0
  2  7  1  0
  3  4  1  0
  4  5  1  0
  4  6  1  0
  7  8  1  0
  7 12  2  0
  8  9  1  0
  9 10  1  0
  9 11  2  0
 11 12  1  0
 12 13  1  0
 13 14  2  0
 13 23  1  0
 14 15  1  0
 15 16  2  0
 16 17  1  0
 16 23  1  0
 17 18  1  0
 18 19  2  0
 18 20  1  0
 20 21  1  0
 21 22  2  0
 21 23  1  0
M  END
