
     RDKit          3D

 23 25  0  0  0  0  0  0  0  0999 V2000
    1.3200   -2.0060   -1.2300 O   0  0  0  0  0  0  0  0  0  0  0  0
    1.3920   -0.7540   -1.1500 C   0  0  0  0  0  0  0  0  0  0  0  0
    2.5150   -0.0660   -1.7840 C   0  0  0  0  0  0  0  0  0  0  0  0
    3.7220   -0.0870   -0.9950 N   0  0  0  0  0  0  0  0  0  0  0  0
    4.1650    0.7520   -0.0640 C   0  0  0  0  0  0  0  0  0  0  0  0
    3.5360    1.7900    0.3210 O   0  0  0  0  0  0  0  0  0  0  0  0
    5.3610    0.3550    0.4120 N   0  0  0  0  0  0  0  0  0  0  0  0
    5.6770   -0.7470   -0.2240 N   0  0  0  0  0  0  0  0  0  0  0  0
    4.6870   -1.0450   -1.0980 C   0  0  0  0  0  0  0  0  0  0  0  0
    4.6200   -2.0190   -1.8880 O   0  0  0  0  0  0  0  0  0  0  0  0
    0.3650   -0.0720   -0.4410 N   0  0  0  0  0  0  0  0  0  0  0  0
    0.3020    1.2680   -0.2800 C   0  0  0  0  0  0  0  0  0  0  0  0
   -0.8010    1.5110    0.4520 N   0  0  0  0  0  0  0  0  0  0  0  0
   -1.4220    0.3670    0.7490 C   0  0  0  0  0  0  0  0  0  0  0  0
   -2.6810    0.1410    1.5430 C   0  0  2  0  0  0  0  0  0  0  0  0
   -2.2360   -0.0200    2.8670 O   0  0  0  0  0  0  0  0  0  0  0  0
   -3.2480   -1.1600    1.1390 C   0  0  0  0  0  0  0  0  0  0  0  0
   -4.1480   -1.2060   -0.0320 C   0  0  0  0  0  0  0  0  0  0  0  0
   -5.1580   -0.2890   -0.0960 O   0  0  0  0  0  0  0  0  0  0  0  0
   -4.3680    1.2790   -0.0650 P   0  0  0  0  0  0  0  0  0  0  0  0
   -5.4890    2.5740   -0.1320 O   0  0  0  0  0  0  0  0  0  0  0  0
   -3.4520    1.2600    1.3970 O   0  0  0  0  0  0  0  0  0  0  0  0
   -0.6760   -0.5940    0.1820 N   0  0  0  0  0  0  0  0  0  0  0  0
  1  2  2  0
  2  3  1  0
  2 11  1  0
  3  4  1  0
  4  5  1  0
  4  9  1  0
  5  6  2  0
  5  7  1  0
  7  8  1  0
  8  9  1  0
  9 10  2  0
 11 12  1  0
 11 23  1  0
 12 13  2  0
 13 14  1  0
 14 15  1  0
 14 23  2  0
 15 16  1  1
 15 17  1  0
 15 22  1  0
 17 18  1  0
 18 19  1  0
 19 20  1  0
 20 21  1  0
 20 22  1  0
M  END
