
     RDKit          3D

 23 25  0  0  0  0  0  0  0  0999 V2000
   -6.4960   -1.1810   -1.4230 O   0  0  0  0  0  0  0  0  0  0  0  0
   -5.3140   -0.9850   -1.0660 C   0  0  0  0  0  0  0  0  0  0  0  0
   -4.2830   -0.8900   -2.0360 N   0  0  0  0  0  0  0  0  0  0  0  0
   -2.8660   -1.0410   -1.9760 C   0  0  0  0  0  0  0  0  0  0  0  0
   -2.2320   -0.2940   -0.8660 C   0  0  0  0  0  0  0  0  0  0  0  0
   -1.0420    0.2950   -0.9510 O   0  0  0  0  0  0  0  0  0  0  0  0
   -0.7250    0.8760    0.1620 C   0  0  0  0  0  0  0  0  0  0  0  0
    0.2670    1.6250    0.7780 C   0  0  0  0  0  0  0  0  0  0  0  0
    1.4540    2.0190    0.1760 O   0  0  0  0  0  0  0  0  0  0  0  0
    2.5900    1.1920    0.2550 C   0  0  0  0  0  0  0  0  0  0  0  0
    2.5480    0.0940    0.8670 O   0  0  0  0  0  0  0  0  0  0  0  0
    3.8230    1.5540   -0.3450 N   0  0  0  0  0  0  0  0  0  0  0  0
    4.9540    0.6910   -0.2450 C   0  0  0  0  0  0  0  0  0  0  0  0
    4.6530   -0.9800   -0.9900 P   0  0  0  0  0  0  0  0  0  0  0  0
    4.2000   -2.1080    0.2390 O   0  0  0  0  0  0  0  0  0  0  0  0
    6.1750   -1.5270   -1.6530 O   0  0  0  0  0  0  0  0  0  0  0  0
   -0.1680    1.8630    2.0210 N   0  0  0  0  0  0  0  0  0  0  0  0
   -1.3630    1.3140    2.2200 N   0  0  0  0  0  0  0  0  0  0  0  0
   -1.7480    0.6910    1.0930 C   0  0  0  0  0  0  0  0  0  0  0  0
   -2.6920   -0.0570    0.4080 C   0  0  0  0  0  0  0  0  0  0  0  0
   -3.9360   -0.4660    1.0480 C   0  0  0  0  0  0  0  0  0  0  0  0
   -3.9260   -0.4460    2.2870 O   0  0  0  0  0  0  0  0  0  0  0  0
   -5.1230   -0.8730    0.3520 N   0  0  0  0  0  0  0  0  0  0  0  0
  1  2  2  0
  2  3  1  0
  2 23  1  0
  3  4  1  0
  4  5  1  0
  5  6  1  0
  5 20  2  0
  6  7  1  0
  7  8  2  0
  7 19  1  0
  8  9  1  0
  8 17  1  0
  9 10  1  0
 10 11  2  0
 10 12  1  0
 12 13  1  0
 13 14  1  0
 14 15  1  0
 14 16  1  0
 17 18  1  0
 18 19  2  0
 19 20  1  0
 20 21  1  0
 21 22  2  0
 21 23  1  0
M  END
