
     RDKit          3D

 23 24  0  0  0  0  0  0  0  0999 V2000
   -4.0840    1.2210    0.3020 N   0  0  0  0  0  0  0  0  0  0  0  0
   -3.6610    0.0180    0.0650 C   0  0  0  0  0  0  0  0  0  0  0  0
   -4.6640   -0.9530   -0.1820 N   0  0  0  0  0  0  0  0  0  0  0  0
   -4.2210   -2.6830   -0.1640 P   0  0  0  0  0  0  0  0  0  0  0  0
   -4.6330   -3.4420    1.3340 O   0  0  0  0  0  0  0  0  0  0  0  0
   -2.4890   -2.7020   -0.4600 O   0  0  0  0  0  0  0  0  0  0  0  0
   -1.7070   -1.5530   -0.1850 C   0  0  0  0  0  0  0  0  0  0  0  0
   -0.4540   -1.7780   -0.1800 N   0  0  0  0  0  0  0  0  0  0  0  0
    0.5940   -0.9700    0.0350 O   0  0  0  0  0  0  0  0  0  0  0  0
    1.8330   -1.5910    0.4080 C   0  0  1  0  0  0  0  0  0  0  0  0
    2.6390   -1.8830   -0.8250 C   0  0  0  0  0  0  0  0  0  0  0  0
    2.2070   -1.5900   -1.9830 O   0  0  0  0  0  0  0  0  0  0  0  0
    3.8700   -2.4840   -0.6630 O   0  0  0  0  0  0  0  0  0  0  0  0
    2.6170   -0.6130    1.2260 C   0  0  0  0  0  0  0  0  0  0  0  0
    2.9100    0.5900    0.3520 C   0  0  0  0  0  0  0  0  0  0  0  0
    2.8760    1.7450    1.1290 O   0  0  0  0  0  0  0  0  0  0  0  0
    2.4680    2.7910    0.3180 C   0  0  0  0  0  0  0  0  0  0  0  0
    0.9390    2.8330    0.3940 C   0  0  0  0  0  0  0  0  0  0  0  0
    0.4040    2.2550   -0.8040 N   0  0  0  0  0  0  0  0  0  0  0  0
   -0.6510    1.3070   -0.8560 C   0  0  0  0  0  0  0  0  0  0  0  0
   -0.9950    0.8120   -1.9740 O   0  0  0  0  0  0  0  0  0  0  0  0
   -1.3880    0.8520    0.3380 C   0  0  0  0  0  0  0  0  0  0  0  0
   -2.2680   -0.2740    0.0620 N   0  0  0  0  0  0  0  0  0  0  0  0
  1  2  2  0
  2  3  1  0
  2 23  1  0
  3  4  1  0
  4  5  1  0
  4  6  1  0
  6  7  1  0
  7  8  2  0
  7 23  1  0
  8  9  1  0
  9 10  1  0
 10 11  1  6
 10 14  1  0
 11 12  2  0
 11 13  1  0
 14 15  1  0
 15 16  1  0
 16 17  1  0
 17 18  1  0
 18 19  1  0
 19 20  1  0
 20 21  2  0
 20 22  1  0
 22 23  1  0
M  END
