
     RDKit          3D

 23 23  0  0  0  0  0  0  0  0999 V2000
   -5.1910   -0.6880    1.4740 O   0  0  0  0  0  0  0  0  0  0  0  0
   -5.1160   -1.3850    0.4220 C   0  0  0  0  0  0  0  0  0  0  0  0
   -5.7440   -2.6240    0.4540 O   0  0  0  0  0  0  0  0  0  0  0  0
   -4.4160   -0.8980   -0.7200 N   0  0  0  0  0  0  0  0  0  0  0  0
   -3.7720    0.3790   -0.7440 C   0  0  1  0  0  0  0  0  0  0  0  0
   -2.2980    0.3130   -0.9760 C   0  0  0  0  0  0  0  0  0  0  0  0
   -1.6110   -0.4780    0.0970 C   0  0  0  0  0  0  0  0  0  0  0  0
   -0.1370   -0.5220   -0.1700 C   0  0  0  0  0  0  0  0  0  0  0  0
    0.3600    0.0540   -1.1780 O   0  0  0  0  0  0  0  0  0  0  0  0
    0.7390   -1.1880    0.6660 O   0  0  0  0  0  0  0  0  0  0  0  0
    2.0810   -1.2460    0.4510 O   0  0  0  0  0  0  0  0  0  0  0  0
    2.9600   -0.4120    1.1230 C   0  0  0  0  0  0  0  0  0  0  0  0
    2.4550    0.4010    1.9410 O   0  0  0  0  0  0  0  0  0  0  0  0
    4.4210   -0.4530    0.9090 C   0  0  1  0  0  0  0  0  0  0  0  0
    4.7400   -0.1150   -0.5320 C   0  0  0  0  0  0  0  0  0  0  0  0
    6.0610   -0.2670   -0.8450 O   0  0  0  0  0  0  0  0  0  0  0  0
    6.9510    0.0060    0.1600 C   0  0  0  0  0  0  0  0  0  0  0  0
    6.4070    0.9000    1.2170 C   0  0  0  0  0  0  0  0  0  0  0  0
    7.0070    1.9170    1.6450 O   0  0  0  0  0  0  0  0  0  0  0  0
    5.1200    0.5180    1.7300 N   0  0  0  0  0  0  0  0  0  0  0  0
   -4.3780    1.3180   -1.7660 C   0  0  0  0  0  0  0  0  0  0  0  0
   -5.7290    1.5300   -1.4750 O   0  0  0  0  0  0  0  0  0  0  0  0
   -6.2330    2.3470   -2.3740 O   0  0  0  0  0  0  0  0  0  0  0  0
  1  2  2  0
  2  3  1  0
  2  4  1  0
  4  5  1  0
  5  6  1  6
  5 21  1  0
  6  7  1  0
  7  8  1  0
  8  9  2  0
  8 10  1  0
 10 11  1  0
 11 12  1  0
 12 13  2  0
 14 12  1  6
 14 15  1  0
 14 20  1  0
 15 16  1  0
 16 17  1  0
 17 18  1  0
 18 19  2  0
 18 20  1  0
 21 22  1  0
 22 23  1  0
M  END
