
     RDKit          3D

 10  9  0  0  0  0  0  0  0  0999 V2000
    4.4090    0.7440   -0.2630 C   0  0  0  0  0  0  0  0  0  0  0  0
    2.7310    0.7710   -0.9230 S   0  0  0  0  0  0  0  0  0  0  0  0
    1.5000    0.2710    0.3000 C   0  0  0  0  0  0  0  0  0  0  0  0
    0.1460    0.3320   -0.3650 C   0  0  0  0  0  0  0  0  0  0  0  0
   -0.9620   -0.0820    0.6200 C   0  0  2  0  0  0  0  0  0  0  0  0
   -0.6260   -1.4390    1.0040 N   0  0  0  0  0  0  0  0  0  0  0  0
   -2.5330    0.2600   -0.0050 P   0  0  0  0  0  0  0  0  0  0  0  0
   -3.7320    0.9350    0.9500 O   0  0  0  0  0  0  0  0  0  0  0  0
   -3.1960   -1.0980    0.1890 O   0  0  0  0  0  0  0  0  0  0  0  0
   -2.8300    0.2080   -1.6600 O   0  0  0  0  0  0  0  0  0  0  0  0
  1  2  1  0
  2  3  1  0
  3  4  1  0
  4  5  1  0
  5  6  1  6
  5  7  1  0
  7  8  1  0
  7  9  1  0
  7 10  1  0
M  CHG  1   6   1
M  END
