
     RDKit          3D

 24 25  0  0  0  0  0  0  0  0999 V2000
   -3.3080   -0.9440   -2.8020 O   0  0  0  0  0  0  0  0  0  0  0  0
   -2.8530   -0.2910   -1.8310 C   0  0  0  0  0  0  0  0  0  0  0  0
   -3.4430   -0.5670   -0.6140 N   0  0  0  0  0  0  0  0  0  0  0  0
   -3.3570    0.2770    0.5690 C   0  0  0  0  0  0  0  0  0  0  0  0
   -3.2300   -0.5090    1.8600 C   0  0  0  0  0  0  0  0  0  0  0  0
   -2.1220   -0.2250    2.6330 O   0  0  0  0  0  0  0  0  0  0  0  0
   -0.7910   -0.5170    2.4830 C   0  0  0  0  0  0  0  0  0  0  0  0
   -0.1170   -0.9880    3.4040 O   0  0  0  0  0  0  0  0  0  0  0  0
   -0.2550   -0.2870    1.1360 C   0  0  0  0  0  0  0  0  0  0  0  0
    1.0150   -0.8280    0.8870 O   0  0  0  0  0  0  0  0  0  0  0  0
    1.3590   -0.3220   -0.3890 C   0  0  1  0  0  0  0  0  0  0  0  0
    2.0130    1.0430   -0.1050 C   0  0  0  0  0  0  0  0  0  0  0  0
    3.1870    0.5970    0.5030 O   0  0  0  0  0  0  0  0  0  0  0  0
    3.3440    1.0070    1.7400 O   0  0  0  0  0  0  0  0  0  0  0  0
    4.0160   -0.0870    2.2930 O   0  0  0  0  0  0  0  0  0  0  0  0
    5.2630    0.3590    2.4010 O   0  0  0  0  0  0  0  0  0  0  0  0
    2.4960   -1.2390   -0.8590 C   0  0  0  0  0  0  0  0  0  0  0  0
    2.4650   -1.0350   -2.2730 O   0  0  0  0  0  0  0  0  0  0  0  0
    1.4140   -0.2450   -2.6340 C   0  0  0  0  0  0  0  0  0  0  0  0
    1.3180    0.4470   -3.5830 O   0  0  0  0  0  0  0  0  0  0  0  0
    0.4340   -0.4070   -1.4750 C   0  0  2  0  0  0  0  0  0  0  0  0
   -0.5180    0.7410   -1.6620 C   0  0  0  0  0  0  0  0  0  0  0  0
   -0.0830    1.9230   -1.3560 O   0  0  0  0  0  0  0  0  0  0  0  0
   -1.8470    0.6190   -2.1230 N   0  0  0  0  0  0  0  0  0  0  0  0
  1  2  2  0
  2  3  1  0
  2 24  1  0
  3  4  1  0
  4  5  1  0
  5  6  1  0
  6  7  1  0
  7  8  2  0
  7  9  1  0
  9 10  1  0
 10 11  1  0
 11 12  1  1
 11 17  1  0
 11 21  1  0
 12 13  1  0
 13 14  1  0
 14 15  1  0
 15 16  1  0
 17 18  1  0
 18 19  1  0
 19 20  2  0
 21 19  1  6
 21 22  1  0
 22 23  2  0
 22 24  1  0
M  END
