
     RDKit          3D

 21 21  0  0  0  0  0  0  0  0999 V2000
   -4.5090    0.0460    1.7560 C   0  0  0  0  0  0  0  0  0  0  0  0
   -3.6550    0.4700    0.5600 C   0  0  2  0  0  0  0  0  0  0  0  0
   -3.6530    1.9850    0.5430 C   0  0  0  0  0  0  0  0  0  0  0  0
   -4.2630   -0.0300   -0.7130 C   0  0  0  0  0  0  0  0  0  0  0  0
   -4.3570   -1.5480   -0.7020 C   0  0  0  0  0  0  0  0  0  0  0  0
   -5.1770   -2.0150    0.3960 N   0  0  0  0  0  0  0  0  0  0  0  0
   -2.3560    0.0390    0.7990 O   0  0  0  0  0  0  0  0  0  0  0  0
   -1.3070    0.2580   -0.0890 C   0  0  0  0  0  0  0  0  0  0  0  0
   -1.6010    0.8690   -1.1210 O   0  0  0  0  0  0  0  0  0  0  0  0
    0.0070   -0.1700    0.1370 N   0  0  0  0  0  0  0  0  0  0  0  0
    1.0660    0.0520   -0.7610 C   0  0  1  0  0  0  0  0  0  0  0  0
    2.4200   -0.5100   -0.3090 C   0  0  0  0  0  0  0  0  0  0  0  0
    2.6940    0.1280    0.8870 O   0  0  0  0  0  0  0  0  0  0  0  0
    3.8580   -0.2340    1.4990 C   0  0  0  0  0  0  0  0  0  0  0  0
    5.0670    0.0340    0.6590 C   0  0  0  0  0  0  0  0  0  0  0  0
    6.6370   -0.4620    1.5530 P   0  0  0  0  0  0  0  0  0  0  0  0
    7.9070    0.6820    1.2590 O   0  0  0  0  0  0  0  0  0  0  0  0
    7.1540   -1.9980    0.9350 O   0  0  0  0  0  0  0  0  0  0  0  0
    0.8870   -0.0730   -2.2260 C   0  0  0  0  0  0  0  0  0  0  0  0
    1.7200    1.1310   -2.3900 N   0  0  0  0  0  0  0  0  0  0  0  0
    1.2700    1.5210   -1.0620 C   0  0  0  0  0  0  0  0  0  0  0  0
  2  1  1  1
  2  3  1  0
  2  4  1  0
  2  7  1  0
  4  5  1  0
  5  6  1  0
  7  8  1  0
  8  9  2  0
  8 10  1  0
 10 11  1  0
 11 12  1  1
 11 19  1  0
 11 21  1  0
 12 13  1  0
 13 14  1  0
 14 15  1  0
 15 16  1  0
 16 17  1  0
 16 18  1  0
 19 20  1  0
 20 21  1  0
M  END
