
     RDKit          3D

 30 31  0  0  0  0  0  0  0  0999 V2000
   -4.2860   -2.7560   -1.4590 C   0  0  0  0  0  0  0  0  0  0  0  0
   -4.2450   -1.3840   -0.8060 C   0  0  1  0  0  0  0  0  0  0  0  0
   -5.6130   -1.0540   -0.2780 C   0  0  0  0  0  0  0  0  0  0  0  0
   -3.1710   -1.3210    0.2500 C   0  0  0  0  0  0  0  0  0  0  0  0
   -3.1450    0.0190    0.8600 C   0  0  0  0  0  0  0  0  0  0  0  0
   -2.2140    0.9030    0.6230 C   0  0  0  0  0  0  0  0  0  0  0  0
   -1.1030    0.7500   -0.2420 C   0  0  0  0  0  0  0  0  0  0  0  0
   -0.3120    1.8000   -0.2590 O   0  0  0  0  0  0  0  0  0  0  0  0
   -0.6270   -0.3030   -1.1260 C   0  0  0  0  0  0  0  0  0  0  0  0
    0.5680   -1.0130   -0.4980 C   0  0  2  0  0  0  0  0  0  0  0  0
    0.2900   -1.5940    0.7250 O   0  0  0  0  0  0  0  0  0  0  0  0
    1.7480   -0.1300   -0.4520 C   0  0  0  0  0  0  0  0  0  0  0  0
    2.1420    0.4860   -1.4710 O   0  0  0  0  0  0  0  0  0  0  0  0
    2.5120    0.0740    0.7610 N   0  0  0  0  0  0  0  0  0  0  0  0
    3.6600    0.9530    0.7470 C   0  0  0  0  0  0  0  0  0  0  0  0
    4.7130    0.6080   -0.2120 C   0  0  0  0  0  0  0  0  0  0  0  0
    4.9530    1.4890   -1.2090 C   0  0  0  0  0  0  0  0  0  0  0  0
    5.9670    1.2320   -2.1940 C   0  0  0  0  0  0  0  0  0  0  0  0
    6.2590    2.0980   -3.2430 O   0  0  0  0  0  0  0  0  0  0  0  0
    6.6630    0.1150   -2.1060 C   0  0  0  0  0  0  0  0  0  0  0  0
    6.4640   -0.8140   -1.1120 O   0  0  0  0  0  0  0  0  0  0  0  0
    5.4850   -0.6020   -0.1310 C   0  0  0  0  0  0  0  0  0  0  0  0
    5.3290   -1.5130    0.8150 C   0  0  0  0  0  0  0  0  0  0  0  0
    4.4370   -1.4510    1.8400 O   0  0  0  0  0  0  0  0  0  0  0  0
    6.1480   -2.6520    0.7730 O   0  0  0  0  0  0  0  0  0  0  0  0
   -2.3690    2.2260    1.4070 C   0  0  2  0  0  0  0  0  0  0  0  0
   -2.2440    1.9570    2.7680 O   0  0  0  0  0  0  0  0  0  0  0  0
   -3.7750    2.7110    1.1650 C   0  0  0  0  0  0  0  0  0  0  0  0
   -4.7590    1.6640    1.6700 C   0  0  0  0  0  0  0  0  0  0  0  0
   -4.1690    0.4070    1.7630 O   0  0  0  0  0  0  0  0  0  0  0  0
  2  1  1  1
  2  3  1  0
  2  4  1  0
  4  5  1  0
  5  6  2  0
  5 30  1  0
  6  7  1  0
  6 26  1  0
  7  8  2  0
  7  9  1  0
  9 10  1  0
 10 11  1  1
 10 12  1  0
 12 13  2  0
 12 14  1  0
 14 15  1  0
 15 16  1  0
 16 17  2  0
 16 22  1  0
 17 18  1  0
 18 19  1  0
 18 20  2  0
 20 21  1  0
 21 22  1  0
 22 23  2  3
 23 24  1  0
 23 25  1  0
 26 27  1  1
 26 28  1  0
 28 29  1  0
 29 30  1  0
M  END
