
     RDKit          3D

 31 32  0  0  0  0  0  0  0  0999 V2000
    1.5620    0.2040    3.4630 N   0  0  0  0  0  0  0  0  0  0  0  0
    1.5820   -1.1260    2.8750 C   0  0  0  0  0  0  0  0  0  0  0  0
    1.7730   -2.1310    3.4810 O   0  0  0  0  0  0  0  0  0  0  0  0
    1.3950   -1.1020    1.4240 C   0  0  2  0  0  0  0  0  0  0  0  0
    2.3730   -0.1310    0.8090 N   0  0  0  0  0  0  0  0  0  0  0  0
    3.3590   -0.4230    0.1210 C   0  0  0  0  0  0  0  0  0  0  0  0
    4.1380    0.5850   -0.3980 N   0  0  0  0  0  0  0  0  0  0  0  0
    5.1700    0.0160   -0.9940 C   0  0  0  0  0  0  0  0  0  0  0  0
    6.2730    0.5420   -1.6650 C   0  0  0  0  0  0  0  0  0  0  0  0
    7.2500   -0.2510   -2.2190 C   0  0  0  0  0  0  0  0  0  0  0  0
    7.0630   -1.6470   -2.0910 C   0  0  0  0  0  0  0  0  0  0  0  0
    8.0100   -2.4960   -2.5540 F   0  0  0  0  0  0  0  0  0  0  0  0
    6.0120   -2.2310   -1.4510 C   0  0  0  0  0  0  0  0  0  0  0  0
    5.1090   -1.3780   -0.9030 C   0  0  0  0  0  0  0  0  0  0  0  0
    3.9410   -1.5730   -0.1790 N   0  0  0  0  0  0  0  0  0  0  0  0
    0.2670   -0.1000    1.1920 O   0  0  0  0  0  0  0  0  0  0  0  0
   -0.5040   -0.2380    0.0300 C   0  0  0  0  0  0  0  0  0  0  0  0
   -0.3480   -1.1050   -0.8040 O   0  0  0  0  0  0  0  0  0  0  0  0
   -1.5650    0.7940   -0.1000 N   0  0  0  0  0  0  0  0  0  0  0  0
   -1.3680    1.8550    0.6830 C   0  0  0  0  0  0  0  0  0  0  0  0
   -2.3270    2.9390    1.1490 C   0  0  0  0  0  0  0  0  0  0  0  0
   -1.3890    3.6320    1.9070 O   0  0  0  0  0  0  0  0  0  0  0  0
   -1.4900    4.0190    3.1120 N   0  0  0  0  0  0  0  0  0  0  0  0
   -2.5400    0.5040   -1.1390 C   0  0  0  0  0  0  0  0  0  0  0  0
   -3.3090   -0.7800   -0.9890 C   0  0  1  0  0  0  0  0  0  0  0  0
   -2.3930   -1.8880   -0.8470 O   0  0  0  0  0  0  0  0  0  0  0  0
   -4.3070   -0.9560    0.0350 C   0  0  0  0  0  0  0  0  0  0  0  0
   -5.4310   -0.0950   -0.1620 N   0  0  0  0  0  0  0  0  0  0  0  0
   -3.9080   -1.0110   -2.4220 C   0  0  0  0  0  0  0  0  0  0  0  0
   -4.3370   -2.2870   -2.7060 N   0  0  0  0  0  0  0  0  0  0  0  0
   -3.9560   -0.0820   -3.1650 O   0  0  0  0  0  0  0  0  0  0  0  0
  1  2  1  0
  2  3  2  0
  2  4  1  0
  4  5  1  0
  4 16  1  1
  5  6  2  3
  6  7  1  0
  6 15  1  0
  7  8  1  0
  8  9  2  0
  8 14  1  0
  9 10  1  0
 10 11  2  0
 11 12  1  0
 11 13  1  0
 13 14  2  0
 14 15  1  0
 16 17  1  0
 17 18  2  0
 17 19  1  0
 19 20  1  0
 19 24  1  0
 20 21  1  0
 21 22  1  0
 22 23  1  0
 24 25  1  0
 25 26  1  1
 25 27  1  0
 25 29  1  0
 27 28  1  0
 29 30  1  0
 29 31  2  0
M  CHG  3  23   1  28   1  30   1
M  END
