
     RDKit          3D

 31 33  0  0  0  0  0  0  0  0999 V2000
   -8.6720    2.1470    1.2390 C   0  0  0  0  0  0  0  0  0  0  0  0
   -8.6770    1.3840   -0.3840 S   0  0  0  0  0  0  0  0  0  0  0  0
   -7.0620    0.5940   -0.7550 C   0  0  0  0  0  0  0  0  0  0  0  0
   -6.8330   -0.5570    0.1880 C   0  0  0  0  0  0  0  0  0  0  0  0
   -5.5420   -1.2520   -0.1240 C   0  0  2  0  0  0  0  0  0  0  0  0
   -5.3630   -2.3780    0.8150 N   0  0  0  0  0  0  0  0  0  0  0  0
   -4.3800   -0.3620    0.0160 C   0  0  0  0  0  0  0  0  0  0  0  0
   -4.1970    0.6430   -0.7000 O   0  0  0  0  0  0  0  0  0  0  0  0
   -3.3960   -0.6310    1.0060 N   0  0  0  0  0  0  0  0  0  0  0  0
   -2.0300    0.4010    1.1740 S   0  0  2  0  0  0  0  0  0  0  0  0
   -1.8250    0.8620    2.5800 O   0  0  0  0  0  0  0  0  0  0  0  0
   -2.2300    1.5990    0.2750 O   0  0  0  0  0  0  0  0  0  0  0  0
   -0.6860   -0.4630    0.6410 O   0  0  0  0  0  0  0  0  0  0  0  0
    0.2910    0.3610    0.0960 C   0  0  0  0  0  0  0  0  0  0  0  0
    1.4300   -0.4980   -0.3660 C   0  0  1  0  0  0  0  0  0  0  0  0
    2.4730    0.2460   -0.9500 O   0  0  0  0  0  0  0  0  0  0  0  0
    3.3740   -0.8000   -1.2240 C   0  0  1  0  0  0  0  0  0  0  0  0
    4.6300   -0.3220   -1.6900 N   0  0  0  0  0  0  0  0  0  0  0  0
    5.7050   -1.1510   -2.2320 C   0  0  0  0  0  0  0  0  0  0  0  0
    6.8580   -0.5720   -1.9360 N   0  0  0  0  0  0  0  0  0  0  0  0
    6.5760    0.6160   -1.2090 C   0  0  0  0  0  0  0  0  0  0  0  0
    7.1530    1.3410   -0.2830 C   0  0  0  0  0  0  0  0  0  0  0  0
    8.4160    1.0210    0.2750 N   0  0  0  0  0  0  0  0  0  0  0  0
    6.4790    2.4880    0.2730 N   0  0  0  0  0  0  0  0  0  0  0  0
    5.1950    2.7920   -0.2240 C   0  0  0  0  0  0  0  0  0  0  0  0
    4.6450    2.0900   -1.1500 N   0  0  0  0  0  0  0  0  0  0  0  0
    5.2170    0.9900   -1.7750 C   0  0  2  0  0  0  0  0  0  0  0  0
    3.4080   -1.6900   -0.0250 C   0  0  2  0  0  0  0  0  0  0  0  0
    3.1540   -3.0230   -0.3110 O   0  0  0  0  0  0  0  0  0  0  0  0
    2.1870   -1.1740    0.7500 C   0  0  2  0  0  0  0  0  0  0  0  0
    1.4630   -2.1840    1.3410 O   0  0  0  0  0  0  0  0  0  0  0  0
  1  2  1  0
  2  3  1  0
  3  4  1  0
  4  5  1  0
  5  6  1  1
  5  7  1  0
  7  8  2  0
  7  9  1  0
 10  9  1  1
 10 11  2  0
 10 12  2  0
 10 13  1  0
 13 14  1  0
 15 14  1  1
 15 16  1  0
 15 30  1  0
 16 17  1  0
 17 18  1  1
 17 28  1  0
 18 19  1  0
 27 18  1  1
 19 20  2  0
 20 21  1  0
 21 22  2  0
 21 27  1  0
 22 23  1  0
 22 24  1  0
 24 25  1  0
 25 26  2  0
 26 27  1  0
 28 29  1  6
 28 30  1  0
 30 31  1  6
M  END
