
     RDKit          3D

 30 30  0  0  0  0  0  0  0  0999 V2000
    8.8500    0.7150   -2.4550 C   0  0  0  0  0  0  0  0  0  0  0  0
    8.5650    0.8240   -1.0230 N   0  0  0  0  0  0  0  0  0  0  0  0
    7.5420    1.6250   -0.4990 C   0  0  0  0  0  0  0  0  0  0  0  0
    6.8450    2.2820   -1.3420 O   0  0  0  0  0  0  0  0  0  0  0  0
    7.2400    1.7480    0.9210 C   0  0  1  0  0  0  0  0  0  0  0  0
    6.2300    2.7300    1.1090 O   0  0  0  0  0  0  0  0  0  0  0  0
    6.6500    0.4980    1.5580 C   0  0  2  0  0  0  0  0  0  0  0  0
    7.4900   -0.6430    1.4850 N   0  0  0  0  0  0  0  0  0  0  0  0
    5.2330    0.2900    1.2270 C   0  0  0  0  0  0  0  0  0  0  0  0
    4.4840    1.3150    1.3390 O   0  0  0  0  0  0  0  0  0  0  0  0
    4.6310   -0.8940    0.8110 N   0  0  0  0  0  0  0  0  0  0  0  0
    3.2390   -0.9290    0.5400 N   0  0  0  0  0  0  0  0  0  0  0  0
    2.6250   -0.2020   -0.5030 C   0  0  0  0  0  0  0  0  0  0  0  0
    3.4480    0.5040   -1.2010 O   0  0  0  0  0  0  0  0  0  0  0  0
    1.1890   -0.1840   -0.8400 C   0  0  0  0  0  0  0  0  0  0  0  0
    0.4180   -1.0140    0.0400 N   0  0  0  0  0  0  0  0  0  0  0  0
   -1.0170   -1.1400   -0.1080 C   0  0  0  0  0  0  0  0  0  0  0  0
   -1.5730   -0.5100   -1.0220 O   0  0  0  0  0  0  0  0  0  0  0  0
   -1.7700   -1.9550    0.7620 N   0  0  0  0  0  0  0  0  0  0  0  0
   -3.1270   -2.1700    0.7480 N   0  0  0  0  0  0  0  0  0  0  0  0
   -4.1360   -1.1910    0.5320 C   0  0  0  0  0  0  0  0  0  0  0  0
   -3.7770   -0.0170    0.3220 O   0  0  0  0  0  0  0  0  0  0  0  0
   -5.5750   -1.5940    0.5670 C   0  0  0  0  0  0  0  0  0  0  0  0
   -6.4440   -0.4370    0.2700 C   0  0  0  0  0  0  0  0  0  0  0  0
   -7.3480    0.0260    1.1530 C   0  0  0  0  0  0  0  0  0  0  0  0
   -8.0720    1.1850    0.5890 C   0  0  2  0  0  0  0  0  0  0  0  0
   -9.5000    1.0530    0.9020 N   0  0  0  0  0  0  0  0  0  0  0  0
   -7.7990    1.1040   -0.8750 C   0  0  0  0  0  0  0  0  0  0  0  0
   -6.4880    0.3570   -0.9860 C   0  0  2  0  0  0  0  0  0  0  0  0
   -6.5440   -0.5860   -2.1980 C   0  0  0  0  0  0  0  0  0  0  0  0
  1  2  1  0
  2  3  1  0
  3  4  2  0
  3  5  1  0
  5  6  1  6
  5  7  1  0
  7  8  1  6
  7  9  1  0
  9 10  2  0
  9 11  1  0
 11 12  1  0
 12 13  1  0
 13 14  2  0
 13 15  1  0
 15 16  1  0
 16 17  1  0
 17 18  2  0
 17 19  1  0
 19 20  1  0
 20 21  1  0
 21 22  2  0
 21 23  1  0
 23 24  1  0
 24 25  2  0
 24 29  1  0
 25 26  1  0
 26 27  1  6
 26 28  1  0
 28 29  1  0
 29 30  1  6
M  CHG  2   8   1  27   1
M  END
