
     RDKit          3D

 31 33  0  0  0  0  0  0  0  0999 V2000
   -1.2560   -0.6470    2.4490 O   0  0  0  0  0  0  0  0  0  0  0  0
   -0.7890   -0.4010    1.2900 C   0  0  0  0  0  0  0  0  0  0  0  0
   -1.6550    0.1070    0.2840 N   0  0  0  0  0  0  0  0  0  0  0  0
   -3.0590    0.3640    0.5060 C   0  0  0  0  0  0  0  0  0  0  0  0
   -3.8230   -0.8490    0.9040 C   0  0  0  0  0  0  0  0  0  0  0  0
   -5.1720   -0.5450    1.1020 O   0  0  0  0  0  0  0  0  0  0  0  0
   -5.9620   -0.0380    0.0890 C   0  0  0  0  0  0  0  0  0  0  0  0
   -6.2850    1.2530   -0.2580 C   0  0  0  0  0  0  0  0  0  0  0  0
   -5.8450    2.5000    0.4060 C   0  0  0  0  0  0  0  0  0  0  0  0
   -6.4240    3.6050   -0.2580 O   0  0  0  0  0  0  0  0  0  0  0  0
   -7.0860    1.2300   -1.3210 O   0  0  0  0  0  0  0  0  0  0  0  0
   -7.3240    0.0210   -1.7100 C   0  0  0  0  0  0  0  0  0  0  0  0
   -8.1250   -0.3850   -2.7960 O   0  0  0  0  0  0  0  0  0  0  0  0
   -6.6460   -0.8160   -0.8630 C   0  0  0  0  0  0  0  0  0  0  0  0
   -6.6350   -2.1950   -0.9340 O   0  0  0  0  0  0  0  0  0  0  0  0
    0.6310   -0.6280    0.9610 C   0  0  2  0  0  0  0  0  0  0  0  0
    1.3410    0.6390    0.5240 C   0  0  0  0  0  0  0  0  0  0  0  0
    2.5330    0.3130   -0.3780 C   0  0  0  0  0  0  0  0  0  0  0  0
    3.1430   -0.9540    0.1100 C   0  0  2  0  0  0  0  0  0  0  0  0
    4.4600   -1.3170   -0.4710 C   0  0  2  0  0  0  0  0  0  0  0  0
    4.8650   -2.5290    0.1040 O   0  0  0  0  0  0  0  0  0  0  0  0
    5.5110   -0.2850   -0.3520 C   0  0  0  0  0  0  0  0  0  0  0  0
    6.8380   -0.5430   -0.6290 C   0  0  0  0  0  0  0  0  0  0  0  0
    7.5350    0.6140   -0.4200 C   0  0  0  0  0  0  0  0  0  0  0  0
    6.6190    1.5610   -0.0170 C   0  0  0  0  0  0  0  0  0  0  0  0
    6.9130    3.0010    0.3320 C   0  0  0  0  0  0  0  0  0  0  0  0
    7.2760    3.1480    2.0450 Cl  0  0  0  0  0  0  0  0  0  0  0  0
    5.4560    0.9700    0.0010 O   0  0  0  0  0  0  0  0  0  0  0  0
    2.1790   -2.0950   -0.2180 C   0  0  1  0  0  0  0  0  0  0  0  0
    2.2800   -3.1030    0.7470 O   0  0  0  0  0  0  0  0  0  0  0  0
    0.7630   -1.6070   -0.2090 C   0  0  0  0  0  0  0  0  0  0  0  0
  1  2  2  0
  2  3  1  0
 16  2  1  6
  3  4  1  0
  4  5  1  0
  5  6  1  0
  6  7  1  0
  7  8  2  0
  7 14  1  0
  8  9  1  0
  8 11  1  0
  9 10  1  0
 11 12  1  0
 12 13  1  0
 12 14  2  0
 14 15  1  0
 16 17  1  0
 16 31  1  0
 17 18  1  0
 19 18  1  6
 19 20  1  0
 19 29  1  0
 20 21  1  1
 20 22  1  0
 22 23  2  0
 22 28  1  0
 23 24  1  0
 24 25  2  0
 25 26  1  0
 25 28  1  0
 26 27  1  0
 29 30  1  1
 29 31  1  0
M  END
