
     RDKit          3D

 25 26  0  0  0  0  0  0  0  0999 V2000
   -4.4810   -1.4350   -1.7170 C   0  0  0  0  0  0  0  0  0  0  0  0
   -3.0080   -1.2160   -1.6080 C   0  0  0  0  0  0  0  0  0  0  0  0
   -2.6830   -0.1490   -0.6530 N   0  0  0  0  0  0  0  0  0  0  0  0
   -1.3410   -0.0590   -0.6430 O   0  0  0  0  0  0  0  0  0  0  0  0
   -0.8480    1.1650   -0.2520 C   0  0  1  0  0  0  0  0  0  0  0  0
    0.6620    1.0890   -0.2900 C   0  0  0  0  0  0  0  0  0  0  0  0
    1.1180    0.0450    0.5850 N   0  0  0  0  0  0  0  0  0  0  0  0
    0.8980    0.3210    1.9810 C   0  0  0  0  0  0  0  0  0  0  0  0
    2.4910   -0.3450    0.3240 C   0  0  1  0  0  0  0  0  0  0  0  0
    3.4320    0.8000    0.5830 C   0  0  0  0  0  0  0  0  0  0  0  0
    4.7520    0.5170    0.3740 O   0  0  0  0  0  0  0  0  0  0  0  0
    2.7600   -1.4630    1.1460 O   0  0  0  0  0  0  0  0  0  0  0  0
    2.2490   -2.5480    0.4320 C   0  0  0  0  0  0  0  0  0  0  0  0
    2.0530   -3.7350    0.8010 O   0  0  0  0  0  0  0  0  0  0  0  0
    1.9600   -2.1060   -0.8570 O   0  0  0  0  0  0  0  0  0  0  0  0
    2.5970   -0.8940   -0.9890 N   0  0  0  0  0  0  0  0  0  0  0  0
    3.9720   -1.1940   -1.3240 C   0  0  0  0  0  0  0  0  0  0  0  0
   -1.3240    2.0870   -1.2000 O   0  0  0  0  0  0  0  0  0  0  0  0
   -0.6630    3.2280   -0.9760 O   0  0  0  0  0  0  0  0  0  0  0  0
   -0.9100    3.3200    0.7680 P   0  0  0  0  0  0  0  0  0  0  0  0
   -2.2510    4.3040    1.1670 O   0  0  0  0  0  0  0  0  0  0  0  0
   -1.3240    1.6170    0.9770 O   0  0  0  0  0  0  0  0  0  0  0  0
   -3.0550   -0.6320    0.6060 N   0  0  0  0  0  0  0  0  0  0  0  0
   -3.7300   -1.7870    0.5340 O   0  0  0  0  0  0  0  0  0  0  0  0
   -3.6010    0.2770    1.4070 O   0  0  0  0  0  0  0  0  0  0  0  0
  1  2  1  0
  2  3  1  0
  3  4  1  0
  3 23  1  0
  4  5  1  0
  5  6  1  1
  5 18  1  0
  5 22  1  0
  6  7  1  0
  7  8  1  0
  7  9  1  0
  9 10  1  6
  9 12  1  0
  9 16  1  0
 10 11  1  0
 12 13  1  0
 13 14  2  0
 13 15  1  0
 15 16  1  0
 16 17  1  0
 18 19  1  0
 19 20  1  0
 20 21  1  0
 20 22  1  0
 23 24  1  0
 23 25  1  0
M  END
