
     RDKit          3D

 25 25  0  0  0  0  0  0  0  0999 V2000
    5.7150   -1.1090   -1.8760 C   0  0  0  0  0  0  0  0  0  0  0  0
    4.6620   -0.3700   -0.5150 P   0  0  0  0  0  0  0  0  0  0  0  0
    5.7330    0.2690    0.6760 O   0  0  0  0  0  0  0  0  0  0  0  0
    3.6930   -1.6270    0.2080 O   0  0  0  0  0  0  0  0  0  0  0  0
    2.4080   -1.2640    0.2220 O   0  0  0  0  0  0  0  0  0  0  0  0
    2.3780    0.4540    0.2430 P   0  0  0  0  0  0  0  0  0  0  0  0
    1.6260    1.1890   -1.0620 O   0  0  0  0  0  0  0  0  0  0  0  0
    0.7070    0.5710   -1.6990 O   0  0  0  0  0  0  0  0  0  0  0  0
    0.4030   -0.6520   -1.2860 O   0  0  0  0  0  0  0  0  0  0  0  0
   -0.8860   -1.1670   -1.2570 C   0  0  0  0  0  0  0  0  0  0  0  0
   -1.0460   -2.4730   -1.2450 C   0  0  0  0  0  0  0  0  0  0  0  0
   -2.3080   -3.0500   -1.2160 O   0  0  0  0  0  0  0  0  0  0  0  0
   -1.9320   -0.2640   -1.2430 O   0  0  0  0  0  0  0  0  0  0  0  0
   -2.0300    0.8610   -0.4790 N   0  0  0  0  0  0  0  0  0  0  0  0
   -2.6550    2.0220   -0.9400 N   0  0  0  0  0  0  0  0  0  0  0  0
   -3.9340    2.0840   -0.9100 C   0  0  0  0  0  0  0  0  0  0  0  0
   -4.7280    0.9800   -0.4120 C   0  0  0  0  0  0  0  0  0  0  0  0
   -6.1490    1.0220   -0.3720 N   0  0  0  0  0  0  0  0  0  0  0  0
   -4.2190   -0.1030    0.0240 O   0  0  0  0  0  0  0  0  0  0  0  0
   -1.4770    0.9270    0.8820 C   0  0  0  0  0  0  0  0  0  0  0  0
   -0.0470    1.0810    0.8390 N   0  0  0  0  0  0  0  0  0  0  0  0
    0.6330    0.8470    2.0770 C   0  0  1  0  0  0  0  0  0  0  0  0
    0.5200   -0.5410    2.5900 C   0  0  0  0  0  0  0  0  0  0  0  0
   -0.0780   -1.4290    2.0540 O   0  0  0  0  0  0  0  0  0  0  0  0
    2.0010    1.1060    1.7890 O   0  0  0  0  0  0  0  0  0  0  0  0
  1  2  1  0
  2  3  1  0
  2  4  1  0
  4  5  1  0
  5  6  1  0
  6  7  1  0
  6 25  1  0
  7  8  1  0
  8  9  1  0
  9 10  1  0
 10 11  2  3
 10 13  1  0
 11 12  1  0
 13 14  1  0
 14 15  1  0
 14 20  1  0
 15 16  2  3
 16 17  1  0
 17 18  1  0
 17 19  2  0
 20 21  1  0
 21 22  1  0
 22 23  1  6
 22 25  1  0
 23 24  2  0
M  END
