
     RDKit          3D

 27 28  0  0  0  0  0  0  0  0999 V2000
   -0.1220    4.1620    2.1500 O   0  0  0  0  0  0  0  0  0  0  0  0
    0.0230    3.0360    1.5550 C   0  0  0  0  0  0  0  0  0  0  0  0
   -1.1010    2.5180    0.7590 C   0  0  0  0  0  0  0  0  0  0  0  0
   -1.0450    1.0580    0.7460 N   0  0  0  0  0  0  0  0  0  0  0  0
   -2.2160    0.2670    0.6140 C   0  0  0  0  0  0  0  0  0  0  0  0
   -3.1640    0.6500   -0.1860 N   0  0  0  0  0  0  0  0  0  0  0  0
   -4.3240   -0.1390   -0.3130 C   0  0  0  0  0  0  0  0  0  0  0  0
   -4.5540   -1.0910    0.4870 O   0  0  0  0  0  0  0  0  0  0  0  0
   -5.5550    0.1580   -1.6270 P   0  0  0  0  0  0  0  0  0  0  0  0
   -6.1060   -1.3880   -2.2410 O   0  0  0  0  0  0  0  0  0  0  0  0
   -6.9390    0.9470   -0.9140 O   0  0  0  0  0  0  0  0  0  0  0  0
    0.1990    0.3710    0.8660 C   0  0  0  0  0  0  0  0  0  0  0  0
    0.2740   -1.0630    0.4920 C   0  0  1  0  0  0  0  0  0  0  0  0
   -0.1000   -1.1650   -0.9430 C   0  0  0  0  0  0  0  0  0  0  0  0
   -1.2250   -1.5420   -1.3460 O   0  0  0  0  0  0  0  0  0  0  0  0
    0.8850   -0.8110   -1.9040 N   0  0  0  0  0  0  0  0  0  0  0  0
    2.2560   -0.8590   -1.5220 C   0  0  0  0  0  0  0  0  0  0  0  0
    3.1820   -0.5530   -2.3410 O   0  0  0  0  0  0  0  0  0  0  0  0
    2.6940   -1.2430   -0.2270 N   0  0  0  0  0  0  0  0  0  0  0  0
    4.0510   -1.3060    0.1980 C   0  0  0  0  0  0  0  0  0  0  0  0
    4.7360    0.2000    0.9220 P   0  0  0  0  0  0  0  0  0  0  0  0
    6.4310    0.3950    0.7240 O   0  0  0  0  0  0  0  0  0  0  0  0
    4.1510    0.6180    2.4610 O   0  0  0  0  0  0  0  0  0  0  0  0
    1.6670   -1.5910    0.7090 C   0  0  0  0  0  0  0  0  0  0  0  0
    1.9330   -2.3270    1.6920 O   0  0  0  0  0  0  0  0  0  0  0  0
    1.2340    0.9960    1.2940 N   0  0  0  0  0  0  0  0  0  0  0  0
    1.1900    2.3160    1.6460 O   0  0  0  0  0  0  0  0  0  0  0  0
  1  2  2  0
  2  3  1  0
  2 27  1  0
  3  4  1  0
  4  5  1  0
  4 12  1  0
  5  6  2  3
  6  7  1  0
  7  8  2  0
  7  9  1  0
  9 10  1  0
  9 11  1  0
 13 12  1  6
 12 26  2  0
 13 14  1  0
 13 24  1  0
 14 15  2  0
 14 16  1  0
 16 17  1  0
 17 18  2  0
 17 19  1  0
 19 20  1  0
 19 24  1  0
 20 21  1  0
 21 22  1  0
 21 23  1  0
 24 25  2  0
 26 27  1  0
M  END
