
     RDKit          3D

 25 25  0  0  0  0  0  0  0  0999 V2000
   -3.8250   -3.3350   -0.8100 C   0  0  0  0  0  0  0  0  0  0  0  0
   -3.6650   -2.4900    0.1590 N   0  0  0  0  0  0  0  0  0  0  0  0
   -2.4090   -2.0370    0.4890 O   0  0  0  0  0  0  0  0  0  0  0  0
   -1.6350   -1.4160   -0.4610 N   0  0  0  0  0  0  0  0  0  0  0  0
   -1.8650   -1.6860   -1.7530 O   0  0  0  0  0  0  0  0  0  0  0  0
   -1.4020   -0.7630   -2.5580 O   0  0  0  0  0  0  0  0  0  0  0  0
   -2.3790   -0.1250   -3.1390 O   0  0  0  0  0  0  0  0  0  0  0  0
   -0.6170   -0.5120   -0.0850 C   0  0  0  0  0  0  0  0  0  0  0  0
    0.4390   -0.9090    0.5890 C   0  0  0  0  0  0  0  0  0  0  0  0
    1.4620    0.0040    0.9660 N   0  0  0  0  0  0  0  0  0  0  0  0
    2.8300   -0.4770    0.8960 C   0  0  1  0  0  0  0  0  0  0  0  0
    2.8890   -1.5020    1.8890 O   0  0  0  0  0  0  0  0  0  0  0  0
    3.0730   -1.1070   -0.2770 O   0  0  0  0  0  0  0  0  0  0  0  0
    3.0890   -0.4330   -1.4430 C   0  0  0  0  0  0  0  0  0  0  0  0
    4.0550    0.5990   -1.6230 N   0  0  0  0  0  0  0  0  0  0  0  0
    3.8000    0.5540    1.3100 C   0  0  0  0  0  0  0  0  0  0  0  0
    3.9710    1.6610    0.7390 O   0  0  0  0  0  0  0  0  0  0  0  0
    4.6130    0.3340    2.4110 O   0  0  0  0  0  0  0  0  0  0  0  0
   -0.7340    0.8170   -0.4320 O   0  0  0  0  0  0  0  0  0  0  0  0
   -1.7200    1.5580    0.2080 C   0  0  0  0  0  0  0  0  0  0  0  0
   -1.8890    1.6820    1.8780 P   0  0  0  0  0  0  0  0  0  0  0  0
   -3.2950    2.7380    2.3670 C   0  0  0  0  0  0  0  0  0  0  0  0
   -3.9830    3.2570    1.3720 C   0  0  0  0  0  0  0  0  0  0  0  0
   -3.6570    3.0140    0.0680 O   0  0  0  0  0  0  0  0  0  0  0  0
   -2.6880    2.2860   -0.4610 O   0  0  0  0  0  0  0  0  0  0  0  0
  1  2  2  0
  2  3  1  0
  3  4  1  0
  4  5  1  0
  4  8  1  0
  5  6  1  0
  6  7  1  0
  8  9  2  3
  8 19  1  0
  9 10  1  0
 10 11  1  0
 11 12  1  1
 11 13  1  0
 11 16  1  0
 13 14  1  0
 14 15  1  0
 16 17  2  0
 16 18  1  0
 19 20  1  0
 20 21  2  0
 20 25  1  0
 21 22  1  0
 22 23  2  0
 23 24  1  0
 24 25  1  0
M  END
