
     RDKit          3D

 25 27  0  0  0  0  0  0  0  0999 V2000
   -2.0080   -3.4390   -1.4010 O   0  0  0  0  0  0  0  0  0  0  0  0
   -2.7280   -3.0190   -0.4620 C   0  0  0  0  0  0  0  0  0  0  0  0
   -4.1080   -3.1150   -0.3070 O   0  0  0  0  0  0  0  0  0  0  0  0
   -4.2930   -2.8860    1.0190 O   0  0  0  0  0  0  0  0  0  0  0  0
   -3.4150   -1.9800    1.3750 O   0  0  0  0  0  0  0  0  0  0  0  0
   -2.2640   -2.3060    0.7280 C   0  0  1  0  0  0  0  0  0  0  0  0
   -1.2470   -3.0100    1.5260 C   0  0  0  0  0  0  0  0  0  0  0  0
   -1.4060   -3.6500    2.5830 O   0  0  0  0  0  0  0  0  0  0  0  0
   -0.0620   -2.8020    0.8350 O   0  0  0  0  0  0  0  0  0  0  0  0
   -0.1700   -1.6100    0.1110 N   0  0  0  0  0  0  0  0  0  0  0  0
    0.8780   -1.0790   -0.7470 C   0  0  0  0  0  0  0  0  0  0  0  0
    2.0060   -0.8640    0.0990 N   0  0  0  0  0  0  0  0  0  0  0  0
    2.3860   -2.0380    0.6320 O   0  0  0  0  0  0  0  0  0  0  0  0
    3.3020    0.1340   -0.5120 P   0  0  0  0  0  0  0  0  0  0  0  0
    3.1630    0.6220   -2.1370 O   0  0  0  0  0  0  0  0  0  0  0  0
    3.7940    1.4940    0.6380 C   0  0  0  0  0  0  0  0  0  0  0  0
    2.7410    2.3770    0.8770 O   0  0  0  0  0  0  0  0  0  0  0  0
    2.1790    2.7910   -0.2100 O   0  0  0  0  0  0  0  0  0  0  0  0
    0.8100    2.7950   -0.2320 C   0  0  0  0  0  0  0  0  0  0  0  0
    0.1780    1.7130    0.4890 N   0  0  0  0  0  0  0  0  0  0  0  0
   -1.0500    1.3300   -0.0650 N   0  0  0  0  0  0  0  0  0  0  0  0
   -1.6760    2.4990   -1.3290 P   0  0  0  0  0  0  0  0  0  0  0  0
   -3.4080    2.4360   -1.2780 O   0  0  0  0  0  0  0  0  0  0  0  0
   -1.7900    0.1920    0.2710 C   0  0  0  0  0  0  0  0  0  0  0  0
   -1.4390   -1.0670    0.3560 C   0  0  0  0  0  0  0  0  0  0  0  0
  1  2  2  0
  2  3  1  0
  2  6  1  0
  3  4  1  0
  4  5  1  0
  6  5  1  1
  6  7  1  0
  6 25  1  0
  7  8  2  0
  7  9  1  0
  9 10  1  0
 10 11  1  0
 10 25  1  0
 11 12  1  0
 12 13  1  0
 12 14  1  0
 14 15  1  0
 14 16  1  0
 16 17  1  0
 17 18  1  0
 18 19  1  0
 19 20  1  0
 20 21  1  0
 21 22  1  0
 21 24  1  0
 22 23  1  0
 24 25  2  0
M  END
