
     RDKit          3D

 19 18  0  0  0  0  0  0  0  0999 V2000
    1.9990   -0.6520    2.1970 C   0  0  0  0  0  0  0  0  0  0  0  0
    2.1150   -0.8030    0.6730 C   0  0  2  0  0  0  0  0  0  0  0  0
    3.3230   -0.0580    0.2370 C   0  0  0  0  0  0  0  0  0  0  0  0
    3.6270   -0.0740   -1.2180 C   0  0  0  0  0  0  0  0  0  0  0  0
    5.1940    0.9210   -1.4900 P   0  0  0  0  0  0  0  0  0  0  0  0
    5.2530    2.2710   -0.4040 O   0  0  0  0  0  0  0  0  0  0  0  0
    6.5970   -0.0730   -1.3630 O   0  0  0  0  0  0  0  0  0  0  0  0
    7.1800    0.0510   -0.1770 O   0  0  0  0  0  0  0  0  0  0  0  0
    0.8320   -0.3220    0.0930 C   0  0  0  0  0  0  0  0  0  0  0  0
    0.7690   -0.3970   -1.2890 O   0  0  0  0  0  0  0  0  0  0  0  0
   -0.7110    0.1590   -1.9340 P   0  0  0  0  0  0  0  0  0  0  0  0
   -1.2150   -0.7340   -3.3280 O   0  0  0  0  0  0  0  0  0  0  0  0
   -2.0300    0.3060   -0.6970 C   0  0  0  0  0  0  0  0  0  0  0  0
   -1.7570    0.6560    0.4640 O   0  0  0  0  0  0  0  0  0  0  0  0
   -3.3290    0.0290   -1.0440 O   0  0  0  0  0  0  0  0  0  0  0  0
   -4.3670    0.1320   -0.1170 C   0  0  1  0  0  0  0  0  0  0  0  0
   -4.4220    1.5580    0.3860 C   0  0  0  0  0  0  0  0  0  0  0  0
   -5.7080   -0.1570   -0.7730 C   0  0  0  0  0  0  0  0  0  0  0  0
   -4.2260   -0.8400    1.0330 C   0  0  0  0  0  0  0  0  0  0  0  0
  2  1  1  1
  2  3  1  0
  2  9  1  0
  3  4  1  0
  4  5  1  0
  5  6  1  0
  5  7  1  0
  7  8  1  0
  9 10  1  0
 10 11  1  0
 11 12  1  0
 11 13  1  0
 13 14  2  0
 13 15  1  0
 15 16  1  0
 16 17  1  1
 16 18  1  0
 16 19  1  0
M  END
