
     RDKit          3D

 14 13  0  0  0  0  0  0  0  0999 V2000
   -3.2990   -2.3570   -0.0130 C   0  0  0  0  0  0  0  0  0  0  0  0
   -2.8250   -1.1180    0.0390 C   0  0  0  0  0  0  0  0  0  0  0  0
   -3.8480    0.2650   -0.4560 S   0  0  0  0  0  0  0  0  0  0  0  0
   -2.9650    1.8240   -0.2880 C   0  0  0  0  0  0  0  0  0  0  0  0
   -1.4660   -0.8710    0.5000 C   0  0  0  0  0  0  0  0  0  0  0  0
   -0.6750   -1.9480    0.8840 O   0  0  0  0  0  0  0  0  0  0  0  0
   -1.0300    0.3320    0.5420 N   0  0  0  0  0  0  0  0  0  0  0  0
    0.2080    0.6990    0.9490 O   0  0  0  0  0  0  0  0  0  0  0  0
    1.0220    1.4090    0.1660 O   0  0  0  0  0  0  0  0  0  0  0  0
    1.7130    0.3180   -0.9890 P   0  0  0  0  0  0  0  0  0  0  0  0
    3.2430   -0.4510   -0.3840 C   0  0  0  0  0  0  0  0  0  0  0  0
    3.5410   -2.1320   -0.7430 Cl  0  0  0  0  0  0  0  0  0  0  0  0
    4.1300    0.2210    0.3160 C   0  0  0  0  0  0  0  0  0  0  0  0
    3.9830    1.5830    0.6600 N   0  0  0  0  0  0  0  0  0  0  0  0
  1  2  2  0
  2  3  1  0
  2  5  1  0
  3  4  1  0
  5  6  1  0
  5  7  2  3
  7  8  1  0
  8  9  1  0
  9 10  1  0
 10 11  1  0
 11 12  1  0
 11 13  2  3
 13 14  1  0
M  END
