
     RDKit          3D

 14 13  0  0  0  0  0  0  0  0999 V2000
    1.1960   -0.9370   -1.0830 C   0  0  0  0  0  0  0  0  0  0  0  0
    1.3260   -0.2560    0.2360 C   0  0  1  0  0  0  0  0  0  0  0  0
    2.4110    0.8000    0.1820 C   0  0  0  0  0  0  0  0  0  0  0  0
    3.6520    0.2570   -0.1360 O   0  0  0  0  0  0  0  0  0  0  0  0
    4.7890    1.5410   -0.1660 S   0  0  0  0  0  0  0  0  0  0  0  0
   -0.2190    0.5500    0.8170 P   0  0  0  0  0  0  0  0  0  0  0  0
   -0.2620    0.9240    2.8630 Cl  0  0  0  0  0  0  0  0  0  0  0  0
   -1.7230   -0.1640    0.1570 C   0  0  0  0  0  0  0  0  0  0  0  0
   -2.4070   -1.2150    0.8770 C   0  0  0  0  0  0  0  0  0  0  0  0
   -1.8830   -1.6820    2.1140 N   0  0  0  0  0  0  0  0  0  0  0  0
   -3.4680   -1.7560    0.4650 O   0  0  0  0  0  0  0  0  0  0  0  0
   -2.2230    0.2560   -0.9860 C   0  0  0  0  0  0  0  0  0  0  0  0
   -1.6360    1.2780   -1.7720 N   0  0  0  0  0  0  0  0  0  0  0  0
   -3.4050   -0.2950   -1.5190 O   0  0  0  0  0  0  0  0  0  0  0  0
  2  1  1  6
  2  3  1  0
  2  6  1  0
  3  4  1  0
  4  5  1  0
  6  7  1  0
  6  8  1  0
  8  9  1  0
  8 12  2  3
  9 10  1  0
  9 11  2  0
 12 13  1  0
 12 14  1  0
M  END
