
     RDKit          3D

 19 18  0  0  0  0  0  0  0  0999 V2000
    0.4460    2.2240    0.9400 C   0  0  0  0  0  0  0  0  0  0  0  0
   -0.1510    1.4130   -0.1600 C   0  0  1  0  0  0  0  0  0  0  0  0
    0.8940    0.8050   -1.0720 C   0  0  0  0  0  0  0  0  0  0  0  0
    1.9860   -0.3020   -0.0380 P   0  0  0  0  0  0  0  0  0  0  0  0
    1.1330   -1.7900    0.2050 O   0  0  0  0  0  0  0  0  0  0  0  0
    3.4550   -0.6020   -0.9140 O   0  0  0  0  0  0  0  0  0  0  0  0
    4.6170    0.6710   -0.6590 P   0  0  0  0  0  0  0  0  0  0  0  0
    4.5350    1.2410    0.9990 O   0  0  0  0  0  0  0  0  0  0  0  0
    6.3220   -0.0680   -0.8680 C   0  0  0  0  0  0  0  0  0  0  0  0
    6.4350   -1.2050    0.1510 C   0  0  0  0  0  0  0  0  0  0  0  0
    6.2690   -0.6980    1.4380 O   0  0  0  0  0  0  0  0  0  0  0  0
   -0.9870    0.3710    0.3180 O   0  0  0  0  0  0  0  0  0  0  0  0
   -2.3390    0.2910   -0.0110 C   0  0  0  0  0  0  0  0  0  0  0  0
   -2.7910    1.1850   -0.7550 O   0  0  0  0  0  0  0  0  0  0  0  0
   -3.1730   -0.6980    0.4320 O   0  0  0  0  0  0  0  0  0  0  0  0
   -4.5410   -0.7830    0.1010 C   0  0  2  0  0  0  0  0  0  0  0  0
   -5.1560   -1.9960    0.7610 C   0  0  0  0  0  0  0  0  0  0  0  0
   -4.7170   -0.9530   -1.3930 C   0  0  0  0  0  0  0  0  0  0  0  0
   -5.3170    0.4490    0.5160 C   0  0  0  0  0  0  0  0  0  0  0  0
  2  1  1  1
  2  3  1  0
  2 12  1  0
  3  4  1  0
  4  5  1  0
  4  6  1  0
  6  7  1  0
  7  8  1  0
  7  9  1  0
  9 10  1  0
 10 11  1  0
 12 13  1  0
 13 14  2  0
 13 15  1  0
 15 16  1  0
 16 17  1  1
 16 18  1  0
 16 19  1  0
M  END
