
     RDKit          3D

 14 13  0  0  0  0  0  0  0  0999 V2000
    4.7210   -0.1180    0.0690 C   0  0  0  0  0  0  0  0  0  0  0  0
    3.3720    0.0490   -0.5840 C   0  0  0  0  0  0  0  0  0  0  0  0
    2.9450   -1.2350   -1.0890 N   0  0  0  0  0  0  0  0  0  0  0  0
    1.7290   -1.4230   -1.3490 N   0  0  0  0  0  0  0  0  0  0  0  0
    0.8110   -0.3630   -1.1380 C   0  0  0  0  0  0  0  0  0  0  0  0
    1.0830    0.8120   -1.5370 O   0  0  0  0  0  0  0  0  0  0  0  0
   -0.4420   -0.6390   -0.4600 C   0  0  0  0  0  0  0  0  0  0  0  0
   -1.2880    0.3540   -0.2690 C   0  0  0  0  0  0  0  0  0  0  0  0
   -0.9580    1.6190   -0.7160 O   0  0  0  0  0  0  0  0  0  0  0  0
   -2.1370    2.4150   -1.7210 Cl  0  0  0  0  0  0  0  0  0  0  0  0
   -2.5800    0.1150    0.4200 C   0  0  1  0  0  0  0  0  0  0  0  0
   -2.6680    0.9580    1.6680 C   0  0  0  0  0  0  0  0  0  0  0  0
   -3.6170    0.5300   -0.4330 O   0  0  0  0  0  0  0  0  0  0  0  0
   -2.8370   -1.6570    0.8310 P   0  0  0  0  0  0  0  0  0  0  0  0
  1  2  1  0
  2  3  1  0
  3  4  2  3
  4  5  1  0
  5  6  2  0
  5  7  1  0
  7  8  2  3
  8  9  1  0
  8 11  1  0
  9 10  1  0
 11 12  1  1
 11 13  1  0
 11 14  1  0
M  END
