
     RDKit          3D

 14 13  0  0  0  0  0  0  0  0999 V2000
   -2.9230   -0.4980    0.8530 C   0  0  0  0  0  0  0  0  0  0  0  0
   -1.8060   -1.4270    0.4400 C   0  0  0  0  0  0  0  0  0  0  0  0
   -0.5350   -0.7610    0.4800 O   0  0  0  0  0  0  0  0  0  0  0  0
   -0.3430    0.3670   -0.3300 C   0  0  0  0  0  0  0  0  0  0  0  0
   -1.3740    1.1010   -0.4820 N   0  0  0  0  0  0  0  0  0  0  0  0
    0.9070    0.6810   -0.9450 C   0  0  0  0  0  0  0  0  0  0  0  0
    1.9160   -0.0860   -0.7630 N   0  0  0  0  0  0  0  0  0  0  0  0
    1.9500   -1.2470   -0.0030 C   0  0  0  0  0  0  0  0  0  0  0  0
    2.6210   -1.2710    1.3100 C   0  0  0  0  0  0  0  0  0  0  0  0
    1.4120   -2.2910   -0.4220 O   0  0  0  0  0  0  0  0  0  0  0  0
    1.0810    1.8600   -1.7880 C   0  0  1  0  0  0  0  0  0  0  0  0
   -0.0430    1.6920   -3.1740 Cl  0  0  0  0  0  0  0  0  0  0  0  0
    0.8010    3.4710   -0.9040 P   0  0  0  0  0  0  0  0  0  0  0  0
    0.6490    3.4750    0.6250 O   0  0  0  0  0  0  0  0  0  0  0  0
  1  2  1  0
  2  3  1  0
  3  4  1  0
  4  5  2  0
  4  6  1  0
  6  7  2  3
  6 11  1  0
  7  8  1  0
  8  9  1  0
  8 10  2  0
 11 12  1  6
 11 13  1  0
 13 14  2  0
M  END
