
     RDKit          3D

 11 11  0  0  0  0  0  0  0  0999 V2000
    3.2590   -0.4590   -0.7000 O   0  0  0  0  0  0  0  0  0  0  0  0
    2.7590    0.5590    0.1120 C   0  0  0  0  0  0  0  0  0  0  0  0
    1.3740    0.1800    0.5680 C   0  0  1  0  0  0  0  0  0  0  0  0
    0.8840    1.1880    1.3680 O   0  0  0  0  0  0  0  0  0  0  0  0
    0.4440   -0.0990   -0.5800 C   0  0  0  0  0  0  0  0  0  0  0  0
   -0.9100   -0.4660    0.0170 C   0  0  2  0  0  0  0  0  0  0  0  0
   -0.8020   -1.5850    0.8220 O   0  0  0  0  0  0  0  0  0  0  0  0
   -1.8970   -0.7260   -1.0770 C   0  0  0  0  0  0  0  0  0  0  0  0
   -3.1100   -0.3560   -0.4580 O   0  0  0  0  0  0  0  0  0  0  0  0
   -2.7940    0.6760    0.4010 C   0  0  0  0  0  0  0  0  0  0  0  0
   -1.4560    0.5750    0.7260 O   0  0  0  0  0  0  0  0  0  0  0  0
  1  2  1  0
  2  3  1  0
  3  4  1  6
  3  5  1  0
  5  6  1  0
  6  7  1  1
  6  8  1  0
  6 11  1  0
  8  9  1  0
  9 10  1  0
 10 11  1  0
M  END
