
     RDKit          3D

 11 11  0  0  0  0  0  0  0  0999 V2000
    3.5090   -0.2250   -0.4690 O   0  0  0  0  0  0  0  0  0  0  0  0
    2.3660    0.2200    0.2100 C   0  0  1  0  0  0  0  0  0  0  0  0
    2.2070    1.5680   -0.1540 O   0  0  0  0  0  0  0  0  0  0  0  0
    1.2080   -0.5910   -0.3180 C   0  0  0  0  0  0  0  0  0  0  0  0
   -0.1040   -0.2140    0.3310 C   0  0  2  0  0  0  0  0  0  0  0  0
   -0.0640   -0.4150    1.7190 O   0  0  0  0  0  0  0  0  0  0  0  0
   -1.1320   -1.1960   -0.2430 C   0  0  0  0  0  0  0  0  0  0  0  0
   -2.4090   -0.8820    0.1310 O   0  0  0  0  0  0  0  0  0  0  0  0
   -2.7460    0.4070   -0.2170 C   0  0  0  0  0  0  0  0  0  0  0  0
   -1.5890    1.2520   -0.6450 C   0  0  0  0  0  0  0  0  0  0  0  0
   -0.4540    1.0940    0.1140 O   0  0  0  0  0  0  0  0  0  0  0  0
  2  1  1  6
  2  3  1  0
  2  4  1  0
  4  5  1  0
  5  6  1  1
  5  7  1  0
  5 11  1  0
  7  8  1  0
  8  9  1  0
  9 10  1  0
 10 11  1  0
M  END
