
     RDKit          3D

 11 10  0  0  0  0  0  0  0  0999 V2000
    3.1000    0.3960    1.2260 C   0  0  0  0  0  0  0  0  0  0  0  0
    2.2030    0.0870    0.2140 O   0  0  0  0  0  0  0  0  0  0  0  0
    0.8940    0.0490    0.6380 C   0  0  0  0  0  0  0  0  0  0  0  0
    0.0270   -0.2950   -0.5460 C   0  0  2  0  0  0  0  0  0  0  0  0
    0.4240   -1.5350   -1.0300 O   0  0  0  0  0  0  0  0  0  0  0  0
    0.2600    0.7280   -1.6370 C   0  0  0  0  0  0  0  0  0  0  0  0
   -0.4500    0.4580   -2.7850 O   0  0  0  0  0  0  0  0  0  0  0  0
   -1.4390   -0.2750   -0.2200 C   0  0  1  0  0  0  0  0  0  0  0  0
   -2.1220   -0.5640   -1.4150 O   0  0  0  0  0  0  0  0  0  0  0  0
   -1.8290   -1.1940    0.7090 O   0  0  0  0  0  0  0  0  0  0  0  0
   -2.4790   -0.5040    1.7310 C   0  0  0  0  0  0  0  0  0  0  0  0
  1  2  1  0
  2  3  1  0
  3  4  1  0
  4  5  1  6
  4  6  1  0
  4  8  1  0
  6  7  1  0
  8  9  1  6
  8 10  1  0
 10 11  1  0
M  END
