
     RDKit          3D

 11 11  0  0  0  0  0  0  0  0999 V2000
   -4.1600   -0.1210   -0.0450 C   0  0  0  0  0  0  0  0  0  0  0  0
   -2.8920    0.3520    0.2250 O   0  0  0  0  0  0  0  0  0  0  0  0
   -1.8870   -0.4190   -0.3320 C   0  0  0  0  0  0  0  0  0  0  0  0
   -0.5740    0.2020    0.0360 C   0  0  1  0  0  0  0  0  0  0  0  0
   -0.3580    0.2750    1.3940 O   0  0  0  0  0  0  0  0  0  0  0  0
    0.9980    0.6630    1.4430 C   0  0  0  0  0  0  0  0  0  0  0  0
    1.5610    0.2660    0.1080 C   0  0  1  0  0  0  0  0  0  0  0  0
    2.8480   -0.5000    0.2420 C   0  0  2  0  0  0  0  0  0  0  0  0
    3.8000    0.3810    0.7530 O   0  0  0  0  0  0  0  0  0  0  0  0
    3.2960   -1.0210   -0.9440 O   0  0  0  0  0  0  0  0  0  0  0  0
    0.5230   -0.5300   -0.4030 O   0  0  0  0  0  0  0  0  0  0  0  0
  1  2  1  0
  2  3  1  0
  4  3  1  1
  4  5  1  0
  4 11  1  0
  5  6  1  0
  7  6  1  1
  7  8  1  0
  7 11  1  0
  8  9  1  6
  8 10  1  0
M  END
