
     RDKit          3D

 12 11  0  0  0  0  0  0  0  0999 V2000
    4.2720    0.0980    0.4200 C   0  0  0  0  0  0  0  0  0  0  0  0
    3.1340    0.4510   -0.2830 O   0  0  0  0  0  0  0  0  0  0  0  0
    2.0130   -0.2630    0.1360 C   0  0  0  0  0  0  0  0  0  0  0  0
    0.8550    0.2180   -0.7070 C   0  0  1  0  0  0  0  0  0  0  0  0
    1.2100   -0.0670   -2.0470 O   0  0  0  0  0  0  0  0  0  0  0  0
   -0.3170   -0.4450   -0.4600 O   0  0  0  0  0  0  0  0  0  0  0  0
   -1.2680    0.4910   -0.0740 C   0  0  2  0  0  0  0  0  0  0  0  0
   -1.7010    0.1530    1.3510 C   0  0  0  0  0  0  0  0  0  0  0  0
   -2.2300   -1.1320    1.3040 O   0  0  0  0  0  0  0  0  0  0  0  0
   -2.5180    0.4210   -0.9240 C   0  0  1  0  0  0  0  0  0  0  0  0
   -3.1100   -0.8300   -0.8330 O   0  0  0  0  0  0  0  0  0  0  0  0
   -3.3980    1.3890   -0.4410 O   0  0  0  0  0  0  0  0  0  0  0  0
  1  2  1  0
  2  3  1  0
  3  4  1  0
  4  5  1  6
  4  6  1  0
  6  7  1  0
  7  8  1  1
  7 10  1  0
  8  9  1  0
 10 11  1  1
 10 12  1  0
M  END
