
     RDKit          3D

 11 11  0  0  0  0  0  0  0  0999 V2000
    1.7520   -1.1040    1.2000 O   0  0  0  0  0  0  0  0  0  0  0  0
    1.7830    0.1430    0.6040 C   0  0  2  0  0  0  0  0  0  0  0  0
    3.1380    0.3490    0.2350 O   0  0  0  0  0  0  0  0  0  0  0  0
    1.5400    1.0850    1.6020 O   0  0  0  0  0  0  0  0  0  0  0  0
    0.9790    0.2940   -0.6140 C   0  0  0  0  0  0  0  0  0  0  0  0
   -0.4740    0.0710   -0.5470 C   0  0  1  0  0  0  0  0  0  0  0  0
   -0.9840    0.2800   -1.8530 O   0  0  0  0  0  0  0  0  0  0  0  0
   -0.9650   -1.2450   -0.1020 C   0  0  0  0  0  0  0  0  0  0  0  0
   -2.3580   -0.8510    0.3880 C   0  0  0  0  0  0  0  0  0  0  0  0
   -2.0070    0.2590    1.1940 O   0  0  0  0  0  0  0  0  0  0  0  0
   -1.2240    1.0370    0.3410 C   0  0  0  0  0  0  0  0  0  0  0  0
  2  1  1  1
  2  3  1  0
  2  4  1  0
  2  5  1  0
  5  6  1  0
  6  7  1  6
  6  8  1  0
  6 11  1  0
  8  9  1  0
  9 10  1  0
 10 11  1  0
M  END
