
     RDKit          3D

 11 10  0  0  0  0  0  0  0  0999 V2000
   -0.6230    0.3510    1.4130 C   0  0  0  0  0  0  0  0  0  0  0  0
   -0.4760    0.0930   -0.0600 C   0  0  2  0  0  0  0  0  0  0  0  0
   -1.2290    1.2010   -0.7970 C   0  0  0  0  0  0  0  0  0  0  0  0
   -2.5660    1.2280   -0.4780 O   0  0  0  0  0  0  0  0  0  0  0  0
   -1.1230   -1.2050   -0.4060 C   0  0  0  0  0  0  0  0  0  0  0  0
   -2.4700   -1.2030   -0.0980 O   0  0  0  0  0  0  0  0  0  0  0  0
    0.9440    0.1560   -0.5320 C   0  0  1  0  0  0  0  0  0  0  0  0
    1.4890    1.4060   -0.2880 O   0  0  0  0  0  0  0  0  0  0  0  0
    1.8400   -0.8740    0.0840 C   0  0  2  0  0  0  0  0  0  0  0  0
    1.9670   -0.6970    1.4660 O   0  0  0  0  0  0  0  0  0  0  0  0
    3.1260   -0.6360   -0.4570 O   0  0  0  0  0  0  0  0  0  0  0  0
  2  1  1  1
  2  3  1  0
  2  5  1  0
  2  7  1  0
  3  4  1  0
  5  6  1  0
  7  8  1  1
  7  9  1  0
  9 10  1  1
  9 11  1  0
M  END
