
     RDKit          3D

 11 10  0  0  0  0  0  0  0  0999 V2000
    0.0930    2.0160    0.8070 C   0  0  0  0  0  0  0  0  0  0  0  0
    0.1830    0.5610    0.2280 C   0  0  1  0  0  0  0  0  0  0  0  0
    1.0480    0.7890   -0.9990 C   0  0  0  0  0  0  0  0  0  0  0  0
    2.1560    1.5070   -0.5550 O   0  0  0  0  0  0  0  0  0  0  0  0
    0.8520   -0.1220    1.1720 O   0  0  0  0  0  0  0  0  0  0  0  0
    1.1620   -1.4230    1.0650 C   0  0  0  0  0  0  0  0  0  0  0  0
    1.9730   -1.7640   -0.0440 O   0  0  0  0  0  0  0  0  0  0  0  0
   -1.2190    0.2430   -0.0690 C   0  0  2  0  0  0  0  0  0  0  0  0
   -1.9790    0.4080    1.0980 O   0  0  0  0  0  0  0  0  0  0  0  0
   -1.5960   -1.0230   -0.7170 C   0  0  0  0  0  0  0  0  0  0  0  0
   -2.9820   -0.8740   -1.0380 O   0  0  0  0  0  0  0  0  0  0  0  0
  2  1  1  1
  2  3  1  0
  2  5  1  0
  2  8  1  0
  3  4  1  0
  5  6  1  0
  6  7  1  0
  8  9  1  1
  8 10  1  0
 10 11  1  0
M  END
