
     RDKit          3D

 12 11  0  0  0  0  0  0  0  0999 V2000
   -2.1750    0.0600    1.5900 C   0  0  0  0  0  0  0  0  0  0  0  0
   -1.2930    0.3480    0.3880 C   0  0  1  0  0  0  0  0  0  0  0  0
   -2.1920    0.4410   -0.8150 C   0  0  0  0  0  0  0  0  0  0  0  0
   -0.6740    1.5720    0.6100 O   0  0  0  0  0  0  0  0  0  0  0  0
   -0.2940   -0.7830    0.2790 C   0  0  1  0  0  0  0  0  0  0  0  0
   -0.9800   -1.9840    0.0570 O   0  0  0  0  0  0  0  0  0  0  0  0
    0.6270   -0.5070   -0.6990 O   0  0  0  0  0  0  0  0  0  0  0  0
    1.9240   -0.4060   -0.2940 C   0  0  1  0  0  0  0  0  0  0  0  0
    2.6070   -1.5200   -0.8430 O   0  0  0  0  0  0  0  0  0  0  0  0
    2.6530    0.7800   -0.6970 C   0  0  0  0  0  0  0  0  0  0  0  0
    2.2540    1.9130   -0.3360 O   0  0  0  0  0  0  0  0  0  0  0  0
    3.7950    0.7600   -1.4760 O   0  0  0  0  0  0  0  0  0  0  0  0
  2  1  1  1
  2  3  1  0
  2  4  1  0
  2  5  1  0
  5  6  1  6
  5  7  1  0
  7  8  1  0
  8  9  1  6
  8 10  1  0
 10 11  2  0
 10 12  1  0
M  END
