
     RDKit          3D

 12 12  0  0  0  0  0  0  0  0999 V2000
    3.2640    0.8480   -0.4250 O   0  0  0  0  0  0  0  0  0  0  0  0
    2.4370   -0.2640   -0.5810 C   0  0  0  0  0  0  0  0  0  0  0  0
    1.0940    0.0630    0.0330 C   0  0  1  0  0  0  0  0  0  0  0  0
    0.5360    1.1820   -0.6240 O   0  0  0  0  0  0  0  0  0  0  0  0
   -0.5400    1.5810    0.1730 C   0  0  1  0  0  0  0  0  0  0  0  0
   -0.9470    2.8290   -0.2760 O   0  0  0  0  0  0  0  0  0  0  0  0
   -1.6580    0.5960    0.0030 C   0  0  2  0  0  0  0  0  0  0  0  0
   -2.6110    0.8730    0.9920 O   0  0  0  0  0  0  0  0  0  0  0  0
   -1.2550   -0.8270    0.1150 C   0  0  1  0  0  0  0  0  0  0  0  0
   -1.9980   -1.5690   -0.8300 O   0  0  0  0  0  0  0  0  0  0  0  0
    0.1800   -1.1130   -0.1180 C   0  0  2  0  0  0  0  0  0  0  0  0
    0.6360   -2.1250    0.7390 O   0  0  0  0  0  0  0  0  0  0  0  0
  1  2  1  0
  3  2  1  6
  3  4  1  0
  3 11  1  0
  4  5  1  0
  5  6  1  6
  5  7  1  0
  7  8  1  1
  7  9  1  0
  9 10  1  6
  9 11  1  0
 11 12  1  1
M  END
