
     RDKit          3D

 10 10  0  0  0  0  0  0  0  0999 V2000
   -3.9290   -0.3070   -0.0920 O   0  0  0  0  0  0  0  0  0  0  0  0
   -2.6910    0.2980    0.1120 C   0  0  0  0  0  0  0  0  0  0  0  0
   -1.6270   -0.5570   -0.2520 O   0  0  0  0  0  0  0  0  0  0  0  0
   -0.2960   -0.1910   -0.1440 C   0  0  0  0  0  0  0  0  0  0  0  0
   -0.0040    1.0670    0.3420 C   0  0  0  0  0  0  0  0  0  0  0  0
    1.3340    1.3910    0.4330 C   0  0  0  0  0  0  0  0  0  0  0  0
    2.3420    0.5250    0.0660 C   0  0  0  0  0  0  0  0  0  0  0  0
    2.0440   -0.7310   -0.4190 C   0  0  0  0  0  0  0  0  0  0  0  0
    3.0460   -1.6160   -0.7930 O   0  0  0  0  0  0  0  0  0  0  0  0
    0.6990   -1.0690   -0.5160 C   0  0  0  0  0  0  0  0  0  0  0  0
  1  2  1  0
  2  3  1  0
  3  4  1  0
  4  5  2  0
  4 10  1  0
  5  6  1  0
  6  7  2  0
  7  8  1  0
  8  9  1  0
  8 10  2  0
M  END
