
     RDKit          3D

  9  9  0  0  0  0  0  0  0  0999 V2000
    2.5580    1.2070   -0.0770 O   0  0  0  0  0  0  0  0  0  0  0  0
    2.3360    0.2260    0.8890 C   0  0  0  0  0  0  0  0  0  0  0  0
    1.8960   -1.0240    0.2120 C   0  0  0  0  0  0  0  0  0  0  0  0
    0.6520   -0.9210   -0.6170 C   0  0  0  0  0  0  0  0  0  0  0  0
   -0.5500   -0.5060    0.1700 C   0  0  2  0  0  0  0  0  0  0  0  0
   -1.7420   -0.4630   -0.7710 C   0  0  0  0  0  0  0  0  0  0  0  0
   -2.5720    0.6280   -0.1800 C   0  0  0  0  0  0  0  0  0  0  0  0
   -1.5920    1.4260    0.6040 C   0  0  0  0  0  0  0  0  0  0  0  0
   -0.3820    0.7920    0.6210 O   0  0  0  0  0  0  0  0  0  0  0  0
  1  2  1  0
  2  3  1  0
  3  4  1  0
  5  4  1  6
  5  6  1  0
  5  9  1  0
  6  7  1  0
  7  8  1  0
  8  9  1  0
M  END
