
     RDKit          3D

 10 10  0  0  0  0  0  0  0  0999 V2000
   -4.5880    0.0310    0.7180 O   0  0  0  0  0  0  0  0  0  0  0  0
   -3.4010    0.3780    0.0690 C   0  0  0  0  0  0  0  0  0  0  0  0
   -2.2330   -0.4550    0.5790 C   0  0  0  0  0  0  0  0  0  0  0  0
   -1.1100   -0.0460   -0.1130 O   0  0  0  0  0  0  0  0  0  0  0  0
    0.0430   -0.7240    0.2480 C   0  0  0  0  0  0  0  0  0  0  0  0
    1.1740   -0.1700   -0.5880 C   0  0  2  0  0  0  0  0  0  0  0  0
    2.4910   -0.8100   -0.3070 C   0  0  0  0  0  0  0  0  0  0  0  0
    3.4320    0.3750   -0.2620 C   0  0  0  0  0  0  0  0  0  0  0  0
    2.7050    1.4790   -0.7030 O   0  0  0  0  0  0  0  0  0  0  0  0
    1.4230    1.2770   -0.1970 C   0  0  0  0  0  0  0  0  0  0  0  0
  1  2  1  0
  2  3  1  0
  3  4  1  0
  4  5  1  0
  6  5  1  1
  6  7  1  0
  6 10  1  0
  7  8  1  0
  8  9  1  0
  9 10  1  0
M  END
