
     RDKit          3D

  9  9  0  0  0  0  0  0  0  0999 V2000
   -2.8460    0.1770    0.1840 C   0  0  0  0  0  0  0  0  0  0  0  0
   -1.8430   -0.7440   -0.0320 O   0  0  0  0  0  0  0  0  0  0  0  0
   -0.6460   -0.2020   -0.4190 C   0  0  2  0  0  0  0  0  0  0  0  0
   -0.7330    0.5250   -1.6210 O   0  0  0  0  0  0  0  0  0  0  0  0
    0.3200   -1.3530   -0.6610 C   0  0  0  0  0  0  0  0  0  0  0  0
    1.4840   -1.2910    0.3330 C   0  0  0  0  0  0  0  0  0  0  0  0
    2.2130    0.0050    0.0100 C   0  0  0  0  0  0  0  0  0  0  0  0
    1.3150    1.1440    0.3650 C   0  0  0  0  0  0  0  0  0  0  0  0
   -0.1050    0.7460    0.6290 C   0  0  0  0  0  0  0  0  0  0  0  0
  1  2  1  0
  2  3  1  0
  3  4  1  6
  3  5  1  0
  3  9  1  0
  5  6  1  0
  6  7  1  0
  7  8  1  0
  8  9  1  0
M  END
