
     RDKit          3D

 10 10  0  0  0  0  0  0  0  0999 V2000
    2.8990    0.8220    0.0630 C   0  0  0  0  0  0  0  0  0  0  0  0
    2.2200   -0.3920    0.1900 O   0  0  0  0  0  0  0  0  0  0  0  0
    0.8370   -0.5030    0.0180 C   0  0  0  0  0  0  0  0  0  0  0  0
    0.1960   -1.7120    0.1500 C   0  0  0  0  0  0  0  0  0  0  0  0
   -1.1700   -1.8180   -0.0210 C   0  0  0  0  0  0  0  0  0  0  0  0
   -1.9040   -0.6890   -0.3290 C   0  0  0  0  0  0  0  0  0  0  0  0
   -3.2910   -0.8170   -0.4990 O   0  0  0  0  0  0  0  0  0  0  0  0
   -1.2590    0.5240   -0.4620 C   0  0  0  0  0  0  0  0  0  0  0  0
   -2.0420    1.6490   -0.7770 O   0  0  0  0  0  0  0  0  0  0  0  0
    0.1020    0.6150   -0.2890 C   0  0  0  0  0  0  0  0  0  0  0  0
  1  2  1  0
  2  3  1  0
  3  4  2  0
  3 10  1  0
  4  5  1  0
  5  6  2  0
  6  7  1  0
  6  8  1  0
  8  9  1  0
  8 10  2  0
M  END
