
     RDKit          3D

 32 33  0  0  0  0  0  0  0  0999 V2000
    0.3940   -3.9160    1.0410 C   0  0  0  0  0  0  0  0  0  0  0  0
   -0.1200   -3.0590   -0.0130 C   0  0  1  0  0  0  0  0  0  0  0  0
   -0.4130   -1.6610   -0.0130 C   0  0  0  0  0  0  0  0  0  0  0  0
   -1.2350   -0.9300    1.0350 C   0  0  2  0  0  0  0  0  0  0  0  0
   -2.0230   -1.9300    1.8440 C   0  0  0  0  0  0  0  0  0  0  0  0
   -2.8950   -1.5630    2.8690 N   0  0  0  0  0  0  0  0  0  0  0  0
   -2.2740   -0.1410    0.2630 C   0  0  1  0  0  0  0  0  0  0  0  0
   -3.1130    0.6060    1.0670 O   0  0  0  0  0  0  0  0  0  0  0  0
   -1.7620    0.7970   -0.7860 C   0  0  0  0  0  0  0  0  0  0  0  0
   -2.8760    1.4890   -1.5450 C   0  0  1  0  0  0  0  0  0  0  0  0
   -3.7950    2.3350   -0.7500 C   0  0  0  0  0  0  0  0  0  0  0  0
   -2.2190    2.4130   -2.5910 C   0  0  0  0  0  0  0  0  0  0  0  0
   -3.7020    0.5160   -2.3640 C   0  0  0  0  0  0  0  0  0  0  0  0
   -4.6820    1.3150   -3.0020 O   0  0  0  0  0  0  0  0  0  0  0  0
   -0.3830    0.0230    1.7810 C   0  0  1  0  0  0  0  0  0  0  0  0
   -0.8190    0.4260    3.1580 C   0  0  0  0  0  0  0  0  0  0  0  0
    0.1110    1.3530    3.7030 O   0  0  0  0  0  0  0  0  0  0  0  0
    1.0690   -0.3630    1.9410 C   0  0  0  0  0  0  0  0  0  0  0  0
    2.0270    0.7470    1.6170 C   0  0  0  0  0  0  0  0  0  0  0  0
    1.9980    1.2040    0.2610 N   0  0  0  0  0  0  0  0  0  0  0  0
    3.1270    1.6250   -0.5190 C   0  0  0  0  0  0  0  0  0  0  0  0
    4.1950    0.8910   -0.7520 C   0  0  0  0  0  0  0  0  0  0  0  0
    5.2080    1.4820   -1.5450 O   0  0  0  0  0  0  0  0  0  0  0  0
    5.2990    2.8660   -1.7790 C   0  0  0  0  0  0  0  0  0  0  0  0
    3.8890    3.3780   -2.1090 C   0  0  0  0  0  0  0  0  0  0  0  0
    3.0580    2.9240   -1.0650 O   0  0  0  0  0  0  0  0  0  0  0  0
    4.4010   -0.4690   -0.2580 C   0  0  0  0  0  0  0  0  0  0  0  0
    5.5180   -0.7050    0.2770 O   0  0  0  0  0  0  0  0  0  0  0  0
    3.4760   -1.4250   -0.3560 O   0  0  0  0  0  0  0  0  0  0  0  0
    2.7690   -2.0090   -1.3940 C   0  0  0  0  0  0  0  0  0  0  0  0
    2.0430   -3.2020   -0.8210 C   0  0  0  0  0  0  0  0  0  0  0  0
    0.7140   -3.2760   -1.1610 O   0  0  0  0  0  0  0  0  0  0  0  0
  2  1  1  1
  2  3  1  0
  2 32  1  0
  3  4  1  0
  4  5  1  1
  4  7  1  0
  4 15  1  0
  5  6  1  0
  7  8  1  1
  7  9  1  0
  9 10  1  0
 10 11  1  1
 10 12  1  0
 10 13  1  0
 13 14  1  0
 15 16  1  1
 15 18  1  0
 16 17  1  0
 18 19  1  0
 19 20  1  0
 20 21  1  0
 21 22  2  0
 21 26  1  0
 22 23  1  0
 22 27  1  0
 23 24  1  0
 24 25  1  0
 25 26  1  0
 27 28  2  0
 27 29  1  0
 29 30  1  0
 30 31  1  0
 31 32  1  0
M  CHG  1   6   1
M  END
