
     RDKit          3D

 32 35  0  0  0  0  0  0  0  0999 V2000
    0.1760    3.2810   -0.1150 O   0  0  0  0  0  0  0  0  0  0  0  0
    0.4620    2.0580   -0.0930 C   0  0  0  0  0  0  0  0  0  0  0  0
    1.9110    1.7060   -0.2720 C   0  0  0  0  0  0  0  0  0  0  0  0
    2.1030    0.3140   -0.1570 O   0  0  0  0  0  0  0  0  0  0  0  0
    3.3670   -0.2160   -0.3090 C   0  0  0  0  0  0  0  0  0  0  0  0
    3.5880   -1.5810   -0.1880 C   0  0  0  0  0  0  0  0  0  0  0  0
    4.8390   -2.1320   -0.3350 C   0  0  0  0  0  0  0  0  0  0  0  0
    5.9270   -1.3410   -0.6090 C   0  0  0  0  0  0  0  0  0  0  0  0
    5.7420    0.0300   -0.7370 C   0  0  0  0  0  0  0  0  0  0  0  0
    4.4730    0.5730   -0.5860 C   0  0  0  0  0  0  0  0  0  0  0  0
    6.8760    0.9500   -1.0350 C   0  0  1  0  0  0  0  0  0  0  0  0
    7.4830    1.2840    0.1800 O   0  0  0  0  0  0  0  0  0  0  0  0
    7.8980    0.1730   -1.8350 C   0  0  2  0  0  0  0  0  0  0  0  0
    7.3820   -0.3110   -3.0300 O   0  0  0  0  0  0  0  0  0  0  0  0
    8.3330   -1.0160   -0.9680 C   0  0  0  0  0  0  0  0  0  0  0  0
    7.1940   -1.8430   -0.7650 O   0  0  0  0  0  0  0  0  0  0  0  0
   -0.5250    1.0550    0.0890 N   0  0  0  0  0  0  0  0  0  0  0  0
   -1.9450    1.4080    0.2620 C   0  0  1  0  0  0  0  0  0  0  0  0
   -2.5880    1.0120   -1.0550 C   0  0  0  0  0  0  0  0  0  0  0  0
   -3.3230   -0.2720   -0.9630 C   0  0  2  0  0  0  0  0  0  0  0  0
   -3.4320   -0.8510   -2.3470 C   0  0  0  0  0  0  0  0  0  0  0  0
   -2.9220   -0.2670   -3.3160 O   0  0  0  0  0  0  0  0  0  0  0  0
   -4.1070   -2.0410   -2.5390 O   0  0  0  0  0  0  0  0  0  0  0  0
   -4.7270    0.0410   -0.5200 C   0  0  0  0  0  0  0  0  0  0  0  0
   -4.8500    0.9250    0.6480 C   0  0  1  0  0  0  0  0  0  0  0  0
   -6.2500    0.6600    1.2270 C   0  0  0  0  0  0  0  0  0  0  0  0
   -6.4170   -0.6850    1.6620 N   0  0  0  0  0  0  0  0  0  0  0  0
   -5.2260   -1.2730    2.2340 C   0  0  0  0  0  0  0  0  0  0  0  0
   -4.2720   -0.2520    2.7790 C   0  0  0  0  0  0  0  0  0  0  0  0
   -3.8980    0.8100    1.7620 C   0  0  1  0  0  0  0  0  0  0  0  0
   -2.4510    0.6900    1.4490 C   0  0  2  0  0  0  0  0  0  0  0  0
   -1.6710    1.1320    2.5490 O   0  0  0  0  0  0  0  0  0  0  0  0
  1  2  2  0
  2  3  1  0
  2 17  1  0
  3  4  1  0
  4  5  1  0
  5  6  2  0
  5 10  1  0
  6  7  1  0
  7  8  2  0
  8  9  1  0
  8 16  1  0
  9 10  2  0
  9 11  1  0
 11 12  1  1
 11 13  1  0
 13 14  1  6
 13 15  1  0
 15 16  1  0
 18 17  1  6
 18 19  1  0
 18 31  1  0
 19 20  1  0
 20 21  1  6
 20 24  1  0
 21 22  2  0
 21 23  1  0
 25 24  1  6
 25 26  1  0
 25 30  1  0
 26 27  1  0
 27 28  1  0
 28 29  1  0
 30 29  1  6
 30 31  1  0
 31 32  1  1
M  CHG  1  27   1
M  END
