
     RDKit          3D

 31 33  0  0  0  0  0  0  0  0999 V2000
   -0.5550   -2.9440    0.1510 C   0  0  0  0  0  0  0  0  0  0  0  0
   -0.1980   -1.6700    0.9290 C   0  0  1  0  0  0  0  0  0  0  0  0
    0.7910   -1.0200    0.1960 O   0  0  0  0  0  0  0  0  0  0  0  0
    2.0500   -0.6820    0.6280 C   0  0  0  0  0  0  0  0  0  0  0  0
    2.4980   -0.9590    1.8840 C   0  0  0  0  0  0  0  0  0  0  0  0
    3.7940   -0.5870    2.2620 C   0  0  0  0  0  0  0  0  0  0  0  0
    4.6410    0.0590    1.3910 C   0  0  0  0  0  0  0  0  0  0  0  0
    4.1870    0.3360    0.1290 C   0  0  0  0  0  0  0  0  0  0  0  0
    2.8910   -0.0310   -0.2630 C   0  0  0  0  0  0  0  0  0  0  0  0
    4.8590    0.9730   -0.9060 O   0  0  0  0  0  0  0  0  0  0  0  0
    6.2270    0.9210   -1.2590 C   0  0  1  0  0  0  0  0  0  0  0  0
    6.3230    0.1160   -2.5570 C   0  0  0  0  0  0  0  0  0  0  0  0
    6.6960    2.3290   -1.4810 C   0  0  0  0  0  0  0  0  0  0  0  0
    5.9040    2.8490   -2.5310 O   0  0  0  0  0  0  0  0  0  0  0  0
    6.9690    0.1790   -0.2020 C   0  0  0  0  0  0  0  0  0  0  0  0
    6.9170    0.7910    1.1480 C   0  0  0  0  0  0  0  0  0  0  0  0
    5.8660    0.3270    1.9860 N   0  0  0  0  0  0  0  0  0  0  0  0
   -1.4370   -0.8090    0.9090 C   0  0  0  0  0  0  0  0  0  0  0  0
   -1.3790    0.2630    0.2860 O   0  0  0  0  0  0  0  0  0  0  0  0
   -2.5820   -1.1670    1.5360 O   0  0  0  0  0  0  0  0  0  0  0  0
   -3.7990   -0.5470    1.6270 C   0  0  0  0  0  0  0  0  0  0  0  0
   -4.6160   -0.4110    0.3970 C   0  0  1  0  0  0  0  0  0  0  0  0
   -4.8770   -1.8100   -0.1420 C   0  0  0  0  0  0  0  0  0  0  0  0
   -6.0220    0.1400    0.7710 C   0  0  0  0  0  0  0  0  0  0  0  0
   -6.4750    0.9720   -0.3740 C   0  0  1  0  0  0  0  0  0  0  0  0
   -7.9070    0.7020   -0.7780 C   0  0  0  0  0  0  0  0  0  0  0  0
   -6.4020    2.3560   -0.1020 O   0  0  0  0  0  0  0  0  0  0  0  0
   -5.5030    0.6750   -1.4780 C   0  0  2  0  0  0  0  0  0  0  0  0
   -5.7370   -0.5430   -2.1820 N   0  0  0  0  0  0  0  0  0  0  0  0
   -4.1890    0.5200   -0.6630 C   0  0  1  0  0  0  0  0  0  0  0  0
   -3.9520    1.7970   -0.1740 O   0  0  0  0  0  0  0  0  0  0  0  0
  2  1  1  6
  2  3  1  0
  2 18  1  0
  3  4  1  0
  4  5  2  0
  4  9  1  0
  5  6  1  0
  6  7  2  0
  7  8  1  0
  7 17  1  0
  8  9  2  0
  8 10  1  0
 10 11  1  0
 11 12  1  6
 11 13  1  0
 11 15  1  0
 13 14  1  0
 15 16  1  0
 16 17  1  0
 18 19  2  0
 18 20  1  0
 20 21  1  0
 21 22  1  0
 22 23  1  6
 22 24  1  0
 22 30  1  0
 24 25  1  0
 25 26  1  6
 25 27  1  0
 25 28  1  0
 28 29  1  1
 28 30  1  0
 30 31  1  1
M  CHG  1  17   1
M  END
