
     RDKit          3D

 33 37  0  0  0  0  0  0  0  0999 V2000
   -1.9720   -1.4070   -3.6970 C   0  0  0  0  0  0  0  0  0  0  0  0
   -0.6650   -0.6730   -3.6070 C   0  0  0  0  0  0  0  0  0  0  0  0
   -0.5250    0.2130   -2.4060 C   0  0  0  0  0  0  0  0  0  0  0  0
   -0.6390   -0.4620   -1.1410 N   0  0  0  0  0  0  0  0  0  0  0  0
   -1.7690   -0.6730   -0.4560 C   0  0  0  0  0  0  0  0  0  0  0  0
   -3.1520   -0.3430   -0.7240 C   0  0  1  0  0  0  0  0  0  0  0  0
   -3.9070   -0.3150    0.6320 C   0  0  0  0  0  0  0  0  0  0  0  0
   -3.3210    0.8770    1.3960 C   0  0  0  0  0  0  0  0  0  0  0  0
   -3.7080    2.0870    0.7430 N   0  0  1  0  0  0  0  0  0  0  0  0
   -3.4880    3.2860    1.4720 C   0  0  0  0  0  0  0  0  0  0  0  0
   -2.9660    2.1560   -0.5270 C   0  0  0  0  0  0  0  0  0  0  0  0
   -3.4830    0.9640   -1.3250 C   0  0  0  0  0  0  0  0  0  0  0  0
   -1.3720   -1.3380    0.6750 N   0  0  0  0  0  0  0  0  0  0  0  0
   -0.0680   -1.5250    0.6840 C   0  0  0  0  0  0  0  0  0  0  0  0
    0.7900   -2.1850    1.6850 C   0  0  0  0  0  0  0  0  0  0  0  0
    1.4650   -3.3350    1.3320 C   0  0  0  0  0  0  0  0  0  0  0  0
    2.2870   -3.9990    2.2250 C   0  0  0  0  0  0  0  0  0  0  0  0
    2.4180   -3.4760    3.4980 C   0  0  0  0  0  0  0  0  0  0  0  0
    3.4510   -4.2830    4.6690 Cl  0  0  0  0  0  0  0  0  0  0  0  0
    1.7590   -2.3270    3.8880 C   0  0  0  0  0  0  0  0  0  0  0  0
    1.9020   -1.6450    5.4710 Cl  0  0  0  0  0  0  0  0  0  0  0  0
    0.9480   -1.6960    2.9620 C   0  0  0  0  0  0  0  0  0  0  0  0
    0.4190   -0.9780   -0.4570 C   0  0  0  0  0  0  0  0  0  0  0  0
    1.8140   -0.9340   -0.8720 C   0  0  0  0  0  0  0  0  0  0  0  0
    2.3450   -1.7230   -1.8580 C   0  0  0  0  0  0  0  0  0  0  0  0
    3.6830   -1.5850   -2.1550 C   0  0  0  0  0  0  0  0  0  0  0  0
    4.4430   -0.6810   -1.4750 N   0  0  0  0  0  0  0  0  0  0  0  0
    3.9080    0.0840   -0.5110 C   0  0  0  0  0  0  0  0  0  0  0  0
    4.6540    1.0310    0.2260 N   0  0  0  0  0  0  0  0  0  0  0  0
    4.1230    1.8620    1.2580 C   0  0  2  0  0  0  0  0  0  0  0  0
    3.0480    2.8390    1.0770 C   0  0  0  0  0  0  0  0  0  0  0  0
    4.4440    3.3420    1.0680 C   0  0  0  0  0  0  0  0  0  0  0  0
    2.6070   -0.0640   -0.2360 N   0  0  0  0  0  0  0  0  0  0  0  0
  1  2  1  0
  2  3  1  0
  3  4  1  0
  4  5  1  0
  4 23  1  0
  6  5  1  1
  5 13  2  0
  6  7  1  0
  6 12  1  0
  7  8  1  0
  8  9  1  0
  9 10  1  1
  9 11  1  0
 11 12  1  0
 13 14  1  0
 14 15  1  0
 14 23  2  0
 15 16  2  0
 15 22  1  0
 16 17  1  0
 17 18  2  0
 18 19  1  0
 18 20  1  0
 20 21  1  0
 20 22  2  0
 23 24  1  0
 24 25  2  0
 24 33  1  0
 25 26  1  0
 26 27  2  0
 27 28  1  0
 28 29  1  0
 28 33  2  0
 30 29  1  6
 30 31  1  0
 30 32  1  0
 31 32  1  0
M  CHG  1   9   1
M  END
