
     RDKit          3D

 31 33  0  0  0  0  0  0  0  0999 V2000
   -6.9750   -0.4800   -1.5960 N   0  0  0  0  0  0  0  0  0  0  0  0
   -6.6710   -0.3180   -0.1920 C   0  0  0  0  0  0  0  0  0  0  0  0
   -5.4680    0.5510    0.0560 C   0  0  1  0  0  0  0  0  0  0  0  0
   -5.2700    0.6300    1.5550 C   0  0  0  0  0  0  0  0  0  0  0  0
   -4.6820   -0.6200    2.1360 C   0  0  0  0  0  0  0  0  0  0  0  0
   -3.9060   -1.4470    1.1810 C   0  0  0  0  0  0  0  0  0  0  0  0
   -3.2460   -0.6320    0.0710 C   0  0  2  0  0  0  0  0  0  0  0  0
   -2.7210   -1.7060   -0.8940 C   0  0  0  0  0  0  0  0  0  0  0  0
   -1.8640   -0.9970   -1.9100 C   0  0  0  0  0  0  0  0  0  0  0  0
   -0.6210   -0.5700   -1.2130 C   0  0  0  0  0  0  0  0  0  0  0  0
   -0.7740   -0.1310    0.1870 C   0  0  1  0  0  0  0  0  0  0  0  0
    0.2130    0.9930    0.4570 C   0  0  2  0  0  0  0  0  0  0  0  0
   -0.0650    2.0300   -0.4030 O   0  0  0  0  0  0  0  0  0  0  0  0
    1.5890    0.4600    0.1460 C   0  0  0  0  0  0  0  0  0  0  0  0
    2.7010    1.4130    0.3500 C   0  0  2  0  0  0  0  0  0  0  0  0
    2.7850    1.8930    1.7940 C   0  0  0  0  0  0  0  0  0  0  0  0
    3.8320    2.7930    1.9470 O   0  0  0  0  0  0  0  0  0  0  0  0
    2.6150    2.6570   -0.5020 C   0  0  0  0  0  0  0  0  0  0  0  0
    2.6600    2.3720   -1.8680 O   0  0  0  0  0  0  0  0  0  0  0  0
    3.9620    0.7710    0.0420 N   0  0  0  0  0  0  0  0  0  0  0  0
    4.4690   -0.3700    0.7210 C   0  0  0  0  0  0  0  0  0  0  0  0
    3.8200   -0.8860    1.6520 O   0  0  0  0  0  0  0  0  0  0  0  0
    5.7660   -0.9870    0.3610 C   0  0  1  0  0  0  0  0  0  0  0  0
    5.6420   -2.4670    0.0850 C   0  0  0  0  0  0  0  0  0  0  0  0
    6.7860   -2.8670   -0.6310 O   0  0  0  0  0  0  0  0  0  0  0  0
    7.8970   -2.1480   -0.2110 C   0  0  0  0  0  0  0  0  0  0  0  0
    7.7720   -0.6740   -0.5880 C   0  0  0  0  0  0  0  0  0  0  0  0
    6.4030   -0.3380   -0.6830 O   0  0  0  0  0  0  0  0  0  0  0  0
   -2.1580    0.2000    0.6310 C   0  0  1  0  0  0  0  0  0  0  0  0
   -2.4040    1.5310    0.2900 O   0  0  0  0  0  0  0  0  0  0  0  0
   -4.2600    0.1790   -0.7030 C   0  0  0  0  0  0  0  0  0  0  0  0
  1  2  1  0
  3  2  1  1
  3  4  1  0
  3 31  1  0
  4  5  1  0
  5  6  1  0
  7  6  1  1
  7  8  1  0
  7 29  1  0
  7 31  1  0
  8  9  1  0
  9 10  1  0
 11 10  1  6
 11 12  1  0
 11 29  1  0
 12 13  1  6
 12 14  1  0
 15 14  1  1
 15 16  1  0
 15 18  1  0
 15 20  1  0
 16 17  1  0
 18 19  1  0
 20 21  1  0
 21 22  2  0
 23 21  1  6
 23 24  1  0
 23 28  1  0
 24 25  1  0
 25 26  1  0
 26 27  1  0
 27 28  1  0
 29 30  1  6
M  CHG  1   1   1
M  END
