
     RDKit          3D

 32 34  0  0  0  0  0  0  0  0999 V2000
    5.8360   -3.1820    0.8990 C   0  0  0  0  0  0  0  0  0  0  0  0
    4.5510   -3.0820    0.2690 O   0  0  0  0  0  0  0  0  0  0  0  0
    3.8450   -1.8990    0.3350 C   0  0  0  0  0  0  0  0  0  0  0  0
    4.3710   -0.8200    1.0030 C   0  0  0  0  0  0  0  0  0  0  0  0
    3.6540    0.3500    1.0580 C   0  0  0  0  0  0  0  0  0  0  0  0
    2.3840    0.5260    0.4630 C   0  0  0  0  0  0  0  0  0  0  0  0
    1.8720   -0.5850   -0.2090 C   0  0  0  0  0  0  0  0  0  0  0  0
    2.6100   -1.7620   -0.2570 C   0  0  0  0  0  0  0  0  0  0  0  0
    0.5680   -0.6230   -0.9160 C   0  0  1  0  0  0  0  0  0  0  0  0
    0.7360   -1.2880   -2.2020 N   0  0  0  0  0  0  0  0  0  0  0  0
   -0.6040   -1.1310   -0.1200 C   0  0  2  0  0  0  0  0  0  0  0  0
   -0.9010   -2.5990   -0.3860 C   0  0  0  0  0  0  0  0  0  0  0  0
   -1.8130   -2.8470   -1.5330 C   0  0  0  0  0  0  0  0  0  0  0  0
   -3.1550   -2.3290   -1.0720 C   0  0  0  0  0  0  0  0  0  0  0  0
   -3.1180   -0.9530   -0.5410 C   0  0  2  0  0  0  0  0  0  0  0  0
   -3.8690   -0.1840   -1.4690 O   0  0  0  0  0  0  0  0  0  0  0  0
   -1.8220   -0.2730   -0.2920 C   0  0  2  0  0  0  0  0  0  0  0  0
   -1.5640    0.5080   -1.4470 O   0  0  0  0  0  0  0  0  0  0  0  0
   -2.0490    0.7600    0.7980 C   0  0  1  0  0  0  0  0  0  0  0  0
   -3.4880    0.8330    1.2880 C   0  0  0  0  0  0  0  0  0  0  0  0
   -1.2780    0.4060    2.0810 C   0  0  0  0  0  0  0  0  0  0  0  0
   -1.6250    1.4770    3.0970 C   0  0  0  0  0  0  0  0  0  0  0  0
   -0.8740    1.1450    4.2590 O   0  0  0  0  0  0  0  0  0  0  0  0
   -1.6730    2.0380    0.4620 O   0  0  0  0  0  0  0  0  0  0  0  0
   -1.6970    2.8980   -0.5510 C   0  0  0  0  0  0  0  0  0  0  0  0
   -2.6580    3.7400   -0.8280 O   0  0  0  0  0  0  0  0  0  0  0  0
   -0.6170    2.9860   -1.4780 N   0  0  0  0  0  0  0  0  0  0  0  0
    0.7910    3.0850   -1.1490 C   0  0  1  0  0  0  0  0  0  0  0  0
    1.3100    4.5050   -1.4360 C   0  0  0  0  0  0  0  0  0  0  0  0
    1.0560    2.7000    0.2620 C   0  0  0  0  0  0  0  0  0  0  0  0
    0.4060    3.4850    1.0770 O   0  0  0  0  0  0  0  0  0  0  0  0
    1.8300    1.7180    0.6100 O   0  0  0  0  0  0  0  0  0  0  0  0
  1  2  1  0
  2  3  1  0
  3  4  2  0
  3  8  1  0
  4  5  1  0
  5  6  2  0
  6  7  1  0
  6 32  1  0
  7  8  2  0
  7  9  1  0
  9 10  1  6
  9 11  1  0
 11 12  1  6
 11 17  1  0
 12 13  1  0
 13 14  1  0
 14 15  1  0
 15 16  1  6
 15 17  1  0
 17 18  1  6
 17 19  1  0
 19 20  1  1
 19 21  1  0
 19 24  1  0
 21 22  1  0
 22 23  1  0
 24 25  1  0
 25 26  2  0
 25 27  1  0
 27 28  1  0
 28 29  1  1
 28 30  1  0
 30 31  2  0
 30 32  1  0
M  CHG  1  10   1
M  END
