
     RDKit          3D

 31 33  0  0  0  0  0  0  0  0999 V2000
   -5.2770    2.5400   -0.5140 C   0  0  0  0  0  0  0  0  0  0  0  0
   -5.7110    1.1720    0.0280 C   0  0  1  0  0  0  0  0  0  0  0  0
   -6.4060    0.4700   -1.0950 C   0  0  0  0  0  0  0  0  0  0  0  0
   -6.2030   -1.0310   -1.0600 C   0  0  0  0  0  0  0  0  0  0  0  0
   -4.7120   -1.2360   -1.1940 C   0  0  0  0  0  0  0  0  0  0  0  0
   -4.0830   -0.7890    0.0840 C   0  0  1  0  0  0  0  0  0  0  0  0
   -4.2680   -1.9590    1.0640 C   0  0  0  0  0  0  0  0  0  0  0  0
   -3.6700   -3.1190    0.6210 O   0  0  0  0  0  0  0  0  0  0  0  0
   -2.5480   -0.6790   -0.0740 C   0  0  2  0  0  0  0  0  0  0  0  0
   -2.1590   -1.9880   -0.4350 O   0  0  0  0  0  0  0  0  0  0  0  0
   -1.9260   -0.3680    1.2220 C   0  0  0  0  0  0  0  0  0  0  0  0
   -0.8870    0.6920    1.2400 C   0  0  0  0  0  0  0  0  0  0  0  0
   -0.1790    0.9110    0.0000 N   0  0  1  0  0  0  0  0  0  0  0  0
    0.7540   -0.1190   -0.3150 C   0  0  0  0  0  0  0  0  0  0  0  0
    2.1550    0.2470    0.0310 C   0  0  1  0  0  0  0  0  0  0  0  0
    3.0690   -0.7700   -0.2530 O   0  0  0  0  0  0  0  0  0  0  0  0
    4.3720   -0.3530   -0.3100 C   0  0  2  0  0  0  0  0  0  0  0  0
    5.3760   -1.3780    0.1260 C   0  0  1  0  0  0  0  0  0  0  0  0
    5.3170   -2.5300   -0.6660 O   0  0  0  0  0  0  0  0  0  0  0  0
    6.7310   -0.7950   -0.0830 C   0  0  0  0  0  0  0  0  0  0  0  0
    7.1560   -0.3990   -1.3510 O   0  0  0  0  0  0  0  0  0  0  0  0
    7.5820   -0.6280    0.9180 C   0  0  0  0  0  0  0  0  0  0  0  0
    8.9330   -0.0480    0.7200 C   0  0  0  0  0  0  0  0  0  0  0  0
    9.1790    0.2830   -0.5950 O   0  0  0  0  0  0  0  0  0  0  0  0
    4.6480    0.9120    0.5140 C   0  0  0  0  0  0  0  0  0  0  0  0
    3.8940    1.9680   -0.1400 N   0  0  0  0  0  0  0  0  0  0  0  0
    2.5970    1.5270   -0.6020 C   0  0  0  0  0  0  0  0  0  0  0  0
    1.9450    2.1770   -1.4450 O   0  0  0  0  0  0  0  0  0  0  0  0
   -1.1470    1.1970   -1.0200 C   0  0  0  0  0  0  0  0  0  0  0  0
   -2.2330    0.2210   -1.2090 C   0  0  0  0  0  0  0  0  0  0  0  0
   -4.6130    0.4580    0.6840 C   0  0  0  0  0  0  0  0  0  0  0  0
  2  1  1  6
  2  3  1  0
  2 31  1  0
  3  4  1  0
  4  5  1  0
  5  6  1  0
  6  7  1  1
  6  9  1  0
  6 31  1  0
  7  8  1  0
  9 10  1  6
  9 11  1  0
  9 30  1  0
 11 12  1  0
 12 13  1  0
 13 14  1  6
 13 29  1  0
 15 14  1  6
 15 16  1  0
 15 27  1  0
 16 17  1  0
 17 18  1  0
 17 25  1  1
 18 19  1  6
 18 20  1  0
 20 21  1  0
 20 22  2  3
 22 23  1  0
 23 24  1  0
 25 26  1  0
 26 27  1  0
 27 28  2  0
 29 30  1  0
M  CHG  1  13   1
M  END
