
     RDKit          3D

 10  9  0  0  0  0  0  0  0  0999 V2000
    2.5550    1.1130   -0.3730 C   0  0  0  0  0  0  0  0  0  0  0  0
    1.6400    0.3190   -0.7800 C   0  0  0  0  0  0  0  0  0  0  0  0
    0.3370   -0.1410   -0.3220 C   0  0  0  0  0  0  0  0  0  0  0  0
   -0.1750   -1.0240   -1.2230 C   0  0  0  0  0  0  0  0  0  0  0  0
   -1.3740   -1.7650   -1.2650 C   0  0  0  0  0  0  0  0  0  0  0  0
   -1.6130   -2.5300   -2.3090 N   0  0  0  0  0  0  0  0  0  0  0  0
   -0.4220    0.3680    0.7430 C   0  0  0  0  0  0  0  0  0  0  0  0
   -1.9070   -0.0000    0.6720 N   0  0  0  0  0  0  0  0  0  0  0  0
   -0.3150    1.1100    1.8070 C   0  0  0  0  0  0  0  0  0  0  0  0
    0.8280    1.7140    2.2920 N   0  0  0  0  0  0  0  0  0  0  0  0
  1  2  2  0
  2  3  1  0
  3  4  2  3
  3  7  1  0
  4  5  1  0
  5  6  2  0
  7  8  1  0
  7  9  2  3
  9 10  1  0
M  CHG  2   6   1  10   1
M  END
