
     RDKit          3D

 10  9  0  0  0  0  0  0  0  0999 V2000
    1.4540    0.0180    1.6630 C   0  0  0  0  0  0  0  0  0  0  0  0
    0.5160   -0.0200    0.5250 C   0  0  0  0  0  0  0  0  0  0  0  0
    0.9190   -0.6910   -0.5410 C   0  0  0  0  0  0  0  0  0  0  0  0
    2.2100   -1.3870   -0.6640 C   0  0  0  0  0  0  0  0  0  0  0  0
    3.0280   -0.8810   -1.7520 N   0  0  0  0  0  0  0  0  0  0  0  0
   -0.8000    0.6040    0.4870 C   0  0  0  0  0  0  0  0  0  0  0  0
   -1.2750    1.2920    1.5030 C   0  0  0  0  0  0  0  0  0  0  0  0
   -2.5450    1.9050    1.4890 N   0  0  0  0  0  0  0  0  0  0  0  0
   -1.6860    0.5060   -0.6970 C   0  0  0  0  0  0  0  0  0  0  0  0
   -2.0870   -0.8160   -1.0550 N   0  0  0  0  0  0  0  0  0  0  0  0
  1  2  1  0
  2  3  2  3
  2  6  1  0
  3  4  1  0
  4  5  1  0
  6  7  2  3
  6  9  1  0
  7  8  1  0
  9 10  1  0
M  CHG  3   5   1   8   1  10   1
M  END
