
     RDKit          3D

 10 10  0  0  0  0  0  0  0  0999 V2000
   -3.0700    0.7890    0.4110 N   0  0  0  0  0  0  0  0  0  0  0  0
   -2.4910    0.1310   -0.7420 C   0  0  0  0  0  0  0  0  0  0  0  0
   -1.0110    0.3140   -0.8310 C   0  0  0  0  0  0  0  0  0  0  0  0
   -0.2820   -0.2390    0.3770 C   0  0  1  0  0  0  0  0  0  0  0  0
   -0.5220   -1.6540    0.5300 N   0  0  0  0  0  0  0  0  0  0  0  0
    1.1910    0.0220    0.1950 C   0  0  0  0  0  0  0  0  0  0  0  0
    1.9550    0.7360    1.0010 C   0  0  0  0  0  0  0  0  0  0  0  0
    3.3440    0.7480    0.4670 C   0  0  0  0  0  0  0  0  0  0  0  0
    3.1930   -0.0690   -0.7440 C   0  0  0  0  0  0  0  0  0  0  0  0
    1.9800   -0.4670   -0.8790 N   0  0  0  0  0  0  0  0  0  0  0  0
  1  2  1  0
  2  3  1  0
  3  4  1  0
  4  5  1  6
  4  6  1  0
  6  7  2  0
  6 10  1  0
  7  8  1  0
  8  9  1  0
  9 10  2  0
M  CHG  3   1   1   5   1  10   1
M  END
