
     RDKit          3D

 10  9  0  0  0  0  0  0  0  0999 V2000
   -0.5060   -2.5050    1.3260 C   0  0  0  0  0  0  0  0  0  0  0  0
    0.1840   -1.4220    0.9770 C   0  0  0  0  0  0  0  0  0  0  0  0
    1.3600   -1.2160    1.7160 N   0  0  0  0  0  0  0  0  0  0  0  0
   -0.3200   -0.4820   -0.0610 C   0  0  0  0  0  0  0  0  0  0  0  0
   -1.6500   -0.9020   -0.5590 C   0  0  0  0  0  0  0  0  0  0  0  0
   -2.4030   -0.2130   -1.4920 N   0  0  0  0  0  0  0  0  0  0  0  0
    0.3020    0.5750   -0.4750 C   0  0  0  0  0  0  0  0  0  0  0  0
   -0.2810    1.5080   -1.5370 C   0  0  0  0  0  0  0  0  0  0  0  0
    1.6830    0.9850   -0.1020 C   0  0  0  0  0  0  0  0  0  0  0  0
    1.7290    2.2070    0.6390 N   0  0  0  0  0  0  0  0  0  0  0  0
  1  2  2  0
  2  3  1  0
  2  4  1  0
  4  5  1  0
  4  7  2  3
  5  6  1  0
  7  8  1  0
  7  9  1  0
  9 10  1  0
M  CHG  3   3   1   6   1  10   1
M  END
