
     RDKit          3D

 10  9  0  0  0  0  0  0  0  0999 V2000
    1.5990   -1.4390    0.5800 C   0  0  0  0  0  0  0  0  0  0  0  0
    1.5180   -0.2430   -0.2660 C   0  0  1  0  0  0  0  0  0  0  0  0
    0.2200    0.2650   -0.6800 C   0  0  0  0  0  0  0  0  0  0  0  0
   -0.9910    0.1180   -0.2520 C   0  0  0  0  0  0  0  0  0  0  0  0
   -2.1320    0.8350   -0.9800 C   0  0  0  0  0  0  0  0  0  0  0  0
   -2.8110    1.7300   -0.0810 N   0  0  0  0  0  0  0  0  0  0  0  0
   -1.4200   -0.6490    0.9230 C   0  0  0  0  0  0  0  0  0  0  0  0
   -2.3190   -1.7490    0.5490 N   0  0  0  0  0  0  0  0  0  0  0  0
    2.4100    0.9160    0.1520 C   0  0  0  0  0  0  0  0  0  0  0  0
    3.8090    0.5330    0.1430 N   0  0  0  0  0  0  0  0  0  0  0  0
  2  1  1  1
  2  3  1  0
  2  9  1  0
  3  4  2  3
  4  5  1  0
  4  7  1  0
  5  6  1  0
  7  8  1  0
  9 10  1  0
M  CHG  3   6   1   8   1  10   1
M  END
