
     RDKit          3D

 23 25  0  0  0  0  0  0  0  0999 V2000
    7.9020    1.3890    1.4750 C   0  0  0  0  0  0  0  0  0  0  0  0
    6.5760    0.7070    1.1270 C   0  0  0  0  0  0  0  0  0  0  0  0
    5.6010    1.7300    1.1130 O   0  0  0  0  0  0  0  0  0  0  0  0
    4.2790    1.4490    0.8290 C   0  0  0  0  0  0  0  0  0  0  0  0
    3.8650    0.2320    0.5480 C   0  0  0  0  0  0  0  0  0  0  0  0
    2.4580    0.0180    0.2610 C   0  0  0  0  0  0  0  0  0  0  0  0
    2.0500   -1.2050   -0.0210 C   0  0  0  0  0  0  0  0  0  0  0  0
    2.8350   -2.4250   -0.0890 C   0  0  0  0  0  0  0  0  0  0  0  0
    2.0020   -3.3590   -0.3970 N   0  0  0  0  0  0  0  0  0  0  0  0
    0.7080   -2.8440   -0.5390 N   0  0  0  0  0  0  0  0  0  0  0  0
    0.6780   -1.5830   -0.3290 C   0  0  0  0  0  0  0  0  0  0  0  0
   -0.7630   -0.5450   -0.4090 S   0  0  0  0  0  0  0  0  0  0  0  0
   -2.1910   -1.5380   -0.8330 C   0  0  0  0  0  0  0  0  0  0  0  0
   -3.4410   -0.7390   -0.9190 C   0  0  0  0  0  0  0  0  0  0  0  0
   -3.8060   -0.1720   -2.1300 C   0  0  0  0  0  0  0  0  0  0  0  0
   -4.9610    0.5740   -2.2420 C   0  0  0  0  0  0  0  0  0  0  0  0
   -5.7890    0.7840   -1.1620 C   0  0  0  0  0  0  0  0  0  0  0  0
   -6.9430    1.4490   -0.9810 N   0  0  0  0  0  0  0  0  0  0  0  0
   -7.3480    1.3390    0.2990 C   0  0  0  0  0  0  0  0  0  0  0  0
   -8.3970    1.8430    0.8190 O   0  0  0  0  0  0  0  0  0  0  0  0
   -6.4120    0.5880    0.9070 N   0  0  0  0  0  0  0  0  0  0  0  0
   -5.4420    0.2290    0.0460 C   0  0  0  0  0  0  0  0  0  0  0  0
   -4.2780   -0.5220    0.1550 C   0  0  0  0  0  0  0  0  0  0  0  0
  1  2  1  0
  2  3  1  0
  3  4  1  0
  4  5  2  3
  5  6  1  0
  6  7  2  3
  7  8  1  0
  7 11  1  0
  8  9  2  0
  9 10  1  0
 10 11  2  0
 11 12  1  0
 12 13  1  0
 13 14  1  0
 14 15  2  0
 14 23  1  0
 15 16  1  0
 16 17  2  0
 17 18  1  0
 17 22  1  0
 18 19  1  0
 19 20  2  0
 19 21  1  0
 21 22  1  0
 22 23  2  0
M  END
