
     RDKit          3D

 10  9  0  0  0  0  0  0  0  0999 V2000
    4.9150   -0.3060   -0.0600 N   0  0  0  0  0  0  0  0  0  0  0  0
    3.6140    0.3000    0.0090 C   0  0  0  0  0  0  0  0  0  0  0  0
    2.7290   -0.3620    1.0350 C   0  0  0  0  0  0  0  0  0  0  0  0
    1.3890    0.2980    1.0730 C   0  0  0  0  0  0  0  0  0  0  0  0
    0.6510    0.2450   -0.2310 C   0  0  0  0  0  0  0  0  0  0  0  0
   -0.6250    0.9160   -0.0610 N   0  0  0  0  0  0  0  0  0  0  0  0
   -1.6690   -0.0370   -0.3680 C   0  0  0  0  0  0  0  0  0  0  0  0
   -2.9880    0.6660   -0.6500 C   0  0  0  0  0  0  0  0  0  0  0  0
   -4.0580   -0.3780   -0.9680 C   0  0  0  0  0  0  0  0  0  0  0  0
   -4.1840   -1.2490    0.1900 N   0  0  0  0  0  0  0  0  0  0  0  0
  1  2  1  0
  2  3  1  0
  3  4  1  0
  4  5  1  0
  5  6  1  0
  6  7  1  0
  7  8  1  0
  8  9  1  0
  9 10  1  0
M  CHG  3   1   1   6   1  10   1
M  END
