
     RDKit          3D

 10  9  0  0  0  0  0  0  0  0999 V2000
   -1.2850    2.5760    0.5420 C   0  0  0  0  0  0  0  0  0  0  0  0
   -1.9560    1.5050    0.1550 C   0  0  0  0  0  0  0  0  0  0  0  0
   -1.2560    0.2230   -0.0850 C   0  0  0  0  0  0  0  0  0  0  0  0
   -1.9840   -0.8010   -0.4680 C   0  0  0  0  0  0  0  0  0  0  0  0
   -3.3730   -0.7100   -0.6500 N   0  0  0  0  0  0  0  0  0  0  0  0
    0.2110    0.1280    0.1080 C   0  0  0  0  0  0  0  0  0  0  0  0
    0.6620   -1.1860   -0.1770 N   0  0  0  0  0  0  0  0  0  0  0  0
    2.0790   -1.3840   -0.0490 C   0  0  0  0  0  0  0  0  0  0  0  0
    2.7850   -0.4790    0.8950 C   0  0  0  0  0  0  0  0  0  0  0  0
    2.6940    0.9200    0.5830 N   0  0  0  0  0  0  0  0  0  0  0  0
  1  2  2  0
  2  3  1  0
  3  4  2  3
  3  6  1  0
  4  5  1  0
  6  7  1  0
  7  8  1  0
  8  9  1  0
  9 10  1  0
M  CHG  2   5   1   7   1
M  END
