
     RDKit          3D

 37 41  0  0  0  0  0  0  0  0999 V2000
   -6.1790   -1.9600    0.7460 C   0  0  0  0  0  0  0  0  0  0  0  0
   -5.3320   -1.0550    0.0280 N   0  0  0  0  0  0  0  0  0  0  0  0
   -3.9690   -1.0050    0.4840 C   0  0  2  0  0  0  0  0  0  0  0  0
   -3.3350    0.2890    0.2190 C   0  0  0  0  0  0  0  0  0  0  0  0
   -3.9000    1.3800    0.8110 O   0  0  0  0  0  0  0  0  0  0  0  0
   -5.1510    1.7670    0.4960 C   0  0  0  0  0  0  0  0  0  0  0  0
   -5.3230    2.1790   -0.9570 C   0  0  0  0  0  0  0  0  0  0  0  0
   -5.7060    3.3290   -1.2650 N   0  0  0  0  0  0  0  0  0  0  0  0
   -5.8600    3.6940   -2.6310 C   0  0  0  0  0  0  0  0  0  0  0  0
   -5.6790    2.0470   -3.4140 S   0  0  0  0  0  0  0  0  0  0  0  0
   -5.0600    1.2890   -1.9710 O   0  0  0  0  0  0  0  0  0  0  0  0
   -3.1890   -2.2700    0.2060 C   0  0  2  0  0  0  0  0  0  0  0  0
   -3.2470   -2.7040   -1.2320 C   0  0  0  0  0  0  0  0  0  0  0  0
   -3.8780   -3.2500    0.9390 O   0  0  0  0  0  0  0  0  0  0  0  0
   -3.6640   -3.7220    2.1990 C   0  0  0  0  0  0  0  0  0  0  0  0
   -4.4980   -4.3800    2.8710 O   0  0  0  0  0  0  0  0  0  0  0  0
   -2.3690   -3.3910    2.7020 N   0  0  0  0  0  0  0  0  0  0  0  0
   -1.5300   -2.6600    1.8980 C   0  0  0  0  0  0  0  0  0  0  0  0
    0.2220   -2.2830    2.2190 S   0  0  0  0  0  0  0  0  0  0  0  0
    0.4860   -1.4910    0.6020 C   0  0  0  0  0  0  0  0  0  0  0  0
    1.7850   -0.9340    0.2160 C   0  0  0  0  0  0  0  0  0  0  0  0
    1.9210   -0.4340   -0.9120 O   0  0  0  0  0  0  0  0  0  0  0  0
    2.8610   -0.9480    1.0730 O   0  0  0  0  0  0  0  0  0  0  0  0
    4.1140   -0.4450    0.7850 C   0  0  0  0  0  0  0  0  0  0  0  0
    5.0910   -1.3760    0.4180 C   0  0  0  0  0  0  0  0  0  0  0  0
    6.3710   -0.9870    0.1110 C   0  0  0  0  0  0  0  0  0  0  0  0
    6.6950    0.3460    0.1660 C   0  0  0  0  0  0  0  0  0  0  0  0
    5.7240    1.2600    0.5290 C   0  0  0  0  0  0  0  0  0  0  0  0
    4.4360    0.8820    0.8390 C   0  0  0  0  0  0  0  0  0  0  0  0
    5.9530    2.7390    0.6140 C   0  0  0  0  0  0  0  0  0  0  0  0
    6.6900    3.1010   -0.6560 C   0  0  0  0  0  0  0  0  0  0  0  0
    8.1650    3.0020   -0.5820 C   0  0  0  0  0  0  0  0  0  0  0  0
    8.7010    1.8140    0.1480 C   0  0  0  0  0  0  0  0  0  0  0  0
    8.0400    0.5970   -0.1720 O   0  0  0  0  0  0  0  0  0  0  0  0
   -0.7230   -1.5680   -0.0270 C   0  0  0  0  0  0  0  0  0  0  0  0
   -0.7350   -0.9540   -1.4360 C   0  0  0  0  0  0  0  0  0  0  0  0
   -1.7440   -2.1530    0.6200 C   0  0  0  0  0  0  0  0  0  0  0  0
  1  2  1  0
  2  3  1  0
  3  4  1  6
  3 12  1  0
  4  5  1  0
  5  6  1  0
  6  7  1  0
  7  8  2  0
  7 11  1  0
  8  9  1  0
  9 10  1  0
 10 11  1  0
 12 13  1  6
 12 14  1  0
 12 37  1  0
 14 15  1  0
 15 16  2  0
 15 17  1  0
 17 18  1  0
 18 19  1  0
 18 37  2  0
 19 20  1  0
 20 21  1  0
 20 35  2  0
 21 22  2  0
 21 23  1  0
 23 24  1  0
 24 25  2  0
 24 29  1  0
 25 26  1  0
 26 27  2  0
 27 28  1  0
 27 34  1  0
 28 29  2  0
 28 30  1  0
 30 31  1  0
 31 32  1  0
 32 33  1  0
 33 34  1  0
 35 36  1  0
 35 37  1  0
M  END
