
     RDKit          3D

 37 41  0  0  0  0  0  0  0  0999 V2000
    8.4100   -0.8080    0.4560 C   0  0  0  0  0  0  0  0  0  0  0  0
    7.2000   -0.0130    0.1420 C   0  0  0  0  0  0  0  0  0  0  0  0
    7.2800    1.3460   -0.0330 C   0  0  0  0  0  0  0  0  0  0  0  0
    6.1200    2.0740   -0.3290 C   0  0  0  0  0  0  0  0  0  0  0  0
    6.1350    3.4620   -0.5190 N   0  0  0  0  0  0  0  0  0  0  0  0
    4.9870    1.3960   -0.4250 N   0  0  0  0  0  0  0  0  0  0  0  0
    4.8770    0.0680   -0.2590 C   0  0  0  0  0  0  0  0  0  0  0  0
    3.6260   -0.5990   -0.3770 N   0  0  0  0  0  0  0  0  0  0  0  0
    2.4670    0.2090   -0.6870 C   0  0  0  0  0  0  0  0  0  0  0  0
    1.3800   -0.7310   -1.1430 C   0  0  0  0  0  0  0  0  0  0  0  0
    1.1330   -1.7480   -0.1820 N   0  0  0  0  0  0  0  0  0  0  0  0
    0.4460   -1.3620    1.0030 C   0  0  0  0  0  0  0  0  0  0  0  0
   -0.9080   -0.8130    0.7360 C   0  0  0  0  0  0  0  0  0  0  0  0
   -1.0260    0.5460    0.5380 C   0  0  0  0  0  0  0  0  0  0  0  0
   -2.2920    1.0360    0.2910 C   0  0  0  0  0  0  0  0  0  0  0  0
   -2.4450    2.3960    0.0890 O   0  0  0  0  0  0  0  0  0  0  0  0
   -3.6710    2.9800   -0.1660 C   0  0  0  0  0  0  0  0  0  0  0  0
   -4.0950    3.1060   -1.4750 C   0  0  0  0  0  0  0  0  0  0  0  0
   -3.3660    2.6840   -2.5300 F   0  0  0  0  0  0  0  0  0  0  0  0
   -5.3200    3.6920   -1.7050 C   0  0  0  0  0  0  0  0  0  0  0  0
   -6.1240    4.1490   -0.6770 C   0  0  0  0  0  0  0  0  0  0  0  0
   -7.3340    4.7250   -0.9530 F   0  0  0  0  0  0  0  0  0  0  0  0
   -5.6650    4.0050    0.6140 C   0  0  0  0  0  0  0  0  0  0  0  0
   -4.4480    3.4260    0.8930 C   0  0  0  0  0  0  0  0  0  0  0  0
   -4.0540    3.3130    2.1760 F   0  0  0  0  0  0  0  0  0  0  0  0
   -3.3700    0.2230    0.2450 N   0  0  0  0  0  0  0  0  0  0  0  0
   -3.2190   -1.0980    0.4420 C   0  0  0  0  0  0  0  0  0  0  0  0
   -4.3880   -1.9760    0.3910 C   0  0  0  0  0  0  0  0  0  0  0  0
   -4.2430   -3.3330    0.5930 C   0  0  0  0  0  0  0  0  0  0  0  0
   -5.3080   -4.1970    0.5550 C   0  0  0  0  0  0  0  0  0  0  0  0
   -6.5760   -3.7170    0.3070 C   0  0  0  0  0  0  0  0  0  0  0  0
   -6.7440   -2.3660    0.1030 C   0  0  0  0  0  0  0  0  0  0  0  0
   -5.6540   -1.5110    0.1460 C   0  0  0  0  0  0  0  0  0  0  0  0
   -2.0050   -1.6230    0.6860 N   0  0  0  0  0  0  0  0  0  0  0  0
    2.2460   -2.6090   -0.0330 C   0  0  0  0  0  0  0  0  0  0  0  0
    3.5960   -2.0140   -0.1820 C   0  0  0  0  0  0  0  0  0  0  0  0
    6.0070   -0.6110    0.0250 N   0  0  0  0  0  0  0  0  0  0  0  0
  1  2  1  0
  2  3  2  0
  2 37  1  0
  3  4  1  0
  4  5  1  0
  4  6  2  0
  6  7  1  0
  7  8  1  0
  7 37  2  0
  8  9  1  0
  8 36  1  0
  9 10  1  0
 10 11  1  0
 11 12  1  0
 11 35  1  0
 12 13  1  0
 13 14  2  0
 13 34  1  0
 14 15  1  0
 15 16  1  0
 15 26  2  0
 16 17  1  0
 17 18  2  0
 17 24  1  0
 18 19  1  0
 18 20  1  0
 20 21  2  0
 21 22  1  0
 21 23  1  0
 23 24  2  0
 24 25  1  0
 26 27  1  0
 27 28  1  0
 27 34  2  0
 28 29  2  0
 28 33  1  0
 29 30  1  0
 30 31  2  0
 31 32  1  0
 32 33  2  0
 35 36  1  0
M  END
