
     RDKit          3D

 37 41  0  0  0  0  0  0  0  0999 V2000
    9.7030   -0.5160   -0.2800 C   0  0  0  0  0  0  0  0  0  0  0  0
    8.3910   -0.8230    0.1950 O   0  0  0  0  0  0  0  0  0  0  0  0
    8.1340   -1.9050    1.0090 C   0  0  0  0  0  0  0  0  0  0  0  0
    9.0990   -2.6400    1.3390 O   0  0  0  0  0  0  0  0  0  0  0  0
    6.7880   -2.2610    1.5250 C   0  0  0  0  0  0  0  0  0  0  0  0
    5.8690   -1.3330    1.0340 O   0  0  0  0  0  0  0  0  0  0  0  0
    5.7020   -1.2030   -0.3330 C   0  0  0  0  0  0  0  0  0  0  0  0
    6.3930   -1.9370   -1.0830 O   0  0  0  0  0  0  0  0  0  0  0  0
    4.7400   -0.2320   -0.9050 C   0  0  0  0  0  0  0  0  0  0  0  0
    4.0720    0.4410    0.1770 N   0  0  0  0  0  0  0  0  0  0  0  0
    4.4730    1.6780    0.8520 C   0  0  0  0  0  0  0  0  0  0  0  0
    3.0720    2.3010    0.9980 C   0  0  1  0  0  0  0  0  0  0  0  0
    2.6100    2.5670   -0.4090 C   0  0  0  0  0  0  0  0  0  0  0  0
    0.9760    3.2950   -0.4320 S   0  0  0  0  0  0  0  0  0  0  0  0
   -0.2140    2.0810    0.1790 C   0  0  0  0  0  0  0  0  0  0  0  0
   -0.3100    0.9160   -0.7440 C   0  0  0  0  0  0  0  0  0  0  0  0
    0.4600    0.9570   -1.7670 O   0  0  0  0  0  0  0  0  0  0  0  0
   -1.1810   -0.1690   -0.5260 N   0  0  0  0  0  0  0  0  0  0  0  0
   -1.1960   -1.2550   -1.4690 C   0  0  0  0  0  0  0  0  0  0  0  0
   -2.7810   -1.0980   -2.3460 S   0  0  0  0  0  0  0  0  0  0  0  0
   -3.9460   -0.6570   -1.0320 C   0  0  0  0  0  0  0  0  0  0  0  0
   -5.3000   -0.6900   -1.2880 C   0  0  0  0  0  0  0  0  0  0  0  0
   -6.1730   -0.3550   -0.2910 C   0  0  0  0  0  0  0  0  0  0  0  0
   -5.7380    0.0160    0.9620 C   0  0  0  0  0  0  0  0  0  0  0  0
   -4.3760    0.0550    1.2370 C   0  0  0  0  0  0  0  0  0  0  0  0
   -3.4960   -0.2890    0.2120 C   0  0  0  0  0  0  0  0  0  0  0  0
   -2.0560   -0.2160    0.6030 C   0  0  0  0  0  0  0  0  0  0  0  0
   -6.8430    0.2750    1.6780 N   0  0  0  0  0  0  0  0  0  0  0  0
   -7.9400    0.0810    0.9260 C   0  0  0  0  0  0  0  0  0  0  0  0
   -9.3100    0.1990    1.1500 C   0  0  0  0  0  0  0  0  0  0  0  0
  -10.2550   -0.0660    0.1820 C   0  0  0  0  0  0  0  0  0  0  0  0
   -9.8520   -0.4680   -1.0790 C   0  0  0  0  0  0  0  0  0  0  0  0
   -8.4850   -0.5940   -1.3310 C   0  0  0  0  0  0  0  0  0  0  0  0
   -7.5670   -0.3210   -0.3380 C   0  0  0  0  0  0  0  0  0  0  0  0
    2.3520    1.1980    1.5080 O   0  0  0  0  0  0  0  0  0  0  0  0
    2.8640    0.0800    0.8510 C   0  0  0  0  0  0  0  0  0  0  0  0
    2.3660   -1.0860    0.8320 O   0  0  0  0  0  0  0  0  0  0  0  0
  1  2  1  0
  2  3  1  0
  3  4  2  0
  3  5  1  0
  5  6  1  0
  6  7  1  0
  7  8  2  0
  7  9  1  0
  9 10  1  0
 10 11  1  0
 10 36  1  0
 11 12  1  0
 12 13  1  6
 12 35  1  0
 13 14  1  0
 14 15  1  0
 15 16  1  0
 16 17  2  0
 16 18  1  0
 18 19  1  0
 18 27  1  0
 19 20  1  0
 20 21  1  0
 21 22  2  0
 21 26  1  0
 22 23  1  0
 23 24  2  0
 23 34  1  0
 24 25  1  0
 24 28  1  0
 25 26  2  0
 26 27  1  0
 28 29  1  0
 29 30  2  0
 29 34  1  0
 30 31  1  0
 31 32  2  0
 32 33  1  0
 33 34  2  0
 35 36  1  0
 36 37  2  0
M  END
