
     RDKit          3D

 37 40  0  0  0  0  0  0  0  0999 V2000
    6.5070   -4.6800   -0.3700 C   0  0  0  0  0  0  0  0  0  0  0  0
    5.2050   -4.4880    0.4210 C   0  0  0  0  0  0  0  0  0  0  0  0
    4.6950   -3.1530    0.1900 N   0  0  0  0  0  0  0  0  0  0  0  0
    5.4770   -2.1420    0.2180 C   0  0  0  0  0  0  0  0  0  0  0  0
    6.8320   -2.1970    0.4590 O   0  0  0  0  0  0  0  0  0  0  0  0
    7.4080   -0.9250    0.4230 C   0  0  0  0  0  0  0  0  0  0  0  0
    6.2510    0.0280    0.1210 C   0  0  0  0  0  0  0  0  0  0  0  0
    6.1850    1.3780   -0.0330 C   0  0  0  0  0  0  0  0  0  0  0  0
    7.2580    2.4120    0.0440 C   0  0  0  0  0  0  0  0  0  0  0  0
    4.4770    1.6710   -0.3600 S   0  0  0  0  0  0  0  0  0  0  0  0
    3.9720   -0.0380   -0.2670 C   0  0  0  0  0  0  0  0  0  0  0  0
    2.6300   -0.5210   -0.4460 N   0  0  0  0  0  0  0  0  0  0  0  0
    1.5700    0.3800   -0.7170 C   0  0  0  0  0  0  0  0  0  0  0  0
    1.8410    1.6030   -0.7940 O   0  0  0  0  0  0  0  0  0  0  0  0
    0.1870   -0.1260   -0.9000 C   0  0  0  0  0  0  0  0  0  0  0  0
   -0.1870   -1.3740   -0.8390 C   0  0  0  0  0  0  0  0  0  0  0  0
   -1.6090   -1.4600   -1.0660 C   0  0  0  0  0  0  0  0  0  0  0  0
   -2.1300   -0.2490   -1.2650 C   0  0  0  0  0  0  0  0  0  0  0  0
   -3.8330    0.1180   -1.5840 S   0  0  0  0  0  0  0  0  0  0  0  0
   -4.9880   -1.1220   -1.1040 C   0  0  0  0  0  0  0  0  0  0  0  0
   -5.9320   -1.3270   -1.9700 O   0  0  0  0  0  0  0  0  0  0  0  0
   -4.9620   -1.8740    0.0780 N   0  0  0  0  0  0  0  0  0  0  0  0
   -5.9280   -2.9560    0.2460 C   0  0  0  0  0  0  0  0  0  0  0  0
   -5.0610   -4.1810    0.5740 C   0  0  0  0  0  0  0  0  0  0  0  0
   -4.3320   -3.9400    1.7120 O   0  0  0  0  0  0  0  0  0  0  0  0
   -3.4650   -2.8770    1.6580 C   0  0  0  0  0  0  0  0  0  0  0  0
   -4.0980   -1.5880    1.1740 C   0  0  0  0  0  0  0  0  0  0  0  0
   -1.0020    0.7120   -1.2230 C   0  0  1  0  0  0  0  0  0  0  0  0
   -1.1780    1.7750   -0.1530 C   0  0  0  0  0  0  0  0  0  0  0  0
   -2.2990    2.6730   -0.4400 C   0  0  0  0  0  0  0  0  0  0  0  0
   -2.9040    2.6520   -1.5290 O   0  0  0  0  0  0  0  0  0  0  0  0
   -2.7590    3.6100    0.4950 O   0  0  0  0  0  0  0  0  0  0  0  0
   -3.8530    4.4680    0.1790 C   0  0  0  0  0  0  0  0  0  0  0  0
   -4.1580    5.3690    1.3340 C   0  0  0  0  0  0  0  0  0  0  0  0
   -5.2030    6.1950    1.0610 O   0  0  0  0  0  0  0  0  0  0  0  0
   -5.0170    7.0390    0.0110 C   0  0  0  0  0  0  0  0  0  0  0  0
    5.1490   -0.7060    0.0080 C   0  0  0  0  0  0  0  0  0  0  0  0
  1  2  1  0
  2  3  1  0
  3  4  2  3
  4  5  1  0
  4 37  1  0
  5  6  1  0
  6  7  1  0
  7  8  2  0
  7 37  1  0
  8  9  1  0
  8 10  1  0
 10 11  1  0
 11 12  1  0
 11 37  2  0
 12 13  1  0
 13 14  2  0
 13 15  1  0
 15 16  2  0
 15 28  1  0
 16 17  1  0
 17 18  2  0
 18 19  1  0
 18 28  1  0
 19 20  1  0
 20 21  2  0
 20 22  1  0
 22 23  1  0
 22 27  1  0
 23 24  1  0
 24 25  1  0
 25 26  1  0
 26 27  1  0
 28 29  1  1
 29 30  1  0
 30 31  2  0
 30 32  1  0
 32 33  1  0
 33 34  1  0
 34 35  1  0
 35 36  1  0
M  END
