
     RDKit          3D

 30 33  0  0  0  0  0  0  0  0999 V2000
   -5.8140   -1.6260   -1.5250 F   0  0  0  0  0  0  0  0  0  0  0  0
   -4.8770   -1.4980   -0.5440 C   0  0  0  0  0  0  0  0  0  0  0  0
   -4.8410   -2.4530    0.4590 C   0  0  0  0  0  0  0  0  0  0  0  0
   -3.9210   -2.4190    1.4920 C   0  0  0  0  0  0  0  0  0  0  0  0
   -3.8630   -3.6530    2.7590 Cl  0  0  0  0  0  0  0  0  0  0  0  0
   -3.0250   -1.3670    1.4750 C   0  0  0  0  0  0  0  0  0  0  0  0
   -3.0150   -0.3710    0.4970 C   0  0  0  0  0  0  0  0  0  0  0  0
   -2.0400    0.7240    0.6320 C   0  0  1  0  0  0  0  0  0  0  0  0
   -0.8680    0.6360   -0.1800 N   0  0  0  0  0  0  0  0  0  0  0  0
   -0.7800   -0.6230   -0.8560 C   0  0  0  0  0  0  0  0  0  0  0  0
    0.3540   -0.7390   -1.7690 C   0  0  0  0  0  0  0  0  0  0  0  0
    0.1300   -1.0500   -3.1000 C   0  0  0  0  0  0  0  0  0  0  0  0
    1.1810   -1.1680   -3.9660 C   0  0  0  0  0  0  0  0  0  0  0  0
    2.4640   -0.9650   -3.4680 C   0  0  0  0  0  0  0  0  0  0  0  0
    2.6790   -0.6660   -2.1830 N   0  0  0  0  0  0  0  0  0  0  0  0
    1.6400   -0.5510   -1.3260 C   0  0  0  0  0  0  0  0  0  0  0  0
    1.8670   -0.2290    0.0250 N   0  0  0  0  0  0  0  0  0  0  0  0
    3.2060    0.0080    0.5140 C   0  0  2  0  0  0  0  0  0  0  0  0
    4.1340   -1.1300    0.5460 C   0  0  0  0  0  0  0  0  0  0  0  0
    4.8670   -1.1460    1.8870 C   0  0  0  0  0  0  0  0  0  0  0  0
    5.4810    0.1050    1.9980 O   0  0  0  0  0  0  0  0  0  0  0  0
    4.5690    1.1320    2.2230 C   0  0  0  0  0  0  0  0  0  0  0  0
    3.1650    0.6800    1.8830 C   0  0  0  0  0  0  0  0  0  0  0  0
   -2.6960    2.0660    0.3580 C   0  0  0  0  0  0  0  0  0  0  0  0
   -2.7640    2.6860   -0.8440 N   0  0  0  0  0  0  0  0  0  0  0  0
   -3.4150    3.8760   -0.7120 C   0  0  0  0  0  0  0  0  0  0  0  0
   -3.7380    5.0450   -1.9780 Cl  0  0  0  0  0  0  0  0  0  0  0  0
   -3.7410    3.9540    0.6110 C   0  0  0  0  0  0  0  0  0  0  0  0
   -3.3000    2.8550    1.2490 N   0  0  0  0  0  0  0  0  0  0  0  0
   -3.9620   -0.4720   -0.5040 C   0  0  0  0  0  0  0  0  0  0  0  0
  1  2  1  0
  2  3  2  0
  2 30  1  0
  3  4  1  0
  4  5  1  0
  4  6  2  0
  6  7  1  0
  7  8  1  0
  7 30  2  0
  8  9  1  6
  8 24  1  0
  9 10  1  0
 10 11  1  0
 11 12  2  0
 11 16  1  0
 12 13  1  0
 13 14  2  0
 14 15  1  0
 15 16  2  0
 16 17  1  0
 18 17  1  1
 18 19  1  0
 18 23  1  0
 19 20  1  0
 20 21  1  0
 21 22  1  0
 22 23  1  0
 24 25  2  0
 24 29  1  0
 25 26  1  0
 26 27  1  0
 26 28  2  0
 28 29  1  0
M  CHG  1  15   1
M  END
