
     RDKit          3D

 29 31  0  0  0  0  0  0  0  0999 V2000
    2.5090    5.8560    0.4650 C   0  0  0  0  0  0  0  0  0  0  0  0
    3.3180    5.0300   -0.4560 C   0  0  0  0  0  0  0  0  0  0  0  0
    2.7290    4.1450   -1.2230 C   0  0  0  0  0  0  0  0  0  0  0  0
    1.3280    3.9730   -1.1770 N   0  0  0  0  0  0  0  0  0  0  0  0
    0.8450    2.7920   -0.9920 C   0  0  0  0  0  0  0  0  0  0  0  0
   -0.5580    2.4530   -0.9210 C   0  0  0  0  0  0  0  0  0  0  0  0
   -0.7220    1.1040   -0.7220 C   0  0  0  0  0  0  0  0  0  0  0  0
   -2.0340    0.5180   -0.6090 C   0  0  0  0  0  0  0  0  0  0  0  0
   -2.4330   -0.6880   -0.4670 C   0  0  0  0  0  0  0  0  0  0  0  0
   -1.5900   -1.8330   -0.3930 N   0  0  0  0  0  0  0  0  0  0  0  0
   -1.5270   -2.8770    0.5700 C   0  0  0  0  0  0  0  0  0  0  0  0
   -0.4040   -3.3540    0.8610 O   0  0  0  0  0  0  0  0  0  0  0  0
   -2.7450   -3.4410    1.2600 C   0  0  0  0  0  0  0  0  0  0  0  0
   -3.6280   -2.3240    1.6920 C   0  0  0  0  0  0  0  0  0  0  0  0
   -4.5500   -1.8070    0.6320 C   0  0  0  0  0  0  0  0  0  0  0  0
   -3.8820   -0.8830   -0.2980 N   0  0  0  0  0  0  0  0  0  0  0  0
   -4.7290   -0.0710   -1.1250 C   0  0  0  0  0  0  0  0  0  0  0  0
   -5.5030   -0.9690   -2.1260 C   0  0  0  0  0  0  0  0  0  0  0  0
    0.5910    0.5090   -0.6480 C   0  0  0  0  0  0  0  0  0  0  0  0
    0.9250   -0.6900   -0.4330 N   0  0  0  0  0  0  0  0  0  0  0  0
    2.2260   -1.1970   -0.3740 C   0  0  0  0  0  0  0  0  0  0  0  0
    2.9690   -1.5760   -1.4570 C   0  0  0  0  0  0  0  0  0  0  0  0
    4.2480   -2.0660   -1.3130 C   0  0  0  0  0  0  0  0  0  0  0  0
    4.8310   -2.1950   -0.0760 C   0  0  0  0  0  0  0  0  0  0  0  0
    4.0980   -1.8170    1.0470 C   0  0  0  0  0  0  0  0  0  0  0  0
    4.7310   -1.9660    2.2640 O   0  0  0  0  0  0  0  0  0  0  0  0
    4.1610   -1.6440    3.5010 C   0  0  0  0  0  0  0  0  0  0  0  0
    2.8180   -1.3280    0.8830 C   0  0  0  0  0  0  0  0  0  0  0  0
    1.5480    1.5880   -0.8220 N   0  0  0  0  0  0  0  0  0  0  0  0
  1  2  1  0
  2  3  2  3
  3  4  1  0
  4  5  2  3
  5  6  1  0
  5 29  1  0
  6  7  2  0
  7  8  1  0
  7 19  1  0
  8  9  2  3
  9 10  1  0
  9 16  1  0
 10 11  1  0
 11 12  2  0
 11 13  1  0
 13 14  1  0
 14 15  1  0
 15 16  1  0
 16 17  1  0
 17 18  1  0
 19 20  2  3
 19 29  1  0
 20 21  1  0
 21 22  2  0
 21 28  1  0
 22 23  1  0
 23 24  2  0
 24 25  1  0
 25 26  1  0
 25 28  2  0
 26 27  1  0
M  CHG  1   4   1
M  END
