
     RDKit          3D

 29 32  0  0  0  0  0  0  0  0999 V2000
    1.0270    0.1600    1.7160 C   0  0  0  0  0  0  0  0  0  0  0  0
    0.6760    0.2410    0.1310 C   0  0  1  0  0  0  0  0  0  0  0  0
    1.1280   -0.9930   -0.2850 O   0  0  0  0  0  0  0  0  0  0  0  0
    2.3870   -1.0280   -0.9120 C   0  0  0  0  0  0  0  0  0  0  0  0
    3.5480   -0.6110   -0.1310 C   0  0  0  0  0  0  0  0  0  0  0  0
    3.9660   -1.4940    0.8790 C   0  0  0  0  0  0  0  0  0  0  0  0
    5.2050   -1.2590    1.4670 C   0  0  0  0  0  0  0  0  0  0  0  0
    5.8440   -2.4020    2.6750 Cl  0  0  0  0  0  0  0  0  0  0  0  0
    6.0050   -0.2050    1.0930 C   0  0  0  0  0  0  0  0  0  0  0  0
    5.5880    0.6800    0.0930 C   0  0  0  0  0  0  0  0  0  0  0  0
    6.2580    1.7760   -0.3070 F   0  0  0  0  0  0  0  0  0  0  0  0
    4.3480    0.4340   -0.4900 C   0  0  0  0  0  0  0  0  0  0  0  0
    3.7540    1.6070   -1.7190 Cl  0  0  0  0  0  0  0  0  0  0  0  0
   -0.8110    0.1900    0.1520 C   0  0  0  0  0  0  0  0  0  0  0  0
   -1.4790   -0.5060    1.1330 C   0  0  0  0  0  0  0  0  0  0  0  0
   -2.8570   -0.7600    1.1300 C   0  0  0  0  0  0  0  0  0  0  0  0
   -3.4380   -1.5390    2.1910 N   0  0  0  0  0  0  0  0  0  0  0  0
   -4.6980   -2.1200    2.1210 C   0  0  0  0  0  0  0  0  0  0  0  0
   -5.5100   -2.2740    3.3170 N   0  0  0  0  0  0  0  0  0  0  0  0
   -5.1500   -2.5710    1.0360 N   0  0  0  0  0  0  0  0  0  0  0  0
   -3.5010   -0.2540    0.0700 C   0  0  0  0  0  0  0  0  0  0  0  0
   -2.9400    0.4590   -0.9750 C   0  0  0  0  0  0  0  0  0  0  0  0
   -3.4130    1.0170   -2.0880 N   0  0  0  0  0  0  0  0  0  0  0  0
   -2.3880    1.5760   -2.7320 C   0  0  0  0  0  0  0  0  0  0  0  0
   -1.2570    1.3860   -2.0410 N   0  0  0  0  0  0  0  0  0  0  0  0
    0.0670    1.8780   -2.3860 C   0  0  1  0  0  0  0  0  0  0  0  0
    0.0800    2.9300   -3.5370 C   0  0  0  0  0  0  0  0  0  0  0  0
    0.4300    3.2860   -2.1610 C   0  0  0  0  0  0  0  0  0  0  0  0
   -1.5260    0.6780   -0.9100 C   0  0  0  0  0  0  0  0  0  0  0  0
  2  1  1  1
  2  3  1  0
  2 14  1  0
  3  4  1  0
  4  5  1  0
  5  6  2  0
  5 12  1  0
  6  7  1  0
  7  8  1  0
  7  9  2  0
  9 10  1  0
 10 11  1  0
 10 12  2  0
 12 13  1  0
 14 15  2  0
 14 29  1  0
 15 16  1  0
 16 17  1  0
 16 21  2  0
 17 18  1  0
 18 19  1  0
 18 20  2  0
 21 22  1  0
 22 23  1  0
 22 29  2  0
 23 24  2  0
 24 25  1  0
 26 25  1  1
 25 29  1  0
 26 27  1  0
 26 28  1  0
 27 28  1  0
M  CHG  1  20   1
M  END
