
     RDKit          3D

 30 33  0  0  0  0  0  0  0  0999 V2000
    0.6020   -1.2410   -0.9130 C   0  0  0  0  0  0  0  0  0  0  0  0
    0.6420   -0.0480    0.0130 C   0  0  2  0  0  0  0  0  0  0  0  0
    1.5170   -0.3330    1.1240 N   0  0  0  0  0  0  0  0  0  0  0  0
    2.8410   -0.7320    0.7900 C   0  0  0  0  0  0  0  0  0  0  0  0
    3.7520    0.4020    0.5180 C   0  0  0  0  0  0  0  0  0  0  0  0
    3.4430    1.7060    0.5720 N   0  0  0  0  0  0  0  0  0  0  0  0
    4.4790    2.4520    0.2830 N   0  0  0  0  0  0  0  0  0  0  0  0
    5.5410    1.6650    0.0200 C   0  0  0  0  0  0  0  0  0  0  0  0
    5.0820    0.3710    0.1680 C   0  0  0  0  0  0  0  0  0  0  0  0
    6.2020   -0.5860   -0.1150 C   0  0  0  0  0  0  0  0  0  0  0  0
    7.0780    0.2520   -0.9030 N   0  0  0  0  0  0  0  0  0  0  0  0
    7.8700   -0.1430   -1.9900 C   0  0  0  0  0  0  0  0  0  0  0  0
    8.5880    0.7190   -2.5790 O   0  0  0  0  0  0  0  0  0  0  0  0
    7.9260   -1.7910   -2.5920 Cl  0  0  0  0  0  0  0  0  0  0  0  0
    6.9770    1.5770   -0.3520 C   0  0  0  0  0  0  0  0  0  0  0  0
   -0.7520    0.1360    0.5500 C   0  0  0  0  0  0  0  0  0  0  0  0
   -1.7210   -0.8230    0.3880 C   0  0  0  0  0  0  0  0  0  0  0  0
   -3.0150   -0.6790    0.8850 C   0  0  0  0  0  0  0  0  0  0  0  0
   -3.9900   -1.6860    0.7160 N   0  0  0  0  0  0  0  0  0  0  0  0
   -5.3880   -1.5790    1.0110 C   0  0  0  0  0  0  0  0  0  0  0  0
   -6.1180   -0.6000    0.1840 C   0  0  0  0  0  0  0  0  0  0  0  0
   -6.7920    0.4540    0.5880 C   0  0  0  0  0  0  0  0  0  0  0  0
   -7.3670    1.1620   -0.5860 C   0  0  0  0  0  0  0  0  0  0  0  0
   -6.9090    0.3370   -1.7370 C   0  0  0  0  0  0  0  0  0  0  0  0
   -6.2020   -0.6560   -1.2640 C   0  0  0  0  0  0  0  0  0  0  0  0
   -5.4590   -1.8860   -2.2830 Cl  0  0  0  0  0  0  0  0  0  0  0  0
   -3.3400    0.4690    1.5670 C   0  0  0  0  0  0  0  0  0  0  0  0
   -2.3640    1.4520    1.7400 C   0  0  0  0  0  0  0  0  0  0  0  0
   -1.1120    1.2710    1.2380 C   0  0  0  0  0  0  0  0  0  0  0  0
   -0.1660    2.2300    1.4080 F   0  0  0  0  0  0  0  0  0  0  0  0
  2  1  1  6
  2  3  1  0
  2 16  1  0
  3  4  1  0
  4  5  1  0
  5  6  1  0
  5  9  2  0
  6  7  1  0
  7  8  2  0
  8  9  1  0
  8 15  1  0
  9 10  1  0
 10 11  1  0
 11 12  1  0
 11 15  1  0
 12 13  2  0
 12 14  1  0
 16 17  2  0
 16 29  1  0
 17 18  1  0
 18 19  1  0
 18 27  2  0
 19 20  1  0
 20 21  1  0
 21 22  2  0
 21 25  1  0
 22 23  1  0
 23 24  1  0
 24 25  2  0
 25 26  1  0
 27 28  1  0
 28 29  2  0
 29 30  1  0
M  CHG  1   3   1
M  END
