
     RDKit          3D

 30 33  0  0  0  0  0  0  0  0999 V2000
    9.6060   -0.1300   -0.8480 C   0  0  0  0  0  0  0  0  0  0  0  0
    8.7550    0.7860   -1.7320 C   0  0  0  0  0  0  0  0  0  0  0  0
    7.3250    0.5180   -1.4750 C   0  0  0  0  0  0  0  0  0  0  0  0
    6.4680   -0.1700   -2.2470 N   0  0  0  0  0  0  0  0  0  0  0  0
    5.2700   -0.1960   -1.6820 N   0  0  0  0  0  0  0  0  0  0  0  0
    5.2850    0.4670   -0.5230 C   0  0  0  0  0  0  0  0  0  0  0  0
    4.1980    0.7080    0.4520 C   0  0  0  0  0  0  0  0  0  0  0  0
    4.4170    1.3630    1.4980 O   0  0  0  0  0  0  0  0  0  0  0  0
    2.9000    0.2050    0.2220 N   0  0  0  0  0  0  0  0  0  0  0  0
    1.7660    0.3510    1.0630 C   0  0  0  0  0  0  0  0  0  0  0  0
    1.7660    0.8200    2.3470 C   0  0  0  0  0  0  0  0  0  0  0  0
    0.6140    0.9590    3.1260 C   0  0  0  0  0  0  0  0  0  0  0  0
   -0.5810    0.5990    2.5550 C   0  0  0  0  0  0  0  0  0  0  0  0
   -2.0790    0.7430    3.4670 Cl  0  0  0  0  0  0  0  0  0  0  0  0
   -0.6610    0.1150    1.2560 C   0  0  0  0  0  0  0  0  0  0  0  0
   -1.9270   -0.2410    0.7180 N   0  0  0  0  0  0  0  0  0  0  0  0
   -2.8690   -1.2350    1.1880 C   0  0  0  0  0  0  0  0  0  0  0  0
   -3.8420   -1.4080    0.0400 C   0  0  1  0  0  0  0  0  0  0  0  0
   -5.1630   -1.9190    0.5140 C   0  0  0  0  0  0  0  0  0  0  0  0
   -6.2530   -1.7040   -0.5140 C   0  0  0  0  0  0  0  0  0  0  0  0
   -6.3250   -0.2930   -0.9650 C   0  0  0  0  0  0  0  0  0  0  0  0
   -6.6420   -0.0720   -2.2420 C   0  0  0  0  0  0  0  0  0  0  0  0
   -6.8920   -1.0820   -3.1080 F   0  0  0  0  0  0  0  0  0  0  0  0
   -6.0800    0.9160   -0.1360 C   0  0  0  0  0  0  0  0  0  0  0  0
   -4.7360    0.8490    0.3750 N   0  0  0  0  0  0  0  0  0  0  0  0
   -3.9430    0.0240   -0.4850 C   0  0  1  0  0  0  0  0  0  0  0  0
   -2.4770    0.4080   -0.4720 C   0  0  0  0  0  0  0  0  0  0  0  0
    0.5060    0.0030    0.5480 C   0  0  0  0  0  0  0  0  0  0  0  0
    6.5690    0.9260   -0.3720 C   0  0  0  0  0  0  0  0  0  0  0  0
    7.2000    1.8680    0.9600 Cl  0  0  0  0  0  0  0  0  0  0  0  0
  1  2  1  0
  2  3  1  0
  3  4  2  0
  3 29  1  0
  4  5  1  0
  5  6  1  0
  6  7  1  0
  6 29  2  0
  7  8  2  0
  7  9  1  0
  9 10  1  0
 10 11  2  0
 10 28  1  0
 11 12  1  0
 12 13  2  0
 13 14  1  0
 13 15  1  0
 15 16  1  0
 15 28  2  0
 16 17  1  0
 16 27  1  0
 18 17  1  1
 18 19  1  0
 18 26  1  0
 19 20  1  0
 20 21  1  0
 21 22  2  3
 21 24  1  0
 22 23  1  0
 24 25  1  0
 25 26  1  0
 26 27  1  1
 29 30  1  0
M  CHG  1  25   1
M  END
