
     RDKit          3D

 29 31  0  0  0  0  0  0  0  0999 V2000
   -3.8400    3.1700    2.0850 C   0  0  0  0  0  0  0  0  0  0  0  0
   -3.5890    3.5960    0.6600 C   0  0  0  0  0  0  0  0  0  0  0  0
   -2.8130    2.5780   -0.0720 N   0  0  0  0  0  0  0  0  0  0  0  0
   -3.5890    1.5790   -0.7410 C   0  0  0  0  0  0  0  0  0  0  0  0
   -4.1070    0.4850    0.1900 C   0  0  0  0  0  0  0  0  0  0  0  0
   -4.2950   -0.7540   -0.6380 C   0  0  0  0  0  0  0  0  0  0  0  0
   -4.5730   -1.9790    0.1250 C   0  0  0  0  0  0  0  0  0  0  0  0
   -3.9030   -3.1390    0.0250 C   0  0  0  0  0  0  0  0  0  0  0  0
   -4.3560   -4.2930    0.9050 C   0  0  0  0  0  0  0  0  0  0  0  0
   -2.7840   -3.3800   -0.8610 C   0  0  0  0  0  0  0  0  0  0  0  0
   -1.5760   -2.8440   -0.8220 C   0  0  0  0  0  0  0  0  0  0  0  0
   -1.0750   -1.8590    0.1580 C   0  0  0  0  0  0  0  0  0  0  0  0
   -0.7570   -0.5510   -0.4230 C   0  0  0  0  0  0  0  0  0  0  0  0
    0.5960   -0.1350   -0.5370 N   0  0  0  0  0  0  0  0  0  0  0  0
    1.3610   -0.6410   -1.5940 C   0  0  0  0  0  0  0  0  0  0  0  0
    2.7390   -0.0870   -1.5190 C   0  0  0  0  0  0  0  0  0  0  0  0
    3.3120    0.9390   -2.1630 N   0  0  0  0  0  0  0  0  0  0  0  0
    4.5480    1.0610   -1.7780 O   0  0  0  0  0  0  0  0  0  0  0  0
    4.8550    0.1620   -0.8950 C   0  0  0  0  0  0  0  0  0  0  0  0
    6.1300   -0.0410   -0.2190 C   0  0  0  0  0  0  0  0  0  0  0  0
    6.4180   -0.9620    0.6750 C   0  0  0  0  0  0  0  0  0  0  0  0
    7.8050   -0.8710    1.1450 C   0  0  0  0  0  0  0  0  0  0  0  0
    8.2660    0.3750    0.5990 N   0  0  0  0  0  0  0  0  0  0  0  0
    7.3330    0.7650   -0.4270 C   0  0  0  0  0  0  0  0  0  0  0  0
    3.7340   -0.5710   -0.7160 N   0  0  0  0  0  0  0  0  0  0  0  0
    0.6450    1.3020   -0.4440 C   0  0  0  0  0  0  0  0  0  0  0  0
   -0.5030    2.0250   -1.0710 C   0  0  0  0  0  0  0  0  0  0  0  0
   -1.4150    2.6450   -0.0690 C   0  0  0  0  0  0  0  0  0  0  0  0
   -0.8670    3.2980    0.8800 O   0  0  0  0  0  0  0  0  0  0  0  0
  1  2  1  0
  2  3  1  0
  3  4  1  0
  3 28  1  0
  4  5  1  0
  5  6  1  0
  6  7  1  0
  7  8  2  0
  8  9  1  0
  8 10  1  0
 10 11  2  0
 11 12  1  0
 12 13  1  0
 13 14  1  0
 14 15  1  0
 14 26  1  0
 15 16  1  0
 16 17  2  0
 16 25  1  0
 17 18  1  0
 18 19  1  0
 19 20  1  0
 19 25  2  0
 20 21  2  0
 20 24  1  0
 21 22  1  0
 22 23  1  0
 23 24  1  0
 26 27  1  0
 27 28  1  0
 28 29  2  0
M  CHG  1  23   1
M  END
