
     RDKit          3D

 34 36  0  0  0  0  0  0  0  0999 V2000
    8.3340    0.5590    1.9970 O   0  0  0  0  0  0  0  0  0  0  0  0
    7.6190    1.5900    1.1170 P   0  0  0  0  0  0  0  0  0  0  0  0
    7.8770    1.5720   -0.6020 O   0  0  0  0  0  0  0  0  0  0  0  0
    7.4380    0.0190   -1.2830 P   0  0  0  0  0  0  0  0  0  0  0  0
    7.7500   -1.1880   -0.0840 O   0  0  0  0  0  0  0  0  0  0  0  0
    5.7120    0.0260   -1.6500 O   0  0  0  0  0  0  0  0  0  0  0  0
    4.7930   -0.0450   -0.6240 C   0  0  0  0  0  0  0  0  0  0  0  0
    5.2420   -0.1130    0.5570 O   0  0  0  0  0  0  0  0  0  0  0  0
    3.4220   -0.0450   -0.8260 O   0  0  0  0  0  0  0  0  0  0  0  0
    2.5840   -0.1220    0.3180 C   0  0  2  0  0  0  0  0  0  0  0  0
    1.7910   -1.4040    0.2350 C   0  0  0  0  0  0  0  0  0  0  0  0
    0.4010   -1.1920    0.8560 C   0  0  1  0  0  0  0  0  0  0  0  0
   -0.2120   -0.1550   -0.1020 C   0  0  0  0  0  0  0  0  0  0  0  0
    0.4110    1.1390    0.0290 N   0  0  0  0  0  0  0  0  0  0  0  0
   -0.2930    2.3510   -0.2020 C   0  0  0  0  0  0  0  0  0  0  0  0
   -1.7860    2.1120   -0.5070 C   0  0  2  0  0  0  0  0  0  0  0  0
   -2.4590    2.0130    0.8120 C   0  0  0  0  0  0  0  0  0  0  0  0
   -3.7310    1.3500    0.8040 N   0  0  0  0  0  0  0  0  0  0  0  0
   -4.1500    0.2050    1.4990 C   0  0  0  0  0  0  0  0  0  0  0  0
   -5.4320    0.0140    1.5220 O   0  0  0  0  0  0  0  0  0  0  0  0
   -3.4090   -0.7750    2.1750 N   0  0  0  0  0  0  0  0  0  0  0  0
   -2.2490   -1.4640    1.9160 C   0  0  0  0  0  0  0  0  0  0  0  0
   -1.3650   -1.3780    2.8810 O   0  0  0  0  0  0  0  0  0  0  0  0
   -1.7070   -2.2840    0.8480 C   0  0  2  0  0  0  0  0  0  0  0  0
   -0.3210   -2.2960    0.7590 O   0  0  0  0  0  0  0  0  0  0  0  0
   -2.3850   -2.4570   -0.4310 C   0  0  0  0  0  0  0  0  0  0  0  0
   -2.9120   -3.6460   -0.6020 O   0  0  0  0  0  0  0  0  0  0  0  0
   -2.6000   -1.6270   -1.5410 N   0  0  0  0  0  0  0  0  0  0  0  0
   -3.5370   -0.5780   -1.8580 C   0  0  2  0  0  0  0  0  0  0  0  0
   -4.1680   -0.9650   -3.0930 O   0  0  0  0  0  0  0  0  0  0  0  0
   -2.9220    0.7810   -2.1120 C   0  0  0  0  0  0  0  0  0  0  0  0
   -1.8720    1.1590   -1.4210 O   0  0  0  0  0  0  0  0  0  0  0  0
    1.7750    1.0970    0.4070 C   0  0  0  0  0  0  0  0  0  0  0  0
    2.3600    2.1450    0.8470 O   0  0  0  0  0  0  0  0  0  0  0  0
  1  2  2  0
  2  3  1  0
  3  4  1  0
  4  5  1  0
  4  6  1  0
  6  7  1  0
  7  8  2  0
  7  9  1  0
 10  9  1  6
 10 11  1  0
 10 33  1  0
 12 11  1  6
 12 13  1  0
 12 25  1  0
 13 14  1  0
 14 15  1  0
 14 33  1  0
 15 16  1  0
 16 17  1  1
 16 32  1  0
 17 18  1  0
 18 19  1  0
 19 20  2  0
 19 21  1  0
 21 22  1  0
 22 23  2  0
 24 22  1  6
 24 25  1  0
 24 26  1  0
 26 27  2  0
 26 28  1  0
 28 29  1  0
 29 30  1  6
 29 31  1  0
 31 32  1  0
 33 34  2  0
M  END
