
     RDKit          3D

 35 36  0  0  0  0  0  0  0  0999 V2000
  -10.9040   -2.0190    2.0030 C   0  0  0  0  0  0  0  0  0  0  0  0
  -10.4780   -0.7740    1.2880 C   0  0  0  0  0  0  0  0  0  0  0  0
   -8.9800   -0.7500    1.2370 C   0  0  0  0  0  0  0  0  0  0  0  0
   -8.3230   -1.6890    1.7460 O   0  0  0  0  0  0  0  0  0  0  0  0
   -8.3020    0.2920    0.6360 O   0  0  0  0  0  0  0  0  0  0  0  0
   -6.8960    0.3870    0.5450 C   0  0  0  0  0  0  0  0  0  0  0  0
   -6.3470   -0.7560   -0.2320 C   0  0  0  0  0  0  0  0  0  0  0  0
   -4.8180   -0.7080   -0.3830 C   0  0  0  0  0  0  0  0  0  0  0  0
   -4.1090   -0.7480    0.9300 C   0  0  0  0  0  0  0  0  0  0  0  0
   -2.8000   -0.7380    0.8800 O   0  0  0  0  0  0  0  0  0  0  0  0
   -1.9320    0.1700    0.5040 C   0  0  0  0  0  0  0  0  0  0  0  0
   -1.9740    0.7350   -0.8930 C   0  0  0  0  0  0  0  0  0  0  0  0
   -0.7870    1.6660   -0.9710 C   0  0  0  0  0  0  0  0  0  0  0  0
   -0.9640    2.9720   -0.5980 C   0  0  0  0  0  0  0  0  0  0  0  0
    0.0930    3.8710   -0.6490 C   0  0  0  0  0  0  0  0  0  0  0  0
    1.3060    3.4220   -1.0800 C   0  0  0  0  0  0  0  0  0  0  0  0
    1.5190    2.1100   -1.4640 C   0  0  0  0  0  0  0  0  0  0  0  0
    2.7870    1.7080   -1.8970 O   0  0  0  0  0  0  0  0  0  0  0  0
    3.1480    1.7640   -3.2400 C   0  0  0  0  0  0  0  0  0  0  0  0
    2.2630    2.1970   -4.0240 O   0  0  0  0  0  0  0  0  0  0  0  0
    4.4650    1.3570   -3.7640 C   0  0  0  0  0  0  0  0  0  0  0  0
    5.3430    0.9070   -2.7820 O   0  0  0  0  0  0  0  0  0  0  0  0
    5.1600   -0.1550   -1.9430 C   0  0  0  0  0  0  0  0  0  0  0  0
    4.0960   -0.8160   -2.0430 O   0  0  0  0  0  0  0  0  0  0  0  0
    6.1240   -0.5740   -0.9340 C   0  0  0  0  0  0  0  0  0  0  0  0
    7.3120    0.1170   -0.7730 C   0  0  0  0  0  0  0  0  0  0  0  0
    8.2300   -0.2750    0.1790 C   0  0  0  0  0  0  0  0  0  0  0  0
    8.0190   -1.3500    1.0020 C   0  0  0  0  0  0  0  0  0  0  0  0
    8.9820   -1.7740    2.0130 C   0  0  0  0  0  0  0  0  0  0  0  0
    8.7550   -2.7660    2.7500 O   0  0  0  0  0  0  0  0  0  0  0  0
   10.1660   -1.0930    2.1810 O   0  0  0  0  0  0  0  0  0  0  0  0
   11.1010   -1.5030    3.1620 C   0  0  0  0  0  0  0  0  0  0  0  0
    6.8340   -2.0390    0.8420 C   0  0  0  0  0  0  0  0  0  0  0  0
    5.9080   -1.6550   -0.1080 C   0  0  0  0  0  0  0  0  0  0  0  0
    0.4490    1.2340   -1.4030 C   0  0  0  0  0  0  0  0  0  0  0  0
  1  2  1  0
  2  3  1  0
  3  4  2  0
  3  5  1  0
  5  6  1  0
  6  7  1  0
  7  8  1  0
  8  9  1  0
  9 10  1  0
 10 11  1  0
 11 12  1  0
 12 13  1  0
 13 14  2  0
 13 35  1  0
 14 15  1  0
 15 16  2  0
 16 17  1  0
 17 18  1  0
 17 35  2  0
 18 19  1  0
 19 20  2  0
 19 21  1  0
 21 22  1  0
 22 23  1  0
 23 24  2  0
 23 25  1  0
 25 26  2  0
 25 34  1  0
 26 27  1  0
 27 28  2  0
 28 29  1  0
 28 33  1  0
 29 30  2  0
 29 31  1  0
 31 32  1  0
 33 34  2  0
M  END
