
     RDKit          3D

 35 34  0  0  0  0  0  0  0  0999 V2000
   -7.2310    4.2140    1.2160 C   0  0  0  0  0  0  0  0  0  0  0  0
   -5.7150    4.1250    1.1990 C   0  0  0  0  0  0  0  0  0  0  0  0
   -5.2740    2.8820    0.7490 O   0  0  0  0  0  0  0  0  0  0  0  0
   -5.5880    1.6710    1.3280 C   0  0  0  0  0  0  0  0  0  0  0  0
   -6.3220    1.6110    2.3300 O   0  0  0  0  0  0  0  0  0  0  0  0
   -5.0700    0.3600    0.7880 C   0  0  0  0  0  0  0  0  0  0  0  0
   -4.0440    0.6910   -0.5340 P   0  0  0  0  0  0  0  0  0  0  0  0
   -5.0550    0.5760   -1.6790 O   0  0  0  0  0  0  0  0  0  0  0  0
   -3.8860    2.3360   -1.0480 O   0  0  0  0  0  0  0  0  0  0  0  0
   -2.9390   -0.5250   -1.1860 C   0  0  2  0  0  0  0  0  0  0  0  0
   -3.5920   -1.6830   -1.8700 C   0  0  0  0  0  0  0  0  0  0  0  0
   -2.7650   -2.7250   -2.4860 C   0  0  1  0  0  0  0  0  0  0  0  0
   -1.8440   -3.5120   -1.6230 C   0  0  0  0  0  0  0  0  0  0  0  0
   -3.6930   -3.7620   -3.1640 C   0  0  0  0  0  0  0  0  0  0  0  0
   -2.1140   -1.1640   -0.1220 N   0  0  0  0  0  0  0  0  0  0  0  0
   -0.7330   -1.0690   -0.1180 C   0  0  0  0  0  0  0  0  0  0  0  0
   -0.2110   -0.4110   -1.1000 O   0  0  0  0  0  0  0  0  0  0  0  0
    0.1730   -1.6270    0.8570 C   0  0  1  0  0  0  0  0  0  0  0  0
    1.5730   -1.4620    0.4100 N   0  0  0  0  0  0  0  0  0  0  0  0
    2.5030   -0.5280    0.8610 C   0  0  0  0  0  0  0  0  0  0  0  0
    2.1020    0.2930    1.7630 O   0  0  0  0  0  0  0  0  0  0  0  0
    3.9150   -0.4100    0.3660 C   0  0  1  0  0  0  0  0  0  0  0  0
    4.4310    0.9150    0.6050 N   0  0  0  0  0  0  0  0  0  0  0  0
    4.8300    1.7400   -0.4450 C   0  0  0  0  0  0  0  0  0  0  0  0
    4.7170    1.2470   -1.6070 O   0  0  0  0  0  0  0  0  0  0  0  0
    5.3590    3.0970   -0.3450 C   0  0  0  0  0  0  0  0  0  0  0  0
    5.7350    3.6370   -1.7060 C   0  0  1  0  0  0  0  0  0  0  0  0
    6.7950    2.8140   -2.3800 C   0  0  0  0  0  0  0  0  0  0  0  0
    4.5180    3.5890   -2.6430 C   0  0  0  0  0  0  0  0  0  0  0  0
    4.7640   -1.4890    0.9040 C   0  0  2  0  0  0  0  0  0  0  0  0
    4.2530   -2.8300    0.4460 C   0  0  0  0  0  0  0  0  0  0  0  0
    4.8240   -1.5360    2.4150 C   0  0  0  0  0  0  0  0  0  0  0  0
   -0.0130   -1.1280    2.2850 C   0  0  2  0  0  0  0  0  0  0  0  0
    1.0330   -1.8440    3.1350 C   0  0  0  0  0  0  0  0  0  0  0  0
   -1.3450   -1.6340    2.8230 C   0  0  0  0  0  0  0  0  0  0  0  0
  1  2  1  0
  2  3  1  0
  3  4  1  0
  4  5  2  0
  4  6  1  0
  6  7  1  0
  7  8  1  0
  7  9  1  0
  7 10  1  0
 10 11  1  1
 10 15  1  0
 11 12  1  0
 12 13  1  1
 12 14  1  0
 15 16  1  0
 16 17  2  0
 16 18  1  0
 18 19  1  6
 18 33  1  0
 19 20  1  0
 20 21  2  0
 20 22  1  0
 22 23  1  1
 22 30  1  0
 23 24  1  0
 24 25  2  0
 24 26  1  0
 26 27  1  0
 27 28  1  6
 27 29  1  0
 30 31  1  1
 30 32  1  0
 33 34  1  1
 33 35  1  0
M  END
