
     RDKit          3D

 34 35  0  0  0  0  0  0  0  0999 V2000
    8.5670   -0.8320   -1.9400 C   0  0  0  0  0  0  0  0  0  0  0  0
    7.6430   -0.7370   -0.7480 C   0  0  0  0  0  0  0  0  0  0  0  0
    6.4040    0.0250   -1.1640 C   0  0  0  0  0  0  0  0  0  0  0  0
    5.4390    0.1660   -0.0520 C   0  0  0  0  0  0  0  0  0  0  0  0
    5.4950    1.2450    0.7960 C   0  0  0  0  0  0  0  0  0  0  0  0
    4.5950    1.3750    1.8320 C   0  0  0  0  0  0  0  0  0  0  0  0
    3.5940    0.4240    2.0650 C   0  0  0  0  0  0  0  0  0  0  0  0
    2.7250    0.6080    3.1170 O   0  0  0  0  0  0  0  0  0  0  0  0
    1.6770   -0.2650    3.4380 C   0  0  0  0  0  0  0  0  0  0  0  0
    0.7060   -0.3230    2.3170 C   0  0  0  0  0  0  0  0  0  0  0  0
   -0.3150   -1.0860    2.3980 O   0  0  0  0  0  0  0  0  0  0  0  0
    0.8350    0.4160    1.1580 O   0  0  0  0  0  0  0  0  0  0  0  0
   -0.0990    0.3640    0.0840 C   0  0  1  0  0  0  0  0  0  0  0  0
    0.4740    1.3330   -0.9650 C   0  0  0  0  0  0  0  0  0  0  0  0
   -0.2520   -0.9770   -0.4530 C   0  0  0  0  0  0  0  0  0  0  0  0
   -1.0060   -1.2300   -1.4130 O   0  0  0  0  0  0  0  0  0  0  0  0
    0.4570   -2.0370    0.1020 O   0  0  0  0  0  0  0  0  0  0  0  0
    0.3610   -3.3610   -0.3640 C   0  0  0  0  0  0  0  0  0  0  0  0
    0.7840   -3.4200   -1.7960 C   0  0  0  0  0  0  0  0  0  0  0  0
   -1.3860    0.9850    0.5210 C   0  0  0  0  0  0  0  0  0  0  0  0
   -1.4130    1.6630    1.7500 C   0  0  0  0  0  0  0  0  0  0  0  0
   -2.5610    2.2430    2.1890 C   0  0  0  0  0  0  0  0  0  0  0  0
   -3.6970    2.1600    1.4180 C   0  0  0  0  0  0  0  0  0  0  0  0
   -3.7270    1.5090    0.2050 C   0  0  0  0  0  0  0  0  0  0  0  0
   -4.9070    1.4670   -0.5160 O   0  0  0  0  0  0  0  0  0  0  0  0
   -5.8600    0.4700   -0.3690 C   0  0  0  0  0  0  0  0  0  0  0  0
   -5.5940   -0.4330    0.4830 O   0  0  0  0  0  0  0  0  0  0  0  0
   -7.1070    0.4670   -1.1620 C   0  0  0  0  0  0  0  0  0  0  0  0
   -8.2190    1.0390   -0.3100 C   0  0  0  0  0  0  0  0  0  0  0  0
   -9.5350    1.0690   -1.0580 C   0  0  0  0  0  0  0  0  0  0  0  0
   -9.8610   -0.2520   -1.4160 O   0  0  0  0  0  0  0  0  0  0  0  0
   -2.5400    0.9200   -0.2280 C   0  0  0  0  0  0  0  0  0  0  0  0
    3.5500   -0.6500    1.2110 C   0  0  0  0  0  0  0  0  0  0  0  0
    4.4610   -0.7810    0.1610 C   0  0  0  0  0  0  0  0  0  0  0  0
  1  2  1  0
  2  3  1  0
  3  4  1  0
  4  5  2  0
  4 34  1  0
  5  6  1  0
  6  7  2  0
  7  8  1  0
  7 33  1  0
  8  9  1  0
  9 10  1  0
 10 11  2  0
 10 12  1  0
 12 13  1  0
 13 14  1  6
 13 15  1  0
 13 20  1  0
 15 16  2  0
 15 17  1  0
 17 18  1  0
 18 19  1  0
 20 21  2  0
 20 32  1  0
 21 22  1  0
 22 23  2  0
 23 24  1  0
 24 25  1  0
 24 32  2  0
 25 26  1  0
 26 27  2  0
 26 28  1  0
 28 29  1  0
 29 30  1  0
 30 31  1  0
 33 34  2  0
M  END
