
     RDKit          3D

 35 37  0  0  0  0  0  0  0  0999 V2000
    5.7130    0.2750   -0.5520 N   0  0  0  0  0  0  0  0  0  0  0  0
    4.8960   -0.5860    0.2770 C   0  0  0  0  0  0  0  0  0  0  0  0
    3.4410   -0.2690    0.0090 C   0  0  2  0  0  0  0  0  0  0  0  0
    3.1980    1.1670    0.4280 C   0  0  0  0  0  0  0  0  0  0  0  0
    3.6530    2.1080   -0.5540 N   0  0  0  0  0  0  0  0  0  0  0  0
    3.5070    3.5120   -0.3930 C   0  0  0  0  0  0  0  0  0  0  0  0
    4.4560    4.3070   -0.7290 O   0  0  0  0  0  0  0  0  0  0  0  0
    2.3280    4.0500    0.1320 O   0  0  0  0  0  0  0  0  0  0  0  0
    0.7250    3.6270   -0.4260 P   0  0  0  0  0  0  0  0  0  0  0  0
    0.0120    5.0770   -1.0930 O   0  0  0  0  0  0  0  0  0  0  0  0
   -0.2600    2.9140    0.7810 O   0  0  0  0  0  0  0  0  0  0  0  0
   -1.5870    3.3040    0.7320 C   0  0  0  0  0  0  0  0  0  0  0  0
   -2.5050    2.1170    0.3120 C   0  0  1  0  0  0  0  0  0  0  0  0
   -2.6190    2.2800   -1.0740 O   0  0  0  0  0  0  0  0  0  0  0  0
   -1.7600    0.9100    0.6700 C   0  0  2  0  0  0  0  0  0  0  0  0
   -0.5460    0.9650   -0.1010 O   0  0  0  0  0  0  0  0  0  0  0  0
   -1.1180    0.7330   -1.2870 O   0  0  0  0  0  0  0  0  0  0  0  0
   -1.8520   -0.3450   -1.1500 O   0  0  0  0  0  0  0  0  0  0  0  0
   -2.2120   -0.4380    0.2120 C   0  0  2  0  0  0  0  0  0  0  0  0
   -3.5790   -0.8640    0.4340 C   0  0  0  0  0  0  0  0  0  0  0  0
   -4.7580   -0.2130   -0.1160 C   0  0  0  0  0  0  0  0  0  0  0  0
   -4.8720   -0.1550   -1.9620 P   0  0  0  0  0  0  0  0  0  0  0  0
   -6.5110    0.2470   -2.3790 O   0  0  0  0  0  0  0  0  0  0  0  0
   -4.5570   -1.7480   -2.5750 O   0  0  0  0  0  0  0  0  0  0  0  0
   -1.1730   -1.4050    0.8000 C   0  0  1  0  0  0  0  0  0  0  0  0
   -1.8110   -2.6020    1.4530 C   0  0  0  0  0  0  0  0  0  0  0  0
   -0.7460   -3.3180    2.1030 O   0  0  0  0  0  0  0  0  0  0  0  0
    0.5230   -3.4090    1.5550 C   0  0  0  0  0  0  0  0  0  0  0  0
    1.3940   -4.2310    1.9390 O   0  0  0  0  0  0  0  0  0  0  0  0
    0.8840   -2.5320    0.4990 N   0  0  0  0  0  0  0  0  0  0  0  0
   -0.2030   -1.9120   -0.2430 C   0  0  0  0  0  0  0  0  0  0  0  0
    2.2710   -2.2750    0.1900 C   0  0  1  0  0  0  0  0  0  0  0  0
    3.1570   -3.2730    0.6770 N   0  0  0  0  0  0  0  0  0  0  0  0
    2.3780   -2.2310   -1.2000 O   0  0  0  0  0  0  0  0  0  0  0  0
    2.5870   -1.0550    0.7690 O   0  0  0  0  0  0  0  0  0  0  0  0
  1  2  1  0
  3  2  1  1
  3  4  1  0
  3 35  1  0
  4  5  1  0
  5  6  1  0
  6  7  2  0
  6  8  1  0
  8  9  1  0
  9 10  1  0
  9 11  1  0
 11 12  1  0
 12 13  1  0
 13 14  1  6
 13 15  1  0
 15 16  1  6
 15 19  1  0
 16 17  1  0
 17 18  1  0
 18 19  1  0
 19 20  1  6
 19 25  1  0
 20 21  1  0
 21 22  1  0
 22 23  1  0
 22 24  1  0
 25 26  1  6
 25 31  1  0
 26 27  1  0
 27 28  1  0
 28 29  2  0
 28 30  1  0
 30 31  1  0
 30 32  1  0
 32 33  1  1
 32 34  1  0
 32 35  1  0
M  END
