
     RDKit          3D

 34 36  0  0  0  0  0  0  0  0999 V2000
    9.5040   -0.3040    0.2530 C   0  0  0  0  0  0  0  0  0  0  0  0
    8.6630   -0.6430    1.4510 C   0  0  0  0  0  0  0  0  0  0  0  0
    7.9150    0.5350    1.6490 O   0  0  0  0  0  0  0  0  0  0  0  0
    6.7350    0.5200    1.4240 O   0  0  0  0  0  0  0  0  0  0  0  0
    5.4650    0.6510    1.3850 C   0  0  0  0  0  0  0  0  0  0  0  0
    4.9800    1.8000    0.6720 C   0  0  0  0  0  0  0  0  0  0  0  0
    3.6970    2.0880    0.5400 C   0  0  0  0  0  0  0  0  0  0  0  0
    2.7600    1.2380    1.1090 C   0  0  0  0  0  0  0  0  0  0  0  0
    3.2270    0.1180    1.7830 C   0  0  0  0  0  0  0  0  0  0  0  0
    2.2170   -0.9830    2.0040 C   0  0  0  0  0  0  0  0  0  0  0  0
    2.2280   -1.6170    3.0000 O   0  0  0  0  0  0  0  0  0  0  0  0
    1.2980   -1.1300    0.8680 C   0  0  0  0  0  0  0  0  0  0  0  0
    1.8650   -0.7490   -0.4010 C   0  0  0  0  0  0  0  0  0  0  0  0
    1.0960   -0.7480   -1.5390 C   0  0  0  0  0  0  0  0  0  0  0  0
   -0.2210   -1.0980   -1.5000 C   0  0  0  0  0  0  0  0  0  0  0  0
   -0.9990   -1.0330   -2.7710 C   0  0  0  0  0  0  0  0  0  0  0  0
   -1.7340   -1.8930   -3.2200 O   0  0  0  0  0  0  0  0  0  0  0  0
   -0.8220    0.1580   -3.4490 O   0  0  0  0  0  0  0  0  0  0  0  0
   -1.3150    0.7360   -4.5750 C   0  0  0  0  0  0  0  0  0  0  0  0
   -0.7390   -1.4470   -0.2960 C   0  0  0  0  0  0  0  0  0  0  0  0
   -2.2120   -1.6150   -0.1250 C   0  0  0  0  0  0  0  0  0  0  0  0
   -2.6360   -0.1230   -0.1650 C   0  0  0  0  0  0  0  0  0  0  0  0
   -3.9650    0.0160    0.0150 O   0  0  0  0  0  0  0  0  0  0  0  0
   -4.7360   -0.3870    1.1530 C   0  0  0  0  0  0  0  0  0  0  0  0
   -4.1950   -0.8910    2.0780 O   0  0  0  0  0  0  0  0  0  0  0  0
   -6.1530   -0.0680    0.9270 C   0  0  0  0  0  0  0  0  0  0  0  0
   -6.9870   -1.0820    0.6020 C   0  0  0  0  0  0  0  0  0  0  0  0
   -8.3250   -0.8380    0.2660 C   0  0  0  0  0  0  0  0  0  0  0  0
   -8.7920    0.4430    0.2660 C   0  0  0  0  0  0  0  0  0  0  0  0
  -10.1270    0.7500   -0.0800 O   0  0  0  0  0  0  0  0  0  0  0  0
   -7.9930    1.4880    0.5990 C   0  0  0  0  0  0  0  0  0  0  0  0
   -6.6230    1.2300    0.9390 C   0  0  0  0  0  0  0  0  0  0  0  0
    0.0160   -1.4790    0.9100 C   0  0  0  0  0  0  0  0  0  0  0  0
    4.5230   -0.2080    1.9570 C   0  0  0  0  0  0  0  0  0  0  0  0
  1  2  1  0
  2  3  1  0
  3  4  1  0
  4  5  1  0
  5  6  2  0
  5 34  1  0
  6  7  1  0
  7  8  2  0
  8  9  1  0
  9 10  1  0
  9 34  2  0
 10 11  2  0
 10 12  1  0
 12 13  2  0
 12 33  1  0
 13 14  1  0
 14 15  2  0
 15 16  1  0
 15 20  1  0
 16 17  2  0
 16 18  1  0
 18 19  1  0
 20 21  1  0
 20 33  2  0
 21 22  1  0
 22 23  1  0
 23 24  1  0
 24 25  2  0
 24 26  1  0
 26 27  2  0
 26 32  1  0
 27 28  1  0
 28 29  2  0
 29 30  1  0
 29 31  1  0
 31 32  2  0
M  END
