
     RDKit          3D

 34 34  0  0  0  0  0  0  0  0999 V2000
    6.0220    2.2470    2.8390 C   0  0  0  0  0  0  0  0  0  0  0  0
    7.1390    1.8850    2.2780 C   0  0  0  0  0  0  0  0  0  0  0  0
    7.3290    1.2920    0.9780 C   0  0  0  0  0  0  0  0  0  0  0  0
    8.5630    0.9740    0.5420 C   0  0  0  0  0  0  0  0  0  0  0  0
    6.2130    1.0220    0.1100 C   0  0  0  0  0  0  0  0  0  0  0  0
    6.4560    0.4990   -1.0190 O   0  0  0  0  0  0  0  0  0  0  0  0
    4.8880    1.2570    0.3390 O   0  0  0  0  0  0  0  0  0  0  0  0
    3.8700    0.9630   -0.5560 C   0  0  0  0  0  0  0  0  0  0  0  0
    3.7190   -0.4760   -0.9290 C   0  0  0  0  0  0  0  0  0  0  0  0
    2.6140   -0.7430   -1.8940 C   0  0  1  0  0  0  0  0  0  0  0  0
    2.7640   -0.0300   -3.2090 C   0  0  0  0  0  0  0  0  0  0  0  0
    2.5270   -2.2260   -2.1690 C   0  0  0  0  0  0  0  0  0  0  0  0
    1.2560   -0.3180   -1.3450 C   0  0  0  0  0  0  0  0  0  0  0  0
    0.9110   -1.0390   -0.0870 C   0  0  0  0  0  0  0  0  0  0  0  0
   -0.3100   -0.6890    0.4580 O   0  0  0  0  0  0  0  0  0  0  0  0
   -1.4040   -0.9170   -0.3470 C   0  0  0  0  0  0  0  0  0  0  0  0
   -2.6220   -0.4970    0.4320 C   0  0  0  0  0  0  0  0  0  0  0  0
   -3.5690   -1.3150    0.7230 C   0  0  0  0  0  0  0  0  0  0  0  0
   -3.6880   -2.6910    0.4020 C   0  0  0  0  0  0  0  0  0  0  0  0
   -2.8300   -3.3350   -0.2440 O   0  0  0  0  0  0  0  0  0  0  0  0
   -4.8560   -3.4060    0.8370 O   0  0  0  0  0  0  0  0  0  0  0  0
   -4.9110   -4.7730    0.4840 C   0  0  0  0  0  0  0  0  0  0  0  0
   -2.6680    0.9190    0.7480 C   0  0  0  0  0  0  0  0  0  0  0  0
   -1.5420    1.5660    0.5280 O   0  0  0  0  0  0  0  0  0  0  0  0
   -3.6970    1.7540    1.2660 C   0  0  0  0  0  0  0  0  0  0  0  0
   -3.2990    2.6960    2.2560 C   0  0  0  0  0  0  0  0  0  0  0  0
   -4.1810    3.3760    3.0280 C   0  0  0  0  0  0  0  0  0  0  0  0
   -5.5290    3.1630    2.8670 C   0  0  0  0  0  0  0  0  0  0  0  0
   -5.9610    2.2760    1.9310 C   0  0  0  0  0  0  0  0  0  0  0  0
   -5.0300    1.5850    1.1380 C   0  0  0  0  0  0  0  0  0  0  0  0
   -5.6030    0.9100   -0.0310 C   0  0  0  0  0  0  0  0  0  0  0  0
   -6.8150    0.6510   -0.0590 O   0  0  0  0  0  0  0  0  0  0  0  0
   -4.8320    0.5620   -1.1120 O   0  0  0  0  0  0  0  0  0  0  0  0
   -5.4240   -0.0710   -2.2120 C   0  0  0  0  0  0  0  0  0  0  0  0
  1  2  2  0
  2  3  1  0
  3  4  2  0
  3  5  1  0
  5  6  2  0
  5  7  1  0
  7  8  1  0
  8  9  1  0
  9 10  1  0
 10 11  1  6
 10 12  1  0
 10 13  1  0
 13 14  1  0
 14 15  1  0
 15 16  1  0
 16 17  1  0
 17 18  2  3
 17 23  1  0
 18 19  1  0
 19 20  2  0
 19 21  1  0
 21 22  1  0
 23 24  2  0
 23 25  1  0
 25 26  2  0
 25 30  1  0
 26 27  1  0
 27 28  2  0
 28 29  1  0
 29 30  2  0
 30 31  1  0
 31 32  2  0
 31 33  1  0
 33 34  1  0
M  END
