
     RDKit          3D

 42 42  0  0  0  0  0  0  0  0999 V2000
    7.7970   -2.4660   -2.6460 C   0  0  0  0  0  0  0  0  0  0  0  0
    6.6940   -1.5630   -2.4830 O   0  0  0  0  0  0  0  0  0  0  0  0
    6.2530   -1.2160   -1.2100 C   0  0  0  0  0  0  0  0  0  0  0  0
    6.8540   -1.7240   -0.2390 O   0  0  0  0  0  0  0  0  0  0  0  0
    5.0930   -0.2640   -1.0090 C   0  0  2  0  0  0  0  0  0  0  0  0
    5.4420    1.0250   -1.6520 C   0  0  0  0  0  0  0  0  0  0  0  0
    6.6500    1.6720   -1.0840 C   0  0  0  0  0  0  0  0  0  0  0  0
    6.4580    2.5780   -0.0480 C   0  0  0  0  0  0  0  0  0  0  0  0
    7.5520    3.1940    0.5030 C   0  0  0  0  0  0  0  0  0  0  0  0
    8.8260    2.9620    0.0820 C   0  0  0  0  0  0  0  0  0  0  0  0
    9.0070    2.0590   -0.9520 C   0  0  0  0  0  0  0  0  0  0  0  0
    7.9180    1.4340   -1.5130 C   0  0  0  0  0  0  0  0  0  0  0  0
    4.8710   -0.1990    0.3210 O   0  0  0  0  0  0  0  0  0  0  0  0
    3.6020   -0.9250    1.0240 P   0  0  0  0  0  0  0  0  0  0  0  0
    3.8570   -2.4180    1.8520 O   0  0  0  0  0  0  0  0  0  0  0  0
    3.3400   -1.8070   -0.2180 O   0  0  0  0  0  0  0  0  0  0  0  0
    2.0510   -0.2350    1.1850 C   0  0  2  0  0  0  0  0  0  0  0  0
    1.5890    0.6050    2.3080 C   0  0  0  0  0  0  0  0  0  0  0  0
    2.2760    1.8960    2.5540 C   0  0  1  0  0  0  0  0  0  0  0  0
    1.5520    2.5970    3.7400 C   0  0  0  0  0  0  0  0  0  0  0  0
    3.7120    1.7960    3.0070 C   0  0  0  0  0  0  0  0  0  0  0  0
    0.9450   -1.1890    0.9370 N   0  0  0  0  0  0  0  0  0  0  0  0
   -0.1900   -0.8180    0.1830 C   0  0  0  0  0  0  0  0  0  0  0  0
   -0.2260    0.3710   -0.2530 O   0  0  0  0  0  0  0  0  0  0  0  0
   -1.3060   -1.7340   -0.1070 C   0  0  1  0  0  0  0  0  0  0  0  0
   -2.3250   -1.0280   -0.7960 N   0  0  0  0  0  0  0  0  0  0  0  0
   -3.7060   -1.1280   -0.5480 C   0  0  0  0  0  0  0  0  0  0  0  0
   -4.0010   -1.9520    0.3730 O   0  0  0  0  0  0  0  0  0  0  0  0
   -4.7870   -0.4020   -1.2170 C   0  0  1  0  0  0  0  0  0  0  0  0
   -6.0290   -0.8650   -0.7120 N   0  0  0  0  0  0  0  0  0  0  0  0
   -7.1860   -0.1480   -0.4050 C   0  0  0  0  0  0  0  0  0  0  0  0
   -7.3010    1.0850   -0.5000 O   0  0  0  0  0  0  0  0  0  0  0  0
   -8.3940   -0.9280    0.0830 C   0  0  0  0  0  0  0  0  0  0  0  0
   -9.3670   -0.0260    0.7680 C   0  0  2  0  0  0  0  0  0  0  0  0
   -9.8680    1.0740   -0.1180 C   0  0  0  0  0  0  0  0  0  0  0  0
   -8.7560    0.5130    2.0510 C   0  0  0  0  0  0  0  0  0  0  0  0
   -4.5650    1.0970   -1.1270 C   0  0  2  0  0  0  0  0  0  0  0  0
   -4.5720    1.6990    0.2070 C   0  0  0  0  0  0  0  0  0  0  0  0
   -5.3230    1.8170   -2.1830 C   0  0  0  0  0  0  0  0  0  0  0  0
   -0.7400   -2.9350   -0.7950 C   0  0  1  0  0  0  0  0  0  0  0  0
   -1.8340   -3.9440   -1.1300 C   0  0  0  0  0  0  0  0  0  0  0  0
    0.1400   -2.6310   -1.9630 C   0  0  0  0  0  0  0  0  0  0  0  0
  1  2  1  0
  2  3  1  0
  3  4  2  0
  3  5  1  0
  5  6  1  1
  5 13  1  0
  6  7  1  0
  7  8  2  0
  7 12  1  0
  8  9  1  0
  9 10  2  0
 10 11  1  0
 11 12  2  0
 13 14  1  0
 14 15  1  0
 14 16  1  0
 14 17  1  0
 17 18  1  1
 17 22  1  0
 18 19  1  0
 19 20  1  1
 19 21  1  0
 22 23  1  0
 23 24  2  0
 23 25  1  0
 25 26  1  6
 25 40  1  0
 26 27  1  0
 27 28  2  0
 27 29  1  0
 29 30  1  1
 29 37  1  0
 30 31  1  0
 31 32  2  0
 31 33  1  0
 33 34  1  0
 34 35  1  6
 34 36  1  0
 37 38  1  1
 37 39  1  0
 40 41  1  6
 40 42  1  0
M  END
