
     RDKit          3D

 42 43  0  0  0  0  0  0  0  0999 V2000
  -10.8600    0.6210    0.0310 C   0  0  0  0  0  0  0  0  0  0  0  0
   -9.4000    0.6970    0.3760 C   0  0  0  0  0  0  0  0  0  0  0  0
   -8.5130    0.3960   -0.8260 C   0  0  0  0  0  0  0  0  0  0  0  0
   -7.0690    0.7210   -0.3840 C   0  0  0  0  0  0  0  0  0  0  0  0
   -6.9770    2.2560   -0.4320 C   0  0  0  0  0  0  0  0  0  0  0  0
   -5.7380    2.7460    0.2110 C   0  0  2  0  0  0  0  0  0  0  0  0
   -5.4980    4.2250    0.0210 C   0  0  0  0  0  0  0  0  0  0  0  0
   -4.5360    1.9470    0.1870 C   0  0  0  0  0  0  0  0  0  0  0  0
   -3.8600    1.5720    1.3500 C   0  0  0  0  0  0  0  0  0  0  0  0
   -2.7240    0.8320    1.3000 C   0  0  0  0  0  0  0  0  0  0  0  0
   -2.1940    0.4360    0.0820 C   0  0  0  0  0  0  0  0  0  0  0  0
   -1.0180   -0.4510    0.0040 C   0  0  0  0  0  0  0  0  0  0  0  0
   -0.6850   -0.8370   -1.1610 O   0  0  0  0  0  0  0  0  0  0  0  0
   -0.2810   -0.9510    1.0550 N   0  0  0  0  0  0  0  0  0  0  0  0
    0.7400   -1.9300    0.9890 C   0  0  1  0  0  0  0  0  0  0  0  0
    0.0660   -2.9710    0.0050 C   0  0  0  0  0  0  0  0  0  0  0  0
   -0.9160   -2.7810   -0.6120 O   0  0  0  0  0  0  0  0  0  0  0  0
    0.7030   -4.2160   -0.1310 O   0  0  0  0  0  0  0  0  0  0  0  0
   -0.0280   -5.0860   -1.0880 C   0  0  0  0  0  0  0  0  0  0  0  0
    0.7720   -6.2860   -1.2850 C   0  0  0  0  0  0  0  0  0  0  0  0
    1.9540   -1.5770    0.3340 C   0  0  2  0  0  0  0  0  0  0  0  0
    2.9790   -2.6390    0.4790 C   0  0  0  0  0  0  0  0  0  0  0  0
    2.8290   -3.5920    1.2710 O   0  0  0  0  0  0  0  0  0  0  0  0
    4.1970   -2.6620   -0.2540 N   0  0  0  0  0  0  0  0  0  0  0  0
    5.2420   -3.5950    0.2180 C   0  0  0  0  0  0  0  0  0  0  0  0
    4.5250   -1.8880   -1.4600 C   0  0  0  0  0  0  0  0  0  0  0  0
    5.5600   -2.1620   -2.0530 O   0  0  0  0  0  0  0  0  0  0  0  0
    3.5770   -0.7930   -1.8630 C   0  0  0  0  0  0  0  0  0  0  0  0
    3.0760    0.1550   -0.8650 C   0  0  0  0  0  0  0  0  0  0  0  0
    2.5730   -0.3020    0.3830 N   0  0  0  0  0  0  0  0  0  0  0  0
    2.8490    0.2920    1.6010 C   0  0  0  0  0  0  0  0  0  0  0  0
    4.1740    0.1870    2.2590 C   0  0  2  0  0  0  0  0  0  0  0  0
    4.0120    0.8750    3.5050 O   0  0  0  0  0  0  0  0  0  0  0  0
    5.7030    0.6700    1.5450 P   0  0  0  0  0  0  0  0  0  0  0  0
    5.7400    0.3240   -0.1390 O   0  0  0  0  0  0  0  0  0  0  0  0
    6.7320    0.7800   -0.9510 C   0  0  0  0  0  0  0  0  0  0  0  0
    6.0420    1.7460   -1.9410 C   0  0  0  0  0  0  0  0  0  0  0  0
    6.8570    1.7470    1.9000 O   0  0  0  0  0  0  0  0  0  0  0  0
    6.5630    3.0860    1.5960 C   0  0  0  0  0  0  0  0  0  0  0  0
    7.8070    3.5830    0.8430 C   0  0  0  0  0  0  0  0  0  0  0  0
   -2.8560    0.8370   -1.0220 C   0  0  0  0  0  0  0  0  0  0  0  0
   -4.0200    1.5740   -1.0300 C   0  0  0  0  0  0  0  0  0  0  0  0
  1  2  1  0
  2  3  1  0
  3  4  1  0
  4  5  1  0
  5  6  1  0
  6  7  1  6
  6  8  1  0
  8  9  2  0
  8 42  1  0
  9 10  1  0
 10 11  2  0
 11 12  1  0
 11 41  1  0
 12 13  2  0
 12 14  1  0
 15 14  1  6
 15 16  1  0
 15 21  1  0
 16 17  2  0
 16 18  1  0
 18 19  1  0
 19 20  1  0
 21 22  1  0
 21 30  1  1
 22 23  2  0
 22 24  1  0
 24 25  1  0
 24 26  1  0
 26 27  2  0
 26 28  1  0
 28 29  1  0
 29 30  1  0
 30 31  1  0
 31 32  1  0
 32 33  1  1
 32 34  1  0
 34 35  1  0
 34 38  1  0
 35 36  1  0
 36 37  1  0
 38 39  1  0
 39 40  1  0
 41 42  2  0
M  END
