
     RDKit          3D

 41 42  0  0  0  0  0  0  0  0999 V2000
   -9.6830    4.0170    1.7940 C   0  0  0  0  0  0  0  0  0  0  0  0
   -9.1610    2.6750    1.2960 C   0  0  0  0  0  0  0  0  0  0  0  0
   -7.9140    2.4580    1.8190 O   0  0  0  0  0  0  0  0  0  0  0  0
   -7.2620    0.9570    1.3590 P   0  0  0  0  0  0  0  0  0  0  0  0
   -5.5730    0.6980    2.0580 C   0  0  0  0  0  0  0  0  0  0  0  0
   -5.4310   -0.6880    2.6820 C   0  0  0  0  0  0  0  0  0  0  0  0
   -5.6880   -1.7400    1.6060 C   0  0  0  0  0  0  0  0  0  0  0  0
   -4.7190   -1.6320    0.5460 N   0  0  0  0  0  0  0  0  0  0  0  0
   -4.9060   -2.3620   -0.6510 C   0  0  0  0  0  0  0  0  0  0  0  0
   -6.1620   -2.8780   -0.9750 C   0  0  0  0  0  0  0  0  0  0  0  0
   -6.4190   -3.5120   -2.1730 C   0  0  0  0  0  0  0  0  0  0  0  0
   -5.3810   -3.6200   -3.0510 C   0  0  0  0  0  0  0  0  0  0  0  0
   -4.1110   -3.1110   -2.7430 C   0  0  0  0  0  0  0  0  0  0  0  0
   -3.8380   -2.4790   -1.5510 C   0  0  0  0  0  0  0  0  0  0  0  0
   -2.5680   -1.9990   -1.1560 N   0  0  0  0  0  0  0  0  0  0  0  0
   -1.3890   -2.0150   -1.9590 C   0  0  0  0  0  0  0  0  0  0  0  0
   -1.4170   -2.4510   -3.0990 O   0  0  0  0  0  0  0  0  0  0  0  0
   -0.1480   -1.4880   -1.3480 C   0  0  0  0  0  0  0  0  0  0  0  0
    0.8410   -1.0000   -2.1890 C   0  0  0  0  0  0  0  0  0  0  0  0
    2.0150   -0.5410   -1.6250 C   0  0  0  0  0  0  0  0  0  0  0  0
    2.2540   -0.5410   -0.2750 C   0  0  0  0  0  0  0  0  0  0  0  0
    3.4870   -0.0820    0.3310 C   0  0  0  0  0  0  0  0  0  0  0  0
    3.6920   -0.2440    1.5800 O   0  0  0  0  0  0  0  0  0  0  0  0
    4.5460    0.5630   -0.3560 N   0  0  0  0  0  0  0  0  0  0  0  0
    5.7630    0.9890    0.3140 C   0  0  0  0  0  0  0  0  0  0  0  0
    6.4960   -0.1670    0.9260 C   0  0  1  0  0  0  0  0  0  0  0  0
    6.8870   -1.1830   -0.1590 C   0  0  0  0  0  0  0  0  0  0  0  0
    7.7840    0.3170    1.4820 C   0  0  0  0  0  0  0  0  0  0  0  0
    8.0160    0.2020    2.7370 O   0  0  0  0  0  0  0  0  0  0  0  0
    8.7830    0.8980    0.7300 O   0  0  0  0  0  0  0  0  0  0  0  0
   10.0120    1.3390    1.2910 C   0  0  0  0  0  0  0  0  0  0  0  0
   10.9100    1.9330    0.2590 C   0  0  1  0  0  0  0  0  0  0  0  0
   11.2540    0.9130   -0.8090 C   0  0  0  0  0  0  0  0  0  0  0  0
   10.0410    0.5710   -1.4210 O   0  0  0  0  0  0  0  0  0  0  0  0
   10.3020    3.0560   -0.3100 O   0  0  0  0  0  0  0  0  0  0  0  0
   11.0130    4.2210   -0.0880 C   0  0  0  0  0  0  0  0  0  0  0  0
    1.2480   -1.0350    0.5340 C   0  0  0  0  0  0  0  0  0  0  0  0
    0.0530   -1.5060    0.0010 C   0  0  0  0  0  0  0  0  0  0  0  0
   -7.3980    0.5290   -0.2820 O   0  0  0  0  0  0  0  0  0  0  0  0
   -8.5540   -0.1890   -0.5370 C   0  0  0  0  0  0  0  0  0  0  0  0
   -8.6790   -0.6130   -1.9900 C   0  0  0  0  0  0  0  0  0  0  0  0
  1  2  1  0
  2  3  1  0
  3  4  1  0
  4  5  1  0
  4 39  1  0
  5  6  1  0
  6  7  1  0
  7  8  1  0
  8  9  1  0
  9 10  2  0
  9 14  1  0
 10 11  1  0
 11 12  2  0
 12 13  1  0
 13 14  2  0
 14 15  1  0
 15 16  1  0
 16 17  2  0
 16 18  1  0
 18 19  2  0
 18 38  1  0
 19 20  1  0
 20 21  2  0
 21 22  1  0
 21 37  1  0
 22 23  2  0
 22 24  1  0
 24 25  1  0
 25 26  1  0
 26 27  1  6
 26 28  1  0
 28 29  2  0
 28 30  1  0
 30 31  1  0
 32 31  1  1
 32 33  1  0
 32 35  1  0
 33 34  1  0
 35 36  1  0
 37 38  2  0
 39 40  1  0
 40 41  1  0
M  END
