
     RDKit          3D

 42 44  0  0  0  0  0  0  0  0999 V2000
   -6.9940   -0.9420    2.8860 C   0  0  0  0  0  0  0  0  0  0  0  0
   -6.7100   -1.3850    1.4500 C   0  0  0  0  0  0  0  0  0  0  0  0
   -5.7340   -2.3730    1.5520 O   0  0  0  0  0  0  0  0  0  0  0  0
   -5.3610   -2.9280   -0.0390 P   0  0  0  0  0  0  0  0  0  0  0  0
   -4.1410   -1.7670   -0.8030 C   0  0  0  0  0  0  0  0  0  0  0  0
   -3.3540   -1.1380    0.3280 C   0  0  0  0  0  0  0  0  0  0  0  0
   -2.3110   -0.1930   -0.2990 C   0  0  0  0  0  0  0  0  0  0  0  0
   -1.5780    0.3760    0.7400 N   0  0  0  0  0  0  0  0  0  0  0  0
   -0.4010    1.1520    0.4390 C   0  0  2  0  0  0  0  0  0  0  0  0
   -0.5930    2.2700   -0.4450 C   0  0  0  0  0  0  0  0  0  0  0  0
   -1.3290    2.2410   -1.5010 O   0  0  0  0  0  0  0  0  0  0  0  0
    0.0060    3.5780   -0.2650 N   0  0  0  0  0  0  0  0  0  0  0  0
   -0.2330    4.6530   -1.1950 C   0  0  0  0  0  0  0  0  0  0  0  0
    0.5140    5.8740   -0.7390 C   0  0  0  0  0  0  0  0  0  0  0  0
    0.0790    6.3260    0.6370 C   0  0  1  0  0  0  0  0  0  0  0  0
    0.8700    7.5600    1.0010 C   0  0  0  0  0  0  0  0  0  0  0  0
   -1.3820    6.6280    0.7180 C   0  0  0  0  0  0  0  0  0  0  0  0
    0.7860    0.2920    0.4340 C   0  0  1  0  0  0  0  0  0  0  0  0
    0.8160   -0.8750   -0.4840 C   0  0  0  0  0  0  0  0  0  0  0  0
    2.0310   -1.7700   -0.4100 C   0  0  0  0  0  0  0  0  0  0  0  0
    3.1660   -1.2720    0.3230 N   0  0  0  0  0  0  0  0  0  0  0  0
    4.4310   -1.9370    0.4420 C   0  0  0  0  0  0  0  0  0  0  0  0
    5.4340   -1.3500    1.2290 C   0  0  0  0  0  0  0  0  0  0  0  0
    6.6520   -1.9190    1.4890 C   0  0  0  0  0  0  0  0  0  0  0  0
    7.6110   -1.2940    2.2800 O   0  0  0  0  0  0  0  0  0  0  0  0
    7.3820   -0.0380    2.8610 C   0  0  0  0  0  0  0  0  0  0  0  0
    6.8740   -3.1460    0.9240 C   0  0  0  0  0  0  0  0  0  0  0  0
    5.9180   -3.7450    0.1490 C   0  0  0  0  0  0  0  0  0  0  0  0
    4.6600   -3.1720   -0.1300 C   0  0  0  0  0  0  0  0  0  0  0  0
    3.7400   -3.8590   -1.0320 C   0  0  2  0  0  0  0  0  0  0  0  0
    4.3980   -5.1800   -1.5400 C   0  0  0  0  0  0  0  0  0  0  0  0
    3.5550   -4.9830   -2.7030 O   0  0  0  0  0  0  0  0  0  0  0  0
    3.9070   -3.6330   -2.5030 C   0  0  0  0  0  0  0  0  0  0  0  0
    4.2220   -2.6560   -3.1920 O   0  0  0  0  0  0  0  0  0  0  0  0
    3.0120   -0.0440    1.0380 C   0  0  0  0  0  0  0  0  0  0  0  0
    3.4750    0.2880    2.1130 O   0  0  0  0  0  0  0  0  0  0  0  0
    2.1300    0.9850    0.3420 C   0  0  1  0  0  0  0  0  0  0  0  0
    2.6950    1.1360   -1.0210 C   0  0  0  0  0  0  0  0  0  0  0  0
    1.8530    1.8590   -1.8380 O   0  0  0  0  0  0  0  0  0  0  0  0
   -6.7900   -3.1180   -0.9890 O   0  0  0  0  0  0  0  0  0  0  0  0
   -7.1480   -4.4840   -0.8650 C   0  0  0  0  0  0  0  0  0  0  0  0
   -8.3930   -4.7800   -1.6650 C   0  0  0  0  0  0  0  0  0  0  0  0
  1  2  1  0
  2  3  1  0
  3  4  1  0
  4  5  1  0
  4 40  1  0
  5  6  1  0
  6  7  1  0
  7  8  1  0
  9  8  1  6
  9 10  1  0
  9 18  1  0
 10 11  2  0
 10 12  1  0
 12 13  1  0
 13 14  1  0
 14 15  1  0
 15 16  1  6
 15 17  1  0
 18 19  1  6
 18 37  1  0
 19 20  1  0
 20 21  1  0
 21 22  1  0
 21 35  1  0
 22 23  2  0
 22 29  1  0
 23 24  1  0
 24 25  1  0
 24 27  2  0
 25 26  1  0
 27 28  1  0
 28 29  2  0
 30 29  1  1
 30 31  1  0
 30 33  1  0
 31 32  1  0
 32 33  1  0
 33 34  2  0
 35 36  2  0
 35 37  1  0
 37 38  1  6
 38 39  1  0
 40 41  1  0
 41 42  1  0
M  END
