
     RDKit          3D

 42 43  0  0  0  0  0  0  0  0999 V2000
    5.3100    4.0830    0.9620 C   0  0  0  0  0  0  0  0  0  0  0  0
    4.8590    2.6380    1.0090 C   0  0  0  0  0  0  0  0  0  0  0  0
    5.5330    1.8670    0.0710 O   0  0  0  0  0  0  0  0  0  0  0  0
    4.9410    0.2390    0.2040 P   0  0  0  0  0  0  0  0  0  0  0  0
    5.2220   -0.5130    1.8520 C   0  0  0  0  0  0  0  0  0  0  0  0
    4.0420   -1.3170    2.3620 C   0  0  0  0  0  0  0  0  0  0  0  0
    2.7940   -0.5200    2.4790 C   0  0  1  0  0  0  0  0  0  0  0  0
    2.9650    0.6860    3.4000 C   0  0  0  0  0  0  0  0  0  0  0  0
    2.1820   -0.1620    1.3180 N   0  0  0  0  0  0  0  0  0  0  0  0
    1.4320   -0.9930    0.4460 C   0  0  2  0  0  0  0  0  0  0  0  0
    2.1390   -2.1560   -0.1360 C   0  0  0  0  0  0  0  0  0  0  0  0
    1.1940   -2.8260   -0.9730 O   0  0  0  0  0  0  0  0  0  0  0  0
    1.0150   -0.0350   -0.6390 C   0  0  0  0  0  0  0  0  0  0  0  0
    0.3220   -0.4450   -1.8150 C   0  0  0  0  0  0  0  0  0  0  0  0
    1.0820   -1.0300   -2.7100 O   0  0  0  0  0  0  0  0  0  0  0  0
   -1.0230   -0.3660   -2.2560 N   0  0  0  0  0  0  0  0  0  0  0  0
   -1.3970    0.1940   -3.5450 C   0  0  2  0  0  0  0  0  0  0  0  0
   -2.8320    0.0320   -4.0370 C   0  0  0  0  0  0  0  0  0  0  0  0
   -3.2530   -1.3800   -4.2440 C   0  0  0  0  0  0  0  0  0  0  0  0
   -0.4280    0.1780   -4.7250 C   0  0  0  0  0  0  0  0  0  0  0  0
   -0.6710    1.4570   -4.0390 C   0  0  0  0  0  0  0  0  0  0  0  0
   -2.1790   -0.7930   -1.4420 C   0  0  0  0  0  0  0  0  0  0  0  0
   -2.3770   -0.0070   -0.1800 C   0  0  0  0  0  0  0  0  0  0  0  0
   -3.6700    0.7680   -0.0850 C   0  0  0  0  0  0  0  0  0  0  0  0
   -4.0350    1.1110    1.2770 N   0  0  0  0  0  0  0  0  0  0  0  0
   -5.2490    0.5720    1.8100 C   0  0  0  0  0  0  0  0  0  0  0  0
   -5.5730    0.8600    3.0200 O   0  0  0  0  0  0  0  0  0  0  0  0
   -6.1910   -0.2980    1.0960 C   0  0  2  0  0  0  0  0  0  0  0  0
   -7.3520   -0.6460    2.0560 C   0  0  0  0  0  0  0  0  0  0  0  0
   -5.6140   -1.6050    0.6230 C   0  0  0  0  0  0  0  0  0  0  0  0
   -6.8380    0.3710   -0.0900 C   0  0  0  0  0  0  0  0  0  0  0  0
   -3.2700    1.9760    2.1040 C   0  0  0  0  0  0  0  0  0  0  0  0
   -4.0170    2.6650    2.9280 O   0  0  0  0  0  0  0  0  0  0  0  0
   -1.8820    2.2330    2.2070 C   0  0  0  0  0  0  0  0  0  0  0  0
   -0.8550    1.4810    2.5580 C   0  0  0  0  0  0  0  0  0  0  0  0
   -0.9430    0.0490    2.9650 C   0  0  0  0  0  0  0  0  0  0  0  0
   -0.0690   -0.7970    2.3870 O   0  0  0  0  0  0  0  0  0  0  0  0
    0.2540   -1.4560    1.2910 C   0  0  0  0  0  0  0  0  0  0  0  0
   -0.2680   -2.4860    0.7600 O   0  0  0  0  0  0  0  0  0  0  0  0
    5.5070   -0.7440   -1.1020 O   0  0  0  0  0  0  0  0  0  0  0  0
    6.9000   -0.8270   -1.0840 C   0  0  0  0  0  0  0  0  0  0  0  0
    7.4090   -1.6660   -2.2150 C   0  0  0  0  0  0  0  0  0  0  0  0
  1  2  1  0
  2  3  1  0
  3  4  1  0
  4  5  1  0
  4 40  1  0
  5  6  1  0
  6  7  1  0
  7  8  1  6
  7  9  1  0
  9 10  1  0
 10 11  1  6
 10 13  1  0
 10 38  1  0
 11 12  1  0
 13 14  1  0
 14 15  2  0
 14 16  1  0
 16 17  1  0
 16 22  1  0
 17 18  1  6
 17 20  1  0
 17 21  1  0
 18 19  1  0
 20 21  1  0
 22 23  1  0
 23 24  1  0
 24 25  1  0
 25 26  1  0
 25 32  1  0
 26 27  2  0
 26 28  1  0
 28 29  1  1
 28 30  1  0
 28 31  1  0
 32 33  2  0
 32 34  1  0
 34 35  2  0
 35 36  1  0
 36 37  1  0
 37 38  1  0
 38 39  2  0
 40 41  1  0
 41 42  1  0
M  END
