
     RDKit          3D

 42 43  0  0  0  0  0  0  0  0999 V2000
   -4.8700   -4.0990    4.0860 C   0  0  0  0  0  0  0  0  0  0  0  0
   -4.4370   -4.1550    2.8590 C   0  0  0  0  0  0  0  0  0  0  0  0
   -3.8960   -2.9860    2.1820 C   0  0  0  0  0  0  0  0  0  0  0  0
   -3.4480   -3.0100    0.9420 C   0  0  0  0  0  0  0  0  0  0  0  0
   -3.4200   -4.1950    0.0520 C   0  0  0  0  0  0  0  0  0  0  0  0
   -3.2500   -5.4090    0.3800 N   0  0  0  0  0  0  0  0  0  0  0  0
   -3.2500   -6.4310   -0.5940 C   0  0  0  0  0  0  0  0  0  0  0  0
   -3.9240   -7.4770   -0.3300 O   0  0  0  0  0  0  0  0  0  0  0  0
   -2.5860   -6.3930   -1.7970 O   0  0  0  0  0  0  0  0  0  0  0  0
   -3.6380   -3.5830   -1.2810 C   0  0  0  0  0  0  0  0  0  0  0  0
   -2.7730   -2.3020   -1.1510 C   0  0  1  0  0  0  0  0  0  0  0  0
   -3.0490   -1.4150   -2.2560 C   0  0  0  0  0  0  0  0  0  0  0  0
   -3.5020   -0.2880   -2.2040 O   0  0  0  0  0  0  0  0  0  0  0  0
   -2.7530   -1.9260   -3.5780 N   0  0  0  0  0  0  0  0  0  0  0  0
   -2.9940   -1.1210   -4.7560 C   0  0  0  0  0  0  0  0  0  0  0  0
   -2.8910   -1.9280    0.1810 N   0  0  0  0  0  0  0  0  0  0  0  0
   -2.5270   -0.6600    0.8970 C   0  0  2  0  0  0  0  0  0  0  0  0
   -3.5960    0.3610    0.5910 C   0  0  0  0  0  0  0  0  0  0  0  0
   -1.1920   -0.2760    0.4120 C   0  0  0  0  0  0  0  0  0  0  0  0
   -0.4830    0.8970    0.9750 C   0  0  1  0  0  0  0  0  0  0  0  0
    0.7740    0.9870    0.2680 O   0  0  0  0  0  0  0  0  0  0  0  0
    1.8280    0.6730    1.0960 C   0  0  0  0  0  0  0  0  0  0  0  0
    3.0890    0.8010    0.2340 C   0  0  0  0  0  0  0  0  0  0  0  0
    2.9470   -0.1750   -0.9180 C   0  0  0  0  0  0  0  0  0  0  0  0
    4.1700   -0.0660   -1.7870 C   0  0  0  0  0  0  0  0  0  0  0  0
    5.7330   -0.4650   -0.8950 P   0  0  0  0  0  0  0  0  0  0  0  0
    5.6590   -2.0280   -0.1740 O   0  0  0  0  0  0  0  0  0  0  0  0
    6.8790   -2.3310    0.4210 C   0  0  0  0  0  0  0  0  0  0  0  0
    6.7870   -3.7160    1.0460 C   0  0  0  0  0  0  0  0  0  0  0  0
    6.2010    0.7250    0.2470 O   0  0  0  0  0  0  0  0  0  0  0  0
    7.4190    1.3210   -0.0910 C   0  0  0  0  0  0  0  0  0  0  0  0
    7.7520    2.3530    0.9770 C   0  0  0  0  0  0  0  0  0  0  0  0
   -1.0950    2.2020    1.0160 C   0  0  0  0  0  0  0  0  0  0  0  0
   -2.0440    2.4990    1.7640 O   0  0  0  0  0  0  0  0  0  0  0  0
   -0.6570    3.2740    0.1900 O   0  0  0  0  0  0  0  0  0  0  0  0
   -1.2540    4.5180    0.2360 C   0  0  0  0  0  0  0  0  0  0  0  0
   -2.3000    4.7790   -0.6110 C   0  0  0  0  0  0  0  0  0  0  0  0
   -2.9600    5.9970   -0.6350 C   0  0  0  0  0  0  0  0  0  0  0  0
   -2.5490    6.9950    0.2330 C   0  0  0  0  0  0  0  0  0  0  0  0
   -3.2680    8.3040    0.1980 C   0  0  0  0  0  0  0  0  0  0  0  0
   -1.5050    6.7580    1.0900 C   0  0  0  0  0  0  0  0  0  0  0  0
   -0.8540    5.5260    1.0990 C   0  0  0  0  0  0  0  0  0  0  0  0
  1  2  2  0
  2  3  1  0
  3  4  2  3
  4  5  1  0
  4 16  1  0
  5  6  2  3
  5 10  1  0
  6  7  1  0
  7  8  2  0
  7  9  1  0
 10 11  1  0
 11 12  1  6
 11 16  1  0
 12 13  2  0
 12 14  1  0
 14 15  1  0
 16 17  1  0
 17 18  1  6
 17 19  1  0
 20 19  1  6
 20 21  1  0
 20 33  1  0
 21 22  1  0
 22 23  1  0
 23 24  1  0
 24 25  1  0
 25 26  1  0
 26 27  1  0
 26 30  1  0
 27 28  1  0
 28 29  1  0
 30 31  1  0
 31 32  1  0
 33 34  2  0
 33 35  1  0
 35 36  1  0
 36 37  2  0
 36 42  1  0
 37 38  1  0
 38 39  2  0
 39 40  1  0
 39 41  1  0
 41 42  2  0
M  END
