
     RDKit          3D

 42 44  0  0  0  0  0  0  0  0999 V2000
    8.6360   -1.7660   -2.5740 C   0  0  0  0  0  0  0  0  0  0  0  0
    7.3820   -1.4570   -3.0510 O   0  0  0  0  0  0  0  0  0  0  0  0
    6.5800   -0.7390   -2.1970 C   0  0  0  0  0  0  0  0  0  0  0  0
    6.3270   -1.4820   -0.9120 C   0  0  0  0  0  0  0  0  0  0  0  0
    5.4370   -0.6850    0.0220 C   0  0  1  0  0  0  0  0  0  0  0  0
    5.9900    0.5870    0.3990 N   0  0  0  0  0  0  0  0  0  0  0  0
    7.1280    0.7120    1.2300 C   0  0  0  0  0  0  0  0  0  0  0  0
    7.5820   -0.3740    1.9370 C   0  0  0  0  0  0  0  0  0  0  0  0
    8.7080   -0.2820    2.7500 C   0  0  0  0  0  0  0  0  0  0  0  0
    9.3930    0.9060    2.8640 C   0  0  0  0  0  0  0  0  0  0  0  0
   10.8650    0.9870    3.9420 P   0  0  0  0  0  0  0  0  0  0  0  0
   12.0230   -0.0650    3.8330 O   0  0  0  0  0  0  0  0  0  0  0  0
    8.9090    1.9720    2.1420 C   0  0  0  0  0  0  0  0  0  0  0  0
    7.8130    1.9090    1.3400 C   0  0  0  0  0  0  0  0  0  0  0  0
    4.0820   -0.4920   -0.5780 C   0  0  0  0  0  0  0  0  0  0  0  0
    3.6130    0.6690   -0.6610 O   0  0  0  0  0  0  0  0  0  0  0  0
    3.3150   -1.5420   -1.0490 O   0  0  0  0  0  0  0  0  0  0  0  0
    2.0260   -1.3930   -1.6210 C   0  0  0  0  0  0  0  0  0  0  0  0
    1.0420   -0.8300   -0.6340 C   0  0  0  0  0  0  0  0  0  0  0  0
   -0.2410   -0.6650   -1.1770 O   0  0  0  0  0  0  0  0  0  0  0  0
   -1.2260   -0.1650   -0.3130 C   0  0  0  0  0  0  0  0  0  0  0  0
   -0.9760    0.1440    1.0030 C   0  0  0  0  0  0  0  0  0  0  0  0
   -1.9710    0.6380    1.8390 C   0  0  0  0  0  0  0  0  0  0  0  0
   -3.2450    0.8210    1.3240 C   0  0  0  0  0  0  0  0  0  0  0  0
   -3.4780    0.5030   -0.0120 C   0  0  0  0  0  0  0  0  0  0  0  0
   -2.4820    0.0150   -0.8250 C   0  0  0  0  0  0  0  0  0  0  0  0
   -4.9060    0.8260   -0.2500 C   0  0  1  0  0  0  0  0  0  0  0  0
   -5.5190    0.2610   -1.3520 N   0  0  0  0  0  0  0  0  0  0  0  0
   -5.6840   -1.1290   -1.4850 C   0  0  0  0  0  0  0  0  0  0  0  0
   -6.3800   -1.5040   -2.8050 C   0  0  0  0  0  0  0  0  0  0  0  0
   -7.7340   -0.9070   -2.9120 C   0  0  0  0  0  0  0  0  0  0  0  0
   -8.3170   -1.2590   -4.1360 O   0  0  0  0  0  0  0  0  0  0  0  0
   -8.5850   -2.5540   -4.5120 C   0  0  0  0  0  0  0  0  0  0  0  0
   -9.2050   -2.8960   -5.8270 C   0  0  0  0  0  0  0  0  0  0  0  0
   -8.3210   -3.5260   -3.7640 O   0  0  0  0  0  0  0  0  0  0  0  0
   -5.5110    0.6490    1.1080 C   0  0  0  0  0  0  0  0  0  0  0  0
   -4.4460    1.2840    1.9170 N   0  0  0  0  0  0  0  0  0  0  0  0
   -4.6200    2.1370    3.0140 C   0  0  0  0  0  0  0  0  0  0  0  0
   -5.8270    2.4270    3.3020 O   0  0  0  0  0  0  0  0  0  0  0  0
   -3.5950    2.7340    3.8730 C   0  0  1  0  0  0  0  0  0  0  0  0
   -4.2190    3.9440    4.6090 C   0  0  0  0  0  0  0  0  0  0  0  0
   -3.2320    1.7820    5.0310 C   0  0  0  0  0  0  0  0  0  0  0  0
  1  2  1  0
  2  3  1  0
  3  4  1  0
  5  4  1  6
  5  6  1  0
  5 15  1  0
  6  7  1  0
  7  8  2  0
  7 14  1  0
  8  9  1  0
  9 10  2  0
 10 11  1  0
 10 13  1  0
 11 12  2  0
 13 14  2  0
 15 16  2  0
 15 17  1  0
 17 18  1  0
 18 19  1  0
 19 20  1  0
 20 21  1  0
 21 22  2  0
 21 26  1  0
 22 23  1  0
 23 24  2  0
 24 25  1  0
 24 37  1  0
 25 26  2  0
 25 27  1  0
 27 28  1  6
 27 36  1  0
 28 29  1  0
 29 30  1  0
 30 31  1  0
 31 32  1  0
 32 33  1  0
 33 34  1  0
 33 35  2  0
 36 37  1  0
 37 38  1  0
 38 39  2  0
 38 40  1  0
 40 41  1  1
 40 42  1  0
M  END
