
     RDKit          3D

 42 43  0  0  0  0  0  0  0  0999 V2000
   -5.7750   -7.3830   -1.4830 C   0  0  0  0  0  0  0  0  0  0  0  0
   -4.6210   -7.0350   -0.5600 C   0  0  0  0  0  0  0  0  0  0  0  0
   -4.7200   -5.6340   -0.2030 N   0  0  0  0  0  0  0  0  0  0  0  0
   -3.7790   -4.9990    0.6540 C   0  0  0  0  0  0  0  0  0  0  0  0
   -2.8320   -5.6510    1.1180 O   0  0  0  0  0  0  0  0  0  0  0  0
   -3.8970   -3.6180    0.9970 N   0  0  0  0  0  0  0  0  0  0  0  0
   -2.9720   -2.9680    1.8530 C   0  0  0  0  0  0  0  0  0  0  0  0
   -2.2430   -1.9310    1.5220 C   0  0  0  0  0  0  0  0  0  0  0  0
   -2.3640   -1.4090    0.2410 O   0  0  0  0  0  0  0  0  0  0  0  0
   -2.1680   -0.0530    0.1000 C   0  0  0  0  0  0  0  0  0  0  0  0
   -0.9030    0.4110    0.1290 C   0  0  0  0  0  0  0  0  0  0  0  0
    0.1410   -0.5420    0.3020 C   0  0  0  0  0  0  0  0  0  0  0  0
    1.4370   -0.2860    0.3920 C   0  0  0  0  0  0  0  0  0  0  0  0
    2.3220   -1.4310    0.5480 C   0  0  0  0  0  0  0  0  0  0  0  0
    1.6130   -2.5580    0.5300 O   0  0  0  0  0  0  0  0  0  0  0  0
    3.6620   -1.6420    0.7100 N   0  0  0  0  0  0  0  0  0  0  0  0
    4.0700   -3.1000    0.7950 C   0  0  0  0  0  0  0  0  0  0  0  0
    4.7670   -0.7670    0.8270 C   0  0  0  0  0  0  0  0  0  0  0  0
    5.5790   -0.3430   -0.8100 P   0  0  0  0  0  0  0  0  0  0  0  0
    6.6380    1.0150   -0.4640 O   0  0  0  0  0  0  0  0  0  0  0  0
    7.2450    0.8490    0.7780 C   0  0  0  0  0  0  0  0  0  0  0  0
    8.1390    2.0340    1.0310 C   0  0  0  0  0  0  0  0  0  0  0  0
    6.6040   -1.6530   -1.2590 O   0  0  0  0  0  0  0  0  0  0  0  0
    6.2040   -2.2620   -2.4440 C   0  0  0  0  0  0  0  0  0  0  0  0
    7.1460   -3.3870   -2.7620 C   0  0  0  0  0  0  0  0  0  0  0  0
    1.8570    1.1200    0.4980 C   0  0  0  0  0  0  0  0  0  0  0  0
    1.2260    2.1990    1.0570 C   0  0  0  0  0  0  0  0  0  0  0  0
    2.0160    3.3080    0.8870 C   0  0  0  0  0  0  0  0  0  0  0  0
    3.1370    2.8680    0.2130 C   0  0  0  0  0  0  0  0  0  0  0  0
    2.9910    1.6020    0.0160 O   0  0  0  0  0  0  0  0  0  0  0  0
   -3.3150    0.8240   -0.0720 C   0  0  0  0  0  0  0  0  0  0  0  0
   -4.6040    0.2720   -0.1080 C   0  0  0  0  0  0  0  0  0  0  0  0
   -5.7100    1.0660   -0.2640 C   0  0  0  0  0  0  0  0  0  0  0  0
   -5.6230    2.4440   -0.3930 C   0  0  0  0  0  0  0  0  0  0  0  0
   -6.8800    3.2180   -0.5560 C   0  0  0  0  0  0  0  0  0  0  0  0
   -4.3710    3.0090   -0.3600 C   0  0  0  0  0  0  0  0  0  0  0  0
   -4.2690    4.3860   -0.4870 O   0  0  0  0  0  0  0  0  0  0  0  0
   -3.0320    5.0690   -0.4670 C   0  0  0  0  0  0  0  0  0  0  0  0
   -3.3330    6.5540   -0.6300 C   0  0  0  0  0  0  0  0  0  0  0  0
   -2.0210    7.3350   -0.6140 C   0  0  0  0  0  0  0  0  0  0  0  0
   -1.1890    6.9310   -1.6480 O   0  0  0  0  0  0  0  0  0  0  0  0
   -3.2510    2.1860   -0.2000 C   0  0  0  0  0  0  0  0  0  0  0  0
  1  2  1  0
  2  3  1  0
  3  4  1  0
  4  5  2  0
  4  6  1  0
  6  7  1  0
  7  8  2  3
  8  9  1  0
  9 10  1  0
 10 11  2  3
 10 31  1  0
 11 12  1  0
 12 13  2  3
 13 14  1  0
 13 26  1  0
 14 15  2  0
 14 16  1  0
 16 17  1  0
 16 18  1  0
 18 19  1  0
 19 20  1  0
 19 23  1  0
 20 21  1  0
 21 22  1  0
 23 24  1  0
 24 25  1  0
 26 27  2  0
 26 30  1  0
 27 28  1  0
 28 29  2  0
 29 30  1  0
 31 32  2  0
 31 42  1  0
 32 33  1  0
 33 34  2  0
 34 35  1  0
 34 36  1  0
 36 37  1  0
 36 42  2  0
 37 38  1  0
 38 39  1  0
 39 40  1  0
 40 41  1  0
M  END
