
     RDKit          3D

 19 20  0  0  0  0  0  0  0  0999 V2000
    4.9790   -0.9440   -0.2020 N   0  0  0  0  0  0  0  0  0  0  0  0
    3.6440   -0.4640    0.0250 C   0  0  0  0  0  0  0  0  0  0  0  0
    3.2440   -0.1630    1.1840 O   0  0  0  0  0  0  0  0  0  0  0  0
    2.7510   -0.3230   -1.0710 N   0  0  0  0  0  0  0  0  0  0  0  0
    1.4280    0.1530   -0.8510 N   0  0  0  0  0  0  0  0  0  0  0  0
    0.5690   -0.5360    0.0380 C   0  0  0  0  0  0  0  0  0  0  0  0
    1.0320   -1.5900    0.6210 O   0  0  0  0  0  0  0  0  0  0  0  0
   -0.8050   -0.0870    0.3040 C   0  0  1  0  0  0  0  0  0  0  0  0
   -1.0620    1.1270   -0.3450 O   0  0  0  0  0  0  0  0  0  0  0  0
   -0.4020    2.3040   -0.1200 C   0  0  0  0  0  0  0  0  0  0  0  0
   -0.4850    3.3750   -0.8770 C   0  0  0  0  0  0  0  0  0  0  0  0
    0.3790    4.4100   -0.2800 C   0  0  0  0  0  0  0  0  0  0  0  0
    0.9330    3.7600    0.8890 N   0  0  0  0  0  0  0  0  0  0  0  0
    0.4960    2.5610    0.9900 C   0  0  0  0  0  0  0  0  0  0  0  0
   -1.7350   -1.1080   -0.3170 C   0  0  1  0  0  0  0  0  0  0  0  0
   -1.5440   -2.4900    0.3170 C   0  0  0  0  0  0  0  0  0  0  0  0
   -2.8940   -3.1020   -0.0920 C   0  0  0  0  0  0  0  0  0  0  0  0
   -3.7820   -1.8790    0.1750 C   0  0  0  0  0  0  0  0  0  0  0  0
   -3.0510   -0.7730   -0.1630 O   0  0  0  0  0  0  0  0  0  0  0  0
  1  2  1  0
  2  3  2  0
  2  4  1  0
  4  5  1  0
  5  6  1  0
  6  7  2  0
  6  8  1  0
  8  9  1  6
  8 15  1  0
  9 10  1  0
 10 11  2  0
 10 14  1  0
 11 12  1  0
 12 13  1  0
 13 14  2  0
 15 16  1  1
 15 19  1  0
 16 17  1  0
 17 18  1  0
 18 19  1  0
M  END
