
     RDKit          3D

 11 11  0  0  0  0  0  0  0  0999 V2000
   -1.9670   -0.7330    0.1450 N   0  0  0  0  0  0  0  0  0  0  0  0
   -0.5820   -0.7320   -0.1680 C   0  0  2  0  0  0  0  0  0  0  0  0
    0.3160   -1.0850    0.9950 C   0  0  1  0  0  0  0  0  0  0  0  0
   -0.1900   -2.1980    1.6760 O   0  0  0  0  0  0  0  0  0  0  0  0
    1.5400   -1.4180    0.4780 O   0  0  0  0  0  0  0  0  0  0  0  0
    2.1740   -0.4610   -0.2420 C   0  0  0  0  0  0  0  0  0  0  0  0
    1.3540    0.3930   -1.1190 C   0  0  0  0  0  0  0  0  0  0  0  0
   -0.0690    0.5710   -0.7260 C   0  0  1  0  0  0  0  0  0  0  0  0
   -0.8840    0.8900   -1.8210 O   0  0  0  0  0  0  0  0  0  0  0  0
   -0.1840    1.7010    0.2550 C   0  0  0  0  0  0  0  0  0  0  0  0
   -1.4940    1.8970    0.7000 O   0  0  0  0  0  0  0  0  0  0  0  0
  2  1  1  1
  2  3  1  0
  2  8  1  0
  3  4  1  6
  3  5  1  0
  5  6  1  0
  6  7  1  0
  7  8  1  0
  8  9  1  6
  8 10  1  0
 10 11  1  0
M  CHG  1   1   1
M  END
