
     RDKit          3D

 19 20  0  0  0  0  0  0  0  0999 V2000
   -2.4330    3.1320   -1.4880 N   0  0  0  0  0  0  0  0  0  0  0  0
   -1.6930    1.9310   -1.4370 C   0  0  0  0  0  0  0  0  0  0  0  0
   -0.6960    1.8010   -2.1820 O   0  0  0  0  0  0  0  0  0  0  0  0
   -2.0440    0.8370   -0.5520 C   0  0  0  0  0  0  0  0  0  0  0  0
   -1.2820   -0.2690   -0.5590 C   0  0  0  0  0  0  0  0  0  0  0  0
   -0.2360   -0.2630   -1.4010 O   0  0  0  0  0  0  0  0  0  0  0  0
    1.1410   -0.3610   -1.1570 C   0  0  1  0  0  0  0  0  0  0  0  0
    1.6510    0.7290   -0.2590 C   0  0  0  0  0  0  0  0  0  0  0  0
    2.3250    0.2660    0.9850 C   0  0  0  0  0  0  0  0  0  0  0  0
    3.7550   -0.1720    0.7520 C   0  0  0  0  0  0  0  0  0  0  0  0
    3.7750   -1.4850    0.3600 O   0  0  0  0  0  0  0  0  0  0  0  0
    3.1750   -1.6890   -0.8820 C   0  0  0  0  0  0  0  0  0  0  0  0
    1.6510   -1.6920   -0.7510 C   0  0  0  0  0  0  0  0  0  0  0  0
   -1.5310   -1.4370    0.2750 C   0  0  0  0  0  0  0  0  0  0  0  0
   -1.1590   -2.5670   -0.1820 O   0  0  0  0  0  0  0  0  0  0  0  0
   -2.1600   -1.4150    1.5670 N   0  0  0  0  0  0  0  0  0  0  0  0
   -3.0440   -0.3740    2.0980 C   0  0  0  0  0  0  0  0  0  0  0  0
   -3.8700    0.2310    1.0900 N   0  0  0  0  0  0  0  0  0  0  0  0
   -3.2020    1.1060    0.2410 N   0  0  0  0  0  0  0  0  0  0  0  0
  1  2  1  0
  2  3  2  0
  2  4  1  0
  4  5  2  0
  4 19  1  0
  5  6  1  0
  5 14  1  0
  7  6  1  1
  7  8  1  0
  7 13  1  0
  8  9  1  0
  9 10  1  0
 10 11  1  0
 11 12  1  0
 12 13  1  0
 14 15  2  0
 14 16  1  0
 16 17  1  0
 17 18  1  0
 18 19  1  0
M  END
