
     RDKit          3D

 19 20  0  0  0  0  0  0  0  0999 V2000
    3.5450    0.1840    2.5560 N   0  0  0  0  0  0  0  0  0  0  0  0
    2.5290    0.4390    1.6050 C   0  0  0  0  0  0  0  0  0  0  0  0
    1.4230    0.8150    2.0680 O   0  0  0  0  0  0  0  0  0  0  0  0
    2.7920    0.2620    0.1710 C   0  0  0  0  0  0  0  0  0  0  0  0
    3.9800   -0.1300   -0.3150 C   0  0  0  0  0  0  0  0  0  0  0  0
    3.8980   -0.2030   -1.7880 C   0  0  0  0  0  0  0  0  0  0  0  0
    2.5050    0.2030   -2.0460 C   0  0  0  0  0  0  0  0  0  0  0  0
    1.8630    0.4720   -0.9210 C   0  0  0  0  0  0  0  0  0  0  0  0
    0.4890    0.9090   -0.8100 N   0  0  0  0  0  0  0  0  0  0  0  0
   -0.5140    0.1310   -0.1920 C   0  0  0  0  0  0  0  0  0  0  0  0
   -0.2040   -0.9960    0.2750 O   0  0  0  0  0  0  0  0  0  0  0  0
   -1.9310    0.6140   -0.0830 C   0  0  0  0  0  0  0  0  0  0  0  0
   -2.8430   -0.3740    0.5580 C   0  0  1  0  0  0  0  0  0  0  0  0
   -4.1630    0.2210    0.6110 N   0  0  0  0  0  0  0  0  0  0  0  0
   -5.0880   -0.8190    0.3890 C   0  0  0  0  0  0  0  0  0  0  0  0
   -6.3510   -0.7960    0.6300 O   0  0  0  0  0  0  0  0  0  0  0  0
   -4.3950   -1.9280   -0.1580 N   0  0  0  0  0  0  0  0  0  0  0  0
   -3.0250   -1.5910   -0.2830 C   0  0  0  0  0  0  0  0  0  0  0  0
   -2.1710   -2.1800   -0.9470 O   0  0  0  0  0  0  0  0  0  0  0  0
  1  2  1  0
  2  3  2  0
  2  4  1  0
  4  5  2  0
  4  8  1  0
  5  6  1  0
  6  7  1  0
  7  8  2  0
  8  9  1  0
  9 10  1  0
 10 11  2  0
 10 12  1  0
 13 12  1  6
 13 14  1  0
 13 18  1  0
 14 15  1  0
 15 16  2  0
 15 17  1  0
 17 18  1  0
 18 19  2  0
M  END
