
     RDKit          3D

 19 20  0  0  0  0  0  0  0  0999 V2000
   -3.0040    1.5910    0.8610 C   0  0  0  0  0  0  0  0  0  0  0  0
   -3.1390    0.8540   -0.4300 C   0  0  0  0  0  0  0  0  0  0  0  0
   -2.0400   -0.0780   -0.7820 C   0  0  2  0  0  0  0  0  0  0  0  0
   -2.3780   -0.7490   -2.1170 C   0  0  0  0  0  0  0  0  0  0  0  0
   -1.6620   -1.1020    0.2110 C   0  0  2  0  0  0  0  0  0  0  0  0
   -2.7310   -1.8790    0.5870 O   0  0  0  0  0  0  0  0  0  0  0  0
   -0.7550   -0.7570    1.3150 C   0  0  0  0  0  0  0  0  0  0  0  0
    0.5880   -0.3580    0.8660 N   0  0  0  0  0  0  0  0  0  0  0  0
    1.0970    0.8250    0.5660 C   0  0  0  0  0  0  0  0  0  0  0  0
    0.5680    1.9580    0.5840 O   0  0  0  0  0  0  0  0  0  0  0  0
    2.4370    0.6710    0.1810 C   0  0  0  0  0  0  0  0  0  0  0  0
    3.3840    1.5400   -0.2130 N   0  0  0  0  0  0  0  0  0  0  0  0
    4.6170    1.1900   -0.5410 N   0  0  0  0  0  0  0  0  0  0  0  0
    4.9370   -0.1300   -0.4730 C   0  0  0  0  0  0  0  0  0  0  0  0
    6.1070   -0.4590   -0.7840 O   0  0  0  0  0  0  0  0  0  0  0  0
    3.9960   -0.9990   -0.0810 N   0  0  0  0  0  0  0  0  0  0  0  0
    2.7500   -0.6120    0.2470 C   0  0  0  0  0  0  0  0  0  0  0  0
    1.6100   -1.2470    0.6690 C   0  0  0  0  0  0  0  0  0  0  0  0
    1.5010   -2.4800    0.8560 O   0  0  0  0  0  0  0  0  0  0  0  0
  1  2  1  0
  2  3  1  0
  3  4  1  6
  3  5  1  0
  5  6  1  1
  5  7  1  0
  7  8  1  0
  8  9  1  0
  8 18  1  0
  9 10  2  0
  9 11  1  0
 11 12  1  0
 11 17  2  0
 12 13  1  0
 13 14  1  0
 14 15  2  0
 14 16  1  0
 16 17  1  0
 17 18  1  0
 18 19  2  0
M  END
