
     RDKit          3D

 47 51  0  0  0  0  0  0  0  0999 V2000
    5.2490   -4.4820    1.9570 C   0  0  0  0  0  0  0  0  0  0  0  0
    4.1810   -3.4750    1.6780 C   0  0  0  0  0  0  0  0  0  0  0  0
    2.9040   -3.8490    1.3380 C   0  0  0  0  0  0  0  0  0  0  0  0
    1.9830   -2.8630    1.0980 C   0  0  0  0  0  0  0  0  0  0  0  0
    2.2670   -1.4820    1.1770 C   0  0  0  0  0  0  0  0  0  0  0  0
    3.5630   -1.0970    1.5220 C   0  0  0  0  0  0  0  0  0  0  0  0
    4.4730   -2.1390    1.7600 C   0  0  0  0  0  0  0  0  0  0  0  0
    4.0910    0.1880    1.7200 N   0  0  0  0  0  0  0  0  0  0  0  0
    4.0240    1.4140    1.0470 C   0  0  0  0  0  0  0  0  0  0  0  0
    3.1960    2.2970    1.6140 O   0  0  0  0  0  0  0  0  0  0  0  0
    4.6680    1.9490   -0.1450 C   0  0  0  0  0  0  0  0  0  0  0  0
    5.8560    1.3870   -0.6590 N   0  0  1  0  0  0  0  0  0  0  0  0
    6.9370    1.7410    0.2540 C   0  0  0  0  0  0  0  0  0  0  0  0
    7.0040    2.7000    1.2100 C   0  0  0  0  0  0  0  0  0  0  0  0
    8.1580    2.8550    1.9640 C   0  0  0  0  0  0  0  0  0  0  0  0
    9.2240    2.0320    1.7330 C   0  0  0  0  0  0  0  0  0  0  0  0
    9.1760    1.0490    0.7620 C   0  0  0  0  0  0  0  0  0  0  0  0
    8.0090    0.9130    0.0200 C   0  0  0  0  0  0  0  0  0  0  0  0
    7.5980   -0.0100   -1.0700 C   0  0  0  0  0  0  0  0  0  0  0  0
    6.0440    0.0140   -0.7700 C   0  0  2  0  0  0  0  0  0  0  0  0
    5.3900   -0.8190   -1.7640 C   0  0  0  0  0  0  0  0  0  0  0  0
    5.3460   -2.0690   -1.3460 O   0  0  0  0  0  0  0  0  0  0  0  0
    4.8260   -0.6170   -3.0040 N   0  0  0  0  0  0  0  0  0  0  0  0
    3.6320    0.0550   -3.4400 C   0  0  0  0  0  0  0  0  0  0  0  0
    2.4020   -0.7830   -3.4030 C   0  0  0  0  0  0  0  0  0  0  0  0
    2.2280   -1.6720   -4.2590 O   0  0  0  0  0  0  0  0  0  0  0  0
    1.3770   -0.6010   -2.3900 N   0  0  0  0  0  0  0  0  0  0  0  0
    1.7820    0.2500   -1.2780 C   0  0  0  0  0  0  0  0  0  0  0  0
    0.8920    0.2500   -0.1040 C   0  0  1  0  0  0  0  0  0  0  0  0
   -0.5120    0.0470   -0.5800 C   0  0  0  0  0  0  0  0  0  0  0  0
   -1.1620   -0.8720   -0.0080 O   0  0  0  0  0  0  0  0  0  0  0  0
   -1.1020    0.7820   -1.5660 O   0  0  0  0  0  0  0  0  0  0  0  0
   -2.4610    0.4620   -1.9050 C   0  0  0  0  0  0  0  0  0  0  0  0
   -3.3500    0.6350   -0.7310 C   0  0  0  0  0  0  0  0  0  0  0  0
   -2.9560    1.0160    0.3640 O   0  0  0  0  0  0  0  0  0  0  0  0
   -4.8000    0.3330   -0.8810 C   0  0  0  0  0  0  0  0  0  0  0  0
   -5.5480    0.5810    0.4080 C   0  0  0  0  0  0  0  0  0  0  0  0
   -7.0040    0.2650    0.2300 C   0  0  2  0  0  0  0  0  0  0  0  0
   -7.6620    1.0910   -0.8250 C   0  0  1  0  0  0  0  0  0  0  0  0
   -7.6810    0.3160   -2.1450 C   0  0  0  0  0  0  0  0  0  0  0  0
   -9.1100    1.4100   -0.5130 C   0  0  0  0  0  0  0  0  0  0  0  0
   -9.7090    0.1980    0.1560 C   0  0  0  0  0  0  0  0  0  0  0  0
   -9.1350    0.1330    1.5560 C   0  0  0  0  0  0  0  0  0  0  0  0
   -7.6640    0.3920    1.5870 C   0  0  1  0  0  0  0  0  0  0  0  0
   -7.0390   -0.6920    2.4740 C   0  0  0  0  0  0  0  0  0  0  0  0
   -7.3160    1.7190    2.1890 C   0  0  0  0  0  0  0  0  0  0  0  0
    1.2400   -0.6380    0.9100 O   0  0  0  0  0  0  0  0  0  0  0  0
  1  2  1  0
  2  3  2  0
  2  7  1  0
  3  4  1  0
  4  5  2  0
  5  6  1  0
  5 47  1  0
  6  7  2  0
  6  8  1  0
  8  9  1  0
  9 10  2  0
  9 11  1  0
 12 11  1  1
 12 13  1  0
 12 20  1  0
 13 14  2  0
 13 18  1  0
 14 15  1  0
 15 16  2  0
 16 17  1  0
 17 18  2  0
 18 19  1  0
 20 19  1  6
 20 21  1  0
 21 22  2  0
 21 23  1  0
 23 24  1  0
 24 25  1  0
 25 26  2  0
 25 27  1  0
 27 28  1  0
 28 29  1  0
 29 30  1  6
 29 47  1  0
 30 31  2  0
 30 32  1  0
 32 33  1  0
 33 34  1  0
 34 35  2  0
 34 36  1  0
 36 37  1  0
 38 37  1  1
 38 39  1  0
 38 44  1  0
 39 40  1  6
 39 41  1  0
 41 42  1  0
 42 43  1  0
 43 44  1  0
 44 45  1  1
 44 46  1  0
M  CHG  1  12   1
M  END
