
     RDKit          3D

 47 50  0  0  0  0  0  0  0  0999 V2000
    4.0510   -4.7340    2.2230 C   0  0  0  0  0  0  0  0  0  0  0  0
    3.8750   -3.4960    1.9580 C   0  0  0  0  0  0  0  0  0  0  0  0
    2.8710   -2.5000    1.7210 C   0  0  0  0  0  0  0  0  0  0  0  0
    3.4800   -1.2980    1.3420 C   0  0  0  0  0  0  0  0  0  0  0  0
    4.9350   -1.1630    1.2230 C   0  0  0  0  0  0  0  0  0  0  0  0
    1.4640   -2.5230    1.4250 C   0  0  0  0  0  0  0  0  0  0  0  0
    0.4960   -3.2920    1.8400 C   0  0  0  0  0  0  0  0  0  0  0  0
    0.8720   -4.2910    2.8900 C   0  0  0  0  0  0  0  0  0  0  0  0
    0.1510   -5.2740    3.1880 O   0  0  0  0  0  0  0  0  0  0  0  0
    2.0130   -4.1190    3.5950 O   0  0  0  0  0  0  0  0  0  0  0  0
   -0.9120   -3.3320    1.3870 C   0  0  0  0  0  0  0  0  0  0  0  0
   -1.7190   -3.2240    2.4230 O   0  0  0  0  0  0  0  0  0  0  0  0
   -1.5980   -3.4610    0.1910 N   0  0  0  0  0  0  0  0  0  0  0  0
   -1.8640   -2.7400   -1.0080 C   0  0  0  0  0  0  0  0  0  0  0  0
   -1.4710   -3.3870   -2.2000 C   0  0  0  0  0  0  0  0  0  0  0  0
   -0.8420   -4.7730   -2.1560 C   0  0  0  0  0  0  0  0  0  0  0  0
   -1.6520   -2.8610   -3.4580 C   0  0  0  0  0  0  0  0  0  0  0  0
   -2.2510   -1.6420   -3.5320 C   0  0  0  0  0  0  0  0  0  0  0  0
   -2.6540   -0.9750   -2.3790 C   0  0  0  0  0  0  0  0  0  0  0  0
   -3.3260    0.3240   -2.6500 C   0  0  0  0  0  0  0  0  0  0  0  0
   -2.4730   -1.4980   -1.1070 C   0  0  0  0  0  0  0  0  0  0  0  0
   -2.9720   -0.6620    0.0260 C   0  0  0  0  0  0  0  0  0  0  0  0
   -2.1470    0.4990    0.3990 C   0  0  2  0  0  0  0  0  0  0  0  0
   -1.6080    0.4020    1.8370 C   0  0  0  0  0  0  0  0  0  0  0  0
   -2.9830    1.7770    0.4500 C   0  0  1  0  0  0  0  0  0  0  0  0
   -3.9790    1.6770    1.5630 C   0  0  0  0  0  0  0  0  0  0  0  0
   -4.8790    0.7800    1.7010 O   0  0  0  0  0  0  0  0  0  0  0  0
   -3.8100    2.7340    2.4890 N   0  0  0  0  0  0  0  0  0  0  0  0
   -4.6010    3.0440    3.6660 C   0  0  0  0  0  0  0  0  0  0  0  0
   -2.6780    3.4700    2.0540 C   0  0  0  0  0  0  0  0  0  0  0  0
   -2.2480    4.4950    2.6690 O   0  0  0  0  0  0  0  0  0  0  0  0
   -2.1360    2.8900    0.8730 N   0  0  0  0  0  0  0  0  0  0  0  0
   -0.9320    3.2980    0.1740 C   0  0  0  0  0  0  0  0  0  0  0  0
   -0.9360    3.0590   -1.2670 C   0  0  0  0  0  0  0  0  0  0  0  0
   -1.8200    3.7110   -1.9330 O   0  0  0  0  0  0  0  0  0  0  0  0
   -0.1130    2.2320   -1.9610 O   0  0  0  0  0  0  0  0  0  0  0  0
    1.2950    2.1260   -1.8780 C   0  0  1  0  0  0  0  0  0  0  0  0
    1.9340    3.4270   -1.6900 C   0  0  0  0  0  0  0  0  0  0  0  0
    2.9230    3.7610   -0.8180 C   0  0  0  0  0  0  0  0  0  0  0  0
    3.4080    5.0610   -0.7680 C   0  0  0  0  0  0  0  0  0  0  0  0
    2.9450    6.0420   -1.5550 N   0  0  0  0  0  0  0  0  0  0  0  0
    1.9760    5.7450   -2.4190 C   0  0  0  0  0  0  0  0  0  0  0  0
    1.4740    4.4830   -2.4980 C   0  0  0  0  0  0  0  0  0  0  0  0
    1.7090    1.0290   -0.9320 C   0  0  0  0  0  0  0  0  0  0  0  0
    1.9430   -0.2680   -1.6340 C   0  0  0  0  0  0  0  0  0  0  0  0
    1.7140   -1.4800   -0.8390 C   0  0  0  0  0  0  0  0  0  0  0  0
    1.0700   -1.3510    0.4540 C   0  0  0  0  0  0  0  0  0  0  0  0
  1  2  2  0
  2  3  1  0
  3  4  2  3
  3  6  1  0
  4  5  1  0
  6  7  2  0
  6 47  1  0
  7  8  1  0
  7 11  1  0
  8  9  2  0
  8 10  1  0
 11 12  2  0
 11 13  1  0
 13 14  1  0
 14 15  2  0
 14 21  1  0
 15 16  1  0
 15 17  1  0
 17 18  2  0
 18 19  1  0
 19 20  1  0
 19 21  2  0
 21 22  1  0
 22 23  1  0
 23 24  1  1
 23 25  1  0
 25 26  1  1
 25 32  1  0
 26 27  2  0
 26 28  1  0
 28 29  1  0
 28 30  1  0
 30 31  2  0
 30 32  1  0
 32 33  1  0
 33 34  1  0
 34 35  2  0
 34 36  1  0
 36 37  1  0
 37 38  1  1
 37 44  1  0
 38 39  2  0
 38 43  1  0
 39 40  1  0
 40 41  2  0
 41 42  1  0
 42 43  2  0
 44 45  1  0
 45 46  1  0
 46 47  1  0
M  CHG  1  41   1
M  END
