
     RDKit          3D

 47 50  0  0  0  0  0  0  0  0999 V2000
    5.9210    2.1910    2.2540 C   0  0  0  0  0  0  0  0  0  0  0  0
    6.6600    2.9690    1.2280 C   0  0  0  0  0  0  0  0  0  0  0  0
    7.9610    3.3670    1.5870 C   0  0  0  0  0  0  0  0  0  0  0  0
    8.7200    4.1200    0.7490 C   0  0  0  0  0  0  0  0  0  0  0  0
    8.2200    4.5080   -0.4760 C   0  0  0  0  0  0  0  0  0  0  0  0
    6.9460    4.1110   -0.8150 C   0  0  0  0  0  0  0  0  0  0  0  0
    6.1390    3.3320    0.0300 C   0  0  0  0  0  0  0  0  0  0  0  0
    4.8500    2.9370   -0.4660 C   0  0  0  0  0  0  0  0  0  0  0  0
    4.3370    3.7460   -1.3380 O   0  0  0  0  0  0  0  0  0  0  0  0
    4.0930    1.8070   -0.1380 N   0  0  0  0  0  0  0  0  0  0  0  0
    2.7930    1.4830   -0.6630 C   0  0  0  0  0  0  0  0  0  0  0  0
    2.0050    2.4860   -1.1340 C   0  0  0  0  0  0  0  0  0  0  0  0
    0.7320    2.1330   -1.5220 C   0  0  0  0  0  0  0  0  0  0  0  0
    0.2270    0.8100   -1.4510 C   0  0  0  0  0  0  0  0  0  0  0  0
    1.0430   -0.1880   -0.9690 C   0  0  0  0  0  0  0  0  0  0  0  0
    2.3200    0.1210   -0.5760 C   0  0  0  0  0  0  0  0  0  0  0  0
    3.4360   -0.7320   -0.0850 C   0  0  0  0  0  0  0  0  0  0  0  0
    3.5460   -2.1090   -0.3290 N   0  0  1  0  0  0  0  0  0  0  0  0
    4.9010   -2.5260   -0.7120 C   0  0  0  0  0  0  0  0  0  0  0  0
    3.2120   -2.8370    0.8910 C   0  0  0  0  0  0  0  0  0  0  0  0
    1.8640   -3.4300    0.8810 C   0  0  0  0  0  0  0  0  0  0  0  0
    0.9310   -2.8200    1.3760 O   0  0  0  0  0  0  0  0  0  0  0  0
    1.5990   -4.7640    0.2800 C   0  0  0  0  0  0  0  0  0  0  0  0
    0.2430   -4.6700   -0.4280 C   0  0  0  0  0  0  0  0  0  0  0  0
   -0.8240   -4.9600    0.5860 C   0  0  0  0  0  0  0  0  0  0  0  0
   -2.0770   -4.1300    0.3810 C   0  0  0  0  0  0  0  0  0  0  0  0
   -2.8770   -4.5860   -0.7740 C   0  0  0  0  0  0  0  0  0  0  0  0
   -2.3540   -5.1590   -1.7450 O   0  0  0  0  0  0  0  0  0  0  0  0
   -4.2380   -4.3570   -0.7470 O   0  0  0  0  0  0  0  0  0  0  0  0
   -4.9110   -3.5910    0.2230 C   0  0  0  0  0  0  0  0  0  0  0  0
   -5.8940   -2.6210   -0.4460 C   0  0  1  0  0  0  0  0  0  0  0  0
   -7.2570   -3.2950   -0.6230 C   0  0  0  0  0  0  0  0  0  0  0  0
   -6.0730   -1.5050    0.5160 C   0  0  0  0  0  0  0  0  0  0  0  0
   -6.6300   -1.7310    1.5680 O   0  0  0  0  0  0  0  0  0  0  0  0
   -5.5880   -0.1310    0.2230 C   0  0  0  0  0  0  0  0  0  0  0  0
   -4.6420    0.3540    1.2870 C   0  0  0  0  0  0  0  0  0  0  0  0
   -3.4720    1.1030    0.5530 C   0  0  2  0  0  0  0  0  0  0  0  0
   -4.1460    2.2650   -0.0690 C   0  0  0  0  0  0  0  0  0  0  0  0
   -3.2500    3.1950   -0.8310 C   0  0  2  0  0  0  0  0  0  0  0  0
   -2.1690    3.7770    0.0580 C   0  0  0  0  0  0  0  0  0  0  0  0
   -2.9610    4.8350    0.8340 C   0  0  0  0  0  0  0  0  0  0  0  0
   -4.0990    5.1450   -0.0970 C   0  0  0  0  0  0  0  0  0  0  0  0
   -4.0070    4.3330   -1.2010 O   0  0  0  0  0  0  0  0  0  0  0  0
   -2.8960    0.1110   -0.2890 N   0  0  0  0  0  0  0  0  0  0  0  0
   -2.3150    0.1710   -1.5620 C   0  0  0  0  0  0  0  0  0  0  0  0
   -2.9450   -0.4200   -2.5370 O   0  0  0  0  0  0  0  0  0  0  0  0
   -1.1060    0.7930   -1.9640 N   0  0  0  0  0  0  0  0  0  0  0  0
  1  2  1  0
  2  3  2  0
  2  7  1  0
  3  4  1  0
  4  5  2  0
  5  6  1  0
  6  7  2  0
  7  8  1  0
  8  9  2  0
  8 10  1  0
 10 11  1  0
 11 12  2  0
 11 16  1  0
 12 13  1  0
 13 14  2  0
 14 15  1  0
 14 47  1  0
 15 16  2  0
 16 17  1  0
 17 18  1  0
 18 19  1  1
 18 20  1  0
 20 21  1  0
 21 22  2  0
 21 23  1  0
 23 24  1  0
 24 25  1  0
 25 26  1  0
 26 27  1  0
 27 28  2  0
 27 29  1  0
 29 30  1  0
 30 31  1  0
 31 32  1  1
 31 33  1  0
 33 34  2  0
 33 35  1  0
 35 36  1  0
 36 37  1  0
 37 38  1  6
 37 44  1  0
 39 38  1  1
 39 40  1  0
 39 43  1  0
 40 41  1  0
 41 42  1  0
 42 43  1  0
 44 45  1  0
 45 46  2  0
 45 47  1  0
M  CHG  1  18   1
M  END
