
     RDKit          3D

 47 50  0  0  0  0  0  0  0  0999 V2000
    2.0630    4.3620    3.0490 C   0  0  0  0  0  0  0  0  0  0  0  0
    2.4060    4.6690    1.6370 C   0  0  0  0  0  0  0  0  0  0  0  0
    1.1350    4.7700    0.8750 N   0  0  0  0  0  0  0  0  0  0  0  0
    0.5910    5.9830    0.7960 C   0  0  0  0  0  0  0  0  0  0  0  0
    1.1610    6.9530    1.4020 O   0  0  0  0  0  0  0  0  0  0  0  0
   -0.5090    6.1690    0.1060 N   0  0  0  0  0  0  0  0  0  0  0  0
   -1.0650    5.1530   -0.5100 C   0  0  0  0  0  0  0  0  0  0  0  0
   -2.1570    5.3810   -1.1780 O   0  0  0  0  0  0  0  0  0  0  0  0
   -0.5450    3.8210   -0.4840 C   0  0  0  0  0  0  0  0  0  0  0  0
    0.6120    3.6370    0.2640 C   0  0  0  0  0  0  0  0  0  0  0  0
    1.1920    2.4880    0.5740 C   0  0  0  0  0  0  0  0  0  0  0  0
    1.1530    1.0940    0.3380 C   0  0  0  0  0  0  0  0  0  0  0  0
    0.8960    0.5270    1.5830 O   0  0  0  0  0  0  0  0  0  0  0  0
    1.2510    0.1080   -0.5040 O   0  0  0  0  0  0  0  0  0  0  0  0
    2.0010   -0.5200   -1.4350 C   0  0  1  0  0  0  0  0  0  0  0  0
    3.4060   -0.7190   -1.0120 C   0  0  0  0  0  0  0  0  0  0  0  0
    3.8000   -1.5260    0.1370 C   0  0  0  0  0  0  0  0  0  0  0  0
    3.3940   -1.2240    1.4840 C   0  0  0  0  0  0  0  0  0  0  0  0
    2.5990   -1.9190    2.1730 O   0  0  0  0  0  0  0  0  0  0  0  0
    3.8930   -0.0830    2.1180 O   0  0  0  0  0  0  0  0  0  0  0  0
    3.5790    0.3160    3.4140 C   0  0  0  0  0  0  0  0  0  0  0  0
    1.3910   -1.7770   -1.9530 C   0  0  0  0  0  0  0  0  0  0  0  0
    1.8600   -2.1300   -3.1750 C   0  0  0  0  0  0  0  0  0  0  0  0
    2.8300   -1.4780   -4.0190 C   0  0  1  0  0  0  0  0  0  0  0  0
    4.0280   -2.4070   -4.3240 C   0  0  0  0  0  0  0  0  0  0  0  0
    2.2000   -1.2340   -5.4290 C   0  0  0  0  0  0  0  0  0  0  0  0
    0.4240   -2.6540   -1.3900 C   0  0  0  0  0  0  0  0  0  0  0  0
   -0.4340   -2.7340   -0.4120 C   0  0  0  0  0  0  0  0  0  0  0  0
   -1.3970   -3.8740   -0.0420 C   0  0  0  0  0  0  0  0  0  0  0  0
   -2.6480   -3.0800    0.3660 C   0  0  0  0  0  0  0  0  0  0  0  0
   -2.0590   -2.1380    1.3080 C   0  0  1  0  0  0  0  0  0  0  0  0
   -0.7130   -1.7760    0.6650 C   0  0  0  0  0  0  0  0  0  0  0  0
   -2.7520   -0.9570    1.8130 C   0  0  2  0  0  0  0  0  0  0  0  0
   -4.1150   -1.2540    2.2850 N   0  0  0  0  0  0  0  0  0  0  0  0
   -4.1100   -1.9990    3.5230 C   0  0  1  0  0  0  0  0  0  0  0  0
   -4.4870   -1.0800    4.6620 C   0  0  0  0  0  0  0  0  0  0  0  0
   -5.1400   -3.0970    3.4360 C   0  0  0  0  0  0  0  0  0  0  0  0
   -2.7180    0.2330    0.9420 C   0  0  0  0  0  0  0  0  0  0  0  0
   -2.6140    1.3380    1.6460 O   0  0  0  0  0  0  0  0  0  0  0  0
   -2.7790    0.4380   -0.4200 N   0  0  0  0  0  0  0  0  0  0  0  0
   -1.9330    0.6120   -1.5560 C   0  0  0  0  0  0  0  0  0  0  0  0
   -1.9480   -0.5110   -2.4220 C   0  0  0  0  0  0  0  0  0  0  0  0
   -1.2440   -0.5800   -3.5930 C   0  0  0  0  0  0  0  0  0  0  0  0
   -0.4780    0.4830   -3.9680 C   0  0  0  0  0  0  0  0  0  0  0  0
   -0.4510    1.5650   -3.1600 C   0  0  0  0  0  0  0  0  0  0  0  0
   -1.1660    1.6990   -1.9210 C   0  0  0  0  0  0  0  0  0  0  0  0
   -1.0910    3.0160   -1.3470 C   0  0  0  0  0  0  0  0  0  0  0  0
  1  2  1  0
  2  3  1  0
  3  4  1  0
  3 10  1  0
  4  5  2  0
  4  6  1  0
  6  7  1  0
  7  8  2  0
  7  9  1  0
  9 10  1  0
  9 47  2  0
 10 11  2  0
 11 12  1  0
 12 13  2  0
 12 14  1  0
 14 15  1  0
 15 16  1  1
 15 22  1  0
 16 17  1  0
 17 18  1  0
 18 19  2  0
 18 20  1  0
 20 21  1  0
 22 23  2  3
 22 27  1  0
 23 24  1  0
 24 25  1  6
 24 26  1  0
 27 28  2  0
 28 29  1  0
 28 32  1  0
 29 30  1  0
 31 30  1  6
 31 32  1  0
 31 33  1  0
 33 34  1  6
 33 38  1  0
 34 35  1  0
 35 36  1  1
 35 37  1  0
 38 39  2  0
 38 40  1  0
 40 41  1  0
 41 42  2  0
 41 46  1  0
 42 43  1  0
 43 44  2  0
 44 45  1  0
 45 46  2  0
 46 47  1  0
M  CHG  1  34   1
M  END
