
     RDKit          3D

 47 51  0  0  0  0  0  0  0  0999 V2000
   -0.6270   -1.7190   -1.9630 C   0  0  0  0  0  0  0  0  0  0  0  0
   -1.7500   -1.4750   -0.9970 C   0  0  2  0  0  0  0  0  0  0  0  0
   -2.1110   -0.0290   -0.8670 C   0  0  0  0  0  0  0  0  0  0  0  0
   -3.4600    0.4790   -0.7910 C   0  0  1  0  0  0  0  0  0  0  0  0
   -4.4830   -0.3290   -1.6080 C   0  0  0  0  0  0  0  0  0  0  0  0
   -4.0940    0.5140    0.5840 C   0  0  0  0  0  0  0  0  0  0  0  0
   -3.5020    1.8810   -1.3150 C   0  0  0  0  0  0  0  0  0  0  0  0
   -2.5640    2.8330   -0.8000 C   0  0  0  0  0  0  0  0  0  0  0  0
   -2.7970    4.0260   -1.2110 O   0  0  0  0  0  0  0  0  0  0  0  0
   -1.4170    2.7370    0.0780 C   0  0  2  0  0  0  0  0  0  0  0  0
   -1.4710    4.0970    0.8750 C   0  0  0  0  0  0  0  0  0  0  0  0
   -1.0610    5.2470    0.1090 C   0  0  0  0  0  0  0  0  0  0  0  0
   -1.7350    6.3690    0.0080 C   0  0  0  0  0  0  0  0  0  0  0  0
   -3.0200    6.6480    0.6560 C   0  0  0  0  0  0  0  0  0  0  0  0
   -2.8760    7.8120    1.5550 N   0  0  0  0  0  0  0  0  0  0  0  0
    0.2660    5.0660   -0.5810 C   0  0  0  0  0  0  0  0  0  0  0  0
    0.1460    3.8650   -1.4220 C   0  0  0  0  0  0  0  0  0  0  0  0
   -0.1510    2.6320   -0.6250 N   0  0  0  0  0  0  0  0  0  0  0  0
    0.7880    1.5930   -0.7000 C   0  0  0  0  0  0  0  0  0  0  0  0
    1.4190    1.6080   -1.8620 O   0  0  0  0  0  0  0  0  0  0  0  0
    1.1940    0.5310    0.2140 C   0  0  0  0  0  0  0  0  0  0  0  0
    2.4940    0.1170    0.0800 C   0  0  0  0  0  0  0  0  0  0  0  0
    3.0910   -0.8990    0.8660 C   0  0  0  0  0  0  0  0  0  0  0  0
    4.3540   -1.3820    0.8050 C   0  0  0  0  0  0  0  0  0  0  0  0
    5.2390   -0.8490   -0.1390 C   0  0  0  0  0  0  0  0  0  0  0  0
    6.5010   -0.9680   -0.4480 C   0  0  0  0  0  0  0  0  0  0  0  0
    7.6100   -1.7330    0.1000 C   0  0  0  0  0  0  0  0  0  0  0  0
    7.8220   -2.0570    1.2800 O   0  0  0  0  0  0  0  0  0  0  0  0
    8.4920   -2.0610   -1.0700 C   0  0  0  0  0  0  0  0  0  0  0  0
    8.4750   -0.7600   -1.7140 O   0  0  0  0  0  0  0  0  0  0  0  0
    7.1430   -0.3300   -1.6600 C   0  0  0  0  0  0  0  0  0  0  0  0
    6.6100    0.4310   -2.4680 O   0  0  0  0  0  0  0  0  0  0  0  0
    4.6020   -2.4830    1.7340 C   0  0  0  0  0  0  0  0  0  0  0  0
    3.9260   -2.6960    2.9470 C   0  0  0  0  0  0  0  0  0  0  0  0
    4.3180   -3.9060    3.4100 C   0  0  0  0  0  0  0  0  0  0  0  0
    5.1660   -4.4560    2.6010 O   0  0  0  0  0  0  0  0  0  0  0  0
    5.3490   -3.6170    1.5860 C   0  0  0  0  0  0  0  0  0  0  0  0
    0.4710   -0.1460    1.2100 N   0  0  0  0  0  0  0  0  0  0  0  0
   -0.7590   -0.8310    1.2340 C   0  0  0  0  0  0  0  0  0  0  0  0
   -1.5330   -0.4290    2.1900 O   0  0  0  0  0  0  0  0  0  0  0  0
   -1.3040   -1.9150    0.3720 C   0  0  2  0  0  0  0  0  0  0  0  0
   -0.6480   -3.1140    0.4270 N   0  0  0  0  0  0  0  0  0  0  0  0
   -1.0340   -4.4040    0.2310 C   0  0  2  0  0  0  0  0  0  0  0  0
   -1.5040   -4.8630   -1.0930 C   0  0  0  0  0  0  0  0  0  0  0  0
   -3.0070   -4.9360   -1.0410 C   0  0  0  0  0  0  0  0  0  0  0  0
   -3.4070   -4.7930    0.3870 C   0  0  0  0  0  0  0  0  0  0  0  0
   -2.1520   -4.8800    1.1730 C   0  0  0  0  0  0  0  0  0  0  0  0
  2  1  1  6
  2  3  1  0
  2 41  1  0
  3  4  1  0
  4  5  1  6
  4  6  1  0
  4  7  1  0
  7  8  1  0
  8  9  2  0
  8 10  1  0
 10 11  1  1
 10 18  1  0
 11 12  1  0
 12 13  2  3
 12 16  1  0
 13 14  1  0
 14 15  1  0
 16 17  1  0
 17 18  1  0
 18 19  1  0
 19 20  2  0
 19 21  1  0
 21 22  2  3
 21 38  1  0
 22 23  1  0
 23 24  2  3
 24 25  1  0
 24 33  1  0
 25 26  2  3
 26 27  1  0
 26 31  1  0
 27 28  2  0
 27 29  1  0
 29 30  1  0
 30 31  1  0
 31 32  2  0
 33 34  1  0
 33 37  2  0
 34 35  2  0
 35 36  1  0
 36 37  1  0
 38 39  1  0
 39 40  2  0
 39 41  1  0
 41 42  1  6
 43 42  1  6
 43 44  1  0
 43 47  1  0
 44 45  1  0
 45 46  1  0
 46 47  1  0
M  CHG  1  15   1
M  END
