
     RDKit          3D

 47 51  0  0  0  0  0  0  0  0999 V2000
   -6.1960    4.5650   -0.4190 C   0  0  0  0  0  0  0  0  0  0  0  0
   -6.0220    3.1250   -0.1360 C   0  0  0  0  0  0  0  0  0  0  0  0
   -4.8730    2.5030   -0.2890 C   0  0  0  0  0  0  0  0  0  0  0  0
   -3.7040    3.2030   -0.7450 C   0  0  0  0  0  0  0  0  0  0  0  0
   -2.5450    3.3690   -0.1430 C   0  0  0  0  0  0  0  0  0  0  0  0
   -2.0950    2.9030    1.1590 C   0  0  0  0  0  0  0  0  0  0  0  0
   -0.7240    2.2610    0.9880 C   0  0  0  0  0  0  0  0  0  0  0  0
    0.2190    3.3070    0.9600 O   0  0  0  0  0  0  0  0  0  0  0  0
    1.1080    3.5930   -0.0450 C   0  0  0  0  0  0  0  0  0  0  0  0
    1.1000    4.6680   -0.6940 O   0  0  0  0  0  0  0  0  0  0  0  0
    2.1410    2.5930   -0.3990 C   0  0  0  0  0  0  0  0  0  0  0  0
    2.4540    1.7170    0.6980 N   0  0  0  0  0  0  0  0  0  0  0  0
    3.3760    0.6430    0.6730 C   0  0  0  0  0  0  0  0  0  0  0  0
    4.1580    0.4740    1.6780 O   0  0  0  0  0  0  0  0  0  0  0  0
    3.4850   -0.3030   -0.4600 C   0  0  0  0  0  0  0  0  0  0  0  0
    4.6770   -0.7650   -0.7750 C   0  0  0  0  0  0  0  0  0  0  0  0
    5.9350   -0.4650   -0.1520 C   0  0  0  0  0  0  0  0  0  0  0  0
    6.8140   -1.4090    0.3330 C   0  0  0  0  0  0  0  0  0  0  0  0
    7.9120   -0.8120    0.8200 N   0  0  0  0  0  0  0  0  0  0  0  0
    7.7640    0.5360    0.6580 C   0  0  0  0  0  0  0  0  0  0  0  0
    8.6450    1.5520    0.9990 C   0  0  0  0  0  0  0  0  0  0  0  0
    8.2480    2.8400    0.7070 C   0  0  0  0  0  0  0  0  0  0  0  0
    7.0260    3.1010    0.1000 C   0  0  0  0  0  0  0  0  0  0  0  0
    6.1900    2.0650   -0.2180 C   0  0  0  0  0  0  0  0  0  0  0  0
    6.5450    0.7570    0.0570 C   0  0  0  0  0  0  0  0  0  0  0  0
    2.2710   -0.7100   -1.2250 C   0  0  0  0  0  0  0  0  0  0  0  0
    2.1690   -2.1760   -1.2680 C   0  0  2  0  0  0  0  0  0  0  0  0
    1.0070   -2.7090   -2.0680 C   0  0  0  0  0  0  0  0  0  0  0  0
    0.3620   -3.6360   -1.2510 O   0  0  0  0  0  0  0  0  0  0  0  0
    0.4910   -3.1330    0.0100 C   0  0  1  0  0  0  0  0  0  0  0  0
    0.4500   -4.1620    1.1080 C   0  0  0  0  0  0  0  0  0  0  0  0
    1.4270   -3.6370    2.1730 C   0  0  0  0  0  0  0  0  0  0  0  0
    2.4040   -2.8780    1.3410 C   0  0  0  0  0  0  0  0  0  0  0  0
    3.5130   -2.5270    1.8200 O   0  0  0  0  0  0  0  0  0  0  0  0
    1.8610   -2.6700    0.0430 N   0  0  0  0  0  0  0  0  0  0  0  0
   -0.5440   -2.0970    0.2650 C   0  0  0  0  0  0  0  0  0  0  0  0
   -1.8250   -2.7120    0.3560 N   0  0  0  0  0  0  0  0  0  0  0  0
   -2.9120   -1.8920   -0.1540 C   0  0  2  0  0  0  0  0  0  0  0  0
   -4.1800   -2.6100    0.2570 C   0  0  0  0  0  0  0  0  0  0  0  0
   -2.9070   -1.8340   -1.6590 C   0  0  0  0  0  0  0  0  0  0  0  0
   -3.0650   -3.2300   -2.2200 C   0  0  0  0  0  0  0  0  0  0  0  0
   -2.9620   -0.5420    0.4910 C   0  0  0  0  0  0  0  0  0  0  0  0
   -2.2630   -0.5090    1.5780 O   0  0  0  0  0  0  0  0  0  0  0  0
   -3.6620    0.4580   -0.0480 O   0  0  0  0  0  0  0  0  0  0  0  0
   -4.9110    1.0090    0.0160 C   0  0  1  0  0  0  0  0  0  0  0  0
   -5.6860    0.8620    1.2810 C   0  0  0  0  0  0  0  0  0  0  0  0
   -5.8330    0.4740   -1.1090 C   0  0  0  0  0  0  0  0  0  0  0  0
  1  2  1  0
  2  3  2  3
  3  4  1  0
  3 45  1  0
  4  5  2  0
  5  6  1  0
  6  7  1  0
  7  8  1  0
  8  9  1  0
  9 10  2  0
  9 11  1  0
 11 12  1  0
 12 13  1  0
 13 14  2  0
 13 15  1  0
 15 16  2  3
 15 26  1  0
 16 17  1  0
 17 18  2  0
 17 25  1  0
 18 19  1  0
 19 20  1  0
 20 21  2  0
 20 25  1  0
 21 22  1  0
 22 23  2  0
 23 24  1  0
 24 25  2  0
 27 26  1  1
 27 28  1  0
 27 35  1  0
 28 29  1  0
 29 30  1  0
 30 31  1  1
 30 35  1  0
 30 36  1  0
 31 32  1  0
 32 33  1  0
 33 34  2  0
 33 35  1  0
 36 37  1  0
 37 38  1  0
 38 39  1  6
 38 40  1  0
 38 42  1  0
 40 41  1  0
 42 43  2  0
 42 44  1  0
 44 45  1  0
 45 46  1  1
 45 47  1  0
M  CHG  1  37   1
M  END
