
     RDKit          3D

 43 47  0  0  0  0  0  0  0  0999 V2000
    2.1230    5.4490    2.3500 C   0  0  0  0  0  0  0  0  0  0  0  0
    3.3780    4.9000    2.6710 O   0  0  0  0  0  0  0  0  0  0  0  0
    3.8210    3.7770    1.9860 C   0  0  0  0  0  0  0  0  0  0  0  0
    3.0030    3.2390    1.0160 C   0  0  0  0  0  0  0  0  0  0  0  0
    3.4200    2.1120    0.3080 C   0  0  0  0  0  0  0  0  0  0  0  0
    2.6360    1.4640   -0.7580 C   0  0  0  0  0  0  0  0  0  0  0  0
    1.6780    0.4770   -0.4330 N   0  0  0  0  0  0  0  0  0  0  0  0
    0.3350    0.9980   -0.2210 C   0  0  0  0  0  0  0  0  0  0  0  0
    0.1980    2.2380   -0.1450 O   0  0  0  0  0  0  0  0  0  0  0  0
   -0.9030    0.2550   -0.0860 N   0  0  0  0  0  0  0  0  0  0  0  0
   -1.9710    0.9000    0.6470 C   0  0  0  0  0  0  0  0  0  0  0  0
   -2.8470    1.7460   -0.1620 C   0  0  0  0  0  0  0  0  0  0  0  0
   -2.6090    1.9900   -1.4830 C   0  0  0  0  0  0  0  0  0  0  0  0
   -3.4840    2.8130   -2.1710 C   0  0  0  0  0  0  0  0  0  0  0  0
   -4.5820    3.3960   -1.5860 C   0  0  0  0  0  0  0  0  0  0  0  0
   -5.4430    4.2100   -2.2700 O   0  0  0  0  0  0  0  0  0  0  0  0
   -4.8160    3.1420   -0.2420 C   0  0  0  0  0  0  0  0  0  0  0  0
   -5.8990    3.7000    0.3810 O   0  0  0  0  0  0  0  0  0  0  0  0
   -6.1380    3.4330    1.7440 C   0  0  0  0  0  0  0  0  0  0  0  0
   -3.9510    2.3200    0.4650 C   0  0  0  0  0  0  0  0  0  0  0  0
   -1.1010   -1.0270   -0.6280 N   0  0  2  0  0  0  0  0  0  0  0  0
   -1.2450   -2.0700    0.3200 C   0  0  0  0  0  0  0  0  0  0  0  0
   -2.5070   -2.8420    0.2330 C   0  0  0  0  0  0  0  0  0  0  0  0
   -2.4920   -4.2200    0.4250 C   0  0  0  0  0  0  0  0  0  0  0  0
   -3.6500   -4.9630    0.3510 C   0  0  0  0  0  0  0  0  0  0  0  0
   -4.8640   -4.3540    0.0840 C   0  0  0  0  0  0  0  0  0  0  0  0
   -4.9000   -3.0100   -0.1060 C   0  0  0  0  0  0  0  0  0  0  0  0
   -3.7300   -2.2780   -0.0290 C   0  0  0  0  0  0  0  0  0  0  0  0
   -0.2020   -1.2920   -1.7090 C   0  0  0  0  0  0  0  0  0  0  0  0
    1.1740   -1.6910   -1.4480 C   0  0  1  0  0  0  0  0  0  0  0  0
    1.9090   -1.3540   -2.6190 O   0  0  0  0  0  0  0  0  0  0  0  0
    1.9150   -0.9350   -0.3430 C   0  0  1  0  0  0  0  0  0  0  0  0
    3.2900   -1.4180   -0.1450 C   0  0  0  0  0  0  0  0  0  0  0  0
    3.3660   -2.9020   -0.0630 C   0  0  0  0  0  0  0  0  0  0  0  0
    3.6030   -3.7140   -1.1400 C   0  0  0  0  0  0  0  0  0  0  0  0
    3.6590   -5.1050   -1.0140 C   0  0  0  0  0  0  0  0  0  0  0  0
    3.4760   -5.6920    0.2040 C   0  0  0  0  0  0  0  0  0  0  0  0
    3.2380   -4.8870    1.2890 C   0  0  0  0  0  0  0  0  0  0  0  0
    3.1840   -3.5170    1.1610 C   0  0  0  0  0  0  0  0  0  0  0  0
    4.6740    1.6050    0.6470 C   0  0  0  0  0  0  0  0  0  0  0  0
    5.4990    2.1290    1.6120 C   0  0  0  0  0  0  0  0  0  0  0  0
    5.0530    3.2430    2.2920 C   0  0  0  0  0  0  0  0  0  0  0  0
    5.8580    3.8220    3.2940 O   0  0  0  0  0  0  0  0  0  0  0  0
  1  2  1  0
  2  3  1  0
  3  4  2  0
  3 42  1  0
  4  5  1  0
  5  6  1  0
  5 40  2  0
  6  7  1  0
  7  8  1  0
  7 32  1  0
  8  9  2  0
  8 10  1  0
 10 11  1  0
 10 21  1  0
 11 12  1  0
 12 13  2  0
 12 20  1  0
 13 14  1  0
 14 15  2  0
 15 16  1  0
 15 17  1  0
 17 18  1  0
 17 20  2  0
 18 19  1  0
 21 22  1  1
 21 29  1  0
 22 23  1  0
 23 24  2  0
 23 28  1  0
 24 25  1  0
 25 26  2  0
 26 27  1  0
 27 28  2  0
 29 30  1  0
 30 31  1  6
 30 32  1  0
 32 33  1  6
 33 34  1  0
 34 35  2  0
 34 39  1  0
 35 36  1  0
 36 37  2  0
 37 38  1  0
 38 39  2  0
 40 41  1  0
 41 42  2  0
 42 43  1  0
M  CHG  1  21   1
M  END
