
     RDKit          3D

 16 17  0  0  0  0  0  0  0  0999 V2000
   -4.1590   -0.9610    0.0210 C   0  0  0  0  0  0  0  0  0  0  0  0
   -3.3710    0.1930    0.4110 N   0  0  0  0  0  0  0  0  0  0  0  0
   -3.8530    1.5060    0.0400 C   0  0  0  0  0  0  0  0  0  0  0  0
   -2.1800    0.1170    1.1190 N   0  0  0  0  0  0  0  0  0  0  0  0
   -1.1790   -0.5300    0.5990 C   0  0  0  0  0  0  0  0  0  0  0  0
   -1.2590   -1.1930   -0.7290 C   0  0  0  0  0  0  0  0  0  0  0  0
    0.5340   -1.0330   -1.1530 S   0  0  0  0  0  0  0  0  0  0  0  0
    1.0740   -0.9140    0.5450 C   0  0  0  0  0  0  0  0  0  0  0  0
    2.3950   -1.0820    0.9790 N   0  0  0  0  0  0  0  0  0  0  0  0
    3.3740   -0.3090    0.6460 C   0  0  0  0  0  0  0  0  0  0  0  0
    4.7630   -0.4370    1.0670 C   0  0  0  0  0  0  0  0  0  0  0  0
    5.4230    0.5650    0.4920 C   0  0  0  0  0  0  0  0  0  0  0  0
    4.5250    1.3770   -0.3130 C   0  0  0  0  0  0  0  0  0  0  0  0
    4.9470    2.7920   -1.2460 Cl  0  0  0  0  0  0  0  0  0  0  0  0
    3.3040    0.8520   -0.2180 C   0  0  0  0  0  0  0  0  0  0  0  0
    0.0520   -0.6580    1.2350 N   0  0  0  0  0  0  0  0  0  0  0  0
  1  2  1  0
  2  3  1  0
  2  4  1  0
  4  5  2  3
  5  6  1  0
  5 16  1  0
  6  7  1  0
  7  8  1  0
  8  9  1  0
  8 16  2  0
  9 10  2  3
 10 11  1  0
 10 15  1  0
 11 12  2  0
 12 13  1  0
 13 14  1  0
 13 15  2  0
M  END
