
     RDKit          3D

 16 16  0  0  0  0  0  0  0  0999 V2000
    0.9350   -0.9810   -1.0680 C   0  0  0  0  0  0  0  0  0  0  0  0
    0.3400   -0.0790   -0.0020 C   0  0  2  0  0  0  0  0  0  0  0  0
   -1.1300   -0.1970   -0.1050 C   0  0  1  0  0  0  0  0  0  0  0  0
   -1.4230    0.1680   -1.4470 O   0  0  0  0  0  0  0  0  0  0  0  0
   -1.5310   -1.6480    0.0350 C   0  0  0  0  0  0  0  0  0  0  0  0
   -1.3370   -2.1970    1.2670 O   0  0  0  0  0  0  0  0  0  0  0  0
   -1.9280    0.6500    0.7560 C   0  0  0  0  0  0  0  0  0  0  0  0
   -2.7890    1.6140    0.1750 N   0  0  0  0  0  0  0  0  0  0  0  0
   -1.9270    0.6090    2.0190 O   0  0  0  0  0  0  0  0  0  0  0  0
    0.8360    1.2610   -0.2990 N   0  0  0  0  0  0  0  0  0  0  0  0
    2.2750    1.3820   -0.2570 C   0  0  0  0  0  0  0  0  0  0  0  0
    2.8440    2.3520   -0.8070 O   0  0  0  0  0  0  0  0  0  0  0  0
    3.1380    0.3870    0.4240 C   0  0  0  0  0  0  0  0  0  0  0  0
    2.3790   -0.5310    1.2090 O   0  0  0  0  0  0  0  0  0  0  0  0
    0.9690   -0.4440    1.2710 C   0  0  0  0  0  0  0  0  0  0  0  0
    0.4540   -0.6780    2.3620 O   0  0  0  0  0  0  0  0  0  0  0  0
  2  1  1  6
  2  3  1  0
  2 10  1  0
  2 15  1  0
  3  4  1  6
  3  5  1  0
  3  7  1  0
  5  6  1  0
  7  8  1  0
  7  9  2  0
 10 11  1  0
 11 12  2  0
 11 13  1  0
 13 14  1  0
 14 15  1  0
 15 16  2  0
M  END
