
     RDKit          3D

 16 16  0  0  0  0  0  0  0  0999 V2000
    5.2320    0.6790   -0.0020 N   0  0  0  0  0  0  0  0  0  0  0  0
    3.9510    0.1820   -0.3600 C   0  0  0  0  0  0  0  0  0  0  0  0
    3.8220   -0.3440   -1.4920 O   0  0  0  0  0  0  0  0  0  0  0  0
    2.8030    0.2530    0.5130 C   0  0  0  0  0  0  0  0  0  0  0  0
    1.6280   -0.2170    0.1520 C   0  0  0  0  0  0  0  0  0  0  0  0
    1.3610   -0.8180   -1.0680 O   0  0  0  0  0  0  0  0  0  0  0  0
   -0.0010   -1.1860   -1.1520 C   0  0  0  0  0  0  0  0  0  0  0  0
   -0.6400   -0.1810   -0.2080 C   0  0  1  0  0  0  0  0  0  0  0  0
   -1.9280   -0.5290    0.1750 O   0  0  0  0  0  0  0  0  0  0  0  0
   -2.9390    0.4250   -0.0580 C   0  0  0  0  0  0  0  0  0  0  0  0
   -2.6510    1.5290   -0.5890 O   0  0  0  0  0  0  0  0  0  0  0  0
   -4.3100    0.1650    0.3020 C   0  0  0  0  0  0  0  0  0  0  0  0
   -5.3190    1.1330    0.0630 N   0  0  0  0  0  0  0  0  0  0  0  0
   -4.5960   -0.9380    0.8330 O   0  0  0  0  0  0  0  0  0  0  0  0
    0.3600   -0.2190    0.9290 C   0  0  1  0  0  0  0  0  0  0  0  0
    0.2270   -1.4410    1.5910 O   0  0  0  0  0  0  0  0  0  0  0  0
  1  2  1  0
  2  3  2  0
  2  4  1  0
  4  5  2  3
  5  6  1  0
  5 15  1  0
  6  7  1  0
  7  8  1  0
  8  9  1  1
  8 15  1  0
  9 10  1  0
 10 11  2  0
 10 12  1  0
 12 13  1  0
 12 14  2  0
 15 16  1  6
M  END
