
     RDKit          3D

 15 16  0  0  0  0  0  0  0  0999 V2000
   -3.1790    1.1290   -1.4580 C   0  0  0  0  0  0  0  0  0  0  0  0
   -2.1410    0.6520   -0.4670 C   0  0  2  0  0  0  0  0  0  0  0  0
   -2.3910    1.3340    0.7390 O   0  0  0  0  0  0  0  0  0  0  0  0
   -0.8520    1.0180   -0.8540 O   0  0  0  0  0  0  0  0  0  0  0  0
    0.0210    0.5510    0.0840 C   0  0  2  0  0  0  0  0  0  0  0  0
    1.3320    0.9190   -0.0500 O   0  0  0  0  0  0  0  0  0  0  0  0
    1.9680    0.0880    0.8720 C   0  0  2  0  0  0  0  0  0  0  0  0
    3.4210   -0.0220    0.6120 C   0  0  0  0  0  0  0  0  0  0  0  0
    4.0560    0.6450   -0.4480 N   0  0  0  0  0  0  0  0  0  0  0  0
    4.1170   -0.7430    1.3720 O   0  0  0  0  0  0  0  0  0  0  0  0
    1.2840   -1.2810    0.7540 C   0  0  0  0  0  0  0  0  0  0  0  0
    0.1430   -0.9650   -0.1490 C   0  0  1  0  0  0  0  0  0  0  0  0
   -1.1170   -1.5230    0.2140 N   0  0  0  0  0  0  0  0  0  0  0  0
   -2.2780   -0.7910   -0.1690 C   0  0  0  0  0  0  0  0  0  0  0  0
   -3.4030   -1.3450   -0.2580 O   0  0  0  0  0  0  0  0  0  0  0  0
  2  1  1  6
  2  3  1  0
  2  4  1  0
  2 14  1  0
  5  4  1  6
  5  6  1  0
  5 12  1  0
  6  7  1  0
  7  8  1  6
  7 11  1  0
  8  9  1  0
  8 10  2  0
 12 11  1  1
 12 13  1  0
 13 14  1  0
 14 15  2  0
M  END
