
     RDKit          3D

 16 17  0  0  0  0  0  0  0  0999 V2000
   -2.1490    3.5680    1.3380 O   0  0  0  0  0  0  0  0  0  0  0  0
   -1.4920    2.5780    0.9220 C   0  0  0  0  0  0  0  0  0  0  0  0
   -1.8210    1.7980   -0.2240 N   0  0  0  0  0  0  0  0  0  0  0  0
   -0.7780    0.8200   -0.4760 C   0  0  2  0  0  0  0  0  0  0  0  0
   -1.3330   -0.5400   -0.7570 C   0  0  1  0  0  0  0  0  0  0  0  0
   -1.2940   -0.7780   -2.1410 O   0  0  0  0  0  0  0  0  0  0  0  0
   -0.7360   -1.6500    0.0010 C   0  0  1  0  0  0  0  0  0  0  0  0
   -0.8450   -2.8160   -0.7900 O   0  0  0  0  0  0  0  0  0  0  0  0
    0.6800   -1.5160    0.4150 C   0  0  2  0  0  0  0  0  0  0  0  0
    0.8880   -2.3780    1.5180 O   0  0  0  0  0  0  0  0  0  0  0  0
    1.1400   -0.1430    0.7480 C   0  0  1  0  0  0  0  0  0  0  0  0
    2.3640    0.2500   -0.0930 C   0  0  0  0  0  0  0  0  0  0  0  0
    2.0380    0.3940   -1.4210 O   0  0  0  0  0  0  0  0  0  0  0  0
    0.1130    0.8620    0.6530 N   0  0  0  0  0  0  0  0  0  0  0  0
   -0.2760    1.9720    1.4550 C   0  0  0  0  0  0  0  0  0  0  0  0
    0.3350    2.3660    2.4630 O   0  0  0  0  0  0  0  0  0  0  0  0
  1  2  2  0
  2  3  1  0
  2 15  1  0
  4  3  1  1
  4  5  1  0
  4 14  1  0
  5  6  1  6
  5  7  1  0
  7  8  1  6
  7  9  1  0
  9 10  1  1
  9 11  1  0
 11 12  1  6
 11 14  1  0
 12 13  1  0
 14 15  1  0
 15 16  2  0
M  END
