
     RDKit          3D

 16 16  0  0  0  0  0  0  0  0999 V2000
    4.9060    1.2100   -0.3210 C   0  0  0  0  0  0  0  0  0  0  0  0
    3.5330    1.1280    0.0900 O   0  0  0  0  0  0  0  0  0  0  0  0
    2.6750    0.1750   -0.3960 C   0  0  0  0  0  0  0  0  0  0  0  0
    3.1520   -0.6500   -1.2430 O   0  0  0  0  0  0  0  0  0  0  0  0
    1.3090    0.1090    0.0280 N   0  0  0  0  0  0  0  0  0  0  0  0
    0.4240   -0.9110   -0.5040 C   0  0  1  0  0  0  0  0  0  0  0  0
   -0.1730   -1.7730    0.5900 C   0  0  0  0  0  0  0  0  0  0  0  0
   -1.4190   -2.2550    0.3040 O   0  0  0  0  0  0  0  0  0  0  0  0
   -2.3730   -1.3260    0.0200 C   0  0  0  0  0  0  0  0  0  0  0  0
   -1.7880    0.0540   -0.3110 C   0  0  2  0  0  0  0  0  0  0  0  0
   -1.2980    0.5490    0.8960 O   0  0  0  0  0  0  0  0  0  0  0  0
   -2.8110    0.9460   -0.8360 C   0  0  0  0  0  0  0  0  0  0  0  0
   -3.1750    2.1180   -0.1370 N   0  0  0  0  0  0  0  0  0  0  0  0
   -3.3860    0.6890   -1.9160 O   0  0  0  0  0  0  0  0  0  0  0  0
   -0.6690   -0.2200   -1.2920 C   0  0  2  0  0  0  0  0  0  0  0  0
   -1.1480   -1.0460   -2.3030 O   0  0  0  0  0  0  0  0  0  0  0  0
  1  2  1  0
  2  3  1  0
  3  4  2  0
  3  5  1  0
  6  5  1  1
  6  7  1  0
  6 15  1  0
  7  8  1  0
  8  9  1  0
  9 10  1  0
 10 11  1  1
 10 12  1  0
 10 15  1  0
 12 13  1  0
 12 14  2  0
 15 16  1  6
M  END
