
     RDKit          3D

 16 16  0  0  0  0  0  0  0  0999 V2000
    0.4370    3.0000   -1.9760 O   0  0  0  0  0  0  0  0  0  0  0  0
    0.4990    2.4080   -0.8680 C   0  0  0  0  0  0  0  0  0  0  0  0
    1.5100    1.4190   -0.7260 N   0  0  0  0  0  0  0  0  0  0  0  0
    1.9670    0.9550    0.5700 C   0  0  0  0  0  0  0  0  0  0  0  0
    2.0610   -0.5490    0.6400 C   0  0  2  0  0  0  0  0  0  0  0  0
    3.3480   -1.0100    0.3870 O   0  0  0  0  0  0  0  0  0  0  0  0
    1.1130   -1.2530   -0.2720 C   0  0  0  0  0  0  0  0  0  0  0  0
   -0.0640   -1.4940    0.4120 O   0  0  0  0  0  0  0  0  0  0  0  0
   -0.9630   -2.0660   -0.5030 C   0  0  0  0  0  0  0  0  0  0  0  0
   -2.2820   -1.3550   -0.3020 C   0  0  1  0  0  0  0  0  0  0  0  0
   -2.8590   -1.6550    0.9260 O   0  0  0  0  0  0  0  0  0  0  0  0
   -2.0160    0.1440   -0.4120 C   0  0  0  0  0  0  0  0  0  0  0  0
   -1.3180    0.5380    0.7450 O   0  0  0  0  0  0  0  0  0  0  0  0
   -0.9970    1.8440    1.0640 C   0  0  0  0  0  0  0  0  0  0  0  0
   -1.2020    2.3110    2.2420 O   0  0  0  0  0  0  0  0  0  0  0  0
   -0.4240    2.7630    0.1360 N   0  0  0  0  0  0  0  0  0  0  0  0
  1  2  2  0
  2  3  1  0
  2 16  1  0
  3  4  1  0
  4  5  1  0
  5  6  1  6
  5  7  1  0
  7  8  1  0
  8  9  1  0
  9 10  1  0
 10 11  1  1
 10 12  1  0
 12 13  1  0
 13 14  1  0
 14 15  2  0
 14 16  1  0
M  END
