
     RDKit          3D

 12 11  0  0  0  0  0  0  0  0999 V2000
   -2.0050   -2.2840   -1.2150 C   0  0  0  0  0  0  0  0  0  0  0  0
   -0.6340   -1.8920   -0.7050 C   0  0  0  0  0  0  0  0  0  0  0  0
   -0.4030   -0.4110   -0.8530 C   0  0  2  0  0  0  0  0  0  0  0  0
    0.9360    0.0390   -0.3660 C   0  0  0  0  0  0  0  0  0  0  0  0
    1.2060   -0.2320    1.0740 C   0  0  0  0  0  0  0  0  0  0  0  0
    2.5600    0.2520    1.4570 C   0  0  2  0  0  0  0  0  0  0  0  0
    2.7740    1.7180    1.2630 C   0  0  0  0  0  0  0  0  0  0  0  0
    3.6230   -0.5500    0.7460 C   0  0  0  0  0  0  0  0  0  0  0  0
   -1.4560    0.2690   -0.2480 O   0  0  0  0  0  0  0  0  0  0  0  0
   -2.2200    0.9820   -1.1590 C   0  0  0  0  0  0  0  0  0  0  0  0
   -3.3610    1.7150   -0.4890 C   0  0  0  0  0  0  0  0  0  0  0  0
   -4.2270    0.8620    0.1680 O   0  0  0  0  0  0  0  0  0  0  0  0
  1  2  1  0
  3  2  1  1
  3  4  1  0
  3  9  1  0
  4  5  1  0
  5  6  1  0
  6  7  1  6
  6  8  1  0
  9 10  1  0
 10 11  1  0
 11 12  1  0
M  END
