
     RDKit          3D

 12 11  0  0  0  0  0  0  0  0999 V2000
    3.7190   -0.4530   -1.7100 C   0  0  0  0  0  0  0  0  0  0  0  0
    3.5810    0.8470   -0.9410 C   0  0  0  0  0  0  0  0  0  0  0  0
    3.5470    0.6150    0.5300 C   0  0  0  0  0  0  0  0  0  0  0  0
    2.4330   -0.2500    1.0210 C   0  0  0  0  0  0  0  0  0  0  0  0
    1.1130    0.3350    0.7050 C   0  0  0  0  0  0  0  0  0  0  0  0
    0.9610    1.4350    0.1180 O   0  0  0  0  0  0  0  0  0  0  0  0
   -0.0870   -0.3040    1.0430 O   0  0  0  0  0  0  0  0  0  0  0  0
   -1.3540    0.2570    0.7410 C   0  0  2  0  0  0  0  0  0  0  0  0
   -2.0650    0.4550    2.0630 C   0  0  0  0  0  0  0  0  0  0  0  0
   -2.1840   -0.6730   -0.1180 C   0  0  0  0  0  0  0  0  0  0  0  0
   -3.5090   -0.0120   -0.3960 C   0  0  0  0  0  0  0  0  0  0  0  0
   -4.4010   -0.8840   -1.2540 C   0  0  0  0  0  0  0  0  0  0  0  0
  1  2  1  0
  2  3  1  0
  3  4  1  0
  4  5  1  0
  5  6  2  0
  5  7  1  0
  7  8  1  0
  8  9  1  1
  8 10  1  0
 10 11  1  0
 11 12  1  0
M  END
