
     RDKit          3D

 12 12  0  0  0  0  0  0  0  0999 V2000
    4.4600    0.6790   -0.3080 C   0  0  0  0  0  0  0  0  0  0  0  0
    3.1310    0.3660   -0.5760 O   0  0  0  0  0  0  0  0  0  0  0  0
    2.8010   -0.8910   -0.0530 C   0  0  0  0  0  0  0  0  0  0  0  0
    1.3440   -1.1870   -0.3700 C   0  0  0  0  0  0  0  0  0  0  0  0
    0.5730   -0.1910    0.2220 O   0  0  0  0  0  0  0  0  0  0  0  0
   -0.8070   -0.1790    0.1140 C   0  0  0  0  0  0  0  0  0  0  0  0
   -1.4540   -1.2240   -0.3170 C   0  0  0  0  0  0  0  0  0  0  0  0
   -2.8930   -1.3030   -0.4630 C   0  0  0  0  0  0  0  0  0  0  0  0
   -3.6550   -0.0990   -0.0910 C   0  0  0  0  0  0  0  0  0  0  0  0
   -2.8790    1.0260    0.3800 C   0  0  0  0  0  0  0  0  0  0  0  0
   -1.5820    1.0180    0.4840 C   0  0  0  0  0  0  0  0  0  0  0  0
   -0.8370    2.2220    0.9810 C   0  0  0  0  0  0  0  0  0  0  0  0
  1  2  1  0
  2  3  1  0
  3  4  1  0
  4  5  1  0
  5  6  1  0
  6  7  2  0
  6 11  1  0
  7  8  1  0
  8  9  1  0
  9 10  1  0
 10 11  2  0
 11 12  1  0
M  END
