
     RDKit          3D

 12 11  0  0  0  0  0  0  0  0999 V2000
    4.9160   -0.0050    0.6780 C   0  0  0  0  0  0  0  0  0  0  0  0
    3.4530    0.2930    0.5170 C   0  0  0  0  0  0  0  0  0  0  0  0
    3.0120   -0.1260   -0.8490 C   0  0  0  0  0  0  0  0  0  0  0  0
    1.5440    0.1530   -1.0640 C   0  0  0  0  0  0  0  0  0  0  0  0
    1.1670    1.3320   -1.2800 O   0  0  0  0  0  0  0  0  0  0  0  0
    0.6010   -0.8130   -1.0350 O   0  0  0  0  0  0  0  0  0  0  0  0
   -0.7390   -0.8140   -1.1830 C   0  0  0  0  0  0  0  0  0  0  0  0
   -1.6520   -0.1580   -0.2290 C   0  0  1  0  0  0  0  0  0  0  0  0
   -1.5140   -0.7060    1.1790 C   0  0  0  0  0  0  0  0  0  0  0  0
   -1.5150    1.3270   -0.1720 C   0  0  0  0  0  0  0  0  0  0  0  0
   -3.0690   -0.4350   -0.7560 C   0  0  0  0  0  0  0  0  0  0  0  0
   -4.1390    0.1560    0.0890 C   0  0  0  0  0  0  0  0  0  0  0  0
  1  2  1  0
  2  3  1  0
  3  4  1  0
  4  5  2  0
  4  6  1  0
  6  7  1  0
  7  8  1  0
  8  9  1  1
  8 10  1  0
  8 11  1  0
 11 12  1  0
M  END
