
     RDKit          3D

 27 30  0  0  0  0  0  0  0  0999 V2000
    5.7430   -0.7910    1.6830 C   0  0  0  0  0  0  0  0  0  0  0  0
    4.4210   -0.0870    1.4740 C   0  0  0  0  0  0  0  0  0  0  0  0
    3.6470   -0.7500    0.3420 C   0  0  2  0  0  0  0  0  0  0  0  0
    4.4960   -0.6500   -0.9100 C   0  0  0  0  0  0  0  0  0  0  0  0
    2.3620   -0.1210    0.1460 N   0  0  0  0  0  0  0  0  0  0  0  0
    2.1340    0.9990   -0.4970 N   0  0  0  0  0  0  0  0  0  0  0  0
    0.7910    1.2730   -0.4710 C   0  0  0  0  0  0  0  0  0  0  0  0
    0.2050    2.4640   -1.1450 C   0  0  0  0  0  0  0  0  0  0  0  0
    0.1450    0.2890    0.2140 C   0  0  0  0  0  0  0  0  0  0  0  0
   -1.2720    0.2040    0.5640 C   0  0  2  0  0  0  0  0  0  0  0  0
   -2.0350   -0.8310   -0.1990 C   0  0  0  0  0  0  0  0  0  0  0  0
   -3.2100   -0.5000   -0.7160 C   0  0  0  0  0  0  0  0  0  0  0  0
   -3.7630    0.7890   -0.5600 N   0  0  0  0  0  0  0  0  0  0  0  0
   -3.1990    1.7280    0.0910 C   0  0  0  0  0  0  0  0  0  0  0  0
   -3.5940    3.0670    0.3410 O   0  0  0  0  0  0  0  0  0  0  0  0
   -2.5710    3.6930    1.0480 C   0  0  2  0  0  0  0  0  0  0  0  0
   -1.9490    4.7400    0.1750 C   0  0  0  0  0  0  0  0  0  0  0  0
   -1.6410    2.6280    1.5200 C   0  0  0  0  0  0  0  0  0  0  0  0
   -1.9600    1.4510    0.7120 N   0  0  0  0  0  0  0  0  0  0  0  0
   -3.7610   -1.6570   -1.4170 N   0  0  0  0  0  0  0  0  0  0  0  0
   -2.8560   -2.7230   -1.3020 C   0  0  0  0  0  0  0  0  0  0  0  0
   -2.9260   -3.9590   -1.7720 C   0  0  0  0  0  0  0  0  0  0  0  0
   -4.1060   -4.3960   -2.5590 C   0  0  0  0  0  0  0  0  0  0  0  0
   -3.6300   -4.7790   -3.8100 F   0  0  0  0  0  0  0  0  0  0  0  0
   -1.7670   -2.1850   -0.5290 N   0  0  0  0  0  0  0  0  0  0  0  0
    1.1580   -0.5820    0.5960 C   0  0  0  0  0  0  0  0  0  0  0  0
    0.9940   -1.8130    1.4070 C   0  0  0  0  0  0  0  0  0  0  0  0
  1  2  1  0
  2  3  1  0
  3  4  1  6
  3  5  1  0
  5  6  1  0
  5 26  1  0
  6  7  2  0
  7  8  1  0
  7  9  1  0
 10  9  1  6
  9 26  2  0
 10 11  1  0
 10 19  1  0
 11 12  2  0
 11 25  1  0
 12 13  1  0
 12 20  1  0
 13 14  2  0
 14 15  1  0
 14 19  1  0
 15 16  1  0
 16 17  1  6
 16 18  1  0
 18 19  1  0
 20 21  1  0
 21 22  2  3
 21 25  1  0
 22 23  1  0
 23 24  1  0
 26 27  1  0
M  END
