
     RDKit          3D

 21 20  0  0  0  0  0  0  0  0999 V2000
   -0.2890    3.4120    1.0920 O   0  0  0  0  0  0  0  0  0  0  0  0
   -1.3570    2.7200    1.0820 C   0  0  0  0  0  0  0  0  0  0  0  0
   -2.4540    3.0550    1.8730 O   0  0  0  0  0  0  0  0  0  0  0  0
   -1.3550    1.6200    0.2360 O   0  0  0  0  0  0  0  0  0  0  0  0
   -0.2210    1.3120   -0.5530 C   0  0  2  0  0  0  0  0  0  0  0  0
   -0.6900    1.4000   -2.0100 C   0  0  0  0  0  0  0  0  0  0  0  0
   -1.1520    2.6880   -2.2660 O   0  0  0  0  0  0  0  0  0  0  0  0
    0.2970   -0.0870   -0.2730 C   0  0  2  0  0  0  0  0  0  0  0  0
    1.3990   -0.2810   -1.0940 O   0  0  0  0  0  0  0  0  0  0  0  0
    2.5440   -0.6200   -0.3830 C   0  0  0  0  0  0  0  0  0  0  0  0
    2.9250    0.7430    0.7870 P   0  0  0  0  0  0  0  0  0  0  0  0
    3.9390    1.9180    0.0530 O   0  0  0  0  0  0  0  0  0  0  0  0
    3.5370    0.1720    2.2990 O   0  0  0  0  0  0  0  0  0  0  0  0
    4.5870   -0.5880    2.1740 O   0  0  0  0  0  0  0  0  0  0  0  0
   -0.6870   -0.9840   -0.6770 O   0  0  0  0  0  0  0  0  0  0  0  0
   -1.1970   -1.9490    0.6740 P   0  0  0  0  0  0  0  0  0  0  0  0
   -0.3690   -3.4630    0.5740 O   0  0  0  0  0  0  0  0  0  0  0  0
   -2.9180   -2.1060    0.6890 O   0  0  0  0  0  0  0  0  0  0  0  0
   -3.5930   -3.3130    0.5970 C   0  0  0  0  0  0  0  0  0  0  0  0
   -2.9080   -4.3520    0.4950 O   0  0  0  0  0  0  0  0  0  0  0  0
   -4.9720   -3.3970    0.6130 O   0  0  0  0  0  0  0  0  0  0  0  0
  1  2  2  0
  2  3  1  0
  2  4  1  0
  4  5  1  0
  5  6  1  6
  5  8  1  0
  6  7  1  0
  8  9  1  6
  8 15  1  0
  9 10  1  0
 10 11  1  0
 11 12  1  0
 11 13  1  0
 13 14  1  0
 15 16  1  0
 16 17  1  0
 16 18  1  0
 18 19  1  0
 19 20  2  0
 19 21  1  0
M  END
