
     RDKit          3D

 22 23  0  0  0  0  0  0  0  0999 V2000
    6.2300   -2.0300   -0.0710 N   0  0  0  0  0  0  0  0  0  0  0  0
    5.0220   -1.6540   -0.7190 C   0  0  0  0  0  0  0  0  0  0  0  0
    4.8040   -1.9240   -1.9050 O   0  0  0  0  0  0  0  0  0  0  0  0
    3.9830   -0.9180    0.0310 C   0  0  0  0  0  0  0  0  0  0  0  0
    4.0390   -0.5560    1.2620 N   0  0  0  0  0  0  0  0  0  0  0  0
    2.8760    0.1440    1.7070 C   0  0  0  0  0  0  0  0  0  0  0  0
    1.9920    0.2060    0.5570 N   0  0  0  0  0  0  0  0  0  0  0  0
    0.7010    0.8170    0.5290 C   0  0  2  0  0  0  0  0  0  0  0  0
   -0.3270   -0.1060    0.2240 O   0  0  0  0  0  0  0  0  0  0  0  0
   -1.3930    0.8010    0.0200 C   0  0  2  0  0  0  0  0  0  0  0  0
   -2.6630    0.1460   -0.3190 C   0  0  0  0  0  0  0  0  0  0  0  0
   -3.1390   -0.7270    0.6270 O   0  0  0  0  0  0  0  0  0  0  0  0
   -4.4510   -1.4510    0.3520 P   0  0  0  0  0  0  0  0  0  0  0  0
   -4.0860   -2.5150    1.5980 O   0  0  0  0  0  0  0  0  0  0  0  0
   -3.9630   -1.8860   -1.1670 O   0  0  0  0  0  0  0  0  0  0  0  0
   -5.3790   -0.1680    0.6520 O   0  0  0  0  0  0  0  0  0  0  0  0
   -0.8010    1.6290   -1.1030 C   0  0  1  0  0  0  0  0  0  0  0  0
   -1.5110    2.8090   -1.3010 O   0  0  0  0  0  0  0  0  0  0  0  0
    0.5800    1.8970   -0.5400 C   0  0  1  0  0  0  0  0  0  0  0  0
    0.5470    3.1640    0.0390 O   0  0  0  0  0  0  0  0  0  0  0  0
    2.6970   -0.4620   -0.4800 C   0  0  0  0  0  0  0  0  0  0  0  0
    2.2360   -0.6060   -1.6400 O   0  0  0  0  0  0  0  0  0  0  0  0
  1  2  1  0
  2  3  2  0
  2  4  1  0
  4  5  2  0
  4 21  1  0
  5  6  1  0
  6  7  1  0
  8  7  1  6
  7 21  1  0
  8  9  1  0
  8 19  1  0
  9 10  1  0
 10 11  1  6
 10 17  1  0
 11 12  1  0
 12 13  1  0
 13 14  1  0
 13 15  1  0
 13 16  1  0
 17 18  1  1
 17 19  1  0
 19 20  1  1
 21 22  2  0
M  END
