
     RDKit          3D

 21 21  0  0  0  0  0  0  0  0999 V2000
   -2.7370    0.2290    1.1320 O   0  0  0  0  0  0  0  0  0  0  0  0
   -2.4780   -0.2980    0.0380 C   0  0  0  0  0  0  0  0  0  0  0  0
   -1.0710   -0.4830   -0.3790 C   0  0  0  0  0  0  0  0  0  0  0  0
   -0.2340    0.0190    0.6380 O   0  0  0  0  0  0  0  0  0  0  0  0
    1.1590   -0.0430    0.4770 C   0  0  0  0  0  0  0  0  0  0  0  0
    1.6880   -0.5360   -0.5540 O   0  0  0  0  0  0  0  0  0  0  0  0
    2.0290    0.4380    1.4490 O   0  0  0  0  0  0  0  0  0  0  0  0
    3.7360    0.4040    1.3370 P   0  0  0  0  0  0  0  0  0  0  0  0
    4.5140    1.8510    0.9620 O   0  0  0  0  0  0  0  0  0  0  0  0
    4.1870    2.4090   -0.2590 C   0  0  0  0  0  0  0  0  0  0  0  0
    4.4700    1.6030   -1.3350 O   0  0  0  0  0  0  0  0  0  0  0  0
    4.6850   -1.4210    0.8660 P   0  0  0  0  0  0  0  0  0  0  0  0
    6.2740   -1.1750    0.2290 O   0  0  0  0  0  0  0  0  0  0  0  0
    3.7870   -2.5350   -0.0740 O   0  0  0  0  0  0  0  0  0  0  0  0
   -3.5160   -0.7050   -0.7780 O   0  0  0  0  0  0  0  0  0  0  0  0
   -4.8400   -0.5000   -0.3330 C   0  0  2  0  0  0  0  0  0  0  0  0
   -5.7550   -0.9960   -1.2860 O   0  0  0  0  0  0  0  0  0  0  0  0
   -5.1300    0.9640   -0.0540 C   0  0  0  0  0  0  0  0  0  0  0  0
   -5.6210    0.9130    1.2460 O   0  0  0  0  0  0  0  0  0  0  0  0
   -5.9880   -0.3410    1.4350 O   0  0  0  0  0  0  0  0  0  0  0  0
   -5.0730   -1.0860    0.9030 O   0  0  0  0  0  0  0  0  0  0  0  0
  1  2  2  0
  2  3  1  0
  2 15  1  0
  3  4  1  0
  4  5  1  0
  5  6  2  0
  5  7  1  0
  7  8  1  0
  8  9  1  0
  8 12  1  0
  9 10  1  0
 10 11  1  0
 12 13  1  0
 12 14  1  0
 15 16  1  0
 16 17  1  6
 16 18  1  0
 16 21  1  0
 18 19  1  0
 19 20  1  0
 20 21  1  0
M  END
