
     RDKit          3D

 21 20  0  0  0  0  0  0  0  0999 V2000
    4.1470    0.2380    0.5580 O   0  0  0  0  0  0  0  0  0  0  0  0
    3.8220    1.3280    0.0270 C   0  0  0  0  0  0  0  0  0  0  0  0
    4.7910    2.3930   -0.3000 C   0  0  0  0  0  0  0  0  0  0  0  0
    6.0810    2.0080    0.0630 O   0  0  0  0  0  0  0  0  0  0  0  0
    6.9300    2.9660   -0.2350 O   0  0  0  0  0  0  0  0  0  0  0  0
    2.4880    1.5350   -0.2640 O   0  0  0  0  0  0  0  0  0  0  0  0
    1.4820    0.5680    0.0140 C   0  0  0  0  0  0  0  0  0  0  0  0
    1.6980   -0.6150   -0.6390 O   0  0  0  0  0  0  0  0  0  0  0  0
    0.8560   -1.5600   -0.4650 O   0  0  0  0  0  0  0  0  0  0  0  0
   -0.1920   -1.3630    0.3810 C   0  0  1  0  0  0  0  0  0  0  0  0
   -1.4720   -1.5050   -0.4540 C   0  0  0  0  0  0  0  0  0  0  0  0
   -2.5950   -1.3120    0.3640 O   0  0  0  0  0  0  0  0  0  0  0  0
   -4.0620   -1.4580   -0.5110 P   0  0  0  0  0  0  0  0  0  0  0  0
   -4.5280   -3.1480   -0.4760 O   0  0  0  0  0  0  0  0  0  0  0  0
   -5.3460   -0.5710    0.2700 O   0  0  0  0  0  0  0  0  0  0  0  0
   -4.8380    1.0330    0.6750 P   0  0  0  0  0  0  0  0  0  0  0  0
   -3.6310    1.6200   -0.4160 O   0  0  0  0  0  0  0  0  0  0  0  0
   -6.1600    2.1170    0.8440 O   0  0  0  0  0  0  0  0  0  0  0  0
   -0.2350   -2.3930    1.4820 C   0  0  0  0  0  0  0  0  0  0  0  0
   -1.1380   -2.3640    2.3560 O   0  0  0  0  0  0  0  0  0  0  0  0
    0.7140   -3.3830    1.5490 O   0  0  0  0  0  0  0  0  0  0  0  0
  1  2  2  0
  2  3  1  0
  2  6  1  0
  3  4  1  0
  4  5  1  0
  6  7  1  0
  7  8  1  0
  8  9  1  0
  9 10  1  0
 10 11  1  6
 10 19  1  0
 11 12  1  0
 12 13  1  0
 13 14  1  0
 13 15  1  0
 15 16  1  0
 16 17  1  0
 16 18  1  0
 19 20  2  0
 19 21  1  0
M  END
