
     RDKit          3D

  7  6  0  0  0  0  0  0  0  0999 V2000
    2.0970   -0.4180    0.0410 O   0  0  0  0  0  0  0  0  0  0  0  0
    2.0010    0.7620   -0.5370 O   0  0  0  0  0  0  0  0  0  0  0  0
    1.0400    1.4950   -0.0580 O   0  0  0  0  0  0  0  0  0  0  0  0
   -0.0700    1.3020   -0.7670 O   0  0  0  0  0  0  0  0  0  0  0  0
   -1.1700    0.5160    0.3590 P   0  0  0  0  0  0  0  0  0  0  0  0
   -2.7360    0.3350   -0.3640 O   0  0  0  0  0  0  0  0  0  0  0  0
   -0.4540   -1.0620    0.6400 O   0  0  0  0  0  0  0  0  0  0  0  0
  1  2  1  0
  2  3  1  0
  3  4  1  0
  4  5  1  0
  5  6  1  0
  5  7  1  0
M  END
