
     RDKit          3D

 20 19  0  0  0  0  0  0  0  0999 V2000
   -3.1010    5.0480   -1.6800 O   0  0  0  0  0  0  0  0  0  0  0  0
   -2.2010    4.4850   -0.5760 P   0  0  0  0  0  0  0  0  0  0  0  0
   -1.5790    2.7380   -0.7000 C   0  0  0  0  0  0  0  0  0  0  0  0
   -1.4780    2.2300   -1.8410 O   0  0  0  0  0  0  0  0  0  0  0  0
   -1.2390    2.0180    0.3970 O   0  0  0  0  0  0  0  0  0  0  0  0
   -0.7750    0.7120    0.4340 C   0  0  2  0  0  0  0  0  0  0  0  0
   -0.5140    0.4420    1.8200 O   0  0  0  0  0  0  0  0  0  0  0  0
    0.4340    0.4980   -0.2220 O   0  0  0  0  0  0  0  0  0  0  0  0
    1.4420    1.2720    0.3310 C   0  0  0  0  0  0  0  0  0  0  0  0
    2.7120    0.9670   -0.4500 C   0  0  0  0  0  0  0  0  0  0  0  0
    3.0180   -0.4160   -0.3340 O   0  0  0  0  0  0  0  0  0  0  0  0
    4.1200   -0.9630   -0.9470 C   0  0  0  0  0  0  0  0  0  0  0  0
    4.8760   -0.2400   -1.6220 O   0  0  0  0  0  0  0  0  0  0  0  0
    4.3990   -2.3240   -0.8180 O   0  0  0  0  0  0  0  0  0  0  0  0
   -1.7890   -0.3320    0.0160 C   0  0  1  0  0  0  0  0  0  0  0  0
   -2.1910   -0.1270   -1.2650 O   0  0  0  0  0  0  0  0  0  0  0  0
   -1.1800   -1.5970    0.0940 O   0  0  0  0  0  0  0  0  0  0  0  0
   -2.0000   -2.6500    1.1730 P   0  0  0  0  0  0  0  0  0  0  0  0
   -3.6420   -2.1680    1.4430 O   0  0  0  0  0  0  0  0  0  0  0  0
   -1.9280   -4.2820    0.6340 O   0  0  0  0  0  0  0  0  0  0  0  0
  1  2  2  0
  2  3  1  0
  3  4  2  0
  3  5  1  0
  5  6  1  0
  6  7  1  1
  6  8  1  0
  6 15  1  0
  8  9  1  0
  9 10  1  0
 10 11  1  0
 11 12  1  0
 12 13  2  0
 12 14  1  0
 15 16  1  6
 15 17  1  0
 17 18  1  0
 18 19  1  0
 18 20  1  0
M  END
