
     RDKit          3D

 15 15  0  0  0  0  0  0  0  0999 V2000
    4.1120    0.8420   -0.4110 C   0  0  0  0  0  0  0  0  0  0  0  0
    3.0300   -0.1060    0.0300 C   0  0  2  0  0  0  0  0  0  0  0  0
    3.4380   -1.5020   -0.4070 C   0  0  0  0  0  0  0  0  0  0  0  0
    1.4770    0.2850   -0.7910 S   0  0  0  0  0  0  0  0  0  0  0  0
    0.0520   -0.3870    0.1350 C   0  0  2  0  0  0  0  0  0  0  0  0
   -0.8430   -0.8080   -0.7680 O   0  0  0  0  0  0  0  0  0  0  0  0
   -2.1640   -0.5910   -0.6110 C   0  0  2  0  0  0  0  0  0  0  0  0
   -2.7650   -0.4200   -2.0020 C   0  0  0  0  0  0  0  0  0  0  0  0
   -4.0590   -0.8980   -2.0810 O   0  0  0  0  0  0  0  0  0  0  0  0
   -2.5590    0.5790    0.2400 C   0  0  2  0  0  0  0  0  0  0  0  0
   -2.1160    1.7680   -0.3600 O   0  0  0  0  0  0  0  0  0  0  0  0
   -1.7820    0.3920    1.5390 C   0  0  2  0  0  0  0  0  0  0  0  0
   -2.2130    1.2320    2.5430 O   0  0  0  0  0  0  0  0  0  0  0  0
   -0.3460    0.6480    1.1200 C   0  0  1  0  0  0  0  0  0  0  0  0
    0.4960    0.6850    2.2150 O   0  0  0  0  0  0  0  0  0  0  0  0
  2  1  1  6
  2  3  1  0
  2  4  1  0
  5  4  1  6
  5  6  1  0
  5 14  1  0
  6  7  1  0
  7  8  1  6
  7 10  1  0
  8  9  1  0
 10 11  1  6
 10 12  1  0
 12 13  1  1
 12 14  1  0
 14 15  1  1
M  END
