
     RDKit          3D

 15 15  0  0  0  0  0  0  0  0999 V2000
    2.4060   -0.7180   -1.6120 C   0  0  0  0  0  0  0  0  0  0  0  0
    1.1710   -0.9740   -1.0470 O   0  0  0  0  0  0  0  0  0  0  0  0
    0.7460    0.0950   -0.2160 C   0  0  1  0  0  0  0  0  0  0  0  0
    1.8320    0.1980    0.8600 C   0  0  0  0  0  0  0  0  0  0  0  0
    0.7750    1.3080   -1.0650 C   0  0  0  0  0  0  0  0  0  0  0  0
   -0.4230    2.5750   -0.6530 S   0  0  0  0  0  0  0  0  0  0  0  0
   -1.9170    1.7520   -0.0220 C   0  0  2  0  0  0  0  0  0  0  0  0
   -2.6720    2.6690    0.7100 O   0  0  0  0  0  0  0  0  0  0  0  0
   -1.4060    0.7140    0.9420 C   0  0  2  0  0  0  0  0  0  0  0  0
   -0.7460    1.3610    1.9610 O   0  0  0  0  0  0  0  0  0  0  0  0
   -0.5620   -0.3290    0.3210 C   0  0  1  0  0  0  0  0  0  0  0  0
   -1.3920   -1.0120   -0.7740 C   0  0  0  0  0  0  0  0  0  0  0  0
   -0.7070   -2.1370   -1.2460 O   0  0  0  0  0  0  0  0  0  0  0  0
   -0.3140   -1.4160    1.3690 C   0  0  0  0  0  0  0  0  0  0  0  0
    0.3330   -2.5130    0.8090 O   0  0  0  0  0  0  0  0  0  0  0  0
  1  2  1  0
  2  3  1  0
  3  4  1  1
  3  5  1  0
  3 11  1  0
  5  6  1  0
  6  7  1  0
  7  8  1  1
  7  9  1  0
  9 10  1  1
  9 11  1  0
 11 12  1  6
 11 14  1  0
 12 13  1  0
 14 15  1  0
M  END
