
     RDKit          3D

 15 15  0  0  0  0  0  0  0  0999 V2000
   -1.9430   -1.3240    1.0880 C   0  0  0  0  0  0  0  0  0  0  0  0
   -1.3840   -0.7500   -0.1730 C   0  0  1  0  0  0  0  0  0  0  0  0
   -0.8560   -1.9060   -0.8670 O   0  0  0  0  0  0  0  0  0  0  0  0
   -2.4060   -0.2340   -1.1310 C   0  0  0  0  0  0  0  0  0  0  0  0
   -3.4840    1.0570   -0.5990 S   0  0  0  0  0  0  0  0  0  0  0  0
   -2.7930    2.5800   -0.3560 O   0  0  0  0  0  0  0  0  0  0  0  0
   -0.1640    0.1080    0.0110 C   0  0  1  0  0  0  0  0  0  0  0  0
   -0.4080    1.2530    0.9390 C   0  0  0  0  0  0  0  0  0  0  0  0
    0.8850   -0.7750    0.7080 C   0  0  0  0  0  0  0  0  0  0  0  0
    2.2420   -0.1640    0.7290 C   0  0  2  0  0  0  0  0  0  0  0  0
    2.5410    0.5850    1.8480 O   0  0  0  0  0  0  0  0  0  0  0  0
    2.5550    0.5540   -0.5600 C   0  0  1  0  0  0  0  0  0  0  0  0
    3.8520    0.3390   -0.9930 O   0  0  0  0  0  0  0  0  0  0  0  0
    1.5420    0.0070   -1.5760 C   0  0  0  0  0  0  0  0  0  0  0  0
    0.2900    0.4490   -1.2420 O   0  0  0  0  0  0  0  0  0  0  0  0
  2  1  1  1
  2  3  1  0
  2  4  1  0
  2  7  1  0
  4  5  1  0
  5  6  1  0
  7  8  1  1
  7  9  1  0
  7 15  1  0
  9 10  1  0
 10 11  1  1
 10 12  1  0
 12 13  1  6
 12 14  1  0
 14 15  1  0
M  END
