
     RDKit          3D

 15 15  0  0  0  0  0  0  0  0999 V2000
    0.0460   -1.9270   -0.6050 C   0  0  0  0  0  0  0  0  0  0  0  0
   -0.0550   -0.4380   -0.2420 C   0  0  1  0  0  0  0  0  0  0  0  0
    1.2760   -0.0490    0.3560 C   0  0  2  0  0  0  0  0  0  0  0  0
    1.6130   -0.8590    1.5940 C   0  0  0  0  0  0  0  0  0  0  0  0
    1.5920   -2.2270    1.3540 O   0  0  0  0  0  0  0  0  0  0  0  0
    1.3140    1.3070    0.6160 O   0  0  0  0  0  0  0  0  0  0  0  0
    2.2780    2.0430    0.0090 C   0  0  0  0  0  0  0  0  0  0  0  0
    2.2590    2.0380   -1.3800 O   0  0  0  0  0  0  0  0  0  0  0  0
   -0.2180    0.2520   -1.6000 C   0  0  0  0  0  0  0  0  0  0  0  0
   -1.7030   -0.5580   -2.3210 S   0  0  0  0  0  0  0  0  0  0  0  0
   -3.0140   -0.2630   -1.0790 C   0  0  0  0  0  0  0  0  0  0  0  0
   -2.4090    0.4510    0.0840 C   0  0  1  0  0  0  0  0  0  0  0  0
   -3.3810    0.5460    1.0800 O   0  0  0  0  0  0  0  0  0  0  0  0
   -1.1990   -0.1440    0.6670 C   0  0  2  0  0  0  0  0  0  0  0  0
   -0.7310    0.7670    1.6480 O   0  0  0  0  0  0  0  0  0  0  0  0
  2  1  1  6
  2  3  1  0
  2  9  1  0
  2 14  1  0
  3  4  1  1
  3  6  1  0
  4  5  1  0
  6  7  1  0
  7  8  1  0
  9 10  1  0
 10 11  1  0
 11 12  1  0
 12 13  1  1
 12 14  1  0
 14 15  1  1
M  END
