
     RDKit          3D

 15 16  0  0  0  0  0  0  0  0999 V2000
    4.4340    1.5200    0.2780 O   0  0  0  0  0  0  0  0  0  0  0  0
    3.6050    0.5130    0.7780 C   0  0  0  0  0  0  0  0  0  0  0  0
    2.3300    0.5990    0.2310 O   0  0  0  0  0  0  0  0  0  0  0  0
    1.5760   -0.4450    0.7890 C   0  0  2  0  0  0  0  0  0  0  0  0
    1.0360   -1.2600   -0.3710 C   0  0  0  0  0  0  0  0  0  0  0  0
   -0.3870   -1.7000   -0.1540 C   0  0  0  0  0  0  0  0  0  0  0  0
   -1.3750   -0.5940   -0.4440 C   0  0  1  0  0  0  0  0  0  0  0  0
   -1.7310   -0.4550   -1.7710 O   0  0  0  0  0  0  0  0  0  0  0  0
   -2.5840   -0.7680    0.4850 C   0  0  2  0  0  0  0  0  0  0  0  0
   -3.7070   -1.2130   -0.1570 O   0  0  0  0  0  0  0  0  0  0  0  0
   -2.5040    0.7270    0.7360 C   0  0  0  0  0  0  0  0  0  0  0  0
   -1.0680    0.6720    0.3000 C   0  0  2  0  0  0  0  0  0  0  0  0
   -0.6010    1.8230   -0.5600 C   0  0  0  0  0  0  0  0  0  0  0  0
   -1.5680    2.1670   -1.5090 O   0  0  0  0  0  0  0  0  0  0  0  0
    0.1260    0.3200    1.6140 S   0  0  0  0  0  0  0  0  0  0  0  0
  1  2  1  0
  2  3  1  0
  4  3  1  6
  4  5  1  0
  4 15  1  0
  5  6  1  0
  6  7  1  0
  7  8  1  6
  7  9  1  0
  7 12  1  0
  9 10  1  6
  9 11  1  0
 11 12  1  0
 12 13  1  6
 12 15  1  0
 13 14  1  0
M  END
