
     RDKit          3D

 15 15  0  0  0  0  0  0  0  0999 V2000
   -4.3590    0.7740    0.1940 C   0  0  0  0  0  0  0  0  0  0  0  0
   -2.9470    0.9170   -0.2510 C   0  0  2  0  0  0  0  0  0  0  0  0
   -2.4870    2.2470   -0.1090 O   0  0  0  0  0  0  0  0  0  0  0  0
   -2.8110    0.5940   -1.5810 O   0  0  0  0  0  0  0  0  0  0  0  0
   -2.2690   -0.6450   -1.8240 C   0  0  0  0  0  0  0  0  0  0  0  0
   -0.8320   -0.7780   -1.3690 C   0  0  0  0  0  0  0  0  0  0  0  0
   -0.6720    0.1250   -0.1550 C   0  0  2  0  0  0  0  0  0  0  0  0
    0.7340   -0.4420    0.7840 S   0  0  0  0  0  0  0  0  0  0  0  0
    2.2150   -0.1710   -0.2260 C   0  0  0  0  0  0  0  0  0  0  0  0
    3.4670   -0.6260    0.4930 C   0  0  2  0  0  0  0  0  0  0  0  0
    3.6560    0.0500    1.6780 O   0  0  0  0  0  0  0  0  0  0  0  0
    4.7000   -0.4140   -0.3520 C   0  0  0  0  0  0  0  0  0  0  0  0
    5.7940   -0.9320    0.3670 O   0  0  0  0  0  0  0  0  0  0  0  0
   -1.9770    0.0800    0.5940 C   0  0  1  0  0  0  0  0  0  0  0  0
   -1.9150    0.6190    1.8580 O   0  0  0  0  0  0  0  0  0  0  0  0
  2  1  1  1
  2  3  1  0
  2  4  1  0
  2 14  1  0
  4  5  1  0
  5  6  1  0
  6  7  1  0
  7  8  1  1
  7 14  1  0
  8  9  1  0
  9 10  1  0
 10 11  1  1
 10 12  1  0
 12 13  1  0
 14 15  1  1
M  END
