
     RDKit          3D

 23 25  0  0  0  0  0  0  0  0999 V2000
    5.4110   -0.4870    0.1210 C   0  0  0  0  0  0  0  0  0  0  0  0
    4.4850    0.7180   -0.1010 C   0  0  0  0  0  0  0  0  0  0  0  0
    4.9880    1.7770   -0.6680 C   0  0  0  0  0  0  0  0  0  0  0  0
    3.7070    2.9800   -0.7880 S   0  0  0  0  0  0  0  0  0  0  0  0
    2.4160    1.9290   -0.0060 C   0  0  0  0  0  0  0  0  0  0  0  0
    1.2420    2.1780    0.2210 N   0  0  0  0  0  0  0  0  0  0  0  0
   -0.0080    2.0070    0.6370 C   0  0  0  0  0  0  0  0  0  0  0  0
   -0.3510    1.8620    1.8550 O   0  0  0  0  0  0  0  0  0  0  0  0
   -1.1630    1.9730   -0.3190 C   0  0  0  0  0  0  0  0  0  0  0  0
   -2.2790    1.0540    0.0290 C   0  0  2  0  0  0  0  0  0  0  0  0
   -3.5220    1.7840   -0.6040 C   0  0  0  0  0  0  0  0  0  0  0  0
   -2.6390    0.9810    1.4700 C   0  0  0  0  0  0  0  0  0  0  0  0
   -2.2740   -0.2690   -0.7040 C   0  0  2  0  0  0  0  0  0  0  0  0
   -3.5870   -0.5270   -1.1300 O   0  0  0  0  0  0  0  0  0  0  0  0
   -4.3340   -1.6590   -0.9380 C   0  0  0  0  0  0  0  0  0  0  0  0
   -3.8050   -2.6900   -0.2950 C   0  0  0  0  0  0  0  0  0  0  0  0
   -2.4360   -2.5100    0.1620 C   0  0  0  0  0  0  0  0  0  0  0  0
   -1.7160   -1.4100   -0.0190 C   0  0  0  0  0  0  0  0  0  0  0  0
   -0.3230   -1.4650    0.5020 C   0  0  0  0  0  0  0  0  0  0  0  0
    0.6570   -1.2860   -0.5530 N   0  0  0  0  0  0  0  0  0  0  0  0
    2.0090   -1.4360   -0.0580 C   0  0  0  0  0  0  0  0  0  0  0  0
    2.4150   -0.3920    0.9320 C   0  0  0  0  0  0  0  0  0  0  0  0
    3.1390    0.7390    0.2690 N   0  0  0  0  0  0  0  0  0  0  0  0
  1  2  1  0
  2  3  2  0
  2 23  1  0
  3  4  1  0
  4  5  1  0
  5  6  2  0
  5 23  1  0
  6  7  1  0
  7  8  2  0
  7  9  1  0
  9 10  1  0
 10 11  1  6
 10 12  1  0
 10 13  1  0
 13 14  1  1
 13 18  1  0
 14 15  1  0
 15 16  2  0
 16 17  1  0
 17 18  2  0
 18 19  1  0
 19 20  1  0
 20 21  1  0
 21 22  1  0
 22 23  1  0
M  CHG  1  20   1
M  END
