
     RDKit          3D

 24 26  0  0  0  0  0  0  0  0999 V2000
    6.4950    0.2510    1.9520 C   0  0  0  0  0  0  0  0  0  0  0  0
    5.1170    0.1440    1.3620 C   0  0  0  0  0  0  0  0  0  0  0  0
    4.0250    0.8190    1.8160 C   0  0  0  0  0  0  0  0  0  0  0  0
    2.9600    0.4250    0.9860 C   0  0  0  0  0  0  0  0  0  0  0  0
    1.3560    1.1170    1.2280 S   0  0  0  0  0  0  0  0  0  0  0  0
    0.0010    0.3280    0.4760 C   0  0  0  0  0  0  0  0  0  0  0  0
    0.0420   -0.9050    0.1280 N   0  0  0  0  0  0  0  0  0  0  0  0
   -1.0770   -1.5180   -0.5020 C   0  0  0  0  0  0  0  0  0  0  0  0
   -1.1100   -2.9060   -0.6910 C   0  0  0  0  0  0  0  0  0  0  0  0
   -2.2350   -3.5600   -1.1310 C   0  0  0  0  0  0  0  0  0  0  0  0
   -2.1550   -5.4420   -1.3490 Br  0  0  0  0  0  0  0  0  0  0  0  0
   -3.3790   -2.8140   -1.3980 C   0  0  0  0  0  0  0  0  0  0  0  0
   -3.3620   -1.4250   -1.2170 C   0  0  0  0  0  0  0  0  0  0  0  0
   -2.2230   -0.8050   -0.7800 C   0  0  0  0  0  0  0  0  0  0  0  0
   -2.0490    0.6220   -0.7340 N   0  0  1  0  0  0  0  0  0  0  0  0
   -3.1530    1.3760   -1.1820 C   0  0  0  0  0  0  0  0  0  0  0  0
   -4.1450    1.8860   -0.2140 C   0  0  0  0  0  0  0  0  0  0  0  0
   -3.6540    2.8250    0.8040 C   0  0  0  0  0  0  0  0  0  0  0  0
   -3.5180    2.4780    1.9970 O   0  0  0  0  0  0  0  0  0  0  0  0
   -3.3320    4.1190    0.4420 O   0  0  0  0  0  0  0  0  0  0  0  0
   -1.3640    1.0020    0.4160 C   0  0  0  0  0  0  0  0  0  0  0  0
    3.4690   -0.4590    0.0820 C   0  0  0  0  0  0  0  0  0  0  0  0
    2.7230   -1.1350   -1.0490 C   0  0  0  0  0  0  0  0  0  0  0  0
    4.7820   -0.6150    0.3300 N   0  0  0  0  0  0  0  0  0  0  0  0
  1  2  1  0
  2  3  2  0
  2 24  1  0
  3  4  1  0
  4  5  1  0
  4 22  2  0
  5  6  1  0
  6  7  2  0
  6 21  1  0
  7  8  1  0
  8  9  2  0
  8 14  1  0
  9 10  1  0
 10 11  1  0
 10 12  2  0
 12 13  1  0
 13 14  2  0
 14 15  1  0
 15 16  1  1
 15 21  1  0
 16 17  1  0
 17 18  1  0
 18 19  2  0
 18 20  1  0
 22 23  1  0
 22 24  1  0
M  CHG  1  15   1
M  END
