
     RDKit          3D

 24 27  0  0  0  0  0  0  0  0999 V2000
   -2.7050   -4.4940    0.5170 C   0  0  0  0  0  0  0  0  0  0  0  0
   -2.8140   -3.0340    0.4590 C   0  0  0  0  0  0  0  0  0  0  0  0
   -4.0220   -2.3730    0.6200 C   0  0  0  0  0  0  0  0  0  0  0  0
   -4.1110   -0.9990    0.5630 C   0  0  0  0  0  0  0  0  0  0  0  0
   -2.9510   -0.2990    0.3390 C   0  0  0  0  0  0  0  0  0  0  0  0
   -1.7330   -0.9460    0.1760 C   0  0  0  0  0  0  0  0  0  0  0  0
   -1.6530   -2.2940    0.2320 C   0  0  0  0  0  0  0  0  0  0  0  0
   -0.5010   -0.1860   -0.0600 N   0  0  0  0  0  0  0  0  0  0  0  0
    0.6830   -0.6620    0.5110 C   0  0  0  0  0  0  0  0  0  0  0  0
    0.4740   -1.5350    1.5080 O   0  0  0  0  0  0  0  0  0  0  0  0
    2.0830   -0.4270    0.2680 C   0  0  0  0  0  0  0  0  0  0  0  0
    2.9890   -1.0120    1.0760 N   0  0  0  0  0  0  0  0  0  0  0  0
    4.2940   -0.7380    0.7620 C   0  0  2  0  0  0  0  0  0  0  0  0
    5.2730    0.3530    1.8300 S   0  0  0  0  0  0  0  0  0  0  0  0
    6.1700    1.2530    0.4840 C   0  0  0  0  0  0  0  0  0  0  0  0
    5.6040    0.5590   -0.7640 C   0  0  0  0  0  0  0  0  0  0  0  0
    4.1930    0.2090   -0.4140 C   0  0  0  0  0  0  0  0  0  0  0  0
    2.8960    0.3220   -0.6530 C   0  0  0  0  0  0  0  0  0  0  0  0
    2.2630    1.3520   -2.1660 Br  0  0  0  0  0  0  0  0  0  0  0  0
   -0.6570    1.0320   -0.7940 C   0  0  0  0  0  0  0  0  0  0  0  0
   -2.0330    1.6550   -0.6810 C   0  0  2  0  0  0  0  0  0  0  0  0
   -1.9390    3.1300   -0.3300 C   0  0  0  0  0  0  0  0  0  0  0  0
   -3.2550    3.7080   -0.3990 N   0  0  0  0  0  0  0  0  0  0  0  0
   -2.8900    1.0730    0.2580 O   0  0  0  0  0  0  0  0  0  0  0  0
  1  2  1  0
  2  3  2  0
  2  7  1  0
  3  4  1  0
  4  5  2  0
  5  6  1  0
  5 24  1  0
  6  7  2  0
  6  8  1  0
  8  9  1  0
  8 20  1  0
  9 10  2  0
  9 11  1  0
 11 12  2  0
 11 18  1  0
 12 13  1  0
 13 14  1  1
 13 17  1  0
 14 15  1  0
 15 16  1  0
 16 17  1  0
 17 18  2  0
 18 19  1  0
 20 21  1  0
 21 22  1  1
 21 24  1  0
 22 23  1  0
M  CHG  1  23   1
M  END
