
     RDKit          3D

 24 27  0  0  0  0  0  0  0  0999 V2000
    1.9940    0.4720    1.1800 O   0  0  0  0  0  0  0  0  0  0  0  0
    2.7680    0.1810    0.2040 C   0  0  0  0  0  0  0  0  0  0  0  0
    3.7710    1.1310   -0.1750 N   0  0  0  0  0  0  0  0  0  0  0  0
    3.6870    2.4720   -0.1600 C   0  0  0  0  0  0  0  0  0  0  0  0
    4.9240    2.9260   -0.6200 C   0  0  0  0  0  0  0  0  0  0  0  0
    5.6710    1.8350   -0.8830 N   0  0  0  0  0  0  0  0  0  0  0  0
    4.9790    0.7410   -0.6150 C   0  0  0  0  0  0  0  0  0  0  0  0
    5.2830   -1.0290   -0.7040 S   0  0  0  0  0  0  0  0  0  0  0  0
    3.8810   -1.8920    0.0490 C   0  0  0  0  0  0  0  0  0  0  0  0
    2.6100   -1.1170   -0.4990 C   0  0  2  0  0  0  0  0  0  0  0  0
    2.8260   -1.1260   -1.8410 O   0  0  0  0  0  0  0  0  0  0  0  0
    1.4200   -1.8180   -0.0090 C   0  0  0  0  0  0  0  0  0  0  0  0
    0.0950   -1.2210   -0.0660 C   0  0  0  0  0  0  0  0  0  0  0  0
   -0.8850   -1.7630    0.8070 C   0  0  0  0  0  0  0  0  0  0  0  0
   -2.1680   -1.2940    0.8530 C   0  0  0  0  0  0  0  0  0  0  0  0
   -2.5880   -0.2610    0.0480 C   0  0  0  0  0  0  0  0  0  0  0  0
   -3.9710    0.2370    0.1070 C   0  0  0  0  0  0  0  0  0  0  0  0
   -4.5150    1.2110   -0.6010 C   0  0  0  0  0  0  0  0  0  0  0  0
   -5.8820    1.3940   -0.2520 N   0  0  0  0  0  0  0  0  0  0  0  0
   -6.1440    0.4420    0.7440 C   0  0  0  0  0  0  0  0  0  0  0  0
   -5.0390   -0.2450    0.9690 C   0  0  0  0  0  0  0  0  0  0  0  0
   -1.6620    0.2810   -0.8060 C   0  0  0  0  0  0  0  0  0  0  0  0
   -0.3430   -0.2020   -0.8520 C   0  0  0  0  0  0  0  0  0  0  0  0
    0.8130    0.6570   -2.0600 Br  0  0  0  0  0  0  0  0  0  0  0  0
  1  2  2  0
  2  3  1  0
  2 10  1  0
  3  4  1  0
  3  7  1  0
  4  5  2  0
  5  6  1  0
  6  7  2  0
  7  8  1  0
  8  9  1  0
  9 10  1  0
 10 11  1  6
 10 12  1  0
 12 13  1  0
 13 14  2  0
 13 23  1  0
 14 15  1  0
 15 16  2  0
 16 17  1  0
 16 22  1  0
 17 18  2  0
 17 21  1  0
 18 19  1  0
 19 20  1  0
 20 21  2  0
 22 23  2  0
 23 24  1  0
M  CHG  1  19   1
M  END
