
     RDKit          3D

 22 24  0  0  0  0  0  0  0  0999 V2000
    7.4810   -0.3810   -0.0430 C   0  0  0  0  0  0  0  0  0  0  0  0
    6.4890    0.6490   -0.1960 N   0  0  0  0  0  0  0  0  0  0  0  0
    5.1160    0.3070   -0.1180 C   0  0  0  0  0  0  0  0  0  0  0  0
    4.3830   -0.6000    0.0420 N   0  0  0  0  0  0  0  0  0  0  0  0
    3.0810   -0.6190    0.0660 C   0  0  0  0  0  0  0  0  0  0  0  0
    2.2530   -1.8600    0.2830 C   0  0  0  0  0  0  0  0  0  0  0  0
    2.4640    0.6020   -0.1240 C   0  0  0  0  0  0  0  0  0  0  0  0
    1.0730    0.9530   -0.1600 C   0  0  0  0  0  0  0  0  0  0  0  0
    0.7130    2.2670   -0.3700 C   0  0  0  0  0  0  0  0  0  0  0  0
   -0.6400    2.6360   -0.4080 C   0  0  0  0  0  0  0  0  0  0  0  0
   -1.5170    1.6340   -0.2300 N   0  0  0  0  0  0  0  0  0  0  0  0
   -1.2100    0.3540   -0.0250 C   0  0  0  0  0  0  0  0  0  0  0  0
   -2.1670   -0.6630    0.1570 N   0  0  0  0  0  0  0  0  0  0  0  0
   -3.5720   -0.5300    0.1580 C   0  0  0  0  0  0  0  0  0  0  0  0
   -4.2500    0.6420   -0.0240 C   0  0  0  0  0  0  0  0  0  0  0  0
   -5.6480    0.7380   -0.0170 C   0  0  0  0  0  0  0  0  0  0  0  0
   -6.4090   -0.3770    0.1780 C   0  0  0  0  0  0  0  0  0  0  0  0
   -7.8070   -0.3180    0.1910 O   0  0  0  0  0  0  0  0  0  0  0  0
   -5.7510   -1.5740    0.3640 C   0  0  0  0  0  0  0  0  0  0  0  0
   -4.3800   -1.6630    0.3570 C   0  0  0  0  0  0  0  0  0  0  0  0
    0.1190    0.0550    0.0030 N   0  0  0  0  0  0  0  0  0  0  0  0
    3.8290    1.6840   -0.3240 S   0  0  0  0  0  0  0  0  0  0  0  0
  1  2  1  0
  2  3  1  0
  3  4  2  0
  3 22  1  0
  4  5  1  0
  5  6  1  0
  5  7  2  0
  7  8  1  0
  7 22  1  0
  8  9  2  0
  8 21  1  0
  9 10  1  0
 10 11  2  0
 11 12  1  0
 12 13  1  0
 12 21  2  0
 13 14  1  0
 14 15  2  0
 14 20  1  0
 15 16  1  0
 16 17  2  0
 17 18  1  0
 17 19  1  0
 19 20  2  0
M  END
