
     RDKit          3D

 24 26  0  0  0  0  0  0  0  0999 V2000
   -3.9800   -2.8340    1.4930 C   0  0  0  0  0  0  0  0  0  0  0  0
   -3.6500   -1.5990    0.8360 N   0  0  0  0  0  0  0  0  0  0  0  0
   -2.2180   -1.5600    0.6080 C   0  0  0  0  0  0  0  0  0  0  0  0
   -1.8180   -0.2610   -0.0910 C   0  0  2  0  0  0  0  0  0  0  0  0
   -2.5460   -0.2440   -1.3670 N   0  0  0  0  0  0  0  0  0  0  0  0
   -0.3520   -0.2740   -0.3590 C   0  0  0  0  0  0  0  0  0  0  0  0
    0.3040    1.0490   -0.2730 C   0  0  0  0  0  0  0  0  0  0  0  0
    1.5940    1.0810   -0.2600 N   0  0  0  0  0  0  0  0  0  0  0  0
    2.4460   -0.0050   -0.3190 C   0  0  0  0  0  0  0  0  0  0  0  0
    2.5940   -0.7390   -1.4670 C   0  0  0  0  0  0  0  0  0  0  0  0
    3.4640   -1.8370   -1.5060 C   0  0  0  0  0  0  0  0  0  0  0  0
    4.1820   -2.1940   -0.3920 C   0  0  0  0  0  0  0  0  0  0  0  0
    4.0410   -1.4690    0.7550 C   0  0  0  0  0  0  0  0  0  0  0  0
    3.1760   -0.3830    0.7810 C   0  0  0  0  0  0  0  0  0  0  0  0
    4.8550   -2.0000    1.7550 O   0  0  0  0  0  0  0  0  0  0  0  0
    5.7150   -2.9400    1.1310 C   0  0  0  0  0  0  0  0  0  0  0  0
    5.1060   -3.2090   -0.1180 O   0  0  0  0  0  0  0  0  0  0  0  0
   -0.5210    2.2410   -0.2070 C   0  0  0  0  0  0  0  0  0  0  0  0
    0.0180    3.4010   -0.5090 C   0  0  0  0  0  0  0  0  0  0  0  0
   -0.7010    4.7020   -0.4870 C   0  0  0  0  0  0  0  0  0  0  0  0
    0.1430    5.8020    0.7120 S   0  0  0  0  0  0  0  0  0  0  0  0
   -1.9540    2.2180    0.1870 C   0  0  1  0  0  0  0  0  0  0  0  0
   -3.1370    2.6730   -1.2490 Br  0  0  0  0  0  0  0  0  0  0  0  0
   -2.2680    0.8640    0.7840 C   0  0  0  0  0  0  0  0  0  0  0  0
  1  2  1  0
  2  3  1  0
  3  4  1  0
  4  5  1  6
  4  6  1  0
  4 24  1  0
  6  7  1  0
  7  8  2  3
  7 18  1  0
  8  9  1  0
  9 10  2  0
  9 14  1  0
 10 11  1  0
 11 12  2  0
 12 13  1  0
 12 17  1  0
 13 14  2  0
 13 15  1  0
 15 16  1  0
 16 17  1  0
 18 19  2  3
 18 22  1  0
 19 20  1  0
 20 21  1  0
 22 23  1  6
 22 24  1  0
M  CHG  1   5   1
M  END
