
     RDKit          3D

 24 26  0  0  0  0  0  0  0  0999 V2000
   -5.4840   -0.5770    1.9400 C   0  0  0  0  0  0  0  0  0  0  0  0
   -4.4720   -0.7560    0.8980 N   0  0  1  0  0  0  0  0  0  0  0  0
   -5.0520   -0.8800   -0.3920 C   0  0  0  0  0  0  0  0  0  0  0  0
   -4.3140   -0.2840   -1.5340 C   0  0  0  0  0  0  0  0  0  0  0  0
   -2.8660   -0.1640   -1.2560 C   0  0  0  0  0  0  0  0  0  0  0  0
   -1.9230   -0.3550   -2.2490 C   0  0  0  0  0  0  0  0  0  0  0  0
   -0.6000   -0.2250   -1.9260 C   0  0  0  0  0  0  0  0  0  0  0  0
   -0.1720    0.0940   -0.6210 C   0  0  0  0  0  0  0  0  0  0  0  0
    1.2540    0.2110   -0.3740 C   0  0  0  0  0  0  0  0  0  0  0  0
    1.9990    0.0050   -1.4020 O   0  0  0  0  0  0  0  0  0  0  0  0
    1.9460    0.5210    0.8400 C   0  0  0  0  0  0  0  0  0  0  0  0
    1.0330    0.8700    2.5190 Br  0  0  0  0  0  0  0  0  0  0  0  0
    3.2460    0.5960    0.9320 C   0  0  0  0  0  0  0  0  0  0  0  0
    4.2160    0.4040   -0.0720 C   0  0  0  0  0  0  0  0  0  0  0  0
    5.5190    0.5270    0.2250 C   0  0  0  0  0  0  0  0  0  0  0  0
    6.2780    0.9230    1.8010 S   0  0  0  0  0  0  0  0  0  0  0  0
    7.9250    0.3890    1.2500 C   0  0  0  0  0  0  0  0  0  0  0  0
    8.9320    0.1570    1.9610 O   0  0  0  0  0  0  0  0  0  0  0  0
    7.7810    0.3050   -0.1380 N   0  0  0  0  0  0  0  0  0  0  0  0
    6.6520    0.3680   -0.6590 C   0  0  0  0  0  0  0  0  0  0  0  0
    6.4790    0.2840   -2.0960 N   0  0  0  0  0  0  0  0  0  0  0  0
   -1.1450    0.2750    0.3350 C   0  0  0  0  0  0  0  0  0  0  0  0
   -2.4990    0.1470    0.0270 C   0  0  0  0  0  0  0  0  0  0  0  0
   -3.5330    0.3370    1.0560 C   0  0  0  0  0  0  0  0  0  0  0  0
  2  1  1  1
  2  3  1  0
  2 24  1  0
  3  4  1  0
  4  5  1  0
  5  6  2  0
  5 23  1  0
  6  7  1  0
  7  8  2  0
  8  9  1  0
  8 22  1  0
  9 10  2  0
  9 11  1  0
 11 12  1  0
 11 13  2  3
 13 14  1  0
 14 15  2  3
 15 16  1  0
 15 20  1  0
 16 17  1  0
 17 18  2  0
 17 19  1  0
 19 20  2  0
 20 21  1  0
 22 23  2  0
 23 24  1  0
M  CHG  1   2   1
M  END
