
     RDKit          3D

 24 27  0  0  0  0  0  0  0  0999 V2000
    3.0800   -2.3680    1.1450 N   0  0  0  0  0  0  0  0  0  0  0  0
    2.1710   -2.0900    2.1970 C   0  0  0  0  0  0  0  0  0  0  0  0
    2.3190   -2.6850    3.2500 O   0  0  0  0  0  0  0  0  0  0  0  0
    1.0610   -1.1190    2.0710 C   0  0  0  0  0  0  0  0  0  0  0  0
    1.0190   -0.4990    0.7660 N   0  0  0  0  0  0  0  0  0  0  0  0
    0.2350   -1.1250   -0.2230 C   0  0  0  0  0  0  0  0  0  0  0  0
   -0.0770   -2.3260   -0.0700 O   0  0  0  0  0  0  0  0  0  0  0  0
   -0.2570   -0.4610   -1.4510 C   0  0  1  0  0  0  0  0  0  0  0  0
   -1.5480    0.1670   -1.2380 N   0  0  0  0  0  0  0  0  0  0  0  0
   -1.6730    1.4540   -0.8500 C   0  0  0  0  0  0  0  0  0  0  0  0
   -3.0350    1.7320   -0.7400 C   0  0  0  0  0  0  0  0  0  0  0  0
   -3.7030    0.5610   -1.0780 C   0  0  0  0  0  0  0  0  0  0  0  0
   -2.7680   -0.3860   -1.3800 C   0  0  0  0  0  0  0  0  0  0  0  0
   -3.3690   -1.5090   -1.7060 C   0  0  0  0  0  0  0  0  0  0  0  0
   -4.8370   -1.3120   -1.6180 C   0  0  0  0  0  0  0  0  0  0  0  0
   -4.9200    0.1010   -1.1930 C   0  0  0  0  0  0  0  0  0  0  0  0
    0.8850    0.7820   -2.0460 S   0  0  0  0  0  0  0  0  0  0  0  0
    1.7980    1.3620   -0.6390 C   0  0  0  0  0  0  0  0  0  0  0  0
    2.5370    2.5210   -0.8340 C   0  0  0  0  0  0  0  0  0  0  0  0
    3.2620    3.0080    0.2220 C   0  0  0  0  0  0  0  0  0  0  0  0
    3.2770    2.3890    1.4500 C   0  0  0  0  0  0  0  0  0  0  0  0
    4.3000    3.0870    2.9220 Br  0  0  0  0  0  0  0  0  0  0  0  0
    2.5250    1.2430    1.5860 C   0  0  0  0  0  0  0  0  0  0  0  0
    1.7620    0.6920    0.5480 C   0  0  0  0  0  0  0  0  0  0  0  0
  1  2  1  0
  2  3  2  0
  2  4  1  0
  4  5  1  0
  5  6  1  0
  5 24  1  0
  6  7  2  0
  6  8  1  0
  8  9  1  1
  8 17  1  0
  9 10  1  0
  9 13  1  0
 10 11  2  0
 11 12  1  0
 12 13  1  0
 12 16  2  0
 13 14  2  0
 14 15  1  0
 15 16  1  0
 17 18  1  0
 18 19  2  0
 18 24  1  0
 19 20  1  0
 20 21  2  0
 21 22  1  0
 21 23  1  0
 23 24  2  0
M  CHG  1   1   1
M  END
