
     RDKit          3D

 19 21  0  0  0  0  0  0  0  0999 V2000
    5.5520    1.3940    1.6280 O   0  0  0  0  0  0  0  0  0  0  0  0
    4.3290    1.3880    1.3250 C   0  0  0  0  0  0  0  0  0  0  0  0
    3.6770    0.2900    0.6710 C   0  0  0  0  0  0  0  0  0  0  0  0
    2.3830    0.3470    0.3790 C   0  0  0  0  0  0  0  0  0  0  0  0
    1.6710    1.5820    0.7600 C   0  0  0  0  0  0  0  0  0  0  0  0
    0.2580    1.6100    0.3900 C   0  0  0  0  0  0  0  0  0  0  0  0
   -0.4130    0.6450   -0.2130 C   0  0  0  0  0  0  0  0  0  0  0  0
   -1.7900    0.8400   -0.4980 N   0  0  0  0  0  0  0  0  0  0  0  0
   -2.8000   -0.0110    0.0300 C   0  0  0  0  0  0  0  0  0  0  0  0
   -2.4050   -0.9540    0.7690 O   0  0  0  0  0  0  0  0  0  0  0  0
   -4.2160    0.2180   -0.2840 C   0  0  2  0  0  0  0  0  0  0  0  0
   -5.2510   -0.0110    0.8170 C   0  0  0  0  0  0  0  0  0  0  0  0
   -5.1840   -0.8980   -0.3640 C   0  0  0  0  0  0  0  0  0  0  0  0
    0.2840   -0.5760   -0.5720 C   0  0  0  0  0  0  0  0  0  0  0  0
   -0.2540   -1.5500   -1.1430 O   0  0  0  0  0  0  0  0  0  0  0  0
    1.6880   -0.7070   -0.2660 N   0  0  0  0  0  0  0  0  0  0  0  0
    2.4070   -1.9150   -0.6000 C   0  0  0  0  0  0  0  0  0  0  0  0
    3.8540   -1.5880   -0.8430 C   0  0  0  0  0  0  0  0  0  0  0  0
    4.3400   -0.8940    0.2990 O   0  0  0  0  0  0  0  0  0  0  0  0
  1  2  2  0
  2  3  1  0
  3  4  2  0
  3 19  1  0
  4  5  1  0
  4 16  1  0
  5  6  1  0
  6  7  2  0
  7  8  1  0
  7 14  1  0
  8  9  1  0
  9 10  2  0
 11  9  1  1
 11 12  1  0
 11 13  1  0
 12 13  1  0
 14 15  2  0
 14 16  1  0
 16 17  1  0
 17 18  1  0
 18 19  1  0
M  END
