
     RDKit          3D

 19 20  0  0  0  0  0  0  0  0999 V2000
   -4.4690    0.0790   -0.2800 C   0  0  0  0  0  0  0  0  0  0  0  0
   -3.1670   -0.0190    0.1170 C   0  0  0  0  0  0  0  0  0  0  0  0
   -2.8320    0.5540    1.4350 C   0  0  0  0  0  0  0  0  0  0  0  0
   -2.2160   -0.5740   -0.7940 C   0  0  0  0  0  0  0  0  0  0  0  0
   -2.7100   -0.8640   -1.9720 O   0  0  0  0  0  0  0  0  0  0  0  0
   -0.8680   -0.8230   -0.5710 N   0  0  0  0  0  0  0  0  0  0  0  0
   -0.1440   -1.1870   -1.8060 C   0  0  0  0  0  0  0  0  0  0  0  0
    1.3000   -1.0530   -1.7680 C   0  0  0  0  0  0  0  0  0  0  0  0
    1.9610   -1.8470   -2.5640 O   0  0  0  0  0  0  0  0  0  0  0  0
    2.1610   -0.2040   -1.0150 N   0  0  0  0  0  0  0  0  0  0  0  0
    3.3840    0.3420   -1.4800 C   0  0  0  0  0  0  0  0  0  0  0  0
    3.8540    0.1350   -2.6450 O   0  0  0  0  0  0  0  0  0  0  0  0
    3.9540    1.1480   -0.3910 C   0  0  0  0  0  0  0  0  0  0  0  0
    2.9810    1.0180    0.7100 C   0  0  0  0  0  0  0  0  0  0  0  0
    1.9780    0.2540    0.3420 C   0  0  0  0  0  0  0  0  0  0  0  0
    0.8450   -0.0730    1.2120 C   0  0  0  0  0  0  0  0  0  0  0  0
    0.8880    0.2730    2.4610 C   0  0  0  0  0  0  0  0  0  0  0  0
   -0.3610   -0.7990    0.7470 C   0  0  0  0  0  0  0  0  0  0  0  0
   -1.0080   -1.4730    1.5960 O   0  0  0  0  0  0  0  0  0  0  0  0
  1  2  2  0
  2  3  1  0
  2  4  1  0
  4  5  2  0
  4  6  1  0
  6  7  1  0
  6 18  1  0
  7  8  1  0
  8  9  2  0
  8 10  1  0
 10 11  1  0
 10 15  1  0
 11 12  2  0
 11 13  1  0
 13 14  1  0
 14 15  2  0
 15 16  1  0
 16 17  2  0
 16 18  1  0
 18 19  2  0
M  END
