
     RDKit          3D

 19 21  0  0  0  0  0  0  0  0999 V2000
   -3.0060   -1.8350    0.7810 C   0  0  0  0  0  0  0  0  0  0  0  0
   -3.1590   -1.1160   -0.5590 C   0  0  0  0  0  0  0  0  0  0  0  0
   -2.1660   -0.0350   -0.7020 C   0  0  0  0  0  0  0  0  0  0  0  0
   -2.4320    1.2500   -0.8700 C   0  0  0  0  0  0  0  0  0  0  0  0
   -3.6870    1.9570   -0.9610 C   0  0  0  0  0  0  0  0  0  0  0  0
   -3.7140    3.1940   -1.1230 O   0  0  0  0  0  0  0  0  0  0  0  0
   -4.8810    1.2900   -0.8730 O   0  0  0  0  0  0  0  0  0  0  0  0
   -1.1250    1.9660   -0.9450 C   0  0  0  0  0  0  0  0  0  0  0  0
   -0.9530    3.2040   -1.1030 O   0  0  0  0  0  0  0  0  0  0  0  0
   -0.0910    1.0350   -0.8110 N   0  0  0  0  0  0  0  0  0  0  0  0
    1.3250    1.0170   -0.7590 N   0  0  0  0  0  0  0  0  0  0  0  0
    1.8480    0.1960    0.0690 C   0  0  0  0  0  0  0  0  0  0  0  0
    3.3140    0.1020    0.1980 C   0  0  0  0  0  0  0  0  0  0  0  0
    4.3360    0.7040   -0.3760 C   0  0  0  0  0  0  0  0  0  0  0  0
    5.4000   -0.0060    0.3540 C   0  0  0  0  0  0  0  0  0  0  0  0
    4.2530   -0.6940    1.0110 C   0  0  0  0  0  0  0  0  0  0  0  0
    0.9810   -0.6510    0.8990 C   0  0  0  0  0  0  0  0  0  0  0  0
   -0.2340   -0.9860    0.3800 O   0  0  0  0  0  0  0  0  0  0  0  0
   -0.6880   -0.2790   -0.6900 C   0  0  1  0  0  0  0  0  0  0  0  0
  1  2  1  0
  2  3  1  0
  3  4  2  0
  3 19  1  0
  4  5  1  0
  4  8  1  0
  5  6  2  0
  5  7  1  0
  8  9  2  0
  8 10  1  0
 10 11  1  0
 10 19  1  0
 11 12  2  0
 12 13  1  0
 12 17  1  0
 13 14  2  0
 13 16  1  0
 14 15  1  0
 15 16  1  0
 17 18  1  0
 19 18  1  1
M  END
