
     RDKit          3D

 19 21  0  0  0  0  0  0  0  0999 V2000
   -1.4910    1.5710   -2.1170 C   0  0  0  0  0  0  0  0  0  0  0  0
   -1.9510    0.7520   -0.9700 C   0  0  0  0  0  0  0  0  0  0  0  0
   -3.1410    0.1430   -0.8970 N   0  0  0  0  0  0  0  0  0  0  0  0
   -3.2050   -0.4980    0.2730 C   0  0  0  0  0  0  0  0  0  0  0  0
   -2.0370   -0.2940    0.9590 C   0  0  0  0  0  0  0  0  0  0  0  0
   -1.2220    0.5060    0.1720 C   0  0  0  0  0  0  0  0  0  0  0  0
    0.1100    0.9550    0.5380 C   0  0  0  0  0  0  0  0  0  0  0  0
    0.1910    2.0510    1.1610 O   0  0  0  0  0  0  0  0  0  0  0  0
    1.2310    0.1810    0.1990 N   0  0  0  0  0  0  0  0  0  0  0  0
    1.0590   -1.0570   -0.5120 C   0  0  0  0  0  0  0  0  0  0  0  0
    2.1070   -2.0450   -0.0970 C   0  0  0  0  0  0  0  0  0  0  0  0
    3.3830   -1.5500   -0.0720 O   0  0  0  0  0  0  0  0  0  0  0  0
    3.4710   -0.2150   -0.4530 C   0  0  0  0  0  0  0  0  0  0  0  0
    2.5800    0.5610    0.5270 C   0  0  1  0  0  0  0  0  0  0  0  0
    2.8240    2.0390    0.4340 C   0  0  0  0  0  0  0  0  0  0  0  0
   -2.0740   -0.9850    2.2500 C   0  0  0  0  0  0  0  0  0  0  0  0
   -1.1540   -0.9900    3.1070 O   0  0  0  0  0  0  0  0  0  0  0  0
   -3.3140   -1.6070    2.3020 O   0  0  0  0  0  0  0  0  0  0  0  0
   -4.0640   -1.3650    1.1460 C   0  0  0  0  0  0  0  0  0  0  0  0
  1  2  1  0
  2  3  1  0
  2  6  2  0
  3  4  1  0
  4  5  2  0
  4 19  1  0
  5  6  1  0
  5 16  1  0
  6  7  1  0
  7  8  2  0
  7  9  1  0
  9 10  1  0
  9 14  1  0
 10 11  1  0
 11 12  1  0
 12 13  1  0
 13 14  1  0
 14 15  1  6
 16 17  2  0
 16 18  1  0
 18 19  1  0
M  END
