
     RDKit          3D

 19 20  0  0  0  0  0  0  0  0999 V2000
   -4.4190   -0.6670   -0.7690 C   0  0  0  0  0  0  0  0  0  0  0  0
   -3.8570    0.4010    0.1230 C   0  0  2  0  0  0  0  0  0  0  0  0
   -4.3620    0.1970    1.5330 C   0  0  0  0  0  0  0  0  0  0  0  0
   -4.3470    1.7900   -0.3050 C   0  0  0  0  0  0  0  0  0  0  0  0
   -2.4680    0.4200    0.0210 O   0  0  0  0  0  0  0  0  0  0  0  0
   -1.7240   -0.7000    0.3550 C   0  0  0  0  0  0  0  0  0  0  0  0
   -2.3810   -1.6970    0.7450 O   0  0  0  0  0  0  0  0  0  0  0  0
   -0.3340   -0.6510    0.2400 N   0  0  0  0  0  0  0  0  0  0  0  0
    0.3150    0.5400   -0.2200 C   0  0  0  0  0  0  0  0  0  0  0  0
    1.7070    0.7190    0.2620 C   0  0  0  0  0  0  0  0  0  0  0  0
    2.4210   -0.4820    0.4820 N   0  0  0  0  0  0  0  0  0  0  0  0
    3.8050   -0.4700    0.0600 C   0  0  1  0  0  0  0  0  0  0  0  0
    3.9150   -0.2860   -1.4250 C   0  0  0  0  0  0  0  0  0  0  0  0
    5.0960    0.4790   -1.5520 O   0  0  0  0  0  0  0  0  0  0  0  0
    5.2650    1.1720   -0.3640 C   0  0  0  0  0  0  0  0  0  0  0  0
    4.5460    0.6780    0.6170 C   0  0  0  0  0  0  0  0  0  0  0  0
    4.4680    1.1160    1.9300 O   0  0  0  0  0  0  0  0  0  0  0  0
    1.7790   -1.5900   -0.1890 C   0  0  0  0  0  0  0  0  0  0  0  0
    0.4590   -1.8050    0.5800 C   0  0  0  0  0  0  0  0  0  0  0  0
  2  1  1  6
  2  3  1  0
  2  4  1  0
  2  5  1  0
  5  6  1  0
  6  7  2  0
  6  8  1  0
  8  9  1  0
  8 19  1  0
  9 10  1  0
 10 11  1  0
 12 11  1  1
 11 18  1  0
 12 13  1  0
 12 16  1  0
 13 14  1  0
 14 15  1  0
 15 16  2  0
 16 17  1  0
 18 19  1  0
M  END
