
     RDKit          3D

 19 20  0  0  0  0  0  0  0  0999 V2000
   -2.6830   -2.0290   -1.3400 C   0  0  0  0  0  0  0  0  0  0  0  0
   -2.1710   -1.2980   -0.1090 C   0  0  0  0  0  0  0  0  0  0  0  0
   -2.9720   -0.3650    0.2370 N   0  0  0  0  0  0  0  0  0  0  0  0
   -2.9940    0.5550    1.2280 N   0  0  0  0  0  0  0  0  0  0  0  0
   -1.8910    1.4320    1.3540 C   0  0  0  0  0  0  0  0  0  0  0  0
   -1.3760    1.7980    2.4440 O   0  0  0  0  0  0  0  0  0  0  0  0
   -1.2520    1.9940    0.1370 C   0  0  0  0  0  0  0  0  0  0  0  0
   -1.3930    1.1580   -0.9730 O   0  0  0  0  0  0  0  0  0  0  0  0
   -0.4820    0.7880   -1.9220 C   0  0  0  0  0  0  0  0  0  0  0  0
   -0.9550    0.6440   -3.1140 O   0  0  0  0  0  0  0  0  0  0  0  0
    0.9330    0.5400   -1.7660 C   0  0  0  0  0  0  0  0  0  0  0  0
    1.6200    0.1300   -0.7180 C   0  0  0  0  0  0  0  0  0  0  0  0
    3.1560   -0.0830   -0.7270 C   0  0  0  0  0  0  0  0  0  0  0  0
    3.4850   -0.0370    0.7370 C   0  0  0  0  0  0  0  0  0  0  0  0
    2.2600    0.4860    1.4470 C   0  0  0  0  0  0  0  0  0  0  0  0
    1.1700   -0.2200    0.6210 C   0  0  0  0  0  0  0  0  0  0  0  0
    0.1810   -0.9210    1.0880 C   0  0  0  0  0  0  0  0  0  0  0  0
   -0.9130   -1.6650    0.5310 C   0  0  0  0  0  0  0  0  0  0  0  0
   -0.7930   -2.9550    0.5940 O   0  0  0  0  0  0  0  0  0  0  0  0
  1  2  1  0
  2  3  2  0
  2 18  1  0
  3  4  1  0
  4  5  1  0
  5  6  2  0
  5  7  1  0
  7  8  1  0
  8  9  1  0
  9 10  2  0
  9 11  1  0
 11 12  2  0
 12 13  1  0
 12 16  1  0
 13 14  1  0
 14 15  1  0
 15 16  1  0
 16 17  2  0
 17 18  1  0
 18 19  2  0
M  END
