
     RDKit          3D

 23 25  0  0  0  0  0  0  0  0999 V2000
   -3.2350   -0.7510   -1.2750 C   0  0  0  0  0  0  0  0  0  0  0  0
   -3.8670    0.3240   -0.4240 C   0  0  0  0  0  0  0  0  0  0  0  0
   -5.1520    0.6480   -0.4380 N   0  0  0  0  0  0  0  0  0  0  0  0
   -5.7240    1.4330    0.1560 C   0  0  0  0  0  0  0  0  0  0  0  0
   -7.0280    1.9780    0.3450 N   0  0  0  0  0  0  0  0  0  0  0  0
   -4.2780    2.1620    1.1940 S   0  0  0  0  0  0  0  0  0  0  0  0
   -3.1270    1.0510    0.4390 C   0  0  0  0  0  0  0  0  0  0  0  0
   -1.6780    0.9800    0.7280 C   0  0  0  0  0  0  0  0  0  0  0  0
   -1.1090    1.8220    1.6570 C   0  0  0  0  0  0  0  0  0  0  0  0
    0.2600    1.7030    1.8820 C   0  0  0  0  0  0  0  0  0  0  0  0
    0.9760    0.8040    1.2170 N   0  0  0  0  0  0  0  0  0  0  0  0
    0.4390   -0.0140    0.3200 C   0  0  0  0  0  0  0  0  0  0  0  0
    1.1510   -0.9710   -0.4010 N   0  0  0  0  0  0  0  0  0  0  0  0
    2.5400   -1.2380   -0.3210 C   0  0  0  0  0  0  0  0  0  0  0  0
    3.0210   -2.4060   -0.9210 C   0  0  0  0  0  0  0  0  0  0  0  0
    4.3570   -2.6760   -0.8680 C   0  0  0  0  0  0  0  0  0  0  0  0
    5.2300   -1.8080   -0.2290 C   0  0  0  0  0  0  0  0  0  0  0  0
    4.7840   -0.6590    0.3660 C   0  0  0  0  0  0  0  0  0  0  0  0
    5.6840    0.2460    1.0310 N   0  0  0  0  0  0  0  0  0  0  0  0
    5.3020    1.2810    1.5700 O   0  0  0  0  0  0  0  0  0  0  0  0
    7.0170   -0.0840    1.0490 O   0  0  0  0  0  0  0  0  0  0  0  0
    3.4150   -0.3830    0.3110 C   0  0  0  0  0  0  0  0  0  0  0  0
   -0.8990    0.1000    0.0960 N   0  0  0  0  0  0  0  0  0  0  0  0
  1  2  1  0
  2  3  1  0
  2  7  2  0
  3  4  2  0
  4  5  1  0
  4  6  1  0
  6  7  1  0
  7  8  1  0
  8  9  2  0
  8 23  1  0
  9 10  1  0
 10 11  2  0
 11 12  1  0
 12 13  1  0
 12 23  2  0
 13 14  1  0
 14 15  2  0
 14 22  1  0
 15 16  1  0
 16 17  2  0
 17 18  1  0
 18 19  1  0
 18 22  2  0
 19 20  2  0
 19 21  1  0
M  CHG  2  19   1  21  -1
M  END
