
     RDKit          3D

 12 13  0  0  0  0  0  0  0  0999 V2000
   -2.0170    1.0830    1.4650 C   0  0  0  0  0  0  0  0  0  0  0  0
   -0.9210    0.4440    1.0400 C   0  0  0  0  0  0  0  0  0  0  0  0
   -0.8080    0.5630   -0.3960 C   0  0  0  0  0  0  0  0  0  0  0  0
    0.1720    0.0650   -1.3280 C   0  0  0  0  0  0  0  0  0  0  0  0
    1.2320   -0.6270   -1.1870 C   0  0  0  0  0  0  0  0  0  0  0  0
    1.8990   -1.1980   -0.0710 C   0  0  0  0  0  0  0  0  0  0  0  0
    1.6960   -1.2430    1.2320 N   0  0  0  0  0  0  0  0  0  0  0  0
    2.6330   -1.9180    1.8410 N   0  0  0  0  0  0  0  0  0  0  0  0
    3.4800   -2.3350    0.9320 N   0  0  0  0  0  0  0  0  0  0  0  0
    3.0720   -1.9200   -0.2390 N   0  0  0  0  0  0  0  0  0  0  0  0
   -1.8610    1.2900   -0.8430 C   0  0  0  0  0  0  0  0  0  0  0  0
   -2.6820    1.6580    0.3080 C   0  0  0  0  0  0  0  0  0  0  0  0
  1  2  2  0
  1 12  1  0
  2  3  1  0
  3  4  1  0
  3 11  2  0
  4  5  2  3
  5  6  1  0
  6  7  2  0
  6 10  1  0
  7  8  1  0
  8  9  2  0
  9 10  1  0
 11 12  1  0
M  END
