
     RDKit          3D

 12 13  0  0  0  0  0  0  0  0999 V2000
   -2.2070    1.5200    0.7160 C   0  0  0  0  0  0  0  0  0  0  0  0
   -2.1350    0.1560    0.2820 N   0  0  0  0  0  0  0  0  0  0  0  0
   -3.2600   -0.5870    0.1700 N   0  0  0  0  0  0  0  0  0  0  0  0
   -2.9340   -1.7970   -0.2500 C   0  0  0  0  0  0  0  0  0  0  0  0
   -1.6140   -1.7910   -0.3930 N   0  0  0  0  0  0  0  0  0  0  0  0
   -1.0870   -0.5670   -0.0620 C   0  0  0  0  0  0  0  0  0  0  0  0
    0.3350   -0.2280   -0.1020 C   0  0  0  0  0  0  0  0  0  0  0  0
    1.2060   -1.1490   -0.5240 C   0  0  0  0  0  0  0  0  0  0  0  0
    2.6580   -0.9970   -0.6320 C   0  0  0  0  0  0  0  0  0  0  0  0
    3.0580    0.3060   -0.2020 N   0  0  0  0  0  0  0  0  0  0  0  0
    2.1510    1.2840    0.2450 C   0  0  0  0  0  0  0  0  0  0  0  0
    0.8260    1.0610    0.3070 C   0  0  0  0  0  0  0  0  0  0  0  0
  1  2  1  0
  2  3  1  0
  2  6  1  0
  3  4  2  0
  4  5  1  0
  5  6  2  0
  6  7  1  0
  7  8  2  0
  7 12  1  0
  8  9  1  0
  9 10  1  0
 10 11  1  0
 11 12  2  0
M  END
