
     RDKit          3D

 12 13  0  0  0  0  0  0  0  0999 V2000
    1.8280   -1.8160    0.2130 C   0  0  0  0  0  0  0  0  0  0  0  0
    0.6560   -0.9300   -0.1200 C   0  0  0  0  0  0  0  0  0  0  0  0
   -0.4650   -1.5830   -0.3420 C   0  0  0  0  0  0  0  0  0  0  0  0
   -1.8250   -1.1650   -0.6890 C   0  0  0  0  0  0  0  0  0  0  0  0
   -2.3890   -0.1730    0.1950 N   0  0  0  0  0  0  0  0  0  0  0  0
   -2.0770    1.1600    0.5410 C   0  0  0  0  0  0  0  0  0  0  0  0
   -0.9730    1.9220    0.5520 C   0  0  0  0  0  0  0  0  0  0  0  0
    0.4030    1.5810    0.1710 C   0  0  0  0  0  0  0  0  0  0  0  0
    1.2660    2.6050    0.0430 N   0  0  0  0  0  0  0  0  0  0  0  0
    2.4430    2.0620   -0.3050 C   0  0  0  0  0  0  0  0  0  0  0  0
    2.3470    0.7250   -0.4000 N   0  0  0  0  0  0  0  0  0  0  0  0
    1.0850    0.4370   -0.1050 N   0  0  0  0  0  0  0  0  0  0  0  0
  1  2  1  0
  2  3  2  0
  2 12  1  0
  3  4  1  0
  4  5  1  0
  5  6  1  0
  6  7  2  0
  7  8  1  0
  8  9  2  0
  8 12  1  0
  9 10  1  0
 10 11  2  0
 11 12  1  0
M  END
