
     RDKit          3D

 11 12  0  0  0  0  0  0  0  0999 V2000
   -3.4740    0.4720   -0.1400 C   0  0  0  0  0  0  0  0  0  0  0  0
   -2.1800   -0.2120   -0.0820 N   0  0  0  0  0  0  0  0  0  0  0  0
   -1.0040    0.4520    0.0000 C   0  0  0  0  0  0  0  0  0  0  0  0
    0.0440   -0.4450    0.0380 C   0  0  0  0  0  0  0  0  0  0  0  0
    1.4700   -0.1510    0.1230 C   0  0  0  0  0  0  0  0  0  0  0  0
    2.4790   -0.8770    0.7160 C   0  0  0  0  0  0  0  0  0  0  0  0
    3.6580   -0.2580    0.5690 N   0  0  0  0  0  0  0  0  0  0  0  0
    3.4260    0.8600   -0.1120 N   0  0  0  0  0  0  0  0  0  0  0  0
    2.1140    0.9530   -0.3970 C   0  0  0  0  0  0  0  0  0  0  0  0
   -0.5640   -1.6930   -0.0270 C   0  0  0  0  0  0  0  0  0  0  0  0
   -1.8990   -1.4880   -0.0970 N   0  0  0  0  0  0  0  0  0  0  0  0
  1  2  1  0
  2  3  1  0
  2 11  1  0
  3  4  2  0
  4  5  1  0
  4 10  1  0
  5  6  1  0
  5  9  2  0
  6  7  2  0
  7  8  1  0
  8  9  1  0
 10 11  2  0
M  END
