
     RDKit          3D

 12 13  0  0  0  0  0  0  0  0999 V2000
    3.8690   -0.5330    0.1930 C   0  0  0  0  0  0  0  0  0  0  0  0
    2.4660   -0.0460    0.1550 C   0  0  0  0  0  0  0  0  0  0  0  0
    2.0450    1.2670    0.1800 C   0  0  0  0  0  0  0  0  0  0  0  0
    0.7060    1.2230    0.1260 N   0  0  0  0  0  0  0  0  0  0  0  0
    0.2830   -0.0260    0.0710 C   0  0  0  0  0  0  0  0  0  0  0  0
   -1.0940   -0.5220    0.0020 C   0  0  0  0  0  0  0  0  0  0  0  0
   -1.4990   -1.7940   -0.0540 N   0  0  0  0  0  0  0  0  0  0  0  0
   -2.8430   -1.8490   -0.1070 C   0  0  0  0  0  0  0  0  0  0  0  0
   -3.2400   -0.5270   -0.0810 C   0  0  0  0  0  0  0  0  0  0  0  0
   -2.1880    0.2730   -0.0150 N   0  0  0  0  0  0  0  0  0  0  0  0
   -2.1780    1.7230    0.0310 C   0  0  0  0  0  0  0  0  0  0  0  0
    1.3660   -0.8250    0.0880 N   0  0  0  0  0  0  0  0  0  0  0  0
  1  2  1  0
  2  3  2  0
  2 12  1  0
  3  4  1  0
  4  5  2  0
  5  6  1  0
  5 12  1  0
  6  7  2  0
  6 10  1  0
  7  8  1  0
  8  9  2  0
  9 10  1  0
 10 11  1  0
M  END
