
     RDKit          3D

 12 13  0  0  0  0  0  0  0  0999 V2000
    3.2820    0.2980    0.4110 C   0  0  0  0  0  0  0  0  0  0  0  0
    2.4560   -0.3550   -0.6580 C   0  0  0  0  0  0  0  0  0  0  0  0
    1.0940    0.1350   -0.6910 N   0  0  0  0  0  0  0  0  0  0  0  0
    0.6210    1.1700   -1.4000 N   0  0  0  0  0  0  0  0  0  0  0  0
   -0.6930    1.3220   -1.1730 C   0  0  0  0  0  0  0  0  0  0  0  0
   -1.8060    2.0500   -1.4630 N   0  0  0  0  0  0  0  0  0  0  0  0
   -2.8310    1.5490   -0.7880 N   0  0  0  0  0  0  0  0  0  0  0  0
   -2.4060    0.5040   -0.0590 C   0  0  0  0  0  0  0  0  0  0  0  0
   -3.2210   -0.3520    0.8470 C   0  0  0  0  0  0  0  0  0  0  0  0
   -1.0570    0.3380   -0.2830 C   0  0  0  0  0  0  0  0  0  0  0  0
    0.0590   -0.3780   -0.0030 C   0  0  0  0  0  0  0  0  0  0  0  0
    0.1690   -1.5550    0.9160 C   0  0  0  0  0  0  0  0  0  0  0  0
  1  2  1  0
  2  3  1  0
  3  4  1  0
  3 11  1  0
  4  5  2  0
  5  6  1  0
  5 10  1  0
  6  7  1  0
  7  8  2  0
  8  9  1  0
  8 10  1  0
 10 11  2  0
 11 12  1  0
M  END
