
     RDKit          3D

 12 13  0  0  0  0  0  0  0  0999 V2000
   -2.5390    1.3750    0.2900 C   0  0  0  0  0  0  0  0  0  0  0  0
   -2.6320    0.1920   -0.2280 C   0  0  0  0  0  0  0  0  0  0  0  0
   -1.5500   -0.6890   -0.5030 C   0  0  0  0  0  0  0  0  0  0  0  0
   -1.7760   -1.8900   -1.0680 C   0  0  0  0  0  0  0  0  0  0  0  0
   -0.2050   -0.3850   -0.2310 N   0  0  0  0  0  0  0  0  0  0  0  0
    0.2680    0.2120    0.8560 C   0  0  0  0  0  0  0  0  0  0  0  0
    1.6540    0.3460    0.7120 C   0  0  0  0  0  0  0  0  0  0  0  0
    2.7900    0.8040    1.3100 C   0  0  0  0  0  0  0  0  0  0  0  0
    3.8160    0.5410    0.4570 N   0  0  0  0  0  0  0  0  0  0  0  0
    3.3170   -0.0530   -0.6130 N   0  0  0  0  0  0  0  0  0  0  0  0
    1.9810   -0.1910   -0.4930 C   0  0  0  0  0  0  0  0  0  0  0  0
    0.8520   -0.6200   -1.0340 N   0  0  0  0  0  0  0  0  0  0  0  0
  1  2  2  0
  2  3  1  0
  3  4  2  0
  3  5  1  0
  5  6  1  0
  5 12  1  0
  6  7  2  0
  7  8  1  0
  7 11  1  0
  8  9  2  0
  9 10  1  0
 10 11  1  0
 11 12  2  0
M  END
