
     RDKit          3D

 43 48  0  0  0  0  0  0  0  0999 V2000
   -7.1820   -3.6480   -0.2680 N   0  0  0  0  0  0  0  0  0  0  0  0
   -7.8120   -2.3300   -0.1930 C   0  0  0  0  0  0  0  0  0  0  0  0
   -6.8240   -1.3280    0.4230 C   0  0  2  0  0  0  0  0  0  0  0  0
   -5.6840   -1.2770   -0.3980 N   0  0  0  0  0  0  0  0  0  0  0  0
   -4.5820   -0.4420   -0.0910 C   0  0  0  0  0  0  0  0  0  0  0  0
   -4.6700    0.2510    0.9430 O   0  0  0  0  0  0  0  0  0  0  0  0
   -3.3660   -0.3600   -0.9160 C   0  0  0  0  0  0  0  0  0  0  0  0
   -2.3440    0.5860   -0.3250 C   0  0  2  0  0  0  0  0  0  0  0  0
   -2.7990    1.9690   -0.1830 C   0  0  0  0  0  0  0  0  0  0  0  0
   -2.2690    2.7720    0.7920 C   0  0  0  0  0  0  0  0  0  0  0  0
   -2.7120    4.0860    0.9180 C   0  0  0  0  0  0  0  0  0  0  0  0
   -3.6580    4.6140    0.1080 N   0  0  0  0  0  0  0  0  0  0  0  0
   -4.1700    3.8110   -0.8470 C   0  0  0  0  0  0  0  0  0  0  0  0
   -3.7600    2.4990   -1.0090 C   0  0  0  0  0  0  0  0  0  0  0  0
   -1.0930    0.5240   -1.1460 C   0  0  0  0  0  0  0  0  0  0  0  0
   -1.1200    1.0380   -2.4320 C   0  0  0  0  0  0  0  0  0  0  0  0
    0.0460    0.9500   -3.2130 C   0  0  0  0  0  0  0  0  0  0  0  0
    1.1730    0.3740   -2.7200 C   0  0  0  0  0  0  0  0  0  0  0  0
    1.2340   -0.1440   -1.4480 C   0  0  0  0  0  0  0  0  0  0  0  0
    0.0710   -0.0510   -0.6830 C   0  0  0  0  0  0  0  0  0  0  0  0
    2.5030   -0.6970   -1.0810 N   0  0  0  0  0  0  0  0  0  0  0  0
    3.0260   -0.6450    0.2320 C   0  0  0  0  0  0  0  0  0  0  0  0
    2.1730   -0.3550    1.1890 O   0  0  0  0  0  0  0  0  0  0  0  0
    4.3770   -0.8710    0.6750 C   0  0  0  0  0  0  0  0  0  0  0  0
    4.6100   -1.1280    2.0290 C   0  0  0  0  0  0  0  0  0  0  0  0
    5.8680   -1.2970    2.5410 C   0  0  0  0  0  0  0  0  0  0  0  0
    6.9660   -1.2170    1.7130 C   0  0  0  0  0  0  0  0  0  0  0  0
    6.7900   -0.9650    0.3820 C   0  0  0  0  0  0  0  0  0  0  0  0
    7.8000   -0.8680   -0.4960 O   0  0  0  0  0  0  0  0  0  0  0  0
    9.1550   -0.9380   -0.4900 C   0  0  0  0  0  0  0  0  0  0  0  0
    9.8040    0.1430    0.3450 C   0  0  2  0  0  0  0  0  0  0  0  0
    9.4350    1.5200   -0.1390 C   0  0  0  0  0  0  0  0  0  0  0  0
   10.7990    2.2050   -0.2410 C   0  0  0  0  0  0  0  0  0  0  0  0
   11.6740    1.0070   -0.5580 C   0  0  0  0  0  0  0  0  0  0  0  0
   11.1980    0.0340    0.2970 O   0  0  0  0  0  0  0  0  0  0  0  0
    5.4680   -0.7920   -0.1260 C   0  0  0  0  0  0  0  0  0  0  0  0
    3.0890   -1.3750   -2.2220 C   0  0  0  0  0  0  0  0  0  0  0  0
    2.7890    0.0280   -3.4260 S   0  0  0  0  0  0  0  0  0  0  0  0
   -6.6070   -1.6460    1.8590 C   0  0  0  0  0  0  0  0  0  0  0  0
   -7.1680   -0.6110    2.8130 C   0  0  0  0  0  0  0  0  0  0  0  0
   -8.6640   -0.4800    2.5060 C   0  0  0  0  0  0  0  0  0  0  0  0
   -8.8790   -0.0450    1.0870 C   0  0  0  0  0  0  0  0  0  0  0  0
   -7.5600    0.0150    0.3350 C   0  0  0  0  0  0  0  0  0  0  0  0
  1  2  1  0
  3  2  1  6
  3  4  1  0
  3 39  1  0
  3 43  1  0
  4  5  1  0
  5  6  2  0
  5  7  1  0
  8  7  1  6
  8  9  1  0
  8 15  1  0
  9 10  2  0
  9 14  1  0
 10 11  1  0
 11 12  2  0
 12 13  1  0
 13 14  2  0
 15 16  2  0
 15 20  1  0
 16 17  1  0
 17 18  2  0
 18 19  1  0
 18 38  1  0
 19 20  2  0
 19 21  1  0
 21 22  1  0
 21 37  1  0
 22 23  2  0
 22 24  1  0
 24 25  2  0
 24 36  1  0
 25 26  1  0
 26 27  2  0
 27 28  1  0
 28 29  1  0
 28 36  2  0
 29 30  1  0
 31 30  1  6
 31 32  1  0
 31 35  1  0
 32 33  1  0
 33 34  1  0
 34 35  1  0
 37 38  1  0
 39 40  1  0
 40 41  1  0
 41 42  1  0
 42 43  1  0
M  END
