
     RDKit          3D

 43 47  0  0  0  0  0  0  0  0999 V2000
    9.7130   -4.2440   -0.9900 C   0  0  0  0  0  0  0  0  0  0  0  0
    9.3210   -2.8100   -0.8180 C   0  0  0  0  0  0  0  0  0  0  0  0
    7.9310   -2.6030   -0.5200 N   0  0  1  0  0  0  0  0  0  0  0  0
    7.8530   -1.3620    0.2450 C   0  0  0  0  0  0  0  0  0  0  0  0
    6.4170   -0.8260    0.2270 C   0  0  0  0  0  0  0  0  0  0  0  0
    6.0670   -0.4480   -1.1100 N   0  0  0  0  0  0  0  0  0  0  0  0
    5.0060    0.3330   -1.5590 C   0  0  0  0  0  0  0  0  0  0  0  0
    4.9930    0.5060   -2.8540 O   0  0  0  0  0  0  0  0  0  0  0  0
    3.9670    0.9480   -0.7780 C   0  0  0  0  0  0  0  0  0  0  0  0
    3.7190    0.7860    0.5520 C   0  0  0  0  0  0  0  0  0  0  0  0
    2.7060    1.4720    1.2410 C   0  0  0  0  0  0  0  0  0  0  0  0
    1.8940    2.3590    0.5940 C   0  0  0  0  0  0  0  0  0  0  0  0
    0.8420    3.0820    1.3300 C   0  0  0  0  0  0  0  0  0  0  0  0
    1.1420    4.1730    1.8170 O   0  0  0  0  0  0  0  0  0  0  0  0
   -0.4590    2.5720    1.4870 N   0  0  0  0  0  0  0  0  0  0  0  0
   -1.5500    3.1470    2.1640 C   0  0  0  0  0  0  0  0  0  0  0  0
   -1.4360    4.2750    2.9620 C   0  0  0  0  0  0  0  0  0  0  0  0
   -2.5370    4.7870    3.6700 C   0  0  0  0  0  0  0  0  0  0  0  0
   -3.7560    4.1570    3.5720 C   0  0  0  0  0  0  0  0  0  0  0  0
   -4.8110    4.6590    4.2580 F   0  0  0  0  0  0  0  0  0  0  0  0
   -3.8570    3.0380    2.7760 C   0  0  0  0  0  0  0  0  0  0  0  0
   -2.7700    2.5180    2.0650 C   0  0  0  0  0  0  0  0  0  0  0  0
   -2.9510    1.4090    1.2350 N   0  0  0  0  0  0  0  0  0  0  0  0
   -2.9880    1.5350   -0.2100 C   0  0  0  0  0  0  0  0  0  0  0  0
   -3.9860    0.4350   -0.7240 C   0  0  0  0  0  0  0  0  0  0  0  0
   -5.0070    0.2590    0.2770 N   0  0  1  0  0  0  0  0  0  0  0  0
   -6.2510   -0.0700   -0.2490 C   0  0  0  0  0  0  0  0  0  0  0  0
   -6.4980   -1.3110   -0.9700 C   0  0  0  0  0  0  0  0  0  0  0  0
   -5.6380   -2.3240   -1.2530 C   0  0  0  0  0  0  0  0  0  0  0  0
   -5.9640   -3.4830   -1.9540 C   0  0  0  0  0  0  0  0  0  0  0  0
   -7.2430   -3.6310   -2.4000 C   0  0  0  0  0  0  0  0  0  0  0  0
   -8.1610   -2.6410   -2.1460 C   0  0  0  0  0  0  0  0  0  0  0  0
   -9.4160   -2.8580   -2.6230 F   0  0  0  0  0  0  0  0  0  0  0  0
   -7.8190   -1.5110   -1.4550 C   0  0  0  0  0  0  0  0  0  0  0  0
   -8.8390   -0.4760   -1.2050 C   0  0  0  0  0  0  0  0  0  0  0  0
   -9.3050   -0.4930    0.1020 F   0  0  0  0  0  0  0  0  0  0  0  0
   -4.4840   -0.4890    1.3760 C   0  0  0  0  0  0  0  0  0  0  0  0
   -3.1350    0.0820    1.8240 C   0  0  0  0  0  0  0  0  0  0  0  0
    2.1210    2.5390   -0.7450 C   0  0  0  0  0  0  0  0  0  0  0  0
    3.1060    1.8770   -1.4290 C   0  0  0  0  0  0  0  0  0  0  0  0
    7.0090   -1.0010   -2.1470 C   0  0  0  0  0  0  0  0  0  0  0  0
    7.2530   -2.4000   -1.7690 C   0  0  0  0  0  0  0  0  0  0  0  0
    6.9240   -3.3350   -2.4300 O   0  0  0  0  0  0  0  0  0  0  0  0
  1  2  1  0
  3  2  1  6
  3  4  1  0
  3 42  1  0
  4  5  1  0
  5  6  1  0
  6  7  1  0
  6 41  1  0
  7  8  2  0
  7  9  1  0
  9 10  2  0
  9 40  1  0
 10 11  1  0
 11 12  2  0
 12 13  1  0
 12 39  1  0
 13 14  2  0
 13 15  1  0
 15 16  1  0
 16 17  2  0
 16 22  1  0
 17 18  1  0
 18 19  2  0
 19 20  1  0
 19 21  1  0
 21 22  2  0
 22 23  1  0
 23 24  1  0
 23 38  1  0
 24 25  1  0
 25 26  1  0
 26 27  1  6
 26 37  1  0
 27 28  1  0
 28 29  2  0
 28 34  1  0
 29 30  1  0
 30 31  2  0
 31 32  1  0
 32 33  1  0
 32 34  2  0
 34 35  1  0
 35 36  1  0
 37 38  1  0
 39 40  2  0
 41 42  1  0
 42 43  2  0
M  CHG  2   3   1  26   1
M  END
