
     RDKit          3D

 43 47  0  0  0  0  0  0  0  0999 V2000
    4.1470   -5.8180    0.7180 C   0  0  0  0  0  0  0  0  0  0  0  0
    3.5920   -4.4330    1.0380 C   0  0  2  0  0  0  0  0  0  0  0  0
    2.4430   -4.1690    0.1290 C   0  0  0  0  0  0  0  0  0  0  0  0
    2.2200   -2.7370   -0.2420 C   0  0  0  0  0  0  0  0  0  0  0  0
    2.9100   -1.7790    0.5510 N   0  0  0  0  0  0  0  0  0  0  0  0
    2.4930   -0.3950    0.4870 C   0  0  0  0  0  0  0  0  0  0  0  0
    3.0630    0.4680    1.1840 O   0  0  0  0  0  0  0  0  0  0  0  0
    1.4040    0.0100   -0.3900 C   0  0  0  0  0  0  0  0  0  0  0  0
    0.9110    1.2020   -0.5460 C   0  0  0  0  0  0  0  0  0  0  0  0
    1.3740    2.4000    0.1510 C   0  0  0  0  0  0  0  0  0  0  0  0
    0.8240    3.5780   -0.0860 C   0  0  0  0  0  0  0  0  0  0  0  0
    1.2550    4.7890    0.5880 C   0  0  0  0  0  0  0  0  0  0  0  0
    2.2530    4.8470    1.5270 C   0  0  0  0  0  0  0  0  0  0  0  0
    2.6370    6.0090    2.1490 C   0  0  0  0  0  0  0  0  0  0  0  0
    2.0020    7.1820    1.8250 C   0  0  0  0  0  0  0  0  0  0  0  0
    0.9840    7.1120    0.8640 C   0  0  0  0  0  0  0  0  0  0  0  0
    0.6370    5.9650    0.2810 N   0  0  0  0  0  0  0  0  0  0  0  0
   -0.2060    1.3440   -1.4700 N   0  0  0  0  0  0  0  0  0  0  0  0
   -1.5240    1.4420   -0.9710 C   0  0  0  0  0  0  0  0  0  0  0  0
   -2.1160    0.2290   -0.3740 C   0  0  0  0  0  0  0  0  0  0  0  0
   -1.5580   -0.8840   -0.2830 O   0  0  0  0  0  0  0  0  0  0  0  0
   -3.4630    0.2780    0.1690 N   0  0  0  0  0  0  0  0  0  0  0  0
   -4.0720   -0.8700    0.7430 C   0  0  0  0  0  0  0  0  0  0  0  0
   -4.8970   -1.6860    0.0010 C   0  0  0  0  0  0  0  0  0  0  0  0
   -5.1570   -1.3070   -1.4310 C   0  0  2  0  0  0  0  0  0  0  0  0
   -5.7380   -0.0690   -1.5340 F   0  0  0  0  0  0  0  0  0  0  0  0
   -5.9300   -2.2930   -2.0160 F   0  0  0  0  0  0  0  0  0  0  0  0
   -3.9480   -1.3070   -2.0760 F   0  0  0  0  0  0  0  0  0  0  0  0
   -5.4930   -2.8170    0.5310 C   0  0  0  0  0  0  0  0  0  0  0  0
   -5.2740   -3.1690    1.8460 C   0  0  0  0  0  0  0  0  0  0  0  0
   -4.4490   -2.3680    2.6200 C   0  0  0  0  0  0  0  0  0  0  0  0
   -3.8580   -1.2370    2.0750 C   0  0  0  0  0  0  0  0  0  0  0  0
   -3.1090   -0.6070    2.9660 C   0  0  0  0  0  0  0  0  0  0  0  0
   -3.1830   -1.3600    4.2370 C   0  0  0  0  0  0  0  0  0  0  0  0
   -4.0850   -2.4860    3.8870 C   0  0  0  0  0  0  0  0  0  0  0  0
    0.0410    1.3780   -2.8300 N   0  0  0  0  0  0  0  0  0  0  0  0
    0.4830    2.5170   -3.5850 C   0  0  0  0  0  0  0  0  0  0  0  0
    0.0100    2.2690   -5.0100 C   0  0  0  0  0  0  0  0  0  0  0  0
    0.1350    0.7710   -5.1400 C   0  0  0  0  0  0  0  0  0  0  0  0
   -0.0990    0.3060   -3.7300 C   0  0  0  0  0  0  0  0  0  0  0  0
   -0.3820   -0.8850   -3.4140 O   0  0  0  0  0  0  0  0  0  0  0  0
    4.0200   -2.0880    1.4310 C   0  0  0  0  0  0  0  0  0  0  0  0
    4.6370   -3.3710    0.9060 C   0  0  0  0  0  0  0  0  0  0  0  0
  2  1  1  6
  2  3  1  0
  2 43  1  0
  3  4  1  0
  4  5  1  0
  5  6  1  0
  5 42  1  0
  6  7  2  0
  6  8  1  0
  8  9  2  3
  9 10  1  0
  9 18  1  0
 10 11  2  3
 11 12  1  0
 12 13  2  0
 12 17  1  0
 13 14  1  0
 14 15  2  0
 15 16  1  0
 16 17  2  0
 18 19  1  0
 18 36  1  0
 19 20  1  0
 20 21  2  0
 20 22  1  0
 22 23  1  0
 23 24  2  0
 23 32  1  0
 24 25  1  0
 24 29  1  0
 25 26  1  1
 25 27  1  0
 25 28  1  0
 29 30  2  0
 30 31  1  0
 31 32  1  0
 31 35  2  0
 32 33  2  0
 33 34  1  0
 34 35  1  0
 36 37  1  0
 36 40  1  0
 37 38  1  0
 38 39  1  0
 39 40  1  0
 40 41  2  0
 42 43  1  0
M  CHG  1  17   1
M  END
