
     RDKit          3D

 43 47  0  0  0  0  0  0  0  0999 V2000
   -6.4180    1.8170    0.9040 C   0  0  0  0  0  0  0  0  0  0  0  0
   -5.9090    3.1950    0.8830 C   0  0  0  0  0  0  0  0  0  0  0  0
   -4.6440    3.5030    0.6800 C   0  0  0  0  0  0  0  0  0  0  0  0
   -3.5640    2.7220    0.4550 C   0  0  0  0  0  0  0  0  0  0  0  0
   -3.5250    1.2430    0.3340 C   0  0  0  0  0  0  0  0  0  0  0  0
   -2.0770    0.7630    0.3210 C   0  0  0  0  0  0  0  0  0  0  0  0
   -2.0840   -0.7150    0.1880 C   0  0  0  0  0  0  0  0  0  0  0  0
   -3.1490   -1.3990    0.1060 N   0  0  0  0  0  0  0  0  0  0  0  0
   -3.2190   -2.8090   -0.0230 C   0  0  0  0  0  0  0  0  0  0  0  0
   -3.9920   -3.5610    0.8730 C   0  0  0  0  0  0  0  0  0  0  0  0
   -4.0990   -4.9310    0.7730 C   0  0  0  0  0  0  0  0  0  0  0  0
   -3.4430   -5.6290   -0.2210 C   0  0  0  0  0  0  0  0  0  0  0  0
   -3.5430   -7.0490   -0.3410 N   0  0  0  0  0  0  0  0  0  0  0  0
   -2.6800   -4.9060   -1.1080 C   0  0  0  0  0  0  0  0  0  0  0  0
   -2.0300   -5.5740   -2.0910 F   0  0  0  0  0  0  0  0  0  0  0  0
   -2.5690   -3.5120   -1.0100 C   0  0  0  0  0  0  0  0  0  0  0  0
   -0.8140   -1.3400    0.1530 N   0  0  0  0  0  0  0  0  0  0  0  0
   -0.4820   -2.3080    1.1390 C   0  0  0  0  0  0  0  0  0  0  0  0
    0.5460   -3.3250    0.7360 C   0  0  0  0  0  0  0  0  0  0  0  0
    1.2540   -3.0030   -0.5410 C   0  0  0  0  0  0  0  0  0  0  0  0
    1.4560   -1.4820   -0.5630 C   0  0  1  0  0  0  0  0  0  0  0  0
    2.4390   -1.0780   -1.5100 N   0  0  0  0  0  0  0  0  0  0  0  0
    3.6580   -0.4350   -1.0840 C   0  0  0  0  0  0  0  0  0  0  0  0
    3.7690   -0.2740    0.1320 O   0  0  0  0  0  0  0  0  0  0  0  0
    4.6150   -0.0310   -2.0530 C   0  0  0  0  0  0  0  0  0  0  0  0
    5.7680    0.4890   -1.9040 C   0  0  0  0  0  0  0  0  0  0  0  0
    6.5170    0.8320   -0.7330 C   0  0  0  0  0  0  0  0  0  0  0  0
    7.2870    2.0170   -0.7790 C   0  0  0  0  0  0  0  0  0  0  0  0
    8.1380    2.4250    0.1960 C   0  0  0  0  0  0  0  0  0  0  0  0
    8.2930    1.6590    1.3300 C   0  0  0  0  0  0  0  0  0  0  0  0
    7.5680    0.4930    1.4250 C   0  0  0  0  0  0  0  0  0  0  0  0
    6.6940    0.0870    0.4020 C   0  0  0  0  0  0  0  0  0  0  0  0
    6.1510   -1.1390    0.5860 F   0  0  0  0  0  0  0  0  0  0  0  0
    9.2080    2.3000    2.1520 O   0  0  0  0  0  0  0  0  0  0  0  0
    9.9620    3.1840    1.3150 C   0  0  0  0  0  0  0  0  0  0  0  0
    8.9850    3.5400    0.3600 O   0  0  0  0  0  0  0  0  0  0  0  0
    0.0830   -0.9140   -0.9060 C   0  0  0  0  0  0  0  0  0  0  0  0
   -2.4700    3.5790    0.3330 C   0  0  0  0  0  0  0  0  0  0  0  0
   -2.8650    4.8450    0.4780 N   0  0  0  0  0  0  0  0  0  0  0  0
   -2.0470    6.0590    0.4270 C   0  0  0  0  0  0  0  0  0  0  0  0
   -4.1820    4.8450    0.6910 C   0  0  0  0  0  0  0  0  0  0  0  0
   -4.9620    5.9030    0.8820 C   0  0  0  0  0  0  0  0  0  0  0  0
   -4.3620    7.1410    0.8650 F   0  0  0  0  0  0  0  0  0  0  0  0
  1  2  1  0
  2  3  2  3
  3  4  1  0
  3 41  1  0
  4  5  1  0
  4 38  2  0
  5  6  1  0
  6  7  1  0
  7  8  2  3
  7 17  1  0
  8  9  1  0
  9 10  2  0
  9 16  1  0
 10 11  1  0
 11 12  2  0
 12 13  1  0
 12 14  1  0
 14 15  1  0
 14 16  2  0
 17 18  1  0
 17 37  1  0
 18 19  1  0
 19 20  1  0
 20 21  1  0
 21 22  1  6
 21 37  1  0
 22 23  1  0
 23 24  2  0
 23 25  1  0
 25 26  2  3
 26 27  1  0
 27 28  2  0
 27 32  1  0
 28 29  1  0
 29 30  2  0
 29 36  1  0
 30 31  1  0
 30 34  1  0
 31 32  2  0
 32 33  1  0
 34 35  1  0
 35 36  1  0
 38 39  1  0
 39 40  1  0
 39 41  1  0
 41 42  2  3
 42 43  1  0
M  CHG  2   8   1  13   1
M  END
