
     RDKit          3D

 43 47  0  0  0  0  0  0  0  0999 V2000
   -0.5540    0.0310   -2.6190 C   0  0  0  0  0  0  0  0  0  0  0  0
    0.1540    0.5630   -1.4890 N   0  0  1  0  0  0  0  0  0  0  0  0
   -0.3480    1.7930   -0.9950 C   0  0  0  0  0  0  0  0  0  0  0  0
    0.5580   -0.4320   -0.5810 C   0  0  2  0  0  0  0  0  0  0  0  0
   -0.3640   -1.3690    0.0640 C   0  0  0  0  0  0  0  0  0  0  0  0
   -1.4120   -1.0030    0.9130 N   0  0  0  0  0  0  0  0  0  0  0  0
   -2.5770   -0.3070    0.5470 C   0  0  0  0  0  0  0  0  0  0  0  0
   -2.8570    0.0720   -0.6100 O   0  0  0  0  0  0  0  0  0  0  0  0
   -3.5760    0.0080    1.6560 C   0  0  0  0  0  0  0  0  0  0  0  0
   -4.7110    0.7340    1.0720 C   0  0  0  0  0  0  0  0  0  0  0  0
   -4.6960    2.1020    1.0240 C   0  0  0  0  0  0  0  0  0  0  0  0
   -5.7590    2.7950    0.4750 C   0  0  0  0  0  0  0  0  0  0  0  0
   -6.8470    2.1090   -0.0320 C   0  0  0  0  0  0  0  0  0  0  0  0
   -7.9040    2.7470   -0.5760 F   0  0  0  0  0  0  0  0  0  0  0  0
   -6.8790    0.7410    0.0070 C   0  0  0  0  0  0  0  0  0  0  0  0
   -7.9150   -0.0840   -0.4710 N   0  0  2  0  0  0  0  0  0  0  0  0
   -9.0250    0.6050   -1.0490 C   0  0  0  0  0  0  0  0  0  0  0  0
   -9.9770   -0.4610   -1.5410 C   0  0  0  0  0  0  0  0  0  0  0  0
  -10.3530   -1.3710   -0.6500 C   0  0  0  0  0  0  0  0  0  0  0  0
   -9.7640   -1.1960    0.7290 C   0  0  0  0  0  0  0  0  0  0  0  0
   -8.2800   -1.0180    0.5500 C   0  0  0  0  0  0  0  0  0  0  0  0
   -5.7900    0.0580    0.5690 C   0  0  0  0  0  0  0  0  0  0  0  0
    1.4280    0.1530    0.5400 C   0  0  0  0  0  0  0  0  0  0  0  0
    2.7480    0.5410   -0.0130 C   0  0  0  0  0  0  0  0  0  0  0  0
    3.4950   -0.7120   -0.2110 N   0  0  0  0  0  0  0  0  0  0  0  0
    4.8960   -0.7610   -0.1150 C   0  0  0  0  0  0  0  0  0  0  0  0
    5.5500   -1.8330   -0.2800 O   0  0  0  0  0  0  0  0  0  0  0  0
    5.6780    0.3580    0.1670 O   0  0  0  0  0  0  0  0  0  0  0  0
    7.0590    0.2970    0.2590 C   0  0  0  0  0  0  0  0  0  0  0  0
    7.6140    0.0540    1.4970 C   0  0  0  0  0  0  0  0  0  0  0  0
    8.9840   -0.0240    1.6820 C   0  0  0  0  0  0  0  0  0  0  0  0
    9.8610    0.1420    0.6180 C   0  0  0  0  0  0  0  0  0  0  0  0
   11.3050    0.0650    0.7950 C   0  0  0  0  0  0  0  0  0  0  0  0
   12.1870    0.2120   -0.1760 C   0  0  0  0  0  0  0  0  0  0  0  0
   13.5350    0.0630    0.4160 C   0  0  0  0  0  0  0  0  0  0  0  0
   14.7210    0.2140   -0.1980 F   0  0  0  0  0  0  0  0  0  0  0  0
   13.2800   -0.2490    1.6750 C   0  0  0  0  0  0  0  0  0  0  0  0
   12.0310   -0.1730    1.9910 N   0  0  0  0  0  0  0  0  0  0  0  0
    9.3070    0.3850   -0.6210 C   0  0  0  0  0  0  0  0  0  0  0  0
    7.9250    0.4610   -0.7970 C   0  0  0  0  0  0  0  0  0  0  0  0
    7.4240    0.7000   -2.0170 F   0  0  0  0  0  0  0  0  0  0  0  0
    2.6510   -1.8520   -0.5110 C   0  0  0  0  0  0  0  0  0  0  0  0
    1.5430   -1.3290   -1.3900 C   0  0  0  0  0  0  0  0  0  0  0  0
  2  1  1  6
  2  3  1  0
  2  4  1  0
  4  5  1  1
  4 23  1  0
  4 43  1  0
  5  6  1  0
  6  7  1  0
  7  8  2  0
  7  9  1  0
  9 10  1  0
 10 11  2  0
 10 22  1  0
 11 12  1  0
 12 13  2  0
 13 14  1  0
 13 15  1  0
 16 15  1  1
 15 22  2  0
 16 17  1  0
 16 21  1  0
 17 18  1  0
 18 19  2  0
 19 20  1  0
 20 21  1  0
 23 24  1  0
 24 25  1  0
 25 26  1  0
 25 42  1  0
 26 27  2  0
 26 28  1  0
 28 29  1  0
 29 30  2  0
 29 40  1  0
 30 31  1  0
 31 32  2  0
 32 33  1  0
 32 39  1  0
 33 34  2  0
 33 38  1  0
 34 35  1  0
 35 36  1  0
 35 37  2  0
 37 38  2  0
 39 40  2  0
 40 41  1  0
 42 43  1  0
M  CHG  2   2   1  16   1
M  END
