
     RDKit          3D

 33 34  0  0  0  0  0  0  0  0999 V2000
    7.8320   -4.1250   -0.1740 C   0  0  0  0  0  0  0  0  0  0  0  0
    7.8920   -2.6470    0.1680 C   0  0  0  0  0  0  0  0  0  0  0  0
    6.8020   -2.3190    0.9700 O   0  0  0  0  0  0  0  0  0  0  0  0
    6.7670   -0.6730    1.4170 P   0  0  0  0  0  0  0  0  0  0  0  0
    8.2600    0.2720    0.9320 C   0  0  0  0  0  0  0  0  0  0  0  0
    5.1960    0.1710    1.0380 C   0  0  0  0  0  0  0  0  0  0  0  0
    4.4240   -0.1270   -0.0640 C   0  0  0  0  0  0  0  0  0  0  0  0
    3.2290    0.5370   -0.3220 C   0  0  0  0  0  0  0  0  0  0  0  0
    2.7500    1.5250    0.5050 C   0  0  0  0  0  0  0  0  0  0  0  0
    1.4920    2.2360    0.2860 C   0  0  0  0  0  0  0  0  0  0  0  0
    1.2070    3.1790    1.0560 O   0  0  0  0  0  0  0  0  0  0  0  0
    0.6130    1.8710   -0.7710 N   0  0  0  0  0  0  0  0  0  0  0  0
   -0.6270    2.6540   -0.8950 C   0  0  1  0  0  0  0  0  0  0  0  0
   -0.7310    3.0720   -2.3220 C   0  0  0  0  0  0  0  0  0  0  0  0
   -1.8240    3.8670   -2.5300 O   0  0  0  0  0  0  0  0  0  0  0  0
   -1.7620    1.8790   -0.3920 C   0  0  0  0  0  0  0  0  0  0  0  0
   -1.6010    1.1650    0.8180 C   0  0  0  0  0  0  0  0  0  0  0  0
   -2.6120    0.4380    1.3670 C   0  0  0  0  0  0  0  0  0  0  0  0
   -3.8830    0.3710    0.7300 C   0  0  0  0  0  0  0  0  0  0  0  0
   -4.8940   -0.4190    1.3620 C   0  0  0  0  0  0  0  0  0  0  0  0
   -5.0920   -0.1340    2.6120 O   0  0  0  0  0  0  0  0  0  0  0  0
   -5.6950   -1.4400    0.8710 N   0  0  0  0  0  0  0  0  0  0  0  0
   -6.7020   -2.1450    1.6540 C   0  0  0  0  0  0  0  0  0  0  0  0
   -7.3310   -3.1900    0.7510 C   0  0  0  0  0  0  0  0  0  0  0  0
   -6.3750   -4.1010    0.2900 O   0  0  0  0  0  0  0  0  0  0  0  0
   -4.0400    1.0510   -0.4240 C   0  0  0  0  0  0  0  0  0  0  0  0
   -5.2980    1.1060   -1.1510 C   0  0  0  0  0  0  0  0  0  0  0  0
   -5.6360    0.0870   -2.1130 C   0  0  0  0  0  0  0  0  0  0  0  0
   -4.9190   -0.8390   -2.4590 O   0  0  0  0  0  0  0  0  0  0  0  0
   -6.9220    0.1880   -2.6960 O   0  0  0  0  0  0  0  0  0  0  0  0
   -2.9700    1.8120   -0.9930 C   0  0  0  0  0  0  0  0  0  0  0  0
    3.5260    1.8360    1.6260 C   0  0  0  0  0  0  0  0  0  0  0  0
    4.7030    1.1690    1.8640 C   0  0  0  0  0  0  0  0  0  0  0  0
  1  2  1  0
  2  3  1  0
  3  4  1  0
  4  5  1  0
  4  6  1  0
  6  7  2  0
  6 33  1  0
  7  8  1  0
  8  9  2  0
  9 10  1  0
  9 32  1  0
 10 11  2  0
 10 12  1  0
 12 13  1  0
 13 14  1  6
 13 16  1  0
 14 15  1  0
 16 17  2  0
 16 31  1  0
 17 18  1  0
 18 19  2  0
 19 20  1  0
 19 26  1  0
 20 21  2  0
 20 22  1  0
 22 23  1  0
 23 24  1  0
 24 25  1  0
 26 27  1  0
 26 31  2  0
 27 28  1  0
 28 29  2  0
 28 30  1  0
 32 33  2  0
M  END
