
     RDKit          3D

 33 34  0  0  0  0  0  0  0  0999 V2000
   -5.3770   -3.2030    2.0440 C   0  0  0  0  0  0  0  0  0  0  0  0
   -4.7300   -2.4160    1.1970 C   0  0  0  0  0  0  0  0  0  0  0  0
   -5.0680   -1.0620    1.2000 C   0  0  0  0  0  0  0  0  0  0  0  0
   -6.1790   -0.6130    1.8650 O   0  0  0  0  0  0  0  0  0  0  0  0
   -4.2180   -0.2160    0.4940 C   0  0  0  0  0  0  0  0  0  0  0  0
   -3.1390   -0.6730   -0.1390 C   0  0  0  0  0  0  0  0  0  0  0  0
   -1.9820    0.2490   -0.6200 C   0  0  2  0  0  0  0  0  0  0  0  0
   -1.1550    0.1820    0.5290 O   0  0  0  0  0  0  0  0  0  0  0  0
   -0.0030   -0.2400    0.7060 C   0  0  0  0  0  0  0  0  0  0  0  0
    1.1030    0.5430   -0.0310 C   0  0  0  0  0  0  0  0  0  0  0  0
    2.4130   -0.0850    0.3630 C   0  0  0  0  0  0  0  0  0  0  0  0
    3.5550    0.6230   -0.3680 C   0  0  0  0  0  0  0  0  0  0  0  0
    5.1140   -0.2520    0.0040 P   0  0  0  0  0  0  0  0  0  0  0  0
    5.0690   -1.8260    0.4030 O   0  0  0  0  0  0  0  0  0  0  0  0
    6.3050   -2.2740    0.8840 C   0  0  0  0  0  0  0  0  0  0  0  0
    6.1890   -3.7600    1.2410 C   0  0  0  0  0  0  0  0  0  0  0  0
    6.5400    0.4620   -0.5980 O   0  0  0  0  0  0  0  0  0  0  0  0
    6.0480    1.4620   -1.5380 C   0  0  0  0  0  0  0  0  0  0  0  0
    6.7060    2.7270   -1.0240 C   0  0  0  0  0  0  0  0  0  0  0  0
   -2.3510    1.5120   -0.7380 O   0  0  0  0  0  0  0  0  0  0  0  0
   -2.5220    2.6210   -1.3750 C   0  0  0  0  0  0  0  0  0  0  0  0
   -2.3150    2.8450   -2.7130 C   0  0  0  0  0  0  0  0  0  0  0  0
   -2.5150    4.0780   -3.3310 N   0  0  0  0  0  0  0  0  0  0  0  0
   -2.9460    5.1350   -2.6110 C   0  0  0  0  0  0  0  0  0  0  0  0
   -3.1800    4.9610   -1.2660 C   0  0  0  0  0  0  0  0  0  0  0  0
   -2.9660    3.7370   -0.6680 C   0  0  0  0  0  0  0  0  0  0  0  0
   -3.1490    3.6280    0.7600 C   0  0  0  0  0  0  0  0  0  0  0  0
   -2.9690    2.6030    1.4590 O   0  0  0  0  0  0  0  0  0  0  0  0
   -3.5690    4.7850    1.4950 O   0  0  0  0  0  0  0  0  0  0  0  0
   -2.8310   -1.9800   -0.1540 N   0  0  0  0  0  0  0  0  0  0  0  0
   -3.6510   -2.8920    0.5250 C   0  0  0  0  0  0  0  0  0  0  0  0
   -3.4740   -4.1320    0.1410 C   0  0  0  0  0  0  0  0  0  0  0  0
   -4.3470   -5.2670    0.3000 C   0  0  0  0  0  0  0  0  0  0  0  0
  1  2  2  0
  2  3  1  0
  2 31  1  0
  3  4  1  0
  3  5  2  0
  5  6  1  0
  6  7  1  0
  6 30  2  0
  7  8  1  1
  7 20  1  0
  8  9  1  0
  9 10  1  0
 10 11  1  0
 11 12  1  0
 12 13  1  0
 13 14  1  0
 13 17  1  0
 14 15  1  0
 15 16  1  0
 17 18  1  0
 18 19  1  0
 20 21  1  0
 21 22  2  0
 21 26  1  0
 22 23  1  0
 23 24  2  0
 24 25  1  0
 25 26  2  0
 26 27  1  0
 27 28  2  0
 27 29  1  0
 30 31  1  0
 31 32  2  3
 32 33  1  0
M  END
