
     RDKit          3D

 33 34  0  0  0  0  0  0  0  0999 V2000
    5.6460   -3.4480    2.1610 C   0  0  0  0  0  0  0  0  0  0  0  0
    5.5710   -2.2510    1.2450 C   0  0  0  0  0  0  0  0  0  0  0  0
    4.4070   -2.3540    0.4990 O   0  0  0  0  0  0  0  0  0  0  0  0
    4.2060   -1.0290   -0.5970 P   0  0  0  0  0  0  0  0  0  0  0  0
    5.6710   -0.2050   -0.9230 O   0  0  0  0  0  0  0  0  0  0  0  0
    5.8070    0.9960   -0.2380 C   0  0  0  0  0  0  0  0  0  0  0  0
    7.1650    1.5680   -0.6620 C   0  0  0  0  0  0  0  0  0  0  0  0
    2.8490    0.1110   -0.0120 C   0  0  2  0  0  0  0  0  0  0  0  0
    1.9960   -0.6360    0.7470 O   0  0  0  0  0  0  0  0  0  0  0  0
    2.1430    0.6070   -1.2470 C   0  0  0  0  0  0  0  0  0  0  0  0
    1.0300    1.4310   -1.0330 N   0  0  0  0  0  0  0  0  0  0  0  0
   -0.1630    0.8880   -0.4590 C   0  0  2  0  0  0  0  0  0  0  0  0
   -0.6700   -0.1520   -1.3960 C   0  0  0  0  0  0  0  0  0  0  0  0
   -1.8820   -0.8660   -1.0820 C   0  0  0  0  0  0  0  0  0  0  0  0
   -3.0410   -0.5560   -1.7600 C   0  0  0  0  0  0  0  0  0  0  0  0
   -4.2380   -1.1840   -1.5390 C   0  0  0  0  0  0  0  0  0  0  0  0
   -4.3100   -2.1700   -0.6030 C   0  0  0  0  0  0  0  0  0  0  0  0
   -5.5160   -2.8180   -0.3650 O   0  0  0  0  0  0  0  0  0  0  0  0
   -3.1920   -2.5100    0.0920 C   0  0  0  0  0  0  0  0  0  0  0  0
   -3.2630   -3.5120    1.0430 O   0  0  0  0  0  0  0  0  0  0  0  0
   -3.0200   -4.8570    0.6700 C   0  0  0  0  0  0  0  0  0  0  0  0
   -1.9790   -1.8640   -0.1430 C   0  0  0  0  0  0  0  0  0  0  0  0
   -0.8010   -2.2770    0.6360 C   0  0  0  0  0  0  0  0  0  0  0  0
   -1.0940    2.0310   -0.2590 C   0  0  0  0  0  0  0  0  0  0  0  0
   -0.7170    3.1560   -0.6610 O   0  0  0  0  0  0  0  0  0  0  0  0
   -2.3500    1.8870    0.3510 N   0  0  0  0  0  0  0  0  0  0  0  0
   -3.2920    2.9010    0.5800 C   0  0  0  0  0  0  0  0  0  0  0  0
   -3.1230    4.2390    0.3450 C   0  0  0  0  0  0  0  0  0  0  0  0
   -4.1540    5.1440    0.6130 C   0  0  0  0  0  0  0  0  0  0  0  0
   -5.3700    4.7440    1.1180 C   0  0  0  0  0  0  0  0  0  0  0  0
   -6.4130    5.6170    1.3940 O   0  0  0  0  0  0  0  0  0  0  0  0
   -5.5170    3.3970    1.3470 C   0  0  0  0  0  0  0  0  0  0  0  0
   -4.5280    2.4900    1.0950 C   0  0  0  0  0  0  0  0  0  0  0  0
  1  2  1  0
  2  3  1  0
  3  4  1  0
  4  5  1  0
  4  8  1  0
  5  6  1  0
  6  7  1  0
  8  9  1  1
  8 10  1  0
 10 11  1  0
 11 12  1  0
 12 13  1  6
 12 24  1  0
 13 14  1  0
 14 15  2  0
 14 22  1  0
 15 16  1  0
 16 17  2  0
 17 18  1  0
 17 19  1  0
 19 20  1  0
 19 22  2  0
 20 21  1  0
 22 23  1  0
 24 25  2  0
 24 26  1  0
 26 27  1  0
 27 28  2  0
 27 33  1  0
 28 29  1  0
 29 30  2  0
 30 31  1  0
 30 32  1  0
 32 33  2  0
M  END
