
     RDKit          3D

 33 34  0  0  0  0  0  0  0  0999 V2000
   -5.4880    3.6700   -1.4720 C   0  0  0  0  0  0  0  0  0  0  0  0
   -4.1130    4.2630   -1.5400 C   0  0  0  0  0  0  0  0  0  0  0  0
   -3.1900    3.7800   -0.5750 N   0  0  0  0  0  0  0  0  0  0  0  0
   -2.7840    2.4270   -0.7140 C   0  0  1  0  0  0  0  0  0  0  0  0
   -1.7560    2.0840    0.3740 C   0  0  0  0  0  0  0  0  0  0  0  0
   -2.6060    0.9320    0.7860 C   0  0  2  0  0  0  0  0  0  0  0  0
   -3.1470    1.0470    2.2230 C   0  0  0  0  0  0  0  0  0  0  0  0
   -2.0190   -0.4440    0.6310 C   0  0  2  0  0  0  0  0  0  0  0  0
   -0.8170   -0.5330    1.4890 C   0  0  0  0  0  0  0  0  0  0  0  0
   -0.7840   -1.4060    2.3880 O   0  0  0  0  0  0  0  0  0  0  0  0
    0.2640    0.3010    1.3390 O   0  0  0  0  0  0  0  0  0  0  0  0
    1.4260    0.2870    2.0960 C   0  0  0  0  0  0  0  0  0  0  0  0
    2.1920   -1.0070    2.0380 C   0  0  0  0  0  0  0  0  0  0  0  0
    2.6310   -1.3690    0.6560 C   0  0  0  0  0  0  0  0  0  0  0  0
    3.5280   -0.3270    0.0330 C   0  0  0  0  0  0  0  0  0  0  0  0
    5.0640   -0.0440    0.9940 P   0  0  0  0  0  0  0  0  0  0  0  0
    6.1110   -1.3940    1.0810 O   0  0  0  0  0  0  0  0  0  0  0  0
    7.0940   -1.3750    0.0840 C   0  0  0  0  0  0  0  0  0  0  0  0
    8.0050   -2.5710    0.1820 C   0  0  0  0  0  0  0  0  0  0  0  0
    5.8310    1.4420    0.6340 O   0  0  0  0  0  0  0  0  0  0  0  0
    5.7960    1.8070   -0.6880 C   0  0  0  0  0  0  0  0  0  0  0  0
    6.5110    3.1340   -0.8360 C   0  0  0  0  0  0  0  0  0  0  0  0
   -1.7450   -0.8380   -0.7900 C   0  0  0  0  0  0  0  0  0  0  0  0
   -2.4750   -2.1420   -1.0300 C   0  0  1  0  0  0  0  0  0  0  0  0
   -1.6560   -3.3330   -0.6340 C   0  0  0  0  0  0  0  0  0  0  0  0
   -3.5950   -2.0370   -0.1070 N   0  0  0  0  0  0  0  0  0  0  0  0
   -4.9660   -2.5030   -0.3400 C   0  0  0  0  0  0  0  0  0  0  0  0
   -5.1660   -3.8990    0.1030 C   0  0  0  0  0  0  0  0  0  0  0  0
   -6.2910   -4.4270   -0.0510 O   0  0  0  0  0  0  0  0  0  0  0  0
   -4.1630   -4.6490    0.6800 O   0  0  0  0  0  0  0  0  0  0  0  0
   -3.0760   -1.3980    1.0490 C   0  0  0  0  0  0  0  0  0  0  0  0
   -3.4840   -1.6390    2.2350 O   0  0  0  0  0  0  0  0  0  0  0  0
   -3.6630    1.3610   -0.1670 C   0  0  0  0  0  0  0  0  0  0  0  0
  1  2  1  0
  2  3  1  0
  4  3  1  1
  4  5  1  0
  4 33  1  0
  5  6  1  0
  6  7  1  1
  6  8  1  0
  6 33  1  0
  8  9  1  1
  8 23  1  0
  8 31  1  0
  9 10  2  0
  9 11  1  0
 11 12  1  0
 12 13  1  0
 13 14  1  0
 14 15  1  0
 15 16  1  0
 16 17  1  0
 16 20  1  0
 17 18  1  0
 18 19  1  0
 20 21  1  0
 21 22  1  0
 23 24  1  0
 24 25  1  1
 24 26  1  0
 26 27  1  0
 26 31  1  0
 27 28  1  0
 28 29  2  0
 28 30  1  0
 31 32  2  0
M  END
