
     RDKit          3D

 32 33  0  0  0  0  0  0  0  0999 V2000
    7.9470   -2.7550   -1.5720 C   0  0  0  0  0  0  0  0  0  0  0  0
    6.8540   -2.0650   -0.8130 C   0  0  0  0  0  0  0  0  0  0  0  0
    5.8240   -1.6680   -1.6760 O   0  0  0  0  0  0  0  0  0  0  0  0
    4.5560   -0.8670   -0.8050 P   0  0  0  0  0  0  0  0  0  0  0  0
    4.0740   -1.8030    0.5750 O   0  0  0  0  0  0  0  0  0  0  0  0
    5.0790    0.8500   -0.2970 C   0  0  0  0  0  0  0  0  0  0  0  0
    4.4860    1.8920   -1.1990 C   0  0  0  0  0  0  0  0  0  0  0  0
    3.0070    1.8730   -1.1640 C   0  0  0  0  0  0  0  0  0  0  0  0
    2.3990    2.2080    0.1060 N   0  0  0  0  0  0  0  0  0  0  0  0
    3.1330    2.7880    1.1570 C   0  0  0  0  0  0  0  0  0  0  0  0
    2.5230    2.9260    2.3080 C   0  0  0  0  0  0  0  0  0  0  0  0
    1.1530    2.5340    2.5510 C   0  0  0  0  0  0  0  0  0  0  0  0
    0.4130    2.0030    1.5620 C   0  0  0  0  0  0  0  0  0  0  0  0
   -0.9470    1.6230    1.8890 C   0  0  0  0  0  0  0  0  0  0  0  0
   -1.9160    1.0970    1.2430 C   0  0  0  0  0  0  0  0  0  0  0  0
   -2.1100    0.6380   -0.1030 C   0  0  1  0  0  0  0  0  0  0  0  0
   -1.7630    1.6010   -1.0330 O   0  0  0  0  0  0  0  0  0  0  0  0
   -1.4030   -0.6090   -0.4380 N   0  0  0  0  0  0  0  0  0  0  0  0
   -1.6420   -1.8200    0.3000 C   0  0  0  0  0  0  0  0  0  0  0  0
   -2.6260   -2.7930   -0.2400 C   0  0  0  0  0  0  0  0  0  0  0  0
   -1.0170   -2.0810    1.4240 C   0  0  0  0  0  0  0  0  0  0  0  0
   -1.2850   -3.2620    2.0910 O   0  0  0  0  0  0  0  0  0  0  0  0
   -3.5960    0.3820   -0.3680 C   0  0  0  0  0  0  0  0  0  0  0  0
   -4.1750    0.8260   -1.5090 C   0  0  0  0  0  0  0  0  0  0  0  0
   -5.5030    0.6380   -1.8280 C   0  0  0  0  0  0  0  0  0  0  0  0
   -6.1070    1.0870   -2.9910 O   0  0  0  0  0  0  0  0  0  0  0  0
   -6.2780   -0.0470   -0.9160 C   0  0  0  0  0  0  0  0  0  0  0  0
   -5.7360   -0.5180    0.2570 C   0  0  0  0  0  0  0  0  0  0  0  0
   -6.5180   -1.2030    1.1660 O   0  0  0  0  0  0  0  0  0  0  0  0
   -7.8820   -1.4060    0.8590 C   0  0  0  0  0  0  0  0  0  0  0  0
   -4.3800   -0.3000    0.5330 C   0  0  0  0  0  0  0  0  0  0  0  0
    0.9550    1.9230    0.1870 C   0  0  0  0  0  0  0  0  0  0  0  0
  1  2  1  0
  2  3  1  0
  3  4  1  0
  4  5  1  0
  4  6  1  0
  6  7  1  0
  7  8  1  0
  8  9  1  0
  9 10  1  0
  9 32  1  0
 10 11  2  0
 11 12  1  0
 12 13  2  0
 13 14  1  0
 13 32  1  0
 14 15  2  3
 15 16  1  0
 16 17  1  6
 16 18  1  0
 16 23  1  0
 18 19  1  0
 19 20  1  0
 19 21  2  3
 21 22  1  0
 23 24  2  0
 23 31  1  0
 24 25  1  0
 25 26  1  0
 25 27  2  0
 27 28  1  0
 28 29  1  0
 28 31  2  0
 29 30  1  0
M  END
