
     RDKit          3D

 33 34  0  0  0  0  0  0  0  0999 V2000
    8.0820   -0.6820   -1.0390 C   0  0  0  0  0  0  0  0  0  0  0  0
    6.9020    0.1920   -0.7200 C   0  0  0  0  0  0  0  0  0  0  0  0
    6.5800    0.9500   -1.8440 O   0  0  0  0  0  0  0  0  0  0  0  0
    5.2280    1.9850   -1.5560 P   0  0  0  0  0  0  0  0  0  0  0  0
    5.6780    3.2850   -0.4880 O   0  0  0  0  0  0  0  0  0  0  0  0
    3.8330    1.0520   -0.8370 C   0  0  0  0  0  0  0  0  0  0  0  0
    3.5950    1.1260    0.5300 C   0  0  0  0  0  0  0  0  0  0  0  0
    2.5430    0.4210    1.0540 C   0  0  0  0  0  0  0  0  0  0  0  0
    1.7100   -0.3640    0.2650 C   0  0  0  0  0  0  0  0  0  0  0  0
    0.6610   -1.0670    0.9030 N   0  0  0  0  0  0  0  0  0  0  0  0
   -0.4050   -1.6800    0.1700 C   0  0  0  0  0  0  0  0  0  0  0  0
   -1.3310   -0.6580   -0.4990 C   0  0  2  0  0  0  0  0  0  0  0  0
   -1.8930    0.1460    0.4850 O   0  0  0  0  0  0  0  0  0  0  0  0
   -1.8010    1.5100    0.6230 C   0  0  0  0  0  0  0  0  0  0  0  0
   -2.4500    2.1390    1.6980 C   0  0  0  0  0  0  0  0  0  0  0  0
   -2.3740    3.4950    1.8580 C   0  0  0  0  0  0  0  0  0  0  0  0
   -1.6700    4.2760    0.9850 C   0  0  0  0  0  0  0  0  0  0  0  0
   -1.6010    5.7670    1.1820 C   0  0  0  0  0  0  0  0  0  0  0  0
   -2.3290    6.0970    2.3040 O   0  0  0  0  0  0  0  0  0  0  0  0
   -1.0380    3.6810   -0.0590 C   0  0  0  0  0  0  0  0  0  0  0  0
   -1.1020    2.3100   -0.2400 C   0  0  0  0  0  0  0  0  0  0  0  0
   -2.4060   -1.4890   -1.1990 C   0  0  1  0  0  0  0  0  0  0  0  0
   -3.1050   -2.3490   -0.2960 N   0  0  0  0  0  0  0  0  0  0  0  0
   -3.0360   -3.7690   -0.4380 C   0  0  0  0  0  0  0  0  0  0  0  0
   -2.3400   -4.2180   -1.3860 O   0  0  0  0  0  0  0  0  0  0  0  0
   -3.7480   -4.6770    0.4820 C   0  0  1  0  0  0  0  0  0  0  0  0
   -3.2990   -4.5050    1.9230 C   0  0  0  0  0  0  0  0  0  0  0  0
   -5.2450   -4.4310    0.4220 C   0  0  0  0  0  0  0  0  0  0  0  0
   -3.3350   -0.6320   -1.9640 C   0  0  0  0  0  0  0  0  0  0  0  0
   -4.5680   -0.7470   -1.7480 O   0  0  0  0  0  0  0  0  0  0  0  0
   -2.9160    0.2830   -2.8980 O   0  0  0  0  0  0  0  0  0  0  0  0
    1.9620   -0.4210   -1.0660 C   0  0  0  0  0  0  0  0  0  0  0  0
    3.0240    0.2840   -1.6360 C   0  0  0  0  0  0  0  0  0  0  0  0
  1  2  1  0
  2  3  1  0
  3  4  1  0
  4  5  1  0
  4  6  1  0
  6  7  2  0
  6 33  1  0
  7  8  1  0
  8  9  2  0
  9 10  1  0
  9 32  1  0
 10 11  1  0
 12 11  1  1
 12 13  1  0
 12 22  1  0
 13 14  1  0
 14 15  2  0
 14 21  1  0
 15 16  1  0
 16 17  2  0
 17 18  1  0
 17 20  1  0
 18 19  1  0
 20 21  2  0
 22 23  1  1
 22 29  1  0
 23 24  1  0
 24 25  2  0
 24 26  1  0
 26 27  1  1
 26 28  1  0
 29 30  2  0
 29 31  1  0
 32 33  2  0
M  END
