
     RDKit          3D

 22 23  0  0  0  0  0  0  0  0999 V2000
    2.1130   -0.0420    1.7220 O   0  0  0  0  0  0  0  0  0  0  0  0
    2.4440    0.8200    0.8620 N   0  0  0  0  0  0  0  0  0  0  0  0
    2.0010    2.0960    1.0570 O   0  0  0  0  0  0  0  0  0  0  0  0
    3.2510    0.4670   -0.2690 C   0  0  1  0  0  0  0  0  0  0  0  0
    2.5660    0.7300   -1.5860 C   0  0  0  0  0  0  0  0  0  0  0  0
    1.2950   -0.0390   -1.7250 C   0  0  0  0  0  0  0  0  0  0  0  0
    0.3850    0.2910   -0.7170 O   0  0  0  0  0  0  0  0  0  0  0  0
   -0.7930   -0.4060   -0.8250 C   0  0  1  0  0  0  0  0  0  0  0  0
   -1.0840   -1.2180    0.4440 C   0  0  0  0  0  0  0  0  0  0  0  0
   -2.5430   -1.5040    0.2800 C   0  0  1  0  0  0  0  0  0  0  0  0
   -3.1320   -2.0110    1.4320 O   0  0  0  0  0  0  0  0  0  0  0  0
   -3.1180   -0.2030   -0.1620 C   0  0  1  0  0  0  0  0  0  0  0  0
   -4.3030   -0.5140   -1.0760 C   0  0  0  0  0  0  0  0  0  0  0  0
   -4.9060    0.6330   -1.5390 O   0  0  0  0  0  0  0  0  0  0  0  0
   -3.6480    0.6320    0.9800 C   0  0  0  0  0  0  0  0  0  0  0  0
   -2.6780    0.9490    1.9070 O   0  0  0  0  0  0  0  0  0  0  0  0
   -2.0140    0.4860   -0.8980 C   0  0  1  0  0  0  0  0  0  0  0  0
   -1.7170    1.6990   -0.2410 O   0  0  0  0  0  0  0  0  0  0  0  0
    4.6140    1.1270   -0.2310 C   0  0  0  0  0  0  0  0  0  0  0  0
    5.3280    0.2170    0.7520 C   0  0  0  0  0  0  0  0  0  0  0  0
    4.7970   -1.0350    0.6280 O   0  0  0  0  0  0  0  0  0  0  0  0
    3.6660   -0.9920   -0.1370 C   0  0  0  0  0  0  0  0  0  0  0  0
  1  2  2  0
  2  3  1  0
  2  4  1  0
  4  5  1  6
  4 19  1  0
  4 22  1  0
  5  6  1  0
  6  7  1  0
  8  7  1  1
  8  9  1  0
  8 17  1  0
  9 10  1  0
 10 11  1  1
 10 12  1  0
 12 13  1  6
 12 15  1  0
 12 17  1  0
 13 14  1  0
 15 16  1  0
 17 18  1  1
 19 20  1  0
 20 21  1  0
 21 22  1  0
M  CHG  2   2   1   3  -1
M  END
