
     RDKit          3D

 23 24  0  0  0  0  0  0  0  0999 V2000
   -4.5860    1.5160   -0.8580 C   0  0  0  0  0  0  0  0  0  0  0  0
   -3.8820    0.3510   -0.1940 C   0  0  1  0  0  0  0  0  0  0  0  0
   -2.3870    0.6030   -0.1950 C   0  0  2  0  0  0  0  0  0  0  0  0
   -1.9710    0.7370   -1.5190 O   0  0  0  0  0  0  0  0  0  0  0  0
   -1.6200   -0.5020    0.4440 C   0  0  0  0  0  0  0  0  0  0  0  0
   -0.2010   -0.2310    0.4190 N   0  0  0  0  0  0  0  0  0  0  0  0
    0.3860    0.8910    1.0520 C   0  0  0  0  0  0  0  0  0  0  0  0
   -0.3390    1.6920    1.6670 O   0  0  0  0  0  0  0  0  0  0  0  0
    1.8440    1.0940    0.9750 C   0  0  0  0  0  0  0  0  0  0  0  0
    2.4210    0.0470    0.2240 O   0  0  0  0  0  0  0  0  0  0  0  0
    3.8140    0.0790    0.0460 C   0  0  0  0  0  0  0  0  0  0  0  0
    4.3820    1.1820   -0.3980 C   0  0  0  0  0  0  0  0  0  0  0  0
    5.8340    1.2510   -0.5960 C   0  0  2  0  0  0  0  0  0  0  0  0
    6.0540    1.4530   -1.9750 O   0  0  0  0  0  0  0  0  0  0  0  0
    6.5060    0.0590   -0.2690 O   0  0  0  0  0  0  0  0  0  0  0  0
    5.8770   -1.0770    0.1940 C   0  0  0  0  0  0  0  0  0  0  0  0
    6.6310   -2.2060    0.4890 O   0  0  0  0  0  0  0  0  0  0  0  0
    4.5710   -1.1230    0.3660 C   0  0  0  0  0  0  0  0  0  0  0  0
    3.9840   -2.2790    0.8300 O   0  0  0  0  0  0  0  0  0  0  0  0
   -4.3920    0.2040    1.0720 O   0  0  0  0  0  0  0  0  0  0  0  0
   -4.8660   -1.0770    1.2070 C   0  0  0  0  0  0  0  0  0  0  0  0
   -5.1930   -1.4610   -0.2180 C   0  0  0  0  0  0  0  0  0  0  0  0
   -4.1980   -0.7870   -0.9240 O   0  0  0  0  0  0  0  0  0  0  0  0
  2  1  1  6
  2  3  1  0
  2 20  1  0
  2 23  1  0
  3  4  1  6
  3  5  1  0
  5  6  1  0
  6  7  1  0
  7  8  2  0
  7  9  1  0
  9 10  1  0
 10 11  1  0
 11 12  2  0
 11 18  1  0
 12 13  1  0
 13 14  1  6
 13 15  1  0
 15 16  1  0
 16 17  1  0
 16 18  2  0
 18 19  1  0
 20 21  1  0
 21 22  1  0
 22 23  1  0
M  CHG  1  14  -1
M  END
