
     RDKit          3D

 22 23  0  0  0  0  0  0  0  0999 V2000
   -3.2310    3.1790   -1.6390 C   0  0  0  0  0  0  0  0  0  0  0  0
   -2.0510    2.3980   -1.4290 O   0  0  0  0  0  0  0  0  0  0  0  0
   -2.2730    1.1080   -0.9030 C   0  0  0  0  0  0  0  0  0  0  0  0
   -3.1060    0.2670   -1.4710 C   0  0  0  0  0  0  0  0  0  0  0  0
   -3.3910   -1.0770   -0.9940 C   0  0  0  0  0  0  0  0  0  0  0  0
   -2.7710   -1.4860    0.0900 C   0  0  0  0  0  0  0  0  0  0  0  0
   -3.1730   -2.7990    0.3920 O   0  0  0  0  0  0  0  0  0  0  0  0
   -3.9740   -3.2760   -0.6490 C   0  0  0  0  0  0  0  0  0  0  0  0
   -4.2150   -2.1180   -1.4230 O   0  0  0  0  0  0  0  0  0  0  0  0
   -1.8200   -0.6600    0.8250 C   0  0  2  0  0  0  0  0  0  0  0  0
   -2.1820   -0.5750    2.2560 N   0  0  0  0  0  0  0  0  0  0  0  0
   -1.5520    0.6990    0.3160 C   0  0  2  0  0  0  0  0  0  0  0  0
   -1.8010    1.6550    1.3450 O   0  0  0  0  0  0  0  0  0  0  0  0
   -0.1010    0.8290   -0.0070 C   0  0  0  0  0  0  0  0  0  0  0  0
    0.5850    1.6640    0.6100 O   0  0  0  0  0  0  0  0  0  0  0  0
    0.5020    0.0470   -0.9720 O   0  0  0  0  0  0  0  0  0  0  0  0
    1.8600    0.1310   -1.3120 C   0  0  0  0  0  0  0  0  0  0  0  0
    2.7810   -0.1610   -0.1450 C   0  0  0  0  0  0  0  0  0  0  0  0
    4.0830   -0.0430   -0.6170 O   0  0  0  0  0  0  0  0  0  0  0  0
    5.0320   -0.2880    0.3590 C   0  0  0  0  0  0  0  0  0  0  0  0
    6.3970   -0.1210   -0.3110 C   0  0  0  0  0  0  0  0  0  0  0  0
    7.4300   -0.3440    0.5810 O   0  0  0  0  0  0  0  0  0  0  0  0
  1  2  1  0
  2  3  1  0
  3  4  2  0
  3 12  1  0
  4  5  1  0
  5  6  2  0
  5  9  1  0
  6  7  1  0
  6 10  1  0
  7  8  1  0
  8  9  1  0
 10 11  1  1
 10 12  1  0
 12 13  1  1
 12 14  1  0
 14 15  2  0
 14 16  1  0
 16 17  1  0
 17 18  1  0
 18 19  1  0
 19 20  1  0
 20 21  1  0
 21 22  1  0
M  CHG  1  11   1
M  END
