
     RDKit          3D

 22 22  0  0  0  0  0  0  0  0999 V2000
   -2.1290   -2.1380   -0.5660 N   0  0  0  0  0  0  0  0  0  0  0  0
   -1.9820   -1.4210   -1.8220 C   0  0  2  0  0  0  0  0  0  0  0  0
   -1.8550    0.0260   -1.6210 C   0  0  0  0  0  0  0  0  0  0  0  0
   -1.1610    0.5050   -0.6220 C   0  0  0  0  0  0  0  0  0  0  0  0
   -0.5270   -0.3480    0.2730 O   0  0  0  0  0  0  0  0  0  0  0  0
    0.7970   -0.7320   -0.0440 C   0  0  0  0  0  0  0  0  0  0  0  0
    1.3590   -1.6570    1.0150 C   0  0  2  0  0  0  0  0  0  0  0  0
    1.3930   -1.0110    2.3690 C   0  0  0  0  0  0  0  0  0  0  0  0
    2.5640   -0.2630    2.5700 O   0  0  0  0  0  0  0  0  0  0  0  0
    3.6580   -1.1110    2.5830 C   0  0  0  0  0  0  0  0  0  0  0  0
    3.3030   -2.3940    1.8500 C   0  0  0  0  0  0  0  0  0  0  0  0
    2.6600   -2.0150    0.6720 O   0  0  0  0  0  0  0  0  0  0  0  0
   -1.0210    1.9380   -0.4020 C   0  0  0  0  0  0  0  0  0  0  0  0
   -1.6460    2.8100   -1.2840 O   0  0  0  0  0  0  0  0  0  0  0  0
   -0.3220    2.4280    0.6030 C   0  0  0  0  0  0  0  0  0  0  0  0
   -0.2000    3.8610    0.7970 C   0  0  0  0  0  0  0  0  0  0  0  0
   -0.8320    4.7250   -0.0950 O   0  0  0  0  0  0  0  0  0  0  0  0
    0.4940    4.3710    1.7960 C   0  0  0  0  0  0  0  0  0  0  0  0
    0.5990    5.7310    1.9650 O   0  0  0  0  0  0  0  0  0  0  0  0
   -3.0730   -1.6850   -2.6420 O   0  0  0  0  0  0  0  0  0  0  0  0
   -2.7160   -2.3150   -3.8170 C   0  0  0  0  0  0  0  0  0  0  0  0
   -1.8420   -1.5900   -4.5920 O   0  0  0  0  0  0  0  0  0  0  0  0
  2  1  1  1
  2  3  1  0
  2 20  1  0
  3  4  2  3
  4  5  1  0
  4 13  1  0
  5  6  1  0
  7  6  1  6
  7  8  1  0
  7 12  1  0
  8  9  1  0
  9 10  1  0
 10 11  1  0
 11 12  1  0
 13 14  1  0
 13 15  2  3
 15 16  1  0
 16 17  1  0
 16 18  2  3
 18 19  1  0
 20 21  1  0
 21 22  1  0
M  END
