
     RDKit          3D

 22 22  0  0  0  0  0  0  0  0999 V2000
    4.9720   -2.0510    0.6740 C   0  0  0  0  0  0  0  0  0  0  0  0
    4.7510   -1.5410   -0.5800 O   0  0  0  0  0  0  0  0  0  0  0  0
    3.4390   -1.2100   -0.8660 C   0  0  0  0  0  0  0  0  0  0  0  0
    2.9740   -0.1750    0.0890 C   0  0  0  0  0  0  0  0  0  0  0  0
    1.6080    0.2100   -0.1700 O   0  0  0  0  0  0  0  0  0  0  0  0
    0.9880    1.1660    0.6150 C   0  0  0  0  0  0  0  0  0  0  0  0
    1.6680    1.6650    1.5400 O   0  0  0  0  0  0  0  0  0  0  0  0
   -0.3940    1.6110    0.4180 C   0  0  1  0  0  0  0  0  0  0  0  0
   -0.5860    2.1640   -0.9830 C   0  0  0  0  0  0  0  0  0  0  0  0
    0.3730    3.3500   -1.1470 C   0  0  0  0  0  0  0  0  0  0  0  0
    0.0520    4.3050   -0.1820 O   0  0  0  0  0  0  0  0  0  0  0  0
   -1.4440    0.6080    0.8080 C   0  0  1  0  0  0  0  0  0  0  0  0
   -2.7030    1.1820    0.5610 O   0  0  0  0  0  0  0  0  0  0  0  0
   -3.3580    0.9650   -0.6260 C   0  0  0  0  0  0  0  0  0  0  0  0
   -4.1910    1.7640   -1.1130 O   0  0  0  0  0  0  0  0  0  0  0  0
   -3.0710   -0.2790   -1.3760 C   0  0  0  0  0  0  0  0  0  0  0  0
   -2.5220   -1.2710   -0.3790 C   0  0  2  0  0  0  0  0  0  0  0  0
   -3.4690   -1.5560    0.6550 N   0  0  0  0  0  0  0  0  0  0  0  0
   -1.2410   -0.7580    0.2640 C   0  0  2  0  0  0  0  0  0  0  0  0
   -0.9160   -1.7910    1.3570 C   0  0  2  0  0  0  0  0  0  0  0  0
    0.2420   -1.4640    2.0450 O   0  0  0  0  0  0  0  0  0  0  0  0
   -0.8590   -3.0690    0.8060 O   0  0  0  0  0  0  0  0  0  0  0  0
  1  2  1  0
  2  3  1  0
  3  4  1  0
  4  5  1  0
  5  6  1  0
  6  7  2  0
  6  8  1  0
  8  9  1  6
  8 12  1  0
  9 10  1  0
 10 11  1  0
 12 13  1  6
 12 19  1  0
 13 14  1  0
 14 15  2  0
 14 16  1  0
 16 17  1  0
 17 18  1  1
 17 19  1  0
 19 20  1  1
 20 21  1  6
 20 22  1  0
M  CHG  2  18   1  21  -1
M  END
