
     RDKit          3D

 22 22  0  0  0  0  0  0  0  0999 V2000
   -2.4910    2.2210    1.0400 N   0  0  0  0  0  0  0  0  0  0  0  0
   -3.3200    1.4630    0.0740 C   0  0  1  0  0  0  0  0  0  0  0  0
   -2.4130    0.9610   -0.9660 C   0  0  0  0  0  0  0  0  0  0  0  0
   -1.6070    1.9130   -1.6600 O   0  0  0  0  0  0  0  0  0  0  0  0
   -2.2860   -0.2960   -1.3070 C   0  0  0  0  0  0  0  0  0  0  0  0
   -1.3780   -0.6310   -2.3210 O   0  0  0  0  0  0  0  0  0  0  0  0
   -0.5420   -1.7480   -2.0890 C   0  0  1  0  0  0  0  0  0  0  0  0
    0.2990   -1.9420   -3.1940 O   0  0  0  0  0  0  0  0  0  0  0  0
    0.3000   -1.4720   -0.8750 C   0  0  0  0  0  0  0  0  0  0  0  0
    0.1830   -0.3870   -0.2580 O   0  0  0  0  0  0  0  0  0  0  0  0
    1.2170   -2.3910   -0.4060 O   0  0  0  0  0  0  0  0  0  0  0  0
    2.0040   -2.1020    0.7520 C   0  0  0  0  0  0  0  0  0  0  0  0
    2.8330   -0.8770    0.5200 C   0  0  0  0  0  0  0  0  0  0  0  0
    2.8020   -0.2320   -0.5580 O   0  0  0  0  0  0  0  0  0  0  0  0
    3.6570   -0.4410    1.5200 O   0  0  0  0  0  0  0  0  0  0  0  0
    4.4890    0.6780    1.4640 C   0  0  0  0  0  0  0  0  0  0  0  0
    5.5160    0.5980    0.3580 C   0  0  0  0  0  0  0  0  0  0  0  0
    6.3330   -0.5060    0.5290 O   0  0  0  0  0  0  0  0  0  0  0  0
   -3.0650   -1.3180   -0.6540 C   0  0  0  0  0  0  0  0  0  0  0  0
   -3.9050   -0.9560    0.2920 C   0  0  0  0  0  0  0  0  0  0  0  0
   -4.1120    0.4260    0.7380 C   0  0  2  0  0  0  0  0  0  0  0  0
   -5.4890    0.6940    0.4680 O   0  0  0  0  0  0  0  0  0  0  0  0
  2  1  1  1
  2  3  1  0
  2 21  1  0
  3  4  1  0
  3  5  2  0
  5  6  1  0
  5 19  1  0
  6  7  1  0
  7  8  1  6
  7  9  1  0
  9 10  2  0
  9 11  1  0
 11 12  1  0
 12 13  1  0
 13 14  2  0
 13 15  1  0
 15 16  1  0
 16 17  1  0
 17 18  1  0
 19 20  2  0
 20 21  1  0
 21 22  1  6
M  CHG  2   1   1   8  -1
M  END
