
     RDKit          3D

 12 11  0  0  0  0  0  0  0  0999 V2000
   -0.1910    2.6530    0.1840 Cl  0  0  0  0  0  0  0  0  0  0  0  0
   -1.6350    1.8390    0.6980 C   0  0  0  0  0  0  0  0  0  0  0  0
   -1.7190    0.4020    0.4260 C   0  0  0  0  0  0  0  0  0  0  0  0
   -0.8800   -0.4020   -0.1400 C   0  0  0  0  0  0  0  0  0  0  0  0
    0.3310   -0.0400   -0.6280 O   0  0  0  0  0  0  0  0  0  0  0  0
    1.5280   -0.1770    0.0720 C   0  0  0  0  0  0  0  0  0  0  0  0
    2.7630    0.1940   -0.6520 C   0  0  0  0  0  0  0  0  0  0  0  0
    2.8800    1.8470   -1.2200 Cl  0  0  0  0  0  0  0  0  0  0  0  0
   -1.2780   -1.8550   -0.2710 C   0  0  2  0  0  0  0  0  0  0  0  0
   -0.2200   -2.9100    0.6410 Cl  0  0  0  0  0  0  0  0  0  0  0  0
   -1.2910   -2.3180   -2.0070 Cl  0  0  0  0  0  0  0  0  0  0  0  0
   -2.9470   -2.1000    0.3180 Cl  0  0  0  0  0  0  0  0  0  0  0  0
  1  2  1  0
  2  3  1  0
  3  4  2  3
  4  5  1  0
  4  9  1  0
  5  6  1  0
  6  7  1  0
  7  8  1  0
  9 10  1  1
  9 11  1  0
  9 12  1  0
M  END
