
     RDKit          3D

 25 25  0  0  0  0  0  0  0  0999 V2000
    3.9170   -1.8850    1.2580 C   0  0  0  0  0  0  0  0  0  0  0  0
    4.4980   -1.2040    0.3010 C   0  0  0  0  0  0  0  0  0  0  0  0
    5.7850   -1.5740   -0.0870 O   0  0  0  0  0  0  0  0  0  0  0  0
    3.8730   -0.0950   -0.3700 C   0  0  0  0  0  0  0  0  0  0  0  0
    4.4960    0.5650   -1.3110 C   0  0  0  0  0  0  0  0  0  0  0  0
    3.9010    1.7160   -2.0370 C   0  0  0  0  0  0  0  0  0  0  0  0
    2.5420    0.3410   -0.0350 N   0  0  0  0  0  0  0  0  0  0  0  0
    1.4200   -0.5170   -0.2750 C   0  0  0  0  0  0  0  0  0  0  0  0
    1.7370   -1.6380   -0.7990 O   0  0  0  0  0  0  0  0  0  0  0  0
    0.0560   -0.2180    0.0290 C   0  0  0  0  0  0  0  0  0  0  0  0
   -0.1760    0.9540    0.6660 C   0  0  0  0  0  0  0  0  0  0  0  0
   -1.5910    1.3990    1.0610 C   0  0  0  0  0  0  0  0  0  0  0  0
   -1.8000    2.7850    1.0030 C   0  0  0  0  0  0  0  0  0  0  0  0
   -2.8270    3.7820    1.2200 C   0  0  0  0  0  0  0  0  0  0  0  0
   -0.6560    3.4060    0.6110 O   0  0  0  0  0  0  0  0  0  0  0  0
   -2.4960    0.5240    1.4610 C   0  0  0  0  0  0  0  0  0  0  0  0
   -3.7540    1.0040    1.7910 N   0  0  0  0  0  0  0  0  0  0  0  0
   -4.8750    0.2380    2.2300 C   0  0  0  0  0  0  0  0  0  0  0  0
   -4.8410   -0.9810    2.3590 O   0  0  0  0  0  0  0  0  0  0  0  0
   -2.2220   -0.9520    1.6590 C   0  0  0  0  0  0  0  0  0  0  0  0
   -2.0730   -1.7050    0.3710 C   0  0  0  0  0  0  0  0  0  0  0  0
   -0.9110   -1.1880   -0.4480 C   0  0  0  0  0  0  0  0  0  0  0  0
   -0.8830   -1.5880   -1.6730 C   0  0  0  0  0  0  0  0  0  0  0  0
   -1.8920   -2.6100   -2.1410 C   0  0  0  0  0  0  0  0  0  0  0  0
   -0.0080   -1.0390   -2.7200 C   0  0  0  0  0  0  0  0  0  0  0  0
  1  2  2  0
  2  3  1  0
  2  4  1  0
  4  5  2  3
  4  7  1  0
  5  6  1  0
  7  8  1  0
  8  9  2  0
  8 10  1  0
 10 11  2  0
 10 22  1  0
 11 12  1  0
 12 13  1  0
 12 16  2  0
 13 14  1  0
 13 15  2  0
 16 17  1  0
 16 20  1  0
 17 18  1  0
 18 19  2  0
 20 21  1  0
 21 22  1  0
 22 23  2  3
 23 24  1  0
 23 25  1  0
M  END
