
     RDKit          3D

 12 11  0  0  0  0  0  0  0  0999 V2000
   -2.8950   -0.7620    0.2740 C   0  0  0  0  0  0  0  0  0  0  0  0
   -1.4230   -0.8510    0.3660 C   0  0  0  0  0  0  0  0  0  0  0  0
   -0.7860   -2.4670    0.6370 Cl  0  0  0  0  0  0  0  0  0  0  0  0
   -0.6020    0.1540    0.2620 C   0  0  0  0  0  0  0  0  0  0  0  0
   -0.9890    1.5690    0.0340 C   0  0  0  0  0  0  0  0  0  0  0  0
   -0.3820    2.5290    1.4280 Cl  0  0  0  0  0  0  0  0  0  0  0  0
    0.7570   -0.0820    0.3690 O   0  0  0  0  0  0  0  0  0  0  0  0
    1.6740   -0.0040   -0.6780 C   0  0  0  0  0  0  0  0  0  0  0  0
    3.0520   -0.3430   -0.1000 C   0  0  1  0  0  0  0  0  0  0  0  0
    3.4580    0.8290    1.1830 Cl  0  0  0  0  0  0  0  0  0  0  0  0
    3.0330   -1.9800    0.5820 Cl  0  0  0  0  0  0  0  0  0  0  0  0
    4.2890   -0.1780   -1.3670 Cl  0  0  0  0  0  0  0  0  0  0  0  0
  1  2  1  0
  2  3  1  0
  2  4  2  3
  4  5  1  0
  4  7  1  0
  5  6  1  0
  7  8  1  0
  8  9  1  0
  9 10  1  1
  9 11  1  0
  9 12  1  0
M  END
