
     RDKit          3D

 12 11  0  0  0  0  0  0  0  0999 V2000
   -2.2150   -0.5320   -0.9040 C   0  0  0  0  0  0  0  0  0  0  0  0
   -1.6270    0.4340   -0.2930 C   0  0  0  0  0  0  0  0  0  0  0  0
   -0.2080    0.4500    0.1400 C   0  0  0  0  0  0  0  0  0  0  0  0
    0.6280   -0.6860   -0.1210 C   0  0  0  0  0  0  0  0  0  0  0  0
    0.0910   -1.6820   -0.7310 O   0  0  0  0  0  0  0  0  0  0  0  0
    2.0390   -0.8400    0.2340 C   0  0  1  0  0  0  0  0  0  0  0  0
    2.5720   -2.4780   -0.3590 Cl  0  0  0  0  0  0  0  0  0  0  0  0
    3.0990    0.3320   -0.5540 Cl  0  0  0  0  0  0  0  0  0  0  0  0
    2.3040   -0.8120    1.9760 Cl  0  0  0  0  0  0  0  0  0  0  0  0
    0.1350    1.5620    0.7430 C   0  0  0  0  0  0  0  0  0  0  0  0
   -1.1070    2.8150    0.9350 Cl  0  0  0  0  0  0  0  0  0  0  0  0
    1.6840    1.9260    1.3710 Cl  0  0  0  0  0  0  0  0  0  0  0  0
  1  2  2  0
  2  3  1  0
  3  4  1  0
  3 10  2  3
  4  5  2  0
  4  6  1  0
  6  7  1  6
  6  8  1  0
  6  9  1  0
 10 11  1  0
 10 12  1  0
M  END
