
     RDKit          3D

 23 25  0  0  0  0  0  0  0  0999 V2000
    4.1530   -0.1940    1.7440 N   0  0  0  0  0  0  0  0  0  0  0  0
    3.8800   -0.3310    0.6210 C   0  0  0  0  0  0  0  0  0  0  0  0
    3.5120   -0.5080   -0.8060 C   0  0  2  0  0  0  0  0  0  0  0  0
    3.0180   -1.9130   -1.0000 C   0  0  0  0  0  0  0  0  0  0  0  0
    1.8790   -2.0940   -0.1390 N   0  0  0  0  0  0  0  0  0  0  0  0
    0.6420   -1.4310   -0.2330 C   0  0  0  0  0  0  0  0  0  0  0  0
    0.2380   -0.6890   -1.3210 C   0  0  0  0  0  0  0  0  0  0  0  0
   -0.9920   -0.0350   -1.3370 C   0  0  0  0  0  0  0  0  0  0  0  0
   -1.8510   -0.0960   -0.2880 C   0  0  0  0  0  0  0  0  0  0  0  0
   -3.1130    0.5660   -0.3430 N   0  0  0  0  0  0  0  0  0  0  0  0
   -3.7650    1.0430    0.8250 C   0  0  0  0  0  0  0  0  0  0  0  0
   -5.1480    1.1550    0.8300 C   0  0  0  0  0  0  0  0  0  0  0  0
   -5.7930    1.6340    1.9250 C   0  0  0  0  0  0  0  0  0  0  0  0
   -5.0840    2.0140    3.0400 C   0  0  0  0  0  0  0  0  0  0  0  0
   -3.7180    1.9090    3.0460 C   0  0  0  0  0  0  0  0  0  0  0  0
   -3.0260    1.4200    1.9340 C   0  0  0  0  0  0  0  0  0  0  0  0
   -1.4660   -0.8400    0.8210 C   0  0  0  0  0  0  0  0  0  0  0  0
   -0.2300   -1.4930    0.8300 C   0  0  0  0  0  0  0  0  0  0  0  0
    4.7160   -0.2240   -1.6360 C   0  0  0  0  0  0  0  0  0  0  0  0
    5.8680   -0.9350   -1.6050 N   0  0  0  0  0  0  0  0  0  0  0  0
    6.7300   -0.4000   -2.4700 N   0  0  0  0  0  0  0  0  0  0  0  0
    6.1420    0.6270   -3.0360 N   0  0  0  0  0  0  0  0  0  0  0  0
    4.9420    0.7370   -2.5430 N   0  0  0  0  0  0  0  0  0  0  0  0
  1  2  3  0
  3  2  1  1
  3  4  1  0
  3 19  1  0
  4  5  1  0
  5  6  1  0
  6  7  2  0
  6 18  1  0
  7  8  1  0
  8  9  2  0
  9 10  1  0
  9 17  1  0
 10 11  1  0
 11 12  2  0
 11 16  1  0
 12 13  1  0
 13 14  2  0
 14 15  1  0
 15 16  2  0
 17 18  2  0
 19 20  1  0
 19 23  2  0
 20 21  2  0
 21 22  1  0
 22 23  1  0
M  END
