
     RDKit          3D

 12 12  0  0  0  0  0  0  0  0999 V2000
   -4.1320    0.5630   -0.6040 Cl  0  0  0  0  0  0  0  0  0  0  0  0
   -2.4030    0.8270   -0.4530 C   0  0  0  0  0  0  0  0  0  0  0  0
   -1.8420    2.4760   -0.5080 Cl  0  0  0  0  0  0  0  0  0  0  0  0
   -1.6100   -0.2170   -0.2960 C   0  0  0  0  0  0  0  0  0  0  0  0
   -2.3380   -1.8090   -0.2420 Cl  0  0  0  0  0  0  0  0  0  0  0  0
   -0.1540   -0.0480   -0.1890 C   0  0  0  0  0  0  0  0  0  0  0  0
    0.7450   -1.1120   -0.3690 C   0  0  0  0  0  0  0  0  0  0  0  0
    2.0320   -0.6250   -0.2060 C   0  0  0  0  0  0  0  0  0  0  0  0
    3.5650   -1.4510   -0.2950 Cl  0  0  0  0  0  0  0  0  0  0  0  0
    1.8650    0.7170    0.0650 C   0  0  0  0  0  0  0  0  0  0  0  0
    3.1840    1.8440    0.3590 Cl  0  0  0  0  0  0  0  0  0  0  0  0
    0.5670    0.9810    0.0590 O   0  0  0  0  0  0  0  0  0  0  0  0
  1  2  1  0
  2  3  1  0
  2  4  2  3
  4  5  1  0
  4  6  1  0
  6  7  2  0
  6 12  1  0
  7  8  1  0
  8  9  1  0
  8 10  2  0
 10 11  1  0
 10 12  1  0
M  END
