
     RDKit          3D

 24 25  0  0  0  0  0  0  0  0999 V2000
   -2.4660    2.2320    1.3800 C   0  0  0  0  0  0  0  0  0  0  0  0
   -3.3310    1.2310    0.6700 C   0  0  0  0  0  0  0  0  0  0  0  0
   -4.3730    1.6000   -0.0260 C   0  0  0  0  0  0  0  0  0  0  0  0
   -5.2370    0.6550   -0.7300 C   0  0  1  0  0  0  0  0  0  0  0  0
   -5.3360    1.0090   -2.2180 C   0  0  0  0  0  0  0  0  0  0  0  0
   -4.9060   -0.7800   -0.6400 C   0  0  0  0  0  0  0  0  0  0  0  0
   -3.7150   -1.0810    0.1670 C   0  0  0  0  0  0  0  0  0  0  0  0
   -2.9810   -0.1720    0.7750 C   0  0  0  0  0  0  0  0  0  0  0  0
   -1.7950   -0.6040    1.5650 C   0  0  0  0  0  0  0  0  0  0  0  0
   -1.0610    0.2110    2.1630 O   0  0  0  0  0  0  0  0  0  0  0  0
   -1.4850   -1.9540    1.6470 O   0  0  0  0  0  0  0  0  0  0  0  0
   -0.3790   -2.4290    2.3680 C   0  0  0  0  0  0  0  0  0  0  0  0
    0.9340   -1.9580    1.8320 C   0  0  0  0  0  0  0  0  0  0  0  0
    1.9420   -2.2710    2.5140 O   0  0  0  0  0  0  0  0  0  0  0  0
    1.0820   -1.2210    0.6610 N   0  0  0  0  0  0  0  0  0  0  0  0
    2.2770   -0.7490    0.1080 C   0  0  0  0  0  0  0  0  0  0  0  0
    2.2180    0.0610   -1.0360 C   0  0  0  0  0  0  0  0  0  0  0  0
    3.3370    0.5680   -1.6540 C   0  0  0  0  0  0  0  0  0  0  0  0
    3.2120    1.4210   -2.8630 C   0  0  0  0  0  0  0  0  0  0  0  0
    4.5830    0.2770   -1.1390 C   0  0  0  0  0  0  0  0  0  0  0  0
    5.7580    0.7820   -1.7510 N   0  0  0  0  0  0  0  0  0  0  0  0
    4.7060   -0.5120   -0.0200 C   0  0  0  0  0  0  0  0  0  0  0  0
    6.0490   -0.8420    0.5560 C   0  0  0  0  0  0  0  0  0  0  0  0
    3.5410   -1.0010    0.5680 C   0  0  0  0  0  0  0  0  0  0  0  0
  1  2  1  0
  2  3  2  0
  2  8  1  0
  3  4  1  0
  4  5  1  6
  4  6  1  0
  6  7  1  0
  7  8  2  0
  8  9  1  0
  9 10  2  0
  9 11  1  0
 11 12  1  0
 12 13  1  0
 13 14  2  0
 13 15  1  0
 15 16  1  0
 16 17  2  0
 16 24  1  0
 17 18  1  0
 18 19  1  0
 18 20  2  0
 20 21  1  0
 20 22  1  0
 22 23  1  0
 22 24  2  0
M  END
