
     RDKit          3D

 19 21  0  0  0  0  0  0  0  0999 V2000
   -4.9380    1.2830   -0.0610 C   0  0  0  0  0  0  0  0  0  0  0  0
   -3.6010    1.0180    0.5980 C   0  0  1  0  0  0  0  0  0  0  0  0
   -3.0010    2.1040    1.1690 F   0  0  0  0  0  0  0  0  0  0  0  0
   -3.4120   -0.6200    1.4640 P   0  0  0  0  0  0  0  0  0  0  0  0
   -2.7560    0.0020   -0.1210 C   0  0  2  0  0  0  0  0  0  0  0  0
   -1.2750    0.3650   -0.1860 C   0  0  0  0  0  0  0  0  0  0  0  0
   -0.5750   -0.7610   -0.9390 C   0  0  2  0  0  0  0  0  0  0  0  0
   -0.7940   -1.9290   -0.2100 O   0  0  0  0  0  0  0  0  0  0  0  0
    1.2310   -0.3350   -1.0470 P   0  0  0  0  0  0  0  0  0  0  0  0
    1.9880   -1.5360   -2.0970 O   0  0  0  0  0  0  0  0  0  0  0  0
    1.9560   -2.6710   -1.4400 O   0  0  0  0  0  0  0  0  0  0  0  0
    3.0450   -2.8840   -0.6750 O   0  0  0  0  0  0  0  0  0  0  0  0
    3.5210   -2.1470    0.2760 C   0  0  0  0  0  0  0  0  0  0  0  0
    4.6970   -1.6450    1.3230 P   0  0  0  0  0  0  0  0  0  0  0  0
    4.1590   -0.3480    2.3480 O   0  0  0  0  0  0  0  0  0  0  0  0
    3.3530    0.4350    1.4760 C   0  0  1  0  0  0  0  0  0  0  0  0
    4.1810    0.8620    0.4520 O   0  0  0  0  0  0  0  0  0  0  0  0
    4.2710    2.1880    0.3560 N   0  0  0  0  0  0  0  0  0  0  0  0
    2.1070   -0.7960    0.9540 P   0  0  0  0  0  0  0  0  0  0  0  0
  2  1  1  6
  2  3  1  0
  2  4  1  0
  2  5  1  0
  4  5  1  0
  5  6  1  1
  6  7  1  0
  7  8  1  1
  7  9  1  0
  9 10  1  0
  9 19  1  0
 10 11  1  0
 11 12  1  0
 12 13  1  0
 13 14  2  0
 13 19  1  0
 14 15  1  0
 15 16  1  0
 16 17  1  6
 16 19  1  0
 17 18  1  0
M  END
