
     RDKit          3D

 11 11  0  0  0  0  0  0  0  0999 V2000
   -2.7390    0.6370    0.5750 C   0  0  0  0  0  0  0  0  0  0  0  0
   -1.8520   -0.1350   -0.0290 C   0  0  0  0  0  0  0  0  0  0  0  0
   -2.4210   -1.1620   -0.7800 O   0  0  0  0  0  0  0  0  0  0  0  0
   -1.8330   -2.0830   -1.4850 O   0  0  0  0  0  0  0  0  0  0  0  0
   -0.1080   -2.0310   -1.4980 P   0  0  0  0  0  0  0  0  0  0  0  0
    0.5670   -0.8170   -0.6100 C   0  0  0  0  0  0  0  0  0  0  0  0
    1.9850   -0.5900   -0.4830 C   0  0  0  0  0  0  0  0  0  0  0  0
    2.5780    0.5020    0.3170 C   0  0  0  0  0  0  0  0  0  0  0  0
    2.7990   -1.3650   -1.0870 O   0  0  0  0  0  0  0  0  0  0  0  0
   -0.4140    0.0680    0.0800 C   0  0  0  0  0  0  0  0  0  0  0  0
    0.0460    1.0350    0.7900 N   0  0  0  0  0  0  0  0  0  0  0  0
  1  2  2  0
  2  3  1  0
  2 10  1  0
  3  4  1  0
  4  5  1  0
  5  6  2  0
  6  7  1  0
  6 10  1  0
  7  8  1  0
  7  9  2  0
 10 11  2  0
M  END
