
     RDKit          3D

 13 12  0  0  0  0  0  0  0  0999 V2000
   -0.3840    1.8390   -1.4420 C   0  0  0  0  0  0  0  0  0  0  0  0
   -1.1780    1.5740   -0.4370 C   0  0  0  0  0  0  0  0  0  0  0  0
   -1.1070    0.3490    0.3300 C   0  0  0  0  0  0  0  0  0  0  0  0
   -1.9580    0.1860    1.3260 C   0  0  0  0  0  0  0  0  0  0  0  0
   -3.0170   -0.1200    2.0010 N   0  0  0  0  0  0  0  0  0  0  0  0
   -4.0950   -0.8280    1.2990 C   0  0  0  0  0  0  0  0  0  0  0  0
    0.0610   -1.0100    0.0350 P   0  0  0  0  0  0  0  0  0  0  0  0
    1.4410   -0.8610    1.0750 O   0  0  0  0  0  0  0  0  0  0  0  0
    0.4800   -1.2050   -1.6100 O   0  0  0  0  0  0  0  0  0  0  0  0
    1.7640   -1.3020   -1.8310 O   0  0  0  0  0  0  0  0  0  0  0  0
    2.4940   -1.3350   -0.7630 O   0  0  0  0  0  0  0  0  0  0  0  0
    3.7060   -0.6570   -1.0060 C   0  0  0  0  0  0  0  0  0  0  0  0
    3.4370    0.6600   -1.3450 O   0  0  0  0  0  0  0  0  0  0  0  0
  1  2  2  0
  2  3  1  0
  3  4  2  0
  3  7  1  0
  4  5  2  0
  5  6  1  0
  7  8  1  0
  7  9  1  0
  9 10  1  0
 10 11  1  0
 11 12  1  0
 12 13  1  0
M  END
