
     RDKit          3D

 13 12  0  0  0  0  0  0  0  0999 V2000
   -4.4050   -1.3800   -0.2200 C   0  0  0  0  0  0  0  0  0  0  0  0
   -3.0390   -1.5960    0.1830 N   0  0  0  0  0  0  0  0  0  0  0  0
   -1.8090   -1.2570   -0.8170 P   0  0  0  0  0  0  0  0  0  0  0  0
   -0.1130   -1.5680   -0.2070 C   0  0  0  0  0  0  0  0  0  0  0  0
    0.7500   -0.5900   -0.0120 C   0  0  0  0  0  0  0  0  0  0  0  0
    0.3390    0.7790   -0.2900 C   0  0  0  0  0  0  0  0  0  0  0  0
    1.1800    1.8080   -0.1080 C   0  0  0  0  0  0  0  0  0  0  0  0
    0.7280    3.1750   -0.4010 C   0  0  0  0  0  0  0  0  0  0  0  0
   -0.5890    3.1240   -0.8440 O   0  0  0  0  0  0  0  0  0  0  0  0
    2.0200   -0.8990    0.4520 O   0  0  0  0  0  0  0  0  0  0  0  0
    2.6290   -1.9830   -0.0840 O   0  0  0  0  0  0  0  0  0  0  0  0
    3.7100   -2.2990    0.5730 O   0  0  0  0  0  0  0  0  0  0  0  0
    4.6930   -1.5430    0.1010 O   0  0  0  0  0  0  0  0  0  0  0  0
  1  2  1  0
  2  3  2  3
  3  4  1  0
  4  5  2  3
  5  6  1  0
  5 10  1  0
  6  7  2  3
  7  8  1  0
  8  9  1  0
 10 11  1  0
 11 12  1  0
 12 13  1  0
M  END
