
     RDKit          3D

 13 13  0  0  0  0  0  0  0  0999 V2000
   -2.9300   -1.4030    1.7160 O   0  0  0  0  0  0  0  0  0  0  0  0
   -2.9700   -0.9980    0.3840 C   0  0  0  0  0  0  0  0  0  0  0  0
   -1.6560   -0.5730   -0.1060 C   0  0  0  0  0  0  0  0  0  0  0  0
   -1.4230    0.6760   -0.5740 C   0  0  0  0  0  0  0  0  0  0  0  0
   -2.4660    1.5890   -0.5910 O   0  0  0  0  0  0  0  0  0  0  0  0
   -1.7020    3.1460   -0.9010 P   0  0  0  0  0  0  0  0  0  0  0  0
   -0.1680    2.4810   -1.4970 O   0  0  0  0  0  0  0  0  0  0  0  0
   -0.1730    1.1810   -1.0730 C   0  0  0  0  0  0  0  0  0  0  0  0
    0.9270    0.4420   -1.1270 C   0  0  0  0  0  0  0  0  0  0  0  0
    2.0230   -0.2060   -0.9830 N   0  0  0  0  0  0  0  0  0  0  0  0
    2.6470   -0.0760    0.2340 O   0  0  0  0  0  0  0  0  0  0  0  0
    4.0090   -0.4570    0.3380 C   0  0  0  0  0  0  0  0  0  0  0  0
    4.1860   -1.8110    0.0170 O   0  0  0  0  0  0  0  0  0  0  0  0
  1  2  1  0
  2  3  1  0
  3  4  2  3
  4  5  1  0
  4  8  1  0
  5  6  1  0
  6  7  1  0
  7  8  1  0
  8  9  2  0
  9 10  2  0
 10 11  1  0
 11 12  1  0
 12 13  1  0
M  END
