
     RDKit          3D

 13 13  0  0  0  0  0  0  0  0999 V2000
    3.7010   -1.6990   -1.0860 O   0  0  0  0  0  0  0  0  0  0  0  0
    3.6660   -0.5490   -1.6940 O   0  0  0  0  0  0  0  0  0  0  0  0
    2.4300    0.4590   -1.0160 P   0  0  0  0  0  0  0  0  0  0  0  0
    1.3580   -0.5220    0.1570 C   0  0  0  0  0  0  0  0  0  0  0  0
   -0.0370   -0.3880   -0.2740 C   0  0  0  0  0  0  0  0  0  0  0  0
   -0.9450    0.1350    0.5270 C   0  0  0  0  0  0  0  0  0  0  0  0
   -0.6390    0.5810    1.8000 O   0  0  0  0  0  0  0  0  0  0  0  0
   -2.3470    0.2620    0.0760 C   0  0  0  0  0  0  0  0  0  0  0  0
   -3.4390    0.7210    0.6160 C   0  0  0  0  0  0  0  0  0  0  0  0
   -4.1870    0.4280   -0.5170 N   0  0  0  0  0  0  0  0  0  0  0  0
   -3.0360   -0.0840   -1.1580 C   0  0  0  0  0  0  0  0  0  0  0  0
    3.2170    1.7510   -0.1640 O   0  0  0  0  0  0  0  0  0  0  0  0
    3.4480    1.3620    1.0850 O   0  0  0  0  0  0  0  0  0  0  0  0
  1  2  1  0
  2  3  1  0
  3  4  1  0
  3 12  1  0
  4  5  1  0
  5  6  2  3
  6  7  1  0
  6  8  1  0
  8  9  2  0
  8 11  1  0
  9 10  1  0
 10 11  1  0
 12 13  1  0
M  END
