
     RDKit          3D

 21 23  0  0  0  0  0  0  0  0999 V2000
    1.8310   -0.9340    2.3970 C   0  0  0  0  0  0  0  0  0  0  0  0
    2.6920   -0.0130    1.5730 C   0  0  2  0  0  0  0  0  0  0  0  0
    4.0400   -0.1120    1.9210 O   0  0  0  0  0  0  0  0  0  0  0  0
    2.2730    1.3240    1.9680 N   0  0  0  0  0  0  0  0  0  0  0  0
    1.0090    1.5470    1.3410 C   0  0  0  0  0  0  0  0  0  0  0  0
   -0.1290    2.1390    1.6390 C   0  0  0  0  0  0  0  0  0  0  0  0
   -1.3370    2.2360    0.7860 C   0  0  0  0  0  0  0  0  0  0  0  0
   -1.6170    2.6990   -0.3810 C   0  0  0  0  0  0  0  0  0  0  0  0
   -2.8250    2.7840   -1.2190 C   0  0  0  0  0  0  0  0  0  0  0  0
   -3.5720    1.8220   -1.7330 C   0  0  0  0  0  0  0  0  0  0  0  0
   -3.2880    0.3760   -1.5350 C   0  0  0  0  0  0  0  0  0  0  0  0
   -4.0750   -0.7060   -1.2240 C   0  0  0  0  0  0  0  0  0  0  0  0
   -3.2520   -1.8120   -1.1740 C   0  0  0  0  0  0  0  0  0  0  0  0
   -1.9760   -1.3740   -1.4570 C   0  0  0  0  0  0  0  0  0  0  0  0
   -2.0770   -0.0960   -1.6550 O   0  0  0  0  0  0  0  0  0  0  0  0
   -0.6420   -2.0740   -1.5600 C   0  0  0  0  0  0  0  0  0  0  0  0
    0.0960   -2.0130   -0.4510 O   0  0  0  0  0  0  0  0  0  0  0  0
    1.4080   -2.2290   -0.4070 C   0  0  0  0  0  0  0  0  0  0  0  0
    2.4100   -1.2070   -0.6700 C   0  0  0  0  0  0  0  0  0  0  0  0
    2.4460    0.0450    0.1320 C   0  0  1  0  0  0  0  0  0  0  0  0
    1.1930    0.8720    0.0020 C   0  0  0  0  0  0  0  0  0  0  0  0
  2  1  1  1
  2  3  1  0
  2  4  1  0
  2 20  1  0
  4  5  1  0
  5  6  2  0
  5 21  1  0
  6  7  1  0
  7  8  2  0
  8  9  1  0
  9 10  2  0
 10 11  1  0
 11 12  2  0
 11 15  1  0
 12 13  1  0
 13 14  2  0
 14 15  1  0
 14 16  1  0
 16 17  1  0
 17 18  1  0
 18 19  1  0
 20 19  1  1
 20 21  1  0
M  END
