
     RDKit          3D

 21 24  0  0  0  0  0  0  0  0999 V2000
   -4.1970    0.0210   -0.9300 C   0  0  0  0  0  0  0  0  0  0  0  0
   -3.4200    0.2500    0.3110 C   0  0  0  0  0  0  0  0  0  0  0  0
   -1.9490    0.0240    0.2440 C   0  0  1  0  0  0  0  0  0  0  0  0
   -1.4140    0.3290    1.6540 C   0  0  0  0  0  0  0  0  0  0  0  0
   -0.7750   -0.9510    2.1510 C   0  0  0  0  0  0  0  0  0  0  0  0
   -0.3180   -1.5350    0.8150 C   0  0  1  0  0  0  0  0  0  0  0  0
   -1.6420   -1.4550    0.0660 C   0  0  0  0  0  0  0  0  0  0  0  0
    0.6310   -0.6030    0.1800 C   0  0  0  0  0  0  0  0  0  0  0  0
    0.2620    0.5200   -0.5200 C   0  0  0  0  0  0  0  0  0  0  0  0
    1.1740    1.3170   -1.0660 O   0  0  0  0  0  0  0  0  0  0  0  0
    2.4600    1.0840   -0.9700 C   0  0  0  0  0  0  0  0  0  0  0  0
    3.3490    1.9360   -1.5490 N   0  0  0  0  0  0  0  0  0  0  0  0
    4.6720    1.7250   -1.4680 C   0  0  0  0  0  0  0  0  0  0  0  0
    5.1780    0.6370   -0.7970 C   0  0  0  0  0  0  0  0  0  0  0  0
    4.2850   -0.2360   -0.2040 C   0  0  0  0  0  0  0  0  0  0  0  0
    4.6890   -1.3640    0.4980 O   0  0  0  0  0  0  0  0  0  0  0  0
    2.9260   -0.0120   -0.2900 C   0  0  0  0  0  0  0  0  0  0  0  0
    1.9980   -0.8550    0.2840 C   0  0  0  0  0  0  0  0  0  0  0  0
    2.3920   -1.8640    0.9110 O   0  0  0  0  0  0  0  0  0  0  0  0
   -1.1850    0.8760   -0.6880 C   0  0  1  0  0  0  0  0  0  0  0  0
   -1.5020    0.7930   -2.1280 C   0  0  0  0  0  0  0  0  0  0  0  0
  1  2  1  0
  3  2  1  1
  3  4  1  0
  3  7  1  0
  3 20  1  0
  4  5  1  0
  6  5  1  1
  6  7  1  0
  6  8  1  0
  8  9  2  0
  8 18  1  0
  9 10  1  0
  9 20  1  0
 10 11  1  0
 11 12  2  0
 11 17  1  0
 12 13  1  0
 13 14  2  0
 14 15  1  0
 15 16  1  0
 15 17  2  0
 17 18  1  0
 18 19  2  0
 20 21  1  6
M  END
