
     RDKit          3D

 20 23  0  0  0  0  0  0  0  0999 V2000
    6.6550   -0.1560    1.2860 C   0  0  0  0  0  0  0  0  0  0  0  0
    5.1720   -0.3480    1.4650 C   0  0  0  0  0  0  0  0  0  0  0  0
    4.4280    0.0160    0.1820 C   0  0  0  0  0  0  0  0  0  0  0  0
    2.9470   -0.1670    0.3370 C   0  0  0  0  0  0  0  0  0  0  0  0
    2.3000    0.2160   -0.9770 C   0  0  0  0  0  0  0  0  0  0  0  0
    0.8560    0.0680   -0.9200 N   0  0  0  0  0  0  0  0  0  0  0  0
   -0.0710    1.0840   -0.5170 C   0  0  0  0  0  0  0  0  0  0  0  0
    0.1750    2.2610   -0.1480 O   0  0  0  0  0  0  0  0  0  0  0  0
   -1.4270    0.5190   -0.6010 C   0  0  0  0  0  0  0  0  0  0  0  0
   -2.6860    0.5370   -0.2180 C   0  0  0  0  0  0  0  0  0  0  0  0
   -3.4350   -0.5160   -0.8900 C   0  0  0  0  0  0  0  0  0  0  0  0
   -4.7250   -0.4960   -0.9520 C   0  0  0  0  0  0  0  0  0  0  0  0
   -5.5280    0.5920   -0.3490 C   0  0  0  0  0  0  0  0  0  0  0  0
   -4.8380    1.3400    0.7360 C   0  0  1  0  0  0  0  0  0  0  0  0
   -4.1160    0.6780    1.8420 C   0  0  0  0  0  0  0  0  0  0  0  0
   -3.3790    1.4100    0.7200 C   0  0  1  0  0  0  0  0  0  0  0  0
   -2.4170   -1.4970   -1.4150 C   0  0  0  0  0  0  0  0  0  0  0  0
   -1.2630   -0.5790   -1.6110 C   0  0  2  0  0  0  0  0  0  0  0  0
    0.0570   -1.0930   -1.2420 C   0  0  0  0  0  0  0  0  0  0  0  0
    0.5110   -2.2670   -1.1810 O   0  0  0  0  0  0  0  0  0  0  0  0
  1  2  1  0
  2  3  1  0
  3  4  1  0
  4  5  1  0
  5  6  1  0
  6  7  1  0
  6 19  1  0
  7  8  2  0
  7  9  1  0
  9 10  2  0
  9 18  1  0
 10 11  1  0
 10 16  1  0
 11 12  2  0
 11 17  1  0
 12 13  1  0
 14 13  1  6
 14 15  1  0
 14 16  1  0
 16 15  1  1
 18 17  1  1
 18 19  1  0
 19 20  2  0
M  END
