
     RDKit          3D

 23 26  0  0  0  0  0  0  0  0999 V2000
   -5.7700   -1.2780    0.5660 C   0  0  0  0  0  0  0  0  0  0  0  0
   -5.3930    0.1430    0.2360 C   0  0  2  0  0  0  0  0  0  0  0  0
   -5.7330    0.4810   -1.2220 C   0  0  0  0  0  0  0  0  0  0  0  0
   -3.9120    0.3310    0.3520 C   0  0  0  0  0  0  0  0  0  0  0  0
   -3.2540    1.2120    1.1120 N   0  0  0  0  0  0  0  0  0  0  0  0
   -1.9160    1.0620    0.9310 C   0  0  0  0  0  0  0  0  0  0  0  0
   -0.8380    1.7350    1.4920 C   0  0  0  0  0  0  0  0  0  0  0  0
    0.4480    1.3440    1.1000 C   0  0  0  0  0  0  0  0  0  0  0  0
    0.6410    0.3300    0.1910 C   0  0  0  0  0  0  0  0  0  0  0  0
    1.9900   -0.0500   -0.1940 C   0  0  0  0  0  0  0  0  0  0  0  0
    3.0540    0.5840    0.3320 N   0  0  0  0  0  0  0  0  0  0  0  0
    4.3260    0.2980    0.0340 C   0  0  0  0  0  0  0  0  0  0  0  0
    5.3900    0.9290    0.5580 N   0  0  0  0  0  0  0  0  0  0  0  0
    6.6460    0.5960    0.2170 C   0  0  0  0  0  0  0  0  0  0  0  0
    6.8960   -0.4170   -0.6910 C   0  0  0  0  0  0  0  0  0  0  0  0
    5.8740   -1.1180   -1.2790 C   0  0  0  0  0  0  0  0  0  0  0  0
    4.5850   -0.7690   -0.9240 C   0  0  0  0  0  0  0  0  0  0  0  0
    3.4750   -1.4070   -1.4510 C   0  0  0  0  0  0  0  0  0  0  0  0
    3.6890   -2.3310   -2.2810 O   0  0  0  0  0  0  0  0  0  0  0  0
    2.2440   -1.0330   -1.0760 N   0  0  0  0  0  0  0  0  0  0  0  0
   -0.4490   -0.3180   -0.3460 C   0  0  0  0  0  0  0  0  0  0  0  0
   -1.7530    0.0360    0.0140 C   0  0  0  0  0  0  0  0  0  0  0  0
   -2.9870   -0.3800   -0.3130 N   0  0  0  0  0  0  0  0  0  0  0  0
  2  1  1  6
  2  3  1  0
  2  4  1  0
  4  5  2  0
  4 23  1  0
  5  6  1  0
  6  7  2  0
  6 22  1  0
  7  8  1  0
  8  9  2  0
  9 10  1  0
  9 21  1  0
 10 11  1  0
 10 20  2  0
 11 12  2  0
 12 13  1  0
 12 17  1  0
 13 14  1  0
 14 15  2  0
 15 16  1  0
 16 17  2  0
 17 18  1  0
 18 19  2  0
 18 20  1  0
 21 22  2  0
 22 23  1  0
M  END
