
     RDKit          3D

 21 25  0  0  0  0  0  0  0  0999 V2000
   -3.3650   -1.8130    0.9150 C   0  0  0  0  0  0  0  0  0  0  0  0
   -2.4390   -0.7810    0.7970 N   0  0  0  0  0  0  0  0  0  0  0  0
   -1.8500   -0.2600    1.9660 C   0  0  0  0  0  0  0  0  0  0  0  0
   -0.4390    0.1610    1.8910 C   0  0  0  0  0  0  0  0  0  0  0  0
    0.0540    0.6460    0.5850 C   0  0  2  0  0  0  0  0  0  0  0  0
    1.0280   -0.2740   -0.0580 C   0  0  0  0  0  0  0  0  0  0  0  0
    0.6230   -1.4230   -0.6310 C   0  0  0  0  0  0  0  0  0  0  0  0
    1.5840   -2.2230   -1.1770 C   0  0  0  0  0  0  0  0  0  0  0  0
    2.9270   -1.8210   -1.1210 C   0  0  0  0  0  0  0  0  0  0  0  0
    3.2700   -0.6110   -0.5100 C   0  0  0  0  0  0  0  0  0  0  0  0
    4.5890   -0.2050   -0.4490 O   0  0  0  0  0  0  0  0  0  0  0  0
    2.2990    0.2000    0.0430 C   0  0  0  0  0  0  0  0  0  0  0  0
    2.2430    1.4420    0.7110 O   0  0  0  0  0  0  0  0  0  0  0  0
    0.8690    1.8900    0.6650 C   0  0  1  0  0  0  0  0  0  0  0  0
    0.6010    2.8510   -0.4410 C   0  0  1  0  0  0  0  0  0  0  0  0
    1.6870    3.7170   -0.6200 O   0  0  0  0  0  0  0  0  0  0  0  0
    0.1900    2.2480   -1.7310 C   0  0  0  0  0  0  0  0  0  0  0  0
   -0.6390    1.2160   -1.7110 C   0  0  0  0  0  0  0  0  0  0  0  0
   -1.0920    0.7400   -0.3980 C   0  0  1  0  0  0  0  0  0  0  0  0
   -1.7320   -0.6310   -0.4210 C   0  0  1  0  0  0  0  0  0  0  0  0
   -0.8270   -1.7810   -0.7060 C   0  0  0  0  0  0  0  0  0  0  0  0
  1  2  1  0
  2  3  1  0
  2 20  1  0
  3  4  1  0
  5  4  1  1
  5  6  1  0
  5 14  1  0
  5 19  1  0
  6  7  2  0
  6 12  1  0
  7  8  1  0
  7 21  1  0
  8  9  2  0
  9 10  1  0
 10 11  1  0
 10 12  2  0
 12 13  1  0
 14 13  1  6
 14 15  1  0
 15 16  1  6
 15 17  1  0
 17 18  2  0
 19 18  1  6
 19 20  1  0
 20 21  1  1
M  END
