
     RDKit          3D

 21 23  0  0  0  0  0  0  0  0999 V2000
    0.9100    0.1610    1.0760 O   0  0  0  0  0  0  0  0  0  0  0  0
    0.6180   -0.2430   -0.0790 C   0  0  0  0  0  0  0  0  0  0  0  0
    1.6330   -0.3020   -1.0070 O   0  0  0  0  0  0  0  0  0  0  0  0
    2.9740    0.0610   -0.7480 C   0  0  0  0  0  0  0  0  0  0  0  0
    3.5950   -0.7680    0.3530 C   0  0  0  0  0  0  0  0  0  0  0  0
    4.9900   -0.2920    0.5250 C   0  0  0  0  0  0  0  0  0  0  0  0
    5.5200    0.2150    1.6190 C   0  0  0  0  0  0  0  0  0  0  0  0
    6.9460    0.5800    1.4090 C   0  0  0  0  0  0  0  0  0  0  0  0
    7.1700    0.2040    0.0100 C   0  0  0  0  0  0  0  0  0  0  0  0
    6.0550   -0.2940   -0.4970 C   0  0  0  0  0  0  0  0  0  0  0  0
   -0.7910   -0.6330   -0.3810 C   0  0  1  0  0  0  0  0  0  0  0  0
   -1.6460   -0.4570    0.8240 C   0  0  0  0  0  0  0  0  0  0  0  0
   -2.9860   -0.1260    0.6330 N   0  0  0  0  0  0  0  0  0  0  0  0
   -3.9520   -1.1640    0.8260 C   0  0  0  0  0  0  0  0  0  0  0  0
   -5.2800   -0.8210    0.1840 C   0  0  0  0  0  0  0  0  0  0  0  0
   -5.6040    0.6430    0.2670 C   0  0  0  0  0  0  0  0  0  0  0  0
   -4.4670    1.5230   -0.2120 C   0  0  0  0  0  0  0  0  0  0  0  0
   -3.3260    0.6200   -0.5370 C   0  0  1  0  0  0  0  0  0  0  0  0
   -2.1130    1.3000   -1.0650 C   0  0  0  0  0  0  0  0  0  0  0  0
   -1.2220    0.1570   -1.5760 C   0  0  2  0  0  0  0  0  0  0  0  0
   -2.0460   -0.6260   -2.3840 O   0  0  0  0  0  0  0  0  0  0  0  0
  1  2  2  0
  2  3  1  0
 11  2  1  1
  3  4  1  0
  4  5  1  0
  5  6  1  0
  6  7  2  0
  6 10  1  0
  7  8  1  0
  8  9  1  0
  9 10  2  0
 11 12  1  0
 11 20  1  0
 12 13  1  0
 13 14  1  0
 13 18  1  0
 14 15  1  0
 15 16  1  0
 16 17  1  0
 18 17  1  1
 18 19  1  0
 19 20  1  0
 20 21  1  6
M  END
