
     RDKit          3D

 21 22  0  0  0  0  0  0  0  0999 V2000
    5.3130   -1.5640   -1.5200 C   0  0  0  0  0  0  0  0  0  0  0  0
    4.4890   -0.4200   -1.6010 O   0  0  0  0  0  0  0  0  0  0  0  0
    3.1960   -0.4200   -1.0960 C   0  0  0  0  0  0  0  0  0  0  0  0
    2.8020   -1.4850   -0.5670 O   0  0  0  0  0  0  0  0  0  0  0  0
    2.3210    0.7400   -1.1630 C   0  0  0  0  0  0  0  0  0  0  0  0
    0.9310    0.5110   -0.5330 C   0  0  1  0  0  0  0  0  0  0  0  0
    0.2070   -0.5790   -1.1930 C   0  0  0  0  0  0  0  0  0  0  0  0
   -0.3870   -1.6950   -0.4870 C   0  0  1  0  0  0  0  0  0  0  0  0
   -0.0220   -1.8190    0.9320 C   0  0  0  0  0  0  0  0  0  0  0  0
    0.2450   -0.5570    1.6440 C   0  0  0  0  0  0  0  0  0  0  0  0
    1.0080    0.4930    0.9500 C   0  0  2  0  0  0  0  0  0  0  0  0
    1.0410    1.7880    1.6590 C   0  0  0  0  0  0  0  0  0  0  0  0
   -0.1280    2.6040    1.8980 C   0  0  0  0  0  0  0  0  0  0  0  0
   -1.3990    2.5820    1.6650 C   0  0  0  0  0  0  0  0  0  0  0  0
   -2.2310    1.5660    0.9640 C   0  0  0  0  0  0  0  0  0  0  0  0
   -2.3700    1.2030   -0.2490 C   0  0  0  0  0  0  0  0  0  0  0  0
   -3.1940    0.1780   -0.9770 C   0  0  2  0  0  0  0  0  0  0  0  0
   -4.6680    0.4460   -0.9040 C   0  0  0  0  0  0  0  0  0  0  0  0
   -2.9280   -1.2120   -0.5590 C   0  0  0  0  0  0  0  0  0  0  0  0
   -3.9130   -1.7660    0.0530 O   0  0  0  0  0  0  0  0  0  0  0  0
   -1.7840   -1.9770   -0.7330 N   0  0  0  0  0  0  0  0  0  0  0  0
  1  2  1  0
  2  3  1  0
  3  4  2  0
  3  5  1  0
  6  5  1  6
  6  7  1  0
  6 11  1  0
  7  8  1  0
  8  9  1  1
  8 21  1  0
  9 10  1  0
 11 10  1  1
 11 12  1  0
 12 13  1  0
 13 14  2  0
 14 15  1  0
 15 16  2  0
 16 17  1  0
 17 18  1  1
 17 19  1  0
 19 20  2  0
 19 21  1  0
M  END
