
     RDKit          3D

 26 29  0  0  0  0  0  0  0  0999 V2000
    4.1710    0.4230    3.3850 C   0  0  0  0  0  0  0  0  0  0  0  0
    4.1500    0.3060    1.9120 C   0  0  0  0  0  0  0  0  0  0  0  0
    3.0230   -0.1010    1.3040 C   0  0  0  0  0  0  0  0  0  0  0  0
    2.8810   -0.2540   -0.1510 C   0  0  1  0  0  0  0  0  0  0  0  0
    1.6810    0.5060   -0.6210 C   0  0  0  0  0  0  0  0  0  0  0  0
    0.4510   -0.0170    0.0130 C   0  0  0  0  0  0  0  0  0  0  0  0
    0.4100   -1.0380    0.7400 O   0  0  0  0  0  0  0  0  0  0  0  0
   -0.8220    0.6400   -0.1760 N   0  0  0  0  0  0  0  0  0  0  0  0
   -1.9980    0.1330    0.4370 N   0  0  0  0  0  0  0  0  0  0  0  0
   -3.1730    0.0400   -0.3380 C   0  0  0  0  0  0  0  0  0  0  0  0
   -3.1230    0.4360   -1.6770 C   0  0  0  0  0  0  0  0  0  0  0  0
   -4.2360    0.3710   -2.4670 C   0  0  0  0  0  0  0  0  0  0  0  0
   -5.3930   -0.0860   -1.9240 C   0  0  0  0  0  0  0  0  0  0  0  0
   -5.4720   -0.4830   -0.6110 C   0  0  0  0  0  0  0  0  0  0  0  0
   -6.6560   -0.9460   -0.0780 C   0  0  0  0  0  0  0  0  0  0  0  0
   -6.7550   -1.3480    1.2290 C   0  0  0  0  0  0  0  0  0  0  0  0
   -5.6290   -1.2790    2.0140 C   0  0  0  0  0  0  0  0  0  0  0  0
   -4.4130   -0.8120    1.5000 C   0  0  0  0  0  0  0  0  0  0  0  0
   -4.3540   -0.4200    0.1890 C   0  0  0  0  0  0  0  0  0  0  0  0
    4.0770    0.0700   -0.8700 N   0  0  0  0  0  0  0  0  0  0  0  0
    4.1200   -0.0240   -2.2840 C   0  0  0  0  0  0  0  0  0  0  0  0
    5.1790    0.2600   -2.9680 N   0  0  0  0  0  0  0  0  0  0  0  0
    6.3930    0.6910   -2.3570 C   0  0  0  0  0  0  0  0  0  0  0  0
    6.4190    0.8000   -1.0420 C   0  0  0  0  0  0  0  0  0  0  0  0
    5.2580    0.4960   -0.1990 C   0  0  0  0  0  0  0  0  0  0  0  0
    5.2680    0.5990    1.0910 N   0  0  0  0  0  0  0  0  0  0  0  0
  1  2  1  0
  2  3  2  0
  2 26  1  0
  3  4  1  0
  4  5  1  6
  4 20  1  0
  5  6  1  0
  6  7  2  0
  6  8  1  0
  8  9  1  0
  9 10  1  0
 10 11  2  0
 10 19  1  0
 11 12  1  0
 12 13  2  0
 13 14  1  0
 14 15  2  0
 14 19  1  0
 15 16  1  0
 16 17  2  0
 17 18  1  0
 18 19  2  0
 20 21  1  0
 20 25  1  0
 21 22  2  0
 22 23  1  0
 23 24  2  0
 24 25  1  0
 25 26  2  0
M  END
