
     RDKit          3D

 26 29  0  0  0  0  0  0  0  0999 V2000
    8.4750    1.3070    0.3990 C   0  0  0  0  0  0  0  0  0  0  0  0
    7.1330    1.2480   -0.3040 C   0  0  0  0  0  0  0  0  0  0  0  0
    6.5490   -0.1440   -0.1640 C   0  0  0  0  0  0  0  0  0  0  0  0
    5.2410   -0.2660   -0.8280 C   0  0  0  0  0  0  0  0  0  0  0  0
    5.1980   -0.5310   -2.0550 O   0  0  0  0  0  0  0  0  0  0  0  0
    3.9890   -0.0890   -0.1080 C   0  0  0  0  0  0  0  0  0  0  0  0
    3.9140    0.2130    1.2340 C   0  0  0  0  0  0  0  0  0  0  0  0
    2.7050    0.3740    1.8970 C   0  0  0  0  0  0  0  0  0  0  0  0
    1.5120    0.2340    1.2280 C   0  0  0  0  0  0  0  0  0  0  0  0
    0.2130    0.3290    1.6000 N   0  0  0  0  0  0  0  0  0  0  0  0
   -0.5830    0.1030    0.5630 C   0  0  0  0  0  0  0  0  0  0  0  0
   -1.9940    0.1130    0.5420 N   0  0  0  0  0  0  0  0  0  0  0  0
   -2.7440   -0.1550   -0.6920 C   0  0  0  0  0  0  0  0  0  0  0  0
   -4.1950   -0.0830   -0.4490 C   0  0  0  0  0  0  0  0  0  0  0  0
   -4.9460    1.0290   -0.5160 N   0  0  0  0  0  0  0  0  0  0  0  0
   -6.2330    0.7180   -0.2360 C   0  0  0  0  0  0  0  0  0  0  0  0
   -7.3670    1.4770   -0.1740 C   0  0  0  0  0  0  0  0  0  0  0  0
   -8.5440    0.8470    0.1440 C   0  0  0  0  0  0  0  0  0  0  0  0
   -8.5750   -0.4720    0.3830 N   0  0  0  0  0  0  0  0  0  0  0  0
   -7.4570   -1.2160    0.3210 C   0  0  0  0  0  0  0  0  0  0  0  0
   -6.2530   -0.6380    0.0080 C   0  0  0  0  0  0  0  0  0  0  0  0
   -4.9830   -1.1210   -0.1270 N   0  0  0  0  0  0  0  0  0  0  0  0
   -4.6130   -2.5030    0.0530 C   0  0  0  0  0  0  0  0  0  0  0  0
    0.2260   -0.1470   -0.5150 C   0  0  0  0  0  0  0  0  0  0  0  0
    1.5560   -0.0710   -0.1250 C   0  0  0  0  0  0  0  0  0  0  0  0
    2.7610   -0.2270   -0.7700 C   0  0  0  0  0  0  0  0  0  0  0  0
  1  2  1  0
  2  3  1  0
  3  4  1  0
  4  5  2  0
  4  6  1  0
  6  7  2  0
  6 26  1  0
  7  8  1  0
  8  9  2  0
  9 10  1  0
  9 25  1  0
 10 11  1  0
 11 12  1  0
 11 24  2  0
 12 13  1  0
 13 14  1  0
 14 15  2  0
 14 22  1  0
 15 16  1  0
 16 17  2  0
 16 21  1  0
 17 18  1  0
 18 19  2  0
 19 20  1  0
 20 21  2  0
 21 22  1  0
 22 23  1  0
 24 25  1  0
 25 26  2  0
M  END
