
     RDKit          3D

 26 29  0  0  0  0  0  0  0  0999 V2000
    9.7590   -0.0850    0.5890 C   0  0  0  0  0  0  0  0  0  0  0  0
    8.3110   -0.1180    0.2560 C   0  0  0  0  0  0  0  0  0  0  0  0
    7.8760   -0.7090   -0.9230 C   0  0  0  0  0  0  0  0  0  0  0  0
    6.5370   -0.7430   -1.2380 C   0  0  0  0  0  0  0  0  0  0  0  0
    5.6120   -0.1820   -0.3710 C   0  0  0  0  0  0  0  0  0  0  0  0
    4.2530   -0.0650   -0.4090 N   0  0  0  0  0  0  0  0  0  0  0  0
    3.7930    0.5660    0.6750 C   0  0  0  0  0  0  0  0  0  0  0  0
    2.4670    0.9060    1.0570 N   0  0  0  0  0  0  0  0  0  0  0  0
    1.3290    0.6090    0.2930 C   0  0  0  0  0  0  0  0  0  0  0  0
    1.4550    0.0190   -0.7800 O   0  0  0  0  0  0  0  0  0  0  0  0
   -0.0060    1.0050    0.7770 C   0  0  0  0  0  0  0  0  0  0  0  0
   -1.0690    0.4740   -0.1290 C   0  0  0  0  0  0  0  0  0  0  0  0
   -1.1410   -1.0050   -0.2190 C   0  0  0  0  0  0  0  0  0  0  0  0
   -2.2770   -1.3850   -1.1780 C   0  0  0  0  0  0  0  0  0  0  0  0
   -3.5790   -0.8710   -0.6970 C   0  0  0  0  0  0  0  0  0  0  0  0
   -4.1560    0.3340   -0.9890 C   0  0  0  0  0  0  0  0  0  0  0  0
   -5.3610    0.3870   -0.3260 C   0  0  0  0  0  0  0  0  0  0  0  0
   -5.5030   -0.7650    0.3490 N   0  0  0  0  0  0  0  0  0  0  0  0
   -4.4410   -1.5090    0.1250 N   0  0  0  0  0  0  0  0  0  0  0  0
   -6.7070   -0.9460    1.1310 C   0  0  0  0  0  0  0  0  0  0  0  0
   -7.8650   -0.6260    0.1810 C   0  0  0  0  0  0  0  0  0  0  0  0
   -7.8160    0.8290   -0.1470 C   0  0  0  0  0  0  0  0  0  0  0  0
   -6.4330    1.3800   -0.2240 C   0  0  0  0  0  0  0  0  0  0  0  0
    4.9010    0.8540    1.4170 N   0  0  0  0  0  0  0  0  0  0  0  0
    6.0070    0.4090    0.8000 C   0  0  0  0  0  0  0  0  0  0  0  0
    7.3590    0.4220    1.0790 C   0  0  0  0  0  0  0  0  0  0  0  0
  1  2  1  0
  2  3  2  0
  2 26  1  0
  3  4  1  0
  4  5  2  0
  5  6  1  0
  5 25  1  0
  6  7  1  0
  7  8  1  0
  7 24  2  0
  8  9  1  0
  9 10  2  0
  9 11  1  0
 11 12  1  0
 12 13  1  0
 13 14  1  0
 14 15  1  0
 15 16  1  0
 15 19  2  0
 16 17  2  0
 17 18  1  0
 17 23  1  0
 18 19  1  0
 18 20  1  0
 20 21  1  0
 21 22  1  0
 22 23  1  0
 24 25  1  0
 25 26  2  0
M  END
