
     RDKit          3D

 26 29  0  0  0  0  0  0  0  0999 V2000
   -3.5730    2.9370    2.5700 C   0  0  0  0  0  0  0  0  0  0  0  0
   -3.9430    2.2140    1.3210 C   0  0  0  0  0  0  0  0  0  0  0  0
   -5.1200    2.5820    0.7040 C   0  0  0  0  0  0  0  0  0  0  0  0
   -5.5470    1.9720   -0.4550 C   0  0  0  0  0  0  0  0  0  0  0  0
   -4.7530    0.9690   -0.9890 C   0  0  0  0  0  0  0  0  0  0  0  0
   -3.5780    0.6080   -0.3660 C   0  0  0  0  0  0  0  0  0  0  0  0
   -3.1910    1.2380    0.7830 N   0  0  0  0  0  0  0  0  0  0  0  0
   -2.7560   -0.4280   -0.9130 N   0  0  0  0  0  0  0  0  0  0  0  0
   -1.8680   -1.1650   -0.0380 C   0  0  0  0  0  0  0  0  0  0  0  0
   -0.4340   -0.8590   -0.3430 C   0  0  0  0  0  0  0  0  0  0  0  0
    0.4570   -1.6210    0.5610 C   0  0  0  0  0  0  0  0  0  0  0  0
   -0.0190   -2.4830    1.5380 C   0  0  0  0  0  0  0  0  0  0  0  0
    0.8420   -3.1770    2.3620 C   0  0  0  0  0  0  0  0  0  0  0  0
    2.2090   -3.0330    2.2360 C   0  0  0  0  0  0  0  0  0  0  0  0
    2.6630   -2.1680    1.2540 C   0  0  0  0  0  0  0  0  0  0  0  0
    4.0440   -1.9840    1.0780 N   0  0  0  0  0  0  0  0  0  0  0  0
    4.5310   -1.0860    0.0670 C   0  0  0  0  0  0  0  0  0  0  0  0
    4.1030    0.3350    0.2400 C   0  0  0  0  0  0  0  0  0  0  0  0
    4.7020    1.1380   -0.9040 C   0  0  2  0  0  0  0  0  0  0  0  0
    6.1810    1.1420   -1.0080 C   0  0  0  0  0  0  0  0  0  0  0  0
    5.4490    2.3870   -0.5710 C   0  0  0  0  0  0  0  0  0  0  0  0
    1.7940   -1.5090    0.4710 N   0  0  0  0  0  0  0  0  0  0  0  0
   -2.8460   -0.6960   -2.3130 C   0  0  0  0  0  0  0  0  0  0  0  0
   -4.2800   -0.7360   -2.7050 C   0  0  0  0  0  0  0  0  0  0  0  0
   -4.7630   -1.6140   -3.4530 O   0  0  0  0  0  0  0  0  0  0  0  0
   -5.1230    0.2900   -2.1860 N   0  0  0  0  0  0  0  0  0  0  0  0
  1  2  1  0
  2  3  2  0
  2  7  1  0
  3  4  1  0
  4  5  2  0
  5  6  1  0
  5 26  1  0
  6  7  2  0
  6  8  1  0
  8  9  1  0
  8 23  1  0
  9 10  1  0
 10 11  1  0
 11 12  2  0
 11 22  1  0
 12 13  1  0
 13 14  2  0
 14 15  1  0
 15 16  1  0
 15 22  2  0
 16 17  1  0
 17 18  1  0
 19 18  1  1
 19 20  1  0
 19 21  1  0
 20 21  1  0
 23 24  1  0
 24 25  2  0
 24 26  1  0
M  END
