
     RDKit          3D

 26 29  0  0  0  0  0  0  0  0999 V2000
   -8.1990    0.8930   -0.5620 C   0  0  0  0  0  0  0  0  0  0  0  0
   -6.7830    0.4720   -0.4660 C   0  0  0  0  0  0  0  0  0  0  0  0
   -5.8730    0.4410   -1.4770 C   0  0  0  0  0  0  0  0  0  0  0  0
   -4.5090    0.1260   -1.2380 C   0  0  0  0  0  0  0  0  0  0  0  0
   -4.0390   -0.1540    0.0050 C   0  0  0  0  0  0  0  0  0  0  0  0
   -2.6730   -0.1180    0.4980 C   0  0  0  0  0  0  0  0  0  0  0  0
   -1.6000   -0.8530    0.2900 N   0  0  0  0  0  0  0  0  0  0  0  0
   -0.9400   -1.2150   -0.8320 C   0  0  0  0  0  0  0  0  0  0  0  0
    0.5220   -1.6380   -0.5310 C   0  0  0  0  0  0  0  0  0  0  0  0
    1.1590   -0.5110    0.0720 N   0  0  0  0  0  0  0  0  0  0  0  0
    2.4620   -0.1250   -0.2460 C   0  0  0  0  0  0  0  0  0  0  0  0
    3.0070    1.1060    0.0330 C   0  0  0  0  0  0  0  0  0  0  0  0
    4.3930    1.3290   -0.1360 C   0  0  0  0  0  0  0  0  0  0  0  0
    5.1700    0.2900   -0.5860 C   0  0  0  0  0  0  0  0  0  0  0  0
    6.6400    0.2310   -0.4460 C   0  0  0  0  0  0  0  0  0  0  0  0
    7.6280    1.0600   -0.7570 C   0  0  0  0  0  0  0  0  0  0  0  0
    8.7510    0.5730   -0.1570 C   0  0  0  0  0  0  0  0  0  0  0  0
    8.4450   -0.5760    0.5350 N   0  0  0  0  0  0  0  0  0  0  0  0
    7.1670   -0.8140    0.3830 C   0  0  0  0  0  0  0  0  0  0  0  0
    4.5600   -0.8750   -0.8440 N   0  0  0  0  0  0  0  0  0  0  0  0
    3.2920   -1.1230   -0.7020 N   0  0  0  0  0  0  0  0  0  0  0  0
    0.4330    0.1980    1.1270 C   0  0  0  0  0  0  0  0  0  0  0  0
   -0.7340   -0.6550    1.5050 C   0  0  0  0  0  0  0  0  0  0  0  0
   -5.0170   -0.1300    1.0540 C   0  0  0  0  0  0  0  0  0  0  0  0
   -4.5220   -0.4490    2.3000 O   0  0  0  0  0  0  0  0  0  0  0  0
   -6.3060    0.1660    0.8170 C   0  0  0  0  0  0  0  0  0  0  0  0
  1  2  1  0
  2  3  2  0
  2 26  1  0
  3  4  1  0
  4  5  2  0
  5  6  1  0
  5 24  1  0
  6  7  1  0
  7  8  1  0
  7 23  1  0
  8  9  1  0
  9 10  1  0
 10 11  1  0
 10 22  1  0
 11 12  2  0
 11 21  1  0
 12 13  1  0
 13 14  2  0
 14 15  1  0
 14 20  1  0
 15 16  1  0
 15 19  2  0
 16 17  2  0
 17 18  1  0
 18 19  1  0
 20 21  2  0
 22 23  1  0
 24 25  1  0
 24 26  2  0
M  END
