
     RDKit          3D

 20 20  0  0  0  0  0  0  0  0999 V2000
    5.7300    1.8470   -2.1400 C   0  0  0  0  0  0  0  0  0  0  0  0
    4.9290    0.7110   -1.8200 O   0  0  0  0  0  0  0  0  0  0  0  0
    4.0030    0.8510   -0.8010 C   0  0  0  0  0  0  0  0  0  0  0  0
    3.9020    1.9620   -0.2000 O   0  0  0  0  0  0  0  0  0  0  0  0
    3.1390   -0.2090   -0.3810 N   0  0  0  0  0  0  0  0  0  0  0  0
    2.1820   -0.0520    0.6780 C   0  0  2  0  0  0  0  0  0  0  0  0
    2.4120   -1.0040    1.8120 C   0  0  0  0  0  0  0  0  0  0  0  0
    2.0180   -2.4170    1.5520 C   0  0  1  0  0  0  0  0  0  0  0  0
    2.0800   -3.1090    2.7620 O   0  0  0  0  0  0  0  0  0  0  0  0
    0.5830   -2.4780    1.0630 C   0  0  0  0  0  0  0  0  0  0  0  0
    0.5100   -1.6400   -0.1990 C   0  0  0  0  0  0  0  0  0  0  0  0
    0.7460   -0.2090    0.1220 C   0  0  1  0  0  0  0  0  0  0  0  0
   -0.0890    0.3850    1.0350 O   0  0  0  0  0  0  0  0  0  0  0  0
   -0.6700    1.5680    0.6150 C   0  0  0  0  0  0  0  0  0  0  0  0
   -1.6440    1.4190   -0.4850 C   0  0  0  0  0  0  0  0  0  0  0  0
   -2.8860    0.6580   -0.2010 C   0  0  1  0  0  0  0  0  0  0  0  0
   -2.7560   -0.7460    0.2350 C   0  0  0  0  0  0  0  0  0  0  0  0
   -3.6730    1.4580    0.8430 C   0  0  0  0  0  0  0  0  0  0  0  0
   -3.7040    0.6560   -1.4920 C   0  0  0  0  0  0  0  0  0  0  0  0
   -4.9480   -0.0740   -1.3060 N   0  0  0  0  0  0  0  0  0  0  0  0
  1  2  1  0
  2  3  1  0
  3  4  2  0
  3  5  1  0
  6  5  1  6
  6  7  1  0
  6 12  1  0
  7  8  1  0
  8  9  1  1
  8 10  1  0
 10 11  1  0
 11 12  1  0
 12 13  1  1
 13 14  1  0
 14 15  1  0
 15 16  1  0
 16 17  1  1
 16 18  1  0
 16 19  1  0
 19 20  1  0
M  CHG  1  20   1
M  END
