
     RDKit          3D

 20 20  0  0  0  0  0  0  0  0999 V2000
   -3.4020    3.1860   -0.1380 C   0  0  0  0  0  0  0  0  0  0  0  0
   -3.1600    2.6510    1.0760 O   0  0  0  0  0  0  0  0  0  0  0  0
   -2.1510    1.7840    1.2820 C   0  0  0  0  0  0  0  0  0  0  0  0
   -2.2770    0.5280    0.4600 C   0  0  2  0  0  0  0  0  0  0  0  0
   -3.6910   -0.0030    0.7460 C   0  0  0  0  0  0  0  0  0  0  0  0
   -1.2510   -0.4930    0.8750 C   0  0  0  0  0  0  0  0  0  0  0  0
   -0.2110   -0.7930   -0.1170 C   0  0  1  0  0  0  0  0  0  0  0  0
    0.9850    0.1250   -0.0020 C   0  0  0  0  0  0  0  0  0  0  0  0
    1.7020    0.0860    1.2950 C   0  0  0  0  0  0  0  0  0  0  0  0
    2.7880    0.9850    1.2640 O   0  0  0  0  0  0  0  0  0  0  0  0
    3.8680    0.9000    0.4090 C   0  0  0  0  0  0  0  0  0  0  0  0
    3.8960   -0.0570   -0.4080 O   0  0  0  0  0  0  0  0  0  0  0  0
    4.9810    1.8960    0.4310 C   0  0  0  0  0  0  0  0  0  0  0  0
    5.9400    1.5120   -0.5840 N   0  0  0  0  0  0  0  0  0  0  0  0
    0.2840   -2.2240    0.1430 C   0  0  1  0  0  0  0  0  0  0  0  0
   -0.8300   -3.2170    0.0120 C   0  0  0  0  0  0  0  0  0  0  0  0
    1.3160   -2.5940   -0.8060 N   0  0  0  0  0  0  0  0  0  0  0  0
   -0.6510   -0.7360   -1.5550 C   0  0  0  0  0  0  0  0  0  0  0  0
   -2.0440   -0.1870   -1.7240 C   0  0  0  0  0  0  0  0  0  0  0  0
   -2.2270    0.8550   -0.8630 O   0  0  0  0  0  0  0  0  0  0  0  0
  1  2  1  0
  2  3  1  0
  3  4  1  0
  4  5  1  6
  4  6  1  0
  4 20  1  0
  6  7  1  0
  7  8  1  6
  7 15  1  0
  7 18  1  0
  8  9  1  0
  9 10  1  0
 10 11  1  0
 11 12  2  0
 11 13  1  0
 13 14  1  0
 15 16  1  6
 15 17  1  0
 18 19  1  0
 19 20  1  0
M  CHG  1  17   1
M  END
