
     RDKit          3D

 21 24  0  0  0  0  0  0  0  0999 V2000
    0.8620   -1.1450   -3.2220 O   0  0  0  0  0  0  0  0  0  0  0  0
    1.5270   -0.8220   -2.2340 C   0  0  0  0  0  0  0  0  0  0  0  0
    2.9490   -0.8240   -2.0780 N   0  0  0  0  0  0  0  0  0  0  0  0
    3.2670   -0.3790   -0.7810 C   0  0  0  0  0  0  0  0  0  0  0  0
    4.5510   -0.2390   -0.2410 C   0  0  0  0  0  0  0  0  0  0  0  0
    4.6930    0.2090    1.0420 C   0  0  0  0  0  0  0  0  0  0  0  0
    3.5730    0.5130    1.7750 C   0  0  0  0  0  0  0  0  0  0  0  0
    2.2980    0.3630    1.2050 C   0  0  0  0  0  0  0  0  0  0  0  0
    2.1330   -0.0790   -0.0630 C   0  0  0  0  0  0  0  0  0  0  0  0
    1.0140   -0.3390   -0.9260 C   0  0  0  0  0  0  0  0  0  0  0  0
   -0.2820   -0.1970   -0.6710 C   0  0  0  0  0  0  0  0  0  0  0  0
   -1.3370   -0.4890   -1.6160 N   0  0  0  0  0  0  0  0  0  0  0  0
   -2.5650   -0.2110   -0.9710 C   0  0  0  0  0  0  0  0  0  0  0  0
   -3.8750   -0.3140   -1.4090 C   0  0  0  0  0  0  0  0  0  0  0  0
   -4.9250    0.0250   -0.5690 C   0  0  0  0  0  0  0  0  0  0  0  0
   -4.6850    0.4680    0.7100 C   0  0  0  0  0  0  0  0  0  0  0  0
   -3.3730    0.5730    1.1540 C   0  0  0  0  0  0  0  0  0  0  0  0
   -2.3500    0.2300    0.3010 C   0  0  0  0  0  0  0  0  0  0  0  0
   -0.8780    0.2620    0.5590 C   0  0  0  0  0  0  0  0  0  0  0  0
   -0.3760    0.6270    1.6490 N   0  0  0  0  0  0  0  0  0  0  0  0
   -1.0620    1.0410    2.7400 O   0  0  0  0  0  0  0  0  0  0  0  0
  1  2  2  0
  2  3  1  0
  2 10  1  0
  3  4  1  0
  4  5  2  0
  4  9  1  0
  5  6  1  0
  6  7  2  0
  7  8  1  0
  8  9  2  0
  9 10  1  0
 10 11  2  3
 11 12  1  0
 11 19  1  0
 12 13  1  0
 13 14  2  0
 13 18  1  0
 14 15  1  0
 15 16  2  0
 16 17  1  0
 17 18  2  0
 18 19  1  0
 19 20  2  3
 20 21  1  0
M  END
