
     RDKit          3D

 20 20  0  0  0  0  0  0  0  0999 V2000
   -2.5660   -2.0590   -0.1080 C   0  0  0  0  0  0  0  0  0  0  0  0
   -3.2180   -0.7520    0.1100 C   0  0  2  0  0  0  0  0  0  0  0  0
   -4.2700   -0.9940    1.2380 C   0  0  0  0  0  0  0  0  0  0  0  0
   -4.0970   -0.4200   -1.0750 C   0  0  0  0  0  0  0  0  0  0  0  0
   -2.4090    0.3750    0.5640 C   0  0  2  0  0  0  0  0  0  0  0  0
   -3.2510    1.4980    0.6680 O   0  0  0  0  0  0  0  0  0  0  0  0
   -2.8490    2.5740   -0.0620 C   0  0  0  0  0  0  0  0  0  0  0  0
   -2.3510    2.2830   -1.4560 C   0  0  0  0  0  0  0  0  0  0  0  0
   -1.2960    1.2180   -1.5120 C   0  0  0  0  0  0  0  0  0  0  0  0
   -1.1410    0.7330   -0.0630 C   0  0  2  0  0  0  0  0  0  0  0  0
   -0.0610   -0.1440    0.0690 O   0  0  0  0  0  0  0  0  0  0  0  0
    1.1240    0.1960    0.7130 C   0  0  0  0  0  0  0  0  0  0  0  0
    1.1540    1.3690    1.1840 O   0  0  0  0  0  0  0  0  0  0  0  0
    2.2800   -0.7350    0.8470 C   0  0  0  0  0  0  0  0  0  0  0  0
    3.3040   -0.5090   -0.2390 C   0  0  1  0  0  0  0  0  0  0  0  0
    3.8070    0.8370   -0.2050 N   0  0  0  0  0  0  0  0  0  0  0  0
    4.4930   -1.4170    0.0720 C   0  0  0  0  0  0  0  0  0  0  0  0
    5.5350   -1.2290   -0.9580 C   0  0  0  0  0  0  0  0  0  0  0  0
    6.8510   -0.8660   -0.6010 N   0  0  0  0  0  0  0  0  0  0  0  0
    5.2410   -1.3940   -2.1590 O   0  0  0  0  0  0  0  0  0  0  0  0
  2  1  1  6
  2  3  1  0
  2  4  1  0
  2  5  1  0
  5  6  1  6
  5 10  1  0
  6  7  1  0
  7  8  1  0
  8  9  1  0
  9 10  1  0
 10 11  1  6
 11 12  1  0
 12 13  2  0
 12 14  1  0
 14 15  1  0
 15 16  1  1
 15 17  1  0
 17 18  1  0
 18 19  1  0
 18 20  2  0
M  CHG  1  16   1
M  END
