
     RDKit          3D

 20 20  0  0  0  0  0  0  0  0999 V2000
   -4.6480    2.4610    0.3300 C   0  0  0  0  0  0  0  0  0  0  0  0
   -4.0810    1.1430   -0.0510 C   0  0  0  0  0  0  0  0  0  0  0  0
   -2.7660    0.9700   -0.0920 C   0  0  0  0  0  0  0  0  0  0  0  0
   -1.9110    2.1560    0.2660 C   0  0  0  0  0  0  0  0  0  0  0  0
   -1.1020    1.8910    1.3590 O   0  0  0  0  0  0  0  0  0  0  0  0
   -2.1460   -0.3110   -0.4930 C   0  0  1  0  0  0  0  0  0  0  0  0
   -0.7680   -0.4410    0.0660 C   0  0  0  0  0  0  0  0  0  0  0  0
   -0.4750   -1.3450    0.9000 O   0  0  0  0  0  0  0  0  0  0  0  0
    0.2620    0.4120   -0.2900 O   0  0  0  0  0  0  0  0  0  0  0  0
    1.5590    0.3240    0.2070 C   0  0  0  0  0  0  0  0  0  0  0  0
    2.2850   -0.9480   -0.0680 C   0  0  0  0  0  0  0  0  0  0  0  0
    3.6650   -0.8860    0.5280 C   0  0  0  0  0  0  0  0  0  0  0  0
    4.5020    0.2360   -0.0230 C   0  0  1  0  0  0  0  0  0  0  0  0
    5.8620    0.1550    0.6850 C   0  0  0  0  0  0  0  0  0  0  0  0
    4.7480    0.0110   -1.4150 N   0  0  0  0  0  0  0  0  0  0  0  0
   -3.0070   -1.4480   -0.0640 C   0  0  2  0  0  0  0  0  0  0  0  0
   -2.4780   -2.7910   -0.5160 C   0  0  0  0  0  0  0  0  0  0  0  0
   -4.3560   -1.2220   -0.6880 C   0  0  0  0  0  0  0  0  0  0  0  0
   -4.9430   -2.0210   -1.4250 O   0  0  0  0  0  0  0  0  0  0  0  0
   -4.9440    0.0520   -0.3500 N   0  0  0  0  0  0  0  0  0  0  0  0
  1  2  1  0
  2  3  2  0
  2 20  1  0
  3  4  1  0
  3  6  1  0
  4  5  1  0
  6  7  1  1
  6 16  1  0
  7  8  2  0
  7  9  1  0
  9 10  1  0
 10 11  1  0
 11 12  1  0
 12 13  1  0
 13 14  1  1
 13 15  1  0
 16 17  1  6
 16 18  1  0
 18 19  2  0
 18 20  1  0
M  CHG  1  15   1
M  END
