
     RDKit          3D

 19 19  0  0  0  0  0  0  0  0999 V2000
    5.5700    0.3390    0.9110 C   0  0  0  0  0  0  0  0  0  0  0  0
    5.1670   -0.2030   -0.4300 C   0  0  0  0  0  0  0  0  0  0  0  0
    3.6670   -0.2810   -0.6090 C   0  0  0  0  0  0  0  0  0  0  0  0
    3.0350   -1.1830    0.4310 C   0  0  0  0  0  0  0  0  0  0  0  0
    1.5550   -1.2840    0.2840 C   0  0  2  0  0  0  0  0  0  0  0  0
    1.1430   -1.8420   -1.0610 C   0  0  0  0  0  0  0  0  0  0  0  0
    0.8900   -0.7940   -1.9440 O   0  0  0  0  0  0  0  0  0  0  0  0
   -0.3050   -0.1250   -1.5840 C   0  0  0  0  0  0  0  0  0  0  0  0
   -0.4000   -0.1560   -0.1080 C   0  0  2  0  0  0  0  0  0  0  0  0
   -1.1840    0.9650    0.5210 C   0  0  2  0  0  0  0  0  0  0  0  0
   -1.1290    0.6960    1.9690 N   0  0  0  0  0  0  0  0  0  0  0  0
   -2.6290    0.9960    0.1360 C   0  0  2  0  0  0  0  0  0  0  0  0
   -2.8800    1.5030   -1.2640 C   0  0  0  0  0  0  0  0  0  0  0  0
   -3.2960    2.0220    1.0680 C   0  0  0  0  0  0  0  0  0  0  0  0
   -3.2820   -0.2270    0.4060 O   0  0  0  0  0  0  0  0  0  0  0  0
   -4.6030   -0.4620    0.1490 C   0  0  0  0  0  0  0  0  0  0  0  0
   -5.2700   -1.6870    0.4160 N   0  0  0  0  0  0  0  0  0  0  0  0
   -5.2860    0.4740   -0.3640 O   0  0  0  0  0  0  0  0  0  0  0  0
    0.9050   -0.0620    0.4310 O   0  0  0  0  0  0  0  0  0  0  0  0
  1  2  1  0
  2  3  1  0
  3  4  1  0
  5  4  1  6
  5  6  1  0
  5 19  1  0
  6  7  1  0
  7  8  1  0
  9  8  1  6
  9 10  1  0
  9 19  1  0
 10 11  1  1
 10 12  1  0
 12 13  1  6
 12 14  1  0
 12 15  1  0
 15 16  1  0
 16 17  1  0
 16 18  2  0
M  CHG  1  11   1
M  END
