
     RDKit          3D

 20 20  0  0  0  0  0  0  0  0999 V2000
    7.2300   -0.0530   -0.3010 C   0  0  0  0  0  0  0  0  0  0  0  0
    5.9600    0.0550    0.3600 O   0  0  0  0  0  0  0  0  0  0  0  0
    4.8820    0.6630   -0.2960 C   0  0  0  0  0  0  0  0  0  0  0  0
    5.0940    1.0910   -1.4660 O   0  0  0  0  0  0  0  0  0  0  0  0
    3.5470    0.7920    0.3620 C   0  0  0  0  0  0  0  0  0  0  0  0
    2.4610    0.1700   -0.4600 C   0  0  0  0  0  0  0  0  0  0  0  0
    1.1370    0.3210    0.2290 C   0  0  1  0  0  0  0  0  0  0  0  0
    0.8960    1.8320    0.3730 C   0  0  0  0  0  0  0  0  0  0  0  0
    0.0130   -0.3040   -0.5570 C   0  0  0  0  0  0  0  0  0  0  0  0
   -0.6140   -1.3770    0.3530 C   0  0  1  0  0  0  0  0  0  0  0  0
   -1.6630   -1.9530   -0.2490 O   0  0  0  0  0  0  0  0  0  0  0  0
   -2.9150   -1.8530    0.2510 C   0  0  0  0  0  0  0  0  0  0  0  0
   -3.5060   -0.4790    0.3420 C   0  0  1  0  0  0  0  0  0  0  0  0
   -2.8230    0.4680    1.1360 N   0  0  0  0  0  0  0  0  0  0  0  0
   -3.7820    0.0140   -1.0530 C   0  0  0  0  0  0  0  0  0  0  0  0
   -4.3810    1.3980   -1.0780 C   0  0  0  0  0  0  0  0  0  0  0  0
   -5.6330    1.4530   -0.3810 N   0  0  0  0  0  0  0  0  0  0  0  0
    0.5250   -2.3030    0.7080 C   0  0  0  0  0  0  0  0  0  0  0  0
    1.4560   -1.5130    1.6070 C   0  0  0  0  0  0  0  0  0  0  0  0
    1.2420   -0.1570    1.5320 O   0  0  0  0  0  0  0  0  0  0  0  0
  1  2  1  0
  2  3  1  0
  3  4  2  0
  3  5  1  0
  5  6  1  0
  6  7  1  0
  7  8  1  1
  7  9  1  0
  7 20  1  0
  9 10  1  0
 10 11  1  6
 10 18  1  0
 11 12  1  0
 12 13  1  0
 13 14  1  6
 13 15  1  0
 15 16  1  0
 16 17  1  0
 18 19  1  0
 19 20  1  0
M  CHG  1  17   1
M  END
