
     RDKit          3D

 20 20  0  0  0  0  0  0  0  0999 V2000
    5.6740    1.4240    0.6430 C   0  0  0  0  0  0  0  0  0  0  0  0
    5.5010    0.0230    1.1940 C   0  0  0  0  0  0  0  0  0  0  0  0
    4.5460   -0.7900    0.3920 C   0  0  0  0  0  0  0  0  0  0  0  0
    3.1300   -0.1610    0.3250 C   0  0  1  0  0  0  0  0  0  0  0  0
    2.5850   -0.0480    1.6870 C   0  0  0  0  0  0  0  0  0  0  0  0
    3.2910    1.0800   -0.3220 O   0  0  0  0  0  0  0  0  0  0  0  0
    2.3780   -1.0320   -0.6310 C   0  0  0  0  0  0  0  0  0  0  0  0
    1.1220   -0.5910   -1.0990 N   0  0  0  0  0  0  0  0  0  0  0  0
   -0.0550   -0.3770   -0.3680 C   0  0  0  0  0  0  0  0  0  0  0  0
   -0.1180   -0.5790    0.8470 O   0  0  0  0  0  0  0  0  0  0  0  0
   -1.3070    0.1180   -1.0560 C   0  0  0  0  0  0  0  0  0  0  0  0
   -2.3800    0.2450   -0.0320 C   0  0  1  0  0  0  0  0  0  0  0  0
   -1.9370    1.1630    0.9290 O   0  0  0  0  0  0  0  0  0  0  0  0
   -3.6330    0.8100   -0.7060 C   0  0  0  0  0  0  0  0  0  0  0  0
   -4.6070    1.3410    0.2970 C   0  0  0  0  0  0  0  0  0  0  0  0
   -5.2450    0.3250    1.1620 C   0  0  0  0  0  0  0  0  0  0  0  0
   -5.2820   -1.0020    0.6400 N   0  0  0  0  0  0  0  0  0  0  0  0
   -4.0500   -1.4880    0.1780 C   0  0  0  0  0  0  0  0  0  0  0  0
   -4.1360   -2.3590   -0.6610 O   0  0  0  0  0  0  0  0  0  0  0  0
   -2.6950   -1.0850    0.5720 C   0  0  0  0  0  0  0  0  0  0  0  0
  1  2  1  0
  2  3  1  0
  3  4  1  0
  4  5  1  1
  4  6  1  0
  4  7  1  0
  7  8  1  0
  8  9  1  0
  9 10  2  0
  9 11  1  0
 11 12  1  0
 12 13  1  1
 12 14  1  0
 12 20  1  0
 14 15  1  0
 15 16  1  0
 16 17  1  0
 17 18  1  0
 18 19  2  0
 18 20  1  0
M  CHG  1  17   1
M  END
