
     RDKit          3D

 20 20  0  0  0  0  0  0  0  0999 V2000
   -3.7530    2.6820   -0.1660 C   0  0  0  0  0  0  0  0  0  0  0  0
   -3.7150    1.1750   -0.0680 C   0  0  0  0  0  0  0  0  0  0  0  0
   -2.2680    0.6630   -0.1660 C   0  0  0  0  0  0  0  0  0  0  0  0
   -2.2700   -0.8170   -0.0650 C   0  0  2  0  0  0  0  0  0  0  0  0
   -3.0620   -1.2840   -1.1520 O   0  0  0  0  0  0  0  0  0  0  0  0
   -2.9350   -1.3620    1.1560 C   0  0  0  0  0  0  0  0  0  0  0  0
   -2.5880   -2.6760    1.1800 O   0  0  0  0  0  0  0  0  0  0  0  0
   -1.4710   -2.8940    0.4240 C   0  0  0  0  0  0  0  0  0  0  0  0
   -1.0200   -1.5440   -0.1420 C   0  0  2  0  0  0  0  0  0  0  0  0
    0.1770   -1.1270    0.6100 C   0  0  2  0  0  0  0  0  0  0  0  0
   -0.0120   -1.1030    2.1150 C   0  0  0  0  0  0  0  0  0  0  0  0
    0.7900    0.0990    0.2220 N   0  0  0  0  0  0  0  0  0  0  0  0
    2.2300   -0.0810    0.3110 C   0  0  0  0  0  0  0  0  0  0  0  0
    2.7240   -0.7720    1.2350 O   0  0  0  0  0  0  0  0  0  0  0  0
    3.1140    0.5250   -0.6520 C   0  0  0  0  0  0  0  0  0  0  0  0
    2.5450    1.3430   -1.7480 C   0  0  0  0  0  0  0  0  0  0  0  0
    1.7910    2.4830   -1.2640 N   0  0  0  0  0  0  0  0  0  0  0  0
    4.4070    0.3700   -0.5810 C   0  0  0  0  0  0  0  0  0  0  0  0
    5.0610   -0.4310    0.4810 C   0  0  0  0  0  0  0  0  0  0  0  0
    5.2670    0.9650   -1.5250 O   0  0  0  0  0  0  0  0  0  0  0  0
  1  2  1  0
  2  3  1  0
  3  4  1  0
  4  5  1  6
  4  6  1  0
  4  9  1  0
  6  7  1  0
  7  8  1  0
  9  8  1  1
  9 10  1  0
 10 11  1  1
 10 12  1  0
 12 13  1  0
 13 14  2  0
 13 15  1  0
 15 16  1  0
 15 18  2  3
 16 17  1  0
 18 19  1  0
 18 20  1  0
M  CHG  1  12   1
M  END
