
     RDKit          3D

 25 26  0  0  0  0  0  0  0  0999 V2000
   -3.9900    5.2250    1.0900 C   0  0  0  0  0  0  0  0  0  0  0  0
   -3.5650    4.0930    1.6170 C   0  0  0  0  0  0  0  0  0  0  0  0
   -2.5440    3.2450    0.9010 C   0  0  0  0  0  0  0  0  0  0  0  0
   -2.1690    2.1480    1.4690 C   0  0  0  0  0  0  0  0  0  0  0  0
   -1.2750    1.0870    1.1820 C   0  0  0  0  0  0  0  0  0  0  0  0
   -1.2880    0.1650    2.1160 O   0  0  0  0  0  0  0  0  0  0  0  0
   -0.3500    0.8200    0.1050 C   0  0  0  0  0  0  0  0  0  0  0  0
   -0.0960    1.7070   -0.8370 C   0  0  0  0  0  0  0  0  0  0  0  0
    0.8240    1.5630   -1.9210 C   0  0  0  0  0  0  0  0  0  0  0  0
    1.6100    0.5620   -2.1790 C   0  0  0  0  0  0  0  0  0  0  0  0
    1.6090   -0.8680   -1.0380 P   0  0  0  0  0  0  0  0  0  0  0  0
    3.0350   -0.8630    0.0810 C   0  0  0  0  0  0  0  0  0  0  0  0
    4.2310   -0.6070   -0.3850 C   0  0  0  0  0  0  0  0  0  0  0  0
    5.4170   -0.5980    0.5170 C   0  0  0  0  0  0  0  0  0  0  0  0
    6.0690    0.7720    0.4860 C   0  0  0  0  0  0  0  0  0  0  0  0
    0.0370   -0.5910   -0.0870 C   0  0  0  0  0  0  0  0  0  0  0  0
   -0.6740   -1.6310    0.1760 C   0  0  0  0  0  0  0  0  0  0  0  0
   -2.0330   -1.9080    0.7120 C   0  0  0  0  0  0  0  0  0  0  0  0
   -2.3850   -3.1110   -0.2260 C   0  0  2  0  0  0  0  0  0  0  0  0
   -2.3330   -2.5890   -1.6210 C   0  0  0  0  0  0  0  0  0  0  0  0
   -3.5730   -3.6730    0.1560 O   0  0  0  0  0  0  0  0  0  0  0  0
   -3.8360   -4.6760   -0.6490 O   0  0  0  0  0  0  0  0  0  0  0  0
   -1.2480   -3.9110    0.0100 O   0  0  0  0  0  0  0  0  0  0  0  0
   -0.1710   -3.0380   -0.0180 C   0  0  0  0  0  0  0  0  0  0  0  0
    1.0240   -3.3770   -0.1780 O   0  0  0  0  0  0  0  0  0  0  0  0
  1  2  2  0
  2  3  1  0
  3  4  2  3
  4  5  1  0
  5  6  2  0
  5  7  1  0
  7  8  2  0
  7 16  1  0
  8  9  1  0
  9 10  2  0
 10 11  1  0
 11 12  1  0
 11 16  1  0
 12 13  2  3
 13 14  1  0
 14 15  1  0
 16 17  2  3
 17 18  1  0
 17 24  1  0
 18 19  1  0
 19 20  1  6
 19 21  1  0
 19 23  1  0
 21 22  1  0
 23 24  1  0
 24 25  2  0
M  END
