
     RDKit          3D

 13 13  0  0  0  0  0  0  0  0999 V2000
   -1.5480    1.9570    1.0840 O   0  0  0  0  0  0  0  0  0  0  0  0
   -1.8570    1.0570    0.3120 C   0  0  0  0  0  0  0  0  0  0  0  0
   -3.1950    1.0160   -0.3330 C   0  0  0  0  0  0  0  0  0  0  0  0
   -3.6480   -0.2940   -0.0340 O   0  0  0  0  0  0  0  0  0  0  0  0
   -3.0000   -1.0870   -0.7950 O   0  0  0  0  0  0  0  0  0  0  0  0
   -1.6930   -1.2390   -0.6520 C   0  0  0  0  0  0  0  0  0  0  0  0
   -0.9660   -0.0540   -0.0240 C   0  0  1  0  0  0  0  0  0  0  0  0
   -0.0630    0.3950   -0.9620 O   0  0  0  0  0  0  0  0  0  0  0  0
    1.0910   -0.0710   -0.9960 O   0  0  0  0  0  0  0  0  0  0  0  0
    1.6890   -0.4440    0.1490 C   0  0  0  0  0  0  0  0  0  0  0  0
    3.1610   -0.7050   -0.1630 C   0  0  0  0  0  0  0  0  0  0  0  0
    3.4880    0.5300   -0.7850 O   0  0  0  0  0  0  0  0  0  0  0  0
    3.4610    1.4600    0.1760 O   0  0  0  0  0  0  0  0  0  0  0  0
  1  2  2  0
  2  3  1  0
  2  7  1  0
  3  4  1  0
  4  5  1  0
  5  6  1  0
  6  7  1  0
  7  8  1  6
  8  9  1  0
  9 10  1  0
 10 11  1  0
 11 12  1  0
 12 13  1  0
M  END
