
     RDKit          3D

 25 26  0  0  0  0  0  0  0  0999 V2000
   -3.0930   -2.2910    2.4150 C   0  0  0  0  0  0  0  0  0  0  0  0
   -1.6980   -2.3540    1.8160 C   0  0  0  0  0  0  0  0  0  0  0  0
   -1.5980   -2.2400    0.4870 O   0  0  0  0  0  0  0  0  0  0  0  0
   -1.9270   -1.1520   -0.2170 C   0  0  1  0  0  0  0  0  0  0  0  0
   -1.9720   -1.6230   -1.6900 C   0  0  0  0  0  0  0  0  0  0  0  0
   -3.4300   -0.7360   -0.0800 C   0  0  0  0  0  0  0  0  0  0  0  0
   -1.2780   -0.0350    0.0300 O   0  0  0  0  0  0  0  0  0  0  0  0
    0.0130    0.2610   -0.0760 C   0  0  1  0  0  0  0  0  0  0  0  0
    0.0930    1.7210    0.4110 C   0  0  0  0  0  0  0  0  0  0  0  0
   -0.9370    2.5270    0.2250 C   0  0  0  0  0  0  0  0  0  0  0  0
   -1.0210    3.9390    0.6300 C   0  0  2  0  0  0  0  0  0  0  0  0
   -1.7870    4.7700   -0.3970 C   0  0  0  0  0  0  0  0  0  0  0  0
    0.3640    4.5570    0.7540 C   0  0  0  0  0  0  0  0  0  0  0  0
   -1.6230    4.1040    1.8800 O   0  0  0  0  0  0  0  0  0  0  0  0
    0.9630   -0.4220    0.8130 C   0  0  0  0  0  0  0  0  0  0  0  0
    2.0160   -1.0830    0.3860 C   0  0  0  0  0  0  0  0  0  0  0  0
    3.1870   -1.8250   -0.0060 C   0  0  0  0  0  0  0  0  0  0  0  0
    4.2720   -2.5760    0.0830 C   0  0  0  0  0  0  0  0  0  0  0  0
    4.6740   -3.0270    1.3470 O   0  0  0  0  0  0  0  0  0  0  0  0
    4.6990   -4.4570    1.4750 C   0  0  0  0  0  0  0  0  0  0  0  0
    2.3720   -1.0860   -1.0390 C   0  0  0  0  0  0  0  0  0  0  0  0
    1.6400   -0.4390   -1.8700 C   0  0  0  0  0  0  0  0  0  0  0  0
    1.9770   -0.4460   -3.2370 O   0  0  0  0  0  0  0  0  0  0  0  0
    3.5230    0.2230   -3.6990 P   0  0  0  0  0  0  0  0  0  0  0  0
    0.4540    0.3350   -1.5100 C   0  0  0  0  0  0  0  0  0  0  0  0
  1  2  1  0
  2  3  1  0
  3  4  1  0
  4  5  1  6
  4  6  1  0
  4  7  1  0
  8  7  1  6
  8  9  1  0
  8 15  1  0
  8 25  1  0
  9 10  2  3
 10 11  1  0
 11 12  1  6
 11 13  1  0
 11 14  1  0
 15 16  2  0
 16 17  1  0
 16 21  1  0
 17 18  2  3
 17 21  1  0
 18 19  1  0
 19 20  1  0
 21 22  2  0
 22 23  1  0
 22 25  1  0
 23 24  1  0
M  END
