
     RDKit          3D

 25 25  0  0  0  0  0  0  0  0999 V2000
    1.3010    2.6680   -0.1780 C   0  0  0  0  0  0  0  0  0  0  0  0
    0.2180    1.4840   -0.6110 P   0  0  0  0  0  0  0  0  0  0  0  0
    0.4780   -0.2720   -0.1320 C   0  0  0  0  0  0  0  0  0  0  0  0
    1.6870   -0.7270   -0.0060 C   0  0  0  0  0  0  0  0  0  0  0  0
    2.0910   -2.0710    0.3610 C   0  0  0  0  0  0  0  0  0  0  0  0
    3.3610   -2.3880    0.4500 C   0  0  0  0  0  0  0  0  0  0  0  0
    4.5010   -1.4810    0.2040 C   0  0  2  0  0  0  0  0  0  0  0  0
    4.4650   -1.0620   -1.2490 C   0  0  0  0  0  0  0  0  0  0  0  0
    5.7210   -2.1110    0.4920 O   0  0  0  0  0  0  0  0  0  0  0  0
    6.7220   -1.1690    0.4180 C   0  0  0  0  0  0  0  0  0  0  0  0
    6.4670    0.0500    1.2830 C   0  0  0  0  0  0  0  0  0  0  0  0
    5.2170    0.5580    0.8580 O   0  0  0  0  0  0  0  0  0  0  0  0
    4.3510   -0.3810    1.0780 O   0  0  0  0  0  0  0  0  0  0  0  0
   -0.7080   -1.1250    0.0720 C   0  0  0  0  0  0  0  0  0  0  0  0
   -1.4840   -0.6200    1.1040 O   0  0  0  0  0  0  0  0  0  0  0  0
   -2.0900    0.6000    1.2310 C   0  0  0  0  0  0  0  0  0  0  0  0
   -3.3670    0.8440    0.5930 C   0  0  0  0  0  0  0  0  0  0  0  0
   -3.9380   -0.1110   -0.0950 C   0  0  0  0  0  0  0  0  0  0  0  0
   -5.2200    0.1010   -0.7480 C   0  0  0  0  0  0  0  0  0  0  0  0
   -5.8540    1.4460   -0.6030 C   0  0  0  0  0  0  0  0  0  0  0  0
   -5.8090   -0.8630   -1.4500 C   0  0  0  0  0  0  0  0  0  0  0  0
   -7.1120   -0.6010   -2.0970 C   0  0  0  0  0  0  0  0  0  0  0  0
   -1.5270    1.5580    1.9260 C   0  0  0  0  0  0  0  0  0  0  0  0
   -2.0360    2.8870    2.1500 C   0  0  0  0  0  0  0  0  0  0  0  0
   -1.4010    3.7190    2.8380 O   0  0  0  0  0  0  0  0  0  0  0  0
  1  2  2  0
  2  3  1  0
  3  4  2  3
  3 14  1  0
  4  5  1  0
  5  6  2  3
  6  7  1  0
  7  8  1  6
  7  9  1  0
  7 13  1  0
  9 10  1  0
 10 11  1  0
 11 12  1  0
 12 13  1  0
 14 15  1  0
 15 16  1  0
 16 17  1  0
 16 23  2  3
 17 18  2  3
 18 19  1  0
 19 20  1  0
 19 21  2  3
 21 22  1  0
 23 24  1  0
 24 25  2  0
M  END
