
     RDKit          3D

 25 26  0  0  0  0  0  0  0  0999 V2000
   -0.8120    5.6830   -0.4930 C   0  0  0  0  0  0  0  0  0  0  0  0
   -1.1180    4.3150   -1.0310 C   0  0  0  0  0  0  0  0  0  0  0  0
   -1.3050    3.2790   -0.2320 C   0  0  0  0  0  0  0  0  0  0  0  0
   -1.5750    2.0750   -0.7170 O   0  0  0  0  0  0  0  0  0  0  0  0
   -1.0250    0.9670   -1.2010 C   0  0  1  0  0  0  0  0  0  0  0  0
   -0.2380    1.0160   -2.3070 O   0  0  0  0  0  0  0  0  0  0  0  0
    1.0400    1.4020   -1.8240 C   0  0  0  0  0  0  0  0  0  0  0  0
    1.1130    0.8960   -0.3700 C   0  0  2  0  0  0  0  0  0  0  0  0
    1.3600    2.0620    0.5070 C   0  0  0  0  0  0  0  0  0  0  0  0
    2.3100   -0.0380   -0.2610 C   0  0  0  0  0  0  0  0  0  0  0  0
    2.5060   -0.5840    1.1070 C   0  0  0  0  0  0  0  0  0  0  0  0
    3.7330   -1.5050    1.0410 C   0  0  0  0  0  0  0  0  0  0  0  0
    4.8180   -0.7090    0.6300 O   0  0  0  0  0  0  0  0  0  0  0  0
    5.9640   -1.4990    0.5540 C   0  0  0  0  0  0  0  0  0  0  0  0
   -0.0920    0.1420   -0.3210 C   0  0  2  0  0  0  0  0  0  0  0  0
    0.1160   -1.4250   -1.3490 P   0  0  0  0  0  0  0  0  0  0  0  0
    0.4160   -2.8750   -0.3070 C   0  0  0  0  0  0  0  0  0  0  0  0
   -0.9260   -0.1740    0.7710 C   0  0  0  0  0  0  0  0  0  0  0  0
   -2.1660   -0.3650    0.2560 C   0  0  0  0  0  0  0  0  0  0  0  0
   -3.3920   -0.7280    1.0170 C   0  0  0  0  0  0  0  0  0  0  0  0
   -3.9380   -2.0600    0.4990 C   0  0  0  0  0  0  0  0  0  0  0  0
   -5.0850   -2.4160    1.1990 O   0  0  0  0  0  0  0  0  0  0  0  0
   -5.6050   -3.6270    0.7490 C   0  0  0  0  0  0  0  0  0  0  0  0
   -2.0850   -0.1130   -1.1990 C   0  0  0  0  0  0  0  0  0  0  0  0
   -2.7170   -0.6550   -2.0870 O   0  0  0  0  0  0  0  0  0  0  0  0
  1  2  1  0
  2  3  2  3
  3  4  1  0
  5  4  1  1
  5  6  1  0
  5 15  1  0
  5 24  1  0
  6  7  1  0
  7  8  1  0
  8  9  1  1
  8 10  1  0
  8 15  1  0
 10 11  1  0
 11 12  1  0
 12 13  1  0
 13 14  1  0
 15 16  1  6
 15 18  1  0
 16 17  1  0
 18 19  2  0
 19 20  1  0
 19 24  1  0
 20 21  1  0
 21 22  1  0
 22 23  1  0
 24 25  2  0
M  END
