
     RDKit          3D

 25 26  0  0  0  0  0  0  0  0999 V2000
    2.9790   -3.2960    1.5160 C   0  0  0  0  0  0  0  0  0  0  0  0
    2.5700   -2.0010    1.1140 O   0  0  0  0  0  0  0  0  0  0  0  0
    3.4490   -1.2250    0.4160 C   0  0  0  0  0  0  0  0  0  0  0  0
    3.1980   -0.5450   -0.6680 C   0  0  0  0  0  0  0  0  0  0  0  0
    2.4510    0.0940   -1.5630 C   0  0  0  0  0  0  0  0  0  0  0  0
    2.3630   -0.5650   -2.8250 C   0  0  0  0  0  0  0  0  0  0  0  0
    1.8590    1.3390   -1.2920 C   0  0  0  0  0  0  0  0  0  0  0  0
    2.7200    2.4810   -1.5820 O   0  0  0  0  0  0  0  0  0  0  0  0
    0.6970    1.7110   -0.8330 C   0  0  0  0  0  0  0  0  0  0  0  0
    0.4760    3.0320   -0.7020 O   0  0  0  0  0  0  0  0  0  0  0  0
   -0.5950    3.6090   -0.2710 C   0  0  0  0  0  0  0  0  0  0  0  0
   -0.5860    4.9960   -0.2260 C   0  0  0  0  0  0  0  0  0  0  0  0
   -1.6290    5.7720    0.2020 C   0  0  0  0  0  0  0  0  0  0  0  0
   -3.0550    4.9360    0.7190 P   0  0  0  0  0  0  0  0  0  0  0  0
   -2.9080    3.2090    0.6020 C   0  0  0  0  0  0  0  0  0  0  0  0
   -3.8470    2.4400    0.9340 O   0  0  0  0  0  0  0  0  0  0  0  0
   -1.6920    2.7680    0.1200 C   0  0  0  0  0  0  0  0  0  0  0  0
   -1.5070    1.4110    0.0010 C   0  0  0  0  0  0  0  0  0  0  0  0
   -0.3020    0.8530   -0.4810 C   0  0  0  0  0  0  0  0  0  0  0  0
   -0.2560   -0.4460   -0.5420 C   0  0  0  0  0  0  0  0  0  0  0  0
   -1.4140   -1.3120   -0.1290 C   0  0  1  0  0  0  0  0  0  0  0  0
   -1.2370   -2.7170   -0.7360 C   0  0  0  0  0  0  0  0  0  0  0  0
   -1.4460   -1.5160    1.3550 C   0  0  0  0  0  0  0  0  0  0  0  0
   -2.6570   -2.3980    1.6570 C   0  0  0  0  0  0  0  0  0  0  0  0
   -2.7390   -2.6250    3.0410 O   0  0  0  0  0  0  0  0  0  0  0  0
  1  2  1  0
  2  3  1  0
  3  4  2  0
  4  5  2  0
  5  6  1  0
  5  7  1  0
  7  8  1  0
  7  9  2  3
  9 10  1  0
  9 19  1  0
 10 11  1  0
 11 12  2  0
 11 17  1  0
 12 13  1  0
 13 14  2  0
 14 15  1  0
 15 16  2  0
 15 17  1  0
 17 18  2  0
 18 19  1  0
 19 20  2  3
 20 21  1  0
 21 22  1  6
 21 23  1  0
 23 24  1  0
 24 25  1  0
M  END
