
     RDKit          3D

 25 25  0  0  0  0  0  0  0  0999 V2000
    8.7610    1.6670    0.7190 C   0  0  0  0  0  0  0  0  0  0  0  0
    7.6720    0.8800    0.6860 C   0  0  0  0  0  0  0  0  0  0  0  0
    6.4010    1.4520    0.3460 C   0  0  0  0  0  0  0  0  0  0  0  0
    5.2930    0.7570    0.2910 C   0  0  0  0  0  0  0  0  0  0  0  0
    5.2510   -0.6370    0.5670 C   0  0  0  0  0  0  0  0  0  0  0  0
    4.2050   -1.3800    0.5320 C   0  0  0  0  0  0  0  0  0  0  0  0
    2.8720   -0.8440    0.1890 C   0  0  0  0  0  0  0  0  0  0  0  0
    1.8720   -1.6670    0.1790 C   0  0  0  0  0  0  0  0  0  0  0  0
    0.5000   -1.7190   -0.0530 C   0  0  0  0  0  0  0  0  0  0  0  0
   -0.4490   -0.9120   -0.3840 C   0  0  0  0  0  0  0  0  0  0  0  0
   -1.7120   -1.4470   -0.4980 O   0  0  0  0  0  0  0  0  0  0  0  0
   -2.6890   -0.6990   -0.8220 C   0  0  0  0  0  0  0  0  0  0  0  0
   -3.8560   -1.2890   -0.9090 C   0  0  0  0  0  0  0  0  0  0  0  0
   -5.0400   -1.8670   -0.9040 C   0  0  0  0  0  0  0  0  0  0  0  0
   -5.6930   -1.8270    0.2760 O   0  0  0  0  0  0  0  0  0  0  0  0
   -6.6550   -0.8880    0.6810 C   0  0  0  0  0  0  0  0  0  0  0  0
   -6.1130    0.5080    0.6930 C   0  0  0  0  0  0  0  0  0  0  0  0
   -6.6680    1.4360   -0.0700 C   0  0  0  0  0  0  0  0  0  0  0  0
   -8.0950    1.0830   -1.1600 P   0  0  0  0  0  0  0  0  0  0  0  0
   -9.5140    1.1160   -0.5350 O   0  0  0  0  0  0  0  0  0  0  0  0
   -2.6730    0.6190   -1.0870 C   0  0  0  0  0  0  0  0  0  0  0  0
   -3.7050    1.2380   -1.3940 O   0  0  0  0  0  0  0  0  0  0  0  0
   -1.4420    1.2340   -0.9940 C   0  0  0  0  0  0  0  0  0  0  0  0
   -0.3400    0.4190   -0.6340 C   0  0  0  0  0  0  0  0  0  0  0  0
    0.8610    1.0690   -0.5540 O   0  0  0  0  0  0  0  0  0  0  0  0
  1  2  2  0
  2  3  1  0
  3  4  2  3
  4  5  1  0
  5  6  2  3
  6  7  1  0
  7  8  2  3
  8  9  1  0
  9 10  2  3
 10 11  1  0
 10 24  1  0
 11 12  1  0
 12 13  2  0
 12 21  1  0
 13 14  2  0
 14 15  1  0
 15 16  1  0
 16 17  1  0
 17 18  2  3
 18 19  1  0
 19 20  2  0
 21 22  2  0
 21 23  1  0
 23 24  2  0
 24 25  1  0
M  END
