
     RDKit          3D

 20 21  0  0  0  0  0  0  0  0999 V2000
   -2.9360   -1.4340    1.6070 N   0  0  0  0  0  0  0  0  0  0  0  0
   -1.4980   -1.2080    1.4540 C   0  0  0  0  0  0  0  0  0  0  0  0
   -1.3480   -0.8950   -0.0740 C   0  0  2  0  0  0  0  0  0  0  0  0
    0.0030   -0.6390   -0.4320 N   0  0  0  0  0  0  0  0  0  0  0  0
    1.1580   -0.7930    0.4300 C   0  0  0  0  0  0  0  0  0  0  0  0
    0.9720   -1.1920    1.5680 O   0  0  0  0  0  0  0  0  0  0  0  0
    2.4710   -0.4620   -0.1200 C   0  0  0  0  0  0  0  0  0  0  0  0
    3.4540   -1.4490   -0.1040 C   0  0  0  0  0  0  0  0  0  0  0  0
    4.6700   -1.2360   -0.7330 C   0  0  0  0  0  0  0  0  0  0  0  0
    4.8990   -0.0790   -1.3580 N   0  0  0  0  0  0  0  0  0  0  0  0
    3.9780    0.8780   -1.3860 C   0  0  0  0  0  0  0  0  0  0  0  0
    2.7090    0.7100   -0.7490 C   0  0  0  0  0  0  0  0  0  0  0  0
    1.8420    1.8040   -0.7400 N   0  0  0  0  0  0  0  0  0  0  0  0
    0.6330    1.9010   -0.7200 O   0  0  0  0  0  0  0  0  0  0  0  0
    2.4920    3.0710   -0.7300 O   0  0  0  0  0  0  0  0  0  0  0  0
   -2.2760    0.1540   -0.4310 C   0  0  0  0  0  0  0  0  0  0  0  0
   -2.5040    0.8970   -1.5760 C   0  0  0  0  0  0  0  0  0  0  0  0
   -3.4240    1.8500   -1.5730 C   0  0  0  0  0  0  0  0  0  0  0  0
   -4.1530    2.1000   -0.4280 C   0  0  0  0  0  0  0  0  0  0  0  0
   -3.4700    0.8800    0.7260 S   0  0  0  0  0  0  0  0  0  0  0  0
  1  2  1  0
  3  2  1  1
  3  4  1  0
  3 16  1  0
  4  5  1  0
  5  6  2  0
  5  7  1  0
  7  8  2  0
  7 12  1  0
  8  9  1  0
  9 10  2  0
 10 11  1  0
 11 12  2  0
 12 13  1  0
 13 14  2  0
 13 15  1  0
 16 17  2  0
 16 20  1  0
 17 18  1  0
 18 19  2  0
 19 20  1  0
M  CHG  2  13   1  15  -1
M  END
