
     RDKit          3D

 21 22  0  0  0  0  0  0  0  0999 V2000
    4.4490   -0.7360    0.7710 O   0  0  0  0  0  0  0  0  0  0  0  0
    4.8870    0.4260    0.6330 C   0  0  0  0  0  0  0  0  0  0  0  0
    6.3450    0.6590    0.7950 C   0  0  0  0  0  0  0  0  0  0  0  0
    7.0490   -0.5580    1.1000 N   0  0  0  0  0  0  0  0  0  0  0  0
    7.6950   -0.6710    2.1550 O   0  0  0  0  0  0  0  0  0  0  0  0
    7.0090   -1.6040    0.2220 O   0  0  0  0  0  0  0  0  0  0  0  0
    3.9710    1.4640    0.3300 N   0  0  0  0  0  0  0  0  0  0  0  0
    2.5670    1.2000    0.1810 C   0  0  0  0  0  0  0  0  0  0  0  0
    2.0350   -0.1360    0.3350 N   0  0  0  0  0  0  0  0  0  0  0  0
    0.7880   -0.2700    0.1860 C   0  0  0  0  0  0  0  0  0  0  0  0
   -0.0220    0.8330   -0.1140 C   0  0  0  0  0  0  0  0  0  0  0  0
   -1.4380    0.9130   -0.3230 C   0  0  0  0  0  0  0  0  0  0  0  0
   -1.9100    2.0370   -0.5800 O   0  0  0  0  0  0  0  0  0  0  0  0
   -2.2860   -0.2030   -0.2500 N   0  0  0  0  0  0  0  0  0  0  0  0
   -3.6850   -0.2270   -0.4350 C   0  0  0  0  0  0  0  0  0  0  0  0
   -4.4700    0.8820   -0.5210 C   0  0  0  0  0  0  0  0  0  0  0  0
   -5.8640    0.8260   -0.7200 C   0  0  0  0  0  0  0  0  0  0  0  0
   -6.4490   -0.4090   -0.8310 C   0  0  0  0  0  0  0  0  0  0  0  0
   -5.6850   -1.5480   -0.7480 C   0  0  0  0  0  0  0  0  0  0  0  0
   -4.3340   -1.4750   -0.5540 C   0  0  0  0  0  0  0  0  0  0  0  0
    1.1950    2.0910   -0.1610 S   0  0  0  0  0  0  0  0  0  0  0  0
  1  2  2  0
  2  3  1  0
  2  7  1  0
  3  4  1  0
  4  5  2  0
  4  6  1  0
  7  8  1  0
  8  9  2  0
  8 21  1  0
  9 10  1  0
 10 11  2  0
 11 12  1  0
 11 21  1  0
 12 13  2  0
 12 14  1  0
 14 15  1  0
 15 16  2  0
 15 20  1  0
 16 17  1  0
 17 18  2  0
 18 19  1  0
 19 20  2  0
M  CHG  2   4   1   6  -1
M  END
