
     RDKit          3D

 20 21  0  0  0  0  0  0  0  0999 V2000
    6.6740   -0.3040    0.5320 C   0  0  0  0  0  0  0  0  0  0  0  0
    5.1840   -0.2050    0.4990 C   0  0  0  0  0  0  0  0  0  0  0  0
    4.3330   -1.1690    0.9790 C   0  0  0  0  0  0  0  0  0  0  0  0
    3.0390   -0.7090    0.7680 C   0  0  0  0  0  0  0  0  0  0  0  0
    3.1730    0.5200    0.1650 C   0  0  0  0  0  0  0  0  0  0  0  0
    2.0660    1.4230   -0.2660 C   0  0  0  0  0  0  0  0  0  0  0  0
    0.7220    0.7630    0.0710 C   0  0  0  0  0  0  0  0  0  0  0  0
   -0.2960    1.6980   -0.3760 N   0  0  0  0  0  0  0  0  0  0  0  0
   -1.5840    1.2600   -0.1490 N   0  0  0  0  0  0  0  0  0  0  0  0
   -2.0750    0.1140   -0.8280 C   0  0  0  0  0  0  0  0  0  0  0  0
   -1.3350   -0.5870   -1.7010 N   0  0  0  0  0  0  0  0  0  0  0  0
   -1.7860   -1.6720   -2.3480 C   0  0  0  0  0  0  0  0  0  0  0  0
   -3.0330   -2.0840   -2.1190 N   0  0  0  0  0  0  0  0  0  0  0  0
   -3.8460   -1.4540   -1.2700 C   0  0  0  0  0  0  0  0  0  0  0  0
   -3.3610   -0.3270   -0.6040 C   0  0  0  0  0  0  0  0  0  0  0  0
   -4.3440    0.5720    0.5300 S   0  0  1  0  0  0  0  0  0  0  0  0
   -5.9430   -0.1950    0.6370 C   0  0  0  0  0  0  0  0  0  0  0  0
   -3.7250    0.6120    1.8950 O   0  0  0  0  0  0  0  0  0  0  0  0
   -4.5630    1.9880    0.0600 O   0  0  0  0  0  0  0  0  0  0  0  0
    4.4400    0.7600    0.0340 O   0  0  0  0  0  0  0  0  0  0  0  0
  1  2  1  0
  2  3  2  0
  2 20  1  0
  3  4  1  0
  4  5  2  0
  5  6  1  0
  5 20  1  0
  6  7  1  0
  7  8  1  0
  8  9  1  0
  9 10  1  0
 10 11  2  0
 10 15  1  0
 11 12  1  0
 12 13  2  0
 13 14  1  0
 14 15  2  0
 15 16  1  0
 16 17  1  1
 16 18  2  0
 16 19  2  0
M  END
