
     RDKit          3D

 20 21  0  0  0  0  0  0  0  0999 V2000
    7.0150   -1.5130   -0.6510 C   0  0  0  0  0  0  0  0  0  0  0  0
    5.7750   -1.2380   -0.5460 N   0  0  0  0  0  0  0  0  0  0  0  0
    5.2340    0.0600   -0.7980 C   0  0  0  0  0  0  0  0  0  0  0  0
    4.1110    0.3840    0.1770 C   0  0  0  0  0  0  0  0  0  0  0  0
    4.4510    0.9040    1.4280 C   0  0  0  0  0  0  0  0  0  0  0  0
    2.7840    1.0900    2.1400 S   0  0  0  0  0  0  0  0  0  0  0  0
    1.9080    0.4480    0.6650 C   0  0  0  0  0  0  0  0  0  0  0  0
    0.4670    0.3350    0.5980 N   0  0  0  0  0  0  0  0  0  0  0  0
   -0.1550   -0.1640   -0.5570 C   0  0  0  0  0  0  0  0  0  0  0  0
    0.6090   -0.5040   -1.5190 O   0  0  0  0  0  0  0  0  0  0  0  0
   -1.5850   -0.2900   -0.6590 C   0  0  0  0  0  0  0  0  0  0  0  0
   -2.3760    0.0530    0.3160 C   0  0  0  0  0  0  0  0  0  0  0  0
   -3.8370   -0.1260    0.0860 C   0  0  0  0  0  0  0  0  0  0  0  0
   -4.4670   -0.6080   -1.0230 C   0  0  0  0  0  0  0  0  0  0  0  0
   -5.8160   -0.5780   -0.7490 C   0  0  0  0  0  0  0  0  0  0  0  0
   -5.9660   -0.0770    0.5250 C   0  0  0  0  0  0  0  0  0  0  0  0
   -7.2120    0.1270    1.2220 N   0  0  0  0  0  0  0  0  0  0  0  0
   -8.3840   -0.1770    0.6360 O   0  0  0  0  0  0  0  0  0  0  0  0
   -4.7600    0.1710    0.9660 O   0  0  0  0  0  0  0  0  0  0  0  0
    2.8670    0.2070   -0.0800 N   0  0  0  0  0  0  0  0  0  0  0  0
  1  2  2  0
  2  3  1  0
  3  4  1  0
  4  5  2  0
  4 20  1  0
  5  6  1  0
  6  7  1  0
  7  8  1  0
  7 20  2  0
  8  9  1  0
  9 10  2  0
  9 11  1  0
 11 12  2  3
 12 13  1  0
 13 14  2  0
 13 19  1  0
 14 15  1  0
 15 16  2  0
 16 17  1  0
 16 19  1  0
 17 18  1  0
M  CHG  1  18  -1
M  END
