
     RDKit          3D

 21 22  0  0  0  0  0  0  0  0999 V2000
   -3.5320   -1.0030    1.6850 C   0  0  0  0  0  0  0  0  0  0  0  0
   -4.2510   -1.2960    0.4060 C   0  0  0  0  0  0  0  0  0  0  0  0
   -4.1560   -0.1310   -0.5700 C   0  0  0  0  0  0  0  0  0  0  0  0
   -2.7370    0.1600   -0.9040 C   0  0  0  0  0  0  0  0  0  0  0  0
   -2.0100    1.0720   -0.1300 C   0  0  0  0  0  0  0  0  0  0  0  0
   -0.6960    1.3470   -0.4330 C   0  0  0  0  0  0  0  0  0  0  0  0
    0.0010    2.2710    0.3710 N   0  0  0  0  0  0  0  0  0  0  0  0
    1.6670    2.6790    0.0600 S   0  0  2  0  0  0  0  0  0  0  0  0
    2.1070    3.7400    0.9960 O   0  0  0  0  0  0  0  0  0  0  0  0
    1.7210    3.1910   -1.3450 O   0  0  0  0  0  0  0  0  0  0  0  0
    2.6340    1.2070    0.2240 C   0  0  0  0  0  0  0  0  0  0  0  0
    3.3740    0.7280   -0.8400 C   0  0  0  0  0  0  0  0  0  0  0  0
    4.1270   -0.4290   -0.6920 C   0  0  0  0  0  0  0  0  0  0  0  0
    4.1470   -1.1020    0.4950 C   0  0  0  0  0  0  0  0  0  0  0  0
    5.1150   -2.5870    0.6800 S   0  0  0  0  0  0  0  0  0  0  0  0
    4.9410   -3.4770   -0.5480 O   0  0  0  0  0  0  0  0  0  0  0  0
    3.3990   -0.6010    1.5400 C   0  0  0  0  0  0  0  0  0  0  0  0
    2.6780    0.5230    1.3680 N   0  0  0  0  0  0  0  0  0  0  0  0
   -0.0810    0.7540   -1.4700 N   0  0  0  0  0  0  0  0  0  0  0  0
   -0.7910   -0.1350   -2.2240 C   0  0  0  0  0  0  0  0  0  0  0  0
   -2.0820   -0.4020   -1.9220 N   0  0  0  0  0  0  0  0  0  0  0  0
  1  2  1  0
  2  3  1  0
  3  4  1  0
  4  5  2  0
  4 21  1  0
  5  6  1  0
  6  7  1  0
  6 19  2  0
  8  7  1  1
  8  9  2  0
  8 10  2  0
  8 11  1  0
 11 12  2  0
 11 18  1  0
 12 13  1  0
 13 14  2  0
 14 15  1  0
 14 17  1  0
 15 16  2  0
 17 18  2  0
 19 20  1  0
 20 21  2  0
M  END
