
     RDKit          3D

 21 22  0  0  0  0  0  0  0  0999 V2000
   -4.1170    1.5700   -0.8670 O   0  0  0  0  0  0  0  0  0  0  0  0
   -3.5330    0.6650   -0.2250 C   0  0  0  0  0  0  0  0  0  0  0  0
   -2.2880    0.7800    0.2810 N   0  0  0  0  0  0  0  0  0  0  0  0
   -1.6550   -0.1770    0.9670 C   0  0  0  0  0  0  0  0  0  0  0  0
    0.0020   -0.0140    1.6080 S   0  0  0  0  0  0  0  0  0  0  0  0
    0.7690    1.5130    1.0650 C   0  0  0  0  0  0  0  0  0  0  0  0
    1.0860    1.4470   -0.4110 C   0  0  0  0  0  0  0  0  0  0  0  0
    1.9390    0.4300   -0.7400 O   0  0  0  0  0  0  0  0  0  0  0  0
    3.2210    0.1250   -0.4190 C   0  0  0  0  0  0  0  0  0  0  0  0
    3.7660   -1.0520   -0.9540 C   0  0  0  0  0  0  0  0  0  0  0  0
    5.0470   -1.4680   -0.7070 C   0  0  0  0  0  0  0  0  0  0  0  0
    5.8580   -0.7060    0.1050 C   0  0  0  0  0  0  0  0  0  0  0  0
    5.3620    0.4490    0.6450 C   0  0  0  0  0  0  0  0  0  0  0  0
    4.0630    0.8530    0.3820 C   0  0  0  0  0  0  0  0  0  0  0  0
   -2.3510   -1.3410    1.1490 N   0  0  0  0  0  0  0  0  0  0  0  0
   -3.5680   -1.4810    0.6670 N   0  0  0  0  0  0  0  0  0  0  0  0
   -4.1960   -0.5210   -0.0180 C   0  0  0  0  0  0  0  0  0  0  0  0
   -5.5600   -0.7190   -0.5420 C   0  0  0  0  0  0  0  0  0  0  0  0
   -6.0720   -2.0320   -0.2140 N   0  0  0  0  0  0  0  0  0  0  0  0
   -6.4140   -2.8490   -1.1070 O   0  0  0  0  0  0  0  0  0  0  0  0
   -6.1890   -2.4010    1.1020 O   0  0  0  0  0  0  0  0  0  0  0  0
  1  2  2  0
  2  3  1  0
  2 17  1  0
  3  4  1  0
  4  5  1  0
  4 15  2  0
  5  6  1  0
  6  7  1  0
  7  8  1  0
  8  9  1  0
  9 10  2  0
  9 14  1  0
 10 11  1  0
 11 12  2  0
 12 13  1  0
 13 14  2  0
 15 16  1  0
 16 17  2  0
 17 18  1  0
 18 19  1  0
 19 20  2  0
 19 21  1  0
M  CHG  2  19   1  21  -1
M  END
