
     RDKit          3D

 11 12  0  0  0  0  0  0  0  0999 V2000
   -0.9800   -0.3040   -1.0360 C   0  0  0  0  0  0  0  0  0  0  0  0
   -0.2510   -0.0860    0.0440 C   0  0  0  0  0  0  0  0  0  0  0  0
    1.2080   -0.1190    0.0120 C   0  0  0  0  0  0  0  0  0  0  0  0
    2.0400   -0.3650   -1.0630 C   0  0  0  0  0  0  0  0  0  0  0  0
    3.3590   -0.3040   -0.6650 C   0  0  0  0  0  0  0  0  0  0  0  0
    3.3260   -0.0150    0.6800 C   0  0  0  0  0  0  0  0  0  0  0  0
    2.0340    0.0880    1.0510 N   0  0  0  0  0  0  0  0  0  0  0  0
   -0.9420    0.2020    1.3260 C   0  0  0  0  0  0  0  0  0  0  0  0
   -2.2930   -0.1670    1.2660 O   0  0  0  0  0  0  0  0  0  0  0  0
   -2.8980    0.4720    0.1980 C   0  0  0  0  0  0  0  0  0  0  0  0
   -2.4640   -0.2830   -1.0670 C   0  0  0  0  0  0  0  0  0  0  0  0
  1  2  2  0
  1 11  1  0
  2  3  1  0
  2  8  1  0
  3  4  2  0
  3  7  1  0
  4  5  1  0
  5  6  2  0
  6  7  1  0
  8  9  1  0
  9 10  1  0
 10 11  1  0
M  END
