
     RDKit          3D

 12 13  0  0  0  0  0  0  0  0999 V2000
    2.9610    1.4950    0.2380 C   0  0  0  0  0  0  0  0  0  0  0  0
    2.5750    0.1760   -0.0850 O   0  0  0  0  0  0  0  0  0  0  0  0
    1.2250   -0.1450   -0.1010 C   0  0  0  0  0  0  0  0  0  0  0  0
    0.2240    0.7680    0.1850 C   0  0  0  0  0  0  0  0  0  0  0  0
   -1.1090    0.4340    0.1640 C   0  0  0  0  0  0  0  0  0  0  0  0
   -1.5000   -0.8510   -0.1490 C   0  0  0  0  0  0  0  0  0  0  0  0
   -0.5060   -1.7820   -0.4390 C   0  0  0  0  0  0  0  0  0  0  0  0
    0.8350   -1.4300   -0.4140 C   0  0  0  0  0  0  0  0  0  0  0  0
    1.8340   -2.3660   -0.7060 O   0  0  0  0  0  0  0  0  0  0  0  0
   -2.9550   -0.8970   -0.0890 C   0  0  0  0  0  0  0  0  0  0  0  0
   -3.4240    0.2500    0.2310 N   0  0  0  0  0  0  0  0  0  0  0  0
   -2.3650    1.1810    0.4200 C   0  0  0  0  0  0  0  0  0  0  0  0
  1  2  1  0
  2  3  1  0
  3  4  2  0
  3  8  1  0
  4  5  1  0
  5  6  2  0
  5 12  1  0
  6  7  1  0
  6 10  1  0
  7  8  2  0
  8  9  1  0
 10 11  2  0
 11 12  1  0
M  END
