
     RDKit          3D

 12 13  0  0  0  0  0  0  0  0999 V2000
   -3.5500   -0.2620    0.6540 C   0  0  0  0  0  0  0  0  0  0  0  0
   -2.2660   -0.0180    0.4670 C   0  0  0  0  0  0  0  0  0  0  0  0
   -1.5440    1.1240    0.7480 O   0  0  0  0  0  0  0  0  0  0  0  0
   -0.2090    0.9950    0.4050 C   0  0  0  0  0  0  0  0  0  0  0  0
    0.8840    1.8620    0.4990 C   0  0  0  0  0  0  0  0  0  0  0  0
    2.1050    1.4280    0.0650 C   0  0  0  0  0  0  0  0  0  0  0  0
    2.3320    0.1610   -0.4710 C   0  0  0  0  0  0  0  0  0  0  0  0
    3.5890   -0.2430   -0.9010 O   0  0  0  0  0  0  0  0  0  0  0  0
    1.2330   -0.6700   -0.5490 C   0  0  0  0  0  0  0  0  0  0  0  0
   -0.0230   -0.2670   -0.1200 C   0  0  0  0  0  0  0  0  0  0  0  0
   -1.2960   -0.9680   -0.1100 C   0  0  0  0  0  0  0  0  0  0  0  0
   -1.5970   -2.1590   -0.5010 N   0  0  0  0  0  0  0  0  0  0  0  0
  1  2  2  0
  2  3  1  0
  2 11  1  0
  3  4  1  0
  4  5  2  0
  4 10  1  0
  5  6  1  0
  6  7  2  0
  7  8  1  0
  7  9  1  0
  9 10  2  0
 10 11  1  0
 11 12  2  0
M  END
