
     RDKit          3D

 12 12  0  0  0  0  0  0  0  0999 V2000
   -2.3380    1.9180   -0.1920 C   0  0  0  0  0  0  0  0  0  0  0  0
   -2.6080    0.6230   -0.1800 C   0  0  0  0  0  0  0  0  0  0  0  0
   -3.9070    0.0430    0.1810 C   0  0  0  0  0  0  0  0  0  0  0  0
   -3.7480   -1.2650    0.0630 C   0  0  0  0  0  0  0  0  0  0  0  0
   -2.3720   -1.5760   -0.3690 C   0  0  0  0  0  0  0  0  0  0  0  0
   -1.6910   -0.4550   -0.5140 C   0  0  0  0  0  0  0  0  0  0  0  0
   -0.3750   -0.2770   -0.9010 O   0  0  0  0  0  0  0  0  0  0  0  0
    0.6700   -0.2430    0.0230 C   0  0  0  0  0  0  0  0  0  0  0  0
    0.3320   -0.3850    1.2400 O   0  0  0  0  0  0  0  0  0  0  0  0
    2.0270   -0.0610   -0.3580 N   0  0  0  0  0  0  0  0  0  0  0  0
    3.0580   -0.0360    0.6580 C   0  0  0  0  0  0  0  0  0  0  0  0
    4.3790    0.1680   -0.0350 C   0  0  0  0  0  0  0  0  0  0  0  0
  1  2  2  0
  2  3  1  0
  2  6  1  0
  3  4  2  0
  4  5  1  0
  5  6  2  0
  6  7  1  0
  7  8  1  0
  8  9  2  0
  8 10  1  0
 10 11  1  0
 11 12  1  0
M  END
