
     RDKit          3D

 12 13  0  0  0  0  0  0  0  0999 V2000
   -1.7650    2.2030    0.0620 N   0  0  0  0  0  0  0  0  0  0  0  0
   -1.2710    0.8910    0.2480 C   0  0  0  0  0  0  0  0  0  0  0  0
    0.0260    0.6900    0.1490 C   0  0  0  0  0  0  0  0  0  0  0  0
    0.9030    1.8210   -0.1490 C   0  0  0  0  0  0  0  0  0  0  0  0
    0.3890    2.9220   -0.4630 O   0  0  0  0  0  0  0  0  0  0  0  0
    2.2750    1.6290   -0.0700 O   0  0  0  0  0  0  0  0  0  0  0  0
    2.8140    0.3480    0.1800 C   0  0  0  0  0  0  0  0  0  0  0  0
    1.9230   -0.7120   -0.3920 C   0  0  0  0  0  0  0  0  0  0  0  0
    0.5910   -0.6710    0.3360 C   0  0  2  0  0  0  0  0  0  0  0  0
   -0.2690   -1.7550   -0.2220 C   0  0  0  0  0  0  0  0  0  0  0  0
   -1.7000   -1.3870   -0.4100 C   0  0  0  0  0  0  0  0  0  0  0  0
   -2.1320   -0.2780    0.5500 C   0  0  0  0  0  0  0  0  0  0  0  0
  1  2  1  0
  2  3  2  0
  2 12  1  0
  3  4  1  0
  3  9  1  0
  4  5  2  0
  4  6  1  0
  6  7  1  0
  7  8  1  0
  9  8  1  6
  9 10  1  0
 10 11  1  0
 11 12  1  0
M  END
