
     RDKit          3D

 12 13  0  0  0  0  0  0  0  0999 V2000
    3.4400    0.5730   -0.7350 C   0  0  0  0  0  0  0  0  0  0  0  0
    2.6850   -0.1550    0.1840 O   0  0  0  0  0  0  0  0  0  0  0  0
    1.3090   -0.0990    0.3130 C   0  0  0  0  0  0  0  0  0  0  0  0
    0.4880    0.6930   -0.4590 C   0  0  0  0  0  0  0  0  0  0  0  0
   -0.8840    0.7060   -0.2830 C   0  0  0  0  0  0  0  0  0  0  0  0
   -1.4800   -0.0800    0.6790 C   0  0  0  0  0  0  0  0  0  0  0  0
   -0.6740   -0.8780    1.4600 C   0  0  0  0  0  0  0  0  0  0  0  0
    0.7150   -0.8860    1.2770 C   0  0  0  0  0  0  0  0  0  0  0  0
    1.5240   -1.7100    2.0860 N   0  0  0  0  0  0  0  0  0  0  0  0
   -2.9310    0.1630    0.6090 C   0  0  0  0  0  0  0  0  0  0  0  0
   -3.0990    0.7010   -0.7970 C   0  0  0  0  0  0  0  0  0  0  0  0
   -1.8840    1.4300   -0.9540 O   0  0  0  0  0  0  0  0  0  0  0  0
  1  2  1  0
  2  3  1  0
  3  4  2  0
  3  8  1  0
  4  5  1  0
  5  6  2  0
  5 12  1  0
  6  7  1  0
  6 10  1  0
  7  8  2  0
  8  9  1  0
 10 11  1  0
 11 12  1  0
M  END
