
     RDKit          3D

 24 26  0  0  0  0  0  0  0  0999 V2000
   -2.3510    1.7320   -1.9530 C   0  0  0  0  0  0  0  0  0  0  0  0
   -2.1550    0.7220   -0.8870 C   0  0  0  0  0  0  0  0  0  0  0  0
   -0.8630    0.4100   -0.4780 C   0  0  0  0  0  0  0  0  0  0  0  0
   -0.6690   -0.5250    0.5070 C   0  0  0  0  0  0  0  0  0  0  0  0
    0.6510   -0.8660    0.9470 C   0  0  0  0  0  0  0  0  0  0  0  0
    0.8020   -1.7180    1.8500 O   0  0  0  0  0  0  0  0  0  0  0  0
    1.8720   -0.2460    0.3740 C   0  0  0  0  0  0  0  0  0  0  0  0
    3.0440   -0.6060    0.8260 C   0  0  0  0  0  0  0  0  0  0  0  0
    4.3520   -0.1440    0.4310 C   0  0  0  0  0  0  0  0  0  0  0  0
    4.5150    1.0090   -0.2910 C   0  0  0  0  0  0  0  0  0  0  0  0
    3.4530    1.9990   -0.6140 C   0  0  0  0  0  0  0  0  0  0  0  0
    6.1420    1.3570   -0.7900 S   0  0  0  0  0  0  0  0  0  0  0  0
    7.2610    0.1910   -0.2820 C   0  0  0  0  0  0  0  0  0  0  0  0
    8.4990    0.2460   -0.5340 O   0  0  0  0  0  0  0  0  0  0  0  0
    6.7080   -0.8030    0.4170 N   0  0  0  0  0  0  0  0  0  0  0  0
    5.4420   -0.9690    0.7390 C   0  0  0  0  0  0  0  0  0  0  0  0
    5.1510   -2.0190    1.4250 O   0  0  0  0  0  0  0  0  0  0  0  0
   -1.7880   -1.1450    1.0810 C   0  0  0  0  0  0  0  0  0  0  0  0
   -3.0650   -0.8490    0.6900 C   0  0  0  0  0  0  0  0  0  0  0  0
   -3.2280    0.0920   -0.3010 C   0  0  0  0  0  0  0  0  0  0  0  0
   -4.5370    0.4500   -0.7580 N   0  0  0  0  0  0  0  0  0  0  0  0
   -5.6250   -0.4450   -0.4360 C   0  0  0  0  0  0  0  0  0  0  0  0
   -5.4930   -0.7520    1.0590 C   0  0  0  0  0  0  0  0  0  0  0  0
   -4.2380   -1.5420    1.3350 C   0  0  0  0  0  0  0  0  0  0  0  0
  1  2  1  0
  2  3  2  0
  2 20  1  0
  3  4  1  0
  4  5  1  0
  4 18  2  0
  5  6  2  0
  5  7  1  0
  7  8  2  3
  8  9  1  0
  9 10  2  0
  9 16  1  0
 10 11  1  0
 10 12  1  0
 12 13  1  0
 13 14  2  0
 13 15  1  0
 15 16  1  0
 16 17  2  0
 18 19  1  0
 19 20  2  0
 19 24  1  0
 20 21  1  0
 21 22  1  0
 22 23  1  0
 23 24  1  0
M  END
