
     RDKit          3D

 12 13  0  0  0  0  0  0  0  0999 V2000
    3.7750    0.9350    0.4600 C   0  0  0  0  0  0  0  0  0  0  0  0
    3.2480   -0.3510    0.3320 O   0  0  0  0  0  0  0  0  0  0  0  0
    1.8700   -0.5090    0.1830 C   0  0  0  0  0  0  0  0  0  0  0  0
    1.3590   -1.7830    0.0580 C   0  0  0  0  0  0  0  0  0  0  0  0
    0.0020   -1.9760   -0.0910 C   0  0  0  0  0  0  0  0  0  0  0  0
   -0.8450   -0.8690   -0.1140 C   0  0  0  0  0  0  0  0  0  0  0  0
   -0.3680    0.4170    0.0090 C   0  0  0  0  0  0  0  0  0  0  0  0
    1.0040    0.5660    0.1570 C   0  0  0  0  0  0  0  0  0  0  0  0
   -1.2270    1.5090   -0.0160 O   0  0  0  0  0  0  0  0  0  0  0  0
   -2.6360    1.3660    0.0860 C   0  0  0  0  0  0  0  0  0  0  0  0
   -3.0140    0.1210   -0.6940 C   0  0  0  0  0  0  0  0  0  0  0  0
   -2.2520   -1.0350   -0.2660 N   0  0  0  0  0  0  0  0  0  0  0  0
  1  2  1  0
  2  3  1  0
  3  4  2  0
  3  8  1  0
  4  5  1  0
  5  6  2  0
  6  7  1  0
  6 12  1  0
  7  8  2  0
  7  9  1  0
  9 10  1  0
 10 11  1  0
 11 12  1  0
M  END
