
     RDKit          3D

 24 26  0  0  0  0  0  0  0  0999 V2000
    2.6760   -2.7140   -1.3590 O   0  0  0  0  0  0  0  0  0  0  0  0
    3.1160   -1.6820   -0.7760 C   0  0  0  0  0  0  0  0  0  0  0  0
    4.5090   -1.5010   -1.0130 N   0  0  0  0  0  0  0  0  0  0  0  0
    5.4860   -0.6860   -0.2860 C   0  0  0  0  0  0  0  0  0  0  0  0
    5.3770    0.7570   -0.6460 C   0  0  0  0  0  0  0  0  0  0  0  0
    4.3780    1.5280    0.1960 C   0  0  0  0  0  0  0  0  0  0  0  0
    2.9710    1.3170   -0.2670 C   0  0  0  0  0  0  0  0  0  0  0  0
    2.1680    0.3850    0.6520 C   0  0  0  0  0  0  0  0  0  0  0  0
    2.0970   -0.9400   -0.0120 C   0  0  0  0  0  0  0  0  0  0  0  0
    0.9440   -1.5690    0.0450 C   0  0  0  0  0  0  0  0  0  0  0  0
   -0.2520   -1.1200    0.7170 C   0  0  0  0  0  0  0  0  0  0  0  0
   -0.4410   -0.6080    1.9820 C   0  0  0  0  0  0  0  0  0  0  0  0
   -1.6840   -0.2510    2.3260 C   0  0  0  0  0  0  0  0  0  0  0  0
   -2.7070   -0.3780    1.4900 C   0  0  0  0  0  0  0  0  0  0  0  0
   -4.1150   -0.1110    1.5580 C   0  0  0  0  0  0  0  0  0  0  0  0
   -4.6670   -0.1120    2.6850 O   0  0  0  0  0  0  0  0  0  0  0  0
   -4.9210    0.1580    0.3800 C   0  0  0  0  0  0  0  0  0  0  0  0
   -4.3430    0.7850   -0.7220 C   0  0  0  0  0  0  0  0  0  0  0  0
   -5.1330    1.0420   -1.8140 C   0  0  0  0  0  0  0  0  0  0  0  0
   -6.4660    0.7050   -1.8550 C   0  0  0  0  0  0  0  0  0  0  0  0
   -7.0230    0.0950   -0.7790 N   0  0  0  0  0  0  0  0  0  0  0  0
   -6.2550   -0.1620    0.2980 C   0  0  0  0  0  0  0  0  0  0  0  0
   -6.7750   -0.7310    1.2990 O   0  0  0  0  0  0  0  0  0  0  0  0
   -1.9010   -1.0900   -0.0050 S   0  0  0  0  0  0  0  0  0  0  0  0
  1  2  2  0
  2  3  1  0
  2  9  1  0
  3  4  1  0
  4  5  1  0
  5  6  1  0
  6  7  1  0
  7  8  1  0
  8  9  1  0
  9 10  2  3
 10 11  1  0
 11 12  2  0
 11 24  1  0
 12 13  1  0
 13 14  2  0
 14 15  1  0
 14 24  1  0
 15 16  2  0
 15 17  1  0
 17 18  2  0
 17 22  1  0
 18 19  1  0
 19 20  2  0
 20 21  1  0
 21 22  1  0
 22 23  2  0
M  END
