
     RDKit          3D

 21 22  0  0  0  0  0  0  0  0999 V2000
   -1.8210   -1.4900   -2.2490 C   0  0  0  0  0  0  0  0  0  0  0  0
   -1.3070   -1.5520   -0.8940 O   0  0  0  0  0  0  0  0  0  0  0  0
   -1.3610   -0.2790   -0.2400 C   0  0  0  0  0  0  0  0  0  0  0  0
   -2.5450    0.0170    0.4240 C   0  0  0  0  0  0  0  0  0  0  0  0
   -3.2980   -1.1760    0.8460 C   0  0  0  0  0  0  0  0  0  0  0  0
   -4.4450   -1.6460    0.4280 O   0  0  0  0  0  0  0  0  0  0  0  0
   -2.6760    1.2530    1.0290 C   0  0  0  0  0  0  0  0  0  0  0  0
   -1.5540    2.1270    0.9490 C   0  0  0  0  0  0  0  0  0  0  0  0
   -1.7060    3.3460    1.5610 O   0  0  0  0  0  0  0  0  0  0  0  0
   -0.3690    1.7950    0.3070 C   0  0  0  0  0  0  0  0  0  0  0  0
    0.6990    2.6880    0.2930 O   0  0  0  0  0  0  0  0  0  0  0  0
   -0.2810    0.5880   -0.2980 C   0  0  0  0  0  0  0  0  0  0  0  0
    0.8840    0.1290   -1.0130 C   0  0  0  0  0  0  0  0  0  0  0  0
    2.0690   -0.0890   -0.5400 C   0  0  0  0  0  0  0  0  0  0  0  0
    2.4610    0.0840    0.8660 C   0  0  0  0  0  0  0  0  0  0  0  0
    3.6390   -0.2260    1.3360 C   0  0  0  0  0  0  0  0  0  0  0  0
    3.9630    0.0610    3.0250 Cl  0  0  0  0  0  0  0  0  0  0  0  0
    4.6520   -0.7600    0.4320 C   0  0  0  0  0  0  0  0  0  0  0  0
    4.3930   -0.9500   -0.8670 C   0  0  0  0  0  0  0  0  0  0  0  0
    3.0850   -0.6330   -1.4510 C   0  0  0  0  0  0  0  0  0  0  0  0
    2.8400   -0.8210   -2.6670 O   0  0  0  0  0  0  0  0  0  0  0  0
  1  2  1  0
  2  3  1  0
  3  4  2  0
  3 12  1  0
  4  5  1  0
  4  7  1  0
  5  6  1  0
  7  8  2  0
  8  9  1  0
  8 10  1  0
 10 11  1  0
 10 12  2  0
 12 13  1  0
 13 14  2  3
 14 15  1  0
 14 20  1  0
 15 16  2  0
 16 17  1  0
 16 18  1  0
 18 19  2  0
 19 20  1  0
 20 21  2  0
M  END
