
     RDKit          3D

 22 24  0  0  0  0  0  0  0  0999 V2000
   -1.3630    4.0840    1.3150 C   0  0  0  0  0  0  0  0  0  0  0  0
   -1.7570    2.9030    0.6360 O   0  0  0  0  0  0  0  0  0  0  0  0
   -0.8630    2.0810   -0.0350 C   0  0  0  0  0  0  0  0  0  0  0  0
    0.3490    2.4180   -0.0270 O   0  0  0  0  0  0  0  0  0  0  0  0
   -1.3820    0.8670   -0.7150 C   0  0  1  0  0  0  0  0  0  0  0  0
   -0.3180    0.0770   -1.3940 C   0  0  1  0  0  0  0  0  0  0  0  0
    0.8250   -0.1540   -0.6170 O   0  0  0  0  0  0  0  0  0  0  0  0
    2.1060    0.2230   -0.9780 C   0  0  0  0  0  0  0  0  0  0  0  0
    2.2390    0.8100   -2.0770 O   0  0  0  0  0  0  0  0  0  0  0  0
    3.2740   -0.0270   -0.1560 C   0  0  0  0  0  0  0  0  0  0  0  0
    4.5020    0.3910   -0.6130 C   0  0  0  0  0  0  0  0  0  0  0  0
    5.6800    0.2140    0.0710 C   0  0  0  0  0  0  0  0  0  0  0  0
    5.5960   -0.4320    1.2970 C   0  0  0  0  0  0  0  0  0  0  0  0
    4.3840   -0.8690    1.7960 C   0  0  0  0  0  0  0  0  0  0  0  0
    3.2260   -0.6610    1.0590 C   0  0  0  0  0  0  0  0  0  0  0  0
   -0.8920   -1.2590   -1.8010 C   0  0  0  0  0  0  0  0  0  0  0  0
   -1.7370   -1.8950   -0.7490 C   0  0  2  0  0  0  0  0  0  0  0  0
   -3.2270   -1.6780   -1.0480 C   0  0  0  0  0  0  0  0  0  0  0  0
   -3.5250   -0.3480   -0.4380 C   0  0  0  0  0  0  0  0  0  0  0  0
   -2.2360    0.0580    0.2290 C   0  0  1  0  0  0  0  0  0  0  0  0
   -1.6340   -1.2210    0.5370 N   0  0  1  0  0  0  0  0  0  0  0  0
   -2.4320   -1.9320    1.4840 C   0  0  0  0  0  0  0  0  0  0  0  0
  1  2  1  0
  2  3  1  0
  3  4  2  0
  5  3  1  1
  5  6  1  0
  5 20  1  0
  6  7  1  1
  6 16  1  0
  7  8  1  0
  8  9  2  0
  8 10  1  0
 10 11  2  0
 10 15  1  0
 11 12  1  0
 12 13  2  0
 13 14  1  0
 14 15  2  0
 17 16  1  6
 17 18  1  0
 17 21  1  0
 18 19  1  0
 20 19  1  6
 20 21  1  0
 21 22  1  1
M  CHG  1  21   1
M  END
