
     RDKit          3D

 11 12  0  0  0  0  0  0  0  0999 V2000
   -2.7240   -2.6170    0.0870 Cl  0  0  0  0  0  0  0  0  0  0  0  0
   -1.5150   -1.3410    0.0510 C   0  0  0  0  0  0  0  0  0  0  0  0
   -1.9120   -0.0190    0.1030 C   0  0  0  0  0  0  0  0  0  0  0  0
   -1.0090    1.0240    0.0780 C   0  0  0  0  0  0  0  0  0  0  0  0
    0.3500    0.7380   -0.0020 C   0  0  0  0  0  0  0  0  0  0  0  0
    1.4610    1.5110   -0.0440 N   0  0  0  0  0  0  0  0  0  0  0  0
    2.5070    0.7050   -0.1190 N   0  0  0  0  0  0  0  0  0  0  0  0
    2.1060   -0.5770   -0.1270 C   0  0  0  0  0  0  0  0  0  0  0  0
    3.0740   -2.0400   -0.2130 Cl  0  0  0  0  0  0  0  0  0  0  0  0
    0.7120   -0.5930   -0.0520 C   0  0  0  0  0  0  0  0  0  0  0  0
   -0.1970   -1.5980   -0.0260 N   0  0  0  0  0  0  0  0  0  0  0  0
  1  2  1  0
  2  3  2  0
  2 11  1  0
  3  4  1  0
  4  5  2  0
  5  6  1  0
  5 10  1  0
  6  7  1  0
  7  8  2  0
  8  9  1  0
  8 10  1  0
 10 11  2  0
M  END
