
     RDKit          3D

 11 12  0  0  0  0  0  0  0  0999 V2000
    3.3790    1.2230   -0.3370 Cl  0  0  0  0  0  0  0  0  0  0  0  0
    1.8710    0.3680   -0.1530 C   0  0  0  0  0  0  0  0  0  0  0  0
    0.6800    1.0690   -0.1580 C   0  0  0  0  0  0  0  0  0  0  0  0
   -0.4930    0.3470   -0.0090 C   0  0  0  0  0  0  0  0  0  0  0  0
   -1.7880    0.7470    0.0250 N   0  0  0  0  0  0  0  0  0  0  0  0
   -2.5310   -0.3590    0.1910 C   0  0  0  0  0  0  0  0  0  0  0  0
   -1.7140   -1.4190    0.2590 N   0  0  0  0  0  0  0  0  0  0  0  0
   -0.4320   -1.0230    0.1380 C   0  0  0  0  0  0  0  0  0  0  0  0
    0.7600   -1.6790    0.1390 N   0  0  0  0  0  0  0  0  0  0  0  0
    1.9210   -1.0090   -0.0040 C   0  0  0  0  0  0  0  0  0  0  0  0
    3.4730   -1.8280   -0.0070 Cl  0  0  0  0  0  0  0  0  0  0  0  0
  1  2  1  0
  2  3  2  0
  2 10  1  0
  3  4  1  0
  4  5  1  0
  4  8  2  0
  5  6  1  0
  6  7  2  0
  7  8  1  0
  8  9  1  0
  9 10  2  0
 10 11  1  0
M  END
