
     RDKit          3D

 11 12  0  0  0  0  0  0  0  0999 V2000
    2.6220    2.1910   -1.1040 Cl  0  0  0  0  0  0  0  0  0  0  0  0
    1.9040    0.7760   -0.3250 C   0  0  0  0  0  0  0  0  0  0  0  0
    0.6130    0.5410   -0.2020 C   0  0  0  0  0  0  0  0  0  0  0  0
   -0.5770    1.2230   -0.5850 N   0  0  0  0  0  0  0  0  0  0  0  0
   -1.8930    0.7070   -0.2720 C   0  0  0  0  0  0  0  0  0  0  0  0
   -1.8930   -0.8050   -0.1860 C   0  0  0  0  0  0  0  0  0  0  0  0
   -0.8710   -1.2000    0.7540 N   0  0  0  0  0  0  0  0  0  0  0  0
   -1.2230   -2.1970    2.1240 Cl  0  0  0  0  0  0  0  0  0  0  0  0
    0.4650   -0.7240    0.4970 C   0  0  0  0  0  0  0  0  0  0  0  0
    1.6060   -1.2290    0.7830 N   0  0  0  0  0  0  0  0  0  0  0  0
    2.6310   -0.3480    0.3010 C   0  0  0  0  0  0  0  0  0  0  0  0
  1  2  1  0
  2  3  2  0
  2 11  1  0
  3  4  1  0
  3  9  1  0
  4  5  1  0
  5  6  1  0
  6  7  1  0
  7  8  1  0
  7  9  1  0
  9 10  2  0
 10 11  1  0
M  END
