
     RDKit          3D

 11 12  0  0  0  0  0  0  0  0999 V2000
    3.1550   -2.1570    0.2460 Cl  0  0  0  0  0  0  0  0  0  0  0  0
    1.7700   -1.0860    0.1300 C   0  0  0  0  0  0  0  0  0  0  0  0
    2.0310    0.2720    0.0490 C   0  0  0  0  0  0  0  0  0  0  0  0
    0.9770    1.1670   -0.0450 C   0  0  0  0  0  0  0  0  0  0  0  0
    1.2240    2.8950   -0.1500 Cl  0  0  0  0  0  0  0  0  0  0  0  0
   -0.3130    0.7010   -0.0570 C   0  0  0  0  0  0  0  0  0  0  0  0
   -1.5190    1.2860   -0.1350 N   0  0  0  0  0  0  0  0  0  0  0  0
   -2.4870    0.3930   -0.1080 N   0  0  0  0  0  0  0  0  0  0  0  0
   -1.9020   -0.8110   -0.0100 C   0  0  0  0  0  0  0  0  0  0  0  0
   -0.5280   -0.6640    0.0260 C   0  0  0  0  0  0  0  0  0  0  0  0
    0.5010   -1.5340    0.1180 N   0  0  0  0  0  0  0  0  0  0  0  0
  1  2  1  0
  2  3  1  0
  2 11  2  0
  3  4  2  0
  4  5  1  0
  4  6  1  0
  6  7  2  0
  6 10  1  0
  7  8  1  0
  8  9  1  0
  9 10  2  0
 10 11  1  0
M  END
