
     RDKit          3D

 11 12  0  0  0  0  0  0  0  0999 V2000
    3.9900   -0.0730   -0.2320 Cl  0  0  0  0  0  0  0  0  0  0  0  0
    2.2560    0.0760   -0.1120 C   0  0  0  0  0  0  0  0  0  0  0  0
    1.3940   -0.9900   -0.2400 C   0  0  0  0  0  0  0  0  0  0  0  0
    0.0300   -0.8260   -0.1380 C   0  0  0  0  0  0  0  0  0  0  0  0
   -1.0420   -1.6490   -0.2150 N   0  0  0  0  0  0  0  0  0  0  0  0
   -2.1610   -0.9740   -0.0420 N   0  0  0  0  0  0  0  0  0  0  0  0
   -1.8690    0.3200    0.1560 C   0  0  0  0  0  0  0  0  0  0  0  0
   -0.4960    0.4310    0.0980 C   0  0  0  0  0  0  0  0  0  0  0  0
    0.3910    1.4890    0.2240 C   0  0  0  0  0  0  0  0  0  0  0  0
   -0.2920    3.0680    0.5220 Cl  0  0  0  0  0  0  0  0  0  0  0  0
    1.7070    1.2800    0.1170 N   0  0  0  0  0  0  0  0  0  0  0  0
  1  2  1  0
  2  3  2  0
  2 11  1  0
  3  4  1  0
  4  5  2  0
  4  8  1  0
  5  6  1  0
  6  7  1  0
  7  8  2  0
  8  9  1  0
  9 10  1  0
  9 11  2  0
M  END
