
     RDKit          3D

 13 12  0  0  0  0  0  0  0  0999 V2000
    3.9510    0.6970   -0.5420 C   0  0  0  0  0  0  0  0  0  0  0  0
    3.0500   -0.1770   -0.1710 C   0  0  0  0  0  0  0  0  0  0  0  0
    3.3540   -1.6160   -0.1430 C   0  0  0  0  0  0  0  0  0  0  0  0
    5.0340   -1.8460   -0.6720 Cl  0  0  0  0  0  0  0  0  0  0  0  0
    1.7680    0.2630    0.2090 N   0  0  0  0  0  0  0  0  0  0  0  0
    0.5370   -0.2850   -0.3540 C   0  0  0  0  0  0  0  0  0  0  0  0
   -0.5970    0.4470    0.3050 C   0  0  2  0  0  0  0  0  0  0  0  0
   -0.4260    1.9100    0.1080 C   0  0  0  0  0  0  0  0  0  0  0  0
   -0.4690    0.1890    1.6920 O   0  0  0  0  0  0  0  0  0  0  0  0
   -1.9500   -0.0670   -0.0840 C   0  0  1  0  0  0  0  0  0  0  0  0
   -2.2230    0.0310   -1.5620 C   0  0  0  0  0  0  0  0  0  0  0  0
   -2.1120   -1.4910    0.3480 C   0  0  0  0  0  0  0  0  0  0  0  0
   -2.9840    0.7690    0.6420 C   0  0  0  0  0  0  0  0  0  0  0  0
  1  2  2  0
  2  3  1  0
  2  5  1  0
  3  4  1  0
  5  6  1  0
  6  7  1  0
  7  8  1  1
  7  9  1  0
  7 10  1  0
 10 11  1  6
 10 12  1  0
 10 13  1  0
M  END
