
     RDKit          3D

 13 13  0  0  0  0  0  0  0  0999 V2000
   -0.6120    3.0430    0.0640 C   0  0  0  0  0  0  0  0  0  0  0  0
   -1.2130    2.1630   -0.6960 C   0  0  0  0  0  0  0  0  0  0  0  0
   -1.8230    2.6370   -1.9110 N   0  0  0  0  0  0  0  0  0  0  0  0
   -1.3120    0.7450   -0.4210 C   0  0  0  0  0  0  0  0  0  0  0  0
   -1.9470   -0.0420   -1.2560 C   0  0  0  0  0  0  0  0  0  0  0  0
   -2.1030   -1.4990   -1.0620 C   0  0  0  0  0  0  0  0  0  0  0  0
   -1.3580   -2.4250   -2.4030 Cl  0  0  0  0  0  0  0  0  0  0  0  0
   -0.7510    0.1730    0.7070 O   0  0  0  0  0  0  0  0  0  0  0  0
    0.6130   -0.0670    0.8070 C   0  0  1  0  0  0  0  0  0  0  0  0
    1.0220   -0.6940    2.1190 C   0  0  0  0  0  0  0  0  0  0  0  0
    2.2040   -1.5910    1.8240 C   0  0  0  0  0  0  0  0  0  0  0  0
    2.5600   -1.2340    0.3990 C   0  0  0  0  0  0  0  0  0  0  0  0
    1.1420   -1.0950   -0.1920 C   0  0  0  0  0  0  0  0  0  0  0  0
  1  2  2  0
  2  3  1  0
  2  4  1  0
  4  5  2  3
  4  8  1  0
  5  6  1  0
  6  7  1  0
  9  8  1  1
  9 10  1  0
  9 13  1  0
 10 11  1  0
 11 12  1  0
 12 13  1  0
M  END
