
     RDKit          3D

 13 13  0  0  0  0  0  0  0  0999 V2000
   -2.2460   -2.2070   -0.1800 C   0  0  0  0  0  0  0  0  0  0  0  0
   -1.7820   -0.9910    0.1450 C   0  0  0  0  0  0  0  0  0  0  0  0
   -0.3690   -0.7460   -0.0220 C   0  0  0  0  0  0  0  0  0  0  0  0
    0.2930    0.3550    0.2320 C   0  0  0  0  0  0  0  0  0  0  0  0
   -0.2020    1.6280    0.7430 C   0  0  0  0  0  0  0  0  0  0  0  0
    0.9600    2.6160    0.7090 C   0  0  0  0  0  0  0  0  0  0  0  0
    1.9590    1.9460   -0.1150 N   0  0  0  0  0  0  0  0  0  0  0  0
    1.7530    0.5290    0.0650 C   0  0  0  0  0  0  0  0  0  0  0  0
    2.7300   -0.3480    0.1040 C   0  0  0  0  0  0  0  0  0  0  0  0
    2.6010   -1.7990    0.3420 C   0  0  0  0  0  0  0  0  0  0  0  0
    4.4060    0.2090   -0.1770 Cl  0  0  0  0  0  0  0  0  0  0  0  0
   -2.7570   -0.0190    0.6680 C   0  0  0  0  0  0  0  0  0  0  0  0
   -4.0380   -0.6220    0.7200 O   0  0  0  0  0  0  0  0  0  0  0  0
  1  2  2  0
  2  3  1  0
  2 12  1  0
  3  4  2  3
  4  5  1  0
  4  8  1  0
  5  6  1  0
  6  7  1  0
  7  8  1  0
  8  9  2  3
  9 10  1  0
  9 11  1  0
 12 13  1  0
M  END
