
     RDKit          3D

 24 26  0  0  0  0  0  0  0  0999 V2000
   -5.8370    0.0220   -0.3750 C   0  0  0  0  0  0  0  0  0  0  0  0
   -5.1790   -0.9980    0.5170 C   0  0  0  0  0  0  0  0  0  0  0  0
   -3.7150   -0.6300    0.6920 C   0  0  0  0  0  0  0  0  0  0  0  0
   -3.0770   -0.6280   -0.6550 C   0  0  0  0  0  0  0  0  0  0  0  0
   -1.6480   -0.3250   -0.7300 C   0  0  1  0  0  0  0  0  0  0  0  0
   -1.1750    0.9590   -0.2390 C   0  0  0  0  0  0  0  0  0  0  0  0
   -1.8040    1.9780    0.0350 O   0  0  0  0  0  0  0  0  0  0  0  0
    0.2500    0.7920   -0.1320 N   0  0  0  0  0  0  0  0  0  0  0  0
    1.2190    1.8390   -0.1910 C   0  0  0  0  0  0  0  0  0  0  0  0
    1.3140    2.7590    0.8450 C   0  0  0  0  0  0  0  0  0  0  0  0
    2.2220    3.7970    0.8340 C   0  0  0  0  0  0  0  0  0  0  0  0
    3.0990    3.9710   -0.2340 C   0  0  0  0  0  0  0  0  0  0  0  0
    3.0000    3.0530   -1.2650 C   0  0  0  0  0  0  0  0  0  0  0  0
    2.0860    2.0160   -1.2460 C   0  0  0  0  0  0  0  0  0  0  0  0
    0.5410   -0.5660    0.0400 N   0  0  0  0  0  0  0  0  0  0  0  0
    1.7940   -1.2320    0.1880 C   0  0  0  0  0  0  0  0  0  0  0  0
    2.1400   -1.8170    1.3900 C   0  0  0  0  0  0  0  0  0  0  0  0
    3.3260   -2.4760    1.5860 C   0  0  0  0  0  0  0  0  0  0  0  0
    4.2560   -2.5940    0.5810 C   0  0  0  0  0  0  0  0  0  0  0  0
    5.4600   -3.2450    0.7370 O   0  0  0  0  0  0  0  0  0  0  0  0
    3.9410   -2.0180   -0.6330 C   0  0  0  0  0  0  0  0  0  0  0  0
    2.7280   -1.3520   -0.8130 C   0  0  0  0  0  0  0  0  0  0  0  0
   -0.7490   -1.2360    0.0360 C   0  0  0  0  0  0  0  0  0  0  0  0
   -0.9950   -2.3440    0.5790 O   0  0  0  0  0  0  0  0  0  0  0  0
  1  2  1  0
  2  3  1  0
  3  4  1  0
  5  4  1  1
  5  6  1  0
  5 23  1  0
  6  7  2  0
  6  8  1  0
  8  9  1  0
  8 15  1  0
  9 10  2  0
  9 14  1  0
 10 11  1  0
 11 12  2  0
 12 13  1  0
 13 14  2  0
 15 16  1  0
 15 23  1  0
 16 17  2  0
 16 22  1  0
 17 18  1  0
 18 19  2  0
 19 20  1  0
 19 21  1  0
 21 22  2  0
 23 24  2  0
M  END
