
     RDKit          3D

 13 13  0  0  0  0  0  0  0  0999 V2000
   -4.0500    0.2530    0.1340 C   0  0  0  0  0  0  0  0  0  0  0  0
   -3.3770    0.3450   -1.2170 C   0  0  0  0  0  0  0  0  0  0  0  0
   -1.9980    0.7100   -1.1200 N   0  0  0  0  0  0  0  0  0  0  0  0
   -1.0980   -0.1170   -0.3950 C   0  0  0  0  0  0  0  0  0  0  0  0
   -1.5140   -1.1660    0.1590 O   0  0  0  0  0  0  0  0  0  0  0  0
    0.3130    0.2130   -0.2680 C   0  0  0  0  0  0  0  0  0  0  0  0
    1.1400   -0.5630    0.4080 C   0  0  0  0  0  0  0  0  0  0  0  0
    2.5550   -0.2360    0.5370 C   0  0  0  0  0  0  0  0  0  0  0  0
    3.4760   -0.9310    1.1850 C   0  0  0  0  0  0  0  0  0  0  0  0
    4.7730   -0.2620    1.0740 C   0  0  0  0  0  0  0  0  0  0  0  0
    6.3120   -0.8510    1.6230 Cl  0  0  0  0  0  0  0  0  0  0  0  0
    4.4870    0.8780    0.4640 C   0  0  0  0  0  0  0  0  0  0  0  0
    3.2550    0.9210   -0.0180 C   0  0  0  0  0  0  0  0  0  0  0  0
  1  2  1  0
  2  3  1  0
  3  4  1  0
  4  5  2  0
  4  6  1  0
  6  7  2  3
  7  8  1  0
  8  9  2  0
  8 13  1  0
  9 10  1  0
 10 11  1  0
 10 12  2  0
 12 13  2  0
M  END
