
     RDKit          3D

 13 12  0  0  0  0  0  0  0  0999 V2000
    4.0520    0.7760   -1.7130 C   0  0  0  0  0  0  0  0  0  0  0  0
    3.5230    0.6480   -0.5210 C   0  0  0  0  0  0  0  0  0  0  0  0
    4.2510    0.0230    0.6130 C   0  0  0  0  0  0  0  0  0  0  0  0
    2.1440    1.1440   -0.2830 C   0  0  0  0  0  0  0  0  0  0  0  0
    1.2700    0.0720    0.1430 N   0  0  0  0  0  0  0  0  0  0  0  0
   -0.0870    0.3400    0.4210 C   0  0  0  0  0  0  0  0  0  0  0  0
   -0.9810   -0.6180    0.2570 C   0  0  0  0  0  0  0  0  0  0  0  0
   -2.3690   -0.3450    0.5420 C   0  0  0  0  0  0  0  0  0  0  0  0
   -3.3310   -1.2280    0.4110 C   0  0  0  0  0  0  0  0  0  0  0  0
   -3.1390   -2.6240   -0.0440 C   0  0  0  0  0  0  0  0  0  0  0  0
   -4.0880   -2.8860   -1.5260 Cl  0  0  0  0  0  0  0  0  0  0  0  0
   -2.7150    0.9310    0.9830 O   0  0  0  0  0  0  0  0  0  0  0  0
   -3.5680    1.6760    0.1110 C   0  0  0  0  0  0  0  0  0  0  0  0
  1  2  2  0
  2  3  1  0
  2  4  1  0
  4  5  1  0
  5  6  1  0
  6  7  2  3
  7  8  1  0
  8  9  2  3
  8 12  1  0
  9 10  1  0
 10 11  1  0
 12 13  1  0
M  END
