
     RDKit          3D

 13 13  0  0  0  0  0  0  0  0999 V2000
   -0.1900    1.8920   -2.0750 C   0  0  0  0  0  0  0  0  0  0  0  0
   -1.0120    1.9150   -1.0430 C   0  0  0  0  0  0  0  0  0  0  0  0
   -1.7810    3.4770   -0.6660 Cl  0  0  0  0  0  0  0  0  0  0  0  0
   -1.2730    0.7810   -0.1950 C   0  0  0  0  0  0  0  0  0  0  0  0
   -0.6450   -0.5420   -0.3210 C   0  0  0  0  0  0  0  0  0  0  0  0
    0.7050   -0.7060    0.2630 C   0  0  2  0  0  0  0  0  0  0  0  0
    1.8320    0.1260   -0.2320 C   0  0  0  0  0  0  0  0  0  0  0  0
    3.0080   -0.7300    0.3440 C   0  0  0  0  0  0  0  0  0  0  0  0
    2.6330   -1.9990   -0.2500 N   0  0  0  0  0  0  0  0  0  0  0  0
    1.2400   -2.1380    0.0930 C   0  0  0  0  0  0  0  0  0  0  0  0
   -2.1730    0.9430    0.7910 C   0  0  0  0  0  0  0  0  0  0  0  0
   -2.4700   -0.1930    1.6780 C   0  0  0  0  0  0  0  0  0  0  0  0
   -2.7790    2.1740    0.9220 O   0  0  0  0  0  0  0  0  0  0  0  0
  1  2  2  0
  2  3  1  0
  2  4  1  0
  4  5  1  0
  4 11  2  3
  6  5  1  6
  6  7  1  0
  6 10  1  0
  7  8  1  0
  8  9  1  0
  9 10  1  0
 11 12  1  0
 11 13  1  0
M  END
