
     RDKit          3D

 12 12  0  0  0  0  0  0  0  0999 V2000
   -0.6860    2.1380   -0.6930 C   0  0  0  0  0  0  0  0  0  0  0  0
   -0.7950    0.7300   -1.2800 C   0  0  0  0  0  0  0  0  0  0  0  0
   -0.9360   -0.2500   -0.1420 C   0  0  2  0  0  0  0  0  0  0  0  0
    0.0680   -0.2460    0.6890 O   0  0  0  0  0  0  0  0  0  0  0  0
    1.3300   -0.5530    0.6040 C   0  0  0  0  0  0  0  0  0  0  0  0
    2.3010    0.1390   -0.2920 C   0  0  1  0  0  0  0  0  0  0  0  0
    2.5330    1.5740    0.0650 C   0  0  0  0  0  0  0  0  0  0  0  0
    3.6090   -0.5520   -0.0460 N   0  0  0  0  0  0  0  0  0  0  0  0
   -1.3890   -1.6000   -0.6550 C   0  0  0  0  0  0  0  0  0  0  0  0
   -2.3780   -2.1050    0.3760 C   0  0  0  0  0  0  0  0  0  0  0  0
   -3.2050   -0.8570    0.5690 C   0  0  0  0  0  0  0  0  0  0  0  0
   -2.1840    0.2290    0.6320 C   0  0  0  0  0  0  0  0  0  0  0  0
  1  2  1  0
  3  2  1  6
  3  4  1  0
  3  9  1  0
  3 12  1  0
  4  5  1  0
  5  6  1  0
  6  7  1  1
  6  8  1  0
  9 10  1  0
 10 11  1  0
 11 12  1  0
M  CHG  1   8   1
M  END
