
     RDKit          3D

 21 22  0  0  0  0  0  0  0  0999 V2000
   -0.9540    0.9110    0.7250 C   0  0  0  0  0  0  0  0  0  0  0  0
   -1.7390    0.0550   -0.1860 C   0  0  0  0  0  0  0  0  0  0  0  0
   -2.6360    0.6800   -1.0560 C   0  0  0  0  0  0  0  0  0  0  0  0
   -2.7980    2.0570   -1.1040 O   0  0  0  0  0  0  0  0  0  0  0  0
   -3.4060   -0.0720   -1.9160 C   0  0  0  0  0  0  0  0  0  0  0  0
   -4.3050    0.5490   -2.7880 O   0  0  0  0  0  0  0  0  0  0  0  0
   -3.2520   -1.4410   -1.8760 C   0  0  0  0  0  0  0  0  0  0  0  0
   -2.3690   -2.0610   -1.0200 C   0  0  0  0  0  0  0  0  0  0  0  0
   -2.1730   -3.9600   -0.9830 Br  0  0  0  0  0  0  0  0  0  0  0  0
   -1.5780   -1.3080   -0.1390 C   0  0  0  0  0  0  0  0  0  0  0  0
   -0.6920   -1.8730    0.7200 O   0  0  0  0  0  0  0  0  0  0  0  0
    0.6230   -2.2330    0.6000 C   0  0  0  0  0  0  0  0  0  0  0  0
    1.4600   -1.0540    0.2680 C   0  0  0  0  0  0  0  0  0  0  0  0
    2.1810   -0.2760    1.1710 C   0  0  0  0  0  0  0  0  0  0  0  0
    2.8150    0.7080    0.4580 C   0  0  0  0  0  0  0  0  0  0  0  0
    3.6860    1.7690    0.9390 C   0  0  0  0  0  0  0  0  0  0  0  0
    4.1970    2.6000    0.1790 O   0  0  0  0  0  0  0  0  0  0  0  0
    3.9770    1.8840    2.3040 O   0  0  0  0  0  0  0  0  0  0  0  0
    2.4740    0.5150   -0.8500 C   0  0  0  0  0  0  0  0  0  0  0  0
    2.9750    1.4650   -2.2730 S   0  0  0  0  0  0  0  0  0  0  0  0
    1.6830   -0.5240   -0.9060 O   0  0  0  0  0  0  0  0  0  0  0  0
  1  2  1  0
  2  3  2  0
  2 10  1  0
  3  4  1  0
  3  5  1  0
  5  6  1  0
  5  7  2  0
  7  8  1  0
  8  9  1  0
  8 10  2  0
 10 11  1  0
 11 12  1  0
 12 13  1  0
 13 14  2  0
 13 21  1  0
 14 15  1  0
 15 16  1  0
 15 19  2  0
 16 17  2  0
 16 18  1  0
 19 20  1  0
 19 21  1  0
M  END
