
     RDKit          3D

 21 22  0  0  0  0  0  0  0  0999 V2000
    2.5800   -0.7200    0.7520 O   0  0  0  0  0  0  0  0  0  0  0  0
    2.9390    0.2380    0.0490 C   0  0  0  0  0  0  0  0  0  0  0  0
    2.0180    1.1660   -0.3370 O   0  0  0  0  0  0  0  0  0  0  0  0
    0.6630    1.1530   -0.0120 C   0  0  0  0  0  0  0  0  0  0  0  0
    0.0360   -0.0080   -0.4890 O   0  0  0  0  0  0  0  0  0  0  0  0
   -1.2970   -0.2940   -0.3180 C   0  0  0  0  0  0  0  0  0  0  0  0
   -2.1780    0.5340    0.3470 C   0  0  0  0  0  0  0  0  0  0  0  0
   -3.5040    0.2160    0.4990 C   0  0  0  0  0  0  0  0  0  0  0  0
   -4.4240    1.1390    1.2260 C   0  0  0  0  0  0  0  0  0  0  0  0
   -5.0240    2.0590    0.3960 O   0  0  0  0  0  0  0  0  0  0  0  0
   -4.0010   -0.9490   -0.0120 C   0  0  0  0  0  0  0  0  0  0  0  0
   -3.1590   -1.8130   -0.6870 C   0  0  0  0  0  0  0  0  0  0  0  0
   -3.6480   -3.0020   -1.2120 O   0  0  0  0  0  0  0  0  0  0  0  0
   -1.8110   -1.4670   -0.8290 C   0  0  0  0  0  0  0  0  0  0  0  0
   -0.9440   -2.3260   -1.5070 O   0  0  0  0  0  0  0  0  0  0  0  0
    4.3890    0.3300   -0.3490 C   0  0  0  0  0  0  0  0  0  0  0  0
    4.7770    1.4170   -1.1420 C   0  0  0  0  0  0  0  0  0  0  0  0
    6.5590    1.1970   -1.4150 S   0  0  0  0  0  0  0  0  0  0  0  0
    6.6180   -0.3650   -0.4190 C   0  0  0  0  0  0  0  0  0  0  0  0
    5.3580   -0.5330   -0.0160 C   0  0  0  0  0  0  0  0  0  0  0  0
    4.9530   -2.1060    1.0950 Br  0  0  0  0  0  0  0  0  0  0  0  0
  1  2  2  0
  2  3  1  0
  2 16  1  0
  3  4  1  0
  4  5  1  0
  5  6  1  0
  6  7  2  0
  6 14  1  0
  7  8  1  0
  8  9  1  0
  8 11  2  0
  9 10  1  0
 11 12  1  0
 12 13  1  0
 12 14  2  0
 14 15  1  0
 16 17  2  0
 16 20  1  0
 17 18  1  0
 18 19  1  0
 19 20  2  0
 20 21  1  0
M  END
