
     RDKit          3D

 21 22  0  0  0  0  0  0  0  0999 V2000
   -0.5430    0.2620   -3.0080 O   0  0  0  0  0  0  0  0  0  0  0  0
   -1.7740    0.2950   -2.7610 C   0  0  0  0  0  0  0  0  0  0  0  0
   -2.2440    0.2110   -1.3800 C   0  0  0  0  0  0  0  0  0  0  0  0
   -3.5910    0.2460   -1.0880 C   0  0  0  0  0  0  0  0  0  0  0  0
   -4.0500    0.1670    0.2170 C   0  0  0  0  0  0  0  0  0  0  0  0
   -5.4140    0.2010    0.5270 O   0  0  0  0  0  0  0  0  0  0  0  0
   -3.1600    0.0500    1.2800 C   0  0  0  0  0  0  0  0  0  0  0  0
   -3.6370   -0.0280    2.5940 O   0  0  0  0  0  0  0  0  0  0  0  0
   -1.8230    0.0180    0.9680 C   0  0  0  0  0  0  0  0  0  0  0  0
   -0.5630   -0.1410    2.3880 Br  0  0  0  0  0  0  0  0  0  0  0  0
   -1.3620    0.0960   -0.3280 C   0  0  0  0  0  0  0  0  0  0  0  0
    0.0810    0.0590   -0.6430 C   0  0  0  0  0  0  0  0  0  0  0  0
    0.7580    1.1110   -0.7010 O   0  0  0  0  0  0  0  0  0  0  0  0
    0.7300   -1.1340   -0.8830 O   0  0  0  0  0  0  0  0  0  0  0  0
    2.0980   -1.2120   -1.1850 C   0  0  0  0  0  0  0  0  0  0  0  0
    2.9170   -0.6420   -0.0650 C   0  0  0  0  0  0  0  0  0  0  0  0
    3.4190   -1.3010    1.0230 C   0  0  0  0  0  0  0  0  0  0  0  0
    4.0980   -0.3360    1.7560 C   0  0  0  0  0  0  0  0  0  0  0  0
    3.9740    0.8600    1.0780 C   0  0  0  0  0  0  0  0  0  0  0  0
    4.6660    2.4440    1.5870 S   0  0  0  0  0  0  0  0  0  0  0  0
    3.2670    0.6020    0.0170 O   0  0  0  0  0  0  0  0  0  0  0  0
  1  2  2  0
  2  3  1  0
  3  4  2  0
  3 11  1  0
  4  5  1  0
  5  6  1  0
  5  7  2  0
  7  8  1  0
  7  9  1  0
  9 10  1  0
  9 11  2  0
 11 12  1  0
 12 13  2  0
 12 14  1  0
 14 15  1  0
 15 16  1  0
 16 17  2  0
 16 21  1  0
 17 18  1  0
 18 19  2  0
 19 20  1  0
 19 21  1  0
M  END
