
     RDKit          3D

 21 22  0  0  0  0  0  0  0  0999 V2000
   -3.8760    1.1100   -2.0250 C   0  0  0  0  0  0  0  0  0  0  0  0
   -3.7110   -0.2550   -1.5530 O   0  0  0  0  0  0  0  0  0  0  0  0
   -2.6360   -0.5080   -0.7750 C   0  0  0  0  0  0  0  0  0  0  0  0
   -3.0540    0.0300    0.6190 C   0  0  0  0  0  0  0  0  0  0  0  0
   -4.3320    0.5140    0.6400 O   0  0  0  0  0  0  0  0  0  0  0  0
   -2.1700   -0.0350    1.6050 C   0  0  0  0  0  0  0  0  0  0  0  0
   -2.6770    0.5380    2.9000 O   0  0  0  0  0  0  0  0  0  0  0  0
   -0.9390   -0.5130    1.5620 C   0  0  0  0  0  0  0  0  0  0  0  0
   -0.4960   -1.0540    0.2640 C   0  0  0  0  0  0  0  0  0  0  0  0
    0.7320   -1.8110    0.2270 C   0  0  0  0  0  0  0  0  0  0  0  0
    1.9000   -1.0800    0.2710 O   0  0  0  0  0  0  0  0  0  0  0  0
    2.6280   -0.2690   -0.5080 C   0  0  0  0  0  0  0  0  0  0  0  0
    2.1790   -0.0390   -1.7160 O   0  0  0  0  0  0  0  0  0  0  0  0
    3.9240    0.3910   -0.0720 C   0  0  0  0  0  0  0  0  0  0  0  0
    5.1250   -0.1740   -0.0720 C   0  0  0  0  0  0  0  0  0  0  0  0
    6.1950    0.4770    0.4350 C   0  0  0  0  0  0  0  0  0  0  0  0
    5.5020    2.0490    0.9640 S   0  0  0  0  0  0  0  0  0  0  0  0
    3.7780    1.6600    0.4510 C   0  0  0  0  0  0  0  0  0  0  0  0
    2.2610    2.7630    0.7250 Br  0  0  0  0  0  0  0  0  0  0  0  0
   -1.4300   -0.9740   -0.7230 C   0  0  0  0  0  0  0  0  0  0  0  0
   -0.9200   -1.5750   -2.0160 O   0  0  0  0  0  0  0  0  0  0  0  0
  1  2  1  0
  2  3  1  0
  3  4  2  0
  3 20  1  0
  4  5  1  0
  4  6  1  0
  6  7  1  0
  6  8  2  0
  8  9  1  0
  9 10  1  0
  9 20  2  0
 10 11  1  0
 11 12  1  0
 12 13  2  0
 12 14  1  0
 14 15  1  0
 14 18  2  0
 15 16  2  0
 16 17  1  0
 17 18  1  0
 18 19  1  0
 20 21  1  0
M  END
