
     RDKit          3D

 21 22  0  0  0  0  0  0  0  0999 V2000
    3.4940    4.0620    0.1690 C   0  0  0  0  0  0  0  0  0  0  0  0
    3.4560    3.2180    1.2930 O   0  0  0  0  0  0  0  0  0  0  0  0
    2.5680    2.1570    1.3640 C   0  0  0  0  0  0  0  0  0  0  0  0
    1.6740    1.8570    0.3570 C   0  0  0  0  0  0  0  0  0  0  0  0
    0.7900    0.7960    0.4340 C   0  0  0  0  0  0  0  0  0  0  0  0
   -0.0530    0.5940   -0.6320 O   0  0  0  0  0  0  0  0  0  0  0  0
   -1.0530   -0.3630   -0.7070 C   0  0  0  0  0  0  0  0  0  0  0  0
   -1.0020   -1.3720   -1.6760 C   0  0  0  0  0  0  0  0  0  0  0  0
   -1.9670   -2.3470   -1.7950 C   0  0  0  0  0  0  0  0  0  0  0  0
   -1.8830   -3.6010   -3.0150 S   0  0  1  0  0  0  0  0  0  0  0  0
   -0.4370   -3.8200   -3.3420 O   0  0  0  0  0  0  0  0  0  0  0  0
   -2.5350   -4.8670   -2.5350 O   0  0  0  0  0  0  0  0  0  0  0  0
   -2.6620   -3.0730   -4.4000 O   0  0  0  0  0  0  0  0  0  0  0  0
   -3.0170   -2.2950   -0.9020 C   0  0  0  0  0  0  0  0  0  0  0  0
   -3.0730   -1.3050    0.0520 C   0  0  0  0  0  0  0  0  0  0  0  0
   -2.1010   -0.3100    0.1840 C   0  0  0  0  0  0  0  0  0  0  0  0
   -2.2420    0.6500    1.1730 O   0  0  0  0  0  0  0  0  0  0  0  0
    0.8390    0.0360    1.5800 C   0  0  0  0  0  0  0  0  0  0  0  0
    1.7290    0.3270    2.5910 C   0  0  0  0  0  0  0  0  0  0  0  0
    2.6090    1.3850    2.5120 C   0  0  0  0  0  0  0  0  0  0  0  0
    3.8260    1.7570    3.9330 Br  0  0  0  0  0  0  0  0  0  0  0  0
  1  2  1  0
  2  3  1  0
  3  4  2  0
  3 20  1  0
  4  5  1  0
  5  6  1  0
  5 18  2  0
  6  7  1  0
  7  8  2  0
  7 16  1  0
  8  9  1  0
  9 10  1  0
  9 14  2  0
 10 11  2  0
 10 12  2  0
 10 13  1  6
 14 15  1  0
 15 16  2  0
 16 17  1  0
 18 19  1  0
 19 20  2  0
 20 21  1  0
M  END
