
     RDKit          3D

 21 22  0  0  0  0  0  0  0  0999 V2000
   -4.2530    2.5740    0.3040 C   0  0  0  0  0  0  0  0  0  0  0  0
   -3.9530    1.3720    0.9690 O   0  0  0  0  0  0  0  0  0  0  0  0
   -3.1560    0.4210    0.3140 C   0  0  0  0  0  0  0  0  0  0  0  0
   -3.7460   -0.5470   -0.4710 C   0  0  0  0  0  0  0  0  0  0  0  0
   -5.1200   -0.6290   -0.6510 O   0  0  0  0  0  0  0  0  0  0  0  0
   -2.9520   -1.4880   -1.1180 C   0  0  0  0  0  0  0  0  0  0  0  0
   -3.7240   -2.8470   -2.2170 Br  0  0  0  0  0  0  0  0  0  0  0  0
   -1.5890   -1.3950   -0.9320 C   0  0  0  0  0  0  0  0  0  0  0  0
   -1.0000   -0.4260   -0.1450 C   0  0  0  0  0  0  0  0  0  0  0  0
    0.3750   -0.3530    0.0280 O   0  0  0  0  0  0  0  0  0  0  0  0
    1.1730   -1.2980   -0.6220 C   0  0  0  0  0  0  0  0  0  0  0  0
    2.6320   -1.0830   -0.3340 C   0  0  0  0  0  0  0  0  0  0  0  0
    3.6720   -1.8440   -0.8230 C   0  0  0  0  0  0  0  0  0  0  0  0
    4.8150   -1.2490   -0.2740 C   0  0  0  0  0  0  0  0  0  0  0  0
    4.4120   -0.1850    0.5000 C   0  0  0  0  0  0  0  0  0  0  0  0
    5.2530    0.7320    1.2690 C   0  0  0  0  0  0  0  0  0  0  0  0
    6.5030    0.6030    1.2780 O   0  0  0  0  0  0  0  0  0  0  0  0
    4.5530    2.0670    2.2240 S   0  0  0  0  0  0  0  0  0  0  0  0
    3.1040   -0.1350    0.4260 O   0  0  0  0  0  0  0  0  0  0  0  0
   -1.7930    0.5110    0.4990 C   0  0  0  0  0  0  0  0  0  0  0  0
   -1.2640    1.5150    1.3080 O   0  0  0  0  0  0  0  0  0  0  0  0
  1  2  1  0
  2  3  1  0
  3  4  2  0
  3 20  1  0
  4  5  1  0
  4  6  1  0
  6  7  1  0
  6  8  2  0
  8  9  1  0
  9 10  1  0
  9 20  2  0
 10 11  1  0
 11 12  1  0
 12 13  2  0
 12 19  1  0
 13 14  1  0
 14 15  2  0
 15 16  1  0
 15 19  1  0
 16 17  2  0
 16 18  1  0
 20 21  1  0
M  END
