
     RDKit          3D

 22 23  0  0  0  0  0  0  0  0999 V2000
   -3.2130   -2.5490   -0.2920 C   0  0  0  0  0  0  0  0  0  0  0  0
   -2.6120   -1.6960    0.8220 C   0  0  0  0  0  0  0  0  0  0  0  0
   -2.2550   -0.3850    0.2860 N   0  0  0  0  0  0  0  0  0  0  0  0
   -3.1360    0.6390    0.2980 C   0  0  0  0  0  0  0  0  0  0  0  0
   -4.5290    0.6390    0.8340 C   0  0  0  0  0  0  0  0  0  0  0  0
   -2.5240    1.7070   -0.2790 C   0  0  0  0  0  0  0  0  0  0  0  0
   -3.1610    3.0680   -0.4900 C   0  0  0  0  0  0  0  0  0  0  0  0
   -1.2210    1.3190   -0.6560 C   0  0  0  0  0  0  0  0  0  0  0  0
   -1.1050    0.0100   -0.2830 C   0  0  0  0  0  0  0  0  0  0  0  0
    0.1140   -0.8460   -0.5100 C   0  0  0  0  0  0  0  0  0  0  0  0
    0.8760   -1.0890    0.6680 N   0  0  0  0  0  0  0  0  0  0  0  0
    2.2610   -1.3280    0.5390 C   0  0  1  0  0  0  0  0  0  0  0  0
    2.5460   -2.8450    0.5660 C   0  0  0  0  0  0  0  0  0  0  0  0
    3.0290   -0.7360   -0.5560 C   0  0  0  0  0  0  0  0  0  0  0  0
    4.5320    0.0520    0.0620 S   0  0  1  0  0  0  0  0  0  0  0  0
    5.1600   -0.7500    1.1370 O   0  0  0  0  0  0  0  0  0  0  0  0
    5.4740    0.2590   -1.0690 O   0  0  0  0  0  0  0  0  0  0  0  0
    4.0420    1.6800    0.6500 C   0  0  0  0  0  0  0  0  0  0  0  0
    2.5580    1.6850    0.9150 C   0  0  0  0  0  0  0  0  0  0  0  0
    1.6350    1.9930    0.1990 N   0  0  0  0  0  0  0  0  0  0  0  0
    1.0400    2.4210   -0.9260 C   0  0  0  0  0  0  0  0  0  0  0  0
   -0.2190    2.1340   -1.3180 C   0  0  0  0  0  0  0  0  0  0  0  0
  1  2  1  0
  2  3  1  0
  3  4  1  0
  3  9  1  0
  4  5  1  0
  4  6  2  0
  6  7  1  0
  6  8  1  0
  8  9  2  0
  8 22  1  0
  9 10  1  0
 10 11  1  0
 11 12  1  0
 12 13  1  6
 12 14  1  0
 15 14  1  6
 15 16  2  0
 15 17  2  0
 15 18  1  0
 18 19  1  0
 19 20  2  0
 20 21  1  0
 21 22  2  0
M  CHG  1  11   1
M  END
