
     RDKit          3D

 22 24  0  0  0  0  0  0  0  0999 V2000
    5.3120   -1.9700   -0.1160 C   0  0  0  0  0  0  0  0  0  0  0  0
    4.7670   -1.1200    0.7260 C   0  0  0  0  0  0  0  0  0  0  0  0
    5.0860    0.2800    0.7730 C   0  0  0  0  0  0  0  0  0  0  0  0
    4.3970    1.0460    1.7490 O   0  0  0  0  0  0  0  0  0  0  0  0
    3.1470    1.5830    1.3740 C   0  0  0  0  0  0  0  0  0  0  0  0
    2.1630    0.4930    0.9870 C   0  0  0  0  0  0  0  0  0  0  0  0
    0.8790    1.1470    0.6070 C   0  0  0  0  0  0  0  0  0  0  0  0
   -0.1250    0.1280    0.2230 C   0  0  2  0  0  0  0  0  0  0  0  0
    0.2180   -0.7490   -0.9290 C   0  0  0  0  0  0  0  0  0  0  0  0
   -0.7100   -1.8620   -0.9330 N   0  0  0  0  0  0  0  0  0  0  0  0
   -2.0760   -1.4980   -0.7770 C   0  0  0  0  0  0  0  0  0  0  0  0
   -2.3030   -0.3340    0.1520 C   0  0  2  0  0  0  0  0  0  0  0  0
   -3.7000    0.1450    0.0270 C   0  0  0  0  0  0  0  0  0  0  0  0
   -4.0290    1.3300   -0.3330 N   0  0  0  0  0  0  0  0  0  0  0  0
   -5.3640    1.8170   -0.4620 C   0  0  0  0  0  0  0  0  0  0  0  0
   -6.4230    0.7650   -0.4030 C   0  0  0  0  0  0  0  0  0  0  0  0
   -6.0840   -0.2510    0.6610 C   0  0  0  0  0  0  0  0  0  0  0  0
   -4.7490   -0.7650    0.3230 N   0  0  0  0  0  0  0  0  0  0  0  0
   -1.3890    0.6970   -0.0600 O   0  0  0  0  0  0  0  0  0  0  0  0
    5.9380    0.8820    0.0060 C   0  0  0  0  0  0  0  0  0  0  0  0
    6.7820    0.3520   -1.0740 C   0  0  0  0  0  0  0  0  0  0  0  0
    6.5160   -1.4080   -1.2820 S   0  0  0  0  0  0  0  0  0  0  0  0
  1  2  2  0
  1 22  1  0
  2  3  1  0
  3  4  1  0
  3 20  2  0
  4  5  1  0
  5  6  1  0
  6  7  1  0
  8  7  1  6
  8  9  1  0
  8 19  1  0
  9 10  1  0
 10 11  1  0
 11 12  1  0
 12 13  1  6
 12 19  1  0
 13 14  2  0
 13 18  1  0
 14 15  1  0
 15 16  1  0
 16 17  1  0
 17 18  1  0
 20 21  1  0
 21 22  1  0
M  CHG  1  10   1
M  END
