
     RDKit          3D

 22 25  0  0  0  0  0  0  0  0999 V2000
   -3.7640    0.2880    3.2430 O   0  0  0  0  0  0  0  0  0  0  0  0
   -3.7140   -0.4960    2.2630 C   0  0  0  0  0  0  0  0  0  0  0  0
   -4.4660   -1.7670    2.1520 C   0  0  0  0  0  0  0  0  0  0  0  0
   -4.4910   -2.0010    0.6600 C   0  0  0  0  0  0  0  0  0  0  0  0
   -3.1230   -1.5060    0.2960 C   0  0  0  0  0  0  0  0  0  0  0  0
   -2.3160   -1.9990   -0.4970 O   0  0  0  0  0  0  0  0  0  0  0  0
   -2.9250   -0.3240    1.0610 N   0  0  0  0  0  0  0  0  0  0  0  0
   -2.1300    0.8390    0.8290 C   0  0  1  0  0  0  0  0  0  0  0  0
   -0.6840    0.5590    0.6480 C   0  0  0  0  0  0  0  0  0  0  0  0
   -0.0370   -0.4870    0.5560 N   0  0  0  0  0  0  0  0  0  0  0  0
    1.3350   -0.5160    0.3870 C   0  0  0  0  0  0  0  0  0  0  0  0
    1.9200    0.8180    0.2010 C   0  0  0  0  0  0  0  0  0  0  0  0
    3.1010    1.1970   -0.1000 C   0  0  0  0  0  0  0  0  0  0  0  0
    4.2970    0.4170   -0.3670 C   0  0  0  0  0  0  0  0  0  0  0  0
    5.5090    0.8890   -0.6790 C   0  0  0  0  0  0  0  0  0  0  0  0
    6.4150   -0.1620   -0.8670 N   0  0  0  0  0  0  0  0  0  0  0  0
    5.7110   -1.3550   -0.6540 C   0  0  0  0  0  0  0  0  0  0  0  0
    4.4430   -1.0240   -0.3550 C   0  0  0  0  0  0  0  0  0  0  0  0
    0.5160    1.8910    0.5140 S   0  0  0  0  0  0  0  0  0  0  0  0
   -2.7030    1.6230   -0.3130 C   0  0  2  0  0  0  0  0  0  0  0  0
   -2.8410    1.0660   -1.6860 C   0  0  0  0  0  0  0  0  0  0  0  0
   -1.9290    2.2970   -1.3490 C   0  0  0  0  0  0  0  0  0  0  0  0
  1  2  2  0
  2  3  1  0
  2  7  1  0
  3  4  1  0
  4  5  1  0
  5  6  2  0
  5  7  1  0
  8  7  1  6
  8  9  1  0
  8 20  1  0
  9 10  2  0
  9 19  1  0
 10 11  1  0
 11 12  1  0
 12 13  2  3
 12 19  1  0
 13 14  1  0
 14 15  2  0
 14 18  1  0
 15 16  1  0
 16 17  1  0
 17 18  2  0
 20 21  1  6
 20 22  1  0
 21 22  1  0
M  CHG  1  16   1
M  END
