
     RDKit          3D

 22 24  0  0  0  0  0  0  0  0999 V2000
   -2.3510    2.4900    0.6100 C   0  0  0  0  0  0  0  0  0  0  0  0
   -3.2730    1.5350    0.0240 C   0  0  0  0  0  0  0  0  0  0  0  0
   -4.6130    1.8700   -0.2540 C   0  0  0  0  0  0  0  0  0  0  0  0
   -5.5000    1.0360   -0.8020 N   0  0  0  0  0  0  0  0  0  0  0  0
   -5.1360   -0.2010   -1.1210 C   0  0  0  0  0  0  0  0  0  0  0  0
   -3.8430   -0.6140   -0.8830 C   0  0  0  0  0  0  0  0  0  0  0  0
   -3.4890   -1.9010   -1.2240 C   0  0  0  0  0  0  0  0  0  0  0  0
   -2.2230   -2.3540   -1.0080 C   0  0  0  0  0  0  0  0  0  0  0  0
   -1.3090   -1.5070   -0.4470 C   0  0  0  0  0  0  0  0  0  0  0  0
   -1.5940   -0.1730   -0.0710 C   0  0  0  0  0  0  0  0  0  0  0  0
   -0.4210    0.7980    0.6780 S   0  0  2  0  0  0  0  0  0  0  0  0
   -0.3970    0.6880    2.2150 O   0  0  0  0  0  0  0  0  0  0  0  0
    0.1820    1.9870    0.1000 O   0  0  0  0  0  0  0  0  0  0  0  0
    1.1120   -0.1500    0.4780 N   0  0  0  0  0  0  0  0  0  0  0  0
    1.3830   -0.2680   -0.9590 C   0  0  0  0  0  0  0  0  0  0  0  0
    2.2770   -1.4130   -1.3020 C   0  0  0  0  0  0  0  0  0  0  0  0
    3.7000   -0.9720   -1.2450 C   0  0  0  0  0  0  0  0  0  0  0  0
    4.0240   -0.6590    0.1240 N   0  0  0  0  0  0  0  0  0  0  0  0
    3.4750    0.5800    0.5800 C   0  0  0  0  0  0  0  0  0  0  0  0
    2.1410    0.4750    1.2190 C   0  0  2  0  0  0  0  0  0  0  0  0
    2.3450   -0.1780    2.5940 C   0  0  0  0  0  0  0  0  0  0  0  0
   -2.8810    0.2590   -0.3000 C   0  0  0  0  0  0  0  0  0  0  0  0
  1  2  1  0
  2  3  2  0
  2 22  1  0
  3  4  1  0
  4  5  2  0
  5  6  1  0
  6  7  2  0
  6 22  1  0
  7  8  1  0
  8  9  2  0
  9 10  1  0
 10 11  1  0
 10 22  2  0
 11 12  2  0
 11 13  2  0
 11 14  1  6
 14 15  1  0
 14 20  1  0
 15 16  1  0
 16 17  1  0
 17 18  1  0
 18 19  1  0
 19 20  1  0
 20 21  1  1
M  CHG  1  18   1
M  END
