
     RDKit          3D

 20 22  0  0  0  0  0  0  0  0999 V2000
    5.6430    1.1830    0.6120 C   0  0  0  0  0  0  0  0  0  0  0  0
    4.4160    1.5710   -0.1790 C   0  0  1  0  0  0  0  0  0  0  0  0
    4.1310    0.6900   -1.3790 C   0  0  0  0  0  0  0  0  0  0  0  0
    2.6920    0.7050   -0.9810 C   0  0  1  0  0  0  0  0  0  0  0  0
    1.9660   -0.6100   -1.0510 C   0  0  0  0  0  0  0  0  0  0  0  0
    0.5970   -0.3920   -0.6300 N   0  0  0  0  0  0  0  0  0  0  0  0
   -0.3430   -1.4610   -0.5910 C   0  0  0  0  0  0  0  0  0  0  0  0
   -0.0540   -2.7290   -0.9310 N   0  0  0  0  0  0  0  0  0  0  0  0
   -1.1610   -3.4800   -0.7810 C   0  0  0  0  0  0  0  0  0  0  0  0
   -2.1820   -2.6720   -0.3350 C   0  0  0  0  0  0  0  0  0  0  0  0
   -1.6380   -1.4290   -0.2290 N   0  0  0  0  0  0  0  0  0  0  0  0
   -2.3430   -0.2360    0.2100 C   0  0  1  0  0  0  0  0  0  0  0  0
   -3.8130   -0.4540   -0.0540 C   0  0  0  0  0  0  0  0  0  0  0  0
   -4.6280    0.7940    0.0300 C   0  0  0  0  0  0  0  0  0  0  0  0
   -3.8750    1.8730    1.2470 S   0  0  2  0  0  0  0  0  0  0  0  0
   -4.9290    2.6060    2.0300 O   0  0  0  0  0  0  0  0  0  0  0  0
   -2.9500    2.8520    0.6050 O   0  0  0  0  0  0  0  0  0  0  0  0
   -3.0060    0.8240    2.3890 C   0  0  0  0  0  0  0  0  0  0  0  0
   -2.0210   -0.0170    1.6510 C   0  0  0  0  0  0  0  0  0  0  0  0
    3.1350    1.0370    0.4300 C   0  0  0  0  0  0  0  0  0  0  0  0
  2  1  1  1
  2  3  1  0
  2 20  1  0
  3  4  1  0
  4  5  1  1
  4 20  1  0
  5  6  1  0
  6  7  1  0
  7  8  2  0
  7 11  1  0
  8  9  1  0
  9 10  2  0
 10 11  1  0
 12 11  1  1
 12 13  1  0
 12 19  1  0
 13 14  1  0
 15 14  1  6
 15 16  2  0
 15 17  2  0
 15 18  1  0
 18 19  1  0
M  CHG  1   8   1
M  END
