
     RDKit          3D

 20 22  0  0  0  0  0  0  0  0999 V2000
   -3.8520   -0.0990    2.0660 C   0  0  0  0  0  0  0  0  0  0  0  0
   -3.1990    1.0920    1.4380 C   0  0  0  0  0  0  0  0  0  0  0  0
   -2.7290    0.8220    0.0900 N   0  0  0  0  0  0  0  0  0  0  0  0
   -3.8310    0.6300   -0.7920 C   0  0  0  0  0  0  0  0  0  0  0  0
   -3.7190   -0.7050   -1.4480 C   0  0  0  0  0  0  0  0  0  0  0  0
   -2.5040   -1.3450   -0.8540 C   0  0  0  0  0  0  0  0  0  0  0  0
   -1.8520   -0.3070    0.0310 C   0  0  1  0  0  0  0  0  0  0  0  0
   -0.5770    0.1010   -0.6400 C   0  0  0  0  0  0  0  0  0  0  0  0
   -0.6190    0.7780   -1.8380 C   0  0  0  0  0  0  0  0  0  0  0  0
    0.5460    1.1740   -2.4700 C   0  0  0  0  0  0  0  0  0  0  0  0
    1.7440    0.8710   -1.8640 C   0  0  0  0  0  0  0  0  0  0  0  0
    1.7810    0.1930   -0.6660 C   0  0  0  0  0  0  0  0  0  0  0  0
    3.0340   -0.1020   -0.0480 N   0  0  0  0  0  0  0  0  0  0  0  0
    3.1990   -0.8060    1.2030 C   0  0  0  0  0  0  0  0  0  0  0  0
    4.4320   -0.2590    1.8820 C   0  0  0  0  0  0  0  0  0  0  0  0
    5.5490   -0.3730    0.8330 C   0  0  0  0  0  0  0  0  0  0  0  0
    4.6320    0.2750   -0.5790 S   0  0  2  0  0  0  0  0  0  0  0  0
    4.7730    1.7720   -0.6320 O   0  0  0  0  0  0  0  0  0  0  0  0
    5.0130   -0.4000   -1.8410 O   0  0  0  0  0  0  0  0  0  0  0  0
    0.6210   -0.1670   -0.0980 N   0  0  0  0  0  0  0  0  0  0  0  0
  1  2  1  0
  2  3  1  0
  3  4  1  0
  3  7  1  0
  4  5  1  0
  5  6  1  0
  6  7  1  0
  7  8  1  6
  8  9  2  0
  8 20  1  0
  9 10  1  0
 10 11  2  0
 11 12  1  0
 12 13  1  0
 12 20  2  0
 13 14  1  0
 13 17  1  0
 14 15  1  0
 15 16  1  0
 17 16  1  1
 17 18  2  0
 17 19  2  0
M  CHG  1  20   1
M  END
