
     RDKit          3D

 20 22  0  0  0  0  0  0  0  0999 V2000
    0.7950    1.4860   -2.4540 O   0  0  0  0  0  0  0  0  0  0  0  0
    0.2860    1.4170   -1.0040 S   0  0  2  0  0  0  0  0  0  0  0  0
   -0.2070    2.8550   -0.7920 O   0  0  0  0  0  0  0  0  0  0  0  0
    1.5720    1.1490    0.0940 C   0  0  0  0  0  0  0  0  0  0  0  0
    1.7640    2.0230    1.1730 C   0  0  0  0  0  0  0  0  0  0  0  0
    2.7310    1.7950    2.1120 C   0  0  0  0  0  0  0  0  0  0  0  0
    3.5380    0.6950    2.0110 C   0  0  0  0  0  0  0  0  0  0  0  0
    3.3830   -0.1870    0.9650 C   0  0  0  0  0  0  0  0  0  0  0  0
    4.2140   -1.2930    0.8440 C   0  0  0  0  0  0  0  0  0  0  0  0
    4.0810   -2.1290   -0.1770 N   0  0  0  0  0  0  0  0  0  0  0  0
    3.1380   -1.9100   -1.1050 C   0  0  0  0  0  0  0  0  0  0  0  0
    2.2870   -0.8130   -1.0150 C   0  0  0  0  0  0  0  0  0  0  0  0
    2.3990    0.0670    0.0290 C   0  0  0  0  0  0  0  0  0  0  0  0
   -1.0590    0.4410   -0.8870 N   0  0  0  0  0  0  0  0  0  0  0  0
   -1.0520   -0.9230   -1.0560 C   0  0  0  0  0  0  0  0  0  0  0  0
   -2.4600   -1.4810   -0.8180 C   0  0  0  0  0  0  0  0  0  0  0  0
   -2.8660   -1.0940    0.5680 C   0  0  0  0  0  0  0  0  0  0  0  0
   -3.6750    0.0940    0.6220 N   0  0  0  0  0  0  0  0  0  0  0  0
   -2.9800    1.2820    0.2160 C   0  0  0  0  0  0  0  0  0  0  0  0
   -2.2840    1.1480   -1.1140 C   0  0  0  0  0  0  0  0  0  0  0  0
  1  2  2  0
  2  3  2  0
  2  4  1  0
  2 14  1  6
  4  5  2  0
  4 13  1  0
  5  6  1  0
  6  7  2  0
  7  8  1  0
  8  9  2  0
  8 13  1  0
  9 10  1  0
 10 11  2  0
 11 12  1  0
 12 13  2  0
 14 15  1  0
 14 20  1  0
 15 16  1  0
 16 17  1  0
 17 18  1  0
 18 19  1  0
 19 20  1  0
M  CHG  1  18   1
M  END
