
     RDKit          3D

 20 22  0  0  0  0  0  0  0  0999 V2000
    4.4100   -3.8210   -2.1690 O   0  0  0  0  0  0  0  0  0  0  0  0
    2.9240   -3.7590   -2.2760 S   0  0  1  0  0  0  0  0  0  0  0  0
    2.3930   -4.3420   -3.5440 O   0  0  0  0  0  0  0  0  0  0  0  0
    2.2140   -4.5390   -0.8440 C   0  0  0  0  0  0  0  0  0  0  0  0
    1.3900   -3.5000   -0.1890 C   0  0  0  0  0  0  0  0  0  0  0  0
    1.7610   -2.1330   -0.6210 C   0  0  2  0  0  0  0  0  0  0  0  0
    0.6980   -1.1670   -0.5490 N   0  0  0  0  0  0  0  0  0  0  0  0
   -0.4230   -1.3890   -1.3900 C   0  0  0  0  0  0  0  0  0  0  0  0
   -1.6020   -0.5610   -0.8940 C   0  0  0  0  0  0  0  0  0  0  0  0
   -1.1280    0.5770   -0.0860 C   0  0  2  0  0  0  0  0  0  0  0  0
   -2.1160    1.6450    0.1120 N   0  0  0  0  0  0  0  0  0  0  0  0
   -2.0470    2.7710    0.8410 C   0  0  0  0  0  0  0  0  0  0  0  0
   -3.1540    3.6640    0.8580 C   0  0  0  0  0  0  0  0  0  0  0  0
   -3.1510    4.8090    1.5960 C   0  0  0  0  0  0  0  0  0  0  0  0
   -2.0430    5.1190    2.3530 C   0  0  0  0  0  0  0  0  0  0  0  0
   -0.9380    4.2550    2.3560 C   0  0  0  0  0  0  0  0  0  0  0  0
   -0.9830    3.1380    1.6160 N   0  0  0  0  0  0  0  0  0  0  0  0
    0.0950    1.1670   -0.7810 C   0  0  0  0  0  0  0  0  0  0  0  0
    1.2450    0.1810   -0.6610 C   0  0  0  0  0  0  0  0  0  0  0  0
    2.2840   -2.1300   -2.0060 C   0  0  0  0  0  0  0  0  0  0  0  0
  1  2  2  0
  2  3  2  0
  2  4  1  1
  2 20  1  0
  4  5  1  0
  5  6  1  0
  6  7  1  6
  6 20  1  0
  7  8  1  0
  7 19  1  0
  8  9  1  0
  9 10  1  0
 10 11  1  6
 10 18  1  0
 11 12  1  0
 12 13  2  0
 12 17  1  0
 13 14  1  0
 14 15  2  0
 15 16  1  0
 16 17  2  0
 18 19  1  0
M  CHG  1  17   1
M  END
