
     RDKit          3D

 20 22  0  0  0  0  0  0  0  0999 V2000
   -4.9180   -0.0650   -0.2210 C   0  0  0  0  0  0  0  0  0  0  0  0
   -4.0230   -0.8100    0.6640 N   0  0  2  0  0  0  0  0  0  0  0  0
   -3.3690    0.1270    1.5250 C   0  0  0  0  0  0  0  0  0  0  0  0
   -3.1620   -1.6150   -0.1450 C   0  0  0  0  0  0  0  0  0  0  0  0
   -1.7090   -1.2880   -0.0730 C   0  0  0  0  0  0  0  0  0  0  0  0
   -1.4090    0.0590   -0.4780 N   0  0  0  0  0  0  0  0  0  0  0  0
   -0.0590    0.5480   -0.4510 C   0  0  0  0  0  0  0  0  0  0  0  0
    0.1780    1.8470   -0.8490 C   0  0  0  0  0  0  0  0  0  0  0  0
    1.4720    2.3210   -0.8250 C   0  0  0  0  0  0  0  0  0  0  0  0
    2.5100    1.5240   -0.4150 C   0  0  0  0  0  0  0  0  0  0  0  0
    4.1670    1.9920   -0.3380 S   0  0  0  0  0  0  0  0  0  0  0  0
    5.1870    0.7480    0.2180 C   0  0  0  0  0  0  0  0  0  0  0  0
    6.5210    0.5160    0.4820 C   0  0  0  0  0  0  0  0  0  0  0  0
    6.6160   -0.7980    0.9320 C   0  0  0  0  0  0  0  0  0  0  0  0
    7.7060   -1.3290    1.2610 O   0  0  0  0  0  0  0  0  0  0  0  0
    5.4330   -1.3590    0.9520 O   0  0  0  0  0  0  0  0  0  0  0  0
    4.5120   -0.4910    0.5350 C   0  0  0  0  0  0  0  0  0  0  0  0
    3.2120   -0.6290    0.3980 N   0  0  0  0  0  0  0  0  0  0  0  0
    2.3120    0.2370   -0.0160 C   0  0  0  0  0  0  0  0  0  0  0  0
    0.9910   -0.2350   -0.0440 C   0  0  0  0  0  0  0  0  0  0  0  0
  2  1  1  6
  2  3  1  0
  2  4  1  0
  4  5  1  0
  5  6  1  0
  6  7  1  0
  7  8  2  0
  7 20  1  0
  8  9  1  0
  9 10  2  0
 10 11  1  0
 10 19  1  0
 11 12  1  0
 12 13  2  0
 12 17  1  0
 13 14  1  0
 14 15  2  0
 14 16  1  0
 16 17  1  0
 17 18  2  0
 18 19  1  0
 19 20  2  0
M  CHG  1   2   1
M  END
