
     RDKit          3D

 20 21  0  0  0  0  0  0  0  0999 V2000
    8.0750    0.7090   -0.0250 C   0  0  0  0  0  0  0  0  0  0  0  0
    7.0840   -0.2940   -0.2700 O   0  0  0  0  0  0  0  0  0  0  0  0
    5.7370   -0.0490   -0.0840 C   0  0  0  0  0  0  0  0  0  0  0  0
    5.4120    1.1010    0.3130 O   0  0  0  0  0  0  0  0  0  0  0  0
    4.7350   -1.0650   -0.3330 C   0  0  0  0  0  0  0  0  0  0  0  0
    3.4750   -0.8060   -0.1500 C   0  0  0  0  0  0  0  0  0  0  0  0
    2.3390   -1.6140   -0.3210 N   0  0  0  0  0  0  0  0  0  0  0  0
    1.1030   -1.0270   -0.0340 C   0  0  0  0  0  0  0  0  0  0  0  0
    1.1160    0.1920    0.3590 C   0  0  0  0  0  0  0  0  0  0  0  0
   -0.0280    1.0310    0.7210 C   0  0  0  0  0  0  0  0  0  0  0  0
   -1.3030    0.3030    0.5860 C   0  0  0  0  0  0  0  0  0  0  0  0
   -2.3970    0.9390    0.8790 N   0  0  0  0  0  0  0  0  0  0  0  0
   -3.6320    0.3070    0.7730 N   0  0  0  0  0  0  0  0  0  0  0  0
   -3.9790   -0.6530    1.7870 C   0  0  0  0  0  0  0  0  0  0  0  0
   -4.4910    0.6440   -0.3390 C   0  0  2  0  0  0  0  0  0  0  0  0
   -4.8100   -0.5460   -1.2120 C   0  0  0  0  0  0  0  0  0  0  0  0
   -3.8400    1.6900   -1.2180 C   0  0  0  0  0  0  0  0  0  0  0  0
   -1.3180   -1.0810    0.1400 C   0  0  0  0  0  0  0  0  0  0  0  0
   -0.2130   -1.6900   -0.1440 C   0  0  0  0  0  0  0  0  0  0  0  0
    2.8420    0.7700    0.4090 S   0  0  0  0  0  0  0  0  0  0  0  0
  1  2  1  0
  2  3  1  0
  3  4  2  0
  3  5  1  0
  5  6  2  3
  6  7  1  0
  6 20  1  0
  7  8  1  0
  8  9  2  0
  8 19  1  0
  9 10  1  0
  9 20  1  0
 10 11  1  0
 11 12  2  3
 11 18  1  0
 12 13  1  0
 13 14  1  0
 13 15  1  0
 15 16  1  6
 15 17  1  0
 18 19  2  0
M  CHG  1  12   1
M  END
