
     RDKit          3D

 20 22  0  0  0  0  0  0  0  0999 V2000
    1.4030    2.7150   -0.2760 O   0  0  0  0  0  0  0  0  0  0  0  0
    1.4630    1.4640   -0.4430 C   0  0  0  0  0  0  0  0  0  0  0  0
    0.1980    0.7740   -0.7550 C   0  0  0  0  0  0  0  0  0  0  0  0
   -0.6150    0.1720    0.7230 S   0  0  0  0  0  0  0  0  0  0  0  0
   -0.7330    1.2240    1.7980 O   0  0  0  0  0  0  0  0  0  0  0  0
   -2.1060   -0.6410    0.3550 C   0  0  0  0  0  0  0  0  0  0  0  0
   -2.0860   -1.9820    0.0680 C   0  0  0  0  0  0  0  0  0  0  0  0
   -3.2540   -2.6450   -0.2250 C   0  0  0  0  0  0  0  0  0  0  0  0
   -4.4170   -2.0020   -0.2330 N   0  0  0  0  0  0  0  0  0  0  0  0
   -4.4450   -0.6950    0.0460 C   0  0  0  0  0  0  0  0  0  0  0  0
   -5.5050    0.2170    0.1100 C   0  0  0  0  0  0  0  0  0  0  0  0
   -4.9890    1.4400    0.4420 C   0  0  0  0  0  0  0  0  0  0  0  0
   -3.6700    1.2970    0.5770 N   0  0  0  0  0  0  0  0  0  0  0  0
   -3.3020    0.0230    0.3470 C   0  0  0  0  0  0  0  0  0  0  0  0
    2.6940    0.7710   -0.3330 N   0  0  0  0  0  0  0  0  0  0  0  0
    2.7770   -0.6680   -0.5150 C   0  0  0  0  0  0  0  0  0  0  0  0
    4.1540   -1.0810   -0.9390 C   0  0  0  0  0  0  0  0  0  0  0  0
    5.1940   -0.4560   -0.4130 C   0  0  0  0  0  0  0  0  0  0  0  0
    4.9160    0.6220    0.5700 C   0  0  0  0  0  0  0  0  0  0  0  0
    3.8950    1.5560   -0.0290 C   0  0  0  0  0  0  0  0  0  0  0  0
  1  2  2  0
  2  3  1  0
  2 15  1  0
  4  3  1  6
  4  5  2  0
  4  6  1  0
  6  7  2  0
  6 14  1  0
  7  8  1  0
  8  9  2  0
  9 10  1  0
 10 11  1  0
 10 14  2  0
 11 12  2  0
 12 13  1  0
 13 14  1  0
 15 16  1  0
 15 20  1  0
 16 17  1  0
 17 18  2  0
 18 19  1  0
 19 20  1  0
M  CHG  1   9   1
M  END
