
     RDKit          3D

 20 21  0  0  0  0  0  0  0  0999 V2000
   -1.0700    2.1740   -0.0640 C   0  0  0  0  0  0  0  0  0  0  0  0
   -0.9180    1.0050   -0.8420 N   0  0  0  0  0  0  0  0  0  0  0  0
   -1.8380   -0.0500   -0.9460 C   0  0  0  0  0  0  0  0  0  0  0  0
   -3.0150   -0.2610   -0.4200 C   0  0  0  0  0  0  0  0  0  0  0  0
   -3.6710   -1.5470   -0.8000 C   0  0  0  0  0  0  0  0  0  0  0  0
   -4.8530   -1.8220   -0.3140 C   0  0  0  0  0  0  0  0  0  0  0  0
   -5.5970   -0.9510    0.5910 C   0  0  0  0  0  0  0  0  0  0  0  0
   -4.9160    0.2830    0.9280 C   0  0  0  0  0  0  0  0  0  0  0  0
   -3.7000    0.6330    0.4660 C   0  0  0  0  0  0  0  0  0  0  0  0
    0.3000    0.8440   -1.6260 C   0  0  0  0  0  0  0  0  0  0  0  0
    0.4900   -0.1910   -2.3220 O   0  0  0  0  0  0  0  0  0  0  0  0
    1.3240    1.8920   -1.6110 C   0  0  0  0  0  0  0  0  0  0  0  0
    2.1620    1.9380   -0.0400 S   0  0  0  0  0  0  0  0  0  0  0  0
    3.1960    0.5500    0.3110 C   0  0  0  0  0  0  0  0  0  0  0  0
    3.7420    0.5110    1.4760 N   0  0  0  0  0  0  0  0  0  0  0  0
    4.6020   -0.5320    1.9290 C   0  0  0  0  0  0  0  0  0  0  0  0
    5.2760   -1.3360    0.8690 C   0  0  0  0  0  0  0  0  0  0  0  0
    4.3140   -1.6030   -0.2410 C   0  0  0  0  0  0  0  0  0  0  0  0
    4.2880   -2.7160   -0.7950 O   0  0  0  0  0  0  0  0  0  0  0  0
    3.4540   -0.5000   -0.6000 N   0  0  0  0  0  0  0  0  0  0  0  0
  1  2  1  0
  2  3  1  0
  2 10  1  0
  3  4  2  3
  4  5  1  0
  4  9  1  0
  5  6  2  0
  6  7  1  0
  7  8  1  0
  8  9  2  0
 10 11  2  0
 10 12  1  0
 12 13  1  0
 13 14  1  0
 14 15  2  0
 14 20  1  0
 15 16  1  0
 16 17  1  0
 17 18  1  0
 18 19  2  0
 18 20  1  0
M  CHG  1  15   1
M  END
