
     RDKit          3D

 21 21  0  0  0  0  0  0  0  0999 V2000
   -1.7480   -3.3460   -0.6270 O   0  0  0  0  0  0  0  0  0  0  0  0
   -1.8610   -2.4120    0.2240 C   0  0  0  0  0  0  0  0  0  0  0  0
   -0.9540   -1.3220    0.1440 N   0  0  0  0  0  0  0  0  0  0  0  0
    0.0690   -0.8380    0.9130 N   0  0  0  0  0  0  0  0  0  0  0  0
    1.4850   -0.8420    0.8630 C   0  0  0  0  0  0  0  0  0  0  0  0
    2.0740   -1.4820    1.8150 O   0  0  0  0  0  0  0  0  0  0  0  0
    2.3950   -0.2290   -0.1030 C   0  0  0  0  0  0  0  0  0  0  0  0
    3.7720   -0.7190   -0.2060 C   0  0  0  0  0  0  0  0  0  0  0  0
    4.1170   -1.6560    0.5470 O   0  0  0  0  0  0  0  0  0  0  0  0
    4.7080   -0.2240   -1.0690 O   0  0  0  0  0  0  0  0  0  0  0  0
    5.9590   -0.6390   -1.1930 O   0  0  0  0  0  0  0  0  0  0  0  0
    6.5970    0.2090   -2.0040 O   0  0  0  0  0  0  0  0  0  0  0  0
    2.0890    0.7680   -0.9390 C   0  0  0  0  0  0  0  0  0  0  0  0
    0.7660    1.4310   -1.0390 C   0  0  0  0  0  0  0  0  0  0  0  0
    0.1620    1.6520    0.1130 O   0  0  0  0  0  0  0  0  0  0  0  0
   -0.9860    2.2640    0.3250 C   0  0  0  0  0  0  0  0  0  0  0  0
   -2.3090    1.6510    0.2750 C   0  0  0  0  0  0  0  0  0  0  0  0
   -2.6540    0.7480    1.2760 O   0  0  0  0  0  0  0  0  0  0  0  0
   -3.5090   -0.2490    0.9020 C   0  0  0  0  0  0  0  0  0  0  0  0
   -3.5190   -1.4790    1.8230 C   0  0  0  0  0  0  0  0  0  0  0  0
   -2.9110   -2.6120    1.1480 O   0  0  0  0  0  0  0  0  0  0  0  0
  1  2  2  0
  2  3  1  0
  2 21  1  0
  3  4  1  0
  4  5  1  0
  5  6  2  0
  5  7  1  0
  7  8  1  0
  7 13  2  0
  8  9  2  0
  8 10  1  0
 10 11  1  0
 11 12  1  0
 13 14  1  0
 14 15  1  0
 15 16  1  0
 16 17  1  0
 17 18  1  0
 18 19  1  0
 19 20  1  0
 20 21  1  0
M  END
