
     RDKit          3D

 16 16  0  0  0  0  0  0  0  0999 V2000
   -0.6980    2.2850    0.8670 O   0  0  0  0  0  0  0  0  0  0  0  0
   -0.5730    1.2920    0.1060 C   0  0  0  0  0  0  0  0  0  0  0  0
    0.2600    1.3150   -1.0260 O   0  0  0  0  0  0  0  0  0  0  0  0
    0.8200    0.0840   -1.3720 C   0  0  0  0  0  0  0  0  0  0  0  0
    1.1380   -0.2240   -2.5460 O   0  0  0  0  0  0  0  0  0  0  0  0
    1.0170   -0.8570   -0.2130 C   0  0  1  0  0  0  0  0  0  0  0  0
    1.6860   -1.9990   -0.6060 O   0  0  0  0  0  0  0  0  0  0  0  0
    1.7460   -0.1400    0.7340 O   0  0  0  0  0  0  0  0  0  0  0  0
    2.9830    0.2450    0.2150 C   0  0  0  0  0  0  0  0  0  0  0  0
    3.7270    0.9620    1.1450 O   0  0  0  0  0  0  0  0  0  0  0  0
    3.1170    2.0530    1.5280 O   0  0  0  0  0  0  0  0  0  0  0  0
   -0.3580   -1.1840    0.3050 C   0  0  0  0  0  0  0  0  0  0  0  0
   -1.2850    0.0030    0.3200 C   0  0  2  0  0  0  0  0  0  0  0  0
   -2.1910   -0.1170   -0.7550 O   0  0  0  0  0  0  0  0  0  0  0  0
   -3.4900   -0.1290   -0.2500 C   0  0  0  0  0  0  0  0  0  0  0  0
   -4.3880   -0.2460   -1.2980 O   0  0  0  0  0  0  0  0  0  0  0  0
  1  2  2  0
  2  3  1  0
  2 13  1  0
  3  4  1  0
  4  5  2  0
  4  6  1  0
  6  7  1  6
  6  8  1  0
  6 12  1  0
  8  9  1  0
  9 10  1  0
 10 11  1  0
 12 13  1  0
 13 14  1  6
 14 15  1  0
 15 16  1  0
M  END
