
     RDKit          3D

 16 16  0  0  0  0  0  0  0  0999 V2000
    4.9970   -0.0730    1.0390 O   0  0  0  0  0  0  0  0  0  0  0  0
    4.6370   -1.0960    0.4040 C   0  0  0  0  0  0  0  0  0  0  0  0
    3.3030   -1.2050    0.0660 O   0  0  0  0  0  0  0  0  0  0  0  0
    2.4000   -0.1810    0.4390 C   0  0  0  0  0  0  0  0  0  0  0  0
    0.9910   -0.4880   -0.0240 C   0  0  2  0  0  0  0  0  0  0  0  0
    1.0130   -0.6080   -1.4960 C   0  0  0  0  0  0  0  0  0  0  0  0
    1.2910   -1.6160   -2.1650 O   0  0  0  0  0  0  0  0  0  0  0  0
    0.6580    0.6350   -1.9810 O   0  0  0  0  0  0  0  0  0  0  0  0
    0.6160    1.5270   -0.9730 O   0  0  0  0  0  0  0  0  0  0  0  0
    0.1540    0.7920    0.1180 C   0  0  1  0  0  0  0  0  0  0  0  0
   -1.2100    0.4990   -0.1290 O   0  0  0  0  0  0  0  0  0  0  0  0
   -2.1830    0.8340    0.8060 C   0  0  0  0  0  0  0  0  0  0  0  0
   -1.7970    1.3980    1.8590 O   0  0  0  0  0  0  0  0  0  0  0  0
   -3.6270    0.5560    0.6120 C   0  0  0  0  0  0  0  0  0  0  0  0
   -3.8530   -0.0750   -0.6200 O   0  0  0  0  0  0  0  0  0  0  0  0
   -5.1360   -0.3070   -0.7640 O   0  0  0  0  0  0  0  0  0  0  0  0
  1  2  2  0
  2  3  1  0
  3  4  1  0
  5  4  1  6
  5  6  1  0
  5 10  1  0
  6  7  2  0
  6  8  1  0
  8  9  1  0
  9 10  1  0
 10 11  1  6
 11 12  1  0
 12 13  2  0
 12 14  1  0
 14 15  1  0
 15 16  1  0
M  END
