
     RDKit          3D

 15 16  0  0  0  0  0  0  0  0999 V2000
   -2.0610    2.4130   -0.1960 O   0  0  0  0  0  0  0  0  0  0  0  0
   -1.6320    1.1090   -0.0900 C   0  0  1  0  0  0  0  0  0  0  0  0
   -2.2230    0.2070   -1.1630 C   0  0  0  0  0  0  0  0  0  0  0  0
   -1.3870   -0.8330   -1.4980 O   0  0  0  0  0  0  0  0  0  0  0  0
   -0.6470   -1.3230   -0.4280 C   0  0  2  0  0  0  0  0  0  0  0  0
   -0.0250   -2.4930   -0.7970 O   0  0  0  0  0  0  0  0  0  0  0  0
   -1.3800   -1.5290    0.7110 O   0  0  0  0  0  0  0  0  0  0  0  0
   -0.4600   -1.4380    1.7470 C   0  0  0  0  0  0  0  0  0  0  0  0
    0.5370   -0.5770    1.3610 O   0  0  0  0  0  0  0  0  0  0  0  0
    0.4060   -0.3210    0.0140 C   0  0  1  0  0  0  0  0  0  0  0  0
    1.5450   -0.5700   -0.7120 O   0  0  0  0  0  0  0  0  0  0  0  0
    2.8450    0.4780   -0.3360 P   0  0  0  0  0  0  0  0  0  0  0  0
    4.3590   -0.1240   -0.8540 O   0  0  0  0  0  0  0  0  0  0  0  0
    2.8350    1.0440    1.2850 O   0  0  0  0  0  0  0  0  0  0  0  0
   -0.1160    1.0510   -0.2870 C   0  0  0  0  0  0  0  0  0  0  0  0
  2  1  1  6
  2  3  1  0
  2 15  1  0
  3  4  1  0
  4  5  1  0
  5  6  1  6
  5  7  1  0
  5 10  1  0
  7  8  1  0
  8  9  1  0
  9 10  1  0
 10 11  1  6
 10 15  1  0
 11 12  1  0
 12 13  1  0
 12 14  1  0
M  END
