
     RDKit          3D

 16 16  0  0  0  0  0  0  0  0999 V2000
   -0.7530    2.2440   -0.2870 O   0  0  0  0  0  0  0  0  0  0  0  0
   -0.9340    1.1440    0.3070 C   0  0  0  0  0  0  0  0  0  0  0  0
   -2.0210    1.0370    1.2310 O   0  0  0  0  0  0  0  0  0  0  0  0
   -2.7690   -0.1520    1.0020 C   0  0  1  0  0  0  0  0  0  0  0  0
   -4.0290    0.1560    0.3530 C   0  0  0  0  0  0  0  0  0  0  0  0
   -4.5320    1.2450    0.7100 O   0  0  0  0  0  0  0  0  0  0  0  0
   -4.5860   -0.6580   -0.5720 O   0  0  0  0  0  0  0  0  0  0  0  0
   -1.9880   -1.1990    0.2020 C   0  0  0  0  0  0  0  0  0  0  0  0
   -0.6280   -1.1910    0.5800 O   0  0  0  0  0  0  0  0  0  0  0  0
   -0.0920   -0.0480    0.0940 C   0  0  2  0  0  0  0  0  0  0  0  0
    1.1290    0.2880    0.6860 O   0  0  0  0  0  0  0  0  0  0  0  0
    1.9700    0.4410   -0.3110 C   0  0  0  0  0  0  0  0  0  0  0  0
    3.4450    0.8670   -0.0430 C   0  0  0  0  0  0  0  0  0  0  0  0
    3.8290    0.8720   -1.3860 O   0  0  0  0  0  0  0  0  0  0  0  0
    4.7700   -0.0120   -1.5950 O   0  0  0  0  0  0  0  0  0  0  0  0
    4.6060   -1.0170   -0.7620 O   0  0  0  0  0  0  0  0  0  0  0  0
  1  2  2  0
  2  3  1  0
  2 10  1  0
  3  4  1  0
  4  5  1  6
  4  8  1  0
  5  6  2  0
  5  7  1  0
  8  9  1  0
  9 10  1  0
 10 11  1  1
 11 12  1  0
 12 13  1  0
 13 14  1  0
 14 15  1  0
 15 16  1  0
M  END
