
     RDKit          3D

 21 21  0  0  0  0  0  0  0  0999 V2000
   -0.3770   -1.1660    1.5250 O   0  0  0  0  0  0  0  0  0  0  0  0
   -0.6630   -0.6510    0.4000 C   0  0  0  0  0  0  0  0  0  0  0  0
    0.3390   -0.4600   -0.5900 N   0  0  0  0  0  0  0  0  0  0  0  0
    1.6960   -0.8470   -0.3340 C   0  0  0  0  0  0  0  0  0  0  0  0
    2.6020   -0.5590   -1.5150 C   0  0  2  0  0  0  0  0  0  0  0  0
    2.5670    0.7870   -1.7680 O   0  0  0  0  0  0  0  0  0  0  0  0
    3.7540    1.4590   -1.6990 C   0  0  0  0  0  0  0  0  0  0  0  0
    4.3270    1.3610   -0.3170 C   0  0  0  0  0  0  0  0  0  0  0  0
    3.4360    1.9210    0.6160 O   0  0  0  0  0  0  0  0  0  0  0  0
    3.9940    1.8050    1.8040 O   0  0  0  0  0  0  0  0  0  0  0  0
    3.3880    2.6640    2.5910 O   0  0  0  0  0  0  0  0  0  0  0  0
    2.2000   -1.3420   -2.7080 C   0  0  0  0  0  0  0  0  0  0  0  0
    2.1470   -2.5960   -2.7450 O   0  0  0  0  0  0  0  0  0  0  0  0
    1.8610   -0.6490   -3.8570 O   0  0  0  0  0  0  0  0  0  0  0  0
   -2.0170   -0.2860    0.2000 N   0  0  0  0  0  0  0  0  0  0  0  0
   -3.0540   -0.4700    1.1910 C   0  0  1  0  0  0  0  0  0  0  0  0
   -3.6740    0.8380    1.6310 C   0  0  0  0  0  0  0  0  0  0  0  0
   -4.9860    0.8670    1.1410 O   0  0  0  0  0  0  0  0  0  0  0  0
   -5.7820   -0.0970    1.7350 C   0  0  0  0  0  0  0  0  0  0  0  0
   -5.1470   -1.3600    1.7190 O   0  0  0  0  0  0  0  0  0  0  0  0
   -4.1690   -1.3640    0.7050 C   0  0  0  0  0  0  0  0  0  0  0  0
  1  2  2  0
  2  3  1  0
  2 15  1  0
  3  4  1  0
  5  4  1  1
  5  6  1  0
  5 12  1  0
  6  7  1  0
  7  8  1  0
  8  9  1  0
  9 10  1  0
 10 11  1  0
 12 13  2  0
 12 14  1  0
 16 15  1  6
 16 17  1  0
 16 21  1  0
 17 18  1  0
 18 19  1  0
 19 20  1  0
 20 21  1  0
M  END
