
     RDKit          3D

 26 27  0  0  0  0  0  0  0  0999 V2000
    8.1560    1.9360   -0.4600 N   0  0  0  0  0  0  0  0  0  0  0  0
    6.7530    1.7590   -0.5680 C   0  0  0  0  0  0  0  0  0  0  0  0
    6.0780    2.4360   -1.4110 O   0  0  0  0  0  0  0  0  0  0  0  0
    6.1410    0.7810    0.3200 C   0  0  0  0  0  0  0  0  0  0  0  0
    4.7230    0.7600    0.0470 N   0  0  0  0  0  0  0  0  0  0  0  0
    3.9210   -0.0770    0.7470 C   0  0  0  0  0  0  0  0  0  0  0  0
    4.4930   -0.8370    1.6560 O   0  0  0  0  0  0  0  0  0  0  0  0
    2.6190   -0.3310    0.7390 N   0  0  0  0  0  0  0  0  0  0  0  0
    1.2830   -0.5730    0.7100 C   0  0  0  0  0  0  0  0  0  0  0  0
    1.0370   -1.4880    1.5850 O   0  0  0  0  0  0  0  0  0  0  0  0
    0.4040    0.0530   -0.0930 N   0  0  0  0  0  0  0  0  0  0  0  0
   -0.9920   -0.3070   -0.0030 C   0  0  0  0  0  0  0  0  0  0  0  0
   -1.2580   -1.5520    0.1190 C   0  0  0  0  0  0  0  0  0  0  0  0
   -2.4950   -2.2330    0.2350 C   0  0  0  0  0  0  0  0  0  0  0  0
   -2.5410   -3.5880    0.3590 C   0  0  0  0  0  0  0  0  0  0  0  0
   -3.8610   -4.2050    0.4720 C   0  0  0  0  0  0  0  0  0  0  0  0
   -4.7840   -3.9270   -0.6850 C   0  0  0  0  0  0  0  0  0  0  0  0
   -5.0570   -2.5300   -0.8700 N   0  0  0  0  0  0  0  0  0  0  0  0
   -4.1290   -1.5480    0.2380 S   0  0  0  0  0  0  0  0  0  0  0  0
   -4.7010   -1.7430    1.6310 O   0  0  0  0  0  0  0  0  0  0  0  0
   -1.8750    0.8400   -0.0120 C   0  0  0  0  0  0  0  0  0  0  0  0
   -3.1160    0.7620    0.0570 O   0  0  0  0  0  0  0  0  0  0  0  0
   -1.3350    2.1750   -0.1030 N   0  0  0  0  0  0  0  0  0  0  0  0
   -2.2790    3.2910   -0.1090 C   0  0  2  0  0  0  0  0  0  0  0  0
   -1.8630    4.4430   -1.0080 C   0  0  0  0  0  0  0  0  0  0  0  0
   -1.7270    4.5610    0.4740 C   0  0  0  0  0  0  0  0  0  0  0  0
  1  2  1  0
  2  3  2  0
  2  4  1  0
  4  5  1  0
  5  6  1  0
  6  7  2  0
  6  8  1  0
  8  9  1  0
  9 10  2  0
  9 11  1  0
 11 12  1  0
 12 13  2  3
 12 21  1  0
 13 14  1  0
 14 15  2  0
 14 19  1  0
 15 16  1  0
 16 17  1  0
 17 18  1  0
 19 18  1  6
 19 20  2  0
 21 22  2  0
 21 23  1  0
 24 23  1  6
 24 25  1  0
 24 26  1  0
 25 26  1  0
M  CHG  1  18   1
M  END
