
     RDKit          3D

 26 27  0  0  0  0  0  0  0  0999 V2000
    9.4940    0.5610   -0.3270 C   0  0  0  0  0  0  0  0  0  0  0  0
    8.4720    0.1330   -1.3770 C   0  0  1  0  0  0  0  0  0  0  0  0
    8.7310   -1.2060   -1.6790 O   0  0  0  0  0  0  0  0  0  0  0  0
    7.1110    0.2010   -0.7340 C   0  0  0  0  0  0  0  0  0  0  0  0
    6.9180    0.9650    0.3790 C   0  0  0  0  0  0  0  0  0  0  0  0
    5.6740    1.0250    0.9620 C   0  0  0  0  0  0  0  0  0  0  0  0
    4.6440    0.3090    0.4080 C   0  0  0  0  0  0  0  0  0  0  0  0
    3.3720    0.3730    1.0090 N   0  0  0  0  0  0  0  0  0  0  0  0
    2.2360   -0.3160    0.5520 N   0  0  0  0  0  0  0  0  0  0  0  0
    0.9250    0.0110    0.9420 C   0  0  0  0  0  0  0  0  0  0  0  0
    0.7940    0.9820    1.7490 O   0  0  0  0  0  0  0  0  0  0  0  0
   -0.2770   -0.6800    0.4890 C   0  0  0  0  0  0  0  0  0  0  0  0
   -0.1860   -1.6530   -0.3250 O   0  0  0  0  0  0  0  0  0  0  0  0
   -1.5660   -0.3260    0.9120 N   0  0  0  0  0  0  0  0  0  0  0  0
   -2.7860   -0.9860    0.4870 C   0  0  1  0  0  0  0  0  0  0  0  0
   -3.7000   -1.3180    1.6980 C   0  0  0  0  0  0  0  0  0  0  0  0
   -4.0970   -0.3180    0.6390 C   0  0  2  0  0  0  0  0  0  0  0  0
   -5.4120   -0.8740   -0.4430 S   0  0  0  0  0  0  0  0  0  0  0  0
   -5.6290   -2.3710   -0.2910 O   0  0  0  0  0  0  0  0  0  0  0  0
   -6.9400   -0.0090   -0.1750 C   0  0  2  0  0  0  0  0  0  0  0  0
   -7.9750   -0.5810   -1.1570 C   0  0  0  0  0  0  0  0  0  0  0  0
   -9.2560    0.0800   -0.9980 N   0  0  0  0  0  0  0  0  0  0  0  0
   -6.8020    1.4540   -0.5170 C   0  0  0  0  0  0  0  0  0  0  0  0
   -5.8330    2.0800    0.2600 O   0  0  0  0  0  0  0  0  0  0  0  0
    4.8650   -0.4340   -0.6910 N   0  0  0  0  0  0  0  0  0  0  0  0
    6.0690   -0.4700   -1.2240 N   0  0  0  0  0  0  0  0  0  0  0  0
  2  1  1  1
  2  3  1  0
  2  4  1  0
  4  5  2  0
  4 26  1  0
  5  6  1  0
  6  7  2  0
  7  8  1  0
  7 25  1  0
  8  9  1  0
  9 10  1  0
 10 11  2  0
 10 12  1  0
 12 13  2  0
 12 14  1  0
 15 14  1  1
 15 16  1  0
 15 17  1  0
 17 16  1  1
 17 18  1  0
 18 19  2  0
 18 20  1  1
 20 21  1  6
 20 23  1  0
 21 22  1  0
 23 24  1  0
 25 26  2  0
M  CHG  1  25   1
M  END
