
     RDKit          3D

 26 27  0  0  0  0  0  0  0  0999 V2000
   -4.1350   -3.3280   -0.2180 N   0  0  0  0  0  0  0  0  0  0  0  0
   -3.7830   -2.0740    0.2840 C   0  0  0  0  0  0  0  0  0  0  0  0
   -3.3600   -1.9720    1.4700 O   0  0  0  0  0  0  0  0  0  0  0  0
   -3.8730   -0.7860   -0.5480 C   0  0  2  0  0  0  0  0  0  0  0  0
   -2.6850   -0.0560   -0.3580 N   0  0  0  0  0  0  0  0  0  0  0  0
   -1.4260   -0.7940   -0.2850 C   0  0  0  0  0  0  0  0  0  0  0  0
   -1.4720   -2.0090   -0.3160 O   0  0  0  0  0  0  0  0  0  0  0  0
   -0.3180    0.1220   -0.1990 N   0  0  0  0  0  0  0  0  0  0  0  0
    0.8510   -1.0180    0.4210 C   0  0  0  0  0  0  0  0  0  0  0  0
    0.3900   -2.0640    0.6770 O   0  0  0  0  0  0  0  0  0  0  0  0
    2.1050   -0.4260    0.4850 N   0  0  0  0  0  0  0  0  0  0  0  0
    2.3930    0.8740   -0.0460 C   0  0  0  0  0  0  0  0  0  0  0  0
    3.8390    1.2190   -0.0740 C   0  0  0  0  0  0  0  0  0  0  0  0
    4.5410    0.9020    1.0860 O   0  0  0  0  0  0  0  0  0  0  0  0
    5.2260   -0.3070    0.9360 C   0  0  2  0  0  0  0  0  0  0  0  0
    6.5100   -0.1740    0.1840 C   0  0  0  0  0  0  0  0  0  0  0  0
    7.4260    0.7450    0.9010 N   0  0  0  0  0  0  0  0  0  0  0  0
    4.3050   -1.3460    0.3800 C   0  0  0  0  0  0  0  0  0  0  0  0
    3.0460   -1.3050    1.2110 C   0  0  0  0  0  0  0  0  0  0  0  0
   -5.0480   -0.0720   -0.0070 C   0  0  2  0  0  0  0  0  0  0  0  0
   -6.2400   -0.8270   -0.2110 N   0  0  0  0  0  0  0  0  0  0  0  0
   -5.2380    1.3300   -0.4590 C   0  0  0  0  0  0  0  0  0  0  0  0
   -4.8440    2.0490   -1.4490 C   0  0  0  0  0  0  0  0  0  0  0  0
   -5.2130    3.3440   -1.5500 O   0  0  0  0  0  0  0  0  0  0  0  0
   -5.9600    3.9170   -0.5210 C   0  0  0  0  0  0  0  0  0  0  0  0
   -6.2710    2.4740    0.5240 S   0  0  0  0  0  0  0  0  0  0  0  0
  1  2  1  0
  2  3  2  0
  2  4  1  0
  4  5  1  1
  4 20  1  0
  5  6  1  0
  6  7  2  0
  6  8  1  0
  8  9  1  0
  9 10  2  0
  9 11  1  0
 11 12  1  0
 11 19  1  0
 12 13  1  0
 13 14  1  0
 14 15  1  0
 15 16  1  6
 15 18  1  0
 16 17  1  0
 18 19  1  0
 20 21  1  6
 20 22  1  0
 22 23  2  0
 22 26  1  0
 23 24  1  0
 24 25  1  0
 25 26  1  0
M  CHG  1  17   1
M  END
