
     RDKit          3D

 26 28  0  0  0  0  0  0  0  0999 V2000
   -7.8280    0.0270    1.2730 N   0  0  0  0  0  0  0  0  0  0  0  0
   -6.6620   -0.1590    0.5020 C   0  0  0  0  0  0  0  0  0  0  0  0
   -6.6790   -0.7710   -0.7000 N   0  0  0  0  0  0  0  0  0  0  0  0
   -5.5670   -0.9490   -1.4380 C   0  0  0  0  0  0  0  0  0  0  0  0
   -4.3510   -0.5280   -1.0280 N   0  0  0  0  0  0  0  0  0  0  0  0
   -4.2810    0.0850    0.1580 C   0  0  0  0  0  0  0  0  0  0  0  0
   -5.4050    0.2800    0.9330 C   0  0  0  0  0  0  0  0  0  0  0  0
   -5.0210    0.9050    2.0350 N   0  0  0  0  0  0  0  0  0  0  0  0
   -3.7120    1.1020    1.9710 C   0  0  0  0  0  0  0  0  0  0  0  0
   -3.2250    0.6000    0.8090 N   0  0  0  0  0  0  0  0  0  0  0  0
   -1.8430    0.6620    0.4510 C   0  0  2  0  0  0  0  0  0  0  0  0
   -1.4550   -0.2700   -0.5030 O   0  0  0  0  0  0  0  0  0  0  0  0
   -0.0540   -0.3210   -0.3340 C   0  0  2  0  0  0  0  0  0  0  0  0
    0.5450   -1.4540   -1.1250 C   0  0  0  0  0  0  0  0  0  0  0  0
    2.3220   -1.5070   -0.9060 S   0  0  0  0  0  0  0  0  0  0  0  0
    3.1560   -0.0730   -1.6130 C   0  0  0  0  0  0  0  0  0  0  0  0
    4.6540   -0.1570   -1.4200 C   0  0  0  0  0  0  0  0  0  0  0  0
    5.0030   -0.2160    0.0480 C   0  0  2  0  0  0  0  0  0  0  0  0
    4.5230    0.9660    0.7110 N   0  0  0  0  0  0  0  0  0  0  0  0
    6.4570   -0.4300    0.2580 C   0  0  0  0  0  0  0  0  0  0  0  0
    7.0510   -1.4150   -0.2490 O   0  0  0  0  0  0  0  0  0  0  0  0
    7.2520    0.4300    1.0180 O   0  0  0  0  0  0  0  0  0  0  0  0
    0.0120   -0.5930    1.1650 C   0  0  1  0  0  0  0  0  0  0  0  0
    1.2650   -0.4130    1.6920 O   0  0  0  0  0  0  0  0  0  0  0  0
   -0.9940    0.4230    1.6690 C   0  0  1  0  0  0  0  0  0  0  0  0
   -0.2920    1.5850    2.0030 O   0  0  0  0  0  0  0  0  0  0  0  0
  1  2  1  0
  2  3  2  0
  2  7  1  0
  3  4  1  0
  4  5  2  0
  5  6  1  0
  6  7  2  0
  6 10  1  0
  7  8  1  0
  8  9  2  0
  9 10  1  0
 11 10  1  1
 11 12  1  0
 11 25  1  0
 12 13  1  0
 13 14  1  6
 13 23  1  0
 14 15  1  0
 15 16  1  0
 16 17  1  0
 17 18  1  0
 18 19  1  1
 18 20  1  0
 20 21  2  0
 20 22  1  0
 23 24  1  1
 23 25  1  0
 25 26  1  6
M  CHG  1  19   1
M  END
