
     RDKit          3D

 26 27  0  0  0  0  0  0  0  0999 V2000
   -3.8830    0.0650   -1.6240 C   0  0  0  0  0  0  0  0  0  0  0  0
   -3.5610    0.5230   -0.2410 C   0  0  2  0  0  0  0  0  0  0  0  0
   -3.7200   -0.5020    0.8280 C   0  0  0  0  0  0  0  0  0  0  0  0
   -4.3480    1.6210    0.1890 O   0  0  0  0  0  0  0  0  0  0  0  0
   -3.5870    2.2870    1.1300 C   0  0  0  0  0  0  0  0  0  0  0  0
   -2.3080    1.7880    1.1170 O   0  0  0  0  0  0  0  0  0  0  0  0
   -2.1890    1.2270   -0.1350 C   0  0  2  0  0  0  0  0  0  0  0  0
   -2.1280    2.3340   -1.1400 C   0  0  0  0  0  0  0  0  0  0  0  0
   -0.9490    3.1540   -0.8030 N   0  0  0  0  0  0  0  0  0  0  0  0
   -1.1130    0.2310   -0.2760 C   0  0  0  0  0  0  0  0  0  0  0  0
    0.2150    0.4090   -0.4590 N   0  0  0  0  0  0  0  0  0  0  0  0
    0.8470   -0.7760   -0.5180 C   0  0  0  0  0  0  0  0  0  0  0  0
    2.2970   -1.0450   -0.7200 C   0  0  2  0  0  0  0  0  0  0  0  0
    2.5090   -2.0680   -1.6220 O   0  0  0  0  0  0  0  0  0  0  0  0
    3.0760   -1.1700    0.5300 C   0  0  0  0  0  0  0  0  0  0  0  0
    2.9300    0.4290    1.4380 S   0  0  0  0  0  0  0  0  0  0  0  0
    3.8070    1.6800    0.4360 C   0  0  0  0  0  0  0  0  0  0  0  0
    5.2480    1.3140    0.4380 C   0  0  0  0  0  0  0  0  0  0  0  0
    6.1560    2.1450   -0.2930 N   0  0  0  0  0  0  0  0  0  0  0  0
    5.6520    0.3100    1.0700 O   0  0  0  0  0  0  0  0  0  0  0  0
   -0.1060   -1.7210   -0.3710 N   0  0  0  0  0  0  0  0  0  0  0  0
    0.0270   -3.1710   -0.3490 C   0  0  0  0  0  0  0  0  0  0  0  0
    0.2140   -3.6430    1.0360 C   0  0  0  0  0  0  0  0  0  0  0  0
    0.3760   -5.0190    1.2610 N   0  0  0  0  0  0  0  0  0  0  0  0
    0.2300   -2.8590    1.9880 O   0  0  0  0  0  0  0  0  0  0  0  0
   -1.2760   -1.0950   -0.2290 N   0  0  0  0  0  0  0  0  0  0  0  0
  2  1  1  6
  2  3  1  0
  2  4  1  0
  2  7  1  0
  4  5  1  0
  5  6  1  0
  6  7  1  0
  7  8  1  6
  7 10  1  0
  8  9  1  0
 10 11  1  0
 10 26  2  0
 11 12  2  0
 12 13  1  0
 12 21  1  0
 13 14  1  1
 13 15  1  0
 15 16  1  0
 16 17  1  0
 17 18  1  0
 18 19  1  0
 18 20  2  0
 21 22  1  0
 21 26  1  0
 22 23  1  0
 23 24  1  0
 23 25  2  0
M  CHG  1   9   1
M  END
