
     RDKit          3D

 26 28  0  0  0  0  0  0  0  0999 V2000
    0.7930   -1.7680    0.8470 C   0  0  0  0  0  0  0  0  0  0  0  0
   -0.0100   -0.8200   -0.0960 C   0  0  2  0  0  0  0  0  0  0  0  0
   -1.3310   -1.3840   -0.2060 C   0  0  0  0  0  0  0  0  0  0  0  0
   -2.4290   -0.7700   -0.9780 C   0  0  1  0  0  0  0  0  0  0  0  0
   -3.6040   -1.8280   -0.8780 C   0  0  0  0  0  0  0  0  0  0  0  0
   -3.2070   -3.0240   -1.4170 O   0  0  0  0  0  0  0  0  0  0  0  0
   -3.1010    0.4260   -0.2920 C   0  0  0  0  0  0  0  0  0  0  0  0
   -4.1390    0.9310   -1.1440 O   0  0  0  0  0  0  0  0  0  0  0  0
   -4.9170    2.0060   -0.7920 C   0  0  0  0  0  0  0  0  0  0  0  0
   -4.8730    2.4880    0.3970 N   0  0  0  0  0  0  0  0  0  0  0  0
   -5.7800    2.5860   -1.7630 N   0  0  0  0  0  0  0  0  0  0  0  0
    0.7980   -0.9060   -1.3430 N   0  0  0  0  0  0  0  0  0  0  0  0
    2.1190   -0.8980   -0.9540 N   0  0  0  0  0  0  0  0  0  0  0  0
    2.6000    0.0710    0.0250 C   0  0  0  0  0  0  0  0  0  0  0  0
    1.6090    0.7510    0.7030 C   0  0  0  0  0  0  0  0  0  0  0  0
    2.4570    1.7900    1.7790 S   0  0  0  0  0  0  0  0  0  0  0  0
    4.1030    1.3220    1.3280 C   0  0  0  0  0  0  0  0  0  0  0  0
    5.3740    1.7140    1.7490 C   0  0  0  0  0  0  0  0  0  0  0  0
    5.4190    2.5870    2.6410 O   0  0  0  0  0  0  0  0  0  0  0  0
    6.4600    1.1570    1.1960 N   0  0  0  0  0  0  0  0  0  0  0  0
    6.2590    0.2380    0.2530 C   0  0  0  0  0  0  0  0  0  0  0  0
    7.2880   -0.3230   -0.3040 O   0  0  0  0  0  0  0  0  0  0  0  0
    5.0460   -0.1430   -0.1550 N   0  0  0  0  0  0  0  0  0  0  0  0
    3.8840    0.3740    0.3550 C   0  0  0  0  0  0  0  0  0  0  0  0
    0.1420    0.5390    0.4400 C   0  0  1  0  0  0  0  0  0  0  0  0
   -0.1030    1.5130   -0.5770 O   0  0  0  0  0  0  0  0  0  0  0  0
  2  1  1  1
  2  3  1  0
  2 12  1  0
  2 25  1  0
  4  3  1  1
  4  5  1  0
  4  7  1  0
  5  6  1  0
  7  8  1  0
  8  9  1  0
  9 10  2  0
  9 11  1  0
 12 13  1  0
 13 14  1  0
 14 15  2  0
 14 24  1  0
 15 16  1  0
 15 25  1  0
 16 17  1  0
 17 18  1  0
 17 24  2  0
 18 19  2  0
 18 20  1  0
 20 21  1  0
 21 22  2  0
 21 23  1  0
 23 24  1  0
 25 26  1  6
M  CHG  1  12   1
M  END
