
     RDKit          3D

 21 24  0  0  0  0  0  0  0  0999 V2000
   -4.0910   -0.6110    0.4220 C   0  0  0  0  0  0  0  0  0  0  0  0
   -2.8270    0.0930   -0.0920 C   0  0  2  0  0  0  0  0  0  0  0  0
   -2.5690   -0.2480   -1.3810 O   0  0  0  0  0  0  0  0  0  0  0  0
   -1.6390   -1.1970   -1.6370 C   0  0  0  0  0  0  0  0  0  0  0  0
   -0.4500   -1.2610   -0.7310 C   0  0  1  0  0  0  0  0  0  0  0  0
    0.7800   -1.4390   -1.5840 C   0  0  0  0  0  0  0  0  0  0  0  0
    2.0200   -1.4080   -0.7770 C   0  0  0  0  0  0  0  0  0  0  0  0
    2.9260   -2.3710   -0.7260 C   0  0  0  0  0  0  0  0  0  0  0  0
    4.0320   -1.9940    0.1870 C   0  0  0  0  0  0  0  0  0  0  0  0
    3.6300   -0.6630    0.6590 C   0  0  0  0  0  0  0  0  0  0  0  0
    2.4630   -0.3440    0.0890 C   0  0  0  0  0  0  0  0  0  0  0  0
    1.8340    0.9430    0.3860 C   0  0  0  0  0  0  0  0  0  0  0  0
    0.3590    1.0240    0.0420 C   0  0  1  0  0  0  0  0  0  0  0  0
   -0.1970    2.1140    0.9800 C   0  0  0  0  0  0  0  0  0  0  0  0
    0.6470    3.3000    0.5560 C   0  0  0  0  0  0  0  0  0  0  0  0
    0.4340    3.2080   -0.9480 C   0  0  0  0  0  0  0  0  0  0  0  0
    0.2650    1.7180   -1.2600 C   0  0  0  0  0  0  0  0  0  0  0  0
   -0.3550   -0.2130    0.3110 C   0  0  2  0  0  0  0  0  0  0  0  0
    0.3790   -0.7860    1.3990 O   0  0  0  0  0  0  0  0  0  0  0  0
   -1.7470   -0.0920    0.9040 C   0  0  2  0  0  0  0  0  0  0  0  0
   -1.9950   -1.3220    1.8010 C   0  0  0  0  0  0  0  0  0  0  0  0
  2  1  1  1
  2  3  1  0
  2 20  1  0
  3  4  1  0
  5  4  1  6
  5  6  1  0
  5 18  1  0
  6  7  1  0
  7  8  2  0
  7 11  1  0
  8  9  1  0
  9 10  1  0
 10 11  2  0
 11 12  1  0
 13 12  1  1
 13 14  1  0
 13 17  1  0
 13 18  1  0
 14 15  1  0
 15 16  1  0
 16 17  1  0
 18 19  1  1
 18 20  1  0
 20 21  1  6
M  END
