
     RDKit          3D

 26 27  0  0  0  0  0  0  0  0999 V2000
    4.7060   -1.4600   -0.5370 C   0  0  0  0  0  0  0  0  0  0  0  0
    3.9350   -1.0940    0.7220 C   0  0  1  0  0  0  0  0  0  0  0  0
    4.8950   -1.1580    1.8520 C   0  0  0  0  0  0  0  0  0  0  0  0
    6.0210   -0.2990    1.9430 N   0  0  0  0  0  0  0  0  0  0  0  0
    4.7260   -1.9940    2.7740 O   0  0  0  0  0  0  0  0  0  0  0  0
    3.3900    0.3000    0.5070 C   0  0  0  0  0  0  0  0  0  0  0  0
    2.0500    0.4960    1.1780 C   0  0  0  0  0  0  0  0  0  0  0  0
    1.0120   -0.4950    0.7510 C   0  0  1  0  0  0  0  0  0  0  0  0
    0.1360    0.0580   -0.2910 N   0  0  0  0  0  0  0  0  0  0  0  0
   -1.2730    0.1570   -0.1150 C   0  0  0  0  0  0  0  0  0  0  0  0
   -1.7740   -0.2420    0.9680 O   0  0  0  0  0  0  0  0  0  0  0  0
   -2.1240    0.6930   -1.1220 N   0  0  0  0  0  0  0  0  0  0  0  0
   -3.5150    0.8120   -0.9740 C   0  0  0  0  0  0  0  0  0  0  0  0
   -4.3180    0.1340   -1.7630 C   0  0  0  0  0  0  0  0  0  0  0  0
   -3.8110   -0.7510   -2.8000 C   0  0  0  0  0  0  0  0  0  0  0  0
   -4.6980   -1.4690   -3.6410 N   0  0  0  0  0  0  0  0  0  0  0  0
   -2.5680   -0.8680   -2.9390 O   0  0  0  0  0  0  0  0  0  0  0  0
   -4.1250    1.6960    0.0590 C   0  0  0  0  0  0  0  0  0  0  0  0
   -3.3220    2.3840    0.8480 C   0  0  0  0  0  0  0  0  0  0  0  0
   -4.3440    3.3160    1.9440 S   0  0  0  0  0  0  0  0  0  0  0  0
   -4.2630    4.8080    1.6550 O   0  0  0  0  0  0  0  0  0  0  0  0
   -5.8850    2.7370    1.2890 C   0  0  0  0  0  0  0  0  0  0  0  0
   -7.0500    3.0470    1.6630 O   0  0  0  0  0  0  0  0  0  0  0  0
   -5.4870    1.8530    0.2580 N   0  0  0  0  0  0  0  0  0  0  0  0
    1.7110   -1.6780    0.1200 C   0  0  0  0  0  0  0  0  0  0  0  0
    2.8850   -2.0720    0.8710 N   0  0  0  0  0  0  0  0  0  0  0  0
  2  1  1  6
  2  3  1  0
  2  6  1  0
  2 26  1  0
  3  4  1  0
  3  5  2  0
  6  7  1  0
  7  8  1  0
  8  9  1  6
  8 25  1  0
  9 10  1  0
 10 11  2  0
 10 12  1  0
 12 13  1  0
 13 14  2  3
 13 18  1  0
 14 15  1  0
 15 16  1  0
 15 17  2  0
 18 19  2  0
 18 24  1  0
 20 19  1  6
 20 21  2  0
 20 22  1  0
 22 23  2  0
 22 24  1  0
 25 26  1  0
M  CHG  1  26   1
M  END
