
     RDKit          3D

 26 27  0  0  0  0  0  0  0  0999 V2000
    4.5200    1.7280   -1.2480 C   0  0  0  0  0  0  0  0  0  0  0  0
    3.0180    1.9980   -1.2620 C   0  0  1  0  0  0  0  0  0  0  0  0
    2.0020    0.6560   -1.7330 S   0  0  0  0  0  0  0  0  0  0  0  0
    1.9410   -0.8010   -0.7030 C   0  0  0  0  0  0  0  0  0  0  0  0
    1.2500   -0.7410    0.5990 C   0  0  0  0  0  0  0  0  0  0  0  0
   -0.1220   -0.4720    0.6260 N   0  0  0  0  0  0  0  0  0  0  0  0
   -0.6830    0.8830    0.6690 C   0  0  0  0  0  0  0  0  0  0  0  0
   -0.0940    1.7390    1.3710 O   0  0  0  0  0  0  0  0  0  0  0  0
   -1.9120    1.2410   -0.0940 C   0  0  2  0  0  0  0  0  0  0  0  0
   -2.6540    2.1870    0.7140 N   0  0  0  0  0  0  0  0  0  0  0  0
   -2.9050    3.5200    0.2850 C   0  0  0  0  0  0  0  0  0  0  0  0
   -3.6370    4.3800    1.1340 N   0  0  0  0  0  0  0  0  0  0  0  0
   -2.4590    3.8550   -0.8310 O   0  0  0  0  0  0  0  0  0  0  0  0
   -2.7970    0.0510   -0.3270 C   0  0  0  0  0  0  0  0  0  0  0  0
   -2.5290   -1.0680    0.6460 C   0  0  1  0  0  0  0  0  0  0  0  0
   -3.4680   -2.0730    0.5920 O   0  0  0  0  0  0  0  0  0  0  0  0
   -3.1270   -3.3890    0.6240 C   0  0  0  0  0  0  0  0  0  0  0  0
   -4.0320   -4.2990    0.6260 O   0  0  0  0  0  0  0  0  0  0  0  0
   -1.7610   -3.7620    0.6560 N   0  0  0  0  0  0  0  0  0  0  0  0
   -0.7060   -2.7370    0.6560 C   0  0  0  0  0  0  0  0  0  0  0  0
    0.5990   -3.2370    0.6610 C   0  0  0  0  0  0  0  0  0  0  0  0
    0.6400   -4.0980   -0.5750 N   0  0  0  0  0  0  0  0  0  0  0  0
   -1.1130   -1.5160    0.6310 C   0  0  0  0  0  0  0  0  0  0  0  0
    2.5500    2.7810   -0.1350 C   0  0  0  0  0  0  0  0  0  0  0  0
    3.0540    2.5640    1.1690 N   0  0  0  0  0  0  0  0  0  0  0  0
    1.6790    3.6850   -0.2630 O   0  0  0  0  0  0  0  0  0  0  0  0
  2  1  1  1
  2  3  1  0
  2 24  1  0
  3  4  1  0
  4  5  1  0
  5  6  1  0
  6  7  1  0
  6 23  1  0
  7  8  2  0
  7  9  1  0
  9 10  1  1
  9 14  1  0
 10 11  1  0
 11 12  1  0
 11 13  2  0
 15 14  1  6
 15 16  1  0
 15 23  1  0
 16 17  1  0
 17 18  2  0
 17 19  1  0
 19 20  1  0
 20 21  1  0
 20 23  2  0
 21 22  1  0
 24 25  1  0
 24 26  2  0
M  CHG  1  22   1
M  END
