
     RDKit          3D

 41 44  0  0  0  0  0  0  0  0999 V2000
    4.7440    3.8730    2.3250 C   0  0  0  0  0  0  0  0  0  0  0  0
    5.2740    2.4950    2.2710 C   0  0  0  0  0  0  0  0  0  0  0  0
    4.9490    1.7040    1.2660 C   0  0  0  0  0  0  0  0  0  0  0  0
    5.4250    0.3420    1.1390 C   0  0  0  0  0  0  0  0  0  0  0  0
    6.1810   -0.1350    2.0070 O   0  0  0  0  0  0  0  0  0  0  0  0
    5.0200   -0.4830   -0.0120 C   0  0  1  0  0  0  0  0  0  0  0  0
    3.5550   -0.7090    0.0750 C   0  0  0  0  0  0  0  0  0  0  0  0
    3.0100   -1.6180   -0.9020 N   0  0  0  0  0  0  0  0  0  0  0  0
    2.3360   -2.8100   -0.4610 C   0  0  0  0  0  0  0  0  0  0  0  0
    0.8750   -2.4850   -0.2810 C   0  0  0  0  0  0  0  0  0  0  0  0
   -0.1630   -3.0110   -0.1180 N   0  0  0  0  0  0  0  0  0  0  0  0
   -1.3750   -2.4720    0.0260 C   0  0  0  0  0  0  0  0  0  0  0  0
   -2.5070   -3.3780    0.1950 C   0  0  0  0  0  0  0  0  0  0  0  0
   -2.3320   -4.6460    0.9930 C   0  0  0  0  0  0  0  0  0  0  0  0
   -3.6770   -3.1470   -0.2880 C   0  0  0  0  0  0  0  0  0  0  0  0
   -4.7960   -4.1290   -0.0630 C   0  0  0  0  0  0  0  0  0  0  0  0
   -5.9180   -3.4680    0.6810 C   0  0  0  0  0  0  0  0  0  0  0  0
   -1.4500   -1.1290   -0.0080 C   0  0  0  0  0  0  0  0  0  0  0  0
   -2.3640   -0.0610    0.1060 C   0  0  0  0  0  0  0  0  0  0  0  0
   -1.9560    1.1390   -0.2290 O   0  0  0  0  0  0  0  0  0  0  0  0
   -3.6780   -0.0660    0.5490 N   0  0  0  0  0  0  0  0  0  0  0  0
   -4.4570    1.1680    0.6010 C   0  0  0  0  0  0  0  0  0  0  0  0
   -3.9560    2.3390    0.2320 N   0  0  0  0  0  0  0  0  0  0  0  0
   -4.6950    3.4500    0.2910 C   0  0  0  0  0  0  0  0  0  0  0  0
   -4.1230    4.7690   -0.1250 C   0  0  0  0  0  0  0  0  0  0  0  0
   -5.9990    3.4150    0.7370 C   0  0  0  0  0  0  0  0  0  0  0  0
   -7.0090    4.8390    0.8340 Cl  0  0  0  0  0  0  0  0  0  0  0  0
   -6.5330    2.1910    1.1260 C   0  0  0  0  0  0  0  0  0  0  0  0
   -7.8790    2.0830    1.5980 N   0  0  0  0  0  0  0  0  0  0  0  0
   -5.7250    1.1310    1.0340 N   0  0  0  0  0  0  0  0  0  0  0  0
    0.3510   -0.7180   -0.2800 S   0  0  0  0  0  0  0  0  0  0  0  0
    3.0620   -1.4620   -2.3150 C   0  0  0  0  0  0  0  0  0  0  0  0
    2.2720   -2.1620   -3.0170 O   0  0  0  0  0  0  0  0  0  0  0  0
    3.9190   -0.5880   -3.0400 N   0  0  0  0  0  0  0  0  0  0  0  0
    5.0370    0.1630   -2.5500 C   0  0  0  0  0  0  0  0  0  0  0  0
    5.6530    0.8930   -3.5450 C   0  0  0  0  0  0  0  0  0  0  0  0
    6.7650    1.6820   -3.2300 C   0  0  0  0  0  0  0  0  0  0  0  0
    7.2150    1.7100   -1.9380 C   0  0  0  0  0  0  0  0  0  0  0  0
    8.3050    2.4910   -1.6600 F   0  0  0  0  0  0  0  0  0  0  0  0
    6.5730    0.9670   -0.9710 C   0  0  0  0  0  0  0  0  0  0  0  0
    5.4740    0.1780   -1.2430 C   0  0  0  0  0  0  0  0  0  0  0  0
  1  2  1  0
  2  3  2  3
  3  4  1  0
  4  5  2  0
  6  4  1  1
  6  7  1  0
  6 41  1  0
  7  8  1  0
  8  9  1  0
  8 32  1  0
  9 10  1  0
 10 11  2  0
 10 31  1  0
 11 12  1  0
 12 13  1  0
 12 18  2  0
 13 14  1  0
 13 15  2  3
 15 16  1  0
 16 17  1  0
 18 19  1  0
 18 31  1  0
 19 20  2  0
 19 21  1  0
 21 22  1  0
 22 23  2  0
 22 30  1  0
 23 24  1  0
 24 25  1  0
 24 26  2  0
 26 27  1  0
 26 28  1  0
 28 29  1  0
 28 30  2  0
 32 33  2  0
 32 34  1  0
 34 35  1  0
 35 36  2  0
 35 41  1  0
 36 37  1  0
 37 38  2  0
 38 39  1  0
 38 40  1  0
 40 41  2  0
M  CHG  1  29   1
M  END
