
     RDKit          3D

 41 44  0  0  0  0  0  0  0  0999 V2000
    9.3670    1.3140   -1.4410 C   0  0  0  0  0  0  0  0  0  0  0  0
    8.8720    0.0550   -1.9620 N   0  0  0  0  0  0  0  0  0  0  0  0
    7.5200   -0.1470   -1.4670 C   0  0  1  0  0  0  0  0  0  0  0  0
    7.1230   -1.5640   -1.6610 C   0  0  0  0  0  0  0  0  0  0  0  0
    6.0590   -2.1100   -0.8010 C   0  0  0  0  0  0  0  0  0  0  0  0
    5.3940   -1.2450    0.1740 C   0  0  2  0  0  0  0  0  0  0  0  0
    3.9570   -1.0200   -0.1070 N   0  0  0  0  0  0  0  0  0  0  0  0
    2.9600   -1.3740    0.8000 C   0  0  0  0  0  0  0  0  0  0  0  0
    3.3680   -1.9020    1.8800 O   0  0  0  0  0  0  0  0  0  0  0  0
    1.5480   -1.1600    0.5450 C   0  0  0  0  0  0  0  0  0  0  0  0
    0.3360   -1.6700    1.8330 S   0  0  0  0  0  0  0  0  0  0  0  0
   -1.0720   -1.1540    0.9310 C   0  0  0  0  0  0  0  0  0  0  0  0
   -0.5780   -0.6370   -0.2620 C   0  0  0  0  0  0  0  0  0  0  0  0
   -1.5530   -0.1100   -1.3260 C   0  0  0  0  0  0  0  0  0  0  0  0
   -2.8980   -0.1720   -0.8160 N   0  0  0  0  0  0  0  0  0  0  0  0
   -3.2680    0.6260    0.2810 C   0  0  0  0  0  0  0  0  0  0  0  0
   -2.2970    1.3780    0.6930 O   0  0  0  0  0  0  0  0  0  0  0  0
   -4.4920    0.7250    0.9580 N   0  0  0  0  0  0  0  0  0  0  0  0
   -4.5890    1.8320    1.9000 C   0  0  0  0  0  0  0  0  0  0  0  0
   -3.4870    2.6950    2.0760 N   0  0  0  0  0  0  0  0  0  0  0  0
   -3.5930    3.9520    1.9690 C   0  0  0  0  0  0  0  0  0  0  0  0
   -5.1420    4.6610    1.5930 Cl  0  0  0  0  0  0  0  0  0  0  0  0
   -2.4080    4.8140    2.1620 C   0  0  0  0  0  0  0  0  0  0  0  0
   -2.1560    5.5510    1.0070 O   0  0  0  0  0  0  0  0  0  0  0  0
   -5.6820    2.0060    2.5560 N   0  0  0  0  0  0  0  0  0  0  0  0
   -6.7900    1.1470    2.3820 C   0  0  0  0  0  0  0  0  0  0  0  0
   -7.9060    1.3570    3.0720 C   0  0  0  0  0  0  0  0  0  0  0  0
   -7.9760    2.4030    3.9460 F   0  0  0  0  0  0  0  0  0  0  0  0
   -6.7290    0.0320    1.4550 C   0  0  0  0  0  0  0  0  0  0  0  0
   -7.8870   -0.8750    1.2760 C   0  0  0  0  0  0  0  0  0  0  0  0
   -5.5730   -0.1370    0.7760 C   0  0  0  0  0  0  0  0  0  0  0  0
   -5.5810   -1.3060   -0.0730 C   0  0  0  0  0  0  0  0  0  0  0  0
   -6.4130   -1.3440   -1.1560 C   0  0  0  0  0  0  0  0  0  0  0  0
   -6.5320   -2.4660   -1.9470 C   0  0  0  0  0  0  0  0  0  0  0  0
   -5.7960   -3.5900   -1.6470 C   0  0  0  0  0  0  0  0  0  0  0  0
   -4.9820   -3.5550   -0.5890 N   0  0  0  0  0  0  0  0  0  0  0  0
   -4.8470   -2.4720    0.2000 C   0  0  0  0  0  0  0  0  0  0  0  0
    0.7740   -0.6660   -0.4080 C   0  0  0  0  0  0  0  0  0  0  0  0
    1.3880   -0.1120   -1.6990 C   0  0  0  0  0  0  0  0  0  0  0  0
    5.9740    0.1320    0.3500 C   0  0  0  0  0  0  0  0  0  0  0  0
    7.4510    0.1720    0.0120 C   0  0  0  0  0  0  0  0  0  0  0  0
  1  2  1  0
  3  2  1  1
  3  4  1  0
  3 41  1  0
  4  5  1  0
  5  6  1  0
  6  7  1  6
  6 40  1  0
  7  8  1  0
  8  9  2  0
  8 10  1  0
 10 11  1  0
 10 38  2  0
 11 12  1  0
 12 13  2  0
 13 14  1  0
 13 38  1  0
 14 15  1  0
 15 16  1  0
 16 17  2  0
 16 18  1  0
 18 19  1  0
 18 31  1  0
 19 20  1  0
 19 25  2  0
 20 21  2  3
 21 22  1  0
 21 23  1  0
 23 24  1  0
 25 26  1  0
 26 27  2  3
 26 29  1  0
 27 28  1  0
 29 30  1  0
 29 31  2  0
 31 32  1  0
 32 33  2  0
 32 37  1  0
 33 34  1  0
 34 35  2  0
 35 36  1  0
 36 37  2  0
 38 39  1  0
 40 41  1  0
M  CHG  1   2   1
M  END
