
     RDKit          3D

 41 44  0  0  0  0  0  0  0  0999 V2000
   -3.3410    7.8960   -0.2430 C   0  0  0  0  0  0  0  0  0  0  0  0
   -2.2100    6.9320   -0.3960 C   0  0  0  0  0  0  0  0  0  0  0  0
   -2.6630    5.6020    0.1170 C   0  0  0  0  0  0  0  0  0  0  0  0
   -3.8320    5.4260    0.5750 O   0  0  0  0  0  0  0  0  0  0  0  0
   -1.7410    4.5370    0.0770 N   0  0  0  0  0  0  0  0  0  0  0  0
   -2.0990    3.2510    0.5450 C   0  0  0  0  0  0  0  0  0  0  0  0
   -3.6000    3.0170    1.1340 S   0  0  0  0  0  0  0  0  0  0  0  0
   -1.1950    2.1660    0.5110 N   0  0  0  0  0  0  0  0  0  0  0  0
   -1.5160    0.8480    0.9800 C   0  0  0  0  0  0  0  0  0  0  0  0
   -2.7160    0.4240    0.7130 N   0  0  0  0  0  0  0  0  0  0  0  0
   -3.2170   -0.8240    1.0630 N   0  0  0  0  0  0  0  0  0  0  0  0
   -4.5620   -1.1430    0.7140 C   0  0  0  0  0  0  0  0  0  0  0  0
   -4.7580   -1.7580   -0.5540 N   0  0  0  0  0  0  0  0  0  0  0  0
   -6.1750   -1.8930   -0.8290 C   0  0  0  0  0  0  0  0  0  0  0  0
   -6.4970   -3.2010   -1.4460 C   0  0  0  0  0  0  0  0  0  0  0  0
   -6.8190   -4.3380   -0.7350 C   0  0  0  0  0  0  0  0  0  0  0  0
   -7.1120   -5.5390   -1.3470 C   0  0  0  0  0  0  0  0  0  0  0  0
   -7.4140   -6.5950   -0.5770 F   0  0  0  0  0  0  0  0  0  0  0  0
   -7.0810   -5.6060   -2.7290 C   0  0  0  0  0  0  0  0  0  0  0  0
   -7.4510   -7.1230   -3.5340 Cl  0  0  0  0  0  0  0  0  0  0  0  0
   -6.7600   -4.4680   -3.4180 C   0  0  0  0  0  0  0  0  0  0  0  0
   -6.4770   -3.3030   -2.7850 N   0  0  0  0  0  0  0  0  0  0  0  0
   -2.3230   -1.6730    1.7450 C   0  0  0  0  0  0  0  0  0  0  0  0
   -2.7860   -2.8000    2.0680 O   0  0  0  0  0  0  0  0  0  0  0  0
   -1.0100   -1.2590    2.0290 N   0  0  0  0  0  0  0  0  0  0  0  0
   -0.5740    0.0810    1.7750 C   0  0  2  0  0  0  0  0  0  0  0  0
   -0.7010    0.7250    3.2290 C   0  0  0  0  0  0  0  0  0  0  0  0
    0.8510    0.1760    1.4130 C   0  0  0  0  0  0  0  0  0  0  0  0
    1.5050    1.3740    1.4930 C   0  0  0  0  0  0  0  0  0  0  0  0
    2.8530    1.4810    1.1040 C   0  0  0  0  0  0  0  0  0  0  0  0
    3.5330    0.3770    0.6380 C   0  0  0  0  0  0  0  0  0  0  0  0
    4.8320    0.5350    0.2750 O   0  0  0  0  0  0  0  0  0  0  0  0
    5.7400   -0.4100   -0.2180 C   0  0  1  0  0  0  0  0  0  0  0  0
    6.1240    0.0580   -1.6090 C   0  0  0  0  0  0  0  0  0  0  0  0
    7.0450   -0.8560   -2.3360 C   0  0  0  0  0  0  0  0  0  0  0  0
    7.4330   -2.1010   -1.6140 C   0  0  0  0  0  0  0  0  0  0  0  0
    8.4640   -1.8070   -0.5300 C   0  0  0  0  0  0  0  0  0  0  0  0
    7.6950   -1.6600    0.7680 C   0  0  0  0  0  0  0  0  0  0  0  0
    6.9460   -0.3620    0.7180 C   0  0  0  0  0  0  0  0  0  0  0  0
    2.8830   -0.8250    0.5580 C   0  0  0  0  0  0  0  0  0  0  0  0
    1.5560   -0.9080    0.9460 C   0  0  0  0  0  0  0  0  0  0  0  0
  1  2  1  0
  2  3  1  0
  3  4  2  0
  3  5  1  0
  5  6  1  0
  6  7  2  0
  6  8  1  0
  8  9  1  0
  9 10  2  0
  9 26  1  0
 10 11  1  0
 11 12  1  0
 11 23  1  0
 12 13  1  0
 13 14  1  0
 14 15  1  0
 15 16  2  0
 15 22  1  0
 16 17  1  0
 17 18  1  0
 17 19  2  0
 19 20  1  0
 19 21  1  0
 21 22  2  0
 23 24  2  0
 23 25  1  0
 25 26  1  0
 26 27  1  1
 26 28  1  0
 28 29  2  0
 28 41  1  0
 29 30  1  0
 30 31  2  0
 31 32  1  0
 31 40  1  0
 33 32  1  1
 33 34  1  0
 33 39  1  0
 34 35  1  0
 35 36  1  0
 36 37  1  0
 37 38  1  0
 38 39  1  0
 40 41  2  0
M  CHG  1  13   1
M  END
