
     RDKit          3D

 41 44  0  0  0  0  0  0  0  0999 V2000
   -2.8790    4.4870   -0.7370 C   0  0  0  0  0  0  0  0  0  0  0  0
   -3.0250    4.3970    0.6690 O   0  0  0  0  0  0  0  0  0  0  0  0
   -2.6740    3.2460    1.3500 C   0  0  0  0  0  0  0  0  0  0  0  0
   -2.1800    2.1720    0.6770 C   0  0  0  0  0  0  0  0  0  0  0  0
   -1.8360    1.0370    1.3650 C   0  0  0  0  0  0  0  0  0  0  0  0
   -1.2970   -0.1570    0.6990 C   0  0  2  0  0  0  0  0  0  0  0  0
   -0.2600    0.1880   -0.2740 N   0  0  0  0  0  0  0  0  0  0  0  0
    0.3890   -0.9630   -0.8260 C   0  0  0  0  0  0  0  0  0  0  0  0
    1.8660   -0.8050   -0.9050 C   0  0  0  0  0  0  0  0  0  0  0  0
    2.3770   -0.8820   -2.1130 C   0  0  0  0  0  0  0  0  0  0  0  0
    1.4700   -1.1100   -3.2450 C   0  0  0  0  0  0  0  0  0  0  0  0
    3.7620   -0.7620   -2.4440 N   0  0  0  0  0  0  0  0  0  0  0  0
    4.8250   -0.1770   -1.6950 C   0  0  0  0  0  0  0  0  0  0  0  0
    5.9140    0.0670   -2.5050 C   0  0  0  0  0  0  0  0  0  0  0  0
    5.8750   -0.3340   -4.2210 Cl  0  0  0  0  0  0  0  0  0  0  0  0
    7.0640    0.6310   -1.9950 C   0  0  0  0  0  0  0  0  0  0  0  0
    7.0600    0.9300   -0.6600 C   0  0  0  0  0  0  0  0  0  0  0  0
    5.9630    0.6900    0.1770 C   0  0  0  0  0  0  0  0  0  0  0  0
    4.8390    0.1360   -0.3310 C   0  0  0  0  0  0  0  0  0  0  0  0
    3.8460   -0.0250    0.6820 N   0  0  0  0  0  0  0  0  0  0  0  0
    4.1120    0.3650    2.0350 C   0  0  1  0  0  0  0  0  0  0  0  0
    5.0500   -0.5090    2.8110 C   0  0  0  0  0  0  0  0  0  0  0  0
    4.1440    1.8320    2.3400 C   0  0  0  0  0  0  0  0  0  0  0  0
    2.5530   -0.5900    0.3500 C   0  0  0  0  0  0  0  0  0  0  0  0
    1.9010   -0.9710    1.3830 O   0  0  0  0  0  0  0  0  0  0  0  0
   -2.4160   -0.8370    0.0140 C   0  0  0  0  0  0  0  0  0  0  0  0
   -2.3720   -1.0070   -1.2460 N   0  0  0  0  0  0  0  0  0  0  0  0
   -3.3990   -1.6480   -1.9810 C   0  0  0  0  0  0  0  0  0  0  0  0
   -3.2890   -1.8630   -3.7620 S   0  0  0  0  0  0  0  0  0  0  0  0
   -4.7570   -2.7110   -4.3970 C   0  0  0  0  0  0  0  0  0  0  0  0
   -4.4410   -2.0920   -1.3840 N   0  0  0  0  0  0  0  0  0  0  0  0
   -4.5950   -1.9520    0.0520 C   0  0  0  0  0  0  0  0  0  0  0  0
   -5.6730   -2.4180    0.6260 C   0  0  0  0  0  0  0  0  0  0  0  0
   -6.0050   -2.3760    2.0150 C   0  0  0  0  0  0  0  0  0  0  0  0
   -7.2610   -2.9580    2.4330 N   0  0  0  0  0  0  0  0  0  0  0  0
   -5.2680   -1.8660    2.8780 O   0  0  0  0  0  0  0  0  0  0  0  0
   -3.5520   -1.3110    0.7370 N   0  0  0  0  0  0  0  0  0  0  0  0
   -2.0050    1.0200    2.7310 C   0  0  0  0  0  0  0  0  0  0  0  0
   -2.5060    2.1030    3.4250 C   0  0  0  0  0  0  0  0  0  0  0  0
   -2.8490    3.2390    2.7300 C   0  0  0  0  0  0  0  0  0  0  0  0
   -3.3400    4.3180    3.3660 F   0  0  0  0  0  0  0  0  0  0  0  0
  1  2  1  0
  2  3  1  0
  3  4  2  0
  3 40  1  0
  4  5  1  0
  5  6  1  0
  5 38  2  0
  6  7  1  6
  6 26  1  0
  7  8  1  0
  8  9  1  0
  9 10  2  0
  9 24  1  0
 10 11  1  0
 10 12  1  0
 12 13  1  0
 13 14  2  0
 13 19  1  0
 14 15  1  0
 14 16  1  0
 16 17  2  0
 17 18  1  0
 18 19  2  0
 19 20  1  0
 20 21  1  0
 20 24  1  0
 21 22  1  6
 21 23  1  0
 24 25  2  0
 26 27  2  0
 26 37  1  0
 27 28  1  0
 28 29  1  0
 28 31  2  0
 29 30  1  0
 31 32  1  0
 32 33  2  3
 32 37  1  0
 33 34  1  0
 34 35  1  0
 34 36  2  0
 38 39  1  0
 39 40  2  0
 40 41  1  0
M  CHG  1   7   1
M  END
