
     RDKit          3D

 41 44  0  0  0  0  0  0  0  0999 V2000
    4.1320   -1.1370    1.6390 C   0  0  0  0  0  0  0  0  0  0  0  0
    4.7960    0.1020    1.1670 C   0  0  0  0  0  0  0  0  0  0  0  0
    6.1500    0.2630    1.2440 C   0  0  0  0  0  0  0  0  0  0  0  0
    6.8250    1.4200    0.8000 C   0  0  0  0  0  0  0  0  0  0  0  0
    8.2420    1.4900    1.0040 C   0  0  0  0  0  0  0  0  0  0  0  0
    9.1890    1.9680    0.0520 C   0  0  0  0  0  0  0  0  0  0  0  0
    8.9550    2.4170   -1.1500 C   0  0  0  0  0  0  0  0  0  0  0  0
   10.0750    2.8620   -1.9820 N   0  0  0  0  0  0  0  0  0  0  0  0
    8.6980    1.0600    2.2050 C   0  0  0  0  0  0  0  0  0  0  0  0
    7.8640    0.6030    3.1340 F   0  0  0  0  0  0  0  0  0  0  0  0
   10.4060    1.1130    2.5140 Cl  0  0  0  0  0  0  0  0  0  0  0  0
    6.0470    2.3690    0.2780 N   0  0  0  0  0  0  0  0  0  0  0  0
    4.6970    2.2390    0.1810 C   0  0  0  0  0  0  0  0  0  0  0  0
    4.0160    3.1900   -0.3340 O   0  0  0  0  0  0  0  0  0  0  0  0
    4.0170    1.1270    0.6140 C   0  0  0  0  0  0  0  0  0  0  0  0
    2.5230    1.0080    0.6490 C   0  0  0  0  0  0  0  0  0  0  0  0
    2.1100   -0.1940   -0.0520 N   0  0  0  0  0  0  0  0  0  0  0  0
    0.7620   -0.6150   -0.1400 C   0  0  0  0  0  0  0  0  0  0  0  0
   -0.1730    0.0450    0.3410 O   0  0  0  0  0  0  0  0  0  0  0  0
    0.4980   -1.8510   -0.7920 N   0  0  0  0  0  0  0  0  0  0  0  0
   -0.7770   -2.4600   -0.9340 C   0  0  0  0  0  0  0  0  0  0  0  0
   -1.9460   -1.9400   -0.5870 N   0  0  0  0  0  0  0  0  0  0  0  0
   -3.1320   -2.5800   -0.6660 C   0  0  0  0  0  0  0  0  0  0  0  0
   -4.3960   -1.9300   -0.3190 C   0  0  0  0  0  0  0  0  0  0  0  0
   -5.5270   -2.5810   -0.2570 C   0  0  0  0  0  0  0  0  0  0  0  0
   -6.8340   -1.9640    0.0910 C   0  0  0  0  0  0  0  0  0  0  0  0
   -6.8080   -0.5510   -0.1440 N   0  0  0  0  0  0  0  0  0  0  0  0
   -8.0470    0.1010    0.0280 C   0  0  0  0  0  0  0  0  0  0  0  0
   -8.0260    1.5670   -0.1540 C   0  0  0  0  0  0  0  0  0  0  0  0
   -7.7850    2.2020   -1.3480 C   0  0  0  0  0  0  0  0  0  0  0  0
   -7.8020    3.5890   -1.4140 C   0  0  0  0  0  0  0  0  0  0  0  0
   -8.0570    4.3810   -0.2900 C   0  0  0  0  0  0  0  0  0  0  0  0
   -8.2860    3.7190    0.8560 N   0  0  0  0  0  0  0  0  0  0  0  0
   -8.2750    2.3800    0.9410 C   0  0  0  0  0  0  0  0  0  0  0  0
   -5.6720    0.1150    0.3640 C   0  0  0  0  0  0  0  0  0  0  0  0
   -4.3750   -0.4780   -0.0750 C   0  0  0  0  0  0  0  0  0  0  0  0
   -3.1060   -3.8730   -1.1500 C   0  0  0  0  0  0  0  0  0  0  0  0
   -1.9050   -4.4520   -1.5260 C   0  0  0  0  0  0  0  0  0  0  0  0
   -1.8600   -5.6290   -1.9760 O   0  0  0  0  0  0  0  0  0  0  0  0
   -0.7810   -3.7350   -1.4080 N   0  0  0  0  0  0  0  0  0  0  0  0
    0.5080   -4.3350   -1.7970 C   0  0  0  0  0  0  0  0  0  0  0  0
  1  2  1  0
  2  3  1  0
  2 15  2  0
  3  4  2  0
  4  5  1  0
  4 12  1  0
  5  6  1  0
  5  9  2  3
  6  7  2  3
  7  8  1  0
  9 10  1  0
  9 11  1  0
 12 13  1  0
 13 14  2  0
 13 15  1  0
 15 16  1  0
 16 17  1  0
 17 18  1  0
 18 19  2  0
 18 20  1  0
 20 21  1  0
 21 22  2  0
 21 40  1  0
 22 23  1  0
 23 24  1  0
 23 37  2  0
 24 25  2  0
 24 36  1  0
 25 26  1  0
 26 27  1  0
 27 28  1  0
 27 35  1  0
 28 29  1  0
 29 30  2  0
 29 34  1  0
 30 31  1  0
 31 32  2  0
 32 33  1  0
 33 34  2  0
 35 36  1  0
 37 38  1  0
 38 39  2  0
 38 40  1  0
 40 41  1  0
M  CHG  1   8   1
M  END
