
     RDKit          3D

 31 33  0  0  0  0  0  0  0  0999 V2000
   -5.2930    0.3640    3.0790 C   0  0  0  0  0  0  0  0  0  0  0  0
   -6.2000   -0.0800    1.9420 C   0  0  0  0  0  0  0  0  0  0  0  0
   -5.3460   -0.4000    0.8140 N   0  0  2  0  0  0  0  0  0  0  0  0
   -4.4730    0.7170    0.4660 C   0  0  0  0  0  0  0  0  0  0  0  0
   -3.2520    0.0860   -0.2150 C   0  0  0  0  0  0  0  0  0  0  0  0
   -2.2580    1.1220   -0.6330 C   0  0  2  0  0  0  0  0  0  0  0  0
   -2.8010    2.1280   -1.6080 C   0  0  0  0  0  0  0  0  0  0  0  0
   -2.6970    1.4050   -2.9260 C   0  0  0  0  0  0  0  0  0  0  0  0
   -1.3320    0.7480   -2.8180 C   0  0  0  0  0  0  0  0  0  0  0  0
   -1.1210    0.4570   -1.3460 C   0  0  2  0  0  0  0  0  0  0  0  0
   -1.0950   -0.9810   -1.1960 N   0  0  0  0  0  0  0  0  0  0  0  0
    0.2000    1.0690   -0.9830 C   0  0  0  0  0  0  0  0  0  0  0  0
    0.2980    2.3070   -1.0880 O   0  0  0  0  0  0  0  0  0  0  0  0
    1.3010    0.3150   -0.5410 N   0  0  0  0  0  0  0  0  0  0  0  0
    2.5820    0.7970   -0.1760 C   0  0  0  0  0  0  0  0  0  0  0  0
    2.9740    2.1010   -0.1730 C   0  0  0  0  0  0  0  0  0  0  0  0
    4.2730    2.4250    0.2120 C   0  0  0  0  0  0  0  0  0  0  0  0
    5.1950    1.4550    0.5970 C   0  0  0  0  0  0  0  0  0  0  0  0
    4.8130    0.1590    0.5970 C   0  0  0  0  0  0  0  0  0  0  0  0
    5.6670   -0.9160    0.9530 N   0  0  0  0  0  0  0  0  0  0  0  0
    7.0620   -0.8080    1.1340 C   0  0  0  0  0  0  0  0  0  0  0  0
    7.6930    0.2570    0.9900 O   0  0  0  0  0  0  0  0  0  0  0  0
    7.8630   -1.9470    1.5080 N   0  0  0  0  0  0  0  0  0  0  0  0
    9.2970   -1.8200    1.6910 C   0  0  0  0  0  0  0  0  0  0  0  0
    9.9250   -1.3630    0.4340 C   0  0  0  0  0  0  0  0  0  0  0  0
    9.1980   -1.1030   -0.7480 N   0  0  0  0  0  0  0  0  0  0  0  0
   11.1750   -1.1930    0.4000 O   0  0  0  0  0  0  0  0  0  0  0  0
    3.5180   -0.1500    0.2120 C   0  0  0  0  0  0  0  0  0  0  0  0
   -6.1260   -0.8000   -0.3450 C   0  0  1  0  0  0  0  0  0  0  0  0
   -6.7220   -2.1620   -0.4080 C   0  0  0  0  0  0  0  0  0  0  0  0
   -7.6000   -0.9330   -0.2500 C   0  0  0  0  0  0  0  0  0  0  0  0
  1  2  1  0
  3  2  1  1
  3  4  1  0
  3 29  1  0
  4  5  1  0
  6  5  1  6
  6  7  1  0
  6 10  1  0
  7  8  1  0
  8  9  1  0
  9 10  1  0
 10 11  1  6
 10 12  1  0
 12 13  2  0
 12 14  1  0
 14 15  1  0
 15 16  2  0
 15 28  1  0
 16 17  1  0
 17 18  2  0
 18 19  1  0
 19 20  1  0
 19 28  2  0
 20 21  1  0
 21 22  2  0
 21 23  1  0
 23 24  1  0
 24 25  1  0
 25 26  1  0
 25 27  2  0
 29 30  1  1
 29 31  1  0
 30 31  1  0
M  CHG  2   3   1  11   1
M  END
