
     RDKit          3D

 31 34  0  0  0  0  0  0  0  0999 V2000
   -6.7920   -1.1220    1.6720 C   0  0  0  0  0  0  0  0  0  0  0  0
   -6.6460   -2.3410    0.7340 C   0  0  0  0  0  0  0  0  0  0  0  0
   -6.0590   -1.8410   -0.6010 C   0  0  0  0  0  0  0  0  0  0  0  0
   -4.7520   -1.2340   -0.2500 C   0  0  0  0  0  0  0  0  0  0  0  0
   -4.0060   -1.9660    0.3690 O   0  0  0  0  0  0  0  0  0  0  0  0
   -4.3310    0.1210   -0.5830 C   0  0  2  0  0  0  0  0  0  0  0  0
   -4.6070    0.5340   -2.0070 C   0  0  0  0  0  0  0  0  0  0  0  0
   -3.0440    0.5460   -0.1950 N   0  0  1  0  0  0  0  0  0  0  0  0
   -3.1290    1.6580    0.7600 C   0  0  0  0  0  0  0  0  0  0  0  0
   -1.8670    2.4340    0.8140 C   0  0  0  0  0  0  0  0  0  0  0  0
   -0.6540    1.5930    0.5580 C   0  0  0  0  0  0  0  0  0  0  0  0
    0.5760    2.1800    0.5950 N   0  0  0  0  0  0  0  0  0  0  0  0
    1.7260    1.5240    0.3820 C   0  0  0  0  0  0  0  0  0  0  0  0
    2.9470    2.1580    0.4300 C   0  0  0  0  0  0  0  0  0  0  0  0
    3.0120    3.5990    0.7210 C   0  0  0  0  0  0  0  0  0  0  0  0
    4.0930    1.4380    0.2060 C   0  0  0  0  0  0  0  0  0  0  0  0
    4.0510    0.0840   -0.0690 C   0  0  0  0  0  0  0  0  0  0  0  0
    5.2970   -0.6150   -0.2890 C   0  0  0  0  0  0  0  0  0  0  0  0
    5.3880   -1.6910   -1.1320 C   0  0  0  0  0  0  0  0  0  0  0  0
    6.5670   -2.3550   -1.3440 C   0  0  0  0  0  0  0  0  0  0  0  0
    7.7110   -1.9650   -0.7140 C   0  0  0  0  0  0  0  0  0  0  0  0
    8.9630   -2.6750   -0.9410 C   0  0  0  0  0  0  0  0  0  0  0  0
   10.0280   -2.3150   -0.3610 O   0  0  0  0  0  0  0  0  0  0  0  0
    7.6640   -0.8710    0.1560 C   0  0  0  0  0  0  0  0  0  0  0  0
    6.4640   -0.2270    0.3450 C   0  0  0  0  0  0  0  0  0  0  0  0
    2.8310   -0.5170   -0.1110 C   0  0  0  0  0  0  0  0  0  0  0  0
    1.6400    0.1540    0.1050 C   0  0  0  0  0  0  0  0  0  0  0  0
    0.4060   -0.4710    0.0600 C   0  0  0  0  0  0  0  0  0  0  0  0
    0.3310   -1.6980   -0.1880 O   0  0  0  0  0  0  0  0  0  0  0  0
   -0.7500    0.2600    0.2890 C   0  0  0  0  0  0  0  0  0  0  0  0
   -2.0980   -0.4270    0.2410 C   0  0  0  0  0  0  0  0  0  0  0  0
  1  2  1  0
  2  3  1  0
  3  4  1  0
  4  5  2  0
  4  6  1  0
  6  7  1  6
  6  8  1  0
  8  9  1  1
  8 31  1  0
  9 10  1  0
 10 11  1  0
 11 12  1  0
 11 30  2  0
 12 13  1  0
 13 14  2  0
 13 27  1  0
 14 15  1  0
 14 16  1  0
 16 17  2  0
 17 18  1  0
 17 26  1  0
 18 19  2  0
 18 25  1  0
 19 20  1  0
 20 21  2  0
 21 22  1  0
 21 24  1  0
 22 23  2  0
 24 25  2  0
 26 27  2  0
 27 28  1  0
 28 29  2  0
 28 30  1  0
 30 31  1  0
M  CHG  1   8   1
M  END
