
     RDKit          3D

 31 34  0  0  0  0  0  0  0  0999 V2000
    9.8000   -0.6570   -0.3960 C   0  0  0  0  0  0  0  0  0  0  0  0
    8.3140   -0.9520   -0.1720 C   0  0  0  0  0  0  0  0  0  0  0  0
    7.5800    0.3870   -0.1470 C   0  0  0  0  0  0  0  0  0  0  0  0
    6.1390    0.1170    0.0740 C   0  0  0  0  0  0  0  0  0  0  0  0
    5.6150    0.3570    1.3510 C   0  0  0  0  0  0  0  0  0  0  0  0
    4.2870    0.1140    1.5720 C   0  0  0  0  0  0  0  0  0  0  0  0
    3.4830   -0.3580    0.5610 C   0  0  0  0  0  0  0  0  0  0  0  0
    4.0200   -0.5910   -0.7040 C   0  0  0  0  0  0  0  0  0  0  0  0
    5.3770   -0.3470   -0.9460 C   0  0  0  0  0  0  0  0  0  0  0  0
    5.8880   -0.6090   -2.2860 C   0  0  0  0  0  0  0  0  0  0  0  0
    2.1550   -0.5790    0.8600 O   0  0  0  0  0  0  0  0  0  0  0  0
    1.5260    0.2820    1.7960 C   0  0  2  0  0  0  0  0  0  0  0  0
    1.3720    1.6290    1.1690 C   0  0  0  0  0  0  0  0  0  0  0  0
    0.5480    1.5720   -0.0570 C   0  0  0  0  0  0  0  0  0  0  0  0
   -0.8680    1.1070    0.1740 C   0  0  0  0  0  0  0  0  0  0  0  0
   -1.2970    0.8900    1.3250 O   0  0  0  0  0  0  0  0  0  0  0  0
   -1.7320    0.9100   -0.9310 N   0  0  0  0  0  0  0  0  0  0  0  0
   -3.0700    0.4840   -0.8560 C   0  0  0  0  0  0  0  0  0  0  0  0
   -3.7090    0.2190   -2.0810 C   0  0  0  0  0  0  0  0  0  0  0  0
   -5.0150   -0.1950   -2.1620 C   0  0  0  0  0  0  0  0  0  0  0  0
   -5.6980   -0.4740   -3.4470 C   0  0  0  0  0  0  0  0  0  0  0  0
   -5.7570   -0.3660   -1.0080 C   0  0  0  0  0  0  0  0  0  0  0  0
   -5.1770   -0.1210    0.1970 C   0  0  0  0  0  0  0  0  0  0  0  0
   -3.8430    0.2990    0.2400 C   0  0  0  0  0  0  0  0  0  0  0  0
   -5.8770   -0.2680    1.4650 C   0  0  0  0  0  0  0  0  0  0  0  0
   -7.2110   -0.7420    1.3950 N   0  0  1  0  0  0  0  0  0  0  0  0
   -8.0840    0.4340    1.4330 C   0  0  0  0  0  0  0  0  0  0  0  0
   -7.5020   -1.5160    0.2130 C   0  0  0  0  0  0  0  0  0  0  0  0
   -7.1770   -0.8110   -1.0560 C   0  0  0  0  0  0  0  0  0  0  0  0
    2.3500    0.4270    3.0630 C   0  0  0  0  0  0  0  0  0  0  0  0
    3.7250    0.3380    2.8260 O   0  0  0  0  0  0  0  0  0  0  0  0
  1  2  1  0
  2  3  1  0
  3  4  1  0
  4  5  2  0
  4  9  1  0
  5  6  1  0
  6  7  2  0
  6 31  1  0
  7  8  1  0
  7 11  1  0
  8  9  2  0
  9 10  1  0
 11 12  1  0
 12 13  1  6
 12 30  1  0
 13 14  1  0
 14 15  1  0
 15 16  2  0
 15 17  1  0
 17 18  1  0
 18 19  2  0
 18 24  1  0
 19 20  1  0
 20 21  1  0
 20 22  2  0
 22 23  1  0
 22 29  1  0
 23 24  2  0
 23 25  1  0
 25 26  1  0
 26 27  1  6
 26 28  1  0
 28 29  1  0
 30 31  1  0
M  CHG  1  26   1
M  END
