
     RDKit          3D

 31 33  0  0  0  0  0  0  0  0999 V2000
   -6.6730   -3.0190    1.3400 N   0  0  0  0  0  0  0  0  0  0  0  0
   -5.5530   -3.3120    0.7830 C   0  0  0  0  0  0  0  0  0  0  0  0
   -4.8450   -4.5470    0.9070 N   0  0  0  0  0  0  0  0  0  0  0  0
   -3.6760   -4.4270    0.1330 C   0  0  0  0  0  0  0  0  0  0  0  0
   -3.6020   -3.2230   -0.4580 C   0  0  0  0  0  0  0  0  0  0  0  0
   -2.5130   -2.7420   -1.3470 C   0  0  0  0  0  0  0  0  0  0  0  0
   -1.2980   -3.2780   -0.8650 O   0  0  0  0  0  0  0  0  0  0  0  0
   -0.0840   -2.6170   -0.7420 C   0  0  0  0  0  0  0  0  0  0  0  0
    1.0650   -3.1820   -1.3090 C   0  0  0  0  0  0  0  0  0  0  0  0
    2.3080   -2.6170   -1.2480 C   0  0  0  0  0  0  0  0  0  0  0  0
    2.4620   -1.3950   -0.5800 C   0  0  0  0  0  0  0  0  0  0  0  0
    3.7580   -0.8430   -0.5480 N   0  0  0  0  0  0  0  0  0  0  0  0
    4.1680    0.2790    0.2130 C   0  0  0  0  0  0  0  0  0  0  0  0
    3.3940    0.8910    0.9510 O   0  0  0  0  0  0  0  0  0  0  0  0
    5.5180    0.7440    0.1480 N   0  0  0  0  0  0  0  0  0  0  0  0
    5.9880    1.8730    0.8970 C   0  0  0  0  0  0  0  0  0  0  0  0
    7.4490    2.0950    0.6060 C   0  0  0  0  0  0  0  0  0  0  0  0
    7.9240    3.2910    1.4060 C   0  0  0  0  0  0  0  0  0  0  0  0
    9.2650    3.4970    1.1410 O   0  0  0  0  0  0  0  0  0  0  0  0
    1.3310   -0.8530   -0.0300 C   0  0  0  0  0  0  0  0  0  0  0  0
    0.0610   -1.4260   -0.0890 C   0  0  0  0  0  0  0  0  0  0  0  0
   -1.0630   -0.6910    0.5870 C   0  0  0  0  0  0  0  0  0  0  0  0
   -1.3840    0.6020   -0.0790 C   0  0  0  0  0  0  0  0  0  0  0  0
   -2.6080    1.2030    0.2170 N   0  0  0  0  0  0  0  0  0  0  0  0
   -2.7150    2.6080    0.1520 C   0  0  0  0  0  0  0  0  0  0  0  0
   -2.5880    3.0530   -1.3060 C   0  0  0  0  0  0  0  0  0  0  0  0
   -2.6960    4.4960   -1.3970 N   0  0  0  0  0  0  0  0  0  0  0  0
   -3.7260    0.4430    0.5750 C   0  0  0  0  0  0  0  0  0  0  0  0
   -4.2960   -0.2250   -0.6200 C   0  0  0  0  0  0  0  0  0  0  0  0
   -5.0450   -1.2360   -0.4750 C   0  0  0  0  0  0  0  0  0  0  0  0
   -4.7620   -2.4360   -0.1000 C   0  0  0  0  0  0  0  0  0  0  0  0
  1  2  2  0
  2  3  1  0
  2 31  1  0
  3  4  1  0
  4  5  2  0
  5  6  1  0
  5 31  1  0
  6  7  1  0
  7  8  1  0
  8  9  2  0
  8 21  1  0
  9 10  1  0
 10 11  2  0
 11 12  1  0
 11 20  1  0
 12 13  1  0
 13 14  2  0
 13 15  1  0
 15 16  1  0
 16 17  1  0
 17 18  1  0
 18 19  1  0
 20 21  2  0
 21 22  1  0
 22 23  1  0
 23 24  1  0
 24 25  1  0
 24 28  1  0
 25 26  1  0
 26 27  1  0
 28 29  1  0
 29 30  2  0
 30 31  2  0
M  CHG  2   1   1  27   1
M  END
