
     RDKit          3D

 37 42  0  0  0  0  0  0  0  0999 V2000
   -8.1970   -0.3600   -0.8400 C   0  0  0  0  0  0  0  0  0  0  0  0
   -7.9030    1.0550   -1.1720 C   0  0  0  0  0  0  0  0  0  0  0  0
   -8.6780    1.6590   -2.0010 N   0  0  0  0  0  0  0  0  0  0  0  0
   -6.7810    1.6680   -0.5580 N   0  0  0  0  0  0  0  0  0  0  0  0
   -5.7080    2.1330   -1.4180 C   0  0  0  0  0  0  0  0  0  0  0  0
   -4.4910    2.3230   -0.5240 C   0  0  0  0  0  0  0  0  0  0  0  0
   -4.3740    1.0250    0.2990 C   0  0  1  0  0  0  0  0  0  0  0  0
   -3.1030    0.8230    0.7700 O   0  0  0  0  0  0  0  0  0  0  0  0
   -2.3350   -0.2930    0.5540 C   0  0  0  0  0  0  0  0  0  0  0  0
   -2.7030   -1.3960   -0.1670 C   0  0  0  0  0  0  0  0  0  0  0  0
   -1.8040   -2.4560   -0.2960 C   0  0  0  0  0  0  0  0  0  0  0  0
   -0.5600   -2.4470    0.2690 C   0  0  0  0  0  0  0  0  0  0  0  0
    0.4770   -3.3510    0.2860 C   0  0  0  0  0  0  0  0  0  0  0  0
    0.6450   -4.6020   -0.2630 C   0  0  0  0  0  0  0  0  0  0  0  0
    1.8190   -5.3260   -0.0900 C   0  0  0  0  0  0  0  0  0  0  0  0
    2.8030   -4.7340    0.6530 C   0  0  0  0  0  0  0  0  0  0  0  0
    2.6600   -3.4820    1.2140 C   0  0  0  0  0  0  0  0  0  0  0  0
    1.4960   -2.7640    1.0430 C   0  0  0  0  0  0  0  0  0  0  0  0
    1.0860   -1.5550    1.4630 N   0  0  0  0  0  0  0  0  0  0  0  0
    1.8370   -0.6210    2.2700 C   0  0  0  0  0  0  0  0  0  0  0  0
    2.6680    0.3170    1.4430 C   0  0  0  0  0  0  0  0  0  0  0  0
    2.1900    1.5400    1.0210 C   0  0  0  0  0  0  0  0  0  0  0  0
    2.9770    2.4030    0.2500 C   0  0  0  0  0  0  0  0  0  0  0  0
    4.2570    2.0520   -0.1090 C   0  0  0  0  0  0  0  0  0  0  0  0
    5.0630    2.8890   -0.8750 C   0  0  0  0  0  0  0  0  0  0  0  0
    6.3490    2.5140   -1.2240 C   0  0  0  0  0  0  0  0  0  0  0  0
    6.8750    1.3080   -0.8310 C   0  0  0  0  0  0  0  0  0  0  0  0
    8.2160    0.8690   -1.1710 C   0  0  0  0  0  0  0  0  0  0  0  0
    8.6780   -0.3940   -0.7210 N   0  0  0  0  0  0  0  0  0  0  0  0
    8.9820    1.6040   -1.8680 N   0  0  0  0  0  0  0  0  0  0  0  0
    6.0330    0.4890   -0.0590 C   0  0  0  0  0  0  0  0  0  0  0  0
    4.7590    0.8380    0.2990 C   0  0  0  0  0  0  0  0  0  0  0  0
    3.9540   -0.0100    1.0690 C   0  0  0  0  0  0  0  0  0  0  0  0
   -0.1640   -1.3290    1.0100 C   0  0  0  0  0  0  0  0  0  0  0  0
   -1.0510   -0.2890    1.1340 C   0  0  0  0  0  0  0  0  0  0  0  0
   -5.4040    1.1960    1.4150 C   0  0  0  0  0  0  0  0  0  0  0  0
   -6.6530    1.8520    0.8750 C   0  0  0  0  0  0  0  0  0  0  0  0
  1  2  1  0
  2  3  2  0
  2  4  1  0
  4  5  1  0
  4 37  1  0
  5  6  1  0
  6  7  1  0
  7  8  1  1
  7 36  1  0
  8  9  1  0
  9 10  2  0
  9 35  1  0
 10 11  1  0
 11 12  2  0
 12 13  1  0
 12 34  1  0
 13 14  2  0
 13 18  1  0
 14 15  1  0
 15 16  2  0
 16 17  1  0
 17 18  2  0
 18 19  1  0
 19 20  1  0
 19 34  1  0
 20 21  1  0
 21 22  2  0
 21 33  1  0
 22 23  1  0
 23 24  2  0
 24 25  1  0
 24 32  1  0
 25 26  2  0
 26 27  1  0
 27 28  1  0
 27 31  2  0
 28 29  1  0
 28 30  2  0
 31 32  1  0
 32 33  2  0
 34 35  2  0
 36 37  1  0
M  CHG  1  30   1
M  END
