
     RDKit          3D

 37 39  0  0  0  0  0  0  0  0999 V2000
   -1.0430   -4.1220   -1.4520 C   0  0  0  0  0  0  0  0  0  0  0  0
   -0.5510   -4.2740   -0.0060 C   0  0  1  0  0  0  0  0  0  0  0  0
    0.4320   -3.3070    0.3180 C   0  0  0  0  0  0  0  0  0  0  0  0
    1.2060   -2.5260    0.5750 C   0  0  0  0  0  0  0  0  0  0  0  0
    2.1630   -1.5330    0.9140 C   0  0  2  0  0  0  0  0  0  0  0  0
    1.7040   -0.9020    2.0960 O   0  0  0  0  0  0  0  0  0  0  0  0
    2.2900   -0.4920   -0.1920 C   0  0  2  0  0  0  0  0  0  0  0  0
    3.6140    0.1870   -0.1200 C   0  0  2  0  0  0  0  0  0  0  0  0
    3.8770    0.9060    1.1680 C   0  0  0  0  0  0  0  0  0  0  0  0
    5.3740    1.2150    1.1940 C   0  0  0  0  0  0  0  0  0  0  0  0
    5.7900    2.0240   -0.0040 C   0  0  0  0  0  0  0  0  0  0  0  0
    5.3380    1.4280   -1.3010 C   0  0  1  0  0  0  0  0  0  0  0  0
    6.0890    0.1530   -1.6430 C   0  0  0  0  0  0  0  0  0  0  0  0
    3.8470    1.1640   -1.2460 C   0  0  0  0  0  0  0  0  0  0  0  0
    1.1140    0.3860   -0.1340 C   0  0  0  0  0  0  0  0  0  0  0  0
    0.5780    0.5640    0.9470 O   0  0  0  0  0  0  0  0  0  0  0  0
    0.5330    1.0740   -1.3180 C   0  0  0  0  0  0  0  0  0  0  0  0
   -0.9100    0.8030   -1.5290 C   0  0  0  0  0  0  0  0  0  0  0  0
   -1.8370    1.4740   -0.5870 C   0  0  0  0  0  0  0  0  0  0  0  0
   -1.3360    2.5620    0.0940 C   0  0  0  0  0  0  0  0  0  0  0  0
   -2.1810    3.2250    0.9780 C   0  0  0  0  0  0  0  0  0  0  0  0
   -1.6810    4.4140    1.7370 C   0  0  0  0  0  0  0  0  0  0  0  0
   -1.9320    5.6890    0.9550 C   0  0  0  0  0  0  0  0  0  0  0  0
   -1.2850    5.6540   -0.2750 O   0  0  0  0  0  0  0  0  0  0  0  0
   -3.4790    2.7980    1.1610 C   0  0  0  0  0  0  0  0  0  0  0  0
   -3.9690    1.7080    0.4740 C   0  0  0  0  0  0  0  0  0  0  0  0
   -5.3080    1.3450    0.7230 O   0  0  0  0  0  0  0  0  0  0  0  0
   -3.1540    1.0140   -0.4230 C   0  0  0  0  0  0  0  0  0  0  0  0
   -3.6410   -0.0580   -1.0980 O   0  0  0  0  0  0  0  0  0  0  0  0
   -3.2080   -1.3750   -1.2060 C   0  0  0  0  0  0  0  0  0  0  0  0
   -4.4690   -2.2380   -0.9770 C   0  0  0  0  0  0  0  0  0  0  0  0
   -4.5900   -2.5450    0.3690 O   0  0  0  0  0  0  0  0  0  0  0  0
   -4.0530   -3.8230    0.5560 C   0  0  2  0  0  0  0  0  0  0  0  0
   -4.9800   -4.4940    1.5840 C   0  0  0  0  0  0  0  0  0  0  0  0
   -2.6990   -3.6740    1.1970 C   0  0  0  0  0  0  0  0  0  0  0  0
   -2.7050   -2.8080    2.1490 O   0  0  0  0  0  0  0  0  0  0  0  0
   -1.6180   -4.3350    0.8510 O   0  0  0  0  0  0  0  0  0  0  0  0
  2  1  1  6
  2  3  1  0
  2 37  1  0
  3  4  3  0
  4  5  1  0
  5  6  1  1
  5  7  1  0
  7  8  1  0
  7 15  1  1
  8  9  1  1
  8 14  1  0
  9 10  1  0
 10 11  1  0
 11 12  1  0
 12 13  1  1
 12 14  1  0
 15 16  2  0
 15 17  1  0
 17 18  1  0
 18 19  1  0
 19 20  2  0
 19 28  1  0
 20 21  1  0
 21 22  1  0
 21 25  2  0
 22 23  1  0
 23 24  1  0
 25 26  1  0
 26 27  1  0
 26 28  2  0
 28 29  1  0
 29 30  1  0
 30 31  1  0
 31 32  1  0
 32 33  1  0
 33 34  1  1
 33 35  1  0
 35 36  2  0
 35 37  1  0
M  END
