
     RDKit          3D

 37 38  0  0  0  0  0  0  0  0999 V2000
   12.2590   -0.3760   -0.3380 N   0  0  0  0  0  0  0  0  0  0  0  0
   11.8500    0.1120    0.9660 C   0  0  0  0  0  0  0  0  0  0  0  0
   12.0580   -1.0320    1.9510 C   0  0  0  0  0  0  0  0  0  0  0  0
   11.0190   -2.4120    1.3800 S   0  0  0  0  0  0  0  0  0  0  0  0
    9.2770   -2.0030    1.5040 C   0  0  0  0  0  0  0  0  0  0  0  0
    8.5130   -2.2610    2.6450 C   0  0  0  0  0  0  0  0  0  0  0  0
    7.2400   -1.7870    2.3010 C   0  0  0  0  0  0  0  0  0  0  0  0
    7.3010   -1.2890    1.0270 C   0  0  0  0  0  0  0  0  0  0  0  0
    6.1740   -0.7050    0.3100 C   0  0  0  0  0  0  0  0  0  0  0  0
    5.0540   -0.6590    0.8690 O   0  0  0  0  0  0  0  0  0  0  0  0
    6.2880   -0.1830   -0.9960 N   0  0  0  0  0  0  0  0  0  0  0  0
    5.2900    0.3970   -1.7910 C   0  0  0  0  0  0  0  0  0  0  0  0
    5.6730    1.0470   -2.9620 C   0  0  0  0  0  0  0  0  0  0  0  0
    4.8060    1.6450   -3.8340 C   0  0  0  0  0  0  0  0  0  0  0  0
    3.4630    1.6040   -3.5400 C   0  0  0  0  0  0  0  0  0  0  0  0
    3.0270    0.9770   -2.3980 C   0  0  0  0  0  0  0  0  0  0  0  0
    1.6330    1.0020   -2.1770 N   0  0  0  0  0  0  0  0  0  0  0  0
    1.1380    1.2240   -0.9210 C   0  0  0  0  0  0  0  0  0  0  0  0
    1.9860    1.3880    0.0400 O   0  0  0  0  0  0  0  0  0  0  0  0
   -0.0950    1.3170   -0.4510 N   0  0  0  0  0  0  0  0  0  0  0  0
   -1.3290    1.4240    0.0930 C   0  0  0  0  0  0  0  0  0  0  0  0
   -1.2310    1.6710    1.3580 O   0  0  0  0  0  0  0  0  0  0  0  0
   -2.5380    1.3120   -0.4740 N   0  0  0  0  0  0  0  0  0  0  0  0
   -3.7600    1.4450    0.2590 C   0  0  0  0  0  0  0  0  0  0  0  0
   -4.8190    1.2270   -0.7930 C   0  0  0  0  0  0  0  0  0  0  0  0
   -6.1800    1.3120   -0.1930 C   0  0  0  0  0  0  0  0  0  0  0  0
   -6.2800    0.3390    0.7790 O   0  0  0  0  0  0  0  0  0  0  0  0
   -7.4820    0.2820    1.4350 C   0  0  0  0  0  0  0  0  0  0  0  0
   -8.6450    0.0050    0.5240 C   0  0  0  0  0  0  0  0  0  0  0  0
   -9.8580   -0.0340    1.3440 N   0  0  0  0  0  0  0  0  0  0  0  0
  -11.0370   -0.2170    0.5610 C   0  0  0  0  0  0  0  0  0  0  0  0
  -11.7690   -1.4570    1.0160 C   0  0  1  0  0  0  0  0  0  0  0  0
  -12.9280   -1.6150    0.2480 O   0  0  0  0  0  0  0  0  0  0  0  0
  -10.8870   -2.6620    0.6810 C   0  0  0  0  0  0  0  0  0  0  0  0
  -11.6930   -4.1720    1.1880 Cl  0  0  0  0  0  0  0  0  0  0  0  0
    3.9430    0.3810   -1.5370 C   0  0  0  0  0  0  0  0  0  0  0  0
    8.5230   -1.4380    0.5970 O   0  0  0  0  0  0  0  0  0  0  0  0
  1  2  1  0
  2  3  1  0
  3  4  1  0
  4  5  1  0
  5  6  2  0
  5 37  1  0
  6  7  1  0
  7  8  2  0
  8  9  1  0
  8 37  1  0
  9 10  2  0
  9 11  1  0
 11 12  1  0
 12 13  2  0
 12 36  1  0
 13 14  1  0
 14 15  2  0
 15 16  1  0
 16 17  1  0
 16 36  2  0
 17 18  1  0
 18 19  2  0
 18 20  1  0
 20 21  1  0
 21 22  2  0
 21 23  1  0
 23 24  1  0
 24 25  1  0
 25 26  1  0
 26 27  1  0
 27 28  1  0
 28 29  1  0
 29 30  1  0
 30 31  1  0
 31 32  1  0
 32 33  1  6
 32 34  1  0
 34 35  1  0
M  CHG  2   1   1  30   1
M  END
