
     RDKit          3D

 37 38  0  0  0  0  0  0  0  0999 V2000
    9.5610   -2.0890   -1.9970 C   0  0  0  0  0  0  0  0  0  0  0  0
   10.2340   -0.8520   -2.0740 O   0  0  0  0  0  0  0  0  0  0  0  0
   10.2190   -0.0140   -3.1650 C   0  0  0  0  0  0  0  0  0  0  0  0
   11.4150   -0.3340   -4.2720 S   0  0  0  0  0  0  0  0  0  0  0  0
    9.3020    1.0810   -3.4470 C   0  0  0  0  0  0  0  0  0  0  0  0
    9.2380    2.1040   -2.5590 O   0  0  0  0  0  0  0  0  0  0  0  0
    8.8640    1.8520   -1.2800 C   0  0  0  0  0  0  0  0  0  0  0  0
    7.4860    1.2470   -1.1470 C   0  0  0  0  0  0  0  0  0  0  0  0
    7.1360    1.0030    0.1980 O   0  0  0  0  0  0  0  0  0  0  0  0
    5.8840    0.4320    0.4470 C   0  0  0  0  0  0  0  0  0  0  0  0
    5.4490    0.1610    1.7220 C   0  0  0  0  0  0  0  0  0  0  0  0
    4.2130   -0.4030    1.9430 C   0  0  0  0  0  0  0  0  0  0  0  0
    3.3490   -0.7250    0.9120 C   0  0  0  0  0  0  0  0  0  0  0  0
    2.1010   -1.2930    1.1220 O   0  0  0  0  0  0  0  0  0  0  0  0
    1.7240   -1.5420    2.4450 C   0  0  0  0  0  0  0  0  0  0  0  0
    0.3770   -2.1410    2.6460 C   0  0  0  0  0  0  0  0  0  0  0  0
   -0.7380   -1.3960    2.1780 N   0  0  0  0  0  0  0  0  0  0  0  0
   -1.0010   -1.0300    0.8320 C   0  0  0  0  0  0  0  0  0  0  0  0
   -0.1570   -1.4180   -0.0490 O   0  0  0  0  0  0  0  0  0  0  0  0
   -2.1650   -0.2530    0.4500 C   0  0  0  0  0  0  0  0  0  0  0  0
   -3.1220    0.2500    1.2720 C   0  0  0  0  0  0  0  0  0  0  0  0
   -4.0400    0.9260    0.4880 C   0  0  0  0  0  0  0  0  0  0  0  0
   -5.2520    1.6520    0.9010 C   0  0  0  0  0  0  0  0  0  0  0  0
   -6.1720    0.8710    1.6720 N   0  0  0  0  0  0  0  0  0  0  0  0
   -6.7560   -0.2460    0.9990 C   0  0  2  0  0  0  0  0  0  0  0  0
   -7.9300   -0.7090    1.8810 C   0  0  0  0  0  0  0  0  0  0  0  0
   -5.8320   -1.4520    0.9160 C   0  0  0  0  0  0  0  0  0  0  0  0
   -7.2660    0.0270   -0.3740 C   0  0  0  0  0  0  0  0  0  0  0  0
   -8.3490    1.0780   -0.4230 C   0  0  0  0  0  0  0  0  0  0  0  0
   -8.7840    1.2800   -1.8510 C   0  0  0  0  0  0  0  0  0  0  0  0
   -9.8140    2.1850   -2.1830 N   0  0  0  0  0  0  0  0  0  0  0  0
   -8.2310    0.6360   -2.7880 O   0  0  0  0  0  0  0  0  0  0  0  0
   -3.6160    0.8130   -0.7770 N   0  0  0  0  0  0  0  0  0  0  0  0
   -2.4840    0.1010   -0.7990 N   0  0  0  0  0  0  0  0  0  0  0  0
    3.8050   -0.4440   -0.3570 C   0  0  0  0  0  0  0  0  0  0  0  0
    2.7360   -0.8390   -1.6950 Cl  0  0  0  0  0  0  0  0  0  0  0  0
    5.0380    0.1190   -0.5950 C   0  0  0  0  0  0  0  0  0  0  0  0
  1  2  1  0
  2  3  1  0
  3  4  2  0
  3  5  1  0
  5  6  1  0
  6  7  1  0
  7  8  1  0
  8  9  1  0
  9 10  1  0
 10 11  2  0
 10 37  1  0
 11 12  1  0
 12 13  2  0
 13 14  1  0
 13 35  1  0
 14 15  1  0
 15 16  1  0
 16 17  1  0
 17 18  1  0
 18 19  2  0
 18 20  1  0
 20 21  1  0
 20 34  2  0
 21 22  2  0
 22 23  1  0
 22 33  1  0
 23 24  1  0
 24 25  1  0
 25 26  1  1
 25 27  1  0
 25 28  1  0
 28 29  1  0
 29 30  1  0
 30 31  1  0
 30 32  2  0
 33 34  1  0
 35 36  1  0
 35 37  2  0
M  CHG  1  24   1
M  END
