
     RDKit          3D

 37 38  0  0  0  0  0  0  0  0999 V2000
    2.5020    3.5820    2.4420 C   0  0  0  0  0  0  0  0  0  0  0  0
    1.1350    3.3500    2.1780 O   0  0  0  0  0  0  0  0  0  0  0  0
    0.8060    2.0850    1.6680 C   0  0  0  0  0  0  0  0  0  0  0  0
    1.7500    1.1180    1.4340 C   0  0  0  0  0  0  0  0  0  0  0  0
    1.4110   -0.1290    0.9270 C   0  0  0  0  0  0  0  0  0  0  0  0
    2.3210   -1.0890    0.6950 O   0  0  0  0  0  0  0  0  0  0  0  0
    3.6470   -1.2620    0.7740 C   0  0  0  0  0  0  0  0  0  0  0  0
    4.5680   -0.4950   -0.1290 C   0  0  0  0  0  0  0  0  0  0  0  0
    4.5080    0.8520   -0.0230 O   0  0  0  0  0  0  0  0  0  0  0  0
    5.3150    1.6000   -0.8110 C   0  0  0  0  0  0  0  0  0  0  0  0
    6.7580    1.4450   -0.6300 C   0  0  0  0  0  0  0  0  0  0  0  0
    7.6800    2.1740   -1.4650 N   0  0  0  0  0  0  0  0  0  0  0  0
    7.2670    0.7060    0.2220 O   0  0  0  0  0  0  0  0  0  0  0  0
    0.0610   -0.3880    0.6560 C   0  0  0  0  0  0  0  0  0  0  0  0
   -0.2600   -1.6590    0.1510 N   0  0  0  0  0  0  0  0  0  0  0  0
   -0.2030   -2.7440    0.7950 C   0  0  0  0  0  0  0  0  0  0  0  0
   -0.5450   -4.0240    0.2220 C   0  0  0  0  0  0  0  0  0  0  0  0
   -0.9610   -4.1350   -1.0760 C   0  0  0  0  0  0  0  0  0  0  0  0
   -1.0970   -2.9470   -1.9400 C   0  0  0  0  0  0  0  0  0  0  0  0
   -1.6570   -3.4350   -3.6170 S   0  0  0  0  0  0  0  0  0  0  0  0
   -1.2770   -5.3820   -1.6130 C   0  0  0  0  0  0  0  0  0  0  0  0
   -1.1720   -6.5080   -0.8360 C   0  0  0  0  0  0  0  0  0  0  0  0
   -0.7460   -6.3700    0.4880 C   0  0  0  0  0  0  0  0  0  0  0  0
   -0.6440   -7.5160    1.2650 O   0  0  0  0  0  0  0  0  0  0  0  0
   -0.4300   -5.1590    1.0390 C   0  0  0  0  0  0  0  0  0  0  0  0
    0.1080   -4.9890    2.7090 Cl  0  0  0  0  0  0  0  0  0  0  0  0
   -0.9220    0.5690    0.8830 C   0  0  0  0  0  0  0  0  0  0  0  0
   -2.3270    0.1690    0.5560 C   0  0  0  0  0  0  0  0  0  0  0  0
   -3.3700    1.0510    0.7450 N   0  0  0  0  0  0  0  0  0  0  0  0
   -3.9060    1.7130   -0.4230 C   0  0  2  0  0  0  0  0  0  0  0  0
   -2.8640    2.1650   -1.4150 C   0  0  0  0  0  0  0  0  0  0  0  0
   -4.8790    2.8080   -0.0750 C   0  0  0  0  0  0  0  0  0  0  0  0
   -5.4030    3.4510   -1.2970 C   0  0  0  0  0  0  0  0  0  0  0  0
   -6.3260    4.5210   -1.2460 N   0  0  0  0  0  0  0  0  0  0  0  0
   -5.0190    3.0380   -2.4110 O   0  0  0  0  0  0  0  0  0  0  0  0
   -0.5300    1.7760    1.3800 C   0  0  0  0  0  0  0  0  0  0  0  0
   -1.4490    2.8130    1.6470 N   0  0  0  0  0  0  0  0  0  0  0  0
  1  2  1  0
  2  3  1  0
  3  4  2  0
  3 36  1  0
  4  5  1  0
  5  6  1  0
  5 14  2  0
  6  7  1  0
  7  8  1  0
  8  9  1  0
  9 10  1  0
 10 11  1  0
 11 12  1  0
 11 13  2  0
 14 15  1  0
 14 27  1  0
 15 16  2  3
 16 17  1  0
 17 18  2  0
 17 25  1  0
 18 19  1  0
 18 21  1  0
 19 20  1  0
 21 22  2  0
 22 23  1  0
 23 24  1  0
 23 25  2  0
 25 26  1  0
 27 28  1  0
 27 36  2  0
 28 29  1  0
 29 30  1  0
 30 31  1  1
 30 32  1  0
 32 33  1  0
 33 34  1  0
 33 35  2  0
 36 37  1  0
M  CHG  1  29   1
M  END
