
     RDKit          3D

 37 38  0  0  0  0  0  0  0  0999 V2000
   -5.8130    4.9660   -0.6000 C   0  0  0  0  0  0  0  0  0  0  0  0
   -4.4680    4.2650   -0.3840 C   0  0  0  0  0  0  0  0  0  0  0  0
   -4.1350    3.4910   -1.5370 N   0  0  0  0  0  0  0  0  0  0  0  0
   -4.3990    2.0680   -1.4050 C   0  0  0  0  0  0  0  0  0  0  0  0
   -3.4160    1.3500   -0.5810 C   0  0  0  0  0  0  0  0  0  0  0  0
   -2.3810    2.0490   -0.0450 C   0  0  0  0  0  0  0  0  0  0  0  0
   -1.4490    1.4310    0.7390 C   0  0  0  0  0  0  0  0  0  0  0  0
   -1.5090    0.0640    1.0260 C   0  0  0  0  0  0  0  0  0  0  0  0
   -0.6480   -0.5410    1.7660 O   0  0  0  0  0  0  0  0  0  0  0  0
    0.2100   -1.1370    2.5010 C   0  0  0  0  0  0  0  0  0  0  0  0
    1.6640   -1.1250    2.2780 C   0  0  0  0  0  0  0  0  0  0  0  0
    2.3300   -1.8320    3.1420 O   0  0  0  0  0  0  0  0  0  0  0  0
    2.4440   -0.5010    1.3200 N   0  0  0  0  0  0  0  0  0  0  0  0
    3.8570   -0.6250    1.3020 N   0  0  0  0  0  0  0  0  0  0  0  0
    4.7680    0.4290    1.3090 C   0  0  0  0  0  0  0  0  0  0  0  0
    4.3530    1.6100    1.3150 O   0  0  0  0  0  0  0  0  0  0  0  0
    6.2430    0.2270    1.3110 C   0  0  1  0  0  0  0  0  0  0  0  0
    6.6110   -1.1750    1.3780 N   0  0  0  0  0  0  0  0  0  0  0  0
    6.9860    0.9580    0.2990 C   0  0  0  0  0  0  0  0  0  0  0  0
    8.1610    1.6370    0.6240 C   0  0  0  0  0  0  0  0  0  0  0  0
    8.8990    2.3420   -0.2830 C   0  0  0  0  0  0  0  0  0  0  0  0
    8.4900    2.4020   -1.5900 C   0  0  0  0  0  0  0  0  0  0  0  0
    7.3520    1.7520   -1.9410 C   0  0  0  0  0  0  0  0  0  0  0  0
    6.5920    1.0280   -1.0090 C   0  0  0  0  0  0  0  0  0  0  0  0
    5.4160    0.3570   -1.4180 N   0  0  0  0  0  0  0  0  0  0  0  0
   -2.5880   -0.6430    0.4610 C   0  0  0  0  0  0  0  0  0  0  0  0
   -2.6960   -2.0040    0.7100 O   0  0  0  0  0  0  0  0  0  0  0  0
   -2.0220   -2.9690   -0.0740 C   0  0  0  0  0  0  0  0  0  0  0  0
   -2.2390   -4.3750    0.3680 C   0  0  1  0  0  0  0  0  0  0  0  0
   -1.7880   -4.6030    1.6720 O   0  0  0  0  0  0  0  0  0  0  0  0
   -3.7070   -4.7340    0.2410 C   0  0  0  0  0  0  0  0  0  0  0  0
   -3.9830   -6.4560    0.7820 S   0  0  0  0  0  0  0  0  0  0  0  0
   -3.5320   -0.0280   -0.3280 C   0  0  0  0  0  0  0  0  0  0  0  0
   -4.5520   -0.7290   -0.8460 O   0  0  0  0  0  0  0  0  0  0  0  0
   -4.8550   -1.5230   -1.8770 C   0  0  0  0  0  0  0  0  0  0  0  0
   -4.6740   -1.0320   -3.2940 C   0  0  0  0  0  0  0  0  0  0  0  0
   -2.9860   -0.6360   -3.6440 Cl  0  0  0  0  0  0  0  0  0  0  0  0
  1  2  1  0
  2  3  1  0
  3  4  1  0
  4  5  1  0
  5  6  2  0
  5 33  1  0
  6  7  1  0
  7  8  2  0
  8  9  1  0
  8 26  1  0
  9 10  1  0
 10 11  1  0
 11 12  2  0
 11 13  1  0
 13 14  1  0
 14 15  1  0
 15 16  2  0
 15 17  1  0
 17 18  1  6
 17 19  1  0
 19 20  2  0
 19 24  1  0
 20 21  1  0
 21 22  2  0
 22 23  1  0
 23 24  2  0
 24 25  1  0
 26 27  1  0
 26 33  2  0
 27 28  1  0
 28 29  1  0
 29 30  1  1
 29 31  1  0
 31 32  1  0
 33 34  1  0
 34 35  1  0
 35 36  1  0
 36 37  1  0
M  CHG  1   3   1
M  END
