
     RDKit          3D

 32 36  0  0  0  0  0  0  0  0999 V2000
    6.2150   -0.3990    1.3890 C   0  0  0  0  0  0  0  0  0  0  0  0
    6.0090    0.0370   -0.0530 C   0  0  0  0  0  0  0  0  0  0  0  0
    4.6320   -0.1140   -0.3620 N   0  0  0  0  0  0  0  0  0  0  0  0
    4.1260   -1.4410   -0.4300 C   0  0  0  0  0  0  0  0  0  0  0  0
    2.6270   -1.4100   -0.4240 C   0  0  0  0  0  0  0  0  0  0  0  0
    2.0290   -0.1360   -0.6600 N   0  0  0  0  0  0  0  0  0  0  0  0
    0.6230    0.0110   -0.4390 C   0  0  0  0  0  0  0  0  0  0  0  0
   -0.1100   -1.1380   -0.1680 C   0  0  0  0  0  0  0  0  0  0  0  0
   -1.4580   -1.0480    0.0520 C   0  0  0  0  0  0  0  0  0  0  0  0
   -2.0520    0.2230   -0.0060 C   0  0  0  0  0  0  0  0  0  0  0  0
   -1.3060    1.3540   -0.2770 C   0  0  0  0  0  0  0  0  0  0  0  0
   -1.9360    2.6270   -0.3210 N   0  0  0  0  0  0  0  0  0  0  0  0
   -2.4090    3.0790   -1.4940 C   0  0  0  0  0  0  0  0  0  0  0  0
   -3.0330    4.3000   -1.6390 C   0  0  0  0  0  0  0  0  0  0  0  0
   -3.1840    5.1060   -0.5330 C   0  0  0  0  0  0  0  0  0  0  0  0
   -2.6950    4.6310    0.6620 C   0  0  0  0  0  0  0  0  0  0  0  0
   -2.0800    3.4050    0.7600 C   0  0  0  0  0  0  0  0  0  0  0  0
   -1.6410    3.0020    1.8840 O   0  0  0  0  0  0  0  0  0  0  0  0
    0.0090    1.1920   -0.4820 N   0  0  0  0  0  0  0  0  0  0  0  0
   -3.4080    0.3550    0.2070 C   0  0  0  0  0  0  0  0  0  0  0  0
   -3.9550    1.5130    0.1540 O   0  0  0  0  0  0  0  0  0  0  0  0
   -4.1550   -0.7300    0.4690 N   0  0  0  0  0  0  0  0  0  0  0  0
   -3.6330   -1.9580    0.5330 C   0  0  0  0  0  0  0  0  0  0  0  0
   -4.4640   -3.0280    0.8070 C   0  0  0  0  0  0  0  0  0  0  0  0
   -5.9360   -2.8310    1.0300 C   0  0  0  0  0  0  0  0  0  0  0  0
   -3.8910   -4.2780    0.8660 C   0  0  0  0  0  0  0  0  0  0  0  0
   -2.5380   -4.4440    0.6580 C   0  0  0  0  0  0  0  0  0  0  0  0
   -1.6990   -3.3770    0.3830 C   0  0  0  0  0  0  0  0  0  0  0  0
   -2.2670   -2.1280    0.3240 C   0  0  0  0  0  0  0  0  0  0  0  0
    2.7350    1.0340   -1.1190 C   0  0  1  0  0  0  0  0  0  0  0  0
    2.9050    1.9810    0.0560 C   0  0  0  0  0  0  0  0  0  0  0  0
    4.1570    0.6100   -1.5060 C   0  0  0  0  0  0  0  0  0  0  0  0
  1  2  1  0
  2  3  1  0
  3  4  1  0
  3 32  1  0
  4  5  1  0
  5  6  1  0
  6  7  1  0
  6 30  1  0
  7  8  2  0
  7 19  1  0
  8  9  1  0
  9 10  2  0
  9 29  1  0
 10 11  1  0
 10 20  1  0
 11 12  1  0
 11 19  2  0
 12 13  1  0
 12 17  1  0
 13 14  2  0
 14 15  1  0
 15 16  2  0
 16 17  1  0
 17 18  2  0
 20 21  2  0
 20 22  1  0
 22 23  1  0
 23 24  2  0
 23 29  1  0
 24 25  1  0
 24 26  1  0
 26 27  2  0
 27 28  1  0
 28 29  2  0
 30 31  1  1
 30 32  1  0
M  END
