
     RDKit          3D

 33 33  0  0  0  0  0  0  0  0999 V2000
   -4.5510   -0.6780   -4.1140 C   0  0  0  0  0  0  0  0  0  0  0  0
   -4.4930   -0.3780   -2.6210 C   0  0  0  0  0  0  0  0  0  0  0  0
   -3.6490   -1.3910   -1.8860 C   0  0  1  0  0  0  0  0  0  0  0  0
   -2.2250   -1.4040   -2.3660 C   0  0  0  0  0  0  0  0  0  0  0  0
   -3.9150   -1.5220   -0.4620 C   0  0  0  0  0  0  0  0  0  0  0  0
   -3.7760   -0.4110    0.4960 C   0  0  1  0  0  0  0  0  0  0  0  0
   -2.3970    0.0650    0.4690 N   0  0  0  0  0  0  0  0  0  0  0  0
   -1.7910    0.1820    1.7670 C   0  0  0  0  0  0  0  0  0  0  0  0
   -0.3180   -0.0280    1.7860 C   0  0  0  0  0  0  0  0  0  0  0  0
    0.4380   -0.2730    0.6810 C   0  0  0  0  0  0  0  0  0  0  0  0
    1.8370   -0.4540    0.7450 C   0  0  0  0  0  0  0  0  0  0  0  0
    2.5330   -0.7040   -0.4890 C   0  0  0  0  0  0  0  0  0  0  0  0
    3.7970   -0.9180   -0.6750 C   0  0  0  0  0  0  0  0  0  0  0  0
    4.7780   -0.9590    0.2530 O   0  0  0  0  0  0  0  0  0  0  0  0
    6.1520   -1.1080   -0.0150 C   0  0  2  0  0  0  0  0  0  0  0  0
    6.3370   -2.4310   -0.7500 C   0  0  0  0  0  0  0  0  0  0  0  0
    6.9450   -1.2580    1.2840 C   0  0  0  0  0  0  0  0  0  0  0  0
    6.7380    0.0270   -0.7590 C   0  0  0  0  0  0  0  0  0  0  0  0
    7.9610    0.0020   -1.0800 O   0  0  0  0  0  0  0  0  0  0  0  0
    5.9990    1.1720   -1.1450 N   0  0  0  0  0  0  0  0  0  0  0  0
    6.5830    2.2720   -1.8710 C   0  0  0  0  0  0  0  0  0  0  0  0
    7.7180    2.9210   -1.1220 C   0  0  0  0  0  0  0  0  0  0  0  0
    7.2910    3.4260    0.1060 O   0  0  0  0  0  0  0  0  0  0  0  0
    2.4410   -0.3770    1.9700 C   0  0  0  0  0  0  0  0  0  0  0  0
    3.6650   -0.5160    2.1740 O   0  0  0  0  0  0  0  0  0  0  0  0
    1.6790   -0.1300    3.0840 N   0  0  0  0  0  0  0  0  0  0  0  0
    0.3740    0.0360    3.0020 C   0  0  0  0  0  0  0  0  0  0  0  0
   -0.4210    0.2920    4.1600 N   0  0  0  0  0  0  0  0  0  0  0  0
   -4.8220    0.6340    0.5170 C   0  0  2  0  0  0  0  0  0  0  0  0
   -4.6430    1.7320    1.5350 C   0  0  0  0  0  0  0  0  0  0  0  0
   -4.6280    1.2790    2.9540 C   0  0  0  0  0  0  0  0  0  0  0  0
   -6.1800   -0.0530    0.7180 C   0  0  0  0  0  0  0  0  0  0  0  0
   -7.2500    0.9280    0.7640 N   0  0  0  0  0  0  0  0  0  0  0  0
  1  2  1  0
  2  3  1  0
  3  4  1  1
  3  5  1  0
  6  5  1  6
  6  7  1  0
  6 29  1  0
  7  8  1  0
  8  9  1  0
  9 10  1  0
  9 27  2  0
 10 11  2  0
 11 12  1  0
 11 24  1  0
 12 13  2  3
 13 14  1  0
 14 15  1  0
 15 16  1  6
 15 17  1  0
 15 18  1  0
 18 19  2  0
 18 20  1  0
 20 21  1  0
 21 22  1  0
 22 23  1  0
 24 25  2  0
 24 26  1  0
 26 27  1  0
 27 28  1  0
 29 30  1  1
 29 32  1  0
 30 31  1  0
 32 33  1  0
M  CHG  2   7   1  33   1
M  END
