
     RDKit          3D

 32 36  0  0  0  0  0  0  0  0999 V2000
    5.2700    3.1970    0.0140 C   0  0  0  0  0  0  0  0  0  0  0  0
    4.7470    2.3660   -1.1290 C   0  0  0  0  0  0  0  0  0  0  0  0
    3.6440    1.5720   -0.8380 O   0  0  0  0  0  0  0  0  0  0  0  0
    3.6730    0.5680    0.0900 C   0  0  0  0  0  0  0  0  0  0  0  0
    4.8520    0.2840    0.7740 C   0  0  0  0  0  0  0  0  0  0  0  0
    4.8990   -0.7110    1.6970 C   0  0  0  0  0  0  0  0  0  0  0  0
    3.7660   -1.4570    1.9670 C   0  0  0  0  0  0  0  0  0  0  0  0
    3.8370   -2.5300    2.9710 C   0  0  0  0  0  0  0  0  0  0  0  0
    2.5900   -1.1510    1.2640 C   0  0  0  0  0  0  0  0  0  0  0  0
    2.5020   -0.1740    0.3410 C   0  0  0  0  0  0  0  0  0  0  0  0
    1.3690    0.1780   -0.4270 N   0  0  0  0  0  0  0  0  0  0  0  0
    0.0350   -0.2660   -0.2480 C   0  0  0  0  0  0  0  0  0  0  0  0
   -0.2070   -1.0460    0.6960 O   0  0  0  0  0  0  0  0  0  0  0  0
   -1.0570    0.1980   -1.1860 C   0  0  2  0  0  0  0  0  0  0  0  0
   -2.3740    0.1470   -0.5980 C   0  0  0  0  0  0  0  0  0  0  0  0
   -2.5720    0.7960    0.5550 C   0  0  0  0  0  0  0  0  0  0  0  0
   -3.8630    0.7940    1.2060 C   0  0  0  0  0  0  0  0  0  0  0  0
   -4.0550    1.4540    2.4120 C   0  0  0  0  0  0  0  0  0  0  0  0
   -5.2490    1.4620    3.0610 C   0  0  0  0  0  0  0  0  0  0  0  0
   -6.3240    0.7870    2.5030 C   0  0  0  0  0  0  0  0  0  0  0  0
   -6.1490    0.1300    1.3130 C   0  0  0  0  0  0  0  0  0  0  0  0
   -4.9180    0.1270    0.6500 C   0  0  0  0  0  0  0  0  0  0  0  0
   -4.8490   -0.5920   -0.6370 C   0  0  0  0  0  0  0  0  0  0  0  0
   -3.4590   -0.5940   -1.1970 C   0  0  0  0  0  0  0  0  0  0  0  0
   -3.2630   -1.2940   -2.2740 N   0  0  0  0  0  0  0  0  0  0  0  0
   -1.9550   -1.3000   -2.8410 C   0  0  0  0  0  0  0  0  0  0  0  0
   -1.5620   -2.0290   -3.9700 C   0  0  0  0  0  0  0  0  0  0  0  0
   -2.3630   -2.8870   -4.7900 C   0  0  0  0  0  0  0  0  0  0  0  0
   -3.0270   -3.5820   -5.4550 N   0  0  0  0  0  0  0  0  0  0  0  0
   -0.2350   -1.7630   -4.1240 C   0  0  0  0  0  0  0  0  0  0  0  0
    0.1240   -0.9310   -3.1440 N   0  0  0  0  0  0  0  0  0  0  0  0
   -0.9140   -0.6370   -2.3500 N   0  0  0  0  0  0  0  0  0  0  0  0
  1  2  1  0
  2  3  1  0
  3  4  1  0
  4  5  2  0
  4 10  1  0
  5  6  1  0
  6  7  2  0
  7  8  1  0
  7  9  1  0
  9 10  2  0
 10 11  1  0
 11 12  1  0
 12 13  2  0
 14 12  1  1
 14 15  1  0
 14 32  1  0
 15 16  2  0
 15 24  1  0
 16 17  1  0
 17 18  2  0
 17 22  1  0
 18 19  1  0
 19 20  2  0
 20 21  1  0
 21 22  2  0
 22 23  1  0
 23 24  1  0
 24 25  2  0
 25 26  1  0
 26 27  2  0
 26 32  1  0
 27 28  1  0
 27 30  1  0
 28 29  3  0
 30 31  2  0
 31 32  1  0
M  END
