
     RDKit          3D

 33 33  0  0  0  0  0  0  0  0999 V2000
   -5.2150    4.1970    1.0080 C   0  0  0  0  0  0  0  0  0  0  0  0
   -4.2170    3.3940    0.0920 C   0  0  0  0  0  0  0  0  0  0  0  0
   -4.9880    2.2980   -0.4320 C   0  0  0  0  0  0  0  0  0  0  0  0
   -4.6430    1.0580   -0.6210 C   0  0  0  0  0  0  0  0  0  0  0  0
   -5.7110    0.1360   -1.1760 C   0  0  0  0  0  0  0  0  0  0  0  0
   -6.1590   -0.9570   -0.2990 C   0  0  2  0  0  0  0  0  0  0  0  0
   -6.7160   -0.4750    1.0240 C   0  0  0  0  0  0  0  0  0  0  0  0
   -7.1900   -1.5810    1.9240 C   0  0  0  0  0  0  0  0  0  0  0  0
   -8.2810   -2.3710    1.2120 C   0  0  0  0  0  0  0  0  0  0  0  0
   -5.3730   -2.1650   -0.2640 C   0  0  0  0  0  0  0  0  0  0  0  0
   -5.1220   -2.9590   -1.4520 N   0  0  0  0  0  0  0  0  0  0  0  0
   -4.8360   -2.6500    0.7760 O   0  0  0  0  0  0  0  0  0  0  0  0
   -3.2960    0.5540   -0.5600 C   0  0  0  0  0  0  0  0  0  0  0  0
   -3.1420   -0.7220   -0.6860 O   0  0  0  0  0  0  0  0  0  0  0  0
   -2.0990    1.2510   -0.3920 N   0  0  0  0  0  0  0  0  0  0  0  0
   -0.8230    0.6030   -0.3430 C   0  0  0  0  0  0  0  0  0  0  0  0
    0.2160    1.2540    0.3530 C   0  0  0  0  0  0  0  0  0  0  0  0
    1.4810    0.7130    0.4220 C   0  0  0  0  0  0  0  0  0  0  0  0
    1.8060   -0.4760   -0.1730 C   0  0  0  0  0  0  0  0  0  0  0  0
    3.1390   -1.0940   -0.1270 C   0  0  0  0  0  0  0  0  0  0  0  0
    3.3760   -2.3420   -0.7810 N   0  0  0  0  0  0  0  0  0  0  0  0
    4.1250   -0.5190    0.5080 C   0  0  0  0  0  0  0  0  0  0  0  0
    5.3980   -1.1720    0.5150 N   0  0  0  0  0  0  0  0  0  0  0  0
    6.3990   -0.8260   -0.5070 C   0  0  0  0  0  0  0  0  0  0  0  0
    7.6240   -1.5830   -0.3470 C   0  0  0  0  0  0  0  0  0  0  0  0
    8.8000   -1.0860   -0.1210 C   0  0  0  0  0  0  0  0  0  0  0  0
    9.1120    0.3120    0.0150 C   0  0  0  0  0  0  0  0  0  0  0  0
    8.2150    1.3970   -0.0580 N   0  0  0  0  0  0  0  0  0  0  0  0
   10.3940    0.6450    0.2460 C   0  0  0  0  0  0  0  0  0  0  0  0
   10.7240    2.0040    0.3830 N   0  0  0  0  0  0  0  0  0  0  0  0
   10.1890    2.9080   -0.4520 O   0  0  0  0  0  0  0  0  0  0  0  0
    0.7950   -1.1170   -0.8540 C   0  0  0  0  0  0  0  0  0  0  0  0
   -0.4980   -0.5780   -0.9340 C   0  0  0  0  0  0  0  0  0  0  0  0
  1  2  1  0
  2  3  1  0
  3  4  2  3
  4  5  1  0
  4 13  1  0
  6  5  1  1
  6  7  1  0
  6 10  1  0
  7  8  1  0
  8  9  1  0
 10 11  1  0
 10 12  2  0
 13 14  2  0
 13 15  1  0
 15 16  1  0
 16 17  2  0
 16 33  1  0
 17 18  1  0
 18 19  2  0
 19 20  1  0
 19 32  1  0
 20 21  1  0
 20 22  2  3
 22 23  1  0
 23 24  1  0
 24 25  1  0
 25 26  2  3
 26 27  1  0
 27 28  1  0
 27 29  2  3
 29 30  1  0
 30 31  1  0
 32 33  2  0
M  CHG  1  21   1
M  END
