
     RDKit          3D

 33 33  0  0  0  0  0  0  0  0999 V2000
   -9.4770    1.4520    2.0710 C   0  0  0  0  0  0  0  0  0  0  0  0
   -8.9760    1.4630    0.8130 C   0  0  0  0  0  0  0  0  0  0  0  0
   -7.7510    0.8300    0.5620 C   0  0  0  0  0  0  0  0  0  0  0  0
   -7.0450    0.6830   -0.5810 C   0  0  0  0  0  0  0  0  0  0  0  0
   -7.5700    1.2340   -1.7890 C   0  0  0  0  0  0  0  0  0  0  0  0
   -6.9220    1.1480   -3.0390 N   0  0  0  0  0  0  0  0  0  0  0  0
   -8.6730    1.8430   -1.8020 O   0  0  0  0  0  0  0  0  0  0  0  0
   -5.7890   -0.0170   -0.4920 C   0  0  0  0  0  0  0  0  0  0  0  0
   -5.4140   -0.4100    0.6760 O   0  0  0  0  0  0  0  0  0  0  0  0
   -4.9210   -0.3310   -1.5350 N   0  0  0  0  0  0  0  0  0  0  0  0
   -3.6830   -1.0390   -1.3420 C   0  0  0  0  0  0  0  0  0  0  0  0
   -3.2840   -2.0060   -2.3120 C   0  0  0  0  0  0  0  0  0  0  0  0
   -2.0830   -2.6340   -2.1310 C   0  0  0  0  0  0  0  0  0  0  0  0
   -1.2210   -2.4000   -1.0740 C   0  0  0  0  0  0  0  0  0  0  0  0
   -1.6070   -1.4740   -0.1530 C   0  0  0  0  0  0  0  0  0  0  0  0
   -0.6730   -1.1490    0.9910 C   0  0  2  0  0  0  0  0  0  0  0  0
    0.2780   -2.2670    1.1140 C   0  0  0  0  0  0  0  0  0  0  0  0
   -1.5840   -1.2190    2.2290 C   0  0  0  0  0  0  0  0  0  0  0  0
   -0.1770    0.2160    0.7430 C   0  0  0  0  0  0  0  0  0  0  0  0
    0.7670    0.9090    1.6010 C   0  0  1  0  0  0  0  0  0  0  0  0
    0.3830    1.0940    3.0000 N   0  0  0  0  0  0  0  0  0  0  0  0
    2.2250    0.9230    1.3400 C   0  0  0  0  0  0  0  0  0  0  0  0
    2.9430   -0.3700    1.2640 C   0  0  0  0  0  0  0  0  0  0  0  0
    4.4270   -0.1980    1.0710 C   0  0  0  0  0  0  0  0  0  0  0  0
    4.8610    0.9310    1.3500 O   0  0  0  0  0  0  0  0  0  0  0  0
    5.2360   -1.2330    0.6080 N   0  0  0  0  0  0  0  0  0  0  0  0
    6.6250   -1.1920    0.3770 C   0  0  0  0  0  0  0  0  0  0  0  0
    7.1950   -0.3220   -0.6780 C   0  0  0  0  0  0  0  0  0  0  0  0
    7.0120    1.1510   -0.5840 C   0  0  0  0  0  0  0  0  0  0  0  0
    7.7940    1.7340   -1.7510 C   0  0  0  0  0  0  0  0  0  0  0  0
    9.1920    1.4990   -1.7600 N   0  0  0  0  0  0  0  0  0  0  0  0
    7.1930    2.3870   -2.6530 N   0  0  0  0  0  0  0  0  0  0  0  0
   -2.8290   -0.8190   -0.3130 C   0  0  0  0  0  0  0  0  0  0  0  0
  1  2  2  0
  2  3  1  0
  3  4  2  3
  4  5  1  0
  4  8  1  0
  5  6  1  0
  5  7  2  0
  8  9  2  0
  8 10  1  0
 10 11  1  0
 11 12  2  0
 11 33  1  0
 12 13  1  0
 13 14  2  0
 14 15  1  0
 15 16  1  0
 15 33  2  0
 16 17  1  1
 16 18  1  0
 16 19  1  0
 19 20  1  0
 20 21  1  1
 20 22  1  0
 22 23  1  0
 23 24  1  0
 24 25  2  0
 24 26  1  0
 26 27  1  0
 27 28  1  0
 28 29  1  0
 29 30  1  0
 30 31  1  0
 30 32  2  0
M  CHG  2  21   1  32   1
M  END
