
     RDKit          3D

 32 35  0  0  0  0  0  0  0  0999 V2000
   -5.7080   -0.9050   -3.7530 C   0  0  0  0  0  0  0  0  0  0  0  0
   -5.7230   -0.8830   -2.2760 C   0  0  0  0  0  0  0  0  0  0  0  0
   -6.6370   -1.5560   -1.5020 C   0  0  0  0  0  0  0  0  0  0  0  0
   -6.6290   -1.5180   -0.1320 C   0  0  0  0  0  0  0  0  0  0  0  0
   -7.6430   -2.2660    0.6850 C   0  0  0  0  0  0  0  0  0  0  0  0
   -5.6610   -0.7710    0.4870 C   0  0  0  0  0  0  0  0  0  0  0  0
   -4.6910   -0.0540   -0.2370 C   0  0  0  0  0  0  0  0  0  0  0  0
   -3.7170    0.6870    0.4740 N   0  0  0  0  0  0  0  0  0  0  0  0
   -2.7960    1.6020   -0.0590 C   0  0  0  0  0  0  0  0  0  0  0  0
   -2.7780    1.8410   -1.2890 O   0  0  0  0  0  0  0  0  0  0  0  0
   -1.8740    2.2620    0.8070 N   0  0  0  0  0  0  0  0  0  0  0  0
   -0.6500    1.7890    0.8340 C   0  0  0  0  0  0  0  0  0  0  0  0
   -0.3450    0.6680    0.0060 C   0  0  0  0  0  0  0  0  0  0  0  0
    0.7040    0.0540   -0.1450 N   0  0  0  0  0  0  0  0  0  0  0  0
    1.9580    0.1600    0.3740 C   0  0  0  0  0  0  0  0  0  0  0  0
    2.8990    0.7480   -0.3250 N   0  0  0  0  0  0  0  0  0  0  0  0
    4.1800    0.8220    0.2760 C   0  0  0  0  0  0  0  0  0  0  0  0
    5.1180   -0.0300   -0.0780 C   0  0  0  0  0  0  0  0  0  0  0  0
    4.8300   -0.9800   -1.0300 C   0  0  0  0  0  0  0  0  0  0  0  0
    5.7870   -1.8930   -1.4290 C   0  0  0  0  0  0  0  0  0  0  0  0
    7.0460   -1.8790   -0.8890 C   0  0  0  0  0  0  0  0  0  0  0  0
    7.3520   -0.9200    0.0780 C   0  0  0  0  0  0  0  0  0  0  0  0
    6.3830   -0.0080    0.4710 C   0  0  0  0  0  0  0  0  0  0  0  0
    8.7420   -1.1760    0.4360 C   0  0  0  0  0  0  0  0  0  0  0  0
    9.1410   -2.2110   -0.3030 C   0  0  0  0  0  0  0  0  0  0  0  0
    8.0700   -2.6240   -1.1120 N   0  0  0  0  0  0  0  0  0  0  0  0
    0.2680    2.4770    1.7200 C   0  0  0  0  0  0  0  0  0  0  0  0
   -0.0510    3.5870    2.5330 C   0  0  0  0  0  0  0  0  0  0  0  0
    1.0650    3.9620    3.2280 C   0  0  0  0  0  0  0  0  0  0  0  0
    2.0450    3.0820    2.8330 C   0  0  0  0  0  0  0  0  0  0  0  0
    1.5290    2.2700    1.9810 O   0  0  0  0  0  0  0  0  0  0  0  0
   -4.7480   -0.1290   -1.6120 C   0  0  0  0  0  0  0  0  0  0  0  0
  1  2  1  0
  2  3  2  0
  2 32  1  0
  3  4  1  0
  4  5  1  0
  4  6  2  0
  6  7  1  0
  7  8  1  0
  7 32  2  0
  8  9  1  0
  9 10  2  0
  9 11  1  0
 11 12  2  3
 12 13  1  0
 12 27  1  0
 13 14  2  3
 14 15  1  0
 15 16  2  3
 16 17  1  0
 17 18  2  3
 18 19  1  0
 18 23  1  0
 19 20  2  0
 20 21  1  0
 21 22  1  0
 21 26  2  0
 22 23  2  0
 22 24  1  0
 24 25  2  0
 25 26  1  0
 27 28  2  0
 27 31  1  0
 28 29  1  0
 29 30  2  0
 30 31  1  0
M  END
