
     RDKit          3D

 33 34  0  0  0  0  0  0  0  0999 V2000
   -6.6440    2.8590   -1.3820 N   0  0  0  0  0  0  0  0  0  0  0  0
   -5.9270    2.1970   -0.7540 C   0  0  0  0  0  0  0  0  0  0  0  0
   -5.0430    1.3720    0.0540 C   0  0  0  0  0  0  0  0  0  0  0  0
   -5.6980    0.0470    0.4790 C   0  0  2  0  0  0  0  0  0  0  0  0
   -4.7240   -0.6340    1.2590 N   0  0  0  0  0  0  0  0  0  0  0  0
   -4.2220   -1.8780    0.8350 C   0  0  2  0  0  0  0  0  0  0  0  0
   -3.4440   -2.5940    1.9590 C   0  0  0  0  0  0  0  0  0  0  0  0
   -4.3190   -2.8110    3.0500 O   0  0  0  0  0  0  0  0  0  0  0  0
   -3.2490   -1.7450   -0.3110 C   0  0  0  0  0  0  0  0  0  0  0  0
   -2.0470   -0.9260   -0.0040 C   0  0  0  0  0  0  0  0  0  0  0  0
   -1.1980   -0.8960   -1.2520 C   0  0  0  0  0  0  0  0  0  0  0  0
   -1.5960   -1.4950   -2.2580 O   0  0  0  0  0  0  0  0  0  0  0  0
    0.0340   -0.2010   -1.2890 N   0  0  0  0  0  0  0  0  0  0  0  0
    0.9210   -0.0840   -2.3730 C   0  0  0  0  0  0  0  0  0  0  0  0
    0.5770   -0.4720   -3.6490 C   0  0  0  0  0  0  0  0  0  0  0  0
    1.4620   -0.2930   -4.7210 C   0  0  0  0  0  0  0  0  0  0  0  0
    2.6840    0.2690   -4.5300 C   0  0  0  0  0  0  0  0  0  0  0  0
    3.0150    0.6550   -3.2290 C   0  0  0  0  0  0  0  0  0  0  0  0
    2.1800    0.4990   -2.1440 C   0  0  0  0  0  0  0  0  0  0  0  0
    2.5180    0.8270   -0.8250 N   0  0  0  0  0  0  0  0  0  0  0  0
    3.6800    1.5710   -0.4960 C   0  0  0  0  0  0  0  0  0  0  0  0
    4.4760    1.9940   -1.3470 O   0  0  0  0  0  0  0  0  0  0  0  0
    4.0040    1.8800    0.8650 N   0  0  0  0  0  0  0  0  0  0  0  0
    5.1730    2.6220    1.2550 C   0  0  0  0  0  0  0  0  0  0  0  0
    6.4160    1.8040    0.8000 C   0  0  0  0  0  0  0  0  0  0  0  0
    6.3550    0.4790    1.4720 C   0  0  0  0  0  0  0  0  0  0  0  0
    7.3680   -0.5420    1.1920 C   0  0  0  0  0  0  0  0  0  0  0  0
    8.7810   -0.2160    1.5020 C   0  0  0  0  0  0  0  0  0  0  0  0
    9.3190    0.8590    0.7140 N   0  0  0  0  0  0  0  0  0  0  0  0
   -6.2020   -0.6020   -0.7400 C   0  0  0  0  0  0  0  0  0  0  0  0
   -7.6970   -0.4590   -0.7030 C   0  0  0  0  0  0  0  0  0  0  0  0
   -7.9940   -0.5580    0.7770 C   0  0  0  0  0  0  0  0  0  0  0  0
   -6.9240    0.4320    1.2870 C   0  0  0  0  0  0  0  0  0  0  0  0
  1  2  3  0
  2  3  1  0
  4  3  1  6
  4  5  1  0
  4 30  1  0
  4 33  1  0
  5  6  1  0
  6  7  1  1
  6  9  1  0
  7  8  1  0
  9 10  1  0
 10 11  1  0
 11 12  2  0
 11 13  1  0
 13 14  1  0
 14 15  2  0
 14 19  1  0
 15 16  1  0
 16 17  2  0
 17 18  1  0
 18 19  2  0
 19 20  1  0
 20 21  1  0
 21 22  2  0
 21 23  1  0
 23 24  1  0
 24 25  1  0
 25 26  1  0
 26 27  1  0
 27 28  1  0
 28 29  1  0
 30 31  1  0
 31 32  1  0
 32 33  1  0
M  CHG  2   5   1  29   1
M  END
