
     RDKit          3D

 32 35  0  0  0  0  0  0  0  0999 V2000
    8.2460    0.3650    0.8900 N   0  0  0  0  0  0  0  0  0  0  0  0
    7.0570   -0.3300    1.2650 C   0  0  0  0  0  0  0  0  0  0  0  0
    7.1200   -1.5580    1.6000 N   0  0  0  0  0  0  0  0  0  0  0  0
    5.8010    0.3840    1.2540 C   0  0  0  0  0  0  0  0  0  0  0  0
    5.8000    1.7320    0.8760 C   0  0  0  0  0  0  0  0  0  0  0  0
    4.6600    2.5020    0.8320 C   0  0  0  0  0  0  0  0  0  0  0  0
    3.4460    1.9370    1.1750 C   0  0  0  0  0  0  0  0  0  0  0  0
    2.2970    2.6750    1.1440 O   0  0  0  0  0  0  0  0  0  0  0  0
    3.3980    0.6080    1.5550 C   0  0  0  0  0  0  0  0  0  0  0  0
    2.2190   -0.0160    1.9100 O   0  0  0  0  0  0  0  0  0  0  0  0
    1.1350   -0.1900    1.0230 C   0  0  0  0  0  0  0  0  0  0  0  0
    1.2060    0.2350   -0.2760 C   0  0  0  0  0  0  0  0  0  0  0  0
    0.1380    0.0520   -1.1180 C   0  0  0  0  0  0  0  0  0  0  0  0
    0.1600    0.4830   -2.5010 C   0  0  0  0  0  0  0  0  0  0  0  0
   -0.8280    0.3020   -3.2430 O   0  0  0  0  0  0  0  0  0  0  0  0
    1.2890    1.1000   -3.0020 O   0  0  0  0  0  0  0  0  0  0  0  0
   -1.0040   -0.5720   -0.6120 C   0  0  0  0  0  0  0  0  0  0  0  0
   -1.0680   -0.9960    0.6950 C   0  0  0  0  0  0  0  0  0  0  0  0
   -2.2190   -1.6120    1.1610 O   0  0  0  0  0  0  0  0  0  0  0  0
   -3.3320   -1.8280    0.3670 C   0  0  0  0  0  0  0  0  0  0  0  0
   -3.4340   -3.0030   -0.3460 C   0  0  0  0  0  0  0  0  0  0  0  0
   -4.5310   -3.2790   -1.1630 C   0  0  0  0  0  0  0  0  0  0  0  0
   -5.5350   -2.3160   -1.2380 C   0  0  0  0  0  0  0  0  0  0  0  0
   -5.4600   -1.1360   -0.5380 C   0  0  0  0  0  0  0  0  0  0  0  0
   -6.5680   -0.1680   -0.6730 C   0  0  0  0  0  0  0  0  0  0  0  0
   -7.6740   -0.2890   -1.4100 N   0  0  0  0  0  0  0  0  0  0  0  0
   -8.4400    0.7970   -1.2720 C   0  0  0  0  0  0  0  0  0  0  0  0
   -7.7880    1.6410   -0.4090 C   0  0  0  0  0  0  0  0  0  0  0  0
   -6.6470    1.0250   -0.0600 N   0  0  0  0  0  0  0  0  0  0  0  0
   -4.3650   -0.8950    0.2580 C   0  0  0  0  0  0  0  0  0  0  0  0
    0.0090   -0.7850    1.4560 N   0  0  0  0  0  0  0  0  0  0  0  0
    4.5830   -0.1460    1.5870 C   0  0  0  0  0  0  0  0  0  0  0  0
  1  2  1  0
  2  3  2  0
  2  4  1  0
  4  5  2  0
  4 32  1  0
  5  6  1  0
  6  7  2  0
  7  8  1  0
  7  9  1  0
  9 10  1  0
  9 32  2  0
 10 11  1  0
 11 12  2  0
 11 31  1  0
 12 13  1  0
 13 14  1  0
 13 17  2  0
 14 15  2  0
 14 16  1  0
 17 18  1  0
 18 19  1  0
 18 31  2  0
 19 20  1  0
 20 21  2  0
 20 30  1  0
 21 22  1  0
 22 23  2  0
 23 24  1  0
 24 25  1  0
 24 30  2  0
 25 26  2  0
 25 29  1  0
 26 27  1  0
 27 28  2  0
 28 29  1  0
M  CHG  1   3   1
M  END
