
     RDKit          3D

 33 34  0  0  0  0  0  0  0  0999 V2000
   -5.7530   -2.0470    0.1770 C   0  0  0  0  0  0  0  0  0  0  0  0
   -4.5250   -1.8510    0.9750 C   0  0  0  0  0  0  0  0  0  0  0  0
   -3.9500   -0.4520    1.0300 C   0  0  2  0  0  0  0  0  0  0  0  0
   -2.7250   -0.5590    1.9060 C   0  0  0  0  0  0  0  0  0  0  0  0
   -3.0230   -1.0900    3.2960 C   0  0  0  0  0  0  0  0  0  0  0  0
   -4.8080    0.5840    1.6260 C   0  0  0  0  0  0  0  0  0  0  0  0
   -6.0720    0.8610    1.0250 N   0  0  0  0  0  0  0  0  0  0  0  0
   -3.5080   -0.1570   -0.3890 C   0  0  0  0  0  0  0  0  0  0  0  0
   -2.8820    1.1200   -0.6950 C   0  0  2  0  0  0  0  0  0  0  0  0
   -2.4770    1.4250   -2.1050 C   0  0  0  0  0  0  0  0  0  0  0  0
   -3.4860    1.4480   -3.1740 C   0  0  2  0  0  0  0  0  0  0  0  0
   -4.1310    0.1770   -3.3730 N   0  0  0  0  0  0  0  0  0  0  0  0
   -2.8070    1.8060   -4.5150 C   0  0  0  0  0  0  0  0  0  0  0  0
   -2.1580    3.0150   -4.4220 O   0  0  0  0  0  0  0  0  0  0  0  0
   -1.7520    1.4580    0.0680 O   0  0  0  0  0  0  0  0  0  0  0  0
   -0.4950    0.9480    0.1290 C   0  0  0  0  0  0  0  0  0  0  0  0
    0.4100    1.6360    0.9760 C   0  0  0  0  0  0  0  0  0  0  0  0
    1.6990    1.2070    1.1130 C   0  0  0  0  0  0  0  0  0  0  0  0
    2.1570    0.0880    0.4280 C   0  0  0  0  0  0  0  0  0  0  0  0
    1.3190   -0.6140   -0.4050 C   0  0  0  0  0  0  0  0  0  0  0  0
    0.0100   -0.1450   -0.5190 C   0  0  0  0  0  0  0  0  0  0  0  0
    2.0500   -1.7580   -1.0110 C   0  0  0  0  0  0  0  0  0  0  0  0
    3.2290   -1.9350   -0.0720 C   0  0  0  0  0  0  0  0  0  0  0  0
    3.4210   -0.5540    0.3950 N   0  0  0  0  0  0  0  0  0  0  0  0
    4.6950    0.0050    0.7440 C   0  0  0  0  0  0  0  0  0  0  0  0
    5.2570   -0.6210    1.9990 C   0  0  0  0  0  0  0  0  0  0  0  0
    6.6010   -0.0270    2.3540 C   0  0  0  0  0  0  0  0  0  0  0  0
    7.5510   -0.2460    1.2890 N   0  0  0  0  0  0  0  0  0  0  0  0
    8.8920    0.1980    1.3250 C   0  0  0  0  0  0  0  0  0  0  0  0
    9.2720    0.8250    2.3580 O   0  0  0  0  0  0  0  0  0  0  0  0
    9.8300   -0.0410    0.2260 C   0  0  0  0  0  0  0  0  0  0  0  0
   11.1510    0.4250    0.3160 N   0  0  0  0  0  0  0  0  0  0  0  0
    9.4410   -0.6630   -0.7880 O   0  0  0  0  0  0  0  0  0  0  0  0
  1  2  1  0
  3  2  1  6
  3  4  1  0
  3  6  1  0
  3  8  1  0
  4  5  1  0
  6  7  1  0
  9  8  1  6
  9 10  1  0
  9 15  1  0
 10 11  1  0
 11 12  1  6
 11 13  1  0
 13 14  1  0
 15 16  1  0
 16 17  2  0
 16 21  1  0
 17 18  1  0
 18 19  2  0
 19 20  1  0
 19 24  1  0
 20 21  2  0
 20 22  1  0
 22 23  1  0
 23 24  1  0
 24 25  1  0
 25 26  1  0
 26 27  1  0
 27 28  1  0
 28 29  1  0
 29 30  2  0
 29 31  1  0
 31 32  1  0
 31 33  2  0
M  CHG  2   7   1  12   1
M  END
