
     RDKit          3D

 34 37  0  0  0  0  0  0  0  0999 V2000
   -5.8840   -2.8810   -0.0510 C   0  0  0  0  0  0  0  0  0  0  0  0
   -4.8050   -1.8750    0.1050 C   0  0  0  0  0  0  0  0  0  0  0  0
   -4.3490   -1.5820    1.2960 C   0  0  0  0  0  0  0  0  0  0  0  0
   -3.2650   -0.5810    1.5390 C   0  0  0  0  0  0  0  0  0  0  0  0
   -2.7830    0.0180    0.2920 C   0  0  0  0  0  0  0  0  0  0  0  0
   -3.5290    0.9740   -0.3630 C   0  0  0  0  0  0  0  0  0  0  0  0
   -4.7260    1.3540    0.1860 O   0  0  0  0  0  0  0  0  0  0  0  0
   -5.5020    2.3340   -0.4750 C   0  0  2  0  0  0  0  0  0  0  0  0
   -5.7760    3.4270    0.5180 C   0  0  0  0  0  0  0  0  0  0  0  0
   -6.7930    1.6500   -0.8870 C   0  0  0  0  0  0  0  0  0  0  0  0
   -7.6420    2.4990   -1.5440 F   0  0  0  0  0  0  0  0  0  0  0  0
   -3.0680    1.5030   -1.5100 N   0  0  0  0  0  0  0  0  0  0  0  0
   -1.8850    1.1200   -2.0430 C   0  0  0  0  0  0  0  0  0  0  0  0
   -1.1590    0.1900   -1.4080 N   0  0  0  0  0  0  0  0  0  0  0  0
   -1.5820   -0.3800   -0.2370 C   0  0  0  0  0  0  0  0  0  0  0  0
   -0.7040   -1.3320    0.3130 N   0  0  0  0  0  0  0  0  0  0  0  0
   -0.0550   -1.0980    1.5900 C   0  0  0  0  0  0  0  0  0  0  0  0
    1.4510   -1.1530    1.3720 C   0  0  0  0  0  0  0  0  0  0  0  0
    1.7370   -2.2110    0.4280 N   0  0  0  0  0  0  0  0  0  0  0  0
    2.9760   -2.2910   -0.2620 C   0  0  0  0  0  0  0  0  0  0  0  0
    3.1990   -3.2240   -1.0820 O   0  0  0  0  0  0  0  0  0  0  0  0
    3.9630   -1.2720    0.0080 C   0  0  0  0  0  0  0  0  0  0  0  0
    3.9880   -0.1290   -0.7440 C   0  0  0  0  0  0  0  0  0  0  0  0
    4.9590    0.8250   -0.4460 C   0  0  0  0  0  0  0  0  0  0  0  0
    5.8590    0.6130    0.5740 C   0  0  0  0  0  0  0  0  0  0  0  0
    5.8200   -0.5080    1.2960 N   0  0  0  0  0  0  0  0  0  0  0  0
    4.8720   -1.4480    1.0110 C   0  0  0  0  0  0  0  0  0  0  0  0
    4.8540   -2.5010    1.7080 O   0  0  0  0  0  0  0  0  0  0  0  0
    6.8740    1.6650    0.8470 C   0  0  0  0  0  0  0  0  0  0  0  0
    7.4290    2.2810   -0.3870 C   0  0  0  0  0  0  0  0  0  0  0  0
    6.4820    2.4620   -1.5150 C   0  0  0  0  0  0  0  0  0  0  0  0
    5.0520    2.0860   -1.2110 C   0  0  0  0  0  0  0  0  0  0  0  0
    0.7400   -3.2260    0.1740 C   0  0  0  0  0  0  0  0  0  0  0  0
   -0.4640   -2.5450   -0.4340 C   0  0  0  0  0  0  0  0  0  0  0  0
  1  2  1  0
  2  3  2  3
  3  4  1  0
  4  5  1  0
  5  6  2  0
  5 15  1  0
  6  7  1  0
  6 12  1  0
  7  8  1  0
  8  9  1  1
  8 10  1  0
 10 11  1  0
 12 13  2  0
 13 14  1  0
 14 15  2  0
 15 16  1  0
 16 17  1  0
 16 34  1  0
 17 18  1  0
 18 19  1  0
 19 20  1  0
 19 33  1  0
 20 21  2  0
 20 22  1  0
 22 23  2  0
 22 27  1  0
 23 24  1  0
 24 25  2  0
 24 32  1  0
 25 26  1  0
 25 29  1  0
 26 27  1  0
 27 28  2  0
 29 30  1  0
 30 31  1  0
 31 32  1  0
 33 34  1  0
M  END
