
     RDKit          3D

 35 37  0  0  0  0  0  0  0  0999 V2000
    8.7710    2.8490   -0.1080 C   0  0  0  0  0  0  0  0  0  0  0  0
    8.1380    1.6190   -0.6980 C   0  0  1  0  0  0  0  0  0  0  0  0
    8.8480    1.0060   -1.8940 C   0  0  0  0  0  0  0  0  0  0  0  0
   10.1940    0.6350   -1.4520 N   0  0  0  0  0  0  0  0  0  0  0  0
    7.5810    0.5660    0.2770 C   0  0  0  0  0  0  0  0  0  0  0  0
    6.6690    1.3880   -0.6140 C   0  0  1  0  0  0  0  0  0  0  0  0
    5.7830    2.3540    0.1070 C   0  0  1  0  0  0  0  0  0  0  0  0
    5.8350    3.6350   -0.4530 O   0  0  0  0  0  0  0  0  0  0  0  0
    4.3750    1.8970    0.0830 C   0  0  0  0  0  0  0  0  0  0  0  0
    3.3380    2.7740    0.4180 C   0  0  0  0  0  0  0  0  0  0  0  0
    2.0360    2.3730    0.4100 C   0  0  0  0  0  0  0  0  0  0  0  0
    1.6450    1.0620    0.0660 C   0  0  0  0  0  0  0  0  0  0  0  0
    0.3230    0.7540    0.0830 O   0  0  0  0  0  0  0  0  0  0  0  0
   -0.3990   -0.3760   -0.1610 C   0  0  0  0  0  0  0  0  0  0  0  0
   -0.1280   -1.5040    0.7760 C   0  0  0  0  0  0  0  0  0  0  0  0
   -0.9050   -2.6490    0.4690 O   0  0  0  0  0  0  0  0  0  0  0  0
   -0.7380   -3.7830    1.2740 C   0  0  0  0  0  0  0  0  0  0  0  0
   -1.7590   -4.4050    1.8160 C   0  0  0  0  0  0  0  0  0  0  0  0
   -3.1130   -3.9370    1.6000 C   0  0  0  0  0  0  0  0  0  0  0  0
   -4.1700   -4.5210    2.1160 C   0  0  0  0  0  0  0  0  0  0  0  0
   -5.5160   -4.0510    1.8990 C   0  0  0  0  0  0  0  0  0  0  0  0
   -6.4890   -4.6790    2.4390 O   0  0  0  0  0  0  0  0  0  0  0  0
   -5.8700   -2.9260    1.1210 N   0  0  0  0  0  0  0  0  0  0  0  0
   -7.2590   -2.5430    0.9700 C   0  0  0  0  0  0  0  0  0  0  0  0
   -7.3950   -1.3350    0.1100 C   0  0  0  0  0  0  0  0  0  0  0  0
   -6.3460   -0.8380   -0.3430 O   0  0  0  0  0  0  0  0  0  0  0  0
   -8.6310   -0.7490   -0.2020 N   0  0  0  0  0  0  0  0  0  0  0  0
   -8.8730    0.3840   -0.9990 C   0  0  0  0  0  0  0  0  0  0  0  0
   -7.9330    1.1020   -1.6830 C   0  0  0  0  0  0  0  0  0  0  0  0
   -8.2980    2.2220   -2.4470 C   0  0  0  0  0  0  0  0  0  0  0  0
   -9.5910    2.6460   -2.5440 C   0  0  0  0  0  0  0  0  0  0  0  0
  -10.5510    1.9330   -1.8600 C   0  0  0  0  0  0  0  0  0  0  0  0
  -10.1960    0.8340   -1.1110 C   0  0  0  0  0  0  0  0  0  0  0  0
    2.6800    0.2210   -0.2600 C   0  0  0  0  0  0  0  0  0  0  0  0
    4.0190    0.6150   -0.2560 C   0  0  0  0  0  0  0  0  0  0  0  0
  2  1  1  1
  2  3  1  0
  2  5  1  0
  2  6  1  0
  3  4  1  0
  6  5  1  1
  6  7  1  0
  7  8  1  6
  7  9  1  0
  9 10  2  0
  9 35  1  0
 10 11  1  0
 11 12  2  0
 12 13  1  0
 12 34  1  0
 13 14  1  0
 14 15  1  0
 15 16  1  0
 16 17  1  0
 17 18  2  3
 18 19  1  0
 19 20  2  3
 20 21  1  0
 21 22  2  0
 21 23  1  0
 23 24  1  0
 24 25  1  0
 25 26  2  0
 25 27  1  0
 27 28  1  0
 28 29  2  0
 28 33  1  0
 29 30  1  0
 30 31  2  0
 31 32  1  0
 32 33  2  0
 34 35  2  0
M  CHG  1   4   1
M  END
