
     RDKit          3D

 35 37  0  0  0  0  0  0  0  0999 V2000
    7.6020   -2.0480   -1.7190 C   0  0  0  0  0  0  0  0  0  0  0  0
    6.4470   -2.8020   -1.0850 C   0  0  0  0  0  0  0  0  0  0  0  0
    5.3040   -1.8970   -0.8880 N   0  0  0  0  0  0  0  0  0  0  0  0
    5.4370   -0.8340    0.0110 C   0  0  0  0  0  0  0  0  0  0  0  0
    6.6030   -0.7460    0.7690 C   0  0  0  0  0  0  0  0  0  0  0  0
    6.8020    0.2490    1.6830 C   0  0  0  0  0  0  0  0  0  0  0  0
    8.0280    0.3740    2.5060 C   0  0  0  0  0  0  0  0  0  0  0  0
    5.8000    1.1820    1.8400 C   0  0  0  0  0  0  0  0  0  0  0  0
    4.6520    1.0970    1.0950 C   0  0  0  0  0  0  0  0  0  0  0  0
    4.4340    0.0910    0.1600 C   0  0  0  0  0  0  0  0  0  0  0  0
    3.1900    0.1010   -0.5760 C   0  0  0  0  0  0  0  0  0  0  0  0
    2.8510   -0.7230   -1.4500 O   0  0  0  0  0  0  0  0  0  0  0  0
    2.2700    1.1010   -0.3120 O   0  0  0  0  0  0  0  0  0  0  0  0
    1.0180    1.2520   -0.9320 C   0  0  0  0  0  0  0  0  0  0  0  0
    0.0820    0.0850   -0.7030 C   0  0  1  0  0  0  0  0  0  0  0  0
   -0.1640   -0.1030    0.6580 O   0  0  0  0  0  0  0  0  0  0  0  0
   -1.1840    0.2070   -1.5080 C   0  0  0  0  0  0  0  0  0  0  0  0
   -2.0460    1.2780   -1.1760 N   0  0  0  0  0  0  0  0  0  0  0  0
   -2.9070    1.0930   -0.0450 C   0  0  1  0  0  0  0  0  0  0  0  0
   -3.6090    2.3760    0.2270 C   0  0  0  0  0  0  0  0  0  0  0  0
   -3.7580    2.8100    1.5510 C   0  0  0  0  0  0  0  0  0  0  0  0
   -4.3900    3.9890    1.8700 C   0  0  0  0  0  0  0  0  0  0  0  0
   -4.9000    4.7840    0.8930 C   0  0  0  0  0  0  0  0  0  0  0  0
   -5.5410    5.9840    1.2510 O   0  0  0  0  0  0  0  0  0  0  0  0
   -4.7750    4.3970   -0.4160 C   0  0  0  0  0  0  0  0  0  0  0  0
   -4.1310    3.1960   -0.7290 C   0  0  0  0  0  0  0  0  0  0  0  0
   -3.7690   -0.0670   -0.0480 C   0  0  0  0  0  0  0  0  0  0  0  0
   -3.7510   -0.9410    1.0370 C   0  0  0  0  0  0  0  0  0  0  0  0
   -4.5580   -2.0550    1.0910 C   0  0  0  0  0  0  0  0  0  0  0  0
   -5.4060   -2.3170    0.0480 C   0  0  0  0  0  0  0  0  0  0  0  0
   -6.2840   -3.5290    0.1120 C   0  0  0  0  0  0  0  0  0  0  0  0
   -5.5160   -4.6770   -0.5050 C   0  0  0  0  0  0  0  0  0  0  0  0
   -5.4480   -1.5010   -1.0060 N   0  0  0  0  0  0  0  0  0  0  0  0
   -4.6490   -0.4050   -1.0500 C   0  0  0  0  0  0  0  0  0  0  0  0
   -4.7320    0.3120   -2.0510 O   0  0  0  0  0  0  0  0  0  0  0  0
  1  2  1  0
  2  3  1  0
  3  4  1  0
  4  5  2  0
  4 10  1  0
  5  6  1  0
  6  7  1  0
  6  8  2  0
  8  9  1  0
  9 10  2  0
 10 11  1  0
 11 12  2  0
 11 13  1  0
 13 14  1  0
 14 15  1  0
 15 16  1  1
 15 17  1  0
 17 18  1  0
 19 18  1  6
 19 20  1  0
 19 27  1  0
 20 21  2  0
 20 26  1  0
 21 22  1  0
 22 23  2  0
 23 24  1  0
 23 25  1  0
 25 26  2  0
 27 28  2  0
 27 34  1  0
 28 29  1  0
 29 30  2  0
 30 31  1  0
 30 33  1  0
 31 32  1  0
 33 34  1  0
 34 35  2  0
M  CHG  1  18   1
M  END
