
     RDKit          3D

 35 37  0  0  0  0  0  0  0  0999 V2000
   -5.9150   -3.1020   -0.4230 C   0  0  0  0  0  0  0  0  0  0  0  0
   -5.6680   -1.7170   -0.4990 O   0  0  0  0  0  0  0  0  0  0  0  0
   -6.7070   -0.8340   -0.2870 C   0  0  0  0  0  0  0  0  0  0  0  0
   -7.9590   -1.3370   -0.0060 C   0  0  0  0  0  0  0  0  0  0  0  0
   -9.0370   -0.5010    0.2160 C   0  0  0  0  0  0  0  0  0  0  0  0
   -8.8700    0.8530    0.1570 C   0  0  0  0  0  0  0  0  0  0  0  0
   -9.8990    1.7630    0.3660 O   0  0  0  0  0  0  0  0  0  0  0  0
   -7.6210    1.3600   -0.1240 C   0  0  0  0  0  0  0  0  0  0  0  0
   -6.5320    0.5440   -0.3470 C   0  0  0  0  0  0  0  0  0  0  0  0
   -5.1750    1.0440   -0.6460 C   0  0  1  0  0  0  0  0  0  0  0  0
   -5.1610    2.5420   -0.8660 C   0  0  0  0  0  0  0  0  0  0  0  0
   -4.3420    0.7820    0.5310 N   0  0  0  0  0  0  0  0  0  0  0  0
   -3.1880    0.0270    0.1560 C   0  0  0  0  0  0  0  0  0  0  0  0
   -1.9310    0.7210    0.6040 C   0  0  1  0  0  0  0  0  0  0  0  0
   -1.7730    2.0840   -0.0690 C   0  0  0  0  0  0  0  0  0  0  0  0
   -1.8820    0.9160    1.9870 O   0  0  0  0  0  0  0  0  0  0  0  0
   -0.7560   -0.1120    0.1680 C   0  0  0  0  0  0  0  0  0  0  0  0
    0.1230    0.3390   -0.7720 C   0  0  0  0  0  0  0  0  0  0  0  0
    1.2180   -0.4260   -1.2340 C   0  0  0  0  0  0  0  0  0  0  0  0
    2.0450    0.1070   -2.1840 O   0  0  0  0  0  0  0  0  0  0  0  0
    3.1710   -0.4830   -2.7090 C   0  0  0  0  0  0  0  0  0  0  0  0
    4.2520   -0.6260   -1.6730 C   0  0  0  0  0  0  0  0  0  0  0  0
    4.5890    0.7910   -1.2160 C   0  0  0  0  0  0  0  0  0  0  0  0
    5.6640    0.8190   -0.1730 C   0  0  0  0  0  0  0  0  0  0  0  0
    6.9410    0.2000   -0.7070 C   0  0  0  0  0  0  0  0  0  0  0  0
    8.0010    0.2160    0.2700 N   0  0  0  0  0  0  0  0  0  0  0  0
    8.2880   -0.8240    1.2490 C   0  0  0  0  0  0  0  0  0  0  0  0
    9.8200   -0.8510    1.1820 C   0  0  0  0  0  0  0  0  0  0  0  0
   10.1220    0.6460    1.2680 C   0  0  0  0  0  0  0  0  0  0  0  0
    8.9840    1.2140    0.5020 C   0  0  0  0  0  0  0  0  0  0  0  0
    8.9190    2.4050    0.1240 O   0  0  0  0  0  0  0  0  0  0  0  0
    1.3500   -1.6730   -0.6730 C   0  0  0  0  0  0  0  0  0  0  0  0
    0.4480   -2.1350    0.2930 C   0  0  0  0  0  0  0  0  0  0  0  0
   -0.6110   -1.3680    0.7270 C   0  0  0  0  0  0  0  0  0  0  0  0
   -1.4900   -1.8920    1.7320 N   0  0  0  0  0  0  0  0  0  0  0  0
  1  2  1  0
  2  3  1  0
  3  4  2  0
  3  9  1  0
  4  5  1  0
  5  6  2  0
  6  7  1  0
  6  8  1  0
  8  9  2  0
  9 10  1  0
 10 11  1  1
 10 12  1  0
 12 13  1  0
 13 14  1  0
 14 15  1  6
 14 16  1  0
 14 17  1  0
 17 18  2  0
 17 34  1  0
 18 19  1  0
 19 20  1  0
 19 32  2  0
 20 21  1  0
 21 22  1  0
 22 23  1  0
 23 24  1  0
 24 25  1  0
 25 26  1  0
 26 27  1  0
 26 30  1  0
 27 28  1  0
 28 29  1  0
 29 30  1  0
 30 31  2  0
 32 33  1  0
 33 34  2  0
 34 35  1  0
M  CHG  1  12   1
M  END
