
     RDKit          3D

 35 37  0  0  0  0  0  0  0  0999 V2000
   -4.4740   -1.2040   -0.4170 C   0  0  0  0  0  0  0  0  0  0  0  0
   -3.2930   -1.3840   -0.9210 O   0  0  0  0  0  0  0  0  0  0  0  0
   -2.3200   -1.9510   -1.5440 C   0  0  0  0  0  0  0  0  0  0  0  0
   -2.3650   -3.3080   -1.6500 C   0  0  0  0  0  0  0  0  0  0  0  0
   -1.2880   -3.9320   -2.3290 N   0  0  0  0  0  0  0  0  0  0  0  0
   -3.4720   -4.0950   -1.1070 C   0  0  0  0  0  0  0  0  0  0  0  0
   -3.3340   -5.3580   -1.3030 O   0  0  0  0  0  0  0  0  0  0  0  0
   -1.1440   -1.3130   -2.1810 C   0  0  1  0  0  0  0  0  0  0  0  0
   -1.4070   -1.2420   -3.6000 N   0  0  0  0  0  0  0  0  0  0  0  0
   -0.6980    0.0210   -1.6250 C   0  0  2  0  0  0  0  0  0  0  0  0
   -1.7750    1.0780   -1.6930 C   0  0  0  0  0  0  0  0  0  0  0  0
   -1.2630    2.4200   -1.1630 C   0  0  0  0  0  0  0  0  0  0  0  0
   -2.3450    3.4830   -1.2020 C   0  0  0  0  0  0  0  0  0  0  0  0
   -3.4990    3.1390   -0.3400 C   0  0  0  0  0  0  0  0  0  0  0  0
   -4.7370    2.9550   -0.6760 C   0  0  0  0  0  0  0  0  0  0  0  0
   -5.5760    2.6280    0.4890 C   0  0  0  0  0  0  0  0  0  0  0  0
   -4.5950    2.6520    1.5960 C   0  0  0  0  0  0  0  0  0  0  0  0
   -3.4070    2.9420    1.1310 C   0  0  0  0  0  0  0  0  0  0  0  0
    0.4520    0.5630   -2.4340 C   0  0  0  0  0  0  0  0  0  0  0  0
    1.7200    0.8730   -1.7950 C   0  0  0  0  0  0  0  0  0  0  0  0
    1.7750    0.8630   -0.2990 C   0  0  0  0  0  0  0  0  0  0  0  0
    0.9830   -0.2540    0.1510 N   0  0  0  0  0  0  0  0  0  0  0  0
    1.5710   -1.3450    0.8430 C   0  0  0  0  0  0  0  0  0  0  0  0
    0.9070   -2.3120    1.2820 O   0  0  0  0  0  0  0  0  0  0  0  0
    3.0540   -1.2940    1.0310 C   0  0  0  0  0  0  0  0  0  0  0  0
    3.4120   -2.4300    1.7660 O   0  0  0  0  0  0  0  0  0  0  0  0
    4.7930   -2.4750    1.9450 C   0  0  0  0  0  0  0  0  0  0  0  0
    5.2030   -1.2220    2.6210 C   0  0  0  0  0  0  0  0  0  0  0  0
    4.7460   -0.8770    3.8650 C   0  0  0  0  0  0  0  0  0  0  0  0
    5.1690    0.2990    4.4500 C   0  0  0  0  0  0  0  0  0  0  0  0
    6.0430    1.1380    3.8090 C   0  0  0  0  0  0  0  0  0  0  0  0
    6.4740    2.3250    4.3920 O   0  0  0  0  0  0  0  0  0  0  0  0
    6.4900    0.7690    2.5550 C   0  0  0  0  0  0  0  0  0  0  0  0
    6.0870   -0.3820    1.9640 C   0  0  0  0  0  0  0  0  0  0  0  0
   -0.4160   -0.1950   -0.1600 C   0  0  0  0  0  0  0  0  0  0  0  0
  1  2  1  0
  2  3  1  0
  3  4  2  3
  3  8  1  0
  4  5  1  0
  4  6  1  0
  6  7  2  0
  8  9  1  6
  8 10  1  0
 10 11  1  1
 10 19  1  0
 10 35  1  0
 11 12  1  0
 12 13  1  0
 13 14  1  0
 14 15  2  0
 14 18  1  0
 15 16  1  0
 16 17  1  0
 17 18  2  0
 19 20  1  0
 20 21  1  0
 21 22  1  0
 22 23  1  0
 22 35  1  0
 23 24  2  0
 23 25  1  0
 25 26  1  0
 26 27  1  0
 27 28  1  0
 28 29  2  0
 28 34  1  0
 29 30  1  0
 30 31  2  0
 31 32  1  0
 31 33  1  0
 33 34  2  0
M  CHG  1   9   1
M  END
