
     RDKit          3D

 35 37  0  0  0  0  0  0  0  0999 V2000
   -2.0890    1.8610   -2.0330 C   0  0  0  0  0  0  0  0  0  0  0  0
   -1.7960    0.6220   -1.4420 O   0  0  0  0  0  0  0  0  0  0  0  0
   -2.8380   -0.1230   -0.8980 C   0  0  0  0  0  0  0  0  0  0  0  0
   -4.1430    0.3700   -0.9530 C   0  0  0  0  0  0  0  0  0  0  0  0
   -5.2270   -0.3470   -0.4130 C   0  0  0  0  0  0  0  0  0  0  0  0
   -4.9740   -1.5520    0.1730 C   0  0  0  0  0  0  0  0  0  0  0  0
   -3.6930   -2.0280    0.2230 C   0  0  0  0  0  0  0  0  0  0  0  0
   -2.5720   -1.3350   -0.3100 C   0  0  0  0  0  0  0  0  0  0  0  0
   -1.3500   -1.9250   -0.1880 O   0  0  0  0  0  0  0  0  0  0  0  0
   -0.1420   -1.4810   -0.6840 C   0  0  1  0  0  0  0  0  0  0  0  0
    0.6630   -0.7930    0.4330 C   0  0  0  0  0  0  0  0  0  0  0  0
    0.6660   -2.6560   -1.1110 C   0  0  0  0  0  0  0  0  0  0  0  0
    0.2160   -3.8050   -0.7980 O   0  0  0  0  0  0  0  0  0  0  0  0
    1.8740   -2.5390   -1.8380 N   0  0  0  0  0  0  0  0  0  0  0  0
    2.5710   -3.7810   -2.2390 C   0  0  0  0  0  0  0  0  0  0  0  0
    2.4120   -1.2650   -2.1950 C   0  0  0  0  0  0  0  0  0  0  0  0
    3.4480   -0.8360   -1.2300 C   0  0  0  0  0  0  0  0  0  0  0  0
    3.8840    0.4760   -1.2110 C   0  0  0  0  0  0  0  0  0  0  0  0
    4.8570    0.8640   -0.3280 C   0  0  0  0  0  0  0  0  0  0  0  0
    5.4240   -0.0250    0.5570 C   0  0  0  0  0  0  0  0  0  0  0  0
    6.4240    0.3800    1.4620 O   0  0  0  0  0  0  0  0  0  0  0  0
    6.8250    1.7340    1.4290 C   0  0  0  0  0  0  0  0  0  0  0  0
    7.8990    2.0110    2.4490 C   0  0  0  0  0  0  0  0  0  0  0  0
    9.0920    1.1220    2.1250 C   0  0  0  0  0  0  0  0  0  0  0  0
   10.1230    1.3900    3.1080 N   0  0  0  0  0  0  0  0  0  0  0  0
    4.9780   -1.3250    0.5240 C   0  0  0  0  0  0  0  0  0  0  0  0
    5.5150   -2.2670    1.3950 O   0  0  0  0  0  0  0  0  0  0  0  0
    3.9980   -1.7280   -0.3620 C   0  0  0  0  0  0  0  0  0  0  0  0
   -6.1260   -2.3200    0.7320 C   0  0  0  0  0  0  0  0  0  0  0  0
   -6.9180   -1.2800    1.5100 C   0  0  0  0  0  0  0  0  0  0  0  0
   -7.4380   -0.1990    0.6490 C   0  0  0  0  0  0  0  0  0  0  0  0
   -6.5900    0.1870   -0.4930 C   0  0  1  0  0  0  0  0  0  0  0  0
   -6.5970    1.6950   -0.7110 C   0  0  0  0  0  0  0  0  0  0  0  0
   -5.9450    2.4750    0.3700 C   0  0  0  0  0  0  0  0  0  0  0  0
   -6.0390    3.8910   -0.0240 N   0  0  0  0  0  0  0  0  0  0  0  0
  1  2  1  0
  2  3  1  0
  3  4  2  0
  3  8  1  0
  4  5  1  0
  5  6  2  0
  5 32  1  0
  6  7  1  0
  6 29  1  0
  7  8  2  0
  8  9  1  0
  9 10  1  0
 10 11  1  1
 10 12  1  0
 12 13  2  0
 12 14  1  0
 14 15  1  0
 14 16  1  0
 16 17  1  0
 17 18  2  0
 17 28  1  0
 18 19  1  0
 19 20  2  0
 20 21  1  0
 20 26  1  0
 21 22  1  0
 22 23  1  0
 23 24  1  0
 24 25  1  0
 26 27  1  0
 26 28  2  0
 29 30  1  0
 30 31  1  0
 31 32  1  0
 32 33  1  1
 33 34  1  0
 34 35  1  0
M  CHG  1  35   1
M  END
