
     RDKit          3D

 25 25  0  0  0  0  0  0  0  0999 V2000
   -2.6230    0.9960    2.5780 C   0  0  0  0  0  0  0  0  0  0  0  0
   -2.5990    2.1040    1.5660 C   0  0  0  0  0  0  0  0  0  0  0  0
   -2.5740    1.8200    0.2640 C   0  0  0  0  0  0  0  0  0  0  0  0
   -2.5520    2.9440   -0.6800 C   0  0  0  0  0  0  0  0  0  0  0  0
   -2.5330    2.8000   -1.9920 C   0  0  0  0  0  0  0  0  0  0  0  0
   -2.5350    1.5590   -2.5970 O   0  0  0  0  0  0  0  0  0  0  0  0
   -2.5670    0.5480   -0.2050 O   0  0  0  0  0  0  0  0  0  0  0  0
   -1.6120   -0.4620   -0.1670 C   0  0  1  0  0  0  0  0  0  0  0  0
   -2.2990   -1.6580   -0.8690 C   0  0  0  0  0  0  0  0  0  0  0  0
   -1.3850   -2.7880   -0.8910 N   0  0  0  0  0  0  0  0  0  0  0  0
   -1.7760   -4.0090   -1.4800 C   0  0  0  0  0  0  0  0  0  0  0  0
   -0.9400   -5.1550   -1.5390 N   0  0  0  0  0  0  0  0  0  0  0  0
   -2.9480   -4.0550   -1.9780 O   0  0  0  0  0  0  0  0  0  0  0  0
   -0.3800   -0.1630   -0.9360 C   0  0  0  0  0  0  0  0  0  0  0  0
   -0.1620   -0.6150   -2.2370 C   0  0  0  0  0  0  0  0  0  0  0  0
    1.0410   -0.1320   -2.5840 N   0  0  0  0  0  0  0  0  0  0  0  0
    1.5210    0.5490   -1.6060 O   0  0  0  0  0  0  0  0  0  0  0  0
    0.7150    0.5750   -0.5710 C   0  0  0  0  0  0  0  0  0  0  0  0
    0.9430    1.2630    0.7160 C   0  0  0  0  0  0  0  0  0  0  0  0
    2.1260    1.8540    0.8900 O   0  0  0  0  0  0  0  0  0  0  0  0
    3.2180    1.1290    1.1360 C   0  0  0  0  0  0  0  0  0  0  0  0
    3.7130    0.0980    0.1990 C   0  0  0  0  0  0  0  0  0  0  0  0
    5.2830   -0.6210    1.0020 P   0  0  0  0  0  0  0  0  0  0  0  0
    6.6420    0.2020    0.3070 O   0  0  0  0  0  0  0  0  0  0  0  0
    5.2000   -0.3830    2.7120 O   0  0  0  0  0  0  0  0  0  0  0  0
  1  2  1  0
  2  3  2  3
  3  4  1  0
  3  7  1  0
  4  5  2  3
  5  6  1  0
  7  8  1  0
  8  9  1  6
  8 14  1  0
  9 10  1  0
 10 11  1  0
 11 12  1  0
 11 13  2  0
 14 15  1  0
 14 18  2  0
 15 16  2  0
 16 17  1  0
 17 18  1  0
 18 19  1  0
 19 20  1  0
 20 21  1  0
 21 22  1  0
 22 23  1  0
 23 24  1  0
 23 25  1  0
M  END
