
     RDKit          3D

 20 20  0  0  0  0  0  0  0  0999 V2000
    1.9360   -1.7270   -0.7730 C   0  0  0  0  0  0  0  0  0  0  0  0
    1.5510   -1.0900    0.5310 C   0  0  1  0  0  0  0  0  0  0  0  0
    2.5250   -0.1810    1.1600 C   0  0  0  0  0  0  0  0  0  0  0  0
    2.8110    1.0890    0.6420 N   0  0  0  0  0  0  0  0  0  0  0  0
    3.4140    1.3280   -0.6150 C   0  0  0  0  0  0  0  0  0  0  0  0
    3.7620    0.4360   -1.3990 O   0  0  0  0  0  0  0  0  0  0  0  0
    3.6480    2.6490   -1.0330 O   0  0  0  0  0  0  0  0  0  0  0  0
    0.2390   -0.6270    0.4810 O   0  0  0  0  0  0  0  0  0  0  0  0
   -0.2430    0.2700   -0.4250 C   0  0  0  0  0  0  0  0  0  0  0  0
    0.4460    0.7720   -1.3230 O   0  0  0  0  0  0  0  0  0  0  0  0
   -1.6140    0.6380   -0.3160 N   0  0  0  0  0  0  0  0  0  0  0  0
   -2.4530    0.0770    0.7170 C   0  0  0  0  0  0  0  0  0  0  0  0
   -3.8120   -0.1860    0.0990 C   0  0  0  0  0  0  0  0  0  0  0  0
   -4.3980    1.1380   -0.3110 C   0  0  0  0  0  0  0  0  0  0  0  0
   -3.5710    1.6980   -1.3760 N   0  0  0  0  0  0  0  0  0  0  0  0
   -2.1460    1.5660   -1.2400 C   0  0  0  0  0  0  0  0  0  0  0  0
   -1.4050    2.2980   -1.9640 O   0  0  0  0  0  0  0  0  0  0  0  0
    1.4930   -2.2900    1.5110 C   0  0  0  0  0  0  0  0  0  0  0  0
    0.4320   -2.6130    2.0340 O   0  0  0  0  0  0  0  0  0  0  0  0
    2.6650   -2.9660    1.7640 O   0  0  0  0  0  0  0  0  0  0  0  0
  2  1  1  6
  2  3  1  0
  2  8  1  0
  2 18  1  0
  3  4  1  0
  4  5  1  0
  5  6  2  0
  5  7  1  0
  8  9  1  0
  9 10  2  0
  9 11  1  0
 11 12  1  0
 11 16  1  0
 12 13  1  0
 13 14  1  0
 14 15  1  0
 15 16  1  0
 16 17  2  0
 18 19  2  0
 18 20  1  0
M  END
