
     RDKit          3D

 25 25  0  0  0  0  0  0  0  0999 V2000
    1.7430    1.1740   -1.1470 C   0  0  0  0  0  0  0  0  0  0  0  0
    2.3010    0.6090    0.0550 N   0  0  0  0  0  0  0  0  0  0  0  0
    3.6550    0.7230    0.4750 C   0  0  0  0  0  0  0  0  0  0  0  0
    4.5930   -0.3550    0.0840 C   0  0  2  0  0  0  0  0  0  0  0  0
    5.9670    0.0270    0.6930 C   0  0  0  0  0  0  0  0  0  0  0  0
    6.5450    1.6440    0.0480 P   0  0  0  0  0  0  0  0  0  0  0  0
    6.1240    2.9730    1.0440 O   0  0  0  0  0  0  0  0  0  0  0  0
    8.2150    1.6240   -0.3920 O   0  0  0  0  0  0  0  0  0  0  0  0
    4.7220   -0.5130   -1.3690 C   0  0  0  0  0  0  0  0  0  0  0  0
    4.2070    0.1960   -2.2570 O   0  0  0  0  0  0  0  0  0  0  0  0
    5.5130   -1.5780   -1.8680 O   0  0  0  0  0  0  0  0  0  0  0  0
    1.4180   -0.1160    0.9350 C   0  0  0  0  0  0  0  0  0  0  0  0
    1.8270   -0.6340    1.9930 O   0  0  0  0  0  0  0  0  0  0  0  0
    0.1020   -0.2370    0.5950 O   0  0  0  0  0  0  0  0  0  0  0  0
   -0.8680   -0.9180    1.3630 C   0  0  0  0  0  0  0  0  0  0  0  0
   -2.1670   -0.8120    0.6410 C   0  0  0  0  0  0  0  0  0  0  0  0
   -3.3070   -1.3850    1.1530 C   0  0  0  0  0  0  0  0  0  0  0  0
   -4.5170   -1.2970    0.5010 C   0  0  0  0  0  0  0  0  0  0  0  0
   -4.6150   -0.6240   -0.6950 C   0  0  0  0  0  0  0  0  0  0  0  0
   -5.8200   -0.4730   -1.4230 N   0  0  0  0  0  0  0  0  0  0  0  0
   -7.0750   -0.7840   -0.7900 C   0  0  0  0  0  0  0  0  0  0  0  0
   -7.3670    0.2230    0.2780 C   0  0  0  0  0  0  0  0  0  0  0  0
   -7.4330    1.4930   -0.3440 O   0  0  0  0  0  0  0  0  0  0  0  0
   -3.4250   -0.0610   -1.1700 C   0  0  0  0  0  0  0  0  0  0  0  0
   -2.2570   -0.1550   -0.5250 N   0  0  0  0  0  0  0  0  0  0  0  0
  1  2  1  0
  2  3  1  0
  2 12  1  0
  4  3  1  6
  4  5  1  0
  4  9  1  0
  5  6  1  0
  6  7  1  0
  6  8  1  0
  9 10  2  0
  9 11  1  0
 12 13  2  0
 12 14  1  0
 14 15  1  0
 15 16  1  0
 16 17  2  0
 16 25  1  0
 17 18  1  0
 18 19  2  0
 19 20  1  0
 19 24  1  0
 20 21  1  0
 21 22  1  0
 22 23  1  0
 24 25  2  0
M  END
