
     RDKit          3D

 25 25  0  0  0  0  0  0  0  0999 V2000
   -4.9140    3.1080    1.1180 C   0  0  0  0  0  0  0  0  0  0  0  0
   -5.7330    1.9390    0.7540 C   0  0  0  0  0  0  0  0  0  0  0  0
   -5.1440    0.7980    0.3480 C   0  0  0  0  0  0  0  0  0  0  0  0
   -5.9550   -0.2810    0.0130 O   0  0  0  0  0  0  0  0  0  0  0  0
   -3.7170    0.7320    0.2740 C   0  0  0  0  0  0  0  0  0  0  0  0
   -2.9500   -0.2720   -0.0930 C   0  0  0  0  0  0  0  0  0  0  0  0
   -1.5090   -0.1210   -0.0940 N   0  0  0  0  0  0  0  0  0  0  0  0
   -0.7000   -1.0440   -0.4340 C   0  0  0  0  0  0  0  0  0  0  0  0
    0.7580   -0.8320   -0.4160 C   0  0  0  0  0  0  0  0  0  0  0  0
    1.5480   -1.7210   -0.7440 O   0  0  0  0  0  0  0  0  0  0  0  0
    1.2790    0.4300   -0.0100 N   0  0  0  0  0  0  0  0  0  0  0  0
    2.6790    0.6720    0.0240 C   0  0  0  0  0  0  0  0  0  0  0  0
    3.4750   -0.2030    0.9390 C   0  0  0  0  0  0  0  0  0  0  0  0
    4.9510    0.1270    0.9110 C   0  0  0  0  0  0  0  0  0  0  0  0
    5.2460    1.5300    1.3250 C   0  0  0  0  0  0  0  0  0  0  0  0
    7.1110    1.7430    1.2270 P   0  0  0  0  0  0  0  0  0  0  0  0
    7.8600    0.3860    0.4860 O   0  0  0  0  0  0  0  0  0  0  0  0
    7.5000    3.1730    0.3500 O   0  0  0  0  0  0  0  0  0  0  0  0
   -1.2270   -2.3340   -0.8500 C   0  0  0  0  0  0  0  0  0  0  0  0
   -2.5210   -2.5880   -0.8890 C   0  0  0  0  0  0  0  0  0  0  0  0
   -3.0120   -3.8330   -1.2900 O   0  0  0  0  0  0  0  0  0  0  0  0
   -3.2920   -4.0490   -2.6320 C   0  0  0  0  0  0  0  0  0  0  0  0
   -3.0970   -3.1150   -3.4710 O   0  0  0  0  0  0  0  0  0  0  0  0
   -3.7790   -5.2390   -3.1300 O   0  0  0  0  0  0  0  0  0  0  0  0
   -3.4240   -1.5270   -0.4980 N   0  0  0  0  0  0  0  0  0  0  0  0
  1  2  1  0
  2  3  2  3
  3  4  1  0
  3  5  1  0
  5  6  2  3
  6  7  1  0
  6 25  1  0
  7  8  2  0
  8  9  1  0
  8 19  1  0
  9 10  2  0
  9 11  1  0
 11 12  1  0
 12 13  1  0
 13 14  1  0
 14 15  1  0
 15 16  1  0
 16 17  1  0
 16 18  1  0
 19 20  2  0
 20 21  1  0
 20 25  1  0
 21 22  1  0
 22 23  2  0
 22 24  1  0
M  END
