
     RDKit          3D

 25 25  0  0  0  0  0  0  0  0999 V2000
   -4.5720    0.8620    0.6710 C   0  0  0  0  0  0  0  0  0  0  0  0
   -3.2940    0.1280    0.7380 C   0  0  0  0  0  0  0  0  0  0  0  0
   -3.3380   -1.0690    1.0400 O   0  0  0  0  0  0  0  0  0  0  0  0
   -2.0490    0.8060    0.4570 C   0  0  0  0  0  0  0  0  0  0  0  0
   -2.1520    2.1590    0.2010 N   0  0  0  0  0  0  0  0  0  0  0  0
   -1.0810    2.9320   -0.0120 C   0  0  0  0  0  0  0  0  0  0  0  0
   -1.2410    4.2070   -0.2500 N   0  0  0  0  0  0  0  0  0  0  0  0
   -2.5740    4.7730   -0.2820 C   0  0  0  0  0  0  0  0  0  0  0  0
   -2.5020    6.1410   -0.5480 O   0  0  0  0  0  0  0  0  0  0  0  0
    0.1790    2.3730    0.0220 C   0  0  0  0  0  0  0  0  0  0  0  0
    0.3070    1.0260    0.2740 C   0  0  0  0  0  0  0  0  0  0  0  0
    1.5510    0.4120    0.3200 O   0  0  0  0  0  0  0  0  0  0  0  0
    2.7580    1.0950    0.1180 C   0  0  0  0  0  0  0  0  0  0  0  0
    3.9500    0.1710    0.2270 C   0  0  0  0  0  0  0  0  0  0  0  0
    3.8810   -0.9400   -0.8050 C   0  0  0  0  0  0  0  0  0  0  0  0
    5.3440   -2.0690   -0.6670 P   0  0  0  0  0  0  0  0  0  0  0  0
    6.5640   -1.6650   -1.8290 O   0  0  0  0  0  0  0  0  0  0  0  0
    5.9970   -2.0360    0.9510 O   0  0  0  0  0  0  0  0  0  0  0  0
   -0.8170    0.2140    0.4950 C   0  0  0  0  0  0  0  0  0  0  0  0
   -0.6310   -1.2010    0.6260 C   0  0  0  0  0  0  0  0  0  0  0  0
    0.2350   -1.5800    1.4950 O   0  0  0  0  0  0  0  0  0  0  0  0
   -1.2800   -2.2210   -0.0920 N   0  0  0  0  0  0  0  0  0  0  0  0
   -0.9680   -3.6210    0.1870 C   0  0  0  0  0  0  0  0  0  0  0  0
   -1.8020   -4.5230   -0.7230 C   0  0  0  0  0  0  0  0  0  0  0  0
   -1.5270   -5.8480   -0.4800 O   0  0  0  0  0  0  0  0  0  0  0  0
  1  2  1  0
  2  3  2  0
  2  4  1  0
  4  5  1  0
  4 19  2  0
  5  6  1  0
  6  7  2  3
  6 10  1  0
  7  8  1  0
  8  9  1  0
 10 11  2  0
 11 12  1  0
 11 19  1  0
 12 13  1  0
 13 14  1  0
 14 15  1  0
 15 16  1  0
 16 17  1  0
 16 18  1  0
 19 20  1  0
 20 21  2  0
 20 22  1  0
 22 23  1  0
 23 24  1  0
 24 25  1  0
M  END
