
     RDKit          3D

 25 25  0  0  0  0  0  0  0  0999 V2000
   -2.7230   -4.1420   -0.4920 C   0  0  0  0  0  0  0  0  0  0  0  0
   -2.4050   -3.1400    0.3080 C   0  0  0  0  0  0  0  0  0  0  0  0
   -2.4750   -3.3760    1.7730 C   0  0  0  0  0  0  0  0  0  0  0  0
   -1.2460   -3.1880    2.3900 O   0  0  0  0  0  0  0  0  0  0  0  0
   -2.0010   -1.8570   -0.2080 C   0  0  0  0  0  0  0  0  0  0  0  0
   -1.9550   -1.7000   -1.4750 O   0  0  0  0  0  0  0  0  0  0  0  0
   -1.6500   -0.7500    0.5990 N   0  0  0  0  0  0  0  0  0  0  0  0
   -1.2510    0.5180   -0.0720 C   0  0  1  0  0  0  0  0  0  0  0  0
   -2.3180    0.8830   -0.7780 O   0  0  0  0  0  0  0  0  0  0  0  0
   -2.4320    1.9170   -1.5930 C   0  0  0  0  0  0  0  0  0  0  0  0
   -2.2460    3.3080   -1.0990 C   0  0  0  0  0  0  0  0  0  0  0  0
   -2.5090    4.5500   -2.4980 P   0  0  0  0  0  0  0  0  0  0  0  0
   -3.8720    4.1160   -3.4580 O   0  0  0  0  0  0  0  0  0  0  0  0
   -2.6480    6.1480   -1.8410 O   0  0  0  0  0  0  0  0  0  0  0  0
   -0.9520    1.4580    1.0950 C   0  0  0  0  0  0  0  0  0  0  0  0
    0.4790    1.9640    1.0560 C   0  0  0  0  0  0  0  0  0  0  0  0
    1.3570    0.7150    1.2500 C   0  0  0  0  0  0  0  0  0  0  0  0
    1.2030   -0.0040   -0.0670 C   0  0  0  0  0  0  0  0  0  0  0  0
    2.1770   -0.7320   -0.4540 N   0  0  0  0  0  0  0  0  0  0  0  0
    3.3190   -0.8710    0.2740 O   0  0  0  0  0  0  0  0  0  0  0  0
    4.5020   -1.4480   -0.2070 C   0  0  0  0  0  0  0  0  0  0  0  0
    5.5840   -1.4480    0.8560 C   0  0  0  0  0  0  0  0  0  0  0  0
    6.8040   -2.0340    0.3870 N   0  0  0  0  0  0  0  0  0  0  0  0
   -0.0320    0.1830   -0.7960 C   0  0  0  0  0  0  0  0  0  0  0  0
   -0.0150    0.0500   -2.0300 O   0  0  0  0  0  0  0  0  0  0  0  0
  1  2  2  0
  2  3  1  0
  2  5  1  0
  3  4  1  0
  5  6  2  0
  5  7  1  0
  8  7  1  1
  8  9  1  0
  8 15  1  0
  8 24  1  0
  9 10  1  0
 10 11  1  0
 11 12  1  0
 12 13  1  0
 12 14  1  0
 15 16  1  0
 16 17  1  0
 17 18  1  0
 18 19  2  3
 18 24  1  0
 19 20  1  0
 20 21  1  0
 21 22  1  0
 22 23  1  0
 24 25  2  0
M  END
