
     RDKit          3D

 32 35  0  0  0  0  0  0  0  0999 V2000
    3.9260    5.1670   -1.9730 C   0  0  0  0  0  0  0  0  0  0  0  0
    4.8860    4.7810   -0.8870 C   0  0  0  0  0  0  0  0  0  0  0  0
    4.6560    3.4600   -0.4990 O   0  0  0  0  0  0  0  0  0  0  0  0
    3.4750    2.9800    0.0140 C   0  0  0  0  0  0  0  0  0  0  0  0
    2.5170    3.7760    0.1500 O   0  0  0  0  0  0  0  0  0  0  0  0
    3.2990    1.5620    0.4080 C   0  0  0  0  0  0  0  0  0  0  0  0
    4.1970    0.5510    0.3470 C   0  0  0  0  0  0  0  0  0  0  0  0
    3.6130   -0.6320    0.8250 C   0  0  0  0  0  0  0  0  0  0  0  0
    4.3020   -1.9480    0.9000 C   0  0  0  0  0  0  0  0  0  0  0  0
    3.9410   -2.8940   -0.1940 C   0  0  0  0  0  0  0  0  0  0  0  0
    4.6950   -4.1880   -0.0230 C   0  0  0  0  0  0  0  0  0  0  0  0
    5.4900   -4.3470    0.9380 O   0  0  0  0  0  0  0  0  0  0  0  0
    4.5370   -5.2350   -0.9130 O   0  0  0  0  0  0  0  0  0  0  0  0
    5.2370   -6.4570   -0.7690 C   0  0  0  0  0  0  0  0  0  0  0  0
    2.3310   -0.2660    1.1680 C   0  0  0  0  0  0  0  0  0  0  0  0
    1.3210   -1.1950    1.7470 C   0  0  0  0  0  0  0  0  0  0  0  0
   -0.0560   -0.5450    1.8420 C   0  0  0  0  0  0  0  0  0  0  0  0
   -0.5640   -0.1630    0.5680 N   0  0  0  0  0  0  0  0  0  0  0  0
   -1.6270   -0.9920    0.0680 C   0  0  1  0  0  0  0  0  0  0  0  0
   -1.9410   -2.2010    0.8740 C   0  0  0  0  0  0  0  0  0  0  0  0
   -2.9110   -1.7440    1.7820 O   0  0  0  0  0  0  0  0  0  0  0  0
   -3.6850   -0.7970    1.0750 C   0  0  0  0  0  0  0  0  0  0  0  0
   -4.9660   -0.3190    1.2570 C   0  0  0  0  0  0  0  0  0  0  0  0
   -5.5400    0.6210    0.4370 C   0  0  0  0  0  0  0  0  0  0  0  0
   -4.8080    1.1150   -0.6190 C   0  0  0  0  0  0  0  0  0  0  0  0
   -3.5090    0.6310   -0.8030 C   0  0  0  0  0  0  0  0  0  0  0  0
   -2.9450   -0.3100    0.0230 C   0  0  0  0  0  0  0  0  0  0  0  0
   -5.3760    2.1270   -1.5250 C   0  0  0  0  0  0  0  0  0  0  0  0
   -6.8560    2.1270   -1.6510 C   0  0  0  0  0  0  0  0  0  0  0  0
   -7.5220    1.0700   -0.8190 C   0  0  0  0  0  0  0  0  0  0  0  0
   -6.9140    1.1600    0.5890 C   0  0  0  0  0  0  0  0  0  0  0  0
    2.1600    1.0570    0.9110 N   0  0  0  0  0  0  0  0  0  0  0  0
  1  2  1  0
  2  3  1  0
  3  4  1  0
  4  5  2  0
  4  6  1  0
  6  7  2  0
  6 32  1  0
  7  8  1  0
  8  9  1  0
  8 15  2  0
  9 10  1  0
 10 11  1  0
 11 12  2  0
 11 13  1  0
 13 14  1  0
 15 16  1  0
 15 32  1  0
 16 17  1  0
 17 18  1  0
 19 18  1  1
 19 20  1  0
 19 27  1  0
 20 21  1  0
 21 22  1  0
 22 23  2  0
 22 27  1  0
 23 24  1  0
 24 25  2  0
 24 31  1  0
 25 26  1  0
 25 28  1  0
 26 27  2  0
 28 29  1  0
 29 30  1  0
 30 31  1  0
M  CHG  1  18   1
M  END
