
     RDKit          3D

 33 35  0  0  0  0  0  0  0  0999 V2000
    1.3630    2.1010   -0.7190 O   0  0  0  0  0  0  0  0  0  0  0  0
    0.7570    1.0210   -0.5280 C   0  0  0  0  0  0  0  0  0  0  0  0
    1.3540    0.0090    0.2340 N   0  0  0  0  0  0  0  0  0  0  0  0
    2.6550    0.0760    0.8410 C   0  0  0  0  0  0  0  0  0  0  0  0
    3.7810    0.2040   -0.1280 C   0  0  1  0  0  0  0  0  0  0  0  0
    3.7310    1.3900   -0.8650 O   0  0  0  0  0  0  0  0  0  0  0  0
    5.1220    0.0710    0.4340 C   0  0  0  0  0  0  0  0  0  0  0  0
    5.6950   -1.1700    0.9060 C   0  0  0  0  0  0  0  0  0  0  0  0
    5.2300   -2.3780    0.8700 C   0  0  0  0  0  0  0  0  0  0  0  0
    3.6920   -2.8110    0.1860 Cl  0  0  0  0  0  0  0  0  0  0  0  0
    6.2420   -3.6720    1.5700 Cl  0  0  0  0  0  0  0  0  0  0  0  0
    5.8900    1.1760    0.5980 C   0  0  0  0  0  0  0  0  0  0  0  0
    7.2530    1.1240    1.1570 C   0  0  1  0  0  0  0  0  0  0  0  0
    7.8610    2.3380    0.9490 F   0  0  0  0  0  0  0  0  0  0  0  0
    7.2480    0.8740    2.5150 F   0  0  0  0  0  0  0  0  0  0  0  0
   -0.5830    0.9000   -1.1430 C   0  0  1  0  0  0  0  0  0  0  0  0
   -0.6770   -0.2460   -2.1170 C   0  0  0  0  0  0  0  0  0  0  0  0
   -2.5110   -0.0810   -2.3500 S   0  0  0  0  0  0  0  0  0  0  0  0
   -2.7980    0.3290   -0.6010 C   0  0  0  0  0  0  0  0  0  0  0  0
   -3.9090    0.1720    0.1610 C   0  0  0  0  0  0  0  0  0  0  0  0
   -5.1450   -0.3690   -0.3340 C   0  0  0  0  0  0  0  0  0  0  0  0
   -6.1540   -0.8080    0.5250 C   0  0  0  0  0  0  0  0  0  0  0  0
   -7.3480   -1.2770    0.0400 C   0  0  0  0  0  0  0  0  0  0  0  0
   -7.6300   -1.3460   -1.3060 C   0  0  0  0  0  0  0  0  0  0  0  0
   -8.8050   -1.8070   -1.7910 F   0  0  0  0  0  0  0  0  0  0  0  0
   -6.6520   -0.9190   -2.1730 C   0  0  0  0  0  0  0  0  0  0  0  0
   -5.4350   -0.4410   -1.6600 C   0  0  0  0  0  0  0  0  0  0  0  0
   -3.7780    0.5220    1.4850 N   0  0  0  0  0  0  0  0  0  0  0  0
   -2.6210    0.9920    1.9940 C   0  0  0  0  0  0  0  0  0  0  0  0
   -2.5090    1.3100    3.2040 O   0  0  0  0  0  0  0  0  0  0  0  0
   -1.5280    1.1350    1.1840 C   0  0  0  0  0  0  0  0  0  0  0  0
   -0.4390    1.5710    1.6320 O   0  0  0  0  0  0  0  0  0  0  0  0
   -1.6250    0.7910   -0.1560 N   0  0  0  0  0  0  0  0  0  0  0  0
  1  2  2  0
  2  3  1  0
 16  2  1  1
  3  4  1  0
  4  5  1  0
  5  6  1  1
  5  7  1  0
  7  8  1  0
  7 12  2  3
  8  9  2  3
  9 10  1  0
  9 11  1  0
 12 13  1  0
 13 14  1  1
 13 15  1  0
 16 17  1  0
 16 33  1  0
 17 18  1  0
 18 19  1  0
 19 20  2  0
 19 33  1  0
 20 21  1  0
 20 28  1  0
 21 22  2  0
 21 27  1  0
 22 23  1  0
 23 24  2  0
 24 25  1  0
 24 26  1  0
 26 27  2  0
 28 29  1  0
 29 30  2  0
 29 31  1  0
 31 32  2  0
 31 33  1  0
M  END
