
     RDKit          3D

 33 34  0  0  0  0  0  0  0  0999 V2000
   -6.6690    0.8740   -0.8890 C   0  0  0  0  0  0  0  0  0  0  0  0
   -5.9100   -0.2820   -1.3320 C   0  0  0  0  0  0  0  0  0  0  0  0
   -4.8110   -0.7310   -0.7690 C   0  0  0  0  0  0  0  0  0  0  0  0
   -4.1860   -0.1180    0.4030 C   0  0  0  0  0  0  0  0  0  0  0  0
   -2.8600    0.5120    0.2650 C   0  0  2  0  0  0  0  0  0  0  0  0
   -2.8640    1.6730   -0.7490 C   0  0  0  0  0  0  0  0  0  0  0  0
   -3.9870    2.9180   -0.1500 S   0  0  0  0  0  0  0  0  0  0  0  0
   -3.5090    3.5520    1.4520 C   0  0  0  0  0  0  0  0  0  0  0  0
   -4.0570    4.0550   -1.1480 O   0  0  0  0  0  0  0  0  0  0  0  0
   -1.7410   -0.1980    0.0300 O   0  0  0  0  0  0  0  0  0  0  0  0
   -0.7390   -0.0300    0.9880 C   0  0  1  0  0  0  0  0  0  0  0  0
   -0.4700   -1.3820    1.6090 C   0  0  0  0  0  0  0  0  0  0  0  0
    0.3640   -2.0180    0.4880 C   0  0  0  0  0  0  0  0  0  0  0  0
    1.3310   -0.9600    0.2740 N   0  0  0  0  0  0  0  0  0  0  0  0
    2.7170   -1.1500    0.0460 C   0  0  0  0  0  0  0  0  0  0  0  0
    3.1810   -2.3160    0.0200 O   0  0  0  0  0  0  0  0  0  0  0  0
    3.6270   -0.0880   -0.1590 N   0  0  0  0  0  0  0  0  0  0  0  0
    5.0100   -0.2630   -0.3870 C   0  0  0  0  0  0  0  0  0  0  0  0
    5.9300    0.2460    0.4140 C   0  0  0  0  0  0  0  0  0  0  0  0
    7.3710    0.0870    0.2130 C   0  0  0  0  0  0  0  0  0  0  0  0
    8.2220    0.2220    1.2150 C   0  0  0  0  0  0  0  0  0  0  0  0
    7.8320    0.5110    2.4710 F   0  0  0  0  0  0  0  0  0  0  0  0
    9.5370    0.0630    0.9650 F   0  0  0  0  0  0  0  0  0  0  0  0
    7.8360   -0.2320   -1.1650 C   0  0  1  0  0  0  0  0  0  0  0  0
    9.4870   -0.8860   -1.1680 Cl  0  0  0  0  0  0  0  0  0  0  0  0
    6.9110   -1.1790   -1.7400 N   0  0  0  0  0  0  0  0  0  0  0  0
    5.5140   -1.0280   -1.5440 C   0  0  0  0  0  0  0  0  0  0  0  0
    4.6530   -1.5190   -2.3140 O   0  0  0  0  0  0  0  0  0  0  0  0
    0.5920    0.2930    0.3430 C   0  0  0  0  0  0  0  0  0  0  0  0
   -4.2640   -1.9490   -1.3730 C   0  0  0  0  0  0  0  0  0  0  0  0
   -5.1220   -2.5860   -2.8240 Cl  0  0  0  0  0  0  0  0  0  0  0  0
   -3.2340   -2.6230   -0.9890 C   0  0  0  0  0  0  0  0  0  0  0  0
   -2.8600   -3.7480   -1.6880 F   0  0  0  0  0  0  0  0  0  0  0  0
  1  2  1  0
  2  3  2  3
  3  4  1  0
  3 30  1  0
  5  4  1  6
  5  6  1  0
  5 10  1  0
  6  7  1  0
  7  8  1  1
  7  9  2  0
 11 10  1  6
 11 12  1  0
 11 29  1  0
 12 13  1  0
 13 14  1  0
 14 15  1  0
 14 29  1  0
 15 16  2  0
 15 17  1  0
 17 18  1  0
 18 19  2  0
 18 27  1  0
 19 20  1  0
 20 21  2  3
 20 24  1  0
 21 22  1  0
 21 23  1  0
 24 25  1  1
 24 26  1  0
 26 27  1  0
 27 28  2  0
 30 31  1  0
 30 32  2  3
 32 33  1  0
M  END
