
     RDKit          3D

 32 34  0  0  0  0  0  0  0  0999 V2000
    6.9650   -0.5740    2.5740 C   0  0  0  0  0  0  0  0  0  0  0  0
    6.4450    0.7390    2.0720 C   0  0  1  0  0  0  0  0  0  0  0  0
    5.3690    1.2380    3.0100 C   0  0  0  0  0  0  0  0  0  0  0  0
    7.5600    1.7630    2.0120 C   0  0  0  0  0  0  0  0  0  0  0  0
    5.8820    0.5570    0.6540 C   0  0  0  0  0  0  0  0  0  0  0  0
    5.3850    1.9130    0.2240 C   0  0  0  0  0  0  0  0  0  0  0  0
    4.8430    2.0070   -1.0030 O   0  0  0  0  0  0  0  0  0  0  0  0
    3.7570    1.2820   -1.3490 C   0  0  0  0  0  0  0  0  0  0  0  0
    2.5360    1.5060   -0.5820 C   0  0  0  0  0  0  0  0  0  0  0  0
    2.6020    2.3290    0.3760 O   0  0  0  0  0  0  0  0  0  0  0  0
    1.2750    0.8790   -0.8230 N   0  0  0  0  0  0  0  0  0  0  0  0
    0.1970    1.2470    0.0180 C   0  0  0  0  0  0  0  0  0  0  0  0
   -1.0480    0.8640   -0.0740 C   0  0  0  0  0  0  0  0  0  0  0  0
   -2.0140    1.3620    0.9040 C   0  0  0  0  0  0  0  0  0  0  0  0
   -3.2600    0.9900    0.8240 C   0  0  0  0  0  0  0  0  0  0  0  0
   -3.8190    0.1510   -0.1020 O   0  0  0  0  0  0  0  0  0  0  0  0
   -5.1710   -0.0090    0.1320 C   0  0  0  0  0  0  0  0  0  0  0  0
   -5.5340    0.7080    1.2000 C   0  0  0  0  0  0  0  0  0  0  0  0
   -6.9670    0.6230    1.5600 C   0  0  0  0  0  0  0  0  0  0  0  0
   -7.6850    0.7920    0.3930 O   0  0  0  0  0  0  0  0  0  0  0  0
   -7.5230   -0.1780   -0.5560 C   0  0  1  0  0  0  0  0  0  0  0  0
   -8.5660   -1.2740   -0.4670 C   0  0  0  0  0  0  0  0  0  0  0  0
   -7.7320    0.5030   -1.9160 C   0  0  0  0  0  0  0  0  0  0  0  0
   -6.1710   -0.8220   -0.6160 C   0  0  0  0  0  0  0  0  0  0  0  0
   -4.3630    1.3890    1.7140 C   0  0  0  0  0  0  0  0  0  0  0  0
   -4.3200    2.1590    2.7190 O   0  0  0  0  0  0  0  0  0  0  0  0
    1.0630   -0.0680   -1.8800 C   0  0  0  0  0  0  0  0  0  0  0  0
    1.3420   -1.4950   -1.5930 C   0  0  1  0  0  0  0  0  0  0  0  0
    0.5660   -2.1550   -0.5020 C   0  0  0  0  0  0  0  0  0  0  0  0
   -0.5970   -2.7900   -1.2420 C   0  0  0  0  0  0  0  0  0  0  0  0
    0.1150   -3.2740   -2.5000 C   0  0  0  0  0  0  0  0  0  0  0  0
    1.1340   -2.3220   -2.7850 N   0  0  0  0  0  0  0  0  0  0  0  0
  2  1  1  1
  2  3  1  0
  2  4  1  0
  2  5  1  0
  5  6  1  0
  6  7  1  0
  7  8  1  0
  8  9  1  0
  9 10  2  0
  9 11  1  0
 11 12  1  0
 11 27  1  0
 12 13  2  3
 13 14  1  0
 14 15  2  3
 15 16  1  0
 15 25  1  0
 16 17  1  0
 17 18  2  0
 17 24  1  0
 18 19  1  0
 18 25  1  0
 19 20  1  0
 20 21  1  0
 21 22  1  1
 21 23  1  0
 21 24  1  0
 25 26  2  0
 28 27  1  6
 28 29  1  0
 28 32  1  0
 29 30  1  0
 30 31  1  0
 31 32  1  0
M  CHG  1  32   1
M  END
