
     RDKit          3D

 32 35  0  0  0  0  0  0  0  0999 V2000
    1.5400   -4.0400   -3.3510 C   0  0  0  0  0  0  0  0  0  0  0  0
    2.2050   -3.2670   -2.3720 O   0  0  0  0  0  0  0  0  0  0  0  0
    1.4460   -2.3450   -1.6600 C   0  0  0  0  0  0  0  0  0  0  0  0
    0.1180   -2.1540   -1.8560 C   0  0  0  0  0  0  0  0  0  0  0  0
   -0.6880   -1.2250   -1.1520 C   0  0  0  0  0  0  0  0  0  0  0  0
   -0.0210   -0.4970   -0.2120 C   0  0  0  0  0  0  0  0  0  0  0  0
    1.3600   -0.6830    0.0030 C   0  0  0  0  0  0  0  0  0  0  0  0
    2.1300   -1.5840   -0.6880 C   0  0  0  0  0  0  0  0  0  0  0  0
    3.4220   -1.8010   -0.5370 O   0  0  0  0  0  0  0  0  0  0  0  0
    4.5910   -1.5880   -0.0100 C   0  0  0  0  0  0  0  0  0  0  0  0
    5.2060   -0.2310   -0.2410 C   0  0  0  0  0  0  0  0  0  0  0  0
    4.4130    0.8120    0.2860 N   0  0  0  0  0  0  0  0  0  0  0  0
    5.1420    2.0790    0.3780 C   0  0  1  0  0  0  0  0  0  0  0  0
    6.5110    2.1360    0.8920 C   0  0  0  0  0  0  0  0  0  0  0  0
    6.2230    2.2860   -0.5900 C   0  0  0  0  0  0  0  0  0  0  0  0
   -0.6090    0.5230    0.7550 C   0  0  0  0  0  0  0  0  0  0  0  0
   -0.5680    0.0010    2.1420 C   0  0  0  0  0  0  0  0  0  0  0  0
   -1.3480    0.7760    3.1050 C   0  0  0  0  0  0  0  0  0  0  0  0
   -0.7510    1.1660    4.1680 O   0  0  0  0  0  0  0  0  0  0  0  0
   -2.7280    1.1260    2.9430 N   0  0  0  0  0  0  0  0  0  0  0  0
   -3.5450    0.9380    1.7410 C   0  0  0  0  0  0  0  0  0  0  0  0
   -4.0440    2.2220    1.3990 C   0  0  0  0  0  0  0  0  0  0  0  0
   -4.6550    2.5250    0.2230 C   0  0  0  0  0  0  0  0  0  0  0  0
   -5.1780    3.8660   -0.1160 C   0  0  0  0  0  0  0  0  0  0  0  0
   -4.7460    1.4490   -0.6350 C   0  0  0  0  0  0  0  0  0  0  0  0
   -4.2700    0.1690   -0.3360 C   0  0  0  0  0  0  0  0  0  0  0  0
   -3.6610   -0.1350    0.8820 C   0  0  0  0  0  0  0  0  0  0  0  0
   -3.2070   -1.4780    1.2250 O   0  0  0  0  0  0  0  0  0  0  0  0
   -3.9520   -2.4620    1.8570 C   0  0  0  0  0  0  0  0  0  0  0  0
   -4.2650   -0.6080   -1.6260 C   0  0  0  0  0  0  0  0  0  0  0  0
   -2.8470   -0.4020   -2.2630 C   0  0  0  0  0  0  0  0  0  0  0  0
   -2.0000   -1.1950   -1.5130 O   0  0  0  0  0  0  0  0  0  0  0  0
  1  2  1  0
  2  3  1  0
  3  4  2  0
  3  8  1  0
  4  5  1  0
  5  6  2  0
  5 32  1  0
  6  7  1  0
  6 16  1  0
  7  8  2  0
  8  9  1  0
  9 10  1  0
 10 11  1  0
 11 12  1  0
 13 12  1  6
 13 14  1  0
 13 15  1  0
 14 15  1  0
 16 17  1  0
 17 18  1  0
 18 19  2  0
 18 20  1  0
 20 21  1  0
 21 22  2  0
 21 27  1  0
 22 23  1  0
 23 24  1  0
 23 25  2  0
 25 26  1  0
 26 27  2  0
 26 30  1  0
 27 28  1  0
 28 29  1  0
 30 31  1  0
 31 32  1  0
M  CHG  1  12   1
M  END
