
     RDKit          3D

 32 35  0  0  0  0  0  0  0  0999 V2000
    4.9230    3.4060    1.1920 C   0  0  0  0  0  0  0  0  0  0  0  0
    3.9680    2.2920    0.7980 C   0  0  0  0  0  0  0  0  0  0  0  0
    4.2620    1.9280   -0.6280 C   0  0  0  0  0  0  0  0  0  0  0  0
    3.3650    0.8290   -1.0960 C   0  0  2  0  0  0  0  0  0  0  0  0
    1.9060    1.1240   -1.0650 C   0  0  0  0  0  0  0  0  0  0  0  0
    1.2660   -0.1110   -0.6610 N   0  0  0  0  0  0  0  0  0  0  0  0
   -0.1140   -0.4520   -0.8620 C   0  0  0  0  0  0  0  0  0  0  0  0
   -0.4690   -1.5540   -0.4460 O   0  0  0  0  0  0  0  0  0  0  0  0
   -0.9700    0.5070   -1.5250 C   0  0  0  0  0  0  0  0  0  0  0  0
   -2.2440    0.1120   -1.8460 O   0  0  0  0  0  0  0  0  0  0  0  0
   -3.1660   -0.3840   -0.9750 C   0  0  0  0  0  0  0  0  0  0  0  0
   -3.4520   -1.7190   -0.9310 C   0  0  0  0  0  0  0  0  0  0  0  0
   -2.8990   -2.6550   -1.8920 C   0  0  0  0  0  0  0  0  0  0  0  0
   -3.1970   -4.1050   -1.7970 C   0  0  0  0  0  0  0  0  0  0  0  0
   -2.1600   -2.2680   -2.8210 O   0  0  0  0  0  0  0  0  0  0  0  0
   -4.3990   -2.1670    0.0080 C   0  0  0  0  0  0  0  0  0  0  0  0
   -5.0130   -1.2690    0.8470 C   0  0  0  0  0  0  0  0  0  0  0  0
   -4.7140    0.0850    0.7840 C   0  0  0  0  0  0  0  0  0  0  0  0
   -3.8020    0.5070   -0.1180 C   0  0  0  0  0  0  0  0  0  0  0  0
   -3.4750    1.9480   -0.2100 C   0  0  0  0  0  0  0  0  0  0  0  0
   -4.7790    2.6910    0.1180 C   0  0  0  0  0  0  0  0  0  0  0  0
   -5.2390    2.3110    1.4770 C   0  0  0  0  0  0  0  0  0  0  0  0
   -5.4080    0.9210    1.7000 N   0  0  0  0  0  0  0  0  0  0  0  0
    2.2620   -0.9070   -0.0360 C   0  0  0  0  0  0  0  0  0  0  0  0
    2.1740   -2.0740    0.7370 C   0  0  0  0  0  0  0  0  0  0  0  0
    3.3190   -2.6570    1.2360 C   0  0  0  0  0  0  0  0  0  0  0  0
    4.5640   -2.1270    0.9980 C   0  0  0  0  0  0  0  0  0  0  0  0
    5.7780   -2.7330    1.5190 C   0  0  0  0  0  0  0  0  0  0  0  0
    5.7010   -3.7790    2.2120 O   0  0  0  0  0  0  0  0  0  0  0  0
    7.0220   -2.1970    1.2780 O   0  0  0  0  0  0  0  0  0  0  0  0
    4.6770   -0.9830    0.2430 C   0  0  0  0  0  0  0  0  0  0  0  0
    3.5100   -0.3950   -0.2600 C   0  0  0  0  0  0  0  0  0  0  0  0
  1  2  1  0
  2  3  1  0
  4  3  1  1
  4  5  1  0
  4 32  1  0
  5  6  1  0
  6  7  1  0
  6 24  1  0
  7  8  2  0
  7  9  1  0
  9 10  1  0
 10 11  1  0
 11 12  2  0
 11 19  1  0
 12 13  1  0
 12 16  1  0
 13 14  1  0
 13 15  2  0
 16 17  2  0
 17 18  1  0
 18 19  2  0
 18 23  1  0
 19 20  1  0
 20 21  1  0
 21 22  1  0
 22 23  1  0
 24 25  2  0
 24 32  1  0
 25 26  1  0
 26 27  2  0
 27 28  1  0
 27 31  1  0
 28 29  2  0
 28 30  1  0
 31 32  2  0
M  CHG  1  23   1
M  END
