
     RDKit          3D

 32 35  0  0  0  0  0  0  0  0999 V2000
    1.3020   -1.1800    4.4140 C   0  0  0  0  0  0  0  0  0  0  0  0
    1.1870   -1.0150    2.9930 O   0  0  0  0  0  0  0  0  0  0  0  0
    2.2310   -1.3590    2.1640 C   0  0  0  0  0  0  0  0  0  0  0  0
    3.2550   -1.8080    2.6810 O   0  0  0  0  0  0  0  0  0  0  0  0
    2.0550   -1.1650    0.6940 C   0  0  0  0  0  0  0  0  0  0  0  0
    0.7510   -0.5870    0.3240 C   0  0  0  0  0  0  0  0  0  0  0  0
    0.5880    0.0110   -1.0060 C   0  0  1  0  0  0  0  0  0  0  0  0
   -0.8110    0.5070   -1.2730 C   0  0  0  0  0  0  0  0  0  0  0  0
   -1.9200   -0.4680   -1.2560 C   0  0  1  0  0  0  0  0  0  0  0  0
   -2.1550   -1.0640   -0.0860 O   0  0  0  0  0  0  0  0  0  0  0  0
   -2.5860   -0.3410    1.0000 C   0  0  2  0  0  0  0  0  0  0  0  0
   -2.0150   -0.6440    2.3150 C   0  0  0  0  0  0  0  0  0  0  0  0
   -3.1410   -0.5360    3.3140 C   0  0  0  0  0  0  0  0  0  0  0  0
   -4.3990   -0.3360    2.5410 C   0  0  0  0  0  0  0  0  0  0  0  0
   -4.0700   -0.7630    1.1480 C   0  0  0  0  0  0  0  0  0  0  0  0
   -3.1350    0.1640   -1.9160 C   0  0  0  0  0  0  0  0  0  0  0  0
   -4.1790   -0.7830   -2.3700 C   0  0  0  0  0  0  0  0  0  0  0  0
   -3.6700   -1.8090   -3.1840 O   0  0  0  0  0  0  0  0  0  0  0  0
   -2.7940   -2.5110   -2.3180 C   0  0  0  0  0  0  0  0  0  0  0  0
   -1.5690   -1.6330   -2.2360 C   0  0  0  0  0  0  0  0  0  0  0  0
    1.5340    1.1190   -1.1480 N   0  0  0  0  0  0  0  0  0  0  0  0
    1.0540    2.3960   -0.7060 C   0  0  1  0  0  0  0  0  0  0  0  0
    2.3340    3.1770   -0.3010 C   0  0  0  0  0  0  0  0  0  0  0  0
    1.9460    4.5410    0.2330 C   0  0  0  0  0  0  0  0  0  0  0  0
    0.7160    5.0320   -0.5400 C   0  0  0  0  0  0  0  0  0  0  0  0
    0.9320    4.5390   -1.8440 O   0  0  0  0  0  0  0  0  0  0  0  0
    0.4200    3.2200   -1.8100 C   0  0  0  0  0  0  0  0  0  0  0  0
    3.0790   -1.5140   -0.0380 C   0  0  0  0  0  0  0  0  0  0  0  0
    4.3720   -2.0800    0.5370 C   0  0  0  0  0  0  0  0  0  0  0  0
    5.2150   -2.4590   -0.6900 C   0  0  0  0  0  0  0  0  0  0  0  0
    4.0780   -2.7740   -1.6790 C   0  0  0  0  0  0  0  0  0  0  0  0
    3.3120   -1.5210   -1.4370 N   0  0  0  0  0  0  0  0  0  0  0  0
  1  2  1  0
  2  3  1  0
  3  4  2  0
  3  5  1  0
  5  6  1  0
  5 28  2  3
  7  6  1  1
  7  8  1  0
  7 21  1  0
  9  8  1  1
  9 10  1  0
  9 16  1  0
  9 20  1  0
 11 10  1  6
 11 12  1  0
 11 15  1  0
 12 13  1  0
 13 14  1  0
 14 15  1  0
 16 17  1  0
 17 18  1  0
 18 19  1  0
 19 20  1  0
 22 21  1  6
 22 23  1  0
 22 27  1  0
 23 24  1  0
 24 25  1  0
 25 26  1  0
 26 27  1  0
 28 29  1  0
 28 32  1  0
 29 30  1  0
 30 31  1  0
 31 32  1  0
M  CHG  1  21   1
M  END
