
     RDKit          3D

 42 46  0  0  0  0  0  0  0  0999 V2000
   -0.0400    0.2760    2.5310 O   0  0  0  0  0  0  0  0  0  0  0  0
   -0.0770   -0.4130    1.4850 C   0  0  0  0  0  0  0  0  0  0  0  0
   -1.3600   -0.6940    0.9530 N   0  0  0  0  0  0  0  0  0  0  0  0
   -2.3800    0.2600    1.3090 C   0  0  0  0  0  0  0  0  0  0  0  0
   -2.4190    1.3470    0.3030 C   0  0  0  0  0  0  0  0  0  0  0  0
   -3.2740    1.3310   -0.7760 C   0  0  0  0  0  0  0  0  0  0  0  0
   -3.3180    2.3240   -1.7150 C   0  0  0  0  0  0  0  0  0  0  0  0
   -2.4850    3.4140   -1.6170 C   0  0  0  0  0  0  0  0  0  0  0  0
   -2.5230    4.4980   -2.6380 C   0  0  0  0  0  0  0  0  0  0  0  0
   -3.4930    5.4580   -2.3530 O   0  0  0  0  0  0  0  0  0  0  0  0
   -1.6150    3.4690   -0.5520 C   0  0  0  0  0  0  0  0  0  0  0  0
   -1.5810    2.4610    0.3870 C   0  0  0  0  0  0  0  0  0  0  0  0
   -1.7810   -1.7790    0.1280 C   0  0  2  0  0  0  0  0  0  0  0  0
   -2.1580   -3.0270    0.8390 C   0  0  0  0  0  0  0  0  0  0  0  0
   -3.2630   -2.9010    1.7800 C   0  0  0  0  0  0  0  0  0  0  0  0
   -3.0390   -2.5790    3.0950 C   0  0  0  0  0  0  0  0  0  0  0  0
   -4.0750   -2.4600    3.9930 C   0  0  0  0  0  0  0  0  0  0  0  0
   -5.3700   -2.6590    3.6010 C   0  0  0  0  0  0  0  0  0  0  0  0
   -5.6220   -2.9830    2.2840 C   0  0  0  0  0  0  0  0  0  0  0  0
   -4.5640   -3.1010    1.3860 C   0  0  0  0  0  0  0  0  0  0  0  0
   -0.7680   -2.1290   -0.9470 C   0  0  2  0  0  0  0  0  0  0  0  0
   -1.3390   -3.1990   -1.6610 O   0  0  0  0  0  0  0  0  0  0  0  0
    0.5570   -2.5570   -0.4670 C   0  0  1  0  0  0  0  0  0  0  0  0
    1.1600   -3.4690   -1.3670 O   0  0  0  0  0  0  0  0  0  0  0  0
    1.5660   -1.4910   -0.1820 C   0  0  1  0  0  0  0  0  0  0  0  0
    1.9140   -0.5900   -1.3020 C   0  0  0  0  0  0  0  0  0  0  0  0
    2.4910   -1.3380   -2.4740 C   0  0  0  0  0  0  0  0  0  0  0  0
    1.6930   -1.7990   -3.4930 C   0  0  0  0  0  0  0  0  0  0  0  0
    2.2370   -2.4920   -4.5690 C   0  0  0  0  0  0  0  0  0  0  0  0
    3.5900   -2.7400   -4.6480 C   0  0  0  0  0  0  0  0  0  0  0  0
    4.3920   -2.2810   -3.6310 C   0  0  0  0  0  0  0  0  0  0  0  0
    3.8390   -1.6070   -2.5900 C   0  0  0  0  0  0  0  0  0  0  0  0
    1.2120   -0.7970    1.0150 N   0  0  0  0  0  0  0  0  0  0  0  0
    2.3090   -0.4600    1.9020 C   0  0  0  0  0  0  0  0  0  0  0  0
    2.8360    0.8890    1.7710 C   0  0  0  0  0  0  0  0  0  0  0  0
    4.0350    1.2120    2.3650 C   0  0  0  0  0  0  0  0  0  0  0  0
    4.5670    2.4960    2.2800 C   0  0  0  0  0  0  0  0  0  0  0  0
    3.8850    3.4840    1.5840 C   0  0  0  0  0  0  0  0  0  0  0  0
    4.5000    4.8360    1.5280 C   0  0  0  0  0  0  0  0  0  0  0  0
    3.6770    5.6940    0.8250 O   0  0  0  0  0  0  0  0  0  0  0  0
    2.6870    3.1700    0.9880 C   0  0  0  0  0  0  0  0  0  0  0  0
    2.1860    1.8750    1.0940 C   0  0  0  0  0  0  0  0  0  0  0  0
  1  2  2  0
  2  3  1  0
  2 33  1  0
  3  4  1  0
  3 13  1  0
  4  5  1  0
  5  6  2  0
  5 12  1  0
  6  7  1  0
  7  8  2  0
  8  9  1  0
  8 11  1  0
  9 10  1  0
 11 12  2  0
 13 14  1  1
 13 21  1  0
 14 15  1  0
 15 16  2  0
 15 20  1  0
 16 17  1  0
 17 18  2  0
 18 19  1  0
 19 20  2  0
 21 22  1  1
 21 23  1  0
 23 24  1  6
 23 25  1  0
 25 26  1  6
 25 33  1  0
 26 27  1  0
 27 28  2  0
 27 32  1  0
 28 29  1  0
 29 30  2  0
 30 31  1  0
 31 32  2  0
 33 34  1  0
 34 35  1  0
 35 36  2  0
 35 42  1  0
 36 37  1  0
 37 38  2  0
 38 39  1  0
 38 41  1  0
 39 40  1  0
 41 42  2  0
M  END
