
     RDKit          3D

 43 46  0  0  0  0  0  0  0  0999 V2000
   -7.1150    1.4840    4.8920 C   0  0  0  0  0  0  0  0  0  0  0  0
   -5.9670    1.1440    3.9860 C   0  0  0  0  0  0  0  0  0  0  0  0
   -6.2570    0.9920    2.6480 C   0  0  0  0  0  0  0  0  0  0  0  0
   -5.1920    0.6790    1.8120 C   0  0  0  0  0  0  0  0  0  0  0  0
   -3.9150    0.5310    2.2990 C   0  0  0  0  0  0  0  0  0  0  0  0
   -2.8890    0.2280    1.4630 O   0  0  0  0  0  0  0  0  0  0  0  0
   -2.9280    0.0330    0.1010 C   0  0  0  0  0  0  0  0  0  0  0  0
   -3.3790    1.0140   -0.6630 C   0  0  0  0  0  0  0  0  0  0  0  0
   -3.4840    0.9370   -2.1050 C   0  0  0  0  0  0  0  0  0  0  0  0
   -2.8740    1.8950   -2.8830 C   0  0  0  0  0  0  0  0  0  0  0  0
   -2.9900    1.8500   -4.2720 C   0  0  0  0  0  0  0  0  0  0  0  0
   -3.6950    0.8760   -4.8710 N   0  0  0  0  0  0  0  0  0  0  0  0
   -4.3120   -0.0840   -4.1600 C   0  0  0  0  0  0  0  0  0  0  0  0
   -4.1990   -0.0460   -2.7580 C   0  0  0  0  0  0  0  0  0  0  0  0
   -4.8550   -0.9990   -2.0970 F   0  0  0  0  0  0  0  0  0  0  0  0
   -2.4490   -1.2610   -0.4340 C   0  0  0  0  0  0  0  0  0  0  0  0
   -1.0790   -1.5270   -0.0290 N   0  0  0  0  0  0  0  0  0  0  0  0
   -0.0280   -0.6130   -0.3670 C   0  0  0  0  0  0  0  0  0  0  0  0
   -0.3880    0.4030   -1.0140 O   0  0  0  0  0  0  0  0  0  0  0  0
    1.3930   -0.8270    0.0110 C   0  0  1  0  0  0  0  0  0  0  0  0
    2.1920    0.3410   -0.4130 N   0  0  0  0  0  0  0  0  0  0  0  0
    2.2830    0.7520   -1.7660 C   0  0  0  0  0  0  0  0  0  0  0  0
    1.6330    0.0410   -2.5980 O   0  0  0  0  0  0  0  0  0  0  0  0
    3.0140    1.8630   -2.2960 C   0  0  0  0  0  0  0  0  0  0  0  0
    2.9020    2.1170   -3.6720 C   0  0  0  0  0  0  0  0  0  0  0  0
    3.5960    3.1970   -4.1700 C   0  0  0  0  0  0  0  0  0  0  0  0
    3.4780    3.4300   -5.5150 F   0  0  0  0  0  0  0  0  0  0  0  0
    4.3730    4.0200   -3.4080 C   0  0  0  0  0  0  0  0  0  0  0  0
    5.1010    5.1810   -3.9710 C   0  0  0  0  0  0  0  0  0  0  0  0
    4.4650    3.7470   -2.0540 C   0  0  0  0  0  0  0  0  0  0  0  0
    3.7830    2.6690   -1.5190 C   0  0  0  0  0  0  0  0  0  0  0  0
    3.9640    2.5110   -0.1720 F   0  0  0  0  0  0  0  0  0  0  0  0
    1.5540   -0.9580    1.4970 C   0  0  0  0  0  0  0  0  0  0  0  0
    1.9070   -2.3660    1.8810 C   0  0  0  0  0  0  0  0  0  0  0  0
    3.2190   -2.6520    1.3360 N   0  0  1  0  0  0  0  0  0  0  0  0
    3.6290   -3.9620    1.7850 C   0  0  2  0  0  0  0  0  0  0  0  0
    3.5730   -3.9890    3.2940 C   0  0  0  0  0  0  0  0  0  0  0  0
    5.0500   -4.2790    1.3730 C   0  0  0  0  0  0  0  0  0  0  0  0
    3.2080   -2.5440   -0.1030 C   0  0  0  0  0  0  0  0  0  0  0  0
    1.8660   -2.0910   -0.6350 C   0  0  0  0  0  0  0  0  0  0  0  0
   -3.6680    0.6920    3.6540 C   0  0  0  0  0  0  0  0  0  0  0  0
   -2.2930    0.5150    4.1840 C   0  0  0  0  0  0  0  0  0  0  0  0
   -4.7180    0.9990    4.4690 N   0  0  0  0  0  0  0  0  0  0  0  0
  1  2  1  0
  2  3  2  0
  2 43  1  0
  3  4  1  0
  4  5  2  0
  5  6  1  0
  5 41  1  0
  6  7  1  0
  7  8  2  3
  7 16  1  0
  8  9  1  0
  9 10  2  0
  9 14  1  0
 10 11  1  0
 11 12  2  0
 12 13  1  0
 13 14  2  0
 14 15  1  0
 16 17  1  0
 17 18  1  0
 18 19  2  0
 18 20  1  0
 20 21  1  6
 20 33  1  0
 20 40  1  0
 21 22  1  0
 22 23  2  0
 22 24  1  0
 24 25  2  0
 24 31  1  0
 25 26  1  0
 26 27  1  0
 26 28  2  0
 28 29  1  0
 28 30  1  0
 30 31  2  0
 31 32  1  0
 33 34  1  0
 35 34  1  6
 35 36  1  0
 35 39  1  0
 36 37  1  1
 36 38  1  0
 39 40  1  0
 41 42  1  0
 41 43  2  0
M  CHG  2  12   1  35   1
M  END
