
     RDKit          3D

 43 47  0  0  0  0  0  0  0  0999 V2000
    6.4670    1.5490    3.3560 O   0  0  0  0  0  0  0  0  0  0  0  0
    6.3990    1.3240    2.0990 C   0  0  0  0  0  0  0  0  0  0  0  0
    5.0630    1.2640    1.5080 C   0  0  0  0  0  0  0  0  0  0  0  0
    4.4530   -0.1430    1.6440 C   0  0  0  0  0  0  0  0  0  0  0  0
    3.1230   -0.1110    1.0310 C   0  0  0  0  0  0  0  0  0  0  0  0
    2.6340    1.0490    0.6800 O   0  0  0  0  0  0  0  0  0  0  0  0
    2.3000   -1.2140    0.7790 N   0  0  0  0  0  0  0  0  0  0  0  0
    0.9510   -0.9050    0.2830 C   0  0  0  0  0  0  0  0  0  0  0  0
   -0.1790   -1.3750    0.8820 C   0  0  0  0  0  0  0  0  0  0  0  0
   -1.4450   -1.0500    0.3710 C   0  0  0  0  0  0  0  0  0  0  0  0
   -1.5580   -0.2490   -0.7430 C   0  0  0  0  0  0  0  0  0  0  0  0
   -2.8410    0.1340   -1.3350 C   0  0  0  0  0  0  0  0  0  0  0  0
   -3.9900   -0.2650   -0.8460 C   0  0  0  0  0  0  0  0  0  0  0  0
   -5.2300    0.1520   -1.4820 C   0  0  0  0  0  0  0  0  0  0  0  0
   -5.1690    0.8920   -2.4910 O   0  0  0  0  0  0  0  0  0  0  0  0
   -6.5090   -0.2400   -1.0100 N   0  0  0  0  0  0  0  0  0  0  0  0
   -6.4360   -1.0990    0.1690 C   0  0  0  0  0  0  0  0  0  0  0  0
   -7.7930   -1.6200    0.5770 C   0  0  0  0  0  0  0  0  0  0  0  0
   -8.6690   -0.4810    1.0020 C   0  0  0  0  0  0  0  0  0  0  0  0
   -9.4350   -0.0170   -0.1660 N   0  0  0  0  0  0  0  0  0  0  0  0
  -10.5980    0.6730    0.4020 C   0  0  0  0  0  0  0  0  0  0  0  0
  -11.5470    0.9210   -0.7560 C   0  0  0  0  0  0  0  0  0  0  0  0
  -10.8210    1.5790   -1.8840 C   0  0  0  0  0  0  0  0  0  0  0  0
   -9.4320    2.0090   -1.5570 C   0  0  0  0  0  0  0  0  0  0  0  0
   -8.6270    0.9640   -0.8290 C   0  0  2  0  0  0  0  0  0  0  0  0
   -7.6570    0.2520   -1.7420 C   0  0  0  0  0  0  0  0  0  0  0  0
   -0.4000    0.2220   -1.3410 C   0  0  0  0  0  0  0  0  0  0  0  0
   -0.4930    1.0170   -2.4460 F   0  0  0  0  0  0  0  0  0  0  0  0
    0.8330   -0.1120   -0.8220 C   0  0  0  0  0  0  0  0  0  0  0  0
    2.5660   -2.6030    0.8850 C   0  0  2  0  0  0  0  0  0  0  0  0
    3.4800   -3.1400    1.9130 C   0  0  0  0  0  0  0  0  0  0  0  0
    3.8590   -3.2430    0.5020 C   0  0  0  0  0  0  0  0  0  0  0  0
    7.6370    1.1480    1.3620 C   0  0  0  0  0  0  0  0  0  0  0  0
    7.5960    0.9070    0.0100 C   0  0  0  0  0  0  0  0  0  0  0  0
    8.7820    0.7320   -0.7090 C   0  0  0  0  0  0  0  0  0  0  0  0
   10.0050    0.7970   -0.0820 C   0  0  0  0  0  0  0  0  0  0  0  0
   11.1260    0.6350   -0.7360 N   0  0  0  0  0  0  0  0  0  0  0  0
   12.3710    0.7200    0.0020 C   0  0  0  0  0  0  0  0  0  0  0  0
   13.5460    0.6010   -0.9460 C   0  0  0  0  0  0  0  0  0  0  0  0
   14.7440    0.6750   -0.3030 F   0  0  0  0  0  0  0  0  0  0  0  0
   10.0190    1.0340    1.2410 N   0  0  0  0  0  0  0  0  0  0  0  0
    8.8740    1.2080    1.9660 C   0  0  0  0  0  0  0  0  0  0  0  0
    8.9700    1.4410    3.2810 F   0  0  0  0  0  0  0  0  0  0  0  0
  1  2  2  0
  2  3  1  0
  2 33  1  0
  3  4  1  0
  4  5  1  0
  5  6  2  0
  5  7  1  0
  7  8  1  0
 30  7  1  1
  8  9  2  0
  8 29  1  0
  9 10  1  0
 10 11  2  0
 11 12  1  0
 11 27  1  0
 12 13  2  3
 13 14  1  0
 14 15  2  0
 14 16  1  0
 16 17  1  0
 16 26  1  0
 17 18  1  0
 18 19  1  0
 19 20  1  0
 20 21  1  0
 20 25  1  0
 21 22  1  0
 22 23  1  0
 23 24  1  0
 25 24  1  6
 25 26  1  0
 27 28  1  0
 27 29  2  0
 30 31  1  0
 30 32  1  0
 31 32  1  0
 33 34  1  0
 33 42  2  0
 34 35  2  0
 35 36  1  0
 36 37  2  3
 36 41  1  0
 37 38  1  0
 38 39  1  0
 39 40  1  0
 41 42  1  0
 42 43  1  0
M  CHG  1  37   1
M  END
