
     RDKit          3D

 42 44  0  0  0  0  0  0  0  0999 V2000
   -0.6740    5.4040   -1.7270 O   0  0  0  0  0  0  0  0  0  0  0  0
   -0.1680    5.2040   -2.8480 C   0  0  0  0  0  0  0  0  0  0  0  0
   -0.2340    6.2630   -3.8760 C   0  0  0  0  0  0  0  0  0  0  0  0
   -0.9000    7.3580   -3.3700 O   0  0  0  0  0  0  0  0  0  0  0  0
    0.4490    3.9460   -3.0590 N   0  0  0  0  0  0  0  0  0  0  0  0
    0.4930    2.9780   -2.0720 N   0  0  0  0  0  0  0  0  0  0  0  0
    1.0380    3.2490   -0.8030 C   0  0  0  0  0  0  0  0  0  0  0  0
    1.4940    4.4200   -0.5940 O   0  0  0  0  0  0  0  0  0  0  0  0
    1.1200    2.2610    0.3070 C   0  0  1  0  0  0  0  0  0  0  0  0
   -0.2400    1.7720    0.7210 C   0  0  0  0  0  0  0  0  0  0  0  0
   -0.0920    0.7450    1.8140 C   0  0  1  0  0  0  0  0  0  0  0  0
   -0.7410   -0.5450    1.4030 C   0  0  0  0  0  0  0  0  0  0  0  0
   -2.1070   -0.3290    1.1660 O   0  0  0  0  0  0  0  0  0  0  0  0
   -3.0510    0.0720    2.0930 C   0  0  0  0  0  0  0  0  0  0  0  0
   -2.6690    0.2650    3.2740 O   0  0  0  0  0  0  0  0  0  0  0  0
   -4.4660    0.2770    1.7410 C   0  0  2  0  0  0  0  0  0  0  0  0
   -5.0660   -0.9060    1.0020 C   0  0  1  0  0  0  0  0  0  0  0  0
   -4.9970   -2.0040    1.8540 O   0  0  0  0  0  0  0  0  0  0  0  0
   -4.2940   -3.0720    1.3610 C   0  0  0  0  0  0  0  0  0  0  0  0
   -4.8310   -3.6570    0.0900 C   0  0  0  0  0  0  0  0  0  0  0  0
   -4.0060   -4.7240   -0.2770 O   0  0  0  0  0  0  0  0  0  0  0  0
   -6.5350   -0.5710    0.8160 C   0  0  0  0  0  0  0  0  0  0  0  0
   -6.7320    0.7940    0.2260 C   0  0  0  0  0  0  0  0  0  0  0  0
   -5.5850    1.5150    0.0160 O   0  0  0  0  0  0  0  0  0  0  0  0
   -4.7110    1.5880    1.0700 C   0  0  1  0  0  0  0  0  0  0  0  0
   -5.1000    2.6570    2.1000 C   0  0  0  0  0  0  0  0  0  0  0  0
   -6.3380    2.4020    2.6400 O   0  0  0  0  0  0  0  0  0  0  0  0
    1.3510    0.5410    2.2330 C   0  0  0  0  0  0  0  0  0  0  0  0
    2.1980    0.2960    1.0830 N   0  0  0  0  0  0  0  0  0  0  0  0
    3.2430   -0.6590    1.2040 C   0  0  0  0  0  0  0  0  0  0  0  0
    3.4600   -1.2840    2.2810 O   0  0  0  0  0  0  0  0  0  0  0  0
    4.1070   -0.9630    0.1050 N   0  0  0  0  0  0  0  0  0  0  0  0
    5.1750   -1.9420    0.2480 C   0  0  2  0  0  0  0  0  0  0  0  0
    6.4760   -1.4030   -0.2250 C   0  0  0  0  0  0  0  0  0  0  0  0
    6.8860   -1.8670   -1.5920 C   0  0  1  0  0  0  0  0  0  0  0  0
    8.2360   -1.6270   -1.8390 O   0  0  0  0  0  0  0  0  0  0  0  0
    6.6110   -3.1800   -1.8850 O   0  0  0  0  0  0  0  0  0  0  0  0
    6.1610   -3.8770   -0.7920 C   0  0  2  0  0  0  0  0  0  0  0  0
    6.0520   -5.3520   -0.9730 C   0  0  0  0  0  0  0  0  0  0  0  0
    5.5870   -5.8790    0.2540 O   0  0  0  0  0  0  0  0  0  0  0  0
    4.8010   -3.2480   -0.4530 C   0  0  0  0  0  0  0  0  0  0  0  0
    1.9320    1.0400   -0.1180 C   0  0  0  0  0  0  0  0  0  0  0  0
  1  2  2  0
  2  3  1  0
  2  5  1  0
  3  4  1  0
  5  6  1  0
  6  7  1  0
  7  8  2  0
  9  7  1  6
  9 10  1  0
  9 42  1  0
 10 11  1  0
 11 12  1  6
 11 28  1  0
 12 13  1  0
 13 14  1  0
 14 15  2  0
 16 14  1  6
 16 17  1  0
 16 25  1  0
 17 18  1  1
 17 22  1  0
 18 19  1  0
 19 20  1  0
 20 21  1  0
 22 23  1  0
 23 24  1  0
 24 25  1  0
 25 26  1  1
 26 27  1  0
 28 29  1  0
 29 30  1  0
 29 42  1  0
 30 31  2  0
 30 32  1  0
 33 32  1  6
 33 34  1  0
 33 41  1  0
 34 35  1  0
 35 36  1  1
 35 37  1  0
 37 38  1  0
 38 39  1  6
 38 41  1  0
 39 40  1  0
M  END
