
     RDKit          3D

 42 44  0  0  0  0  0  0  0  0999 V2000
    8.2850    2.6880    0.0780 C   0  0  0  0  0  0  0  0  0  0  0  0
    7.6300    1.5580   -0.5220 O   0  0  0  0  0  0  0  0  0  0  0  0
    6.3010    1.2670   -0.1870 C   0  0  0  0  0  0  0  0  0  0  0  0
    5.7220    2.0270    0.6200 O   0  0  0  0  0  0  0  0  0  0  0  0
    5.6290    0.1180   -0.7660 C   0  0  1  0  0  0  0  0  0  0  0  0
    5.4770    0.4380   -2.2690 C   0  0  0  0  0  0  0  0  0  0  0  0
    6.4610   -1.1670   -0.7250 C   0  0  0  0  0  0  0  0  0  0  0  0
    5.5130   -2.2050   -0.9570 O   0  0  0  0  0  0  0  0  0  0  0  0
    5.4440   -3.0970    0.0690 C   0  0  0  0  0  0  0  0  0  0  0  0
    4.1210   -3.3770    0.6750 C   0  0  0  0  0  0  0  0  0  0  0  0
    2.9980   -3.0730   -0.1180 O   0  0  0  0  0  0  0  0  0  0  0  0
    1.7880   -2.5560    0.3650 C   0  0  0  0  0  0  0  0  0  0  0  0
    0.7270   -3.3060    0.4120 O   0  0  0  0  0  0  0  0  0  0  0  0
    1.5890   -1.2330    0.8160 N   0  0  0  0  0  0  0  0  0  0  0  0
    1.4370   -0.0150   -0.0120 C   0  0  1  0  0  0  0  0  0  0  0  0
    1.7000   -0.1020   -1.4090 C   0  0  0  0  0  0  0  0  0  0  0  0
    0.2160    0.6610    0.4500 C   0  0  0  0  0  0  0  0  0  0  0  0
    0.2760    1.8030    0.9250 O   0  0  0  0  0  0  0  0  0  0  0  0
   -1.1000    0.0500    0.4040 N   0  0  0  0  0  0  0  0  0  0  0  0
   -2.2210    0.6980    0.9410 C   0  0  2  0  0  0  0  0  0  0  0  0
   -2.9920   -0.0470    2.0210 C   0  0  2  0  0  0  0  0  0  0  0  0
   -2.8670   -1.4870    2.1230 C   0  0  1  0  0  0  0  0  0  0  0  0
   -3.6230   -1.8920    3.2690 O   0  0  0  0  0  0  0  0  0  0  0  0
   -3.0970   -2.5110    1.1430 C   0  0  0  0  0  0  0  0  0  0  0  0
   -4.4030   -2.8190    0.7610 O   0  0  0  0  0  0  0  0  0  0  0  0
   -4.1850    0.6680    1.4970 C   0  0  2  0  0  0  0  0  0  0  0  0
   -5.3730   -0.0500    1.6150 N   0  0  0  0  0  0  0  0  0  0  0  0
   -6.6610    0.3060    1.1370 C   0  0  0  0  0  0  0  0  0  0  0  0
   -6.8280    1.3930    0.5400 O   0  0  0  0  0  0  0  0  0  0  0  0
   -7.7680   -0.5210    1.2960 O   0  0  0  0  0  0  0  0  0  0  0  0
   -9.0100   -0.1400    0.7760 N   0  0  0  0  0  0  0  0  0  0  0  0
   -3.4910    0.9490    0.1900 C   0  0  1  0  0  0  0  0  0  0  0  0
   -3.4650    2.4640   -0.1390 C   0  0  0  0  0  0  0  0  0  0  0  0
   -4.3920    2.9540   -1.1300 C   0  0  0  0  0  0  0  0  0  0  0  0
   -4.6900    2.0250   -2.2850 C   0  0  0  0  0  0  0  0  0  0  0  0
   -3.6090    1.0010   -2.3040 C   0  0  1  0  0  0  0  0  0  0  0  0
   -2.3450    1.5120   -2.5080 O   0  0  0  0  0  0  0  0  0  0  0  0
   -3.7260    0.1910   -1.0220 C   0  0  0  0  0  0  0  0  0  0  0  0
    2.5290    0.9440    0.6390 C   0  0  0  0  0  0  0  0  0  0  0  0
    3.6970    0.0930    0.8550 C   0  0  0  0  0  0  0  0  0  0  0  0
    3.8860   -0.2530    2.0710 O   0  0  0  0  0  0  0  0  0  0  0  0
    4.4070   -0.2160   -0.2230 O   0  0  0  0  0  0  0  0  0  0  0  0
  1  2  1  0
  2  3  1  0
  3  4  2  0
  3  5  1  0
  5  6  1  6
  5  7  1  0
  5 42  1  0
  7  8  1  0
  8  9  1  0
  9 10  1  0
 10 11  1  0
 11 12  1  0
 12 13  2  0
 12 14  1  0
 14 15  1  0
 15 16  1  6
 15 17  1  0
 15 39  1  0
 17 18  2  0
 17 19  1  0
 20 19  1  6
 20 21  1  0
 20 32  1  0
 21 22  1  6
 21 26  1  0
 22 23  1  1
 22 24  1  0
 24 25  1  0
 26 27  1  6
 26 32  1  0
 27 28  1  0
 28 29  2  0
 28 30  1  0
 30 31  1  0
 32 33  1  6
 32 38  1  0
 33 34  1  0
 34 35  1  0
 35 36  1  0
 36 37  1  1
 36 38  1  0
 39 40  1  0
 40 41  2  0
 40 42  1  0
M  END
