
     RDKit          3D

 43 45  0  0  0  0  0  0  0  0999 V2000
   10.6800   -2.3920    0.1060 N   0  0  0  0  0  0  0  0  0  0  0  0
   10.4570   -1.4910   -0.9340 C   0  0  0  0  0  0  0  0  0  0  0  0
   11.0070   -1.5940   -2.0500 O   0  0  0  0  0  0  0  0  0  0  0  0
    9.4890   -0.3220   -0.6830 C   0  0  2  0  0  0  0  0  0  0  0  0
   10.2360    0.9300   -0.9620 C   0  0  0  0  0  0  0  0  0  0  0  0
    9.5240    2.2200   -0.7770 C   0  0  0  0  0  0  0  0  0  0  0  0
    8.3780    2.3610   -1.5480 O   0  0  0  0  0  0  0  0  0  0  0  0
    9.0460   -0.4270    0.5860 O   0  0  0  0  0  0  0  0  0  0  0  0
    7.8160   -0.8830    0.8690 C   0  0  0  0  0  0  0  0  0  0  0  0
    6.5940   -0.1810    0.4110 C   0  0  2  0  0  0  0  0  0  0  0  0
    6.5750   -0.0590   -0.9660 O   0  0  0  0  0  0  0  0  0  0  0  0
    6.3940    1.0980    1.1610 C   0  0  0  0  0  0  0  0  0  0  0  0
    5.1370    1.7380    0.9060 N   0  0  0  0  0  0  0  0  0  0  0  0
    3.8580    1.1450    1.1870 C   0  0  0  0  0  0  0  0  0  0  0  0
    3.8410    0.0140    1.6820 O   0  0  0  0  0  0  0  0  0  0  0  0
    2.6740    1.7920    0.9230 O   0  0  0  0  0  0  0  0  0  0  0  0
    1.3930    1.2780    1.1680 C   0  0  0  0  0  0  0  0  0  0  0  0
    1.1890    0.0400    0.3460 C   0  0  1  0  0  0  0  0  0  0  0  0
   -0.1700   -0.5680    0.5580 C   0  0  0  0  0  0  0  0  0  0  0  0
   -0.9220   -0.7740   -0.6150 N   0  0  0  0  0  0  0  0  0  0  0  0
   -2.2430   -1.2680   -0.4700 C   0  0  0  0  0  0  0  0  0  0  0  0
   -3.1430   -0.2840    0.1460 C   0  0  0  0  0  0  0  0  0  0  0  0
   -2.6910    0.8470    0.4570 O   0  0  0  0  0  0  0  0  0  0  0  0
   -4.5190   -0.5310    0.4190 N   0  0  0  0  0  0  0  0  0  0  0  0
   -5.3440    0.5180    1.0410 C   0  0  0  0  0  0  0  0  0  0  0  0
   -6.7450    0.0680    1.2520 C   0  0  1  0  0  0  0  0  0  0  0  0
   -6.7650   -1.0480    2.0900 O   0  0  0  0  0  0  0  0  0  0  0  0
   -7.5790    1.2360    1.7670 C   0  0  0  0  0  0  0  0  0  0  0  0
   -8.0260    1.4350    0.3280 C   0  0  1  0  0  0  0  0  0  0  0  0
   -7.1910    2.2920   -0.4250 O   0  0  0  0  0  0  0  0  0  0  0  0
   -7.7700    3.2780   -1.2110 C   0  0  0  0  0  0  0  0  0  0  0  0
   -9.0180    3.3650   -1.2170 O   0  0  0  0  0  0  0  0  0  0  0  0
   -6.9380    4.1130   -1.9450 O   0  0  0  0  0  0  0  0  0  0  0  0
   -7.6450   -0.0060    0.0790 C   0  0  1  0  0  0  0  0  0  0  0  0
   -7.0920   -0.3290   -1.2510 C   0  0  0  0  0  0  0  0  0  0  0  0
   -7.3450   -1.7830   -1.4830 C   0  0  0  0  0  0  0  0  0  0  0  0
   -8.2120   -2.2510   -0.3410 C   0  0  2  0  0  0  0  0  0  0  0  0
   -9.2450   -3.0950   -0.7720 O   0  0  0  0  0  0  0  0  0  0  0  0
   -8.7900   -0.9890    0.2590 C   0  0  1  0  0  0  0  0  0  0  0  0
   -8.9870   -1.2180    1.6260 O   0  0  0  0  0  0  0  0  0  0  0  0
   -0.1910   -1.2180   -1.7600 C   0  0  0  0  0  0  0  0  0  0  0  0
    1.2570   -0.7980   -1.7260 C   0  0  0  0  0  0  0  0  0  0  0  0
    1.3080    0.3910   -0.9940 O   0  0  0  0  0  0  0  0  0  0  0  0
  1  2  1  0
  2  3  2  0
  2  4  1  0
  4  5  1  1
  4  8  1  0
  5  6  1  0
  6  7  1  0
  8  9  1  0
  9 10  1  0
 10 11  1  6
 10 12  1  0
 12 13  1  0
 13 14  1  0
 14 15  2  0
 14 16  1  0
 16 17  1  0
 18 17  1  1
 18 19  1  0
 18 43  1  0
 19 20  1  0
 20 21  1  0
 20 41  1  0
 21 22  1  0
 22 23  2  0
 22 24  1  0
 24 25  1  0
 25 26  1  0
 26 27  1  1
 26 28  1  0
 26 34  1  0
 28 29  1  0
 29 30  1  6
 29 34  1  0
 30 31  1  0
 31 32  2  0
 31 33  1  0
 34 35  1  6
 34 39  1  0
 35 36  1  0
 36 37  1  0
 37 38  1  6
 37 39  1  0
 39 40  1  1
 41 42  1  0
 42 43  1  0
M  END
