
     RDKit          3D

 27 29  0  0  0  0  0  0  0  0999 V2000
    3.2220    5.5480   -0.8140 C   0  0  0  0  0  0  0  0  0  0  0  0
    2.6350    4.6260   -0.0680 C   0  0  0  0  0  0  0  0  0  0  0  0
    3.1110    3.2320    0.0180 C   0  0  0  0  0  0  0  0  0  0  0  0
    2.0520    2.3210   -0.4380 N   0  0  0  0  0  0  0  0  0  0  0  0
    2.2860    0.9270   -0.4460 C   0  0  0  0  0  0  0  0  0  0  0  0
    3.5130    0.4450   -0.0050 C   0  0  0  0  0  0  0  0  0  0  0  0
    3.7800   -0.9000    0.0060 C   0  0  0  0  0  0  0  0  0  0  0  0
    4.9880   -1.4210    0.4360 C   0  0  0  0  0  0  0  0  0  0  0  0
    5.2060   -2.7680    0.4290 C   0  0  0  0  0  0  0  0  0  0  0  0
    6.4370   -3.3200    0.8650 N   0  0  0  0  0  0  0  0  0  0  0  0
    4.2180   -3.6410   -0.0120 C   0  0  0  0  0  0  0  0  0  0  0  0
    3.0020   -3.1280   -0.4450 C   0  0  0  0  0  0  0  0  0  0  0  0
    2.7910   -1.7610   -0.4330 C   0  0  0  0  0  0  0  0  0  0  0  0
    1.5750   -1.2670   -0.8690 C   0  0  0  0  0  0  0  0  0  0  0  0
    1.2950    0.0840   -0.8850 C   0  0  0  0  0  0  0  0  0  0  0  0
    0.0200    0.4940   -1.3550 N   0  0  0  0  0  0  0  0  0  0  0  0
   -0.8860    0.6540   -0.2120 C   0  0  0  0  0  0  0  0  0  0  0  0
   -2.2780    0.1920   -0.5700 C   0  0  0  0  0  0  0  0  0  0  0  0
   -3.2220    0.3120    0.4750 N   0  0  0  0  0  0  0  0  0  0  0  0
   -3.0730   -0.5310    1.6020 C   0  0  0  0  0  0  0  0  0  0  0  0
   -3.6830   -1.8820    1.4860 C   0  0  0  0  0  0  0  0  0  0  0  0
   -4.6600   -1.9910    0.5300 O   0  0  0  0  0  0  0  0  0  0  0  0
   -5.4090   -0.8400    0.4940 C   0  0  2  0  0  0  0  0  0  0  0  0
   -6.5520   -1.0120   -0.4570 C   0  0  0  0  0  0  0  0  0  0  0  0
   -7.4810    0.0260   -0.6950 N   0  0  0  0  0  0  0  0  0  0  0  0
   -6.7020   -2.0960   -1.0650 O   0  0  0  0  0  0  0  0  0  0  0  0
   -4.5460    0.2720   -0.0550 C   0  0  0  0  0  0  0  0  0  0  0  0
  1  2  2  0
  2  3  1  0
  3  4  1  0
  4  5  1  0
  5  6  2  0
  5 15  1  0
  6  7  1  0
  7  8  2  0
  7 13  1  0
  8  9  1  0
  9 10  1  0
  9 11  2  0
 11 12  1  0
 12 13  2  0
 13 14  1  0
 14 15  2  0
 15 16  1  0
 16 17  1  0
 17 18  1  0
 18 19  1  0
 19 20  1  0
 19 27  1  0
 20 21  1  0
 21 22  1  0
 22 23  1  0
 23 24  1  6
 23 27  1  0
 24 25  1  0
 24 26  2  0
M  CHG  1  16   1
M  END
