
     RDKit          3D

 28 30  0  0  0  0  0  0  0  0999 V2000
   -3.7350    1.9590   -0.9300 N   0  0  0  0  0  0  0  0  0  0  0  0
   -3.2470    0.6720   -0.3960 C   0  0  2  0  0  0  0  0  0  0  0  0
   -4.2700    0.2020    0.6430 C   0  0  0  0  0  0  0  0  0  0  0  0
   -5.5980    0.0250    0.0070 C   0  0  0  0  0  0  0  0  0  0  0  0
   -6.4790    1.0800   -0.0380 C   0  0  0  0  0  0  0  0  0  0  0  0
   -7.7270    0.9790   -0.6150 C   0  0  0  0  0  0  0  0  0  0  0  0
   -8.0890   -0.2330   -1.1620 C   0  0  0  0  0  0  0  0  0  0  0  0
   -7.2390   -1.3200   -1.1410 C   0  0  0  0  0  0  0  0  0  0  0  0
   -6.0010   -1.1710   -0.5530 C   0  0  0  0  0  0  0  0  0  0  0  0
   -1.9200    0.8730    0.2300 C   0  0  0  0  0  0  0  0  0  0  0  0
   -1.5750    2.0820    0.4380 O   0  0  0  0  0  0  0  0  0  0  0  0
   -1.0290   -0.1460    0.6040 N   0  0  0  0  0  0  0  0  0  0  0  0
   -1.2210   -1.5610    0.4240 C   0  0  0  0  0  0  0  0  0  0  0  0
   -0.7450   -2.0430    1.8060 C   0  0  0  0  0  0  0  0  0  0  0  0
    0.6170   -1.3320    1.8260 C   0  0  0  0  0  0  0  0  0  0  0  0
    0.2410    0.0210    1.2450 C   0  0  1  0  0  0  0  0  0  0  0  0
    1.3190    0.3950    0.2850 C   0  0  0  0  0  0  0  0  0  0  0  0
    1.1270    0.5420   -0.9290 O   0  0  0  0  0  0  0  0  0  0  0  0
    2.6110    0.5830    0.8280 N   0  0  0  0  0  0  0  0  0  0  0  0
    3.7880    0.9420    0.0660 C   0  0  0  0  0  0  0  0  0  0  0  0
    4.0500   -0.1610   -0.9390 C   0  0  0  0  0  0  0  0  0  0  0  0
    5.2020    0.0640   -1.7520 N   0  0  0  0  0  0  0  0  0  0  0  0
    6.5110    0.0270   -1.2130 C   0  0  0  0  0  0  0  0  0  0  0  0
    6.7860   -0.4670    0.0280 C   0  0  0  0  0  0  0  0  0  0  0  0
    8.0580   -0.4850    0.5470 C   0  0  0  0  0  0  0  0  0  0  0  0
    9.0570    0.0010   -0.1970 N   0  0  0  0  0  0  0  0  0  0  0  0
    8.8240    0.4950   -1.4230 C   0  0  0  0  0  0  0  0  0  0  0  0
    7.5670    0.5250   -1.9650 C   0  0  0  0  0  0  0  0  0  0  0  0
  2  1  1  1
  2  3  1  0
  2 10  1  0
  3  4  1  0
  4  5  2  0
  4  9  1  0
  5  6  1  0
  6  7  2  0
  7  8  1  0
  8  9  2  0
 10 11  2  0
 10 12  1  0
 12 13  1  0
 12 16  1  0
 13 14  1  0
 14 15  1  0
 15 16  1  0
 16 17  1  6
 17 18  2  0
 17 19  1  0
 19 20  1  0
 20 21  1  0
 21 22  1  0
 22 23  1  0
 23 24  2  0
 23 28  1  0
 24 25  1  0
 25 26  2  0
 26 27  1  0
 27 28  2  0
M  CHG  1   1   1
M  END
