
     RDKit          3D

 28 30  0  0  0  0  0  0  0  0999 V2000
    4.9910    1.3990   -1.6040 C   0  0  0  0  0  0  0  0  0  0  0  0
    4.2130    0.2220   -1.0350 C   0  0  0  0  0  0  0  0  0  0  0  0
    3.3240   -0.4040   -2.0530 C   0  0  0  0  0  0  0  0  0  0  0  0
    2.5130   -1.5740   -1.5720 C   0  0  0  0  0  0  0  0  0  0  0  0
    1.6140   -1.2490   -0.4800 N   0  0  0  0  0  0  0  0  0  0  0  0
    1.9770   -1.3920    0.7960 C   0  0  0  0  0  0  0  0  0  0  0  0
    3.3110   -1.9140    1.1990 C   0  0  0  0  0  0  0  0  0  0  0  0
    1.1250   -1.0700    1.8600 C   0  0  0  0  0  0  0  0  0  0  0  0
   -0.1210   -0.5930    1.5500 C   0  0  0  0  0  0  0  0  0  0  0  0
   -0.5180   -0.4370    0.2260 C   0  0  0  0  0  0  0  0  0  0  0  0
   -1.8560    0.0980   -0.0090 C   0  0  1  0  0  0  0  0  0  0  0  0
   -1.7560    1.5880    0.1260 C   0  0  0  0  0  0  0  0  0  0  0  0
   -2.1040    2.2660    1.2640 C   0  0  0  0  0  0  0  0  0  0  0  0
   -1.9800    3.6070    1.3090 N   0  0  0  0  0  0  0  0  0  0  0  0
   -1.5180    4.3080    0.2510 C   0  0  0  0  0  0  0  0  0  0  0  0
   -1.1700    3.6390   -0.8890 C   0  0  0  0  0  0  0  0  0  0  0  0
   -1.2950    2.2960   -0.9310 N   0  0  0  0  0  0  0  0  0  0  0  0
   -2.4910   -0.1830   -1.3160 C   0  0  2  0  0  0  0  0  0  0  0  0
   -3.8740    0.4680   -1.3060 C   0  0  0  0  0  0  0  0  0  0  0  0
   -4.6470   -0.1470   -0.1760 C   0  0  0  0  0  0  0  0  0  0  0  0
   -2.5720   -1.5900   -1.7120 C   0  0  0  0  0  0  0  0  0  0  0  0
   -3.1520   -1.8810   -2.9900 N   0  0  0  0  0  0  0  0  0  0  0  0
   -2.1850   -2.5290   -1.0390 O   0  0  0  0  0  0  0  0  0  0  0  0
    0.3630   -0.7700   -0.7630 C   0  0  0  0  0  0  0  0  0  0  0  0
    0.0770   -0.6570   -1.9920 O   0  0  0  0  0  0  0  0  0  0  0  0
   -0.7810   -0.3670    2.8060 N   0  0  0  0  0  0  0  0  0  0  0  0
    0.2350   -0.1670    3.8460 C   0  0  0  0  0  0  0  0  0  0  0  0
    1.3020   -1.1360    3.3550 C   0  0  0  0  0  0  0  0  0  0  0  0
  1  2  1  0
  2  3  1  0
  3  4  1  0
  4  5  1  0
  5  6  1  0
  5 24  1  0
  6  7  1  0
  6  8  2  0
  8  9  1  0
  8 28  1  0
  9 10  2  0
  9 26  1  0
 11 10  1  6
 10 24  1  0
 11 12  1  0
 11 18  1  0
 12 13  2  0
 12 17  1  0
 13 14  1  0
 14 15  2  0
 15 16  1  0
 16 17  2  0
 18 19  1  1
 18 21  1  0
 19 20  1  0
 21 22  1  0
 21 23  2  0
 24 25  2  0
 26 27  1  0
 27 28  1  0
M  CHG  1  22   1
M  END
