
     RDKit          3D

 28 30  0  0  0  0  0  0  0  0999 V2000
    6.6040   -2.5780    0.9920 C   0  0  0  0  0  0  0  0  0  0  0  0
    6.7190   -1.4760    0.3790 C   0  0  0  0  0  0  0  0  0  0  0  0
    6.0490   -0.8820   -0.7590 C   0  0  0  0  0  0  0  0  0  0  0  0
    4.9710   -1.6260   -1.3440 N   0  0  0  0  0  0  0  0  0  0  0  0
    5.2350   -2.5500   -2.4160 C   0  0  0  0  0  0  0  0  0  0  0  0
    3.6220   -1.4410   -0.8560 C   0  0  0  0  0  0  0  0  0  0  0  0
    2.6040   -1.9520   -1.3570 O   0  0  0  0  0  0  0  0  0  0  0  0
    3.3800   -0.6330    0.2850 N   0  0  0  0  0  0  0  0  0  0  0  0
    2.3490   -0.2090    1.0530 C   0  0  0  0  0  0  0  0  0  0  0  0
    1.0910    0.4110    0.6820 C   0  0  0  0  0  0  0  0  0  0  0  0
   -0.1550   -0.2080    0.5390 C   0  0  0  0  0  0  0  0  0  0  0  0
   -1.3330    0.5120    0.5600 C   0  0  0  0  0  0  0  0  0  0  0  0
   -2.7200   -0.0350    0.6890 C   0  0  1  0  0  0  0  0  0  0  0  0
   -3.5290   -0.0880   -0.6620 C   0  0  0  0  0  0  0  0  0  0  0  0
   -3.1010   -1.3200    0.0170 C   0  0  2  0  0  0  0  0  0  0  0  0
   -4.1310   -2.2480    0.6370 C   0  0  0  0  0  0  0  0  0  0  0  0
   -4.3970   -3.3320   -0.3990 C   0  0  0  0  0  0  0  0  0  0  0  0
   -5.3740   -4.3030   -0.0120 N   0  0  0  0  0  0  0  0  0  0  0  0
   -1.2950    1.9300    0.7160 C   0  0  0  0  0  0  0  0  0  0  0  0
   -2.5710    2.6790    0.7150 C   0  0  0  0  0  0  0  0  0  0  0  0
   -2.4060    4.1130    0.3320 C   0  0  0  0  0  0  0  0  0  0  0  0
   -3.0490    4.5960   -0.7840 C   0  0  0  0  0  0  0  0  0  0  0  0
   -2.6730    6.0410   -0.8560 C   0  0  0  0  0  0  0  0  0  0  0  0
   -1.8010    6.2470    0.2490 N   0  0  0  0  0  0  0  0  0  0  0  0
   -1.6680    5.1850    0.8980 C   0  0  0  0  0  0  0  0  0  0  0  0
   -0.1050    2.4960    0.8410 N   0  0  0  0  0  0  0  0  0  0  0  0
    1.0430    1.8110    0.8270 C   0  0  0  0  0  0  0  0  0  0  0  0
    2.1440    2.4170    0.9350 O   0  0  0  0  0  0  0  0  0  0  0  0
  1  2  2  0
  2  3  1  0
  3  4  1  0
  4  5  1  0
  4  6  1  0
  6  7  2  0
  6  8  1  0
  8  9  1  0
  9 10  1  0
 10 11  2  0
 10 27  1  0
 11 12  1  0
 13 12  1  6
 12 19  2  0
 13 14  1  0
 13 15  1  0
 14 15  1  0
 15 16  1  1
 16 17  1  0
 17 18  1  0
 19 20  1  0
 19 26  1  0
 20 21  1  0
 21 22  2  0
 21 25  1  0
 22 23  1  0
 23 24  1  0
 24 25  2  0
 26 27  1  0
 27 28  2  0
M  CHG  1  18   1
M  END
