
     RDKit          3D

 28 29  0  0  0  0  0  0  0  0999 V2000
   -5.3110    2.2340    1.7150 C   0  0  0  0  0  0  0  0  0  0  0  0
   -5.3030    0.7370    1.7050 C   0  0  0  0  0  0  0  0  0  0  0  0
   -5.3900    0.1760    0.3480 N   0  0  0  0  0  0  0  0  0  0  0  0
   -4.2010   -0.0890   -0.3620 C   0  0  0  0  0  0  0  0  0  0  0  0
   -4.2010   -0.5560   -1.4990 O   0  0  0  0  0  0  0  0  0  0  0  0
   -2.8620    0.1950    0.2590 C   0  0  0  0  0  0  0  0  0  0  0  0
   -1.8070   -0.1820   -0.7170 C   0  0  0  0  0  0  0  0  0  0  0  0
   -0.4150    0.0440   -0.2450 C   0  0  2  0  0  0  0  0  0  0  0  0
    0.5440   -0.3710   -1.3070 C   0  0  0  0  0  0  0  0  0  0  0  0
    1.9230   -0.7030   -0.8400 C   0  0  0  0  0  0  0  0  0  0  0  0
    2.1870    0.0400    0.4220 C   0  0  0  0  0  0  0  0  0  0  0  0
    3.2330    0.8160    0.5640 N   0  0  0  0  0  0  0  0  0  0  0  0
    4.1180    0.9400   -0.5060 N   0  0  0  0  0  0  0  0  0  0  0  0
    5.5310    0.7260   -0.1730 C   0  0  0  0  0  0  0  0  0  0  0  0
    6.0880    1.7710    0.5900 N   0  0  0  0  0  0  0  0  0  0  0  0
    6.1050   -0.3480   -0.5890 C   0  0  0  0  0  0  0  0  0  0  0  0
    7.4750   -0.8300   -0.4190 C   0  0  2  0  0  0  0  0  0  0  0  0
    7.5070   -2.2740    0.0800 C   0  0  0  0  0  0  0  0  0  0  0  0
    8.4170    0.0280    0.3640 C   0  0  0  0  0  0  0  0  0  0  0  0
    1.2180   -0.1410    1.4920 C   0  0  0  0  0  0  0  0  0  0  0  0
    1.5450    0.0920    2.6740 O   0  0  0  0  0  0  0  0  0  0  0  0
   -0.1400   -0.6050    1.1070 C   0  0  0  0  0  0  0  0  0  0  0  0
   -6.6850   -0.0690   -0.1690 C   0  0  0  0  0  0  0  0  0  0  0  0
   -7.8360    0.1980    0.4900 C   0  0  0  0  0  0  0  0  0  0  0  0
   -8.9750   -0.1680   -0.3100 C   0  0  0  0  0  0  0  0  0  0  0  0
   -8.6100   -0.6610   -1.4640 C   0  0  0  0  0  0  0  0  0  0  0  0
   -7.1310   -0.6250   -1.4350 C   0  0  0  0  0  0  0  0  0  0  0  0
   -6.3890   -1.0390   -2.4180 N   0  0  0  0  0  0  0  0  0  0  0  0
  1  2  1  0
  2  3  1  0
  3  4  1  0
  3 23  1  0
  4  5  2  0
  4  6  1  0
  6  7  1  0
  8  7  1  6
  8  9  1  0
  8 22  1  0
  9 10  1  0
 10 11  1  0
 11 12  2  3
 11 20  1  0
 12 13  1  0
 13 14  1  0
 14 15  1  0
 14 16  2  3
 16 17  1  0
 17 18  1  1
 17 19  1  0
 20 21  2  0
 20 22  1  0
 23 24  2  0
 23 27  1  0
 24 25  1  0
 25 26  2  0
 26 27  1  0
 27 28  2  0
M  CHG  1  15   1
M  END
