
     RDKit          3D

 28 29  0  0  0  0  0  0  0  0999 V2000
   -8.4270    1.8470    0.8870 C   0  0  0  0  0  0  0  0  0  0  0  0
   -7.2360    1.1650    1.4130 C   0  0  0  0  0  0  0  0  0  0  0  0
   -6.1850    0.8030    0.6230 C   0  0  0  0  0  0  0  0  0  0  0  0
   -6.2860    1.1250   -0.8050 C   0  0  0  0  0  0  0  0  0  0  0  0
   -5.0810    0.1430    1.2450 C   0  0  0  0  0  0  0  0  0  0  0  0
   -3.9740   -0.3170    0.8280 C   0  0  0  0  0  0  0  0  0  0  0  0
   -3.3460   -0.3710   -0.4690 C   0  0  0  0  0  0  0  0  0  0  0  0
   -3.7520    0.0590   -1.5690 N   0  0  0  0  0  0  0  0  0  0  0  0
   -2.9100   -0.1380   -2.6510 N   0  0  0  0  0  0  0  0  0  0  0  0
   -1.7730   -0.8060   -2.1340 C   0  0  0  0  0  0  0  0  0  0  0  0
   -0.7510   -1.1080   -2.7840 O   0  0  0  0  0  0  0  0  0  0  0  0
   -2.0490   -1.0600   -0.7050 C   0  0  2  0  0  0  0  0  0  0  0  0
   -2.0990   -2.5500   -0.5360 C   0  0  0  0  0  0  0  0  0  0  0  0
   -2.4900   -3.0630    0.7940 C   0  0  0  0  0  0  0  0  0  0  0  0
   -1.0950   -0.4230    0.1690 N   0  0  0  0  0  0  0  0  0  0  0  0
    0.2710   -0.7420   -0.0770 C   0  0  2  0  0  0  0  0  0  0  0  0
    0.8650   -1.2420    1.2470 C   0  0  0  0  0  0  0  0  0  0  0  0
    1.0850    0.4370   -0.4640 C   0  0  0  0  0  0  0  0  0  0  0  0
    0.5240    1.5580   -0.5060 O   0  0  0  0  0  0  0  0  0  0  0  0
    2.4630    0.3370   -0.7860 N   0  0  0  0  0  0  0  0  0  0  0  0
    3.1880   -0.9190   -0.7690 C   0  0  0  0  0  0  0  0  0  0  0  0
    4.4540   -0.8230    0.0500 C   0  0  0  0  0  0  0  0  0  0  0  0
    5.2720    0.3620   -0.4300 C   0  0  2  0  0  0  0  0  0  0  0  0
    6.4830    0.4660    0.3200 N   0  0  0  0  0  0  0  0  0  0  0  0
    7.3790    1.3740   -0.3590 C   0  0  0  0  0  0  0  0  0  0  0  0
    8.6920    1.5270    0.3770 C   0  0  0  0  0  0  0  0  0  0  0  0
    4.4020    1.5870   -0.1710 C   0  0  0  0  0  0  0  0  0  0  0  0
    3.2490    1.5030   -1.1580 C   0  0  0  0  0  0  0  0  0  0  0  0
  1  2  1  0
  2  3  2  3
  3  4  1  0
  3  5  1  0
  5  6  2  3
  6  7  1  0
  7  8  2  0
  7 12  1  0
  8  9  1  0
  9 10  1  0
 10 11  2  0
 10 12  1  0
 12 13  1  6
 12 15  1  0
 13 14  1  0
 15 16  1  0
 16 17  1  1
 16 18  1  0
 18 19  2  0
 18 20  1  0
 20 21  1  0
 20 28  1  0
 21 22  1  0
 22 23  1  0
 23 24  1  1
 23 27  1  0
 24 25  1  0
 25 26  1  0
 27 28  1  0
M  CHG  1  15   1
M  END
