
     RDKit          3D

 28 29  0  0  0  0  0  0  0  0999 V2000
   10.4370   -0.3360    0.0780 C   0  0  0  0  0  0  0  0  0  0  0  0
    9.2630   -0.8060    0.4730 C   0  0  0  0  0  0  0  0  0  0  0  0
    8.0410   -0.2220   -0.0550 C   0  0  0  0  0  0  0  0  0  0  0  0
    6.8840   -0.6920    0.3390 C   0  0  0  0  0  0  0  0  0  0  0  0
    6.8360   -1.7750    1.2880 N   0  0  0  0  0  0  0  0  0  0  0  0
    5.6170   -0.2270   -0.1060 N   0  0  0  0  0  0  0  0  0  0  0  0
    4.6200    0.2940    0.7720 C   0  0  0  0  0  0  0  0  0  0  0  0
    4.9250    0.3320    1.9890 O   0  0  0  0  0  0  0  0  0  0  0  0
    3.3690    0.7380    0.3330 N   0  0  0  0  0  0  0  0  0  0  0  0
    2.9200    0.7430   -1.0510 C   0  0  0  0  0  0  0  0  0  0  0  0
    1.5080    0.1420   -0.9490 C   0  0  0  0  0  0  0  0  0  0  0  0
    0.5440    1.1070   -0.4260 N   0  0  0  0  0  0  0  0  0  0  0  0
   -0.4820    0.2930    0.2130 C   0  0  0  0  0  0  0  0  0  0  0  0
   -1.7760    0.9670    0.4710 C   0  0  2  0  0  0  0  0  0  0  0  0
   -1.5870    2.0920    1.2560 O   0  0  0  0  0  0  0  0  0  0  0  0
   -2.6650    0.0530    1.3020 C   0  0  0  0  0  0  0  0  0  0  0  0
   -2.8300   -1.2640    0.8150 N   0  0  0  0  0  0  0  0  0  0  0  0
   -4.0120   -1.4500   -0.0060 C   0  0  1  0  0  0  0  0  0  0  0  0
   -5.2160   -1.8330    0.8430 C   0  0  0  0  0  0  0  0  0  0  0  0
   -6.4080   -2.0050   -0.0730 C   0  0  0  0  0  0  0  0  0  0  0  0
   -7.6490   -2.3980    0.7150 C   0  0  0  0  0  0  0  0  0  0  0  0
   -4.2950   -0.3400   -0.9540 C   0  0  0  0  0  0  0  0  0  0  0  0
   -3.0140    0.1630   -1.5430 C   0  0  0  0  0  0  0  0  0  0  0  0
   -2.5000    1.3740   -0.7870 C   0  0  1  0  0  0  0  0  0  0  0  0
   -3.6030    2.3460   -0.4770 C   0  0  0  0  0  0  0  0  0  0  0  0
   -1.5450    2.0780   -1.7390 C   0  0  0  0  0  0  0  0  0  0  0  0
    1.2480    1.9380    0.5350 C   0  0  0  0  0  0  0  0  0  0  0  0
    2.3740    1.2190    1.2670 C   0  0  0  0  0  0  0  0  0  0  0  0
  1  2  2  0
  2  3  1  0
  3  4  2  3
  4  5  1  0
  4  6  1  0
  6  7  1  0
  7  8  2  0
  7  9  1  0
  9 10  1  0
  9 28  1  0
 10 11  1  0
 11 12  1  0
 12 13  1  0
 12 27  1  0
 13 14  1  0
 14 15  1  1
 14 16  1  0
 14 24  1  0
 16 17  1  0
 17 18  1  0
 18 19  1  1
 18 22  1  0
 19 20  1  0
 20 21  1  0
 22 23  1  0
 23 24  1  0
 24 25  1  1
 24 26  1  0
 27 28  1  0
M  CHG  1  17   1
M  END
