
     RDKit          3D

 28 30  0  0  0  0  0  0  0  0999 V2000
    7.4700    0.5710   -0.0960 C   0  0  0  0  0  0  0  0  0  0  0  0
    6.1060    0.5560   -0.1890 O   0  0  0  0  0  0  0  0  0  0  0  0
    5.4420    0.5160    1.0030 C   0  0  0  0  0  0  0  0  0  0  0  0
    3.9570    0.4950    0.9440 C   0  0  0  0  0  0  0  0  0  0  0  0
    3.3010    1.6790    0.2890 C   0  0  1  0  0  0  0  0  0  0  0  0
    3.6720    2.9210    1.0240 C   0  0  0  0  0  0  0  0  0  0  0  0
    3.2360    2.8050    2.3390 O   0  0  0  0  0  0  0  0  0  0  0  0
    3.6040    1.6810   -1.1510 C   0  0  0  0  0  0  0  0  0  0  0  0
    4.7250    2.0700   -1.7770 N   0  0  0  0  0  0  0  0  0  0  0  0
    4.5620    1.9000   -3.0760 N   0  0  0  0  0  0  0  0  0  0  0  0
    3.3630    1.4150   -3.2550 N   0  0  0  0  0  0  0  0  0  0  0  0
    2.7460    1.2670   -2.1020 N   0  0  0  0  0  0  0  0  0  0  0  0
    1.4230    0.7710   -1.8540 C   0  0  0  0  0  0  0  0  0  0  0  0
    0.3190    1.5770   -2.0470 C   0  0  0  0  0  0  0  0  0  0  0  0
   -0.9700    1.1330   -1.8200 C   0  0  0  0  0  0  0  0  0  0  0  0
   -1.2140   -0.1510   -1.3840 C   0  0  0  0  0  0  0  0  0  0  0  0
   -2.5880   -0.6590   -1.1320 C   0  0  1  0  0  0  0  0  0  0  0  0
   -2.8840   -1.8580   -1.9610 C   0  0  0  0  0  0  0  0  0  0  0  0
   -4.3540   -2.1360   -1.8050 C   0  0  0  0  0  0  0  0  0  0  0  0
   -4.9730   -1.8460   -0.6670 C   0  0  0  0  0  0  0  0  0  0  0  0
   -6.4250   -2.1410   -0.5710 C   0  0  0  0  0  0  0  0  0  0  0  0
   -4.2840   -1.2560    0.4730 C   0  0  0  0  0  0  0  0  0  0  0  0
   -4.9830   -0.9910    1.5530 C   0  0  0  0  0  0  0  0  0  0  0  0
   -4.4270   -0.3900    2.8010 C   0  0  0  0  0  0  0  0  0  0  0  0
   -4.6970   -1.3870    3.8510 N   0  0  0  0  0  0  0  0  0  0  0  0
   -2.8250   -0.9890    0.3280 C   0  0  0  0  0  0  0  0  0  0  0  0
   -0.1180   -0.9620   -1.1890 C   0  0  0  0  0  0  0  0  0  0  0  0
    1.1680   -0.5120   -1.4180 C   0  0  0  0  0  0  0  0  0  0  0  0
  1  2  1  0
  2  3  1  0
  3  4  1  0
  5  4  1  1
  5  6  1  0
  5  8  1  0
  6  7  1  0
  8  9  2  0
  8 12  1  0
  9 10  1  0
 10 11  2  0
 11 12  1  0
 12 13  1  0
 13 14  2  0
 13 28  1  0
 14 15  1  0
 15 16  2  0
 17 16  1  1
 16 27  1  0
 17 18  1  0
 17 26  1  0
 18 19  1  0
 19 20  2  0
 20 21  1  0
 20 22  1  0
 22 23  2  3
 22 26  1  0
 23 24  1  0
 24 25  1  0
 27 28  2  0
M  CHG  1  25   1
M  END
