
     RDKit          3D

 36 39  0  0  0  0  0  0  0  0999 V2000
   -3.9150    2.3340   -2.6550 C   0  0  0  0  0  0  0  0  0  0  0  0
   -4.0710    3.3940   -1.6060 C   0  0  0  0  0  0  0  0  0  0  0  0
   -4.5840    4.6260   -1.9230 C   0  0  0  0  0  0  0  0  0  0  0  0
   -4.7350    5.6110   -0.9760 C   0  0  0  0  0  0  0  0  0  0  0  0
   -4.3460    5.2950    0.3030 C   0  0  0  0  0  0  0  0  0  0  0  0
   -3.8230    4.0440    0.6350 C   0  0  0  0  0  0  0  0  0  0  0  0
   -3.6700    3.0570   -0.3090 C   0  0  0  0  0  0  0  0  0  0  0  0
   -3.1520    1.7640   -0.0720 N   0  0  0  0  0  0  0  0  0  0  0  0
   -2.7010    1.2280    1.1500 C   0  0  0  0  0  0  0  0  0  0  0  0
   -2.7410    1.9330    2.1770 O   0  0  0  0  0  0  0  0  0  0  0  0
   -2.1730   -0.1740    1.2520 C   0  0  1  0  0  0  0  0  0  0  0  0
   -3.1950   -1.1890    0.8340 C   0  0  0  0  0  0  0  0  0  0  0  0
   -2.5010   -2.1080   -0.0540 N   0  0  0  0  0  0  0  0  0  0  0  0
   -2.8480   -3.4740   -0.2310 C   0  0  0  0  0  0  0  0  0  0  0  0
   -2.1740   -4.1900   -1.0330 O   0  0  0  0  0  0  0  0  0  0  0  0
   -3.9720   -4.1170    0.4800 C   0  0  0  0  0  0  0  0  0  0  0  0
   -4.1110   -5.5700    0.1040 C   0  0  0  0  0  0  0  0  0  0  0  0
   -4.3500   -5.7460   -1.3030 N   0  0  0  0  0  0  0  0  0  0  0  0
   -1.4260   -1.4040   -0.7040 C   0  0  0  0  0  0  0  0  0  0  0  0
   -1.0390   -0.3130    0.2690 C   0  0  2  0  0  0  0  0  0  0  0  0
    0.1380   -0.6880    1.0270 N   0  0  0  0  0  0  0  0  0  0  0  0
    1.3070   -0.8820    0.2160 C   0  0  0  0  0  0  0  0  0  0  0  0
    2.4380   -0.0150    0.6920 C   0  0  0  0  0  0  0  0  0  0  0  0
    2.9940    0.8920   -0.0950 C   0  0  0  0  0  0  0  0  0  0  0  0
    2.4480    0.9900   -1.4260 N   0  0  0  0  0  0  0  0  0  0  0  0
    4.1050    1.7700    0.3410 C   0  0  0  0  0  0  0  0  0  0  0  0
    4.9840    1.2070    1.3970 C   0  0  2  0  0  0  0  0  0  0  0  0
    6.2180    0.6930    0.6970 C   0  0  0  0  0  0  0  0  0  0  0  0
    6.0830   -0.3960   -0.1480 C   0  0  0  0  0  0  0  0  0  0  0  0
    7.1910   -0.8940   -0.8050 C   0  0  0  0  0  0  0  0  0  0  0  0
    8.4240   -0.3100   -0.6210 C   0  0  0  0  0  0  0  0  0  0  0  0
    8.5330    0.7790    0.2290 C   0  0  0  0  0  0  0  0  0  0  0  0
    7.4340    1.2780    0.8850 C   0  0  0  0  0  0  0  0  0  0  0  0
    4.3960    0.1520    2.2630 C   0  0  0  0  0  0  0  0  0  0  0  0
    2.9690   -0.1370    2.0420 C   0  0  0  0  0  0  0  0  0  0  0  0
    2.1850   -0.4850    2.9680 O   0  0  0  0  0  0  0  0  0  0  0  0
  1  2  1  0
  2  3  2  0
  2  7  1  0
  3  4  1  0
  4  5  2  0
  5  6  1  0
  6  7  2  0
  7  8  1  0
  8  9  1  0
  9 10  2  0
 11  9  1  6
 11 12  1  0
 11 20  1  0
 12 13  1  0
 13 14  1  0
 13 19  1  0
 14 15  2  0
 14 16  1  0
 16 17  1  0
 17 18  1  0
 19 20  1  0
 20 21  1  1
 21 22  1  0
 22 23  1  0
 23 24  2  0
 23 35  1  0
 24 25  1  0
 24 26  1  0
 26 27  1  0
 27 28  1  6
 27 34  1  0
 28 29  2  0
 28 33  1  0
 29 30  1  0
 30 31  2  0
 31 32  1  0
 32 33  2  0
 34 35  1  0
 35 36  2  0
M  CHG  2  18   1  21   1
M  END
