
     RDKit          3D

 37 40  0  0  0  0  0  0  0  0999 V2000
    2.8620    4.9090    2.7040 C   0  0  0  0  0  0  0  0  0  0  0  0
    3.0380    3.4240    2.6850 C   0  0  0  0  0  0  0  0  0  0  0  0
    3.7090    2.8150    3.5450 O   0  0  0  0  0  0  0  0  0  0  0  0
    2.4470    2.7160    1.7010 O   0  0  0  0  0  0  0  0  0  0  0  0
    2.4410    1.3570    1.4270 C   0  0  1  0  0  0  0  0  0  0  0  0
    1.1030    0.7610    1.9730 C   0  0  0  0  0  0  0  0  0  0  0  0
    0.2370    0.8950    0.8010 C   0  0  1  0  0  0  0  0  0  0  0  0
   -0.2010    2.3030    0.6390 C   0  0  0  0  0  0  0  0  0  0  0  0
    1.1300    0.4570   -0.3520 C   0  0  1  0  0  0  0  0  0  0  0  0
    0.4660    0.6170   -1.6460 C   0  0  0  0  0  0  0  0  0  0  0  0
   -0.9710    0.1270   -1.6870 C   0  0  1  0  0  0  0  0  0  0  0  0
   -1.0360   -1.1590   -2.2140 O   0  0  0  0  0  0  0  0  0  0  0  0
   -1.7380    0.2990   -0.4260 C   0  0  1  0  0  0  0  0  0  0  0  0
   -3.1360   -0.1820   -0.4580 C   0  0  1  0  0  0  0  0  0  0  0  0
   -4.1400    0.9780   -0.3380 C   0  0  0  0  0  0  0  0  0  0  0  0
   -3.5360   -0.9200   -1.7270 C   0  0  0  0  0  0  0  0  0  0  0  0
   -5.0210   -1.1230   -1.8050 C   0  0  0  0  0  0  0  0  0  0  0  0
   -5.7510   -1.2060   -0.5320 C   0  0  1  0  0  0  0  0  0  0  0  0
   -6.6700   -2.2860   -0.6310 O   0  0  0  0  0  0  0  0  0  0  0  0
   -4.9930   -1.3770    0.7110 C   0  0  1  0  0  0  0  0  0  0  0  0
   -5.1950   -2.7850    1.2980 C   0  0  0  0  0  0  0  0  0  0  0  0
   -3.5120   -1.1530    0.6420 C   0  0  2  0  0  0  0  0  0  0  0  0
   -2.9980   -0.7920    1.9860 C   0  0  0  0  0  0  0  0  0  0  0  0
   -1.8270    0.1530    1.9990 C   0  0  0  0  0  0  0  0  0  0  0  0
   -0.9430   -0.0750    0.8060 C   0  0  2  0  0  0  0  0  0  0  0  0
   -0.4800   -1.4790    0.8540 C   0  0  0  0  0  0  0  0  0  0  0  0
    2.4070    1.0500   -0.0240 C   0  0  0  0  0  0  0  0  0  0  0  0
    3.4650    1.2290   -0.7990 C   0  0  0  0  0  0  0  0  0  0  0  0
    3.5150    0.9650   -2.2590 C   0  0  0  0  0  0  0  0  0  0  0  0
    4.4310   -0.2620   -2.4290 C   0  0  0  0  0  0  0  0  0  0  0  0
    3.8600   -1.4210   -1.6910 C   0  0  0  0  0  0  0  0  0  0  0  0
    4.4560   -2.0820   -0.7240 C   0  0  0  0  0  0  0  0  0  0  0  0
    5.8090   -1.7060   -0.2740 C   0  0  0  0  0  0  0  0  0  0  0  0
    3.7660   -3.2160   -0.0750 C   0  0  0  0  0  0  0  0  0  0  0  0
    4.7290    1.6360   -0.1570 C   0  0  0  0  0  0  0  0  0  0  0  0
    4.9680    1.8080    1.0160 O   0  0  0  0  0  0  0  0  0  0  0  0
    5.8180    1.8590   -1.0370 O   0  0  0  0  0  0  0  0  0  0  0  0
  1  2  1  0
  2  3  2  0
  2  4  1  0
  5  4  1  6
  5  6  1  0
  5 27  1  0
  6  7  1  0
  7  8  1  6
  7  9  1  0
  7 25  1  0
  9 10  1  6
  9 27  1  0
 10 11  1  0
 11 12  1  1
 13 11  1  6
 13 14  1  0
 13 25  1  0
 14 15  1  1
 14 16  1  0
 14 22  1  0
 16 17  1  0
 17 18  1  0
 18 19  1  6
 18 20  1  0
 20 21  1  6
 20 22  1  0
 22 23  1  1
 23 24  1  0
 24 25  1  0
 25 26  1  6
 27 28  2  3
 28 29  1  0
 28 35  1  0
 29 30  1  0
 30 31  1  0
 31 32  2  3
 32 33  1  0
 32 34  1  0
 35 36  2  0
 35 37  1  0
M  END
