
     RDKit          3D

 36 39  0  0  0  0  0  0  0  0999 V2000
   -4.8530    0.7650    1.0680 N   0  0  0  0  0  0  0  0  0  0  0  0
   -3.6780    1.2420    1.6250 C   0  0  0  0  0  0  0  0  0  0  0  0
   -3.8650    1.8800    2.7700 O   0  0  0  0  0  0  0  0  0  0  0  0
   -2.3080    1.1620    1.1870 C   0  0  0  0  0  0  0  0  0  0  0  0
   -1.9560    0.5700   -0.0010 N   0  0  0  0  0  0  0  0  0  0  0  0
   -2.2490    1.3060   -1.1780 C   0  0  0  0  0  0  0  0  0  0  0  0
   -3.5910    1.7020   -1.4870 C   0  0  0  0  0  0  0  0  0  0  0  0
   -4.4890    0.8950   -2.1270 C   0  0  0  0  0  0  0  0  0  0  0  0
   -5.7770    1.3500   -2.4300 C   0  0  0  0  0  0  0  0  0  0  0  0
   -6.1470    2.6000   -2.0910 N   0  0  0  0  0  0  0  0  0  0  0  0
   -5.2970    3.4290   -1.4610 C   0  0  0  0  0  0  0  0  0  0  0  0
   -5.7650    4.7350   -1.1380 N   0  0  0  0  0  0  0  0  0  0  0  0
   -4.0280    2.9940   -1.1560 C   0  0  0  0  0  0  0  0  0  0  0  0
   -1.2480   -0.6260   -0.1280 C   0  0  1  0  0  0  0  0  0  0  0  0
    0.1910   -0.5400    0.2320 C   0  0  0  0  0  0  0  0  0  0  0  0
    0.8900    0.6150   -0.0190 C   0  0  0  0  0  0  0  0  0  0  0  0
    2.2580    0.7480    0.2570 C   0  0  0  0  0  0  0  0  0  0  0  0
    2.9420   -0.3050    0.8000 C   0  0  0  0  0  0  0  0  0  0  0  0
    4.3570   -0.1920    1.0900 C   0  0  0  0  0  0  0  0  0  0  0  0
    5.0160   -1.1400    1.6060 O   0  0  0  0  0  0  0  0  0  0  0  0
    5.0160    0.9760    0.8010 O   0  0  0  0  0  0  0  0  0  0  0  0
    6.3630    1.2400    1.0160 C   0  0  0  0  0  0  0  0  0  0  0  0
    7.2350    0.2710    0.2230 C   0  0  1  0  0  0  0  0  0  0  0  0
    6.9420    0.4080   -1.2260 C   0  0  0  0  0  0  0  0  0  0  0  0
    8.2830    0.6600   -1.8960 C   0  0  0  0  0  0  0  0  0  0  0  0
    9.0860    1.3740   -0.8220 C   0  0  0  0  0  0  0  0  0  0  0  0
    8.6530    0.6790    0.4260 C   0  0  0  0  0  0  0  0  0  0  0  0
    2.2460   -1.4500    1.0480 C   0  0  0  0  0  0  0  0  0  0  0  0
    0.9060   -1.5730    0.7750 C   0  0  0  0  0  0  0  0  0  0  0  0
   -1.8800   -1.9230    0.2520 C   0  0  2  0  0  0  0  0  0  0  0  0
   -3.1010   -2.0930   -0.7080 C   0  0  0  0  0  0  0  0  0  0  0  0
   -3.5770   -3.5000   -0.7640 C   0  0  0  0  0  0  0  0  0  0  0  0
   -3.9720   -3.9060    0.6450 C   0  0  0  0  0  0  0  0  0  0  0  0
   -2.8750   -3.6570    1.6160 C   0  0  0  0  0  0  0  0  0  0  0  0
   -2.3840   -2.1740    1.5880 C   0  0  1  0  0  0  0  0  0  0  0  0
   -1.6070   -2.0090    2.7530 N   0  0  0  0  0  0  0  0  0  0  0  0
  1  2  1  0
  2  3  2  0
  2  4  1  0
  4  5  1  0
  5  6  1  0
 14  5  1  1
  6  7  1  0
  7  8  2  0
  7 13  1  0
  8  9  1  0
  9 10  2  0
 10 11  1  0
 11 12  1  0
 11 13  2  0
 14 15  1  0
 14 30  1  0
 15 16  2  0
 15 29  1  0
 16 17  1  0
 17 18  2  0
 18 19  1  0
 18 28  1  0
 19 20  2  0
 19 21  1  0
 21 22  1  0
 23 22  1  1
 23 24  1  0
 23 27  1  0
 24 25  1  0
 25 26  1  0
 26 27  1  0
 28 29  2  0
 30 31  1  6
 30 35  1  0
 31 32  1  0
 32 33  1  0
 33 34  1  0
 34 35  1  0
 35 36  1  1
M  CHG  2  10   1  36   1
M  END
