
     RDKit          3D

 36 39  0  0  0  0  0  0  0  0999 V2000
   -3.8830   -0.2350    2.0920 C   0  0  0  0  0  0  0  0  0  0  0  0
   -3.6090   -0.3280    0.6090 C   0  0  2  0  0  0  0  0  0  0  0  0
   -4.5480   -1.2060    0.0070 N   0  0  0  0  0  0  0  0  0  0  0  0
   -5.9100   -0.7580    0.0890 C   0  0  2  0  0  0  0  0  0  0  0  0
   -6.7580   -1.8670   -0.5310 C   0  0  0  0  0  0  0  0  0  0  0  0
   -8.2100   -1.5080   -0.3590 C   0  0  0  0  0  0  0  0  0  0  0  0
   -8.5400   -0.1710   -0.9840 C   0  0  0  0  0  0  0  0  0  0  0  0
   -7.5750    0.9000   -0.5720 C   0  0  1  0  0  0  0  0  0  0  0  0
   -7.9270    2.1770   -1.2930 C   0  0  0  0  0  0  0  0  0  0  0  0
   -8.8940    2.8610   -0.3570 C   0  0  0  0  0  0  0  0  0  0  0  0
   -8.6220    2.3770    0.9720 N   0  0  0  0  0  0  0  0  0  0  0  0
   -7.7030    1.2770    0.8850 C   0  0  0  0  0  0  0  0  0  0  0  0
   -6.1400    0.4750   -0.7930 C   0  0  0  0  0  0  0  0  0  0  0  0
   -2.2210   -0.8800    0.3740 C   0  0  0  0  0  0  0  0  0  0  0  0
   -2.1150   -1.9570   -0.2520 O   0  0  0  0  0  0  0  0  0  0  0  0
   -1.0820   -0.2220    0.8290 N   0  0  0  0  0  0  0  0  0  0  0  0
    0.2630   -0.6030    0.6760 C   0  0  0  0  0  0  0  0  0  0  0  0
    1.2600    0.1600    1.3120 C   0  0  0  0  0  0  0  0  0  0  0  0
    2.6020   -0.1280    1.1910 C   0  0  0  0  0  0  0  0  0  0  0  0
    3.0230   -1.1990    0.4240 C   0  0  0  0  0  0  0  0  0  0  0  0
    4.4250   -1.4590    0.2870 N   0  0  0  0  0  0  0  0  0  0  0  0
    4.8950   -2.4920   -0.6480 C   0  0  0  0  0  0  0  0  0  0  0  0
    5.4160   -0.8550    1.0800 C   0  0  0  0  0  0  0  0  0  0  0  0
    5.1510   -0.5620    2.2940 O   0  0  0  0  0  0  0  0  0  0  0  0
    6.7500   -0.5130    0.6370 C   0  0  0  0  0  0  0  0  0  0  0  0
    7.1500   -0.5350   -0.6740 C   0  0  0  0  0  0  0  0  0  0  0  0
    8.4610   -0.2190   -1.0660 C   0  0  0  0  0  0  0  0  0  0  0  0
    9.4140    0.1340   -0.1420 C   0  0  0  0  0  0  0  0  0  0  0  0
   10.8090    0.4780   -0.5930 C   0  0  0  0  0  0  0  0  0  0  0  0
   10.7820    1.9680   -0.9280 C   0  0  0  0  0  0  0  0  0  0  0  0
   12.0610    2.4430   -1.3810 N   0  0  0  0  0  0  0  0  0  0  0  0
    9.0320    0.1620    1.1810 C   0  0  0  0  0  0  0  0  0  0  0  0
    7.7450   -0.1510    1.5530 C   0  0  0  0  0  0  0  0  0  0  0  0
    2.0830   -1.9670   -0.2130 C   0  0  0  0  0  0  0  0  0  0  0  0
    2.3920   -3.0520   -1.0010 O   0  0  0  0  0  0  0  0  0  0  0  0
    0.7160   -1.6520   -0.0730 C   0  0  0  0  0  0  0  0  0  0  0  0
  2  1  1  1
  2  3  1  0
  2 14  1  0
  4  3  1  6
  4  5  1  0
  4 13  1  0
  5  6  1  0
  6  7  1  0
  8  7  1  6
  8  9  1  0
  8 12  1  0
  8 13  1  0
  9 10  1  0
 10 11  1  0
 11 12  1  0
 14 15  2  0
 14 16  1  0
 16 17  1  0
 17 18  2  0
 17 36  1  0
 18 19  1  0
 19 20  2  0
 20 21  1  0
 20 34  1  0
 21 22  1  0
 21 23  1  0
 23 24  2  0
 23 25  1  0
 25 26  2  0
 25 33  1  0
 26 27  1  0
 27 28  2  0
 28 29  1  0
 28 32  1  0
 29 30  1  0
 30 31  1  0
 32 33  2  0
 34 35  1  0
 34 36  2  0
M  CHG  2  11   1  31   1
M  END
