
     RDKit          3D

 36 39  0  0  0  0  0  0  0  0999 V2000
   -8.9560   -1.7650   -0.7950 C   0  0  0  0  0  0  0  0  0  0  0  0
   -7.5980   -2.2140   -0.2780 C   0  0  0  0  0  0  0  0  0  0  0  0
   -6.5930   -1.6990   -1.1540 N   0  0  0  0  0  0  0  0  0  0  0  0
   -5.3030   -1.4720   -0.4780 C   0  0  1  0  0  0  0  0  0  0  0  0
   -4.3190   -0.9770   -1.5330 C   0  0  0  0  0  0  0  0  0  0  0  0
   -3.9190    0.1080   -0.5310 C   0  0  2  0  0  0  0  0  0  0  0  0
   -2.6050    0.0600   -0.0320 N   0  0  0  0  0  0  0  0  0  0  0  0
   -2.2020   -1.0920    0.6770 C   0  0  0  0  0  0  0  0  0  0  0  0
   -1.6070    0.4540   -0.9500 C   0  0  1  0  0  0  0  0  0  0  0  0
   -1.7210    1.8860   -1.4420 C   0  0  0  0  0  0  0  0  0  0  0  0
   -1.4260    2.8690   -0.3230 C   0  0  0  0  0  0  0  0  0  0  0  0
   -1.1170    2.1230    0.8410 O   0  0  0  0  0  0  0  0  0  0  0  0
    0.1380    1.5210    0.5440 C   0  0  1  0  0  0  0  0  0  0  0  0
    0.8220    1.0860    1.7930 C   0  0  0  0  0  0  0  0  0  0  0  0
    2.1240    0.5230    1.4970 N   0  0  0  0  0  0  0  0  0  0  0  0
    3.1720    1.3220    0.9430 C   0  0  0  0  0  0  0  0  0  0  0  0
    2.9340    2.5400    0.7130 O   0  0  0  0  0  0  0  0  0  0  0  0
    4.5060    0.8500    0.6310 C   0  0  0  0  0  0  0  0  0  0  0  0
    5.5850    1.5700    1.1640 C   0  0  0  0  0  0  0  0  0  0  0  0
    6.8580    1.1090    0.9990 C   0  0  0  0  0  0  0  0  0  0  0  0
    7.1470   -0.0670    0.3100 C   0  0  0  0  0  0  0  0  0  0  0  0
    8.5520   -0.5020    0.1870 C   0  0  0  0  0  0  0  0  0  0  0  0
    9.4410    0.4620    0.8750 N   0  0  0  0  0  0  0  0  0  0  0  0
   10.7830   -0.1200    0.7300 C   0  0  0  0  0  0  0  0  0  0  0  0
    6.0910   -0.7760   -0.2190 C   0  0  0  0  0  0  0  0  0  0  0  0
    6.3180   -2.0000   -0.9360 C   0  0  0  0  0  0  0  0  0  0  0  0
    7.5810   -2.5640   -1.1950 N   0  0  0  0  0  0  0  0  0  0  0  0
    5.3370   -2.6670   -1.3940 O   0  0  0  0  0  0  0  0  0  0  0  0
    4.7830   -0.3110   -0.0540 C   0  0  0  0  0  0  0  0  0  0  0  0
    3.6510   -1.0420   -0.6890 C   0  0  0  0  0  0  0  0  0  0  0  0
   -0.2220    0.3480   -0.3470 C   0  0  0  0  0  0  0  0  0  0  0  0
   -5.1250   -0.1930    0.2220 C   0  0  1  0  0  0  0  0  0  0  0  0
   -6.3130    0.7280   -0.1870 C   0  0  0  0  0  0  0  0  0  0  0  0
   -6.0050    1.9640    0.6460 C   0  0  0  0  0  0  0  0  0  0  0  0
   -5.2180    1.4810    1.8310 C   0  0  0  0  0  0  0  0  0  0  0  0
   -5.2250   -0.0560    1.6840 C   0  0  0  0  0  0  0  0  0  0  0  0
  1  2  1  0
  2  3  1  0
  4  3  1  6
  4  5  1  0
  4 32  1  0
  5  6  1  0
  6  7  1  1
  6 32  1  0
  7  8  1  0
  9  7  1  1
  9 10  1  0
  9 31  1  0
 10 11  1  0
 11 12  1  0
 12 13  1  0
 13 14  1  1
 13 31  1  0
 14 15  1  0
 15 16  1  0
 16 17  2  0
 16 18  1  0
 18 19  2  0
 18 29  1  0
 19 20  1  0
 20 21  2  0
 21 22  1  0
 21 25  1  0
 22 23  1  0
 23 24  1  0
 25 26  1  0
 25 29  2  0
 26 27  1  0
 26 28  2  0
 29 30  1  0
 32 33  1  6
 32 36  1  0
 33 34  1  0
 34 35  1  0
 35 36  1  0
M  CHG  2   3   1  23   1
M  END
