
     RDKit          3D

 36 39  0  0  0  0  0  0  0  0999 V2000
    5.2510    3.0570    1.6190 C   0  0  0  0  0  0  0  0  0  0  0  0
    4.1060    2.1840    1.9810 C   0  0  0  0  0  0  0  0  0  0  0  0
    4.2040    0.8270    1.8480 C   0  0  0  0  0  0  0  0  0  0  0  0
    3.1630    0.0220    2.1760 C   0  0  0  0  0  0  0  0  0  0  0  0
    1.9840    0.5570    2.6510 C   0  0  0  0  0  0  0  0  0  0  0  0
    0.8410   -0.3270    3.0140 C   0  0  0  0  0  0  0  0  0  0  0  0
   -0.0730   -0.5860    1.8000 C   0  0  1  0  0  0  0  0  0  0  0  0
   -0.5610    0.6640    1.3670 N   0  0  0  0  0  0  0  0  0  0  0  0
   -1.7090    0.6610    0.5120 C   0  0  2  0  0  0  0  0  0  0  0  0
   -2.4570    1.9930    0.6010 C   0  0  0  0  0  0  0  0  0  0  0  0
   -3.8440    1.6470    1.0680 C   0  0  0  0  0  0  0  0  0  0  0  0
   -4.0240    0.2800    0.3830 C   0  0  2  0  0  0  0  0  0  0  0  0
   -2.7170   -0.3800    0.7800 C   0  0  0  0  0  0  0  0  0  0  0  0
   -4.1550    0.5060   -1.0160 N   0  0  0  0  0  0  0  0  0  0  0  0
   -4.8840   -0.4670   -1.7580 C   0  0  2  0  0  0  0  0  0  0  0  0
   -5.1420    0.0950   -3.1490 C   0  0  0  0  0  0  0  0  0  0  0  0
   -6.2360   -0.7860   -1.1590 C   0  0  0  0  0  0  0  0  0  0  0  0
   -6.0180   -1.2120    0.2030 N   0  0  0  0  0  0  0  0  0  0  0  0
   -6.7060   -2.3730    0.7180 C   0  0  0  0  0  0  0  0  0  0  0  0
   -5.1270   -0.4710    1.0100 C   0  0  0  0  0  0  0  0  0  0  0  0
   -5.2790   -0.4530    2.2790 O   0  0  0  0  0  0  0  0  0  0  0  0
    0.7660   -1.3340    0.8480 C   0  0  0  0  0  0  0  0  0  0  0  0
    1.1100   -2.5060    1.2280 O   0  0  0  0  0  0  0  0  0  0  0  0
    1.2160   -0.9030   -0.4010 N   0  0  0  0  0  0  0  0  0  0  0  0
    2.0420   -1.6890   -1.2980 C   0  0  1  0  0  0  0  0  0  0  0  0
    1.2520   -1.9770   -2.5300 C   0  0  0  0  0  0  0  0  0  0  0  0
    3.3610   -1.0740   -1.5540 C   0  0  0  0  0  0  0  0  0  0  0  0
    3.4290    0.2730   -1.8110 C   0  0  0  0  0  0  0  0  0  0  0  0
    4.6640    0.8350   -2.0490 C   0  0  0  0  0  0  0  0  0  0  0  0
    5.8170    0.0780   -2.0340 C   0  0  0  0  0  0  0  0  0  0  0  0
    7.0500    0.6680   -2.2760 O   0  0  0  0  0  0  0  0  0  0  0  0
    5.7050   -1.2800   -1.7700 C   0  0  0  0  0  0  0  0  0  0  0  0
    6.8880   -2.0870   -1.7500 N   0  0  0  0  0  0  0  0  0  0  0  0
    4.4800   -1.8570   -1.5310 C   0  0  0  0  0  0  0  0  0  0  0  0
    1.8940    1.9260    2.7830 C   0  0  0  0  0  0  0  0  0  0  0  0
    2.9490    2.7470    2.4500 C   0  0  0  0  0  0  0  0  0  0  0  0
  1  2  1  0
  2  3  2  0
  2 36  1  0
  3  4  1  0
  4  5  2  0
  5  6  1  0
  5 35  1  0
  7  6  1  1
  7  8  1  0
  7 22  1  0
  9  8  1  1
  9 10  1  0
  9 13  1  0
 10 11  1  0
 12 11  1  1
 12 13  1  0
 12 14  1  0
 12 20  1  0
 14 15  1  0
 15 16  1  6
 15 17  1  0
 17 18  1  0
 18 19  1  0
 18 20  1  0
 20 21  2  0
 22 23  2  0
 22 24  1  0
 24 25  1  0
 25 26  1  6
 25 27  1  0
 27 28  2  0
 27 34  1  0
 28 29  1  0
 29 30  2  0
 30 31  1  0
 30 32  1  0
 32 33  1  0
 32 34  2  0
 35 36  2  0
M  CHG  2   8   1  14   1
M  END
