
     RDKit          3D

 36 39  0  0  0  0  0  0  0  0999 V2000
   -0.1720   -2.3970   -2.8660 C   0  0  0  0  0  0  0  0  0  0  0  0
   -0.8990   -1.3660   -2.0620 C   0  0  0  0  0  0  0  0  0  0  0  0
   -2.0020   -0.6840   -2.4470 C   0  0  0  0  0  0  0  0  0  0  0  0
   -2.7010    0.2080   -1.6140 C   0  0  0  0  0  0  0  0  0  0  0  0
   -3.7160    1.1130   -2.1900 C   0  0  0  0  0  0  0  0  0  0  0  0
   -2.2320    0.3790   -0.3300 C   0  0  0  0  0  0  0  0  0  0  0  0
   -2.9030    1.1930    0.6310 O   0  0  0  0  0  0  0  0  0  0  0  0
   -3.6640    0.3200    1.4780 C   0  0  1  0  0  0  0  0  0  0  0  0
   -4.4250    0.8660    2.5910 C   0  0  0  0  0  0  0  0  0  0  0  0
   -5.6020   -0.0240    3.0030 C   0  0  0  0  0  0  0  0  0  0  0  0
   -6.4850   -0.4820    1.9020 C   0  0  0  0  0  0  0  0  0  0  0  0
   -5.8590   -0.1240    0.5490 C   0  0  1  0  0  0  0  0  0  0  0  0
   -6.5980   -0.7830   -0.5890 C   0  0  0  0  0  0  0  0  0  0  0  0
   -7.7690    0.0920   -0.8520 C   0  0  0  0  0  0  0  0  0  0  0  0
   -7.3680    1.3860   -0.2540 C   0  0  0  0  0  0  0  0  0  0  0  0
   -8.0720    2.4760   -0.2110 N   0  0  0  0  0  0  0  0  0  0  0  0
   -6.0320    1.2690    0.2850 N   0  0  0  0  0  0  0  0  0  0  0  0
   -4.4680   -0.6430    0.6010 C   0  0  0  0  0  0  0  0  0  0  0  0
   -1.1130   -0.2720    0.0840 C   0  0  0  0  0  0  0  0  0  0  0  0
   -0.5070    0.1760    1.4400 C   0  0  0  0  0  0  0  0  0  0  0  0
    0.8190    0.4670    0.9330 N   0  0  0  0  0  0  0  0  0  0  0  0
    1.8880   -0.3190    0.6490 C   0  0  0  0  0  0  0  0  0  0  0  0
    1.9350   -1.5100    0.9450 O   0  0  0  0  0  0  0  0  0  0  0  0
    3.0290    0.3350   -0.1060 C   0  0  0  0  0  0  0  0  0  0  0  0
    3.9040   -0.7330   -0.6560 C   0  0  0  0  0  0  0  0  0  0  0  0
    4.6600   -1.4490    0.3850 C   0  0  0  0  0  0  0  0  0  0  0  0
    4.1940   -2.3410    1.1010 O   0  0  0  0  0  0  0  0  0  0  0  0
    6.0320   -1.0030    0.4900 N   0  0  0  0  0  0  0  0  0  0  0  0
    7.0220   -1.4880    1.3950 C   0  0  0  0  0  0  0  0  0  0  0  0
    8.1280   -1.8450    0.3690 C   0  0  0  0  0  0  0  0  0  0  0  0
    7.9150   -0.8140   -0.7410 C   0  0  0  0  0  0  0  0  0  0  0  0
    6.6800    0.0190   -0.3040 C   0  0  2  0  0  0  0  0  0  0  0  0
    7.1720    1.2170    0.4390 C   0  0  1  0  0  0  0  0  0  0  0  0
    7.7480    2.1620   -0.6360 C   0  0  0  0  0  0  0  0  0  0  0  0
    6.1810    1.9450    1.1700 N   0  0  0  0  0  0  0  0  0  0  0  0
   -0.4740   -1.1170   -0.7360 C   0  0  0  0  0  0  0  0  0  0  0  0
  1  2  1  0
  2  3  2  0
  2 36  1  0
  3  4  1  0
  4  5  1  0
  4  6  2  0
  6  7  1  0
  6 19  1  0
  8  7  1  6
  8  9  1  0
  8 18  1  0
  9 10  1  0
 10 11  1  0
 12 11  1  1
 12 13  1  0
 12 17  1  0
 12 18  1  0
 13 14  1  0
 14 15  1  0
 15 16  2  0
 15 17  1  0
 19 20  1  0
 19 36  2  0
 20 21  1  0
 21 22  1  0
 22 23  2  0
 22 24  1  0
 24 25  1  0
 25 26  1  0
 26 27  2  0
 26 28  1  0
 28 29  1  0
 28 32  1  0
 29 30  1  0
 30 31  1  0
 32 31  1  1
 32 33  1  0
 33 34  1  6
 33 35  1  0
M  CHG  2  16   1  35   1
M  END
