
     RDKit          3D

 36 39  0  0  0  0  0  0  0  0999 V2000
   -7.1200   -2.6050   -3.0270 C   0  0  0  0  0  0  0  0  0  0  0  0
   -6.0860   -2.1220   -2.0960 C   0  0  0  0  0  0  0  0  0  0  0  0
   -5.6950   -2.9620   -1.0690 C   0  0  0  0  0  0  0  0  0  0  0  0
   -4.7380   -2.5850   -0.1620 C   0  0  0  0  0  0  0  0  0  0  0  0
   -4.3370   -3.5090    0.9320 C   0  0  0  0  0  0  0  0  0  0  0  0
   -4.1500   -1.3410   -0.2720 C   0  0  0  0  0  0  0  0  0  0  0  0
   -3.1890   -0.9120    0.6040 C   0  0  0  0  0  0  0  0  0  0  0  0
   -2.5670    0.3490    0.5230 C   0  0  0  0  0  0  0  0  0  0  0  0
   -1.5890    0.7310    1.5260 C   0  0  0  0  0  0  0  0  0  0  0  0
   -0.3610    1.1470    1.3160 C   0  0  0  0  0  0  0  0  0  0  0  0
    0.1370    1.2750   -0.0210 N   0  0  0  0  0  0  0  0  0  0  0  0
    0.5710    0.0010   -0.6050 C   0  0  0  0  0  0  0  0  0  0  0  0
    2.0380   -0.0500   -0.8420 C   0  0  0  0  0  0  0  0  0  0  0  0
    2.8770    0.1020    0.3020 N   0  0  0  0  0  0  0  0  0  0  0  0
    2.8510   -0.9590    1.2270 C   0  0  0  0  0  0  0  0  0  0  0  0
    4.0300   -1.8810    1.2150 C   0  0  1  0  0  0  0  0  0  0  0  0
    3.9020   -2.9930    0.1960 C   0  0  0  0  0  0  0  0  0  0  0  0
    5.3460   -1.1990    1.0120 C   0  0  0  0  0  0  0  0  0  0  0  0
    5.2400   -0.3720   -0.2260 C   0  0  2  0  0  0  0  0  0  0  0  0
    6.5020    0.3640   -0.3890 N   0  0  0  0  0  0  0  0  0  0  0  0
    4.1390    0.6290   -0.0700 C   0  0  0  0  0  0  0  0  0  0  0  0
    0.2200    2.4900   -0.7040 C   0  0  1  0  0  0  0  0  0  0  0  0
    1.3930    3.4160   -0.4350 C   0  0  0  0  0  0  0  0  0  0  0  0
    1.4970    3.9260    0.8880 N   0  0  0  0  0  0  0  0  0  0  0  0
   -0.0800    2.5370   -2.1440 C   0  0  0  0  0  0  0  0  0  0  0  0
   -0.4840    1.4700   -2.9310 N   0  0  0  0  0  0  0  0  0  0  0  0
    0.0370    3.6660   -2.7520 O   0  0  0  0  0  0  0  0  0  0  0  0
    0.5280    1.3120    2.4980 C   0  0  0  0  0  0  0  0  0  0  0  0
   -0.2100    2.0630    3.5690 C   0  0  0  0  0  0  0  0  0  0  0  0
   -1.2580    1.1480    3.9820 O   0  0  0  0  0  0  0  0  0  0  0  0
   -2.0620    0.7300    2.9400 C   0  0  0  0  0  0  0  0  0  0  0  0
   -3.2410    0.3220    3.1220 O   0  0  0  0  0  0  0  0  0  0  0  0
   -2.9720    1.1440   -0.4870 C   0  0  0  0  0  0  0  0  0  0  0  0
   -3.9490    0.7610   -1.4140 C   0  0  0  0  0  0  0  0  0  0  0  0
   -4.5260   -0.4750   -1.2970 C   0  0  0  0  0  0  0  0  0  0  0  0
   -5.4900   -0.8670   -2.2030 C   0  0  0  0  0  0  0  0  0  0  0  0
  1  2  1  0
  2  3  2  0
  2 36  1  0
  3  4  1  0
  4  5  1  0
  4  6  2  0
  6  7  1  0
  6 35  1  0
  7  8  2  0
  8  9  1  0
  8 33  1  0
  9 10  2  0
  9 31  1  0
 10 11  1  0
 10 28  1  0
 11 12  1  0
 11 22  1  0
 12 13  1  0
 13 14  1  0
 14 15  1  0
 14 21  1  0
 15 16  1  0
 16 17  1  6
 16 18  1  0
 18 19  1  0
 19 20  1  1
 19 21  1  0
 22 23  1  6
 22 25  1  0
 23 24  1  0
 25 26  1  0
 25 27  2  0
 28 29  1  0
 29 30  1  0
 30 31  1  0
 31 32  2  0
 33 34  2  0
 34 35  1  0
 35 36  2  0
M  CHG  2  20   1  24   1
M  END
