
     RDKit          3D

 36 39  0  0  0  0  0  0  0  0999 V2000
   -1.0320    9.5610    0.7120 C   0  0  0  0  0  0  0  0  0  0  0  0
   -0.9330    8.0920    0.4860 C   0  0  0  0  0  0  0  0  0  0  0  0
   -1.2970    7.5120   -0.7110 C   0  0  0  0  0  0  0  0  0  0  0  0
   -1.2080    6.1610   -0.9250 C   0  0  0  0  0  0  0  0  0  0  0  0
   -0.7360    5.2900    0.0760 C   0  0  0  0  0  0  0  0  0  0  0  0
   -0.6820    3.9150   -0.2440 N   0  0  0  0  0  0  0  0  0  0  0  0
   -0.2940    2.8420    0.5780 C   0  0  0  0  0  0  0  0  0  0  0  0
    0.0600    3.1260    1.7750 O   0  0  0  0  0  0  0  0  0  0  0  0
   -0.2820    1.4960    0.1380 N   0  0  0  0  0  0  0  0  0  0  0  0
    0.1390    0.4620    1.0780 C   0  0  2  0  0  0  0  0  0  0  0  0
    1.3220   -0.2660    0.4900 C   0  0  0  0  0  0  0  0  0  0  0  0
    1.5610   -0.0980   -0.7580 O   0  0  0  0  0  0  0  0  0  0  0  0
    2.1840   -1.1090    1.2080 N   0  0  0  0  0  0  0  0  0  0  0  0
    3.3030   -1.8240    0.7170 C   0  0  0  0  0  0  0  0  0  0  0  0
    3.8830   -2.7690    1.5610 C   0  0  0  0  0  0  0  0  0  0  0  0
    4.9780   -3.5080    1.1880 C   0  0  0  0  0  0  0  0  0  0  0  0
    5.5640   -3.3470   -0.0610 C   0  0  0  0  0  0  0  0  0  0  0  0
    5.0060   -2.4250   -0.8990 C   0  0  0  0  0  0  0  0  0  0  0  0
    3.8780   -1.6630   -0.5130 C   0  0  0  0  0  0  0  0  0  0  0  0
    5.5810   -2.2060   -2.2390 C   0  0  0  0  0  0  0  0  0  0  0  0
    6.2620   -3.4530   -2.6930 C   0  0  0  0  0  0  0  0  0  0  0  0
    7.2570   -3.9180   -1.7480 N   0  0  0  0  0  0  0  0  0  0  0  0
    6.7390   -4.1500   -0.4480 C   0  0  0  0  0  0  0  0  0  0  0  0
   -1.0390   -0.4870    1.2960 C   0  0  2  0  0  0  0  0  0  0  0  0
   -0.6730   -1.5420    2.2500 C   0  0  0  0  0  0  0  0  0  0  0  0
   -1.5800   -0.9490    0.0400 N   0  0  0  0  0  0  0  0  0  0  0  0
   -2.0900   -2.2740    0.0380 C   0  0  0  0  0  0  0  0  0  0  0  0
   -3.5850   -2.3810   -0.0350 C   0  0  1  0  0  0  0  0  0  0  0  0
   -4.3300   -1.7430    1.0720 C   0  0  0  0  0  0  0  0  0  0  0  0
   -5.6840   -1.6760    0.7010 O   0  0  0  0  0  0  0  0  0  0  0  0
   -6.0760   -2.7570   -0.0620 C   0  0  0  0  0  0  0  0  0  0  0  0
   -5.5320   -2.5450   -1.4750 C   0  0  1  0  0  0  0  0  0  0  0  0
   -6.5050   -1.6370   -2.1810 C   0  0  0  0  0  0  0  0  0  0  0  0
   -4.1510   -1.8880   -1.3490 C   0  0  0  0  0  0  0  0  0  0  0  0
   -0.3800    5.8660    1.2470 C   0  0  0  0  0  0  0  0  0  0  0  0
   -0.4720    7.2370    1.4580 C   0  0  0  0  0  0  0  0  0  0  0  0
  1  2  1  0
  2  3  2  0
  2 36  1  0
  3  4  1  0
  4  5  2  0
  5  6  1  0
  5 35  1  0
  6  7  1  0
  7  8  2  0
  7  9  1  0
 10  9  1  6
 10 11  1  0
 10 24  1  0
 11 12  2  0
 11 13  1  0
 13 14  1  0
 14 15  2  0
 14 19  1  0
 15 16  1  0
 16 17  2  0
 17 18  1  0
 17 23  1  0
 18 19  2  0
 18 20  1  0
 20 21  1  0
 21 22  1  0
 22 23  1  0
 24 25  1  1
 24 26  1  0
 26 27  1  0
 28 27  1  1
 28 29  1  0
 28 34  1  0
 29 30  1  0
 30 31  1  0
 31 32  1  0
 32 33  1  6
 32 34  1  0
 35 36  2  0
M  CHG  2  22   1  26   1
M  END
