
     RDKit          3D

 26 28  0  0  0  0  0  0  0  0999 V2000
    3.7840   -2.0990    4.1990 O   0  0  0  0  0  0  0  0  0  0  0  0
    3.2100   -0.7020    3.8460 P   0  0  0  0  0  0  0  0  0  0  0  0
    2.0070   -0.4410    2.7410 O   0  0  0  0  0  0  0  0  0  0  0  0
    1.6980   -0.1190    1.4870 C   0  0  0  0  0  0  0  0  0  0  0  0
    0.3090   -0.0670    1.1650 C   0  0  0  0  0  0  0  0  0  0  0  0
   -0.0960    0.2470   -0.0710 C   0  0  0  0  0  0  0  0  0  0  0  0
   -1.5260    0.3100   -0.4350 C   0  0  0  0  0  0  0  0  0  0  0  0
   -1.9850    1.1810   -1.4000 C   0  0  0  0  0  0  0  0  0  0  0  0
   -3.3150    1.2550   -1.7570 C   0  0  0  0  0  0  0  0  0  0  0  0
   -4.2300    0.4280   -1.1270 C   0  0  0  0  0  0  0  0  0  0  0  0
   -5.5490    0.4970   -1.4770 O   0  0  0  0  0  0  0  0  0  0  0  0
   -6.0210    1.3320   -2.4090 O   0  0  0  0  0  0  0  0  0  0  0  0
   -3.8010   -0.4530   -0.1590 C   0  0  0  0  0  0  0  0  0  0  0  0
   -5.0280   -1.5430    0.6660 P   0  0  0  0  0  0  0  0  0  0  0  0
   -5.4320   -2.8420   -0.4160 O   0  0  0  0  0  0  0  0  0  0  0  0
   -4.4760   -2.1160    2.1840 O   0  0  0  0  0  0  0  0  0  0  0  0
   -2.4420   -0.5010    0.1780 C   0  0  0  0  0  0  0  0  0  0  0  0
    0.8570    0.5190   -1.0280 C   0  0  0  0  0  0  0  0  0  0  0  0
    2.1600    0.4760   -0.7480 N   0  0  0  0  0  0  0  0  0  0  0  0
    2.6190    0.1600    0.5000 C   0  0  0  0  0  0  0  0  0  0  0  0
    4.0060    0.1240    0.7590 N   0  0  0  0  0  0  0  0  0  0  0  0
    5.0140    0.4000   -0.2120 C   0  0  0  0  0  0  0  0  0  0  0  0
    4.7250    0.7390   -1.5450 C   0  0  0  0  0  0  0  0  0  0  0  0
    6.3880    0.9640   -2.2580 S   0  0  0  0  0  0  0  0  0  0  0  0
    7.2190    0.5560   -0.6070 C   0  0  0  0  0  0  0  0  0  0  0  0
    6.3000    0.3650    0.0410 N   0  0  0  0  0  0  0  0  0  0  0  0
  1  2  2  0
  2  3  1  0
  3  4  1  0
  4  5  2  0
  4 20  1  0
  5  6  1  0
  6  7  1  0
  6 18  2  0
  7  8  2  0
  7 17  1  0
  8  9  1  0
  9 10  2  0
 10 11  1  0
 10 13  1  0
 11 12  1  0
 13 14  1  0
 13 17  2  0
 14 15  1  0
 14 16  1  0
 18 19  1  0
 19 20  2  0
 20 21  1  0
 21 22  1  0
 22 23  2  0
 22 26  1  0
 23 24  1  0
 24 25  1  0
 25 26  2  0
M  END
