
     RDKit          3D

 24 25  0  0  0  0  0  0  0  0999 V2000
   -5.3440   -1.3180    1.4350 O   0  0  0  0  0  0  0  0  0  0  0  0
   -6.3270   -0.7130    0.9640 C   0  0  0  0  0  0  0  0  0  0  0  0
   -6.3390   -0.3690   -0.3350 O   0  0  0  0  0  0  0  0  0  0  0  0
   -5.4390   -0.5250   -1.3590 C   0  0  0  0  0  0  0  0  0  0  0  0
   -4.1910    0.2710   -1.3000 C   0  0  0  0  0  0  0  0  0  0  0  0
   -3.2900    0.1000   -0.1310 C   0  0  0  0  0  0  0  0  0  0  0  0
   -2.1720    0.9340   -0.3720 O   0  0  0  0  0  0  0  0  0  0  0  0
   -1.0330    0.8410    0.9060 P   0  0  0  0  0  0  0  0  0  0  0  0
    0.0290    2.2310    0.7590 O   0  0  0  0  0  0  0  0  0  0  0  0
    1.2170    1.7350    0.8130 N   0  0  0  0  0  0  0  0  0  0  0  0
    1.5380    0.5520    0.5980 C   0  0  0  0  0  0  0  0  0  0  0  0
    2.9700    0.4560    0.7690 N   0  0  0  0  0  0  0  0  0  0  0  0
    3.7930   -0.6370    0.5450 C   0  0  0  0  0  0  0  0  0  0  0  0
    3.1420   -1.6150    0.1340 O   0  0  0  0  0  0  0  0  0  0  0  0
    5.2590   -0.6100    0.7770 C   0  0  2  0  0  0  0  0  0  0  0  0
    5.5970    0.6950    1.2290 O   0  0  0  0  0  0  0  0  0  0  0  0
    6.8270    1.0320    0.7050 C   0  0  0  0  0  0  0  0  0  0  0  0
    7.5980    1.9730    1.0720 O   0  0  0  0  0  0  0  0  0  0  0  0
    7.0850    0.1330   -0.3290 O   0  0  0  0  0  0  0  0  0  0  0  0
    6.0290   -0.7500   -0.4440 C   0  0  0  0  0  0  0  0  0  0  0  0
    5.8060   -1.4980   -1.4050 O   0  0  0  0  0  0  0  0  0  0  0  0
    0.3830   -0.2900    0.3000 C   0  0  2  0  0  0  0  0  0  0  0  0
    0.1740   -0.5740   -1.5240 P   0  0  0  0  0  0  0  0  0  0  0  0
    0.6250    0.5770   -2.4750 O   0  0  0  0  0  0  0  0  0  0  0  0
  1  2  2  0
  2  3  1  0
  3  4  1  0
  4  5  1  0
  5  6  1  0
  6  7  1  0
  7  8  1  0
  8  9  1  0
  8 22  1  0
  9 10  1  0
 10 11  2  0
 11 12  1  0
 11 22  1  0
 12 13  1  0
 13 14  2  0
 15 13  1  6
 15 16  1  0
 15 20  1  0
 16 17  1  0
 17 18  2  0
 17 19  1  0
 19 20  1  0
 20 21  2  0
 22 23  1  6
 23 24  2  0
M  END
