
     RDKit          3D

 24 25  0  0  0  0  0  0  0  0999 V2000
   -4.5680   -0.5090    1.7240 O   0  0  0  0  0  0  0  0  0  0  0  0
   -4.8320    0.4600    0.9910 C   0  0  0  0  0  0  0  0  0  0  0  0
   -5.3300    1.5960    1.6590 O   0  0  0  0  0  0  0  0  0  0  0  0
   -4.6380    0.4110   -0.4520 C   0  0  1  0  0  0  0  0  0  0  0  0
   -5.4490    1.4860   -0.9780 O   0  0  0  0  0  0  0  0  0  0  0  0
   -3.2660    0.5800   -0.9990 C   0  0  0  0  0  0  0  0  0  0  0  0
   -2.2990   -0.2780   -0.6940 O   0  0  0  0  0  0  0  0  0  0  0  0
   -1.7340   -0.4350    0.5030 C   0  0  1  0  0  0  0  0  0  0  0  0
   -1.8110   -1.8410    1.0690 C   0  0  0  0  0  0  0  0  0  0  0  0
   -0.5430   -2.5320    0.6400 C   0  0  0  0  0  0  0  0  0  0  0  0
    0.3650   -1.5020    0.2670 N   0  0  0  0  0  0  0  0  0  0  0  0
    1.6690   -1.2060   -0.2640 C   0  0  0  0  0  0  0  0  0  0  0  0
    2.6820   -1.9690   -0.1810 O   0  0  0  0  0  0  0  0  0  0  0  0
    1.6030    0.0750   -0.8820 N   0  0  0  0  0  0  0  0  0  0  0  0
    2.6740    0.7910   -1.5540 C   0  0  0  0  0  0  0  0  0  0  0  0
    3.6070    1.8640   -0.3710 P   0  0  0  0  0  0  0  0  0  0  0  0
    3.0770    1.6470    1.2550 O   0  0  0  0  0  0  0  0  0  0  0  0
    5.3090    1.7440   -0.5540 O   0  0  0  0  0  0  0  0  0  0  0  0
    5.9510    0.2540    0.0450 P   0  0  0  0  0  0  0  0  0  0  0  0
    5.9120   -0.8910   -1.2830 O   0  0  0  0  0  0  0  0  0  0  0  0
    7.6000    0.4140    0.5320 O   0  0  0  0  0  0  0  0  0  0  0  0
    0.2400    0.5280   -0.7070 C   0  0  0  0  0  0  0  0  0  0  0  0
   -0.3390    1.3550   -1.4650 O   0  0  0  0  0  0  0  0  0  0  0  0
   -0.2220   -0.1900    0.4960 C   0  0  1  0  0  0  0  0  0  0  0  0
  1  2  2  0
  2  3  1  0
  2  4  1  0
  4  5  1  6
  4  6  1  0
  6  7  1  0
  8  7  1  6
  8  9  1  0
  8 24  1  0
  9 10  1  0
 10 11  1  0
 11 12  1  0
 11 24  1  0
 12 13  2  0
 12 14  1  0
 14 15  1  0
 14 22  1  0
 15 16  1  0
 16 17  1  0
 16 18  1  0
 18 19  1  0
 19 20  1  0
 19 21  1  0
 22 23  2  0
 24 22  1  6
M  END
