
     RDKit          3D

  9  8  0  0  0  0  0  0  0  0999 V2000
    2.6250   -0.1840    1.3500 O   0  0  0  0  0  0  0  0  0  0  0  0
    2.1250   -0.0960    0.2100 C   0  0  0  0  0  0  0  0  0  0  0  0
    2.9790   -0.0700   -0.8700 O   0  0  0  0  0  0  0  0  0  0  0  0
    0.6900   -0.0220    0.0160 C   0  0  0  0  0  0  0  0  0  0  0  0
   -0.0510   -0.0580    1.1930 O   0  0  0  0  0  0  0  0  0  0  0  0
   -1.6820    0.0400    0.7450 P   0  0  1  0  0  0  0  0  0  0  0  0
   -1.7990    0.7980   -0.5580 O   0  0  0  0  0  0  0  0  0  0  0  0
   -2.3010   -1.5380    0.5460 O   0  0  0  0  0  0  0  0  0  0  0  0
   -2.5320    0.8550    1.9570 O   0  0  0  0  0  0  0  0  0  0  0  0
  1  2  2  0
  2  3  1  0
  2  4  1  0
  4  5  1  0
  5  6  1  0
  6  7  2  0
  6  8  1  6
  6  9  1  0
M  END
