
     RDKit          3D

 34 36  0  0  0  0  0  0  0  0999 V2000
   -4.1930    2.6180    2.1550 C   0  0  0  0  0  0  0  0  0  0  0  0
   -5.4620    2.1940    1.7680 O   0  0  0  0  0  0  0  0  0  0  0  0
   -5.5640    0.8040    1.7330 C   0  0  1  0  0  0  0  0  0  0  0  0
   -6.5410    0.3330    2.7630 C   0  0  0  0  0  0  0  0  0  0  0  0
   -7.8620   -0.0190    2.2440 C   0  0  0  0  0  0  0  0  0  0  0  0
   -8.8080    0.0330    3.0260 O   0  0  0  0  0  0  0  0  0  0  0  0
   -8.1590   -0.4350    0.8490 C   0  0  0  0  0  0  0  0  0  0  0  0
   -7.2750    0.3710   -0.0530 C   0  0  0  0  0  0  0  0  0  0  0  0
   -5.8380    0.2960    0.3490 C   0  0  1  0  0  0  0  0  0  0  0  0
   -5.0490    1.0150   -0.6300 N   0  0  0  0  0  0  0  0  0  0  0  0
   -4.0190    0.3540   -1.3960 C   0  0  0  0  0  0  0  0  0  0  0  0
   -3.8570   -0.8640   -1.1530 O   0  0  0  0  0  0  0  0  0  0  0  0
   -3.2350    1.0230   -2.3600 N   0  0  0  0  0  0  0  0  0  0  0  0
   -2.2060    0.3250   -3.0900 C   0  0  0  0  0  0  0  0  0  0  0  0
   -1.1760   -0.1780   -2.1320 C   0  0  0  0  0  0  0  0  0  0  0  0
   -0.0830   -0.9200   -2.8320 C   0  0  0  0  0  0  0  0  0  0  0  0
   -0.1660   -1.0810   -4.0600 O   0  0  0  0  0  0  0  0  0  0  0  0
    0.9870   -1.3950   -2.0390 N   0  0  0  0  0  0  0  0  0  0  0  0
    2.1180   -2.1460   -2.5860 C   0  0  0  0  0  0  0  0  0  0  0  0
    3.3560   -1.3460   -2.2550 C   0  0  0  0  0  0  0  0  0  0  0  0
    3.4980   -1.2700   -0.7730 N   0  0  1  0  0  0  0  0  0  0  0  0
    4.7130   -0.4790   -0.6060 C   0  0  0  0  0  0  0  0  0  0  0  0
    5.2360   -0.3990    0.7290 C   0  0  0  0  0  0  0  0  0  0  0  0
    4.6750   -1.1540    1.6600 C   0  0  0  0  0  0  0  0  0  0  0  0
    4.9560   -1.3120    3.1040 C   0  0  0  0  0  0  0  0  0  0  0  0
    5.5790   -0.4020    3.8660 C   0  0  0  0  0  0  0  0  0  0  0  0
    6.1150    0.9030    3.5030 C   0  0  0  0  0  0  0  0  0  0  0  0
    6.4130    1.3380    2.2920 C   0  0  0  0  0  0  0  0  0  0  0  0
    6.2680    0.5800    0.9850 C   0  0  0  0  0  0  0  0  0  0  0  0
    7.1750    0.8740    0.1170 C   0  0  0  0  0  0  0  0  0  0  0  0
    7.3730    0.3320   -1.2210 C   0  0  0  0  0  0  0  0  0  0  0  0
    8.3480    2.1840    0.5830 Cl  0  0  0  0  0  0  0  0  0  0  0  0
    2.3890   -0.4800   -0.3460 C   0  0  0  0  0  0  0  0  0  0  0  0
    1.0580   -1.1670   -0.5990 C   0  0  0  0  0  0  0  0  0  0  0  0
  1  2  1  0
  3  2  1  6
  3  4  1  0
  3  9  1  0
  4  5  1  0
  5  6  2  0
  5  7  1  0
  7  8  1  0
  8  9  1  0
  9 10  1  6
 10 11  1  0
 11 12  2  0
 11 13  1  0
 13 14  1  0
 14 15  1  0
 15 16  1  0
 16 17  2  0
 16 18  1  0
 18 19  1  0
 18 34  1  0
 19 20  1  0
 20 21  1  0
 21 22  1  6
 21 33  1  0
 22 23  1  0
 23 24  2  0
 23 29  1  0
 24 25  1  0
 25 26  2  0
 26 27  1  0
 27 28  2  0
 28 29  1  0
 29 30  2  3
 30 31  1  0
 30 32  1  0
 33 34  1  0
M  CHG  1  21   1
M  END
