
     RDKit          3D

 35 37  0  0  0  0  0  0  0  0999 V2000
    9.6120    1.1030   -1.8470 C   0  0  0  0  0  0  0  0  0  0  0  0
    8.3550    1.6370   -1.3060 N   0  0  0  0  0  0  0  0  0  0  0  0
    7.4300    0.8320   -0.6170 C   0  0  0  0  0  0  0  0  0  0  0  0
    7.7360   -0.3850   -0.4850 O   0  0  0  0  0  0  0  0  0  0  0  0
    6.1950    1.3230   -0.0760 N   0  0  0  0  0  0  0  0  0  0  0  0
    5.2280    0.5060    0.6400 C   0  0  0  0  0  0  0  0  0  0  0  0
    4.0270    1.4210    0.8010 C   0  0  2  0  0  0  0  0  0  0  0  0
    3.2350    1.2710   -0.3640 N   0  0  0  0  0  0  0  0  0  0  0  0
    1.8490    0.8750   -0.3490 C   0  0  0  0  0  0  0  0  0  0  0  0
    1.3830    0.6710    0.7650 O   0  0  0  0  0  0  0  0  0  0  0  0
    1.1190    0.7410   -1.5110 N   0  0  0  0  0  0  0  0  0  0  0  0
   -0.2680    0.3880   -1.5890 C   0  0  0  0  0  0  0  0  0  0  0  0
   -0.6490   -0.8500   -0.9070 C   0  0  0  0  0  0  0  0  0  0  0  0
   -0.9540   -0.9080    0.8410 S   0  0  0  0  0  0  0  0  0  0  0  0
   -1.9640    0.4980    1.2990 C   0  0  0  0  0  0  0  0  0  0  0  0
   -3.3550    0.4240    1.1140 C   0  0  0  0  0  0  0  0  0  0  0  0
   -4.1980    1.4370    1.4610 C   0  0  0  0  0  0  0  0  0  0  0  0
   -3.6650    2.6130    2.0300 C   0  0  0  0  0  0  0  0  0  0  0  0
   -2.3250    2.7270    2.2270 C   0  0  0  0  0  0  0  0  0  0  0  0
   -1.5040    1.6470    1.8490 C   0  0  0  0  0  0  0  0  0  0  0  0
   -1.7380    3.9430    2.8180 C   0  0  0  0  0  0  0  0  0  0  0  0
   -2.7860    4.5800    3.7060 C   0  0  0  0  0  0  0  0  0  0  0  0
   -3.9920    4.8580    2.9420 N   0  0  0  0  0  0  0  0  0  0  0  0
   -4.5960    3.7010    2.4020 C   0  0  0  0  0  0  0  0  0  0  0  0
   -0.9580   -1.9300   -1.6350 C   0  0  0  0  0  0  0  0  0  0  0  0
   -0.9140   -1.8680   -3.1260 C   0  0  0  0  0  0  0  0  0  0  0  0
   -1.3420   -3.1850   -0.9470 C   0  0  0  0  0  0  0  0  0  0  0  0
   -2.6820   -3.5770   -1.3390 N   0  0  0  0  0  0  0  0  0  0  0  0
   -3.0760   -4.8060   -0.6680 C   0  0  0  0  0  0  0  0  0  0  0  0
   -4.4800   -5.1760   -1.1130 C   0  0  2  0  0  0  0  0  0  0  0  0
   -4.8930   -6.4600   -0.4080 C   0  0  0  0  0  0  0  0  0  0  0  0
   -4.4500   -5.3910   -2.6120 C   0  0  0  0  0  0  0  0  0  0  0  0
    4.7170    2.7420    0.9460 C   0  0  0  0  0  0  0  0  0  0  0  0
    5.7170    2.6640   -0.1470 C   0  0  0  0  0  0  0  0  0  0  0  0
    6.0730    3.5440   -0.9480 O   0  0  0  0  0  0  0  0  0  0  0  0
  1  2  1  0
  2  3  1  0
  3  4  2  0
  3  5  1  0
  5  6  1  0
  5 34  1  0
  6  7  1  0
  7  8  1  6
  7 33  1  0
  8  9  1  0
  9 10  2  0
  9 11  1  0
 11 12  1  0
 12 13  1  0
 13 14  1  0
 13 25  2  3
 14 15  1  0
 15 16  2  0
 15 20  1  0
 16 17  1  0
 17 18  2  0
 18 19  1  0
 18 24  1  0
 19 20  2  0
 19 21  1  0
 21 22  1  0
 22 23  1  0
 23 24  1  0
 25 26  1  0
 25 27  1  0
 27 28  1  0
 28 29  1  0
 29 30  1  0
 30 31  1  1
 30 32  1  0
 33 34  1  0
 34 35  2  0
M  CHG  1  23   1
M  END
