
     RDKit          3D

 35 37  0  0  0  0  0  0  0  0999 V2000
   -5.0640    1.2320   -1.4720 C   0  0  0  0  0  0  0  0  0  0  0  0
   -4.7270    0.5370   -0.2400 C   0  0  0  0  0  0  0  0  0  0  0  0
   -5.7950    0.1060    0.5500 C   0  0  0  0  0  0  0  0  0  0  0  0
   -7.1640    0.4210    0.1750 C   0  0  0  0  0  0  0  0  0  0  0  0
   -8.2290    0.0230    0.8270 C   0  0  0  0  0  0  0  0  0  0  0  0
   -9.5540    0.3900    0.3720 C   0  0  0  0  0  0  0  0  0  0  0  0
  -10.6800    0.0430    0.9480 C   0  0  0  0  0  0  0  0  0  0  0  0
  -11.8430    0.5980    0.2070 C   0  0  0  0  0  0  0  0  0  0  0  0
  -11.1820    1.3280   -0.9020 C   0  0  0  0  0  0  0  0  0  0  0  0
   -9.8710    1.1920   -0.7840 C   0  0  0  0  0  0  0  0  0  0  0  0
   -5.5240   -0.5920    1.7020 C   0  0  0  0  0  0  0  0  0  0  0  0
   -4.2140   -0.8540    2.0600 C   0  0  0  0  0  0  0  0  0  0  0  0
   -3.1510   -0.4130    1.2560 C   0  0  0  0  0  0  0  0  0  0  0  0
   -3.4060    0.2910    0.0940 C   0  0  0  0  0  0  0  0  0  0  0  0
   -2.3850    0.7940   -0.7310 N   0  0  0  0  0  0  0  0  0  0  0  0
   -1.0070    0.5280   -0.6530 C   0  0  0  0  0  0  0  0  0  0  0  0
   -0.5670   -0.2350    0.2210 O   0  0  0  0  0  0  0  0  0  0  0  0
    0.0110    1.1240   -1.5890 C   0  0  0  0  0  0  0  0  0  0  0  0
    1.6440    0.4380   -1.2540 S   0  0  0  0  0  0  0  0  0  0  0  0
    2.0590    0.7700    0.1800 O   0  0  0  0  0  0  0  0  0  0  0  0
    1.5520   -1.3230   -1.5120 C   0  0  0  0  0  0  0  0  0  0  0  0
    2.8450   -1.9600   -1.2570 C   0  0  0  0  0  0  0  0  0  0  0  0
    2.9590   -3.2040   -1.3820 O   0  0  0  0  0  0  0  0  0  0  0  0
    3.9700   -1.1940   -0.8700 N   0  0  0  0  0  0  0  0  0  0  0  0
    5.1850   -1.8640   -0.6320 N   0  0  0  0  0  0  0  0  0  0  0  0
    6.3020   -1.2340   -0.0260 C   0  0  0  0  0  0  0  0  0  0  0  0
    7.4430   -1.9750    0.2080 C   0  0  0  0  0  0  0  0  0  0  0  0
    8.5140   -1.3340    0.7990 C   0  0  0  0  0  0  0  0  0  0  0  0
    8.4860   -0.0070    1.1550 C   0  0  0  0  0  0  0  0  0  0  0  0
    9.6490    0.6700    1.7890 C   0  0  0  0  0  0  0  0  0  0  0  0
   10.3890    1.3600    0.7560 N   0  0  0  0  0  0  0  0  0  0  0  0
   11.0020    0.6560   -0.3160 C   0  0  0  0  0  0  0  0  0  0  0  0
   11.5630   -0.4900   -0.1150 N   0  0  0  0  0  0  0  0  0  0  0  0
    7.3070    0.6920    0.8940 C   0  0  0  0  0  0  0  0  0  0  0  0
    6.2570    0.0780    0.3200 N   0  0  0  0  0  0  0  0  0  0  0  0
  1  2  1  0
  2  3  2  0
  2 14  1  0
  3  4  1  0
  3 11  1  0
  4  5  2  3
  5  6  1  0
  6  7  2  0
  6 10  1  0
  7  8  1  0
  8  9  1  0
  9 10  2  0
 11 12  2  0
 12 13  1  0
 13 14  2  0
 14 15  1  0
 15 16  1  0
 16 17  2  0
 16 18  1  0
 19 18  1  1
 19 20  2  0
 19 21  1  0
 21 22  1  0
 22 23  2  0
 22 24  1  0
 24 25  1  0
 25 26  1  0
 26 27  2  0
 26 35  1  0
 27 28  1  0
 28 29  2  0
 29 30  1  0
 29 34  1  0
 30 31  1  0
 31 32  1  0
 32 33  2  0
 34 35  2  0
M  CHG  1  33   1
M  END
