
     RDKit          3D

 34 36  0  0  0  0  0  0  0  0999 V2000
   -7.8880    1.7270    0.8920 C   0  0  0  0  0  0  0  0  0  0  0  0
   -7.6970    0.2860    0.4800 C   0  0  0  0  0  0  0  0  0  0  0  0
   -6.7850    0.2080   -0.7440 C   0  0  0  0  0  0  0  0  0  0  0  0
   -7.2570   -0.0340   -1.9720 C   0  0  0  0  0  0  0  0  0  0  0  0
   -6.3810   -0.0930   -3.0250 C   0  0  0  0  0  0  0  0  0  0  0  0
   -4.7840    0.2060   -2.2860 S   0  0  0  0  0  0  0  0  0  0  0  0
   -5.4580    0.3880   -0.5810 C   0  0  0  0  0  0  0  0  0  0  0  0
   -4.6120    0.6640    0.5800 C   0  0  0  0  0  0  0  0  0  0  0  0
   -3.2190    0.7820    0.2540 N   0  0  0  0  0  0  0  0  0  0  0  0
   -2.4390    1.0650    1.4090 C   0  0  0  0  0  0  0  0  0  0  0  0
   -2.3220   -0.0200    2.4190 C   0  0  0  0  0  0  0  0  0  0  0  0
   -1.7320   -1.2070    1.9200 O   0  0  0  0  0  0  0  0  0  0  0  0
   -0.4640   -1.2530    1.3910 C   0  0  0  0  0  0  0  0  0  0  0  0
    0.1670   -0.1650    1.3650 O   0  0  0  0  0  0  0  0  0  0  0  0
    0.1830   -2.4500    0.8710 C   0  0  0  0  0  0  0  0  0  0  0  0
   -0.4210   -3.6520    0.8670 N   0  0  0  0  0  0  0  0  0  0  0  0
    0.1830   -4.7650    0.3850 C   0  0  0  0  0  0  0  0  0  0  0  0
    1.4600   -4.7350   -0.1320 C   0  0  0  0  0  0  0  0  0  0  0  0
    2.1150   -3.5150   -0.1450 C   0  0  0  0  0  0  0  0  0  0  0  0
    3.4360   -3.4250   -0.6690 N   0  0  0  0  0  0  0  0  0  0  0  0
    1.4660   -2.4060    0.3530 C   0  0  0  0  0  0  0  0  0  0  0  0
    2.0970   -1.1160    0.3590 N   0  0  0  0  0  0  0  0  0  0  0  0
    2.8520   -0.7320    1.4870 C   0  0  0  0  0  0  0  0  0  0  0  0
    2.9560   -1.5520    2.4800 O   0  0  0  0  0  0  0  0  0  0  0  0
    3.5120    0.5770    1.5430 C   0  0  0  0  0  0  0  0  0  0  0  0
    3.2700    1.3300    0.3470 N   0  0  0  0  0  0  0  0  0  0  0  0
    4.1550    0.9080   -0.7200 C   0  0  1  0  0  0  0  0  0  0  0  0
    3.5630    1.2070   -2.0880 C   0  0  0  0  0  0  0  0  0  0  0  0
    5.4890    1.5690   -0.6250 C   0  0  0  0  0  0  0  0  0  0  0  0
    5.6380    2.9270   -0.4270 C   0  0  0  0  0  0  0  0  0  0  0  0
    6.9040    3.4600   -0.3440 C   0  0  0  0  0  0  0  0  0  0  0  0
    7.9640    2.6530   -0.4580 N   0  0  0  0  0  0  0  0  0  0  0  0
    7.8390    1.3370   -0.6500 C   0  0  0  0  0  0  0  0  0  0  0  0
    6.6050    0.7530   -0.7400 C   0  0  0  0  0  0  0  0  0  0  0  0
  1  2  1  0
  2  3  1  0
  3  4  1  0
  3  7  2  0
  4  5  2  0
  5  6  1  0
  6  7  1  0
  7  8  1  0
  8  9  1  0
  9 10  1  0
 10 11  1  0
 11 12  1  0
 12 13  1  0
 13 14  2  0
 13 15  1  0
 15 16  2  0
 15 21  1  0
 16 17  1  0
 17 18  2  0
 18 19  1  0
 19 20  1  0
 19 21  2  0
 21 22  1  0
 22 23  1  0
 23 24  2  0
 23 25  1  0
 25 26  1  0
 26 27  1  0
 27 28  1  6
 27 29  1  0
 29 30  2  0
 29 34  1  0
 30 31  1  0
 31 32  2  0
 32 33  1  0
 33 34  2  0
M  CHG  1  26   1
M  END
