
     RDKit          3D

 26 26  0  0  0  0  0  0  0  0999 V2000
    6.8970    1.1710   -0.3530 C   0  0  0  0  0  0  0  0  0  0  0  0
    6.0760    0.1240    0.3640 C   0  0  0  0  0  0  0  0  0  0  0  0
    4.7090    0.6030    0.7270 C   0  0  0  0  0  0  0  0  0  0  0  0
    3.8560    1.0200   -0.4250 C   0  0  0  0  0  0  0  0  0  0  0  0
    3.5970   -0.0610   -1.4340 C   0  0  0  0  0  0  0  0  0  0  0  0
    2.8960   -1.2530   -0.8190 C   0  0  2  0  0  0  0  0  0  0  0  0
    2.5990   -2.5300   -2.0710 S   0  0  0  0  0  0  0  0  0  0  0  0
    1.6460   -0.8850   -0.1260 C   0  0  0  0  0  0  0  0  0  0  0  0
    1.5610   -1.0950    1.1360 O   0  0  0  0  0  0  0  0  0  0  0  0
    0.5340   -0.3120   -0.7840 N   0  0  0  0  0  0  0  0  0  0  0  0
   -0.6890    0.0410   -0.0720 C   0  0  1  0  0  0  0  0  0  0  0  0
   -0.9760    1.5190   -0.2150 C   0  0  0  0  0  0  0  0  0  0  0  0
   -2.2010    1.9190    0.5010 C   0  0  0  0  0  0  0  0  0  0  0  0
   -3.4510    1.9580   -0.0760 C   0  0  0  0  0  0  0  0  0  0  0  0
   -4.5660    2.3520    0.6590 C   0  0  0  0  0  0  0  0  0  0  0  0
   -4.4560    2.7100    1.9670 C   0  0  0  0  0  0  0  0  0  0  0  0
   -3.2220    2.6770    2.5580 C   0  0  0  0  0  0  0  0  0  0  0  0
   -2.1180    2.2900    1.8420 C   0  0  0  0  0  0  0  0  0  0  0  0
   -1.7550   -0.8080   -0.6480 C   0  0  0  0  0  0  0  0  0  0  0  0
   -1.6260   -1.1760   -1.8480 O   0  0  0  0  0  0  0  0  0  0  0  0
   -2.9100   -1.2470    0.0400 N   0  0  0  0  0  0  0  0  0  0  0  0
   -3.9390   -2.0820   -0.5480 C   0  0  1  0  0  0  0  0  0  0  0  0
   -3.6960   -3.4790    0.0550 C   0  0  0  0  0  0  0  0  0  0  0  0
   -5.3060   -1.6420   -0.3040 C   0  0  0  0  0  0  0  0  0  0  0  0
   -5.6590   -0.6490    0.3810 O   0  0  0  0  0  0  0  0  0  0  0  0
   -6.3490   -2.3680   -0.8710 O   0  0  0  0  0  0  0  0  0  0  0  0
  1  2  1  0
  2  3  1  0
  3  4  1  0
  4  5  1  0
  5  6  1  0
  6  7  1  6
  6  8  1  0
  8  9  2  0
  8 10  1  0
 10 11  1  0
 11 12  1  6
 11 19  1  0
 12 13  1  0
 13 14  2  0
 13 18  1  0
 14 15  1  0
 15 16  2  0
 16 17  1  0
 17 18  2  0
 19 20  2  0
 19 21  1  0
 21 22  1  0
 22 23  1  1
 22 24  1  0
 24 25  2  0
 24 26  1  0
M  END
