
     RDKit          3D

 19 21  0  0  0  0  0  0  0  0999 V2000
    4.0110    1.2520    0.5280 C   0  0  0  0  0  0  0  0  0  0  0  0
    4.1110   -0.1630    0.9700 C   0  0  0  0  0  0  0  0  0  0  0  0
    3.4160   -1.1450    0.0970 C   0  0  0  0  0  0  0  0  0  0  0  0
    1.9480   -0.8490    0.0510 C   0  0  0  0  0  0  0  0  0  0  0  0
    1.1190   -1.6710    0.6660 C   0  0  0  0  0  0  0  0  0  0  0  0
   -0.3200   -1.4920    0.6890 C   0  0  0  0  0  0  0  0  0  0  0  0
   -0.8140   -0.4540    0.0570 C   0  0  0  0  0  0  0  0  0  0  0  0
    0.0410    0.5060   -0.6460 C   0  0  0  0  0  0  0  0  0  0  0  0
   -0.2710    1.6300   -1.2060 N   0  0  0  0  0  0  0  0  0  0  0  0
   -1.5820    2.1810   -1.2390 C   0  0  0  0  0  0  0  0  0  0  0  0
   -1.8470    2.8610   -2.2420 O   0  0  0  0  0  0  0  0  0  0  0  0
   -2.6900    2.0710   -0.2580 C   0  0  0  0  0  0  0  0  0  0  0  0
   -3.0710    0.6670   -0.0140 C   0  0  0  0  0  0  0  0  0  0  0  0
   -4.4330    0.5270    0.0460 C   0  0  0  0  0  0  0  0  0  0  0  0
   -4.9670   -0.7090    0.2020 N   0  0  0  0  0  0  0  0  0  0  0  0
   -4.1850   -1.8050    0.3000 C   0  0  0  0  0  0  0  0  0  0  0  0
   -2.7930   -1.7180    0.2450 C   0  0  0  0  0  0  0  0  0  0  0  0
   -2.2720   -0.4640    0.0910 C   0  0  0  0  0  0  0  0  0  0  0  0
    1.4480    0.2790   -0.6350 N   0  0  0  0  0  0  0  0  0  0  0  0
  1  2  1  0
  2  3  1  0
  3  4  1  0
  4  5  2  0
  4 19  1  0
  5  6  1  0
  6  7  2  0
  7  8  1  0
  7 18  1  0
  8  9  2  0
  8 19  1  0
  9 10  1  0
 10 11  2  0
 10 12  1  0
 12 13  1  0
 13 14  2  0
 13 18  1  0
 14 15  1  0
 15 16  2  0
 16 17  1  0
 17 18  2  0
M  END
