
     RDKit          3D

 19 21  0  0  0  0  0  0  0  0999 V2000
   -2.2390   -2.4960    1.3730 C   0  0  0  0  0  0  0  0  0  0  0  0
   -1.1960   -1.8990    0.5690 C   0  0  0  0  0  0  0  0  0  0  0  0
   -0.2100   -2.7060    0.2770 O   0  0  0  0  0  0  0  0  0  0  0  0
   -1.0750   -0.5190    0.0290 C   0  0  0  0  0  0  0  0  0  0  0  0
   -1.9550    0.4210    0.1970 C   0  0  0  0  0  0  0  0  0  0  0  0
   -3.2010    0.1480    0.9880 C   0  0  0  0  0  0  0  0  0  0  0  0
   -1.8090    1.7390   -0.3740 N   0  0  0  0  0  0  0  0  0  0  0  0
   -0.6650    2.0190   -1.1480 C   0  0  0  0  0  0  0  0  0  0  0  0
   -0.5190    3.2580   -1.7310 N   0  0  0  0  0  0  0  0  0  0  0  0
    0.5450    3.5340   -2.4940 C   0  0  0  0  0  0  0  0  0  0  0  0
    1.4910    2.5560   -2.6870 C   0  0  0  0  0  0  0  0  0  0  0  0
    1.3380    1.3760   -2.1230 N   0  0  0  0  0  0  0  0  0  0  0  0
    0.2730    1.0410   -1.3340 C   0  0  0  0  0  0  0  0  0  0  0  0
    0.1770   -0.2520   -0.7260 C   0  0  1  0  0  0  0  0  0  0  0  0
    1.3740   -0.5940    0.1110 C   0  0  0  0  0  0  0  0  0  0  0  0
    1.4790   -0.8480    1.3890 C   0  0  0  0  0  0  0  0  0  0  0  0
    2.8680   -1.1320    1.7570 C   0  0  0  0  0  0  0  0  0  0  0  0
    3.6040   -1.0040    0.4780 C   0  0  0  0  0  0  0  0  0  0  0  0
    2.7140   -0.6940   -0.4450 C   0  0  0  0  0  0  0  0  0  0  0  0
  1  2  1  0
  2  3  2  0
  2  4  1  0
  4  5  2  0
  4 14  1  0
  5  6  1  0
  5  7  1  0
  7  8  1  0
  8  9  2  0
  8 13  1  0
  9 10  1  0
 10 11  2  0
 11 12  1  0
 12 13  2  0
 13 14  1  0
 14 15  1  1
 15 16  2  0
 15 19  1  0
 16 17  1  0
 17 18  1  0
 18 19  2  0
M  END
