
     RDKit          3D

 19 21  0  0  0  0  0  0  0  0999 V2000
   -4.7190    0.5410   -1.2480 C   0  0  0  0  0  0  0  0  0  0  0  0
   -4.3580   -0.2440    0.0130 C   0  0  2  0  0  0  0  0  0  0  0  0
   -5.1060   -1.5520    0.0720 C   0  0  0  0  0  0  0  0  0  0  0  0
   -4.7850    0.5900    1.1980 C   0  0  0  0  0  0  0  0  0  0  0  0
   -2.8710   -0.4650    0.0540 C   0  0  0  0  0  0  0  0  0  0  0  0
   -2.3200   -1.6850   -0.1290 N   0  0  0  0  0  0  0  0  0  0  0  0
   -1.0330   -1.4960   -0.0190 N   0  0  0  0  0  0  0  0  0  0  0  0
   -0.7500   -0.1590    0.2370 C   0  0  0  0  0  0  0  0  0  0  0  0
    0.5910    0.2550    0.3980 C   0  0  0  0  0  0  0  0  0  0  0  0
    1.4790    0.8200   -0.6620 C   0  0  0  0  0  0  0  0  0  0  0  0
    2.8460    0.7730    0.0420 C   0  0  0  0  0  0  0  0  0  0  0  0
    3.0540    0.9880    1.4050 C   0  0  0  0  0  0  0  0  0  0  0  0
    4.3000    0.6050    1.7210 N   0  0  0  0  0  0  0  0  0  0  0  0
    4.9090    0.1460    0.5850 C   0  0  0  0  0  0  0  0  0  0  0  0
    3.9980    0.2530   -0.4730 C   0  0  0  0  0  0  0  0  0  0  0  0
    4.5470   -0.1450   -1.6110 C   0  0  0  0  0  0  0  0  0  0  0  0
    5.8970   -0.6000   -1.2900 C   0  0  0  0  0  0  0  0  0  0  0  0
    6.0290   -0.4090    0.1520 C   0  0  0  0  0  0  0  0  0  0  0  0
   -1.9280    0.4020    0.2660 O   0  0  0  0  0  0  0  0  0  0  0  0
  2  1  1  6
  2  3  1  0
  2  4  1  0
  2  5  1  0
  5  6  2  0
  5 19  1  0
  6  7  1  0
  7  8  2  0
  8  9  1  0
  8 19  1  0
  9 10  1  0
 10 11  1  0
 11 12  2  0
 11 15  1  0
 12 13  1  0
 13 14  1  0
 14 15  1  0
 14 18  2  0
 15 16  2  0
 16 17  1  0
 17 18  1  0
M  END
