
     RDKit          3D

 19 21  0  0  0  0  0  0  0  0999 V2000
    5.8420   -0.8630   -0.6030 C   0  0  0  0  0  0  0  0  0  0  0  0
    4.4910   -0.8730    0.0200 C   0  0  0  0  0  0  0  0  0  0  0  0
    4.0820   -1.6500    1.0880 C   0  0  0  0  0  0  0  0  0  0  0  0
    2.7900   -1.3640    1.3490 N   0  0  0  0  0  0  0  0  0  0  0  0
    2.3470   -0.4400    0.4990 N   0  0  0  0  0  0  0  0  0  0  0  0
    1.0430    0.1170    0.4580 C   0  0  0  0  0  0  0  0  0  0  0  0
   -0.0290   -0.5660   -0.0610 C   0  0  0  0  0  0  0  0  0  0  0  0
   -1.2590    0.0540   -0.0580 C   0  0  0  0  0  0  0  0  0  0  0  0
   -1.4510    1.3250    0.4420 C   0  0  0  0  0  0  0  0  0  0  0  0
   -0.3770    1.9740    0.9460 N   0  0  0  0  0  0  0  0  0  0  0  0
    0.8450    1.3850    0.9560 C   0  0  0  0  0  0  0  0  0  0  0  0
    1.8380    2.0140    1.4340 O   0  0  0  0  0  0  0  0  0  0  0  0
   -2.5910    2.2320    0.5860 C   0  0  0  0  0  0  0  0  0  0  0  0
   -3.9010    1.9690    0.6290 C   0  0  0  0  0  0  0  0  0  0  0  0
   -4.7370    0.7740    0.5590 C   0  0  0  0  0  0  0  0  0  0  0  0
   -4.4360   -0.5180    0.4200 C   0  0  0  0  0  0  0  0  0  0  0  0
   -3.2770   -1.3900    0.2750 C   0  0  0  0  0  0  0  0  0  0  0  0
   -2.2270   -0.9060   -0.6760 C   0  0  0  0  0  0  0  0  0  0  0  0
    3.3740   -0.1280   -0.3210 C   0  0  0  0  0  0  0  0  0  0  0  0
  1  2  1  0
  2  3  1  0
  2 19  2  0
  3  4  2  0
  4  5  1  0
  5  6  1  0
  5 19  1  0
  6  7  2  0
  6 11  1  0
  7  8  1  0
  8  9  2  0
  8 18  1  0
  9 10  1  0
  9 13  1  0
 10 11  1  0
 11 12  2  0
 13 14  2  0
 14 15  1  0
 15 16  2  0
 16 17  1  0
 17 18  1  0
M  END
