
     RDKit          3D

 19 21  0  0  0  0  0  0  0  0999 V2000
   -5.0280    0.0880    1.5870 C   0  0  0  0  0  0  0  0  0  0  0  0
   -3.8880   -0.1130    0.6400 C   0  0  0  0  0  0  0  0  0  0  0  0
   -4.2940   -0.4850   -0.5560 C   0  0  0  0  0  0  0  0  0  0  0  0
   -3.6580   -0.8140   -1.8320 C   0  0  0  0  0  0  0  0  0  0  0  0
   -2.4050   -0.9550   -2.2310 C   0  0  0  0  0  0  0  0  0  0  0  0
   -1.0900   -0.8430   -1.5640 C   0  0  0  0  0  0  0  0  0  0  0  0
   -0.6520   -0.4700   -0.3730 C   0  0  0  0  0  0  0  0  0  0  0  0
    0.7390   -0.5510   -0.2440 N   0  0  0  0  0  0  0  0  0  0  0  0
    1.5770    0.3590   -0.5490 C   0  0  0  0  0  0  0  0  0  0  0  0
    1.3670    1.5650   -1.0450 O   0  0  0  0  0  0  0  0  0  0  0  0
    2.4880    2.1940   -1.2180 N   0  0  0  0  0  0  0  0  0  0  0  0
    3.5090    1.3830   -0.8230 C   0  0  0  0  0  0  0  0  0  0  0  0
    2.9120    0.2510   -0.4120 N   0  0  0  0  0  0  0  0  0  0  0  0
    3.9120   -0.7210    0.0460 C   0  0  0  0  0  0  0  0  0  0  0  0
    5.1810    0.0600    0.1410 C   0  0  0  0  0  0  0  0  0  0  0  0
    4.9860    1.3110   -0.6900 C   0  0  0  0  0  0  0  0  0  0  0  0
   -1.2920    0.0070    0.8390 C   0  0  0  0  0  0  0  0  0  0  0  0
   -0.3400    0.4500    1.9040 C   0  0  0  0  0  0  0  0  0  0  0  0
   -2.5700    0.1370    1.2110 C   0  0  0  0  0  0  0  0  0  0  0  0
  1  2  1  0
  2  3  2  0
  2 19  1  0
  3  4  1  0
  4  5  2  0
  5  6  1  0
  6  7  2  0
  7  8  1  0
  7 17  1  0
  8  9  2  3
  9 10  1  0
  9 13  1  0
 10 11  1  0
 11 12  2  0
 12 13  1  0
 12 16  1  0
 13 14  1  0
 14 15  1  0
 15 16  1  0
 17 18  1  0
 17 19  2  0
M  END
