
     RDKit          3D

 19 21  0  0  0  0  0  0  0  0999 V2000
   -3.9240   -1.1370   -1.5510 C   0  0  0  0  0  0  0  0  0  0  0  0
   -2.8610   -1.1190   -0.5310 C   0  0  0  0  0  0  0  0  0  0  0  0
   -2.6420    0.1510    0.1970 C   0  0  2  0  0  0  0  0  0  0  0  0
   -1.5510    0.0680    1.1960 C   0  0  0  0  0  0  0  0  0  0  0  0
   -1.8300    0.1470    2.4480 O   0  0  0  0  0  0  0  0  0  0  0  0
   -0.1990   -0.0950    0.8630 N   0  0  0  0  0  0  0  0  0  0  0  0
    0.8310   -0.1880    1.8780 C   0  0  0  0  0  0  0  0  0  0  0  0
    2.1040   -0.8260    1.3350 C   0  0  0  0  0  0  0  0  0  0  0  0
    2.5480   -0.1230    0.1320 N   0  0  0  0  0  0  0  0  0  0  0  0
    3.8850   -0.1680   -0.3410 C   0  0  0  0  0  0  0  0  0  0  0  0
    4.9650    0.4320    0.1360 C   0  0  0  0  0  0  0  0  0  0  0  0
    6.1490    0.0900   -0.6910 C   0  0  0  0  0  0  0  0  0  0  0  0
    5.6060   -0.7740   -1.6900 N   0  0  0  0  0  0  0  0  0  0  0  0
    4.3440   -0.9190   -1.4970 C   0  0  0  0  0  0  0  0  0  0  0  0
    1.5320    0.6380   -0.5680 C   0  0  0  0  0  0  0  0  0  0  0  0
    0.2180   -0.1650   -0.5090 C   0  0  0  0  0  0  0  0  0  0  0  0
   -3.9390    0.5510    0.9190 C   0  0  0  0  0  0  0  0  0  0  0  0
   -4.1310    1.5920   -0.1510 C   0  0  0  0  0  0  0  0  0  0  0  0
   -2.6940    1.4360   -0.5000 C   0  0  0  0  0  0  0  0  0  0  0  0
  1  2  1  0
  3  2  1  6
  3  4  1  0
  3 17  1  0
  3 19  1  0
  4  5  2  0
  4  6  1  0
  6  7  1  0
  6 16  1  0
  7  8  1  0
  8  9  1  0
  9 10  1  0
  9 15  1  0
 10 11  2  0
 10 14  1  0
 11 12  1  0
 12 13  1  0
 13 14  2  0
 15 16  1  0
 17 18  1  0
 18 19  1  0
M  END
