
     RDKit          3D

 30 34  0  0  0  0  0  0  0  0999 V2000
    6.2200    0.8040   -0.6660 C   0  0  0  0  0  0  0  0  0  0  0  0
    4.7920    0.4480   -0.3260 C   0  0  0  0  0  0  0  0  0  0  0  0
    3.8520    1.3530   -0.2490 C   0  0  0  0  0  0  0  0  0  0  0  0
    2.4060    1.1150    0.0790 C   0  0  0  0  0  0  0  0  0  0  0  0
    1.7510    2.2640    0.1440 C   0  0  0  0  0  0  0  0  0  0  0  0
    0.4020    2.7410    0.4000 C   0  0  0  0  0  0  0  0  0  0  0  0
    0.1090    2.7130    1.6960 O   0  0  0  0  0  0  0  0  0  0  0  0
   -0.7120    3.2400   -0.3040 N   0  0  0  0  0  0  0  0  0  0  0  0
   -1.5360    2.6960   -1.4000 C   0  0  0  0  0  0  0  0  0  0  0  0
   -1.6320    3.5480   -2.3400 O   0  0  0  0  0  0  0  0  0  0  0  0
   -2.1140    1.2830   -1.2360 C   0  0  0  0  0  0  0  0  0  0  0  0
   -1.3560    0.2500   -1.7600 C   0  0  0  0  0  0  0  0  0  0  0  0
   -1.5390   -1.1190   -1.5240 C   0  0  0  0  0  0  0  0  0  0  0  0
   -2.5510   -1.4460   -0.7010 C   0  0  0  0  0  0  0  0  0  0  0  0
   -2.4590   -2.8570   -0.2890 N   0  0  0  0  0  0  0  0  0  0  0  0
   -1.6350   -3.4760    0.4360 C   0  0  0  0  0  0  0  0  0  0  0  0
   -0.4660   -3.0590    1.1320 N   0  0  0  0  0  0  0  0  0  0  0  0
    0.6970   -2.2290    0.8380 C   0  0  0  0  0  0  0  0  0  0  0  0
    1.8620   -3.0310    0.7130 C   0  0  0  0  0  0  0  0  0  0  0  0
    3.0900   -2.5820    0.4120 C   0  0  0  0  0  0  0  0  0  0  0  0
    3.1550   -1.1880    0.2200 C   0  0  0  0  0  0  0  0  0  0  0  0
    4.4980   -0.8500   -0.0980 O   0  0  0  0  0  0  0  0  0  0  0  0
    2.0790   -0.3300    0.3280 C   0  0  0  0  0  0  0  0  0  0  0  0
    0.8470   -0.8960    0.6420 C   0  0  0  0  0  0  0  0  0  0  0  0
   -3.3880   -0.5190   -0.1350 C   0  0  0  0  0  0  0  0  0  0  0  0
   -4.5210   -0.8360    0.6540 C   0  0  0  0  0  0  0  0  0  0  0  0
   -5.4240    0.0580    1.1810 C   0  0  0  0  0  0  0  0  0  0  0  0
   -5.2300    1.3720    0.9320 C   0  0  0  0  0  0  0  0  0  0  0  0
   -4.1670    1.7000    0.1890 C   0  0  0  0  0  0  0  0  0  0  0  0
   -3.1700    0.8950   -0.4080 C   0  0  0  0  0  0  0  0  0  0  0  0
  1  2  1  0
  2  3  2  0
  2 22  1  0
  3  4  1  0
  4  5  2  0
  4 23  1  0
  5  6  1  0
  6  7  2  0
  6  8  1  0
  8  9  1  0
  9 10  2  0
  9 11  1  0
 11 12  2  0
 11 30  1  0
 12 13  1  0
 13 14  2  0
 14 15  1  0
 14 25  1  0
 15 16  2  0
 16 17  1  0
 17 18  1  0
 18 19  2  0
 18 24  1  0
 19 20  1  0
 20 21  2  0
 21 22  1  0
 21 23  1  0
 23 24  2  0
 25 26  2  0
 25 30  1  0
 26 27  1  0
 27 28  2  0
 28 29  1  0
 29 30  2  0
M  END
