
     RDKit          3D

 30 34  0  0  0  0  0  0  0  0999 V2000
    4.1250   -3.6140    0.3100 C   0  0  0  0  0  0  0  0  0  0  0  0
    3.2720   -2.8900   -0.5250 O   0  0  0  0  0  0  0  0  0  0  0  0
    3.0800   -1.5260   -0.3240 C   0  0  0  0  0  0  0  0  0  0  0  0
    3.7720   -0.9990    0.7310 C   0  0  0  0  0  0  0  0  0  0  0  0
    3.6170    0.3400    0.9610 C   0  0  0  0  0  0  0  0  0  0  0  0
    2.7910    1.1700    0.1660 C   0  0  0  0  0  0  0  0  0  0  0  0
    2.1070    0.6060   -0.8910 C   0  0  0  0  0  0  0  0  0  0  0  0
    2.2270   -0.7520   -1.1690 C   0  0  0  0  0  0  0  0  0  0  0  0
    1.6460   -1.5060   -2.1550 O   0  0  0  0  0  0  0  0  0  0  0  0
    0.3450   -1.8190   -2.5840 C   0  0  0  0  0  0  0  0  0  0  0  0
    0.3990   -2.5980   -3.6420 O   0  0  0  0  0  0  0  0  0  0  0  0
   -0.7960   -1.3360   -1.9300 N   0  0  0  0  0  0  0  0  0  0  0  0
   -1.6040   -0.1740   -2.2530 C   0  0  0  0  0  0  0  0  0  0  0  0
   -2.9980   -0.2710   -1.7130 C   0  0  0  0  0  0  0  0  0  0  0  0
   -3.1300   -0.3400   -0.2120 C   0  0  2  0  0  0  0  0  0  0  0  0
   -4.1700   -1.3710    0.0570 C   0  0  0  0  0  0  0  0  0  0  0  0
   -5.2900   -1.0220    0.8980 C   0  0  0  0  0  0  0  0  0  0  0  0
   -5.4250    0.1610    1.4300 C   0  0  0  0  0  0  0  0  0  0  0  0
   -4.4190    1.1630    1.1720 C   0  0  0  0  0  0  0  0  0  0  0  0
   -3.3450    0.9650    0.4180 C   0  0  0  0  0  0  0  0  0  0  0  0
   -2.4010    2.1130    0.2460 C   0  0  0  0  0  0  0  0  0  0  0  0
   -1.1800    2.0960    0.5310 N   0  0  0  0  0  0  0  0  0  0  0  0
   -0.0560    2.7110    0.5760 N   0  0  0  0  0  0  0  0  0  0  0  0
    0.7180    3.6410    0.3850 C   0  0  0  0  0  0  0  0  0  0  0  0
    2.1370    3.5350    0.8310 C   0  0  0  0  0  0  0  0  0  0  0  0
    2.9120    2.5030    0.7090 C   0  0  0  0  0  0  0  0  0  0  0  0
    4.3730    2.4860    1.2360 C   0  0  0  0  0  0  0  0  0  0  0  0
    4.2160    1.1980    2.0120 C   0  0  0  0  0  0  0  0  0  0  0  0
   -1.8040   -0.8980    0.2680 C   0  0  0  0  0  0  0  0  0  0  0  0
   -1.3580   -1.9850   -0.7030 C   0  0  0  0  0  0  0  0  0  0  0  0
  1  2  1  0
  2  3  1  0
  3  4  2  0
  3  8  1  0
  4  5  1  0
  5  6  2  0
  5 28  1  0
  6  7  1  0
  6 26  1  0
  7  8  2  0
  8  9  1  0
  9 10  1  0
 10 11  2  0
 10 12  1  0
 12 13  1  0
 12 30  1  0
 13 14  1  0
 14 15  1  0
 15 16  1  6
 15 20  1  0
 15 29  1  0
 16 17  1  0
 17 18  2  0
 18 19  1  0
 19 20  2  0
 20 21  1  0
 21 22  2  0
 22 23  1  0
 23 24  2  0
 24 25  1  0
 25 26  2  0
 26 27  1  0
 27 28  1  0
 29 30  1  0
M  END
