
     RDKit          3D

 29 32  0  0  0  0  0  0  0  0999 V2000
    3.1920    0.5620   -2.1470 C   0  0  0  0  0  0  0  0  0  0  0  0
    3.3180   -0.6860   -1.3340 C   0  0  0  0  0  0  0  0  0  0  0  0
    3.1320   -0.3850    0.0920 C   0  0  0  0  0  0  0  0  0  0  0  0
    1.8580   -0.5900    0.5780 N   0  0  0  0  0  0  0  0  0  0  0  0
    1.5330   -0.3570    1.8390 C   0  0  0  0  0  0  0  0  0  0  0  0
    0.1710   -0.5990    2.2850 C   0  0  0  0  0  0  0  0  0  0  0  0
   -0.1040   -0.3570    3.5090 O   0  0  0  0  0  0  0  0  0  0  0  0
   -0.8470   -1.0780    1.4580 N   0  0  0  0  0  0  0  0  0  0  0  0
   -0.6340   -1.3850    0.0800 C   0  0  0  0  0  0  0  0  0  0  0  0
   -1.8450   -2.1640   -0.4110 C   0  0  2  0  0  0  0  0  0  0  0  0
   -1.5880   -2.4310   -1.8880 C   0  0  0  0  0  0  0  0  0  0  0  0
   -2.7940   -2.9310   -2.6010 C   0  0  0  0  0  0  0  0  0  0  0  0
   -4.0750   -2.2240   -2.2290 C   0  0  0  0  0  0  0  0  0  0  0  0
   -3.6890   -1.0290   -1.3680 C   0  0  0  0  0  0  0  0  0  0  0  0
   -3.1060   -1.5540   -0.1540 N   0  0  2  0  0  0  0  0  0  0  0  0
   -3.2140   -0.7200    0.9880 C   0  0  2  0  0  0  0  0  0  0  0  0
   -2.9320    0.7250    0.8530 C   0  0  2  0  0  0  0  0  0  0  0  0
   -3.1590    1.4290    2.1910 C   0  0  0  0  0  0  0  0  0  0  0  0
   -3.8400    2.7030    2.0350 N   0  0  0  0  0  0  0  0  0  0  0  0
   -3.1240    3.4690    1.0360 C   0  0  0  0  0  0  0  0  0  0  0  0
   -3.2310    2.7030   -0.2650 C   0  0  0  0  0  0  0  0  0  0  0  0
   -3.7220    1.4140   -0.0510 O   0  0  0  0  0  0  0  0  0  0  0  0
   -2.1760   -1.2660    1.9960 C   0  0  0  0  0  0  0  0  0  0  0  0
    2.4940    0.1090    2.7110 C   0  0  0  0  0  0  0  0  0  0  0  0
    3.7550    0.3130    2.2320 C   0  0  0  0  0  0  0  0  0  0  0  0
    4.1220    0.0720    0.8980 C   0  0  0  0  0  0  0  0  0  0  0  0
    5.4820    0.3130    0.5010 C   0  0  0  0  0  0  0  0  0  0  0  0
    5.8490    1.5910   -0.1490 C   0  0  0  0  0  0  0  0  0  0  0  0
    7.3120    1.5110   -0.4010 N   0  0  0  0  0  0  0  0  0  0  0  0
  1  2  1  0
  2  3  1  0
  3  4  2  0
  3 26  1  0
  4  5  1  0
  5  6  1  0
  5 24  2  0
  6  7  2  0
  6  8  1  0
  8  9  1  0
  8 23  1  0
 10  9  1  6
 10 11  1  0
 10 15  1  0
 11 12  1  0
 12 13  1  0
 13 14  1  0
 15 14  1  6
 15 16  1  0
 16 17  1  0
 16 23  1  1
 17 18  1  1
 17 22  1  0
 18 19  1  0
 19 20  1  0
 20 21  1  0
 21 22  1  0
 24 25  1  0
 25 26  2  0
 26 27  1  0
 27 28  1  0
 28 29  1  0
M  CHG  3  15   1  19   1  29   1
M  END
