
     RDKit          3D

 29 31  0  0  0  0  0  0  0  0999 V2000
   -5.6210   -0.4160   -2.0350 C   0  0  0  0  0  0  0  0  0  0  0  0
   -6.5580   -0.6030   -1.1450 C   0  0  0  0  0  0  0  0  0  0  0  0
   -7.7240   -1.4910   -1.5240 C   0  0  0  0  0  0  0  0  0  0  0  0
   -6.5750   -0.0510    0.1940 C   0  0  0  0  0  0  0  0  0  0  0  0
   -7.7830    0.5190    0.6260 C   0  0  0  0  0  0  0  0  0  0  0  0
   -7.8900    1.0520    1.8390 N   0  0  0  0  0  0  0  0  0  0  0  0
   -6.8510    1.0490    2.6560 C   0  0  0  0  0  0  0  0  0  0  0  0
   -5.6500    0.4940    2.2610 C   0  0  0  0  0  0  0  0  0  0  0  0
   -5.4590   -0.0830    1.0090 C   0  0  0  0  0  0  0  0  0  0  0  0
   -4.2600   -0.7210    0.6130 N   0  0  0  0  0  0  0  0  0  0  0  0
   -3.0190   -0.6910    1.2700 C   0  0  0  0  0  0  0  0  0  0  0  0
   -2.8770   -0.0500    2.3210 O   0  0  0  0  0  0  0  0  0  0  0  0
   -1.8250   -1.4270    0.7290 C   0  0  0  0  0  0  0  0  0  0  0  0
   -0.7040   -1.2230    1.5830 N   0  0  0  0  0  0  0  0  0  0  0  0
    0.4780   -1.9250    1.1640 C   0  0  0  0  0  0  0  0  0  0  0  0
    1.2290   -1.2310    0.0580 C   0  0  0  0  0  0  0  0  0  0  0  0
    1.1860    0.2030    0.2220 N   0  0  2  0  0  0  0  0  0  0  0  0
    2.3320    0.8760   -0.3240 C   0  0  2  0  0  0  0  0  0  0  0  0
    2.0700    1.3420   -1.7290 C   0  0  0  0  0  0  0  0  0  0  0  0
    3.3570    1.5660   -2.4810 C   0  0  0  0  0  0  0  0  0  0  0  0
    4.4490    1.9610   -1.5180 C   0  0  0  0  0  0  0  0  0  0  0  0
    4.7280    0.9360   -0.5380 N   0  0  2  0  0  0  0  0  0  0  0  0
    5.8840    0.1920   -0.9850 C   0  0  0  0  0  0  0  0  0  0  0  0
    7.0370    0.4300   -0.0360 C   0  0  0  0  0  0  0  0  0  0  0  0
    8.2720   -0.3300   -0.4650 C   0  0  0  0  0  0  0  0  0  0  0  0
    7.9270   -1.7000   -0.4680 O   0  0  0  0  0  0  0  0  0  0  0  0
    3.5840    0.0750   -0.3080 C   0  0  0  0  0  0  0  0  0  0  0  0
    1.0250    0.4550    1.6430 C   0  0  0  0  0  0  0  0  0  0  0  0
   -0.4540    0.1530    1.9330 C   0  0  0  0  0  0  0  0  0  0  0  0
  1  2  2  0
  2  3  1  0
  2  4  1  0
  4  5  2  0
  4  9  1  0
  5  6  1  0
  6  7  2  0
  7  8  1  0
  8  9  2  0
  9 10  1  0
 10 11  1  0
 11 12  2  0
 11 13  1  0
 13 14  1  0
 14 15  1  0
 14 29  1  0
 15 16  1  0
 17 16  1  1
 17 18  1  0
 17 28  1  0
 18 19  1  6
 18 27  1  0
 19 20  1  0
 20 21  1  0
 21 22  1  0
 22 23  1  6
 22 27  1  0
 23 24  1  0
 24 25  1  0
 25 26  1  0
 28 29  1  0
M  CHG  3   6   1  17   1  22   1
M  END
