
     RDKit          3D

 30 33  0  0  0  0  0  0  0  0999 V2000
    5.4540   -2.4080    0.9050 C   0  0  0  0  0  0  0  0  0  0  0  0
    4.1180   -1.8120    0.3700 C   0  0  0  0  0  0  0  0  0  0  0  0
    3.0860   -2.1030    1.1450 C   0  0  0  0  0  0  0  0  0  0  0  0
    1.6670   -1.8390    1.1440 C   0  0  0  0  0  0  0  0  0  0  0  0
    0.7790   -2.6960    1.0670 N   0  0  0  0  0  0  0  0  0  0  0  0
    0.2230   -3.9270    0.9700 C   0  0  0  0  0  0  0  0  0  0  0  0
   -1.1470   -3.9870    0.8410 C   0  0  0  0  0  0  0  0  0  0  0  0
   -1.9280   -2.7010    0.7980 C   0  0  0  0  0  0  0  0  0  0  0  0
   -2.0480   -1.8210    1.8580 C   0  0  0  0  0  0  0  0  0  0  0  0
   -2.7230   -0.5800    1.7810 C   0  0  0  0  0  0  0  0  0  0  0  0
   -3.3360   -0.1240    0.6270 C   0  0  0  0  0  0  0  0  0  0  0  0
   -3.2340   -0.9900   -0.4360 C   0  0  0  0  0  0  0  0  0  0  0  0
   -2.5520   -2.2300   -0.3520 C   0  0  0  0  0  0  0  0  0  0  0  0
   -4.0130    1.2000    0.5010 C   0  0  0  0  0  0  0  0  0  0  0  0
   -3.6620    2.1000   -0.5660 N   0  0  0  0  0  0  0  0  0  0  0  0
   -4.5800    3.3130   -0.5690 C   0  0  0  0  0  0  0  0  0  0  0  0
   -2.6660    2.0730   -1.5710 C   0  0  0  0  0  0  0  0  0  0  0  0
   -3.2710    2.4030   -2.7180 O   0  0  0  0  0  0  0  0  0  0  0  0
   -1.2160    1.7370   -1.3500 C   0  0  0  0  0  0  0  0  0  0  0  0
   -0.6540    0.4980   -1.6070 C   0  0  0  0  0  0  0  0  0  0  0  0
    0.7080    0.1380   -1.3960 C   0  0  0  0  0  0  0  0  0  0  0  0
    1.5420    1.0750   -0.9050 C   0  0  0  0  0  0  0  0  0  0  0  0
    1.0410    2.3140   -0.6360 C   0  0  0  0  0  0  0  0  0  0  0  0
   -0.3090    2.6630   -0.8440 C   0  0  0  0  0  0  0  0  0  0  0  0
    2.1630    3.1920   -0.1370 C   0  0  0  0  0  0  0  0  0  0  0  0
    3.0600    2.1550    0.4700 C   0  0  0  0  0  0  0  0  0  0  0  0
    2.9290    1.0700   -0.5590 N   0  0  0  0  0  0  0  0  0  0  0  0
    3.9620    0.2390   -1.1030 C   0  0  0  0  0  0  0  0  0  0  0  0
    4.7570    0.8600   -1.9110 O   0  0  0  0  0  0  0  0  0  0  0  0
    4.0260   -1.0810   -0.7490 O   0  0  0  0  0  0  0  0  0  0  0  0
  1  2  1  0
  2  3  2  0
  2 30  1  0
  3  4  1  0
  4  5  2  0
  5  6  1  0
  6  7  2  0
  7  8  1  0
  8  9  2  0
  8 13  1  0
  9 10  1  0
 10 11  2  0
 11 12  1  0
 11 14  1  0
 12 13  2  0
 14 15  1  0
 15 16  1  0
 15 17  1  0
 17 18  2  0
 17 19  1  0
 19 20  1  0
 19 24  2  0
 20 21  2  0
 21 22  1  0
 22 23  2  0
 22 27  1  0
 23 24  1  0
 23 25  1  0
 25 26  1  0
 26 27  1  0
 27 28  1  0
 28 29  2  0
 28 30  1  0
M  END
