
     RDKit          3D

 30 35  0  0  0  0  0  0  0  0999 V2000
   -4.8000   -1.3030   -0.7660 C   0  0  0  0  0  0  0  0  0  0  0  0
   -3.8970   -0.2090   -0.3120 C   0  0  0  0  0  0  0  0  0  0  0  0
   -2.5420   -0.3490   -0.6370 C   0  0  0  0  0  0  0  0  0  0  0  0
   -1.7270    0.6650   -0.2120 C   0  0  0  0  0  0  0  0  0  0  0  0
   -2.2010    1.7540    0.4900 C   0  0  0  0  0  0  0  0  0  0  0  0
   -3.5530    1.8450    0.7860 C   0  0  0  0  0  0  0  0  0  0  0  0
   -4.3300    2.7950    1.4630 C   0  0  0  0  0  0  0  0  0  0  0  0
   -5.6290    2.3530    1.4490 C   0  0  0  0  0  0  0  0  0  0  0  0
   -5.6230    1.1620    0.7750 C   0  0  0  0  0  0  0  0  0  0  0  0
   -4.3640    0.8560    0.3750 N   0  0  0  0  0  0  0  0  0  0  0  0
   -0.2460    0.5900   -0.5230 C   0  0  0  0  0  0  0  0  0  0  0  0
    0.1020   -0.7220   -1.0060 N   0  0  0  0  0  0  0  0  0  0  0  0
    1.0750   -1.6360   -0.6770 C   0  0  0  0  0  0  0  0  0  0  0  0
    0.8260   -2.8060   -1.3670 O   0  0  0  0  0  0  0  0  0  0  0  0
    2.2240   -1.8030    0.1450 C   0  0  0  0  0  0  0  0  0  0  0  0
    2.4740   -3.0440    0.7510 N   0  0  0  0  0  0  0  0  0  0  0  0
    3.5760   -3.0440    1.4520 C   0  0  0  0  0  0  0  0  0  0  0  0
    4.1530   -1.8120    1.3680 C   0  0  0  0  0  0  0  0  0  0  0  0
    5.2900   -1.2450    1.8540 C   0  0  0  0  0  0  0  0  0  0  0  0
    6.0190   -1.9560    2.6030 O   0  0  0  0  0  0  0  0  0  0  0  0
    5.6210   -0.0170    1.5630 O   0  0  0  0  0  0  0  0  0  0  0  0
    4.8740    0.7230    0.7830 C   0  0  0  0  0  0  0  0  0  0  0  0
    5.2650    2.0210    0.4620 C   0  0  0  0  0  0  0  0  0  0  0  0
    4.5070    2.7890   -0.3810 C   0  0  0  0  0  0  0  0  0  0  0  0
    3.3440    2.2590   -0.9130 C   0  0  0  0  0  0  0  0  0  0  0  0
    2.9450    0.9790   -0.5980 C   0  0  0  0  0  0  0  0  0  0  0  0
    3.6970    0.2250    0.2500 C   0  0  0  0  0  0  0  0  0  0  0  0
    3.2930   -1.0650    0.5400 C   0  0  0  0  0  0  0  0  0  0  0  0
   -0.8270   -1.1340   -2.1260 C   0  0  0  0  0  0  0  0  0  0  0  0
   -2.0830   -1.5410   -1.3920 C   0  0  0  0  0  0  0  0  0  0  0  0
  1  2  1  0
  2  3  2  0
  2 10  1  0
  3  4  1  0
  3 30  1  0
  4  5  2  0
  4 11  1  0
  5  6  1  0
  6  7  2  0
  6 10  1  0
  7  8  1  0
  8  9  2  0
  9 10  1  0
 11 12  1  0
 12 13  1  0
 12 29  1  0
 13 14  2  0
 13 15  1  0
 15 16  1  0
 15 28  2  0
 16 17  1  0
 17 18  2  0
 18 19  1  0
 18 28  1  0
 19 20  2  0
 19 21  1  0
 21 22  1  0
 22 23  2  0
 22 27  1  0
 23 24  1  0
 24 25  2  0
 25 26  1  0
 26 27  2  0
 27 28  1  0
 29 30  1  0
M  END
