
     RDKit          3D

 28 30  0  0  0  0  0  0  0  0999 V2000
   -5.9600    0.9680    2.9730 N   0  0  0  0  0  0  0  0  0  0  0  0
   -5.5740    0.8080    1.6010 C   0  0  0  0  0  0  0  0  0  0  0  0
   -4.2850    0.6390    1.2640 N   0  0  0  0  0  0  0  0  0  0  0  0
   -3.8570    0.4840   -0.0090 C   0  0  0  0  0  0  0  0  0  0  0  0
   -4.8210    0.5040   -0.9960 C   0  0  0  0  0  0  0  0  0  0  0  0
   -4.1980    0.3350   -2.1860 N   0  0  0  0  0  0  0  0  0  0  0  0
   -2.8830    0.2150   -1.9120 C   0  0  0  0  0  0  0  0  0  0  0  0
   -2.6680    0.3040   -0.5970 N   0  0  0  0  0  0  0  0  0  0  0  0
   -1.4000    0.2220    0.0690 C   0  0  2  0  0  0  0  0  0  0  0  0
   -0.3470    0.6920   -0.7130 O   0  0  0  0  0  0  0  0  0  0  0  0
    0.7440    0.0730   -0.0780 C   0  0  2  0  0  0  0  0  0  0  0  0
    2.0450    0.3410   -0.7640 C   0  0  0  0  0  0  0  0  0  0  0  0
    3.0470   -0.2990   -0.0790 O   0  0  0  0  0  0  0  0  0  0  0  0
    4.5690   -0.0810   -0.7460 P   0  0  2  0  0  0  0  0  0  0  0  0
    4.3980   -0.1280   -2.2670 O   0  0  0  0  0  0  0  0  0  0  0  0
    5.6590   -1.2740   -0.3330 O   0  0  0  0  0  0  0  0  0  0  0  0
    5.2430    1.4140   -0.3790 O   0  0  0  0  0  0  0  0  0  0  0  0
    6.9200    1.2600   -0.5560 P   0  0  1  0  0  0  0  0  0  0  0  0
    7.5470    2.5760   -0.9680 O   0  0  0  0  0  0  0  0  0  0  0  0
    7.6440    0.7390    0.8990 O   0  0  0  0  0  0  0  0  0  0  0  0
    7.2170    0.0570   -1.7100 O   0  0  0  0  0  0  0  0  0  0  0  0
    0.2930   -1.3680   -0.2010 C   0  0  1  0  0  0  0  0  0  0  0  0
    1.1000   -2.2450    0.4960 O   0  0  0  0  0  0  0  0  0  0  0  0
   -1.0700   -1.2040    0.4420 C   0  0  1  0  0  0  0  0  0  0  0  0
   -0.8870   -1.3070    1.8130 O   0  0  0  0  0  0  0  0  0  0  0  0
   -6.1450    0.6790   -0.6380 C   0  0  0  0  0  0  0  0  0  0  0  0
   -7.0600    0.7050   -1.5020 O   0  0  0  0  0  0  0  0  0  0  0  0
   -6.5090    0.8290    0.6510 N   0  0  0  0  0  0  0  0  0  0  0  0
  1  2  1  0
  2  3  2  0
  2 28  1  0
  3  4  1  0
  4  5  2  0
  4  8  1  0
  5  6  1  0
  5 26  1  0
  6  7  2  0
  7  8  1  0
  9  8  1  6
  9 10  1  0
  9 24  1  0
 10 11  1  0
 11 12  1  6
 11 22  1  0
 12 13  1  0
 13 14  1  0
 14 15  2  0
 14 16  1  1
 14 17  1  0
 17 18  1  0
 18 19  2  0
 18 20  1  1
 18 21  1  0
 22 23  1  1
 22 24  1  0
 24 25  1  1
 26 27  2  0
 26 28  1  0
M  END
