
     RDKit          3D

 19 19  0  0  0  0  0  0  0  0999 V2000
   -0.3300    0.2520   -1.5670 O   0  0  0  0  0  0  0  0  0  0  0  0
   -0.0710    0.9780   -0.5840 C   0  0  0  0  0  0  0  0  0  0  0  0
   -1.0900    1.6440    0.0240 O   0  0  0  0  0  0  0  0  0  0  0  0
   -2.4410    1.6790   -0.2200 C   0  0  0  0  0  0  0  0  0  0  0  0
   -3.2050    0.5770   -0.0540 O   0  0  0  0  0  0  0  0  0  0  0  0
   -3.0180   -0.5720   -0.7040 C   0  0  0  0  0  0  0  0  0  0  0  0
   -4.1640   -1.5330   -0.3230 C   0  0  2  0  0  0  0  0  0  0  0  0
   -5.3440   -0.9080   -0.7140 O   0  0  0  0  0  0  0  0  0  0  0  0
   -4.0890   -1.6940    1.1800 C   0  0  0  0  0  0  0  0  0  0  0  0
   -4.1440   -0.4260    1.7560 O   0  0  0  0  0  0  0  0  0  0  0  0
    1.3390    1.0700   -0.1370 C   0  0  2  0  0  0  0  0  0  0  0  0
    2.1910    0.2950   -0.9220 O   0  0  0  0  0  0  0  0  0  0  0  0
    3.3200    0.2730   -0.0820 C   0  0  2  0  0  0  0  0  0  0  0  0
    4.3960   -0.6330   -0.6130 C   0  0  0  0  0  0  0  0  0  0  0  0
    5.5530   -0.5700    0.3760 C   0  0  0  0  0  0  0  0  0  0  0  0
    6.6070   -1.4010   -0.0600 O   0  0  0  0  0  0  0  0  0  0  0  0
    2.7470   -0.2210    1.1140 O   0  0  0  0  0  0  0  0  0  0  0  0
    1.4980    0.4030    1.1920 C   0  0  0  0  0  0  0  0  0  0  0  0
    0.6650    0.4400    2.1090 O   0  0  0  0  0  0  0  0  0  0  0  0
  1  2  2  0
  2  3  1  0
 11  2  1  6
  3  4  1  0
  4  5  1  0
  5  6  1  0
  6  7  1  0
  7  8  1  1
  7  9  1  0
  9 10  1  0
 11 12  1  0
 11 18  1  0
 12 13  1  0
 13 14  1  6
 13 17  1  0
 14 15  1  0
 15 16  1  0
 17 18  1  0
 18 19  2  0
M  END
