
     RDKit          3D

 20 19  0  0  0  0  0  0  0  0999 V2000
   -3.6030   -3.1330    0.5830 C   0  0  0  0  0  0  0  0  0  0  0  0
   -2.6470   -2.3160   -0.2570 C   0  0  0  0  0  0  0  0  0  0  0  0
   -1.9900   -1.4450    0.6170 O   0  0  0  0  0  0  0  0  0  0  0  0
   -0.8780   -0.4860   -0.2770 P   0  0  0  0  0  0  0  0  0  0  0  0
   -1.6960    1.1000   -0.7690 C   0  0  0  0  0  0  0  0  0  0  0  0
   -2.3470    1.8060    0.4190 C   0  0  0  0  0  0  0  0  0  0  0  0
   -2.9130    2.9640   -0.0890 O   0  0  0  0  0  0  0  0  0  0  0  0
   -3.5560    3.7400    0.8460 C   0  0  0  0  0  0  0  0  0  0  0  0
    0.5260   -0.1680    0.6550 O   0  0  0  0  0  0  0  0  0  0  0  0
    1.5230   -1.1140    0.4150 C   0  0  2  0  0  0  0  0  0  0  0  0
    1.0290   -2.5020    0.7680 C   0  0  0  0  0  0  0  0  0  0  0  0
    2.9050   -0.7520    1.5290 S   0  0  0  0  0  0  0  0  0  0  0  0
    3.6640    0.7670    1.1520 O   0  0  0  0  0  0  0  0  0  0  0  0
    4.8650    0.7650    0.4430 C   0  0  0  0  0  0  0  0  0  0  0  0
    5.5600    2.0140    0.0910 C   0  0  0  0  0  0  0  0  0  0  0  0
    5.3560   -0.3400    0.1010 O   0  0  0  0  0  0  0  0  0  0  0  0
    1.9280   -1.0590   -1.0010 C   0  0  0  0  0  0  0  0  0  0  0  0
    2.8160   -1.8270   -1.4610 O   0  0  0  0  0  0  0  0  0  0  0  0
    1.3470   -0.1600   -1.8880 O   0  0  0  0  0  0  0  0  0  0  0  0
    1.7030   -0.0980   -3.1780 O   0  0  0  0  0  0  0  0  0  0  0  0
  1  2  1  0
  2  3  1  0
  3  4  1  0
  4  5  1  0
  4  9  1  0
  5  6  1  0
  6  7  1  0
  7  8  1  0
  9 10  1  0
 10 11  1  1
 10 12  1  0
 10 17  1  0
 12 13  1  0
 13 14  1  0
 14 15  1  0
 14 16  2  0
 17 18  2  0
 17 19  1  0
 19 20  1  0
M  END
