
     RDKit          3D

 20 19  0  0  0  0  0  0  0  0999 V2000
   -0.2670    0.9260   -1.3550 C   0  0  0  0  0  0  0  0  0  0  0  0
   -1.1390   -0.1010   -0.1070 P   0  0  0  0  0  0  0  0  0  0  0  0
   -2.6680   -0.6600   -0.6490 O   0  0  0  0  0  0  0  0  0  0  0  0
   -3.6940    0.2420   -0.4090 C   0  0  2  0  0  0  0  0  0  0  0  0
   -4.8680   -0.3340   -0.8940 O   0  0  0  0  0  0  0  0  0  0  0  0
   -3.4400    1.5410   -1.1140 C   0  0  0  0  0  0  0  0  0  0  0  0
   -4.1970    1.9540   -1.9690 O   0  0  0  0  0  0  0  0  0  0  0  0
   -3.8860    0.5180    1.0640 C   0  0  0  0  0  0  0  0  0  0  0  0
   -4.9400    1.4330    1.1760 O   0  0  0  0  0  0  0  0  0  0  0  0
    0.0380   -1.7730    0.6240 P   0  0  0  0  0  0  0  0  0  0  0  0
   -0.0900   -3.2760   -0.4390 C   0  0  0  0  0  0  0  0  0  0  0  0
    1.7440   -1.3430    1.0430 C   0  0  0  0  0  0  0  0  0  0  0  0
    2.2810   -1.9310    2.0190 O   0  0  0  0  0  0  0  0  0  0  0  0
    2.5010   -0.4060    0.3580 O   0  0  0  0  0  0  0  0  0  0  0  0
    3.8100   -0.0880    0.6930 C   0  0  0  0  0  0  0  0  0  0  0  0
    4.3110   -0.6920    1.6680 O   0  0  0  0  0  0  0  0  0  0  0  0
    4.6180    0.9050   -0.0310 C   0  0  1  0  0  0  0  0  0  0  0  0
    5.8810    0.9930    0.5480 O   0  0  0  0  0  0  0  0  0  0  0  0
    4.6890    0.6500   -1.4800 C   0  0  0  0  0  0  0  0  0  0  0  0
    5.1330    1.6830   -2.3600 S   0  0  0  0  0  0  0  0  0  0  0  0
  1  2  1  0
  2  3  1  0
  2 10  1  0
  3  4  1  0
  4  5  1  6
  4  6  1  0
  4  8  1  0
  6  7  2  0
  8  9  1  0
 10 11  1  0
 10 12  1  0
 12 13  2  0
 12 14  1  0
 14 15  1  0
 15 16  2  0
 15 17  1  0
 17 18  1  1
 17 19  1  0
 19 20  2  0
M  END
