
     RDKit          3D

 19 19  0  0  0  0  0  0  0  0999 V2000
   -1.3810   -1.9850   -3.1110 C   0  0  0  0  0  0  0  0  0  0  0  0
   -1.1590   -1.5650   -1.8850 C   0  0  0  0  0  0  0  0  0  0  0  0
   -1.7530   -2.1370   -0.7680 O   0  0  0  0  0  0  0  0  0  0  0  0
   -1.2630   -1.8340    0.4600 O   0  0  0  0  0  0  0  0  0  0  0  0
   -1.4960   -0.4200    0.6900 C   0  0  2  0  0  0  0  0  0  0  0  0
   -1.6500   -0.3410    2.1960 C   0  0  0  0  0  0  0  0  0  0  0  0
   -2.5740   -0.1210   -0.0110 O   0  0  0  0  0  0  0  0  0  0  0  0
   -3.2070    1.0350   -0.1100 C   0  0  0  0  0  0  0  0  0  0  0  0
   -2.5800    2.2520   -0.6740 C   0  0  0  0  0  0  0  0  0  0  0  0
   -0.2250    0.2000    0.2100 C   0  0  1  0  0  0  0  0  0  0  0  0
   -0.0340    1.5180    0.5240 O   0  0  0  0  0  0  0  0  0  0  0  0
   -0.0150    1.7720    1.7930 O   0  0  0  0  0  0  0  0  0  0  0  0
    0.9100   -0.4740    0.8430 O   0  0  0  0  0  0  0  0  0  0  0  0
    2.2120   -0.0740    0.5540 C   0  0  0  0  0  0  0  0  0  0  0  0
    2.3020    0.8720   -0.2600 O   0  0  0  0  0  0  0  0  0  0  0  0
    3.4060   -0.6870    1.1370 C   0  0  0  0  0  0  0  0  0  0  0  0
    4.5520   -0.1450    0.6110 O   0  0  0  0  0  0  0  0  0  0  0  0
    4.7670   -0.3370   -0.7220 C   0  0  0  0  0  0  0  0  0  0  0  0
   -0.0450   -0.1850   -1.5550 S   0  0  0  0  0  0  0  0  0  0  0  0
  1  2  2  0
  2  3  1  0
  2 19  1  0
  3  4  1  0
  4  5  1  0
  5  6  1  1
  5  7  1  0
  5 10  1  0
  7  8  1  0
  8  9  1  0
 10 11  1  6
 10 13  1  0
 10 19  1  0
 11 12  1  0
 13 14  1  0
 14 15  2  0
 14 16  1  0
 16 17  1  0
 17 18  1  0
M  END
