
     RDKit          3D

 20 21  0  0  0  0  0  0  0  0999 V2000
   -2.5660   -1.0010    2.5600 C   0  0  0  0  0  0  0  0  0  0  0  0
   -2.5720    0.1230    1.6660 O   0  0  0  0  0  0  0  0  0  0  0  0
   -1.6910    0.1180    0.5610 C   0  0  0  0  0  0  0  0  0  0  0  0
   -2.1410   -0.2280   -0.6310 C   0  0  0  0  0  0  0  0  0  0  0  0
   -3.6020   -0.6020   -0.7230 C   0  0  0  0  0  0  0  0  0  0  0  0
   -3.6930   -1.9260   -1.1840 O   0  0  0  0  0  0  0  0  0  0  0  0
   -1.3300   -0.2540   -1.7470 O   0  0  0  0  0  0  0  0  0  0  0  0
    0.0560    0.8110   -1.8000 P   0  0  0  0  0  0  0  0  0  0  0  0
    1.5620   -0.1260   -1.9980 O   0  0  0  0  0  0  0  0  0  0  0  0
    2.1690   -0.1390   -0.7550 C   0  0  0  0  0  0  0  0  0  0  0  0
    2.9370   -1.1200   -0.3380 C   0  0  0  0  0  0  0  0  0  0  0  0
    3.6840   -1.0510    1.2940 S   0  0  0  0  0  0  0  0  0  0  0  0
    3.2490   -2.3270   -1.1390 C   0  0  0  0  0  0  0  0  0  0  0  0
    2.6580   -2.3380   -2.3760 O   0  0  0  0  0  0  0  0  0  0  0  0
    1.8540    1.0630    0.0320 C   0  0  0  0  0  0  0  0  0  0  0  0
    0.3720    1.3190   -0.0250 C   0  0  1  0  0  0  0  0  0  0  0  0
   -0.0810    3.0780    0.1740 P   0  0  0  0  0  0  0  0  0  0  0  0
   -0.1200    3.9740   -1.2760 O   0  0  0  0  0  0  0  0  0  0  0  0
    0.7040    3.8660    1.4760 O   0  0  0  0  0  0  0  0  0  0  0  0
   -0.3830    0.4920    0.8410 O   0  0  0  0  0  0  0  0  0  0  0  0
  1  2  1  0
  2  3  1  0
  3  4  2  0
  3 20  1  0
  4  5  1  0
  4  7  1  0
  5  6  1  0
  7  8  1  0
  8  9  1  0
  8 16  1  0
  9 10  1  0
 10 11  2  3
 10 15  1  0
 11 12  1  0
 11 13  1  0
 13 14  1  0
 15 16  1  0
 16 17  1  6
 16 20  1  0
 17 18  1  0
 17 19  1  0
M  END
