
     RDKit          3D

  8  7  0  0  0  0  0  0  0  0999 V2000
    2.4840    1.1200    0.2640 O   0  0  0  0  0  0  0  0  0  0  0  0
    2.0440    0.0040    0.5890 C   0  0  0  0  0  0  0  0  0  0  0  0
    2.7590   -0.7310    1.5210 O   0  0  0  0  0  0  0  0  0  0  0  0
    0.8670   -0.4420    0.0050 O   0  0  0  0  0  0  0  0  0  0  0  0
    0.2020    0.3030   -0.8960 O   0  0  0  0  0  0  0  0  0  0  0  0
   -1.1460    0.0360   -0.8500 C   0  0  0  0  0  0  0  0  0  0  0  0
   -1.6570    0.3220    0.4170 O   0  0  0  0  0  0  0  0  0  0  0  0
   -2.9560    0.0330    0.3570 O   0  0  0  0  0  0  0  0  0  0  0  0
  1  2  2  0
  2  3  1  0
  2  4  1  0
  4  5  1  0
  5  6  1  0
  6  7  1  0
  7  8  1  0
M  END
