
     RDKit          3D

 20 20  0  0  0  0  0  0  0  0999 V2000
   -1.7610   -1.8730    0.2380 C   0  0  0  0  0  0  0  0  0  0  0  0
   -2.2710   -0.8220   -0.7180 C   0  0  2  0  0  0  0  0  0  0  0  0
   -3.6830   -0.9300   -0.6960 O   0  0  0  0  0  0  0  0  0  0  0  0
   -1.8950   -1.0870   -2.0300 O   0  0  0  0  0  0  0  0  0  0  0  0
   -1.9410    0.5530   -0.2690 C   0  0  2  0  0  0  0  0  0  0  0  0
   -2.5390    1.4570   -1.1590 O   0  0  0  0  0  0  0  0  0  0  0  0
   -3.7400    2.4320   -0.3520 P   0  0  0  0  0  0  0  0  0  0  0  0
   -2.8760    3.7090    0.4610 O   0  0  0  0  0  0  0  0  0  0  0  0
   -0.5090    0.8880   -0.1700 C   0  0  1  0  0  0  0  0  0  0  0  0
    0.2290    0.0800    0.6780 O   0  0  0  0  0  0  0  0  0  0  0  0
    1.5240    0.5240    0.4180 C   0  0  1  0  0  0  0  0  0  0  0  0
    2.5800   -0.3760    0.9480 C   0  0  1  0  0  0  0  0  0  0  0  0
    3.9430    0.2040    0.6070 C   0  0  0  0  0  0  0  0  0  0  0  0
    2.4370   -0.6330    2.7380 S   0  0  0  0  0  0  0  0  0  0  0  0
    2.4560   -1.7280    0.2800 C   0  0  0  0  0  0  0  0  0  0  0  0
    2.6760   -1.4670   -1.5450 P   0  0  0  0  0  0  0  0  0  0  0  0
    4.0820   -1.1470   -2.0770 O   0  0  0  0  0  0  0  0  0  0  0  0
    1.5690    0.6340   -1.0140 O   0  0  0  0  0  0  0  0  0  0  0  0
    0.2600    0.8710   -1.4030 C   0  0  0  0  0  0  0  0  0  0  0  0
   -0.1310    1.0290   -2.5690 O   0  0  0  0  0  0  0  0  0  0  0  0
  2  1  1  1
  2  3  1  0
  2  4  1  0
  2  5  1  0
  5  6  1  6
  5  9  1  0
  6  7  1  0
  7  8  1  0
  9 10  1  1
  9 19  1  0
 11 10  1  6
 11 12  1  0
 11 18  1  0
 12 13  1  1
 12 14  1  0
 12 15  1  0
 15 16  1  0
 16 17  2  0
 18 19  1  0
 19 20  2  0
M  END
