
     RDKit          3D

 21 22  0  0  0  0  0  0  0  0999 V2000
   -4.0600   -1.8970    1.0790 C   0  0  0  0  0  0  0  0  0  0  0  0
   -2.8470   -2.2430    0.2680 C   0  0  0  0  0  0  0  0  0  0  0  0
   -1.7810   -1.3260    0.4490 O   0  0  0  0  0  0  0  0  0  0  0  0
   -1.9180    0.0090    0.1490 C   0  0  0  0  0  0  0  0  0  0  0  0
   -3.0470    0.3720   -0.2960 O   0  0  0  0  0  0  0  0  0  0  0  0
   -0.8050    0.9460    0.3420 C   0  0  2  0  0  0  0  0  0  0  0  0
   -1.1850    2.3670    0.0660 C   0  0  1  0  0  0  0  0  0  0  0  0
   -1.6520    2.6670   -1.2360 N   0  0  0  0  0  0  0  0  0  0  0  0
   -2.2740    2.8530    1.0390 C   0  0  0  0  0  0  0  0  0  0  0  0
   -2.3850    4.2440    0.7990 O   0  0  0  0  0  0  0  0  0  0  0  0
    0.4740    0.5710   -0.2900 C   0  0  2  0  0  0  0  0  0  0  0  0
    1.4270    1.5920   -0.0230 O   0  0  0  0  0  0  0  0  0  0  0  0
    0.4650    0.3130   -1.7590 C   0  0  0  0  0  0  0  0  0  0  0  0
    1.9360    0.3400   -2.1730 C   0  0  0  0  0  0  0  0  0  0  0  0
    2.5360   -0.7570   -1.6570 O   0  0  0  0  0  0  0  0  0  0  0  0
    2.4360   -0.9790   -0.3270 C   0  0  1  0  0  0  0  0  0  0  0  0
    2.7010   -2.4780   -0.1120 C   0  0  0  0  0  0  0  0  0  0  0  0
    3.4530   -2.4700    1.1800 C   0  0  0  0  0  0  0  0  0  0  0  0
    3.4660   -1.1720    1.6650 O   0  0  0  0  0  0  0  0  0  0  0  0
    3.5530   -0.3810    0.4960 C   0  0  0  0  0  0  0  0  0  0  0  0
    1.1240   -0.6770    0.3110 C   0  0  0  0  0  0  0  0  0  0  0  0
  1  2  1  0
  2  3  1  0
  3  4  1  0
  4  5  2  0
  6  4  1  6
  6  7  1  0
  6 11  1  0
  7  8  1  6
  7  9  1  0
  9 10  1  0
 11 12  1  6
 11 13  1  0
 11 21  1  0
 13 14  1  0
 14 15  1  0
 15 16  1  0
 16 17  1  6
 16 20  1  0
 16 21  1  0
 17 18  1  0
 18 19  1  0
 19 20  1  0
M  END
