
     RDKit          3D

 21 22  0  0  0  0  0  0  0  0999 V2000
    5.6630   -0.5510   -0.3350 C   0  0  0  0  0  0  0  0  0  0  0  0
    4.2830    0.1500   -0.2070 C   0  0  2  0  0  0  0  0  0  0  0  0
    4.2420    0.8500    1.1150 C   0  0  0  0  0  0  0  0  0  0  0  0
    3.2020   -0.8590   -0.3450 C   0  0  0  0  0  0  0  0  0  0  0  0
    1.8270   -0.2250   -0.2260 C   0  0  1  0  0  0  0  0  0  0  0  0
    1.7840    0.3630    1.0630 O   0  0  0  0  0  0  0  0  0  0  0  0
    1.6770    0.7980   -1.2900 C   0  0  0  0  0  0  0  0  0  0  0  0
    1.6830    0.2970   -2.5710 O   0  0  0  0  0  0  0  0  0  0  0  0
    0.7880   -1.3140   -0.1930 C   0  0  0  0  0  0  0  0  0  0  0  0
   -0.5090   -1.0240    0.0500 O   0  0  0  0  0  0  0  0  0  0  0  0
   -1.4860   -0.3710   -0.6090 C   0  0  0  0  0  0  0  0  0  0  0  0
   -1.2550    0.1070   -1.7210 O   0  0  0  0  0  0  0  0  0  0  0  0
   -2.8490   -0.1950   -0.0580 C   0  0  0  0  0  0  0  0  0  0  0  0
   -3.1770   -0.6770    1.1280 C   0  0  0  0  0  0  0  0  0  0  0  0
   -4.4760   -0.5150    1.6650 N   0  0  0  0  0  0  0  0  0  0  0  0
   -5.5170    0.2460    1.0430 C   0  0  2  0  0  0  0  0  0  0  0  0
   -6.3280   -0.4520    0.1730 O   0  0  0  0  0  0  0  0  0  0  0  0
   -6.3650    0.6200   -0.7180 C   0  0  0  0  0  0  0  0  0  0  0  0
   -5.0350    1.0740   -0.1040 C   0  0  2  0  0  0  0  0  0  0  0  0
   -3.8710    0.5180   -0.8090 C   0  0  0  0  0  0  0  0  0  0  0  0
   -3.7480    0.6550   -2.0730 O   0  0  0  0  0  0  0  0  0  0  0  0
  2  1  1  1
  2  3  1  0
  2  4  1  0
  4  5  1  0
  5  6  1  1
  5  7  1  0
  5  9  1  0
  7  8  1  0
  9 10  1  0
 10 11  1  0
 11 12  2  0
 11 13  1  0
 13 14  2  0
 13 20  1  0
 14 15  1  0
 16 15  1  6
 16 17  1  0
 16 19  1  0
 17 18  1  0
 19 18  1  6
 19 20  1  0
 20 21  2  0
M  END
