
     RDKit          3D

 21 22  0  0  0  0  0  0  0  0999 V2000
   -4.6320   -2.0220    1.7540 C   0  0  0  0  0  0  0  0  0  0  0  0
   -3.5580   -1.4160    1.1750 C   0  0  0  0  0  0  0  0  0  0  0  0
   -3.8360   -0.8970   -0.0360 O   0  0  0  0  0  0  0  0  0  0  0  0
   -2.3140   -1.4170    1.9200 C   0  0  0  0  0  0  0  0  0  0  0  0
   -1.1630   -0.8970    1.5580 C   0  0  0  0  0  0  0  0  0  0  0  0
   -1.0250   -0.2310    0.2970 C   0  0  0  0  0  0  0  0  0  0  0  0
   -2.0930   -0.1350   -0.4210 O   0  0  0  0  0  0  0  0  0  0  0  0
    0.0870    0.3560   -0.3320 N   0  0  0  0  0  0  0  0  0  0  0  0
    1.4490    0.4400    0.0530 C   0  0  0  0  0  0  0  0  0  0  0  0
    2.2190    0.9940   -1.1500 C   0  0  1  0  0  0  0  0  0  0  0  0
    3.3260    0.1830   -1.3600 O   0  0  0  0  0  0  0  0  0  0  0  0
    1.2640    0.9520   -2.2930 C   0  0  2  0  0  0  0  0  0  0  0  0
    1.3950   -0.2540   -2.9980 O   0  0  0  0  0  0  0  0  0  0  0  0
    1.4120    2.0810   -3.2790 C   0  0  0  0  0  0  0  0  0  0  0  0
    2.7940    2.0980   -3.9070 C   0  0  0  0  0  0  0  0  0  0  0  0
    3.7590    2.2560   -2.9250 O   0  0  0  0  0  0  0  0  0  0  0  0
   -0.0960    1.0490   -1.6410 C   0  0  0  0  0  0  0  0  0  0  0  0
    0.0170   -0.9550    2.4440 C   0  0  0  0  0  0  0  0  0  0  0  0
   -0.0810   -1.5410    3.6270 C   0  0  0  0  0  0  0  0  0  0  0  0
   -1.3280   -2.1440    4.1010 C   0  0  0  0  0  0  0  0  0  0  0  0
   -2.3520   -2.0590    3.1920 O   0  0  0  0  0  0  0  0  0  0  0  0
  1  2  2  0
  2  3  1  0
  2  4  1  0
  4  5  2  0
  4 21  1  0
  5  6  1  0
  5 18  1  0
  6  7  2  0
  6  8  1  0
  8  9  1  0
  8 17  1  0
  9 10  1  0
 10 11  1  6
 10 12  1  0
 12 13  1  6
 12 14  1  0
 12 17  1  0
 14 15  1  0
 15 16  1  0
 18 19  2  0
 19 20  1  0
 20 21  1  0
M  END
