
     RDKit          3D

  8  8  0  0  0  0  0  0  0  0999 V2000
   -2.7740    0.3150    0.1170 N   0  0  0  0  0  0  0  0  0  0  0  0
   -1.3680    0.4410   -0.0840 C   0  0  0  0  0  0  0  0  0  0  0  0
   -0.6130   -0.8610    0.0390 C   0  0  0  0  0  0  0  0  0  0  0  0
    0.8250   -0.5670   -0.1950 C   0  0  0  0  0  0  0  0  0  0  0  0
    1.4160    0.6490   -0.4750 C   0  0  0  0  0  0  0  0  0  0  0  0
    2.7370    0.5110   -0.6210 N   0  0  0  0  0  0  0  0  0  0  0  0
    2.9830   -0.8020   -0.4310 C   0  0  0  0  0  0  0  0  0  0  0  0
    1.8380   -1.4650   -0.1740 N   0  0  0  0  0  0  0  0  0  0  0  0
  1  2  1  0
  2  3  1  0
  3  4  1  0
  4  5  2  0
  4  8  1  0
  5  6  1  0
  6  7  1  0
  7  8  2  0
M  CHG  1   1   1
M  END
