
     RDKit          3D

 21 22  0  0  0  0  0  0  0  0999 V2000
   -0.7330   -0.7030   -1.5060 O   0  0  0  0  0  0  0  0  0  0  0  0
   -0.4310   -0.0640   -0.4730 C   0  0  0  0  0  0  0  0  0  0  0  0
   -1.5540    0.7030    0.1650 C   0  0  0  0  0  0  0  0  0  0  0  0
   -2.8420    0.5530   -0.5750 C   0  0  1  0  0  0  0  0  0  0  0  0
   -2.7460    1.0110   -1.8950 O   0  0  0  0  0  0  0  0  0  0  0  0
   -3.3210   -0.8730   -0.6270 C   0  0  0  0  0  0  0  0  0  0  0  0
   -4.8200   -0.9820   -0.5890 C   0  0  0  0  0  0  0  0  0  0  0  0
   -5.3980   -0.4020    0.5140 O   0  0  0  0  0  0  0  0  0  0  0  0
   -4.5500    0.4430    1.1970 C   0  0  0  0  0  0  0  0  0  0  0  0
   -3.8910    1.3500    0.1770 C   0  0  0  0  0  0  0  0  0  0  0  0
    0.8390   -0.0210    0.1010 N   0  0  0  0  0  0  0  0  0  0  0  0
    1.0850    0.7630    1.3180 C   0  0  0  0  0  0  0  0  0  0  0  0
    2.1970    0.1630    2.1550 C   0  0  1  0  0  0  0  0  0  0  0  0
    1.8810   -1.1400    2.4850 O   0  0  0  0  0  0  0  0  0  0  0  0
    3.4820    0.2740    1.3960 C   0  0  0  0  0  0  0  0  0  0  0  0
    3.1450    0.3250   -0.1010 C   0  0  1  0  0  0  0  0  0  0  0  0
    4.3960    0.0970   -0.8580 C   0  0  0  0  0  0  0  0  0  0  0  0
    5.2780    1.1410   -0.4540 O   0  0  0  0  0  0  0  0  0  0  0  0
    2.0310   -0.6980   -0.3800 C   0  0  2  0  0  0  0  0  0  0  0  0
    2.0490   -1.0330   -1.8140 C   0  0  0  0  0  0  0  0  0  0  0  0
    3.2480   -1.7090   -2.1050 O   0  0  0  0  0  0  0  0  0  0  0  0
  1  2  2  0
  2  3  1  0
  2 11  1  0
  3  4  1  0
  4  5  1  6
  4  6  1  0
  4 10  1  0
  6  7  1  0
  7  8  1  0
  8  9  1  0
  9 10  1  0
 11 12  1  0
 11 19  1  0
 12 13  1  0
 13 14  1  6
 13 15  1  0
 15 16  1  0
 16 17  1  6
 16 19  1  0
 17 18  1  0
 19 20  1  6
 20 21  1  0
M  END
