
     RDKit          3D

 21 22  0  0  0  0  0  0  0  0999 V2000
   -1.9020   -4.0190    0.1550 C   0  0  0  0  0  0  0  0  0  0  0  0
   -1.4370   -3.5400   -1.2020 C   0  0  0  0  0  0  0  0  0  0  0  0
   -0.6350   -2.3800   -1.1080 O   0  0  0  0  0  0  0  0  0  0  0  0
   -1.1630   -1.2420   -0.5490 C   0  0  0  0  0  0  0  0  0  0  0  0
   -2.4610   -1.1250   -0.6400 N   0  0  0  0  0  0  0  0  0  0  0  0
   -3.2250   -0.0250   -0.1300 C   0  0  0  0  0  0  0  0  0  0  0  0
   -2.3460    1.2030   -0.0570 C   0  0  1  0  0  0  0  0  0  0  0  0
   -3.0180    2.2680    0.7490 C   0  0  0  0  0  0  0  0  0  0  0  0
   -2.1270    3.4920    0.8130 C   0  0  0  0  0  0  0  0  0  0  0  0
   -1.1160    0.8510    0.5980 O   0  0  0  0  0  0  0  0  0  0  0  0
   -0.3400   -0.2310    0.1020 C   0  0  0  0  0  0  0  0  0  0  0  0
    0.9560   -0.2810    0.2340 C   0  0  0  0  0  0  0  0  0  0  0  0
    1.5290    0.8400    0.9110 O   0  0  0  0  0  0  0  0  0  0  0  0
    2.7860    1.3230    0.5960 C   0  0  0  0  0  0  0  0  0  0  0  0
    3.3690    2.5080    1.3270 C   0  0  0  0  0  0  0  0  0  0  0  0
    4.6180    2.8220    0.8620 O   0  0  0  0  0  0  0  0  0  0  0  0
    3.4650    0.7220   -0.3610 C   0  0  0  0  0  0  0  0  0  0  0  0
    2.9230   -0.4460   -1.1020 C   0  0  2  0  0  0  0  0  0  0  0  0
    2.2430   -0.0510   -2.2420 O   0  0  0  0  0  0  0  0  0  0  0  0
    1.9760   -1.2160   -0.1480 C   0  0  2  0  0  0  0  0  0  0  0  0
    1.7290   -2.4440   -0.6040 O   0  0  0  0  0  0  0  0  0  0  0  0
  1  2  1  0
  2  3  1  0
  3  4  1  0
  4  5  2  0
  4 11  1  0
  5  6  1  0
  6  7  1  0
  7  8  1  1
  7 10  1  0
  8  9  1  0
 10 11  1  0
 11 12  2  3
 12 13  1  0
 12 20  1  0
 13 14  1  0
 14 15  1  0
 14 17  2  0
 15 16  1  0
 17 18  1  0
 18 19  1  6
 18 20  1  0
 20 21  1  6
M  END
