
     RDKit          3D

 21 22  0  0  0  0  0  0  0  0999 V2000
   -2.1840    4.1460   -2.0060 C   0  0  0  0  0  0  0  0  0  0  0  0
   -1.0870    3.3780   -1.6730 O   0  0  0  0  0  0  0  0  0  0  0  0
   -1.4320    2.3400   -0.7860 C   0  0  0  0  0  0  0  0  0  0  0  0
   -0.1580    1.5280   -0.4610 C   0  0  2  0  0  0  0  0  0  0  0  0
    0.2480    1.0390   -1.7010 O   0  0  0  0  0  0  0  0  0  0  0  0
   -0.4530    0.4500    0.5200 C   0  0  1  0  0  0  0  0  0  0  0  0
   -0.8030    1.1120    1.7290 O   0  0  0  0  0  0  0  0  0  0  0  0
   -1.7470   -0.2220    0.0670 C   0  0  0  0  0  0  0  0  0  0  0  0
   -1.9700   -1.4740    0.8500 C   0  0  1  0  0  0  0  0  0  0  0  0
   -3.2750   -2.1410    0.3930 C   0  0  0  0  0  0  0  0  0  0  0  0
   -2.8130   -2.7270   -0.9180 C   0  0  0  0  0  0  0  0  0  0  0  0
   -1.5670   -3.2170   -0.6420 O   0  0  0  0  0  0  0  0  0  0  0  0
   -0.9790   -2.5160    0.3680 C   0  0  1  0  0  0  0  0  0  0  0  0
    0.2940   -1.8470   -0.1090 C   0  0  0  0  0  0  0  0  0  0  0  0
    0.5700   -0.5930    0.7210 C   0  0  1  0  0  0  0  0  0  0  0  0
    1.9700   -0.2320    0.4650 C   0  0  0  0  0  0  0  0  0  0  0  0
    2.2920    0.8490   -0.0580 O   0  0  0  0  0  0  0  0  0  0  0  0
    2.9940   -1.1420    0.8230 N   0  0  0  0  0  0  0  0  0  0  0  0
    4.3960   -0.9780    0.6640 C   0  0  0  0  0  0  0  0  0  0  0  0
    4.9660    0.1650    1.4520 C   0  0  0  0  0  0  0  0  0  0  0  0
    4.4290    1.3780    1.1090 O   0  0  0  0  0  0  0  0  0  0  0  0
  1  2  1  0
  2  3  1  0
  3  4  1  0
  4  5  1  6
  4  6  1  0
  6  7  1  1
  6  8  1  0
  6 15  1  0
  9  8  1  6
  9 10  1  0
  9 13  1  0
 10 11  1  0
 11 12  1  0
 12 13  1  0
 13 14  1  6
 14 15  1  0
 15 16  1  6
 16 17  2  0
 16 18  1  0
 18 19  1  0
 19 20  1  0
 20 21  1  0
M  END
