
     RDKit          3D

 20 21  0  0  0  0  0  0  0  0999 V2000
   -1.6850    3.9590   -1.1950 C   0  0  0  0  0  0  0  0  0  0  0  0
   -0.8180    2.9200   -0.8560 O   0  0  0  0  0  0  0  0  0  0  0  0
   -1.5600    1.7560   -0.7600 C   0  0  0  0  0  0  0  0  0  0  0  0
   -0.6730    0.5930   -0.3940 C   0  0  1  0  0  0  0  0  0  0  0  0
   -1.4150   -0.6840   -0.2770 C   0  0  0  0  0  0  0  0  0  0  0  0
   -2.5090   -0.7510    0.7250 C   0  0  2  0  0  0  0  0  0  0  0  0
   -2.0520   -0.5310    1.9990 O   0  0  0  0  0  0  0  0  0  0  0  0
   -3.0690   -2.1830    0.7180 C   0  0  2  0  0  0  0  0  0  0  0  0
   -3.5620   -2.4480   -0.6210 N   0  0  0  0  0  0  0  0  0  0  0  0
   -4.0440   -2.3470    1.6720 O   0  0  0  0  0  0  0  0  0  0  0  0
    0.3430    0.4580   -1.5380 C   0  0  0  0  0  0  0  0  0  0  0  0
    1.3930   -0.5500   -1.1720 C   0  0  0  0  0  0  0  0  0  0  0  0
    1.9770   -0.3050    0.1780 C   0  0  1  0  0  0  0  0  0  0  0  0
    2.7180   -1.5970    0.5610 C   0  0  0  0  0  0  0  0  0  0  0  0
    4.1700   -1.4680    0.1470 C   0  0  0  0  0  0  0  0  0  0  0  0
    4.8490   -0.5210    0.8890 O   0  0  0  0  0  0  0  0  0  0  0  0
    3.9590    0.4630    1.3450 C   0  0  0  0  0  0  0  0  0  0  0  0
    3.0370    0.7720    0.1830 C   0  0  0  0  0  0  0  0  0  0  0  0
    1.0250   -0.1050    1.1480 O   0  0  0  0  0  0  0  0  0  0  0  0
    0.1260    0.9030    0.8230 C   0  0  0  0  0  0  0  0  0  0  0  0
  1  2  1  0
  2  3  1  0
  4  3  1  6
  4  5  1  0
  4 11  1  0
  4 20  1  0
  5  6  1  0
  6  7  1  1
  6  8  1  0
  8  9  1  6
  8 10  1  0
 11 12  1  0
 13 12  1  6
 13 14  1  0
 13 18  1  0
 13 19  1  0
 14 15  1  0
 15 16  1  0
 16 17  1  0
 17 18  1  0
 19 20  1  0
M  END
