
     RDKit          3D

 43 46  0  0  0  0  0  0  0  0999 V2000
   -1.1460    4.9020    3.0010 C   0  0  0  0  0  0  0  0  0  0  0  0
   -1.5170    5.0450    1.5600 C   0  0  0  0  0  0  0  0  0  0  0  0
   -1.5270    3.8320    0.8390 O   0  0  0  0  0  0  0  0  0  0  0  0
   -0.4280    3.0120    0.6640 C   0  0  0  0  0  0  0  0  0  0  0  0
    0.6640    3.3270    1.1610 O   0  0  0  0  0  0  0  0  0  0  0  0
   -0.5140    1.8170   -0.0740 O   0  0  0  0  0  0  0  0  0  0  0  0
    0.6740    1.0370   -0.2050 C   0  0  0  0  0  0  0  0  0  0  0  0
    0.4490   -0.1900   -1.0190 C   0  0  1  0  0  0  0  0  0  0  0  0
    1.6710   -1.0620   -1.0140 C   0  0  0  0  0  0  0  0  0  0  0  0
    2.9050   -0.4560   -1.5670 C   0  0  0  0  0  0  0  0  0  0  0  0
    3.3870    0.6590   -0.9170 O   0  0  0  0  0  0  0  0  0  0  0  0
    4.5170    1.1790   -1.4960 C   0  0  0  0  0  0  0  0  0  0  0  0
    5.6880    0.2540   -1.5740 C   0  0  0  0  0  0  0  0  0  0  0  0
    6.1000   -0.1790   -0.2990 O   0  0  0  0  0  0  0  0  0  0  0  0
    7.1870   -1.0560   -0.2090 C   0  0  0  0  0  0  0  0  0  0  0  0
    7.7290   -1.4080   -1.2830 O   0  0  0  0  0  0  0  0  0  0  0  0
    7.6560   -1.5280    1.0430 N   0  0  0  0  0  0  0  0  0  0  0  0
    8.7710   -2.4250    1.1550 C   0  0  0  0  0  0  0  0  0  0  0  0
   10.0050   -1.7750    0.5930 C   0  0  0  0  0  0  0  0  0  0  0  0
   10.2330   -0.6120    1.3370 O   0  0  0  0  0  0  0  0  0  0  0  0
   -0.7270   -1.0190   -0.4780 C   0  0  0  0  0  0  0  0  0  0  0  0
   -1.8800   -0.6000   -1.2210 N   0  0  0  0  0  0  0  0  0  0  0  0
   -3.2500   -0.8150   -1.0270 C   0  0  0  0  0  0  0  0  0  0  0  0
   -4.0500   -0.2790   -1.8880 O   0  0  0  0  0  0  0  0  0  0  0  0
   -3.8650   -1.5400   -0.0120 N   0  0  0  0  0  0  0  0  0  0  0  0
   -3.1580   -2.2320    1.0230 C   0  0  0  0  0  0  0  0  0  0  0  0
   -3.8830   -3.5360    1.4200 C   0  0  0  0  0  0  0  0  0  0  0  0
   -4.6260   -3.9220    0.3030 O   0  0  0  0  0  0  0  0  0  0  0  0
   -5.7300   -3.0520    0.3020 C   0  0  0  0  0  0  0  0  0  0  0  0
   -5.3410   -1.6130    0.0610 C   0  0  1  0  0  0  0  0  0  0  0  0
   -5.8060   -0.8020    1.2210 C   0  0  0  0  0  0  0  0  0  0  0  0
   -5.6040    0.5900    1.1010 O   0  0  0  0  0  0  0  0  0  0  0  0
   -6.3090    1.4580    0.2890 C   0  0  0  0  0  0  0  0  0  0  0  0
   -6.6650    2.7590    0.5380 C   0  0  0  0  0  0  0  0  0  0  0  0
   -7.3300    3.2300   -0.4930 O   0  0  0  0  0  0  0  0  0  0  0  0
   -7.4210    2.2810   -1.4060 N   0  0  0  0  0  0  0  0  0  0  0  0
   -6.8060    1.1670   -0.9700 C   0  0  0  0  0  0  0  0  0  0  0  0
   -6.6850   -0.0740   -1.6690 N   0  0  0  0  0  0  0  0  0  0  0  0
   -5.9820   -1.2250   -1.2200 C   0  0  0  0  0  0  0  0  0  0  0  0
   -5.8970   -2.1050   -2.1440 O   0  0  0  0  0  0  0  0  0  0  0  0
   -1.3620    0.1720   -2.3440 C   0  0  0  0  0  0  0  0  0  0  0  0
   -2.0510    0.7450   -3.2220 O   0  0  0  0  0  0  0  0  0  0  0  0
    0.0370    0.2000   -2.3320 N   0  0  0  0  0  0  0  0  0  0  0  0
  1  2  1  0
  2  3  1  0
  3  4  1  0
  4  5  2  0
  4  6  1  0
  6  7  1  0
  8  7  1  1
  8  9  1  0
  8 21  1  0
  8 43  1  0
  9 10  1  0
 10 11  1  0
 11 12  1  0
 12 13  1  0
 13 14  1  0
 14 15  1  0
 15 16  2  0
 15 17  1  0
 17 18  1  0
 18 19  1  0
 19 20  1  0
 21 22  1  0
 22 23  1  0
 22 41  1  0
 23 24  2  0
 23 25  1  0
 25 26  1  0
 25 30  1  0
 26 27  1  0
 27 28  1  0
 28 29  1  0
 30 29  1  1
 30 31  1  0
 30 39  1  0
 31 32  1  0
 32 33  1  0
 33 34  2  0
 33 37  1  0
 34 35  1  0
 35 36  1  0
 36 37  2  0
 37 38  1  0
 38 39  1  0
 39 40  2  0
 41 42  2  0
 41 43  1  0
M  END
