
     RDKit          3D

 43 47  0  0  0  0  0  0  0  0999 V2000
    2.4910   -3.4590    2.9170 O   0  0  0  0  0  0  0  0  0  0  0  0
    1.4090   -2.7880    2.4810 C   0  0  0  0  0  0  0  0  0  0  0  0
    1.3680   -1.5480    3.0950 N   0  0  0  0  0  0  0  0  0  0  0  0
    1.6360   -0.1520    2.6770 C   0  0  0  0  0  0  0  0  0  0  0  0
    0.8160   -0.0840    1.3690 C   0  0  1  0  0  0  0  0  0  0  0  0
    1.7250   -0.7090    0.4840 C   0  0  0  0  0  0  0  0  0  0  0  0
    2.9310    0.1890    0.3770 O   0  0  0  0  0  0  0  0  0  0  0  0
    3.9640   -0.2480   -0.4290 C   0  0  0  0  0  0  0  0  0  0  0  0
    3.8210   -1.3430   -1.0050 O   0  0  0  0  0  0  0  0  0  0  0  0
    5.1920    0.6200   -0.5680 C   0  0  2  0  0  0  0  0  0  0  0  0
    4.7410    1.8310   -1.3270 C   0  0  0  0  0  0  0  0  0  0  0  0
    5.4460    1.8000   -2.5320 O   0  0  0  0  0  0  0  0  0  0  0  0
    6.3480    0.7610   -2.4910 C   0  0  0  0  0  0  0  0  0  0  0  0
    6.0690   -0.0370   -1.4200 O   0  0  0  0  0  0  0  0  0  0  0  0
   -0.4570   -0.3960    2.0250 C   0  0  0  0  0  0  0  0  0  0  0  0
   -0.8430    0.5780    2.9590 O   0  0  0  0  0  0  0  0  0  0  0  0
   -0.4720    1.8560    2.8480 C   0  0  0  0  0  0  0  0  0  0  0  0
    0.5650    2.2360    1.8080 C   0  0  0  0  0  0  0  0  0  0  0  0
    0.4390    1.1960    0.8290 N   0  0  0  0  0  0  0  0  0  0  0  0
   -0.0520    1.4050   -0.4490 C   0  0  0  0  0  0  0  0  0  0  0  0
    0.3140    2.6480   -0.8490 O   0  0  0  0  0  0  0  0  0  0  0  0
   -0.8030    0.7690   -1.4720 C   0  0  2  0  0  0  0  0  0  0  0  0
   -2.2980    0.7590   -1.2670 C   0  0  0  0  0  0  0  0  0  0  0  0
   -2.8840    1.2800   -0.1560 C   0  0  0  0  0  0  0  0  0  0  0  0
   -4.2720    1.2870    0.0210 C   0  0  0  0  0  0  0  0  0  0  0  0
   -5.0680    0.7470   -0.9590 C   0  0  0  0  0  0  0  0  0  0  0  0
   -6.4780    0.7350   -0.8210 O   0  0  0  0  0  0  0  0  0  0  0  0
   -7.0050    1.2610    0.2700 O   0  0  0  0  0  0  0  0  0  0  0  0
   -7.8050    2.2690    0.0160 O   0  0  0  0  0  0  0  0  0  0  0  0
   -7.8310    3.0890    1.0480 O   0  0  0  0  0  0  0  0  0  0  0  0
   -4.4740    0.2180   -2.0880 C   0  0  0  0  0  0  0  0  0  0  0  0
   -3.1140    0.2210   -2.2450 C   0  0  0  0  0  0  0  0  0  0  0  0
   -0.4770   -0.5170   -2.0490 N   0  0  0  0  0  0  0  0  0  0  0  0
    0.3840   -0.5910   -3.1260 C   0  0  0  0  0  0  0  0  0  0  0  0
    0.5250   -1.8650   -3.5220 C   0  0  0  0  0  0  0  0  0  0  0  0
   -0.2250   -2.5660   -2.7180 N   0  0  0  0  0  0  0  0  0  0  0  0
   -0.8570   -1.7460   -1.7930 C   0  0  0  0  0  0  0  0  0  0  0  0
   -1.7280   -2.3540   -0.8220 N   0  0  0  0  0  0  0  0  0  0  0  0
   -1.6150   -2.9560    0.4380 C   0  0  0  0  0  0  0  0  0  0  0  0
   -2.6700   -2.7240    1.2110 O   0  0  0  0  0  0  0  0  0  0  0  0
   -0.6390   -3.7840    1.1440 C   0  0  0  0  0  0  0  0  0  0  0  0
   -1.0880   -5.0050    1.4650 O   0  0  0  0  0  0  0  0  0  0  0  0
    0.6860   -3.5580    1.5570 N   0  0  0  0  0  0  0  0  0  0  0  0
  1  2  2  0
  2  3  1  0
  2 43  1  0
  3  4  1  0
  4  5  1  0
  5  6  1  6
  5 15  1  0
  5 19  1  0
  6  7  1  0
  7  8  1  0
  8  9  2  0
 10  8  1  6
 10 11  1  0
 10 14  1  0
 11 12  1  0
 12 13  1  0
 13 14  1  0
 15 16  1  0
 16 17  1  0
 17 18  1  0
 18 19  1  0
 19 20  1  0
 20 21  2  0
 20 22  1  0
 22 23  1  1
 22 33  1  0
 23 24  2  0
 23 32  1  0
 24 25  1  0
 25 26  2  0
 26 27  1  0
 26 31  1  0
 27 28  1  0
 28 29  1  0
 29 30  1  0
 31 32  2  0
 33 34  1  0
 33 37  1  0
 34 35  2  0
 35 36  1  0
 36 37  2  0
 37 38  1  0
 38 39  1  0
 39 40  2  0
 39 41  1  0
 41 42  2  0
 41 43  1  0
M  END
