
     RDKit          3D

 43 45  0  0  0  0  0  0  0  0999 V2000
   -0.3700   -1.0680   -0.6470 C   0  0  0  0  0  0  0  0  0  0  0  0
    0.7650   -1.4850   -1.5570 C   0  0  1  0  0  0  0  0  0  0  0  0
    1.7010   -2.3060   -0.7440 C   0  0  0  0  0  0  0  0  0  0  0  0
    3.0790   -2.5450   -1.2820 C   0  0  0  0  0  0  0  0  0  0  0  0
    3.9650   -1.4900   -0.8150 N   0  0  0  0  0  0  0  0  0  0  0  0
    5.2140   -1.8210   -0.1780 C   0  0  0  0  0  0  0  0  0  0  0  0
    5.0900   -1.9750    1.3060 C   0  0  0  0  0  0  0  0  0  0  0  0
    4.6010   -0.7130    1.9610 C   0  0  0  0  0  0  0  0  0  0  0  0
    4.5060   -0.9190    3.3480 O   0  0  0  0  0  0  0  0  0  0  0  0
    4.0770    0.1980    3.8930 O   0  0  0  0  0  0  0  0  0  0  0  0
    3.6230   -0.1120   -0.9740 C   0  0  0  0  0  0  0  0  0  0  0  0
    4.5910    0.6870   -0.7860 O   0  0  0  0  0  0  0  0  0  0  0  0
    2.3340    0.5170   -1.3180 N   0  0  0  0  0  0  0  0  0  0  0  0
    2.3990    1.8320   -0.7400 C   0  0  0  0  0  0  0  0  0  0  0  0
    1.1540    2.4830   -0.2930 C   0  0  2  0  0  0  0  0  0  0  0  0
    1.2050    3.9080   -0.6120 N   0  0  0  0  0  0  0  0  0  0  0  0
    0.2480    4.5400   -1.4510 C   0  0  0  0  0  0  0  0  0  0  0  0
   -0.6620    3.7960   -1.9130 O   0  0  0  0  0  0  0  0  0  0  0  0
    0.3250    5.8990   -1.7350 O   0  0  0  0  0  0  0  0  0  0  0  0
    1.0010    2.4070    1.2170 C   0  0  0  0  0  0  0  0  0  0  0  0
   -0.1260    3.2720    1.7060 C   0  0  0  0  0  0  0  0  0  0  0  0
   -1.0280    2.4490    2.5860 C   0  0  0  0  0  0  0  0  0  0  0  0
   -1.8200    1.6000    1.8140 O   0  0  0  0  0  0  0  0  0  0  0  0
   -3.0430    2.2390    1.5740 C   0  0  0  0  0  0  0  0  0  0  0  0
   -3.5300    1.7660    0.2040 C   0  0  0  0  0  0  0  0  0  0  0  0
   -4.8800    1.2410    0.2720 N   0  0  0  0  0  0  0  0  0  0  0  0
   -5.2030   -0.1230    0.3100 C   0  0  0  0  0  0  0  0  0  0  0  0
   -6.1740   -0.4970    1.0470 O   0  0  0  0  0  0  0  0  0  0  0  0
   -4.4970   -1.1640   -0.4440 C   0  0  0  0  0  0  0  0  0  0  0  0
   -3.6560   -0.8380   -1.3870 O   0  0  0  0  0  0  0  0  0  0  0  0
   -3.1460   -1.9190   -1.9230 N   0  0  0  0  0  0  0  0  0  0  0  0
   -3.6760   -2.9980   -1.3040 C   0  0  0  0  0  0  0  0  0  0  0  0
   -3.4500   -4.2260   -1.5210 O   0  0  0  0  0  0  0  0  0  0  0  0
   -4.5520   -2.5370   -0.3460 C   0  0  0  0  0  0  0  0  0  0  0  0
   -5.3450   -3.2900    0.5560 N   0  0  0  0  0  0  0  0  0  0  0  0
   -4.8510   -3.6650    1.8560 C   0  0  0  0  0  0  0  0  0  0  0  0
   -3.6860   -3.2820    2.1280 O   0  0  0  0  0  0  0  0  0  0  0  0
   -2.1780   -1.8340   -2.9980 C   0  0  0  0  0  0  0  0  0  0  0  0
   -1.0090   -2.7220   -2.8260 C   0  0  0  0  0  0  0  0  0  0  0  0
   -1.2390   -3.9660   -2.8960 O   0  0  0  0  0  0  0  0  0  0  0  0
    0.2250   -2.2270   -2.6090 O   0  0  0  0  0  0  0  0  0  0  0  0
    1.3810   -0.1800   -2.0390 C   0  0  0  0  0  0  0  0  0  0  0  0
    0.8620    0.1010   -3.1710 O   0  0  0  0  0  0  0  0  0  0  0  0
  2  1  1  1
  2  3  1  0
  2 41  1  0
  2 42  1  0
  3  4  1  0
  4  5  1  0
  5  6  1  0
  5 11  1  0
  6  7  1  0
  7  8  1  0
  8  9  1  0
  9 10  1  0
 11 12  2  0
 11 13  1  0
 13 14  1  0
 13 42  1  0
 14 15  1  0
 15 16  1  1
 15 20  1  0
 16 17  1  0
 17 18  2  0
 17 19  1  0
 20 21  1  0
 21 22  1  0
 22 23  1  0
 23 24  1  0
 24 25  1  0
 25 26  1  0
 26 27  1  0
 27 28  2  0
 27 29  1  0
 29 30  1  0
 29 34  2  0
 30 31  1  0
 31 32  1  0
 31 38  1  0
 32 33  2  0
 32 34  1  0
 34 35  1  0
 35 36  1  0
 36 37  2  0
 38 39  1  0
 39 40  2  0
 39 41  1  0
 42 43  2  0
M  END
