
     RDKit          3D

 43 45  0  0  0  0  0  0  0  0999 V2000
    5.2090   -0.7910    0.3120 C   0  0  0  0  0  0  0  0  0  0  0  0
    4.3530   -1.6910   -0.5490 C   0  0  1  0  0  0  0  0  0  0  0  0
    4.8240   -3.1220   -0.2450 C   0  0  0  0  0  0  0  0  0  0  0  0
    3.0060   -1.6480   -0.2300 O   0  0  0  0  0  0  0  0  0  0  0  0
    2.2170   -0.4640   -0.2880 C   0  0  0  0  0  0  0  0  0  0  0  0
    2.8760    0.5140   -0.6650 O   0  0  0  0  0  0  0  0  0  0  0  0
    0.8390   -0.6060    0.0890 C   0  0  2  0  0  0  0  0  0  0  0  0
    0.1610   -1.4290   -1.0200 C   0  0  0  0  0  0  0  0  0  0  0  0
    0.1580   -0.6080   -2.2550 C   0  0  0  0  0  0  0  0  0  0  0  0
    0.1440    0.8170   -2.0860 N   0  0  0  0  0  0  0  0  0  0  0  0
    0.0670    1.4860   -0.8120 C   0  0  0  0  0  0  0  0  0  0  0  0
   -0.0350    0.5550    0.3390 C   0  0  2  0  0  0  0  0  0  0  0  0
    0.2230    1.3120    1.5940 C   0  0  0  0  0  0  0  0  0  0  0  0
   -0.6100    1.2490    2.5690 O   0  0  0  0  0  0  0  0  0  0  0  0
    1.3370    2.1360    1.8520 N   0  0  0  0  0  0  0  0  0  0  0  0
    1.5190    2.8390    3.1120 C   0  0  0  0  0  0  0  0  0  0  0  0
    2.7810    3.6400    3.1250 C   0  0  0  0  0  0  0  0  0  0  0  0
    2.8670    4.2740    4.3650 O   0  0  0  0  0  0  0  0  0  0  0  0
   -1.4160   -0.0430    0.5630 C   0  0  0  0  0  0  0  0  0  0  0  0
   -1.2570   -0.8630    1.7610 N   0  0  0  0  0  0  0  0  0  0  0  0
   -1.8760   -1.8570    2.1440 C   0  0  0  0  0  0  0  0  0  0  0  0
   -1.5360   -2.4940    3.3600 O   0  0  0  0  0  0  0  0  0  0  0  0
   -2.9930   -2.4480    1.3840 C   0  0  0  0  0  0  0  0  0  0  0  0
   -4.2860   -2.2990    1.9690 N   0  0  0  0  0  0  0  0  0  0  0  0
   -4.5920   -2.8490    3.2320 C   0  0  0  0  0  0  0  0  0  0  0  0
   -3.8100   -3.5000    3.9480 O   0  0  0  0  0  0  0  0  0  0  0  0
   -5.8830   -2.6450    3.7190 O   0  0  0  0  0  0  0  0  0  0  0  0
   -2.4520    0.0820   -0.0480 N   0  0  0  0  0  0  0  0  0  0  0  0
   -3.1900    0.6070   -1.0750 C   0  0  0  0  0  0  0  0  0  0  0  0
   -4.5540    0.2690   -1.2520 C   0  0  0  0  0  0  0  0  0  0  0  0
   -5.3260    0.7640   -2.2660 C   0  0  0  0  0  0  0  0  0  0  0  0
   -4.7350    1.6360   -3.1560 C   0  0  0  0  0  0  0  0  0  0  0  0
   -3.4120    1.9830   -3.0100 C   0  0  0  0  0  0  0  0  0  0  0  0
   -2.7610    1.4500   -2.0000 N   0  0  0  0  0  0  0  0  0  0  0  0
   -2.7150    2.9140   -3.9410 C   0  0  0  0  0  0  0  0  0  0  0  0
   -3.3410    3.2180   -4.9810 O   0  0  0  0  0  0  0  0  0  0  0  0
   -1.4780    3.3840   -3.6430 O   0  0  0  0  0  0  0  0  0  0  0  0
   -0.3040    2.8410   -3.4660 O   0  0  0  0  0  0  0  0  0  0  0  0
    0.1990    1.6120   -3.2840 C   0  0  0  0  0  0  0  0  0  0  0  0
    0.8090    1.0420   -4.2660 O   0  0  0  0  0  0  0  0  0  0  0  0
    4.7080   -1.4280   -1.9440 C   0  0  0  0  0  0  0  0  0  0  0  0
    5.8920   -1.4360   -2.3740 O   0  0  0  0  0  0  0  0  0  0  0  0
    3.7140   -1.1520   -2.8670 O   0  0  0  0  0  0  0  0  0  0  0  0
  2  1  1  1
  2  3  1  0
  2  4  1  0
  2 41  1  0
  4  5  1  0
  5  6  2  0
  7  5  1  6
  7  8  1  0
  7 12  1  0
  8  9  1  0
  9 10  1  0
 10 11  1  0
 10 39  1  0
 11 12  1  0
 12 13  1  1
 12 19  1  0
 13 14  2  0
 13 15  1  0
 15 16  1  0
 16 17  1  0
 17 18  1  0
 19 20  1  0
 19 28  2  0
 20 21  2  3
 21 22  1  0
 21 23  1  0
 23 24  1  0
 24 25  1  0
 25 26  2  0
 25 27  1  0
 28 29  1  0
 29 30  2  0
 29 34  1  0
 30 31  1  0
 31 32  2  0
 32 33  1  0
 33 34  2  0
 33 35  1  0
 35 36  2  0
 35 37  1  0
 37 38  1  0
 38 39  1  0
 39 40  2  0
 41 42  2  0
 41 43  1  0
M  END
