
     RDKit          3D

 43 47  0  0  0  0  0  0  0  0999 V2000
   -5.6670    2.3200   -1.9650 O   0  0  0  0  0  0  0  0  0  0  0  0
   -6.0200    2.7250   -0.8950 C   0  0  0  0  0  0  0  0  0  0  0  0
   -6.2290    1.9200    0.3070 C   0  0  0  0  0  0  0  0  0  0  0  0
   -6.2540    0.4130    0.0280 C   0  0  1  0  0  0  0  0  0  0  0  0
   -5.1570   -0.1090   -0.5250 O   0  0  0  0  0  0  0  0  0  0  0  0
   -3.9110   -0.1080   -0.8510 C   0  0  0  0  0  0  0  0  0  0  0  0
   -3.4640   -0.0090   -2.1530 C   0  0  0  0  0  0  0  0  0  0  0  0
   -2.1580    0.0050   -2.5330 C   0  0  0  0  0  0  0  0  0  0  0  0
   -1.1750   -0.0870   -1.5310 C   0  0  0  0  0  0  0  0  0  0  0  0
    0.1340   -0.1010   -1.9570 N   0  0  0  0  0  0  0  0  0  0  0  0
    1.3060   -0.6890   -1.1820 C   0  0  0  0  0  0  0  0  0  0  0  0
    1.0690   -1.1230   -0.1320 O   0  0  0  0  0  0  0  0  0  0  0  0
    2.3540   -0.5330   -2.0310 N   0  0  0  0  0  0  0  0  0  0  0  0
    3.6250   -0.4570   -0.8000 C   0  0  0  0  0  0  0  0  0  0  0  0
    3.2020   -0.6500    0.2430 O   0  0  0  0  0  0  0  0  0  0  0  0
    4.8810   -0.1500   -1.4040 C   0  0  0  0  0  0  0  0  0  0  0  0
    5.1970    0.3230   -2.6900 C   0  0  0  0  0  0  0  0  0  0  0  0
    6.5140    0.4660   -2.8120 N   0  0  0  0  0  0  0  0  0  0  0  0
    7.0540    0.1080   -1.6520 N   0  0  0  0  0  0  0  0  0  0  0  0
    8.2210   -0.0000   -1.0400 C   0  0  0  0  0  0  0  0  0  0  0  0
    7.9710   -0.4530    0.2190 C   0  0  0  0  0  0  0  0  0  0  0  0
    9.0100   -0.7230    1.2680 C   0  0  2  0  0  0  0  0  0  0  0  0
    9.5380    0.5850    1.8170 C   0  0  0  0  0  0  0  0  0  0  0  0
   10.9200    0.5940    1.5230 O   0  0  0  0  0  0  0  0  0  0  0  0
   11.1220   -0.4240    0.6300 C   0  0  0  0  0  0  0  0  0  0  0  0
   10.1150   -1.3620    0.7770 O   0  0  0  0  0  0  0  0  0  0  0  0
    6.6600   -0.6090    0.3390 O   0  0  0  0  0  0  0  0  0  0  0  0
    6.1220   -0.2720   -0.7730 C   0  0  0  0  0  0  0  0  0  0  0  0
   -1.5850   -0.1770   -0.2500 C   0  0  0  0  0  0  0  0  0  0  0  0
   -2.9110   -0.1970    0.1340 C   0  0  0  0  0  0  0  0  0  0  0  0
   -3.2340   -0.3270    1.5520 C   0  0  0  0  0  0  0  0  0  0  0  0
   -3.5060   -1.5280    2.0630 O   0  0  0  0  0  0  0  0  0  0  0  0
   -3.2070   -2.6720    1.4210 C   0  0  0  0  0  0  0  0  0  0  0  0
   -4.2570   -3.2360    0.4870 C   0  0  0  0  0  0  0  0  0  0  0  0
   -5.5800   -2.9620    0.7830 O   0  0  0  0  0  0  0  0  0  0  0  0
   -6.2530   -2.6480    1.9430 C   0  0  0  0  0  0  0  0  0  0  0  0
   -6.4630   -3.3860    2.8860 O   0  0  0  0  0  0  0  0  0  0  0  0
   -6.7810   -1.2520    2.0170 N   0  0  0  0  0  0  0  0  0  0  0  0
   -6.9520   -0.3200    1.0670 C   0  0  0  0  0  0  0  0  0  0  0  0
   -8.2800    0.1330    1.0260 O   0  0  0  0  0  0  0  0  0  0  0  0
   -6.2670    4.1860   -0.7800 N   0  0  0  0  0  0  0  0  0  0  0  0
   -6.0430    4.8930   -1.8960 O   0  0  0  0  0  0  0  0  0  0  0  0
   -5.8130    6.1610   -1.5260 O   0  0  0  0  0  0  0  0  0  0  0  0
  1  2  2  0
  2  3  1  0
  2 41  1  0
  4  3  1  1
  4  5  1  0
  4 39  1  0
  5  6  1  0
  6  7  2  0
  6 30  1  0
  7  8  1  0
  8  9  2  0
  9 10  1  0
  9 29  1  0
 10 11  1  0
 11 12  2  0
 11 13  1  0
 13 14  1  0
 14 15  2  0
 14 16  1  0
 16 17  1  0
 16 28  2  0
 17 18  2  0
 18 19  1  0
 19 20  1  0
 19 28  1  0
 20 21  2  0
 22 21  1  6
 21 27  1  0
 22 23  1  0
 22 26  1  0
 23 24  1  0
 24 25  1  0
 25 26  1  0
 27 28  1  0
 29 30  2  0
 30 31  1  0
 31 32  1  0
 32 33  1  0
 33 34  1  0
 34 35  1  0
 35 36  1  0
 36 37  2  0
 36 38  1  0
 38 39  1  0
 39 40  2  0
 41 42  1  0
 42 43  1  0
M  END
