
     RDKit          3D

 31 34  0  0  0  0  0  0  0  0999 V2000
   -3.0870   -2.5390   -0.7590 C   0  0  0  0  0  0  0  0  0  0  0  0
   -4.3120   -2.1910   -0.5790 C   0  0  0  0  0  0  0  0  0  0  0  0
   -5.3590   -3.2060   -0.5850 N   0  0  0  0  0  0  0  0  0  0  0  0
   -6.4810   -2.9470    0.1990 N   0  0  0  0  0  0  0  0  0  0  0  0
   -7.0770   -1.7100   -0.2350 C   0  0  0  0  0  0  0  0  0  0  0  0
   -6.1120   -0.5900   -0.1830 C   0  0  0  0  0  0  0  0  0  0  0  0
   -6.5780    0.6940    0.0370 C   0  0  0  0  0  0  0  0  0  0  0  0
   -5.7190    1.7380    0.0780 C   0  0  0  0  0  0  0  0  0  0  0  0
   -6.1950    3.1510    0.3160 C   0  0  0  0  0  0  0  0  0  0  0  0
   -4.3920    1.4720   -0.1050 C   0  0  0  0  0  0  0  0  0  0  0  0
   -3.8350    0.2060   -0.3330 C   0  0  0  0  0  0  0  0  0  0  0  0
   -2.4540    0.0470   -0.5280 N   0  0  0  0  0  0  0  0  0  0  0  0
   -1.6520   -0.0140    0.6710 C   0  0  0  0  0  0  0  0  0  0  0  0
   -0.2790    0.4290    0.3150 C   0  0  0  0  0  0  0  0  0  0  0  0
    0.0740    1.7620    0.4410 C   0  0  0  0  0  0  0  0  0  0  0  0
    1.3310    2.2260    0.1220 C   0  0  0  0  0  0  0  0  0  0  0  0
    2.3010    1.3640   -0.3420 C   0  0  0  0  0  0  0  0  0  0  0  0
    3.5990    1.8700   -0.6680 N   0  0  0  0  0  0  0  0  0  0  0  0
    4.5390    0.9550   -1.1440 N   0  0  0  0  0  0  0  0  0  0  0  0
    5.7950    0.8120   -0.4490 C   0  0  0  0  0  0  0  0  0  0  0  0
    5.9500    1.5380    0.5550 O   0  0  0  0  0  0  0  0  0  0  0  0
    6.7780   -0.0840   -0.8730 N   0  0  0  0  0  0  0  0  0  0  0  0
    8.0120   -0.2750   -0.2550 C   0  0  0  0  0  0  0  0  0  0  0  0
    8.4990    0.4050    0.8070 C   0  0  0  0  0  0  0  0  0  0  0  0
    9.7530    0.1350    1.3640 C   0  0  0  0  0  0  0  0  0  0  0  0
   10.5260   -0.8520    0.8240 C   0  0  0  0  0  0  0  0  0  0  0  0
   10.0500   -1.5330   -0.2320 N   0  0  0  0  0  0  0  0  0  0  0  0
    8.8470   -1.2820   -0.7750 C   0  0  0  0  0  0  0  0  0  0  0  0
    1.9730    0.0350   -0.4750 C   0  0  0  0  0  0  0  0  0  0  0  0
    0.6950   -0.4260   -0.1490 C   0  0  0  0  0  0  0  0  0  0  0  0
   -4.7520   -0.8400   -0.3670 C   0  0  0  0  0  0  0  0  0  0  0  0
  1  2  2  0
  2  3  1  0
  2 31  1  0
  3  4  1  0
  4  5  1  0
  5  6  1  0
  6  7  2  0
  6 31  1  0
  7  8  1  0
  8  9  1  0
  8 10  2  0
 10 11  1  0
 11 12  1  0
 11 31  2  0
 12 13  1  0
 13 14  1  0
 14 15  2  0
 14 30  1  0
 15 16  1  0
 16 17  2  0
 17 18  1  0
 17 29  1  0
 18 19  1  0
 19 20  1  0
 20 21  2  0
 20 22  1  0
 22 23  1  0
 23 24  2  0
 23 28  1  0
 24 25  1  0
 25 26  2  0
 26 27  1  0
 27 28  2  0
 29 30  2  0
M  CHG  2   4   1  12   1
M  END
