
     RDKit          3D

 31 34  0  0  0  0  0  0  0  0999 V2000
   11.0920   -2.4030   -0.8320 N   0  0  0  0  0  0  0  0  0  0  0  0
    9.7190   -1.9310   -0.8760 C   0  0  0  0  0  0  0  0  0  0  0  0
    8.9860   -1.9580   -2.0470 C   0  0  0  0  0  0  0  0  0  0  0  0
    7.6580   -1.4880   -2.0480 C   0  0  0  0  0  0  0  0  0  0  0  0
    7.1320   -1.0150   -0.8900 C   0  0  0  0  0  0  0  0  0  0  0  0
    5.7980   -0.4310   -0.8370 C   0  0  0  0  0  0  0  0  0  0  0  0
    4.6640    0.0730   -0.7740 C   0  0  0  0  0  0  0  0  0  0  0  0
    3.4200    0.6430   -0.6860 C   0  0  0  0  0  0  0  0  0  0  0  0
    2.5200    0.0370    0.2310 C   0  0  0  0  0  0  0  0  0  0  0  0
    1.1790    0.4170    0.2530 C   0  0  0  0  0  0  0  0  0  0  0  0
    0.7340    1.3730   -0.6100 C   0  0  0  0  0  0  0  0  0  0  0  0
   -0.6680    1.6110   -0.6040 N   0  0  0  0  0  0  0  0  0  0  0  0
   -1.3410    0.3270   -0.8230 C   0  0  0  0  0  0  0  0  0  0  0  0
   -2.0740   -0.1070    0.3660 C   0  0  0  0  0  0  0  0  0  0  0  0
   -2.0430    0.6110    1.4240 O   0  0  0  0  0  0  0  0  0  0  0  0
   -2.8450   -1.2920    0.4380 N   0  0  0  0  0  0  0  0  0  0  0  0
   -3.5730   -1.6350    1.6930 C   0  0  0  0  0  0  0  0  0  0  0  0
   -4.6420   -0.6250    1.8450 C   0  0  0  0  0  0  0  0  0  0  0  0
   -4.6900    0.2650    2.9320 C   0  0  0  0  0  0  0  0  0  0  0  0
   -5.6590    1.2410    2.8780 C   0  0  0  0  0  0  0  0  0  0  0  0
   -6.5850    1.4300    1.8820 C   0  0  0  0  0  0  0  0  0  0  0  0
   -7.5780    2.2800    1.6210 N   0  0  0  0  0  0  0  0  0  0  0  0
   -8.1610    2.0000    0.4760 N   0  0  0  0  0  0  0  0  0  0  0  0
   -7.5410    0.9150   -0.0620 C   0  0  0  0  0  0  0  0  0  0  0  0
   -7.8650    0.2610   -1.2540 N   0  0  0  0  0  0  0  0  0  0  0  0
   -6.5320    0.5130    0.7880 C   0  0  0  0  0  0  0  0  0  0  0  0
   -5.5630   -0.4480    0.8570 C   0  0  0  0  0  0  0  0  0  0  0  0
    1.5790    1.9930   -1.5100 C   0  0  0  0  0  0  0  0  0  0  0  0
    2.9170    1.5930   -1.5150 C   0  0  0  0  0  0  0  0  0  0  0  0
    7.8760   -0.9940    0.2660 C   0  0  0  0  0  0  0  0  0  0  0  0
    9.1450   -1.4560    0.2250 N   0  0  0  0  0  0  0  0  0  0  0  0
  1  2  1  0
  2  3  2  0
  2 31  1  0
  3  4  1  0
  4  5  2  0
  5  6  1  0
  5 30  1  0
  6  7  3  0
  7  8  1  0
  8  9  2  0
  8 29  1  0
  9 10  1  0
 10 11  2  0
 11 12  1  0
 11 28  1  0
 12 13  1  0
 13 14  1  0
 14 15  2  0
 14 16  1  0
 16 17  1  0
 17 18  1  0
 18 19  2  0
 18 27  1  0
 19 20  1  0
 20 21  2  0
 21 22  1  0
 21 26  1  0
 22 23  1  0
 23 24  2  0
 24 25  1  0
 24 26  1  0
 26 27  2  0
 28 29  2  0
 30 31  2  0
M  CHG  2  12   1  23   1
M  END
