
     RDKit          3D

 31 34  0  0  0  0  0  0  0  0999 V2000
    6.2830    1.3790    1.1700 C   0  0  0  0  0  0  0  0  0  0  0  0
    5.5870    0.8500   -0.0910 C   0  0  1  0  0  0  0  0  0  0  0  0
    5.7790    1.8590   -1.2130 C   0  0  0  0  0  0  0  0  0  0  0  0
    6.3270   -0.3950   -0.4890 C   0  0  1  0  0  0  0  0  0  0  0  0
    6.2270   -1.2880    0.6920 N   0  0  0  0  0  0  0  0  0  0  0  0
    5.5700   -1.0770   -1.6340 C   0  0  0  0  0  0  0  0  0  0  0  0
    4.2570   -1.4210   -1.1490 N   0  0  0  0  0  0  0  0  0  0  0  0
    3.0670   -0.6960   -1.3770 C   0  0  0  0  0  0  0  0  0  0  0  0
    3.0250    0.3090   -2.3290 C   0  0  0  0  0  0  0  0  0  0  0  0
    1.8730    1.0030   -2.6120 C   0  0  0  0  0  0  0  0  0  0  0  0
    0.6970    0.7240   -1.9530 C   0  0  0  0  0  0  0  0  0  0  0  0
    0.7090   -0.2870   -0.9860 C   0  0  0  0  0  0  0  0  0  0  0  0
   -0.4610   -0.5890   -0.3030 C   0  0  0  0  0  0  0  0  0  0  0  0
   -0.5210   -1.5620    0.6580 C   0  0  0  0  0  0  0  0  0  0  0  0
   -1.6750   -1.9050    1.4040 N   0  0  0  0  0  0  0  0  0  0  0  0
   -2.8210   -1.0980    1.4960 C   0  0  0  0  0  0  0  0  0  0  0  0
   -2.8990    0.0130    0.9210 O   0  0  0  0  0  0  0  0  0  0  0  0
   -3.9680   -1.5370    2.2750 N   0  0  0  0  0  0  0  0  0  0  0  0
   -5.1060   -0.6540    2.3190 C   0  0  0  0  0  0  0  0  0  0  0  0
   -5.6040   -0.4770    0.9240 C   0  0  0  0  0  0  0  0  0  0  0  0
   -5.2180   -1.1490   -0.2130 C   0  0  0  0  0  0  0  0  0  0  0  0
   -5.9310   -0.6640   -1.2690 C   0  0  0  0  0  0  0  0  0  0  0  0
   -6.7630    0.3130   -0.7750 C   0  0  0  0  0  0  0  0  0  0  0  0
   -6.5470    0.4050    0.5390 N   0  0  0  0  0  0  0  0  0  0  0  0
   -7.4100    1.4280    1.0850 C   0  0  0  0  0  0  0  0  0  0  0  0
   -7.4780    1.8260    2.4580 N   0  0  0  0  0  0  0  0  0  0  0  0
   -8.1140    1.9260    0.1310 N   0  0  0  0  0  0  0  0  0  0  0  0
   -7.8120    1.3100   -1.1360 C   0  0  0  0  0  0  0  0  0  0  0  0
    0.6710   -2.2500    0.9240 C   0  0  0  0  0  0  0  0  0  0  0  0
    1.8110   -1.9420    0.2440 C   0  0  0  0  0  0  0  0  0  0  0  0
    1.8870   -0.9640   -0.7280 C   0  0  0  0  0  0  0  0  0  0  0  0
  2  1  1  1
  2  3  1  0
  2  4  1  0
  4  5  1  1
  4  6  1  0
  6  7  1  0
  7  8  1  0
  8  9  2  0
  8 31  1  0
  9 10  1  0
 10 11  2  0
 11 12  1  0
 12 13  2  0
 12 31  1  0
 13 14  1  0
 14 15  1  0
 14 29  2  0
 15 16  1  0
 16 17  2  0
 16 18  1  0
 18 19  1  0
 19 20  1  0
 20 21  2  0
 20 24  1  0
 21 22  1  0
 22 23  2  0
 23 24  1  0
 23 28  1  0
 24 25  1  0
 25 26  1  0
 25 27  2  0
 27 28  1  0
 29 30  1  0
 30 31  2  0
M  CHG  2   5   1  27   1
M  END
