
     RDKit          3D

 31 33  0  0  0  0  0  0  0  0999 V2000
    7.2670    1.3250   -3.7050 C   0  0  0  0  0  0  0  0  0  0  0  0
    6.0960    1.8810   -3.1470 C   0  0  0  0  0  0  0  0  0  0  0  0
    5.8400    3.3130   -3.6540 C   0  0  0  0  0  0  0  0  0  0  0  0
    6.3990    4.1340   -4.3860 C   0  0  0  0  0  0  0  0  0  0  0  0
    7.6460    3.9510   -5.0580 N   0  0  0  0  0  0  0  0  0  0  0  0
    5.1130    1.5360   -2.3790 C   0  0  0  0  0  0  0  0  0  0  0  0
    5.0380    0.1770   -1.8090 C   0  0  0  0  0  0  0  0  0  0  0  0
    4.0890   -0.1490   -0.9930 C   0  0  0  0  0  0  0  0  0  0  0  0
    3.0520    0.7850   -0.5560 C   0  0  0  0  0  0  0  0  0  0  0  0
    2.0650    0.4600    0.1950 C   0  0  0  0  0  0  0  0  0  0  0  0
    1.0890    1.5810    0.5260 C   0  0  0  0  0  0  0  0  0  0  0  0
    1.8200   -0.8960    0.7270 C   0  0  0  0  0  0  0  0  0  0  0  0
    0.6630   -1.3380    1.4160 C   0  0  0  0  0  0  0  0  0  0  0  0
    0.4760   -2.6290    1.4470 O   0  0  0  0  0  0  0  0  0  0  0  0
   -0.2900   -0.5900    2.0580 N   0  0  0  0  0  0  0  0  0  0  0  0
   -1.4940   -1.1410    2.6220 C   0  0  0  0  0  0  0  0  0  0  0  0
   -1.6440   -2.3410    3.2040 C   0  0  0  0  0  0  0  0  0  0  0  0
   -2.8950   -2.8380    3.5930 C   0  0  0  0  0  0  0  0  0  0  0  0
   -4.0320   -2.0880    3.3780 C   0  0  0  0  0  0  0  0  0  0  0  0
   -5.3500   -2.2740    3.5760 N   0  0  0  0  0  0  0  0  0  0  0  0
   -6.0440   -1.1960    3.1220 C   0  0  0  0  0  0  0  0  0  0  0  0
   -7.5480   -1.0160    3.0650 C   0  0  0  0  0  0  0  0  0  0  0  0
   -7.8460   -0.4900    1.7360 N   0  0  1  0  0  0  0  0  0  0  0  0
   -6.9170   -1.0830    0.7740 C   0  0  0  0  0  0  0  0  0  0  0  0
   -9.1770   -0.8720    1.3630 C   0  0  0  0  0  0  0  0  0  0  0  0
   -5.1540   -0.3350    2.6480 N   0  0  0  0  0  0  0  0  0  0  0  0
   -3.9220   -0.8160    2.7720 C   0  0  0  0  0  0  0  0  0  0  0  0
   -2.6700   -0.4120    2.4290 C   0  0  0  0  0  0  0  0  0  0  0  0
    2.7760   -1.7760    0.3160 C   0  0  0  0  0  0  0  0  0  0  0  0
    2.6190   -3.1480    0.7920 N   0  0  0  0  0  0  0  0  0  0  0  0
    3.8770   -1.5020   -0.4870 N   0  0  0  0  0  0  0  0  0  0  0  0
  1  2  1  0
  2  3  1  0
  2  6  2  3
  3  4  2  3
  4  5  1  0
  6  7  1  0
  7  8  2  3
  8  9  1  0
  8 31  1  0
  9 10  2  0
 10 11  1  0
 10 12  1  0
 12 13  1  0
 12 29  2  0
 13 14  2  0
 13 15  1  0
 15 16  1  0
 16 17  2  0
 16 28  1  0
 17 18  1  0
 18 19  2  0
 19 20  1  0
 19 27  1  0
 20 21  2  0
 21 22  1  0
 21 26  1  0
 22 23  1  0
 23 24  1  6
 23 25  1  0
 26 27  1  0
 27 28  2  0
 29 30  1  0
 29 31  1  0
M  CHG  2   5   1  23   1
M  END
