
     RDKit          3D

 31 34  0  0  0  0  0  0  0  0999 V2000
   -2.5320   -3.8890   -0.8390 C   0  0  0  0  0  0  0  0  0  0  0  0
   -2.9650   -2.5070   -0.5190 C   0  0  0  0  0  0  0  0  0  0  0  0
   -4.2920   -2.1280   -0.7960 C   0  0  0  0  0  0  0  0  0  0  0  0
   -4.7480   -0.8930   -0.4540 C   0  0  0  0  0  0  0  0  0  0  0  0
   -3.9380    0.0590    0.1840 C   0  0  0  0  0  0  0  0  0  0  0  0
   -4.5270    1.3440    0.5250 C   0  0  0  0  0  0  0  0  0  0  0  0
   -5.9710    1.4560    0.3230 N   0  0  0  0  0  0  0  0  0  0  0  0
   -3.9530    2.3750    1.0000 C   0  0  0  0  0  0  0  0  0  0  0  0
   -2.6610    2.6500    1.3500 N   0  0  0  0  0  0  0  0  0  0  0  0
   -2.6500   -0.3190    0.4490 C   0  0  0  0  0  0  0  0  0  0  0  0
   -2.1640   -1.5900    0.1000 C   0  0  0  0  0  0  0  0  0  0  0  0
   -0.7070   -1.8940    0.2760 C   0  0  0  0  0  0  0  0  0  0  0  0
    0.1200   -0.9320   -0.4130 N   0  0  0  0  0  0  0  0  0  0  0  0
    0.7150    0.1270    0.2470 C   0  0  0  0  0  0  0  0  0  0  0  0
    0.6820    0.3160    1.6590 N   0  0  0  0  0  0  0  0  0  0  0  0
    1.3130    1.4340    2.3310 C   0  0  0  0  0  0  0  0  0  0  0  0
    2.7790    1.4720    2.1980 C   0  0  0  0  0  0  0  0  0  0  0  0
    3.3590    2.4420    2.7560 O   0  0  0  0  0  0  0  0  0  0  0  0
    3.5750    0.5310    1.5100 N   0  0  0  0  0  0  0  0  0  0  0  0
    4.9880    0.6010    1.3960 C   0  0  0  0  0  0  0  0  0  0  0  0
    5.8660    1.5310    1.8870 C   0  0  0  0  0  0  0  0  0  0  0  0
    7.1720    1.1870    1.5250 C   0  0  0  0  0  0  0  0  0  0  0  0
    7.0950    0.0610    0.8210 N   0  0  0  0  0  0  0  0  0  0  0  0
    5.7850   -0.3140    0.7290 C   0  0  0  0  0  0  0  0  0  0  0  0
    1.3230    0.8680   -0.6800 N   0  0  0  0  0  0  0  0  0  0  0  0
    1.1340    0.3120   -1.8980 C   0  0  0  0  0  0  0  0  0  0  0  0
    1.5410    0.6790   -3.1700 C   0  0  0  0  0  0  0  0  0  0  0  0
    1.2160   -0.0560   -4.3030 C   0  0  0  0  0  0  0  0  0  0  0  0
    0.4590   -1.1750   -4.0820 C   0  0  0  0  0  0  0  0  0  0  0  0
    0.0240   -1.5900   -2.8300 C   0  0  0  0  0  0  0  0  0  0  0  0
    0.3650   -0.8340   -1.6990 C   0  0  0  0  0  0  0  0  0  0  0  0
  1  2  1  0
  2  3  2  0
  2 11  1  0
  3  4  1  0
  4  5  2  0
  5  6  1  0
  5 10  1  0
  6  7  1  0
  6  8  2  3
  8  9  1  0
 10 11  2  0
 11 12  1  0
 12 13  1  0
 13 14  1  0
 13 31  1  0
 14 15  1  0
 14 25  2  0
 15 16  1  0
 16 17  1  0
 17 18  2  0
 17 19  1  0
 19 20  1  0
 20 21  1  0
 20 24  2  0
 21 22  2  0
 22 23  1  0
 23 24  1  0
 25 26  1  0
 26 27  2  0
 26 31  1  0
 27 28  1  0
 28 29  2  0
 29 30  1  0
 30 31  2  0
M  CHG  2   9   1  25   1
M  END
