
     RDKit          3D

 31 31  0  0  0  0  0  0  0  0999 V2000
    2.6330    4.3770   -0.4370 N   0  0  0  0  0  0  0  0  0  0  0  0
    3.6730    3.4330   -0.1130 C   0  0  1  0  0  0  0  0  0  0  0  0
    3.0740    2.1480    0.3660 C   0  0  0  0  0  0  0  0  0  0  0  0
    2.1860    1.4550   -0.6260 C   0  0  0  0  0  0  0  0  0  0  0  0
    1.6720    0.2260   -0.0050 C   0  0  0  0  0  0  0  0  0  0  0  0
    1.9260   -0.0290    1.1820 O   0  0  0  0  0  0  0  0  0  0  0  0
    0.8870   -0.6600   -0.7780 N   0  0  0  0  0  0  0  0  0  0  0  0
    0.3650   -1.8790   -0.1890 C   0  0  1  0  0  0  0  0  0  0  0  0
   -1.0800   -1.9630   -0.5320 C   0  0  0  0  0  0  0  0  0  0  0  0
   -2.0060   -0.5530    0.1030 S   0  0  0  0  0  0  0  0  0  0  0  0
   -3.7120   -0.7370   -0.3930 C   0  0  0  0  0  0  0  0  0  0  0  0
   -4.0670   -1.7260   -1.0650 O   0  0  0  0  0  0  0  0  0  0  0  0
   -4.6590    0.2380   -0.0260 N   0  0  0  0  0  0  0  0  0  0  0  0
   -5.9490    0.1020   -0.4160 O   0  0  0  0  0  0  0  0  0  0  0  0
   -4.2550    1.3510    0.7460 C   0  0  0  0  0  0  0  0  0  0  0  0
   -3.1980    2.1380    0.3120 C   0  0  0  0  0  0  0  0  0  0  0  0
   -2.8100    3.2060    1.0580 C   0  0  0  0  0  0  0  0  0  0  0  0
   -3.4390    3.5330    2.2450 C   0  0  0  0  0  0  0  0  0  0  0  0
   -2.8300    5.1780    3.3870 I   0  0  0  0  0  0  0  0  0  0  0  0
   -4.4840    2.7430    2.6620 C   0  0  0  0  0  0  0  0  0  0  0  0
   -4.8860    1.6620    1.9160 C   0  0  0  0  0  0  0  0  0  0  0  0
    1.0850   -3.0350   -0.8220 C   0  0  0  0  0  0  0  0  0  0  0  0
    1.9360   -2.8990   -1.7130 O   0  0  0  0  0  0  0  0  0  0  0  0
    0.7700   -4.3530   -0.3690 N   0  0  0  0  0  0  0  0  0  0  0  0
    1.4180   -5.5210   -0.9310 C   0  0  0  0  0  0  0  0  0  0  0  0
    0.8860   -6.7160   -0.2500 C   0  0  0  0  0  0  0  0  0  0  0  0
    0.0260   -6.6150    0.6490 O   0  0  0  0  0  0  0  0  0  0  0  0
    1.3360   -7.9740   -0.6030 O   0  0  0  0  0  0  0  0  0  0  0  0
    4.5380    3.1620   -1.2960 C   0  0  0  0  0  0  0  0  0  0  0  0
    4.3110    3.7460   -2.3860 O   0  0  0  0  0  0  0  0  0  0  0  0
    5.5970    2.2730   -1.2210 O   0  0  0  0  0  0  0  0  0  0  0  0
  2  1  1  6
  2  3  1  0
  2 29  1  0
  3  4  1  0
  4  5  1  0
  5  6  2  0
  5  7  1  0
  7  8  1  0
  8  9  1  6
  8 22  1  0
  9 10  1  0
 10 11  1  0
 11 12  2  0
 11 13  1  0
 13 14  1  0
 13 15  1  0
 15 16  2  0
 15 21  1  0
 16 17  1  0
 17 18  2  0
 18 19  1  0
 18 20  1  0
 20 21  2  0
 22 23  2  0
 22 24  1  0
 24 25  1  0
 25 26  1  0
 26 27  2  0
 26 28  1  0
 29 30  2  0
 29 31  1  0
M  CHG  1   1   1
M  END
