
     RDKit          3D

 31 34  0  0  0  0  0  0  0  0999 V2000
   -4.4660    4.3530   -1.7610 C   0  0  0  0  0  0  0  0  0  0  0  0
   -3.4730    3.8460   -2.4700 C   0  0  0  0  0  0  0  0  0  0  0  0
   -2.4290    2.9560   -1.9340 C   0  0  0  0  0  0  0  0  0  0  0  0
   -2.5990    2.6620   -0.4730 C   0  0  0  0  0  0  0  0  0  0  0  0
   -1.5650    1.7700   -0.0110 N   0  0  0  0  0  0  0  0  0  0  0  0
   -0.3590    2.3580    0.3140 C   0  0  0  0  0  0  0  0  0  0  0  0
    0.7070    1.6270    0.7580 C   0  0  0  0  0  0  0  0  0  0  0  0
    1.9510    2.2090    1.0970 N   0  0  0  0  0  0  0  0  0  0  0  0
    0.4930    0.2680    0.8560 C   0  0  0  0  0  0  0  0  0  0  0  0
    1.4240   -0.5200    1.2560 N   0  0  0  0  0  0  0  0  0  0  0  0
    2.7240   -0.2070    1.6380 C   0  0  0  0  0  0  0  0  0  0  0  0
    3.0040    0.3840    2.7340 O   0  0  0  0  0  0  0  0  0  0  0  0
    3.8420   -0.5650    0.7560 C   0  0  0  0  0  0  0  0  0  0  0  0
    3.5980   -1.2080   -0.4450 C   0  0  0  0  0  0  0  0  0  0  0  0
    4.6390   -1.5450   -1.2730 C   0  0  0  0  0  0  0  0  0  0  0  0
    5.9310   -1.2560   -0.9340 C   0  0  0  0  0  0  0  0  0  0  0  0
    6.1860   -0.6160    0.2590 C   0  0  0  0  0  0  0  0  0  0  0  0
    5.1450   -0.2710    1.1040 C   0  0  0  0  0  0  0  0  0  0  0  0
    7.5830   -0.4200    0.3980 N   0  0  0  0  0  0  0  0  0  0  0  0
    8.1580   -0.7400   -0.8880 C   0  0  0  0  0  0  0  0  0  0  0  0
    7.1560   -1.4870   -1.5860 N   0  0  0  0  0  0  0  0  0  0  0  0
   -0.6770   -0.2680    0.5370 N   0  0  0  0  0  0  0  0  0  0  0  0
   -1.7610    0.4620    0.0870 C   0  0  0  0  0  0  0  0  0  0  0  0
   -2.9870   -0.2840   -0.1390 C   0  0  0  0  0  0  0  0  0  0  0  0
   -4.0580    0.0390   -0.8830 C   0  0  0  0  0  0  0  0  0  0  0  0
   -5.2210   -0.7400   -0.9470 C   0  0  0  0  0  0  0  0  0  0  0  0
   -5.3160   -1.9010   -0.2310 C   0  0  0  0  0  0  0  0  0  0  0  0
   -4.2430   -2.2720    0.5430 C   0  0  0  0  0  0  0  0  0  0  0  0
   -4.3440   -3.5330    1.3210 C   0  0  0  0  0  0  0  0  0  0  0  0
   -5.6240   -4.1500    1.1300 N   0  0  0  0  0  0  0  0  0  0  0  0
   -3.1120   -1.4870    0.5880 C   0  0  0  0  0  0  0  0  0  0  0  0
  1  2  2  0
  2  3  1  0
  3  4  1  0
  4  5  1  0
  5  6  1  0
  5 23  1  0
  6  7  2  0
  7  8  1  0
  7  9  1  0
  9 10  2  3
  9 22  1  0
 10 11  1  0
 11 12  2  0
 11 13  1  0
 13 14  2  0
 13 18  1  0
 14 15  1  0
 15 16  2  0
 16 17  1  0
 16 21  1  0
 17 18  2  0
 17 19  1  0
 19 20  1  0
 20 21  1  0
 22 23  2  0
 23 24  1  0
 24 25  2  0
 24 31  1  0
 25 26  1  0
 26 27  2  0
 27 28  1  0
 28 29  1  0
 28 31  2  0
 29 30  1  0
M  CHG  2  21   1  30   1
M  END
