
     RDKit          3D

 21 21  0  0  0  0  0  0  0  0999 V2000
    4.0810   -0.5520   -0.2080 O   0  0  0  0  0  0  0  0  0  0  0  0
    3.3880    0.4340    0.1100 C   0  0  0  0  0  0  0  0  0  0  0  0
    2.0040    0.2560    0.3580 N   0  0  0  0  0  0  0  0  0  0  0  0
    1.3340   -1.0200    0.2640 C   0  0  2  0  0  0  0  0  0  0  0  0
    0.2920   -1.0730   -0.8090 C   0  0  0  0  0  0  0  0  0  0  0  0
    0.2880    0.1240   -1.7180 C   0  0  0  0  0  0  0  0  0  0  0  0
   -1.0870    0.3230   -2.3640 C   0  0  0  0  0  0  0  0  0  0  0  0
   -1.7190    1.4110   -1.7500 O   0  0  0  0  0  0  0  0  0  0  0  0
   -2.9800    1.4420   -1.2430 C   0  0  0  0  0  0  0  0  0  0  0  0
   -3.7480    2.4160   -1.4200 O   0  0  0  0  0  0  0  0  0  0  0  0
   -3.4910    0.3000   -0.4520 C   0  0  2  0  0  0  0  0  0  0  0  0
   -4.8490    0.0820   -0.7210 F   0  0  0  0  0  0  0  0  0  0  0  0
   -3.4240    0.6530    0.9000 O   0  0  0  0  0  0  0  0  0  0  0  0
   -2.7290   -0.3300    1.5710 C   0  0  0  0  0  0  0  0  0  0  0  0
   -1.2790    0.0700    1.8240 C   0  0  0  0  0  0  0  0  0  0  0  0
   -0.5300   -1.1540    2.0310 N   0  0  0  0  0  0  0  0  0  0  0  0
    0.7920   -1.3850    1.6040 C   0  0  0  0  0  0  0  0  0  0  0  0
    1.6210   -1.9460    2.3930 O   0  0  0  0  0  0  0  0  0  0  0  0
    3.9920    1.7010    0.2170 O   0  0  0  0  0  0  0  0  0  0  0  0
    5.3020    1.8690   -0.0180 O   0  0  0  0  0  0  0  0  0  0  0  0
    5.9560    0.9680    0.7180 O   0  0  0  0  0  0  0  0  0  0  0  0
  1  2  2  0
  2  3  1  0
  2 19  1  0
  4  3  1  1
  4  5  1  0
  4 17  1  0
  5  6  1  0
  6  7  1  0
  7  8  1  0
  8  9  1  0
  9 10  2  0
  9 11  1  0
 11 12  1  6
 11 13  1  0
 13 14  1  0
 14 15  1  0
 15 16  1  0
 16 17  1  0
 17 18  2  0
 19 20  1  0
 20 21  1  0
M  END
