
     RDKit          3D

 24 26  0  0  0  0  0  0  0  0999 V2000
    5.6980    0.8340    1.3360 N   0  0  0  0  0  0  0  0  0  0  0  0
    5.0210    0.1040    0.3170 C   0  0  0  0  0  0  0  0  0  0  0  0
    3.6660    0.0750    0.2710 N   0  0  0  0  0  0  0  0  0  0  0  0
    3.0450   -0.6200   -0.6990 C   0  0  0  0  0  0  0  0  0  0  0  0
    3.7450   -1.3130   -1.6600 C   0  0  0  0  0  0  0  0  0  0  0  0
    2.8670   -1.8900   -2.4660 N   0  0  0  0  0  0  0  0  0  0  0  0
    1.6400   -1.5660   -2.0200 C   0  0  0  0  0  0  0  0  0  0  0  0
    1.7140   -0.7900   -0.9400 N   0  0  0  0  0  0  0  0  0  0  0  0
    0.6490   -0.2280   -0.1630 C   0  0  2  0  0  0  0  0  0  0  0  0
   -0.4850   -1.0530   -0.1170 O   0  0  0  0  0  0  0  0  0  0  0  0
   -1.4570   -0.2200    0.3960 C   0  0  2  0  0  0  0  0  0  0  0  0
   -2.8600   -0.6730    0.0730 C   0  0  0  0  0  0  0  0  0  0  0  0
   -3.7020    0.2730    0.6620 O   0  0  0  0  0  0  0  0  0  0  0  0
   -5.2240    0.0880    0.5100 P   0  0  0  0  0  0  0  0  0  0  0  0
   -6.7080   -0.2740    0.3560 O   0  0  0  0  0  0  0  0  0  0  0  0
   -5.0070   -1.3220    1.3780 O   0  0  0  0  0  0  0  0  0  0  0  0
   -5.5700    1.4570    1.3520 O   0  0  0  0  0  0  0  0  0  0  0  0
   -1.2590    1.1300   -0.2880 C   0  0  1  0  0  0  0  0  0  0  0  0
   -1.3200    2.1490    0.6350 O   0  0  0  0  0  0  0  0  0  0  0  0
    0.1120    0.9910   -0.9150 C   0  0  1  0  0  0  0  0  0  0  0  0
    0.9030    2.1000   -0.7270 O   0  0  0  0  0  0  0  0  0  0  0  0
    5.1350   -1.2830   -1.6110 C   0  0  0  0  0  0  0  0  0  0  0  0
    5.7610   -1.9130   -2.4860 O   0  0  0  0  0  0  0  0  0  0  0  0
    5.7040   -0.5750   -0.6240 N   0  0  0  0  0  0  0  0  0  0  0  0
  1  2  1  0
  2  3  2  0
  2 24  1  0
  3  4  1  0
  4  5  2  0
  4  8  1  0
  5  6  1  0
  5 22  1  0
  6  7  2  0
  7  8  1  0
  9  8  1  6
  9 10  1  0
  9 20  1  0
 10 11  1  0
 11 12  1  6
 11 18  1  0
 12 13  1  0
 13 14  1  0
 14 15  1  0
 14 16  1  0
 14 17  1  0
 18 19  1  1
 18 20  1  0
 20 21  1  1
 22 23  2  0
 22 24  1  0
M  END
