
     RDKit          3D

 21 21  0  0  0  0  0  0  0  0999 V2000
   -2.7480    2.7500   -0.6850 C   0  0  0  0  0  0  0  0  0  0  0  0
   -2.2340    1.6360    0.0580 N   0  0  0  0  0  0  0  0  0  0  0  0
   -2.7790    1.3750    1.3620 C   0  0  0  0  0  0  0  0  0  0  0  0
   -3.6760    2.0860    1.8540 O   0  0  0  0  0  0  0  0  0  0  0  0
   -2.2550    0.2950    2.0330 O   0  0  0  0  0  0  0  0  0  0  0  0
   -1.0480   -0.1610    1.6910 O   0  0  0  0  0  0  0  0  0  0  0  0
   -0.9700   -0.4810    0.3210 C   0  0  1  0  0  0  0  0  0  0  0  0
    0.3130   -1.0620    0.0920 N   0  0  0  0  0  0  0  0  0  0  0  0
    1.5500   -0.4000    0.3200 C   0  0  0  0  0  0  0  0  0  0  0  0
    1.5190    0.7610    0.7470 O   0  0  0  0  0  0  0  0  0  0  0  0
    2.8020   -1.1290    0.0370 C   0  0  0  0  0  0  0  0  0  0  0  0
    4.0300   -0.3270    0.3340 C   0  0  0  0  0  0  0  0  0  0  0  0
    4.1370    0.9180   -0.4420 C   0  0  0  0  0  0  0  0  0  0  0  0
    4.5140    0.9150   -1.6400 O   0  0  0  0  0  0  0  0  0  0  0  0
    3.8230    2.1510    0.1190 O   0  0  0  0  0  0  0  0  0  0  0  0
   -2.0390   -1.4860   -0.0330 C   0  0  1  0  0  0  0  0  0  0  0  0
   -1.9050   -1.9530   -1.4500 C   0  0  0  0  0  0  0  0  0  0  0  0
   -1.8390   -2.6140    0.8040 O   0  0  0  0  0  0  0  0  0  0  0  0
   -3.3170   -1.0160    0.2000 F   0  0  0  0  0  0  0  0  0  0  0  0
   -1.2140    0.7660   -0.4190 C   0  0  0  0  0  0  0  0  0  0  0  0
   -0.5760    1.1010   -1.4380 O   0  0  0  0  0  0  0  0  0  0  0  0
  1  2  1  0
  2  3  1  0
  2 20  1  0
  3  4  2  0
  3  5  1  0
  5  6  1  0
  6  7  1  0
  7  8  1  1
  7 16  1  0
  7 20  1  0
  8  9  1  0
  9 10  2  0
  9 11  1  0
 11 12  1  0
 12 13  1  0
 13 14  2  0
 13 15  1  0
 16 17  1  6
 16 18  1  0
 16 19  1  0
 20 21  2  0
M  END
