
     RDKit          3D

 19 19  0  0  0  0  0  0  0  0999 V2000
    2.1630   -0.8480    2.2410 O   0  0  0  0  0  0  0  0  0  0  0  0
    2.9970   -0.0680    1.7470 C   0  0  0  0  0  0  0  0  0  0  0  0
    4.1910    0.2170    2.3960 O   0  0  0  0  0  0  0  0  0  0  0  0
    2.7280    0.5160    0.5460 O   0  0  0  0  0  0  0  0  0  0  0  0
    1.5640    0.3200   -0.2190 C   0  0  2  0  0  0  0  0  0  0  0  0
    1.8640   -0.3980   -1.4890 C   0  0  0  0  0  0  0  0  0  0  0  0
    2.9660   -0.1430   -2.0670 O   0  0  0  0  0  0  0  0  0  0  0  0
    0.9840   -1.3050   -2.0200 O   0  0  0  0  0  0  0  0  0  0  0  0
   -0.3980   -1.1600   -2.1210 C   0  0  0  0  0  0  0  0  0  0  0  0
   -1.0280   -0.7840   -0.9560 O   0  0  0  0  0  0  0  0  0  0  0  0
   -2.1240    0.0680   -1.2030 C   0  0  0  0  0  0  0  0  0  0  0  0
   -2.8210    0.3210    0.0840 C   0  0  0  0  0  0  0  0  0  0  0  0
   -2.1180   -0.0990    1.2570 N   0  0  0  0  0  0  0  0  0  0  0  0
   -1.2880    0.6840    2.0690 C   0  0  0  0  0  0  0  0  0  0  0  0
   -1.2550    0.4510    3.3080 O   0  0  0  0  0  0  0  0  0  0  0  0
   -0.4740    1.7210    1.6250 O   0  0  0  0  0  0  0  0  0  0  0  0
   -0.1730    1.9080    0.3530 O   0  0  0  0  0  0  0  0  0  0  0  0
    0.8250    1.5920   -0.4690 C   0  0  0  0  0  0  0  0  0  0  0  0
    1.2630    2.2270   -1.4690 O   0  0  0  0  0  0  0  0  0  0  0  0
  1  2  2  0
  2  3  1  0
  2  4  1  0
  5  4  1  6
  5  6  1  0
  5 18  1  0
  6  7  2  0
  6  8  1  0
  8  9  1  0
  9 10  1  0
 10 11  1  0
 11 12  1  0
 12 13  1  0
 13 14  1  0
 14 15  2  0
 14 16  1  0
 16 17  1  0
 17 18  1  0
 18 19  2  0
M  END
