
     RDKit          3D

 21 22  0  0  0  0  0  0  0  0999 V2000
   -4.6730    0.4600    0.1210 O   0  0  0  0  0  0  0  0  0  0  0  0
   -3.4190    0.1770    0.2070 C   0  0  0  0  0  0  0  0  0  0  0  0
   -2.9060   -0.7250   -0.7590 N   0  0  0  0  0  0  0  0  0  0  0  0
   -2.0660   -1.8720   -0.4800 C   0  0  0  0  0  0  0  0  0  0  0  0
   -0.5920   -1.5360   -0.7570 C   0  0  0  0  0  0  0  0  0  0  0  0
   -0.0340   -1.1500    0.4470 O   0  0  0  0  0  0  0  0  0  0  0  0
    1.2080   -0.6490    0.7510 C   0  0  0  0  0  0  0  0  0  0  0  0
    1.7420   -1.1640    1.8140 O   0  0  0  0  0  0  0  0  0  0  0  0
    1.9360    0.3720    0.0010 C   0  0  0  0  0  0  0  0  0  0  0  0
    3.3910    0.1400   -0.1070 C   0  0  0  0  0  0  0  0  0  0  0  0
    4.1460   -0.8190    0.3430 C   0  0  0  0  0  0  0  0  0  0  0  0
    5.4610   -0.5570   -0.0400 O   0  0  0  0  0  0  0  0  0  0  0  0
    5.4520    0.4210   -0.9520 O   0  0  0  0  0  0  0  0  0  0  0  0
    4.2800    1.0030   -0.7800 O   0  0  0  0  0  0  0  0  0  0  0  0
    1.3920    1.4450   -0.5540 C   0  0  0  0  0  0  0  0  0  0  0  0
    0.1530    1.9020   -0.6130 O   0  0  0  0  0  0  0  0  0  0  0  0
   -1.1070    1.7900   -0.2950 C   0  0  0  0  0  0  0  0  0  0  0  0
   -2.1320    1.8250   -1.0780 O   0  0  0  0  0  0  0  0  0  0  0  0
   -1.5130    1.5980    1.1230 C   0  0  1  0  0  0  0  0  0  0  0  0
   -1.8010    2.8940    1.5870 F   0  0  0  0  0  0  0  0  0  0  0  0
   -2.7110    0.8030    1.2540 N   0  0  0  0  0  0  0  0  0  0  0  0
  1  2  2  0
  2  3  1  0
  2 21  1  0
  3  4  1  0
  4  5  1  0
  5  6  1  0
  6  7  1  0
  7  8  2  0
  7  9  1  0
  9 10  1  0
  9 15  2  0
 10 11  2  0
 10 14  1  0
 11 12  1  0
 12 13  1  0
 13 14  1  0
 15 16  1  0
 16 17  1  0
 17 18  2  0
 17 19  1  0
 19 20  1  6
 19 21  1  0
M  END
