
     RDKit          3D

 19 20  0  0  0  0  0  0  0  0999 V2000
    3.1960    1.9480   -0.7960 C   0  0  0  0  0  0  0  0  0  0  0  0
    3.1740    0.7260   -1.4890 O   0  0  0  0  0  0  0  0  0  0  0  0
    3.3070   -0.4570   -0.7960 C   0  0  0  0  0  0  0  0  0  0  0  0
    4.4980   -0.9830   -0.4600 N   0  0  0  0  0  0  0  0  0  0  0  0
    4.3380   -2.1210    0.2000 N   0  0  0  0  0  0  0  0  0  0  0  0
    3.0330   -2.3410    0.2960 C   0  0  0  0  0  0  0  0  0  0  0  0
    2.3240   -1.3110   -0.3230 C   0  0  0  0  0  0  0  0  0  0  0  0
    0.8760   -1.1370   -0.4600 C   0  0  0  0  0  0  0  0  0  0  0  0
    0.3510   -0.1000    0.4960 C   0  0  0  0  0  0  0  0  0  0  0  0
    1.0780    0.6010    1.3800 N   0  0  0  0  0  0  0  0  0  0  0  0
    0.2640    1.4260    2.0550 C   0  0  0  0  0  0  0  0  0  0  0  0
   -0.9710    1.2250    1.5770 N   0  0  0  0  0  0  0  0  0  0  0  0
   -0.9520    0.2950    0.6200 C   0  0  0  0  0  0  0  0  0  0  0  0
   -2.0780   -0.2320   -0.1710 C   0  0  0  0  0  0  0  0  0  0  0  0
   -1.8790   -1.1280   -1.0560 N   0  0  0  0  0  0  0  0  0  0  0  0
   -3.4020    0.2410    0.0310 N   0  0  0  0  0  0  0  0  0  0  0  0
   -4.7790   -0.3580   -0.9800 P   0  0  0  0  0  0  0  0  0  0  0  0
   -5.9370   -1.2180   -0.0450 O   0  0  0  0  0  0  0  0  0  0  0  0
   -5.4640    1.0060   -1.8060 O   0  0  0  0  0  0  0  0  0  0  0  0
  1  2  1  0
  2  3  1  0
  3  4  1  0
  3  7  2  0
  4  5  1  0
  5  6  2  0
  6  7  1  0
  7  8  1  0
  8  9  1  0
  9 10  1  0
  9 13  2  0
 10 11  2  0
 11 12  1  0
 12 13  1  0
 13 14  1  0
 14 15  2  0
 14 16  1  0
 16 17  1  0
 17 18  1  0
 17 19  1  0
M  END
