
     RDKit          3D

 20 20  0  0  0  0  0  0  0  0999 V2000
    5.6760    0.9840   -1.6180 N   0  0  0  0  0  0  0  0  0  0  0  0
    5.2510    0.3520   -0.5290 C   0  0  0  0  0  0  0  0  0  0  0  0
    6.2470   -0.1600    0.3110 N   0  0  0  0  0  0  0  0  0  0  0  0
    7.2960    0.5680    0.6680 O   0  0  0  0  0  0  0  0  0  0  0  0
    8.3090    0.4260   -0.1390 O   0  0  0  0  0  0  0  0  0  0  0  0
    3.9120    0.1640   -0.7070 N   0  0  0  0  0  0  0  0  0  0  0  0
    2.9240    0.0960    0.2320 C   0  0  0  0  0  0  0  0  0  0  0  0
    3.3740    0.3160    1.4020 O   0  0  0  0  0  0  0  0  0  0  0  0
    1.6200   -0.1700   -0.1540 N   0  0  0  0  0  0  0  0  0  0  0  0
    0.6080   -0.1660    0.8350 C   0  0  0  0  0  0  0  0  0  0  0  0
   -0.7040   -0.4440    0.0500 C   0  0  0  0  0  0  0  0  0  0  0  0
   -1.7690   -0.4140    1.0610 C   0  0  0  0  0  0  0  0  0  0  0  0
   -3.0900   -0.6120    0.6120 N   0  0  0  0  0  0  0  0  0  0  0  0
   -4.1610   -0.6180    1.5980 C   0  0  0  0  0  0  0  0  0  0  0  0
   -4.8990    0.6960    1.4510 C   0  0  0  0  0  0  0  0  0  0  0  0
   -5.7150    0.6690   -0.2190 P   0  0  0  0  0  0  0  0  0  0  0  0
   -5.5320    2.2340   -0.9490 O   0  0  0  0  0  0  0  0  0  0  0  0
   -4.8010   -0.5250   -1.2020 N   0  0  0  0  0  0  0  0  0  0  0  0
   -3.4560   -0.8000   -0.7400 C   0  0  0  0  0  0  0  0  0  0  0  0
   -2.5560   -1.2260   -1.5490 N   0  0  0  0  0  0  0  0  0  0  0  0
  1  2  2  0
  2  3  1  0
  2  6  1  0
  3  4  1  0
  4  5  1  0
  6  7  1  0
  7  8  2  0
  7  9  1  0
  9 10  1  0
 10 11  1  0
 11 12  1  0
 12 13  1  0
 13 14  1  0
 13 19  1  0
 14 15  1  0
 15 16  1  0
 16 17  1  0
 16 18  1  0
 18 19  1  0
 19 20  2  0
M  END
