
     RDKit          3D

 19 20  0  0  0  0  0  0  0  0999 V2000
   -4.8410    1.9940    0.2820 N   0  0  0  0  0  0  0  0  0  0  0  0
   -3.7010    1.1500    0.2230 C   0  0  0  0  0  0  0  0  0  0  0  0
   -2.6530    1.5680    0.7560 O   0  0  0  0  0  0  0  0  0  0  0  0
   -3.7960   -0.1280   -0.4370 C   0  0  0  0  0  0  0  0  0  0  0  0
   -2.6030   -0.9400   -0.4860 N   0  0  0  0  0  0  0  0  0  0  0  0
   -2.7430   -2.2670   -1.0220 C   0  0  0  0  0  0  0  0  0  0  0  0
   -1.7570   -3.0760   -1.1790 N   0  0  0  0  0  0  0  0  0  0  0  0
   -0.4610   -2.6390   -0.8040 C   0  0  0  0  0  0  0  0  0  0  0  0
   -0.2170   -1.4460   -0.2990 C   0  0  0  0  0  0  0  0  0  0  0  0
    1.1710   -1.0780    0.0600 C   0  0  0  0  0  0  0  0  0  0  0  0
    2.3130   -1.8180   -0.0330 C   0  0  0  0  0  0  0  0  0  0  0  0
    3.3530   -1.0920    0.3920 N   0  0  0  0  0  0  0  0  0  0  0  0
    2.8950    0.1140    0.7590 C   0  0  0  0  0  0  0  0  0  0  0  0
    3.7580    1.1300    1.2610 N   0  0  0  0  0  0  0  0  0  0  0  0
    4.6080    2.2640    0.1470 P   0  0  0  0  0  0  0  0  0  0  0  0
    6.3400    2.2050    0.4230 O   0  0  0  0  0  0  0  0  0  0  0  0
    4.3730    1.7010   -1.4980 O   0  0  0  0  0  0  0  0  0  0  0  0
    1.5590    0.1330    0.5600 N   0  0  0  0  0  0  0  0  0  0  0  0
   -1.3170   -0.5010   -0.0640 C   0  0  0  0  0  0  0  0  0  0  0  0
  1  2  1  0
  2  3  2  0
  2  4  1  0
  4  5  1  0
  5  6  1  0
  5 19  1  0
  6  7  2  0
  7  8  1  0
  8  9  2  0
  9 10  1  0
  9 19  1  0
 10 11  2  0
 10 18  1  0
 11 12  1  0
 12 13  2  0
 13 14  1  0
 13 18  1  0
 14 15  1  0
 15 16  1  0
 15 17  1  0
M  END
