
     RDKit          3D

 20 21  0  0  0  0  0  0  0  0999 V2000
    2.4420   -0.9480    0.8990 C   0  0  0  0  0  0  0  0  0  0  0  0
    2.7470   -0.3350   -0.4710 C   0  0  1  0  0  0  0  0  0  0  0  0
    2.1550   -1.2400   -1.5060 C   0  0  0  0  0  0  0  0  0  0  0  0
    2.6530   -2.5260   -1.2850 O   0  0  0  0  0  0  0  0  0  0  0  0
    2.3320    1.0280   -0.5620 N   0  0  0  0  0  0  0  0  0  0  0  0
    0.9720    1.3820   -0.3820 C   0  0  0  0  0  0  0  0  0  0  0  0
    0.0320    0.4410   -0.1180 N   0  0  0  0  0  0  0  0  0  0  0  0
   -1.2470    0.7820    0.0520 C   0  0  0  0  0  0  0  0  0  0  0  0
   -2.3190   -0.2110    0.3430 C   0  0  1  0  0  0  0  0  0  0  0  0
   -2.4850   -1.1470   -0.8630 C   0  0  0  0  0  0  0  0  0  0  0  0
   -3.4840   -2.0830   -0.6070 O   0  0  0  0  0  0  0  0  0  0  0  0
   -2.0080   -1.1480    1.8880 P   0  0  0  0  0  0  0  0  0  0  0  0
   -1.0440   -2.5640    1.6200 O   0  0  0  0  0  0  0  0  0  0  0  0
   -3.5560   -1.5790    2.5870 O   0  0  0  0  0  0  0  0  0  0  0  0
   -1.5680    2.0690   -0.0470 N   0  0  0  0  0  0  0  0  0  0  0  0
   -0.7050    3.0330   -0.3010 N   0  0  0  0  0  0  0  0  0  0  0  0
   -0.7510    4.3670   -0.4490 C   0  0  0  0  0  0  0  0  0  0  0  0
    0.4610    4.8800   -0.7080 N   0  0  0  0  0  0  0  0  0  0  0  0
    1.3010    3.8460   -0.7240 N   0  0  0  0  0  0  0  0  0  0  0  0
    0.5880    2.7080   -0.4740 C   0  0  0  0  0  0  0  0  0  0  0  0
  2  1  1  1
  2  3  1  0
  2  5  1  0
  3  4  1  0
  5  6  1  0
  6  7  2  0
  6 20  1  0
  7  8  1  0
  8  9  1  0
  8 15  2  0
  9 10  1  6
  9 12  1  0
 10 11  1  0
 12 13  1  0
 12 14  1  0
 15 16  1  0
 16 17  1  0
 16 20  1  0
 17 18  2  0
 18 19  1  0
 19 20  2  0
M  END
