
     RDKit          3D

 20 21  0  0  0  0  0  0  0  0999 V2000
   -7.5660    0.5090    0.3710 N   0  0  0  0  0  0  0  0  0  0  0  0
   -6.1570    0.7250    0.2800 C   0  0  0  0  0  0  0  0  0  0  0  0
   -5.5030    1.8310    0.6680 N   0  0  0  0  0  0  0  0  0  0  0  0
   -4.2240    1.6370    0.4220 N   0  0  0  0  0  0  0  0  0  0  0  0
   -4.0840    0.3970   -0.1240 C   0  0  0  0  0  0  0  0  0  0  0  0
   -2.7780   -0.1640   -0.5260 C   0  0  0  0  0  0  0  0  0  0  0  0
   -2.5670   -1.3920   -1.0960 C   0  0  0  0  0  0  0  0  0  0  0  0
   -1.2060   -1.4930   -1.3000 C   0  0  0  0  0  0  0  0  0  0  0  0
   -0.6350   -0.3380   -0.8540 C   0  0  0  0  0  0  0  0  0  0  0  0
    0.7880    0.0930   -0.8270 C   0  0  0  0  0  0  0  0  0  0  0  0
    1.3580   -0.3660    0.4980 C   0  0  0  0  0  0  0  0  0  0  0  0
    2.7360   -0.0210    0.6840 N   0  0  0  0  0  0  0  0  0  0  0  0
    3.7840   -0.4650   -0.1820 C   0  0  0  0  0  0  0  0  0  0  0  0
    3.5300   -1.1980   -1.1730 O   0  0  0  0  0  0  0  0  0  0  0  0
    5.1330   -0.0970    0.0420 N   0  0  0  0  0  0  0  0  0  0  0  0
    6.4000   -0.6800   -1.0760 P   0  0  0  0  0  0  0  0  0  0  0  0
    7.9840   -0.4040   -0.3810 O   0  0  0  0  0  0  0  0  0  0  0  0
    6.3300    0.3160   -2.5210 O   0  0  0  0  0  0  0  0  0  0  0  0
   -1.6170    0.4050   -0.4090 O   0  0  0  0  0  0  0  0  0  0  0  0
   -5.2700   -0.1800   -0.2190 N   0  0  0  0  0  0  0  0  0  0  0  0
  1  2  1  0
  2  3  2  0
  2 20  1  0
  3  4  1  0
  4  5  1  0
  5  6  1  0
  5 20  2  0
  6  7  2  0
  6 19  1  0
  7  8  1  0
  8  9  2  0
  9 10  1  0
  9 19  1  0
 10 11  1  0
 11 12  1  0
 12 13  1  0
 13 14  2  0
 13 15  1  0
 15 16  1  0
 16 17  1  0
 16 18  1  0
M  END
