
     RDKit          3D

 23 25  0  0  0  0  0  0  0  0999 V2000
    5.3960   -1.7750    3.1470 O   0  0  0  0  0  0  0  0  0  0  0  0
    4.8450   -0.9700    2.3700 C   0  0  0  0  0  0  0  0  0  0  0  0
    5.5380    0.0780    1.9110 N   0  0  0  0  0  0  0  0  0  0  0  0
    4.9940    0.9760    1.0720 C   0  0  0  0  0  0  0  0  0  0  0  0
    3.7190    0.8180    0.6830 N   0  0  0  0  0  0  0  0  0  0  0  0
    2.9410   -0.2200    1.1010 C   0  0  0  0  0  0  0  0  0  0  0  0
    3.5420   -1.1250    1.9660 C   0  0  0  0  0  0  0  0  0  0  0  0
    2.5720   -2.0420    2.2250 N   0  0  0  0  0  0  0  0  0  0  0  0
    1.4590   -1.7010    1.5510 C   0  0  0  0  0  0  0  0  0  0  0  0
    1.6680   -0.5810    0.8530 N   0  0  0  0  0  0  0  0  0  0  0  0
    0.7880    0.1620   -0.0100 C   0  0  2  0  0  0  0  0  0  0  0  0
   -0.5520    0.0320    0.3250 O   0  0  0  0  0  0  0  0  0  0  0  0
   -1.1530    0.7910   -0.7060 C   0  0  2  0  0  0  0  0  0  0  0  0
   -2.6200    0.3510   -0.8580 C   0  0  0  0  0  0  0  0  0  0  0  0
   -3.3080    0.5430    0.2810 O   0  0  0  0  0  0  0  0  0  0  0  0
   -4.8790    0.0680    0.1550 P   0  0  0  0  0  0  0  0  0  0  0  0
   -5.1300    1.0610   -0.9620 O   0  0  0  0  0  0  0  0  0  0  0  0
   -5.3500   -1.2670   -0.6700 O   0  0  0  0  0  0  0  0  0  0  0  0
   -6.0270    0.8160    1.1020 O   0  0  0  0  0  0  0  0  0  0  0  0
   -0.4160    0.4200   -1.9660 C   0  0  1  0  0  0  0  0  0  0  0  0
    0.0740    1.5620   -2.5730 O   0  0  0  0  0  0  0  0  0  0  0  0
    0.7840   -0.3550   -1.4330 C   0  0  1  0  0  0  0  0  0  0  0  0
    1.9420   -0.0530   -2.1140 O   0  0  0  0  0  0  0  0  0  0  0  0
  1  2  2  0
  2  3  1  0
  2  7  1  0
  3  4  1  0
  4  5  2  0
  5  6  1  0
  6  7  2  0
  6 10  1  0
  7  8  1  0
  8  9  2  0
  9 10  1  0
 11 10  1  1
 11 12  1  0
 11 22  1  0
 12 13  1  0
 13 14  1  6
 13 20  1  0
 14 15  1  0
 15 16  1  0
 16 17  1  0
 16 18  1  0
 16 19  1  0
 20 21  1  1
 20 22  1  0
 22 23  1  6
M  END
