
     RDKit          3D

 20 21  0  0  0  0  0  0  0  0999 V2000
   -2.0760   -2.3100    1.5700 C   0  0  0  0  0  0  0  0  0  0  0  0
   -2.5650   -1.2680    0.6280 C   0  0  0  0  0  0  0  0  0  0  0  0
   -1.7900   -0.9980   -0.6050 C   0  0  0  0  0  0  0  0  0  0  0  0
   -0.4370   -0.5800   -0.4640 N   0  0  0  0  0  0  0  0  0  0  0  0
    0.6220   -1.4600   -0.1580 C   0  0  0  0  0  0  0  0  0  0  0  0
    0.4890   -2.7220   -0.1360 N   0  0  0  0  0  0  0  0  0  0  0  0
    1.9630   -0.9800    0.0680 N   0  0  0  0  0  0  0  0  0  0  0  0
    2.2560    0.3770   -0.0120 C   0  0  0  0  0  0  0  0  0  0  0  0
    3.4380    0.9160    0.1730 C   0  0  0  0  0  0  0  0  0  0  0  0
    4.6390    0.1970    0.4920 C   0  0  0  0  0  0  0  0  0  0  0  0
    4.6870   -1.0300    0.6280 O   0  0  0  0  0  0  0  0  0  0  0  0
    5.8630    0.8820    0.6710 O   0  0  0  0  0  0  0  0  0  0  0  0
    1.1490    1.2510   -0.3300 N   0  0  0  0  0  0  0  0  0  0  0  0
    1.1940    2.5850   -0.4540 N   0  0  0  0  0  0  0  0  0  0  0  0
   -0.0200    2.9930   -0.7410 N   0  0  0  0  0  0  0  0  0  0  0  0
   -0.8580    1.9430   -0.8060 C   0  0  0  0  0  0  0  0  0  0  0  0
   -2.6120    2.0430   -1.1580 P   0  0  0  0  0  0  0  0  0  0  0  0
   -3.4350    2.8120    0.1600 O   0  0  0  0  0  0  0  0  0  0  0  0
   -2.9820    2.8130   -2.6600 O   0  0  0  0  0  0  0  0  0  0  0  0
   -0.1130    0.8230   -0.5430 C   0  0  0  0  0  0  0  0  0  0  0  0
  1  2  1  0
  2  3  1  0
  3  4  1  0
  4  5  1  0
  4 20  1  0
  5  6  2  0
  5  7  1  0
  7  8  1  0
  8  9  2  3
  8 13  1  0
  9 10  1  0
 10 11  2  0
 10 12  1  0
 13 14  1  0
 13 20  1  0
 14 15  2  0
 15 16  1  0
 16 17  1  0
 16 20  2  0
 17 18  1  0
 17 19  1  0
M  END
