
     RDKit          3D

 20 21  0  0  0  0  0  0  0  0999 V2000
   -2.3590   -2.0460    0.6270 O   0  0  0  0  0  0  0  0  0  0  0  0
   -3.2140   -1.1620    0.3440 C   0  0  0  0  0  0  0  0  0  0  0  0
   -4.6100   -1.4420    0.4150 N   0  0  0  0  0  0  0  0  0  0  0  0
   -5.5950   -0.4040    0.1380 C   0  0  0  0  0  0  0  0  0  0  0  0
   -4.9740    0.5500   -0.8760 C   0  0  0  0  0  0  0  0  0  0  0  0
   -3.7470    1.1560   -0.2380 C   0  0  0  0  0  0  0  0  0  0  0  0
   -2.7680    0.1190   -0.0480 N   0  0  0  0  0  0  0  0  0  0  0  0
   -1.4050    0.4310   -0.2610 C   0  0  0  0  0  0  0  0  0  0  0  0
   -0.5070    0.3150    0.6830 C   0  0  0  0  0  0  0  0  0  0  0  0
    0.8660    0.6140    0.5180 N   0  0  0  0  0  0  0  0  0  0  0  0
    1.5540    0.2080   -0.5840 N   0  0  0  0  0  0  0  0  0  0  0  0
    2.9830    0.1880   -0.4460 C   0  0  1  0  0  0  0  0  0  0  0  0
    3.5860   -0.9240    0.8800 P   0  0  0  0  0  0  0  0  0  0  0  0
    2.4420   -2.0440    1.4410 O   0  0  0  0  0  0  0  0  0  0  0  0
    4.5130   -0.1570    2.0830 O   0  0  0  0  0  0  0  0  0  0  0  0
    5.5420   -0.9310    2.3780 O   0  0  0  0  0  0  0  0  0  0  0  0
    3.6670   -0.2330   -1.7280 C   0  0  0  0  0  0  0  0  0  0  0  0
    4.9580    0.4760   -1.6160 C   0  0  0  0  0  0  0  0  0  0  0  0
    4.8430    1.4410   -0.7840 N   0  0  0  0  0  0  0  0  0  0  0  0
    3.5520    1.5070   -0.2620 N   0  0  0  0  0  0  0  0  0  0  0  0
  1  2  2  0
  2  3  1  0
  2  7  1  0
  3  4  1  0
  4  5  1  0
  5  6  1  0
  6  7  1  0
  7  8  1  0
  8  9  2  3
  9 10  1  0
 10 11  1  0
 12 11  1  6
 12 13  1  0
 12 17  1  0
 12 20  1  0
 13 14  1  0
 13 15  1  0
 15 16  1  0
 17 18  1  0
 18 19  2  0
 19 20  1  0
M  END
