
     RDKit          3D

 20 21  0  0  0  0  0  0  0  0999 V2000
   -0.8090    1.0800   -1.7490 C   0  0  0  0  0  0  0  0  0  0  0  0
   -1.9040    0.4980   -0.9700 N   0  0  0  0  0  0  0  0  0  0  0  0
   -3.2550    0.7620   -1.3860 C   0  0  0  0  0  0  0  0  0  0  0  0
   -3.4600    1.0260   -2.5910 O   0  0  0  0  0  0  0  0  0  0  0  0
   -4.3470    0.7100   -0.3740 C   0  0  0  0  0  0  0  0  0  0  0  0
   -4.1860   -0.5480    0.3430 N   0  0  0  0  0  0  0  0  0  0  0  0
   -2.9130   -0.8690    0.8380 C   0  0  0  0  0  0  0  0  0  0  0  0
   -2.7800   -1.6430    1.8660 N   0  0  0  0  0  0  0  0  0  0  0  0
   -1.6900   -0.3240    0.1580 C   0  0  0  0  0  0  0  0  0  0  0  0
   -0.5450   -0.6410    0.6420 C   0  0  0  0  0  0  0  0  0  0  0  0
    0.7580   -0.3170    0.2620 N   0  0  0  0  0  0  0  0  0  0  0  0
    1.8960   -1.0120    0.8570 C   0  0  0  0  0  0  0  0  0  0  0  0
    1.8030   -1.8880    1.9060 C   0  0  0  0  0  0  0  0  0  0  0  0
    3.0490   -2.2790    2.1660 O   0  0  0  0  0  0  0  0  0  0  0  0
    3.8820   -1.7190    1.3700 N   0  0  0  0  0  0  0  0  0  0  0  0
    3.2160   -0.8940    0.5040 C   0  0  0  0  0  0  0  0  0  0  0  0
    3.7690   -0.1100   -0.5300 N   0  0  0  0  0  0  0  0  0  0  0  0
    4.4800    1.4850   -0.2440 P   0  0  0  0  0  0  0  0  0  0  0  0
    5.7330    1.5150    0.9220 O   0  0  0  0  0  0  0  0  0  0  0  0
    3.3620    2.7720   -0.1460 O   0  0  0  0  0  0  0  0  0  0  0  0
  1  2  1  0
  2  3  1  0
  2  9  1  0
  3  4  2  0
  3  5  1  0
  5  6  1  0
  6  7  1  0
  7  8  2  0
  7  9  1  0
  9 10  2  3
 10 11  1  0
 11 12  1  0
 12 13  2  0
 12 16  1  0
 13 14  1  0
 14 15  1  0
 15 16  2  0
 16 17  1  0
 17 18  1  0
 18 19  1  0
 18 20  1  0
M  END
