
     RDKit          3D

 19 20  0  0  0  0  0  0  0  0999 V2000
    1.4780   -0.2560   -1.4220 N   0  0  0  0  0  0  0  0  0  0  0  0
    1.3540   -0.5480   -0.1890 C   0  0  0  0  0  0  0  0  0  0  0  0
    2.4270   -0.2570    0.7700 C   0  0  0  0  0  0  0  0  0  0  0  0
    3.6280    0.3950    0.1490 C   0  0  0  0  0  0  0  0  0  0  0  0
    3.2320    2.0070   -0.6510 P   0  0  0  0  0  0  0  0  0  0  0  0
    4.7220    2.8000   -1.0630 O   0  0  0  0  0  0  0  0  0  0  0  0
    2.3350    3.0450    0.3780 O   0  0  0  0  0  0  0  0  0  0  0  0
    0.1690   -1.1620    0.2740 N   0  0  0  0  0  0  0  0  0  0  0  0
    0.1570   -2.3280    1.1260 C   0  0  0  0  0  0  0  0  0  0  0  0
   -0.9250   -3.2190    0.6730 C   0  0  0  0  0  0  0  0  0  0  0  0
   -0.7600   -4.4460    0.6370 O   0  0  0  0  0  0  0  0  0  0  0  0
   -2.1550   -2.6460    0.2790 N   0  0  0  0  0  0  0  0  0  0  0  0
   -2.2250   -1.2650   -0.1360 C   0  0  0  0  0  0  0  0  0  0  0  0
   -1.0820   -0.6060   -0.1180 C   0  0  0  0  0  0  0  0  0  0  0  0
   -1.8080    0.5460   -0.5870 N   0  0  0  0  0  0  0  0  0  0  0  0
   -2.9320   -0.0890   -0.6090 C   0  0  0  0  0  0  0  0  0  0  0  0
   -4.2970    0.1500   -0.9290 N   0  0  0  0  0  0  0  0  0  0  0  0
   -4.8360    1.2880   -0.7710 C   0  0  0  0  0  0  0  0  0  0  0  0
   -4.0920    2.3750   -0.2640 N   0  0  0  0  0  0  0  0  0  0  0  0
  1  2  2  0
  2  3  1  0
  2  8  1  0
  3  4  1  0
  4  5  1  0
  5  6  1  0
  5  7  1  0
  8  9  1  0
  8 14  1  0
  9 10  1  0
 10 11  2  0
 10 12  1  0
 12 13  1  0
 13 14  2  0
 13 16  1  0
 14 15  1  0
 15 16  2  0
 16 17  1  0
 17 18  2  3
 18 19  1  0
M  END
