
     RDKit          3D

 16 18  0  0  0  0  0  0  0  0999 V2000
    2.5280    2.0840    0.1810 C   0  0  0  0  0  0  0  0  0  0  0  0
    1.2180    1.3990    0.1420 C   0  0  0  0  0  0  0  0  0  0  0  0
    0.0370    2.0190    0.2800 N   0  0  0  0  0  0  0  0  0  0  0  0
   -1.1400    1.3400    0.2360 C   0  0  0  0  0  0  0  0  0  0  0  0
   -2.4270    2.0750    0.3940 C   0  0  0  0  0  0  0  0  0  0  0  0
   -1.1730   -0.0240    0.0470 C   0  0  0  0  0  0  0  0  0  0  0  0
   -2.3750   -0.7090    0.0030 C   0  0  0  0  0  0  0  0  0  0  0  0
   -3.4750   -0.0990    0.1360 O   0  0  0  0  0  0  0  0  0  0  0  0
   -2.3290   -2.0430   -0.1860 N   0  0  0  0  0  0  0  0  0  0  0  0
   -1.1730   -2.7130   -0.3290 C   0  0  0  0  0  0  0  0  0  0  0  0
    0.0340   -2.0660   -0.2910 C   0  0  0  0  0  0  0  0  0  0  0  0
    1.2520   -2.6970   -0.4320 O   0  0  0  0  0  0  0  0  0  0  0  0
    2.4670   -2.0310   -0.3920 C   0  0  0  0  0  0  0  0  0  0  0  0
    2.4570   -0.7320   -0.2090 C   0  0  0  0  0  0  0  0  0  0  0  0
    1.2040    0.0220   -0.0500 C   0  0  0  0  0  0  0  0  0  0  0  0
    0.0270   -0.6910   -0.0990 C   0  0  0  0  0  0  0  0  0  0  0  0
  1  2  1  0
  2  3  2  0
  2 15  1  0
  3  4  1  0
  4  5  1  0
  4  6  2  0
  6  7  1  0
  6 16  1  0
  7  8  2  0
  7  9  1  0
  9 10  1  0
 10 11  2  0
 11 12  1  0
 11 16  1  0
 12 13  1  0
 13 14  2  0
 14 15  1  0
 15 16  2  0
M  END
