
     RDKit          3D

 16 18  0  0  0  0  0  0  0  0999 V2000
    4.6130   -1.0450   -0.6400 O   0  0  0  0  0  0  0  0  0  0  0  0
    3.5300   -0.2480   -0.2860 C   0  0  0  0  0  0  0  0  0  0  0  0
    3.7020    1.0310    0.2000 C   0  0  0  0  0  0  0  0  0  0  0  0
    2.6510    1.8450    0.5600 C   0  0  0  0  0  0  0  0  0  0  0  0
    1.3550    1.3930    0.4420 C   0  0  0  0  0  0  0  0  0  0  0  0
    0.2900    2.1430    0.7780 N   0  0  0  0  0  0  0  0  0  0  0  0
   -0.9480    1.6790    0.6520 N   0  0  0  0  0  0  0  0  0  0  0  0
   -1.2070    0.4450    0.1880 C   0  0  0  0  0  0  0  0  0  0  0  0
   -2.5850   -0.0440    0.0590 C   0  0  0  0  0  0  0  0  0  0  0  0
   -3.0100   -1.2670   -0.3940 C   0  0  0  0  0  0  0  0  0  0  0  0
   -4.3720   -1.2740   -0.3380 C   0  0  0  0  0  0  0  0  0  0  0  0
   -4.7480   -0.0510    0.1500 C   0  0  0  0  0  0  0  0  0  0  0  0
   -3.6640    0.6310    0.3660 O   0  0  0  0  0  0  0  0  0  0  0  0
   -0.1300   -0.3410   -0.1620 C   0  0  0  0  0  0  0  0  0  0  0  0
    1.1780    0.1160   -0.0430 C   0  0  0  0  0  0  0  0  0  0  0  0
    2.2310   -0.7070   -0.4060 C   0  0  0  0  0  0  0  0  0  0  0  0
  1  2  1  0
  2  3  2  0
  2 16  1  0
  3  4  1  0
  4  5  2  0
  5  6  1  0
  5 15  1  0
  6  7  2  0
  7  8  1  0
  8  9  1  0
  8 14  2  0
  9 10  2  0
  9 13  1  0
 10 11  1  0
 11 12  2  0
 12 13  1  0
 14 15  1  0
 15 16  2  0
M  END
