
     RDKit          3D

 15 16  0  0  0  0  0  0  0  0999 V2000
   -3.7970   -0.1110    0.4630 C   0  0  0  0  0  0  0  0  0  0  0  0
   -2.6360   -0.2680   -0.3920 N   0  0  0  0  0  0  0  0  0  0  0  0
   -2.7980   -1.0450   -1.6040 C   0  0  0  0  0  0  0  0  0  0  0  0
   -1.4070    0.3380   -0.0140 C   0  0  0  0  0  0  0  0  0  0  0  0
   -0.2690   -0.2710   -0.1240 N   0  0  0  0  0  0  0  0  0  0  0  0
    0.9480    0.3220    0.2490 C   0  0  0  0  0  0  0  0  0  0  0  0
    2.1270   -0.3010    0.1380 C   0  0  0  0  0  0  0  0  0  0  0  0
    2.3860   -1.6460   -0.3620 C   0  0  0  0  0  0  0  0  0  0  0  0
    3.7000   -1.8760   -0.3020 C   0  0  0  0  0  0  0  0  0  0  0  0
    4.3660   -0.6970    0.2380 C   0  0  0  0  0  0  0  0  0  0  0  0
    3.4330    0.2350    0.4980 C   0  0  0  0  0  0  0  0  0  0  0  0
    3.6450    1.4900    1.0170 O   0  0  0  0  0  0  0  0  0  0  0  0
    0.9180    1.6150    0.7550 O   0  0  0  0  0  0  0  0  0  0  0  0
   -0.2780    2.3070    0.8910 C   0  0  0  0  0  0  0  0  0  0  0  0
   -1.3950    1.6980    0.5230 C   0  0  0  0  0  0  0  0  0  0  0  0
  1  2  1  0
  2  3  1  0
  2  4  1  0
  4  5  2  0
  4 15  1  0
  5  6  1  0
  6  7  2  3
  6 13  1  0
  7  8  1  0
  7 11  1  0
  8  9  2  0
  9 10  1  0
 10 11  2  0
 11 12  1  0
 13 14  1  0
 14 15  2  0
M  END
