
     RDKit          3D

 16 18  0  0  0  0  0  0  0  0999 V2000
    2.7900   -0.9670   -1.2690 C   0  0  0  0  0  0  0  0  0  0  0  0
    2.1240   -0.8550    0.0310 C   0  0  0  0  0  0  0  0  0  0  0  0
    2.4180   -1.7410    1.1370 N   0  0  0  0  0  0  0  0  0  0  0  0
    1.6870   -1.1410    2.2350 N   0  0  0  0  0  0  0  0  0  0  0  0
    1.0150   -0.0170    1.7850 C   0  0  0  0  0  0  0  0  0  0  0  0
    1.2560    0.0650    0.4370 C   0  0  0  0  0  0  0  0  0  0  0  0
    0.2850    0.7600   -0.3670 C   0  0  2  0  0  0  0  0  0  0  0  0
    0.1070    2.2130   -0.4040 C   0  0  0  0  0  0  0  0  0  0  0  0
   -1.1120    2.7490    0.2700 C   0  0  0  0  0  0  0  0  0  0  0  0
   -1.1260    3.8640    0.8730 O   0  0  0  0  0  0  0  0  0  0  0  0
   -2.3230    1.9760    0.3040 O   0  0  0  0  0  0  0  0  0  0  0  0
   -2.3110    0.6760    0.0330 C   0  0  0  0  0  0  0  0  0  0  0  0
   -3.3190   -0.2020   -0.0730 C   0  0  0  0  0  0  0  0  0  0  0  0
   -2.7360   -1.5320   -0.2480 C   0  0  0  0  0  0  0  0  0  0  0  0
   -1.2330   -1.2520   -0.5240 C   0  0  0  0  0  0  0  0  0  0  0  0
   -1.1110    0.0500   -0.2210 C   0  0  0  0  0  0  0  0  0  0  0  0
  1  2  1  0
  2  3  1  0
  2  6  2  0
  3  4  1  0
  4  5  2  0
  5  6  1  0
  7  6  1  1
  7  8  1  0
  7 16  1  0
  8  9  1  0
  9 10  2  0
  9 11  1  0
 11 12  1  0
 12 13  2  0
 12 16  1  0
 13 14  1  0
 14 15  1  0
 15 16  2  0
M  END
