
     RDKit          3D

 16 18  0  0  0  0  0  0  0  0999 V2000
    0.8640    2.9030    0.2610 O   0  0  0  0  0  0  0  0  0  0  0  0
   -0.0280    1.9840    0.2260 C   0  0  0  0  0  0  0  0  0  0  0  0
   -1.3500    2.2270    0.2970 N   0  0  0  0  0  0  0  0  0  0  0  0
   -2.0350    1.0940    0.2400 C   0  0  0  0  0  0  0  0  0  0  0  0
   -3.3830    0.7820    0.2520 C   0  0  0  0  0  0  0  0  0  0  0  0
   -3.8490   -0.5060    0.1530 C   0  0  0  0  0  0  0  0  0  0  0  0
   -2.9470   -1.5430    0.0350 C   0  0  0  0  0  0  0  0  0  0  0  0
   -1.5980   -1.2310    0.0230 C   0  0  0  0  0  0  0  0  0  0  0  0
   -1.1060    0.0520    0.1240 C   0  0  0  0  0  0  0  0  0  0  0  0
    0.1090    0.6500    0.1220 N   0  0  0  0  0  0  0  0  0  0  0  0
    1.3630    0.0020   -0.0480 C   0  0  0  0  0  0  0  0  0  0  0  0
    2.4110    0.6650   -0.5630 C   0  0  0  0  0  0  0  0  0  0  0  0
    3.7410    0.1060   -0.7820 C   0  0  0  0  0  0  0  0  0  0  0  0
    3.8750   -1.1660   -0.2490 O   0  0  0  0  0  0  0  0  0  0  0  0
    2.8370   -1.8820    0.2890 C   0  0  0  0  0  0  0  0  0  0  0  0
    1.6140   -1.3410    0.3980 C   0  0  0  0  0  0  0  0  0  0  0  0
  1  2  2  0
  2  3  1  0
  2 10  1  0
  3  4  1  0
  4  5  2  0
  4  9  1  0
  5  6  1  0
  6  7  2  0
  7  8  1  0
  8  9  2  0
  9 10  1  0
 10 11  1  0
 11 12  2  0
 11 16  1  0
 12 13  1  0
 13 14  1  0
 14 15  1  0
 15 16  2  0
M  END
