
     RDKit          3D

 16 17  0  0  0  0  0  0  0  0999 V2000
    6.1650    0.3210   -0.5600 C   0  0  0  0  0  0  0  0  0  0  0  0
    4.7020    0.0220   -0.3610 C   0  0  0  0  0  0  0  0  0  0  0  0
    3.7710    0.9610   -0.3250 C   0  0  0  0  0  0  0  0  0  0  0  0
    2.4650    0.2970   -0.1150 C   0  0  0  0  0  0  0  0  0  0  0  0
    1.3090    0.9270   -0.0280 C   0  0  0  0  0  0  0  0  0  0  0  0
    0.0760    0.1970    0.1780 C   0  0  0  0  0  0  0  0  0  0  0  0
   -1.0910    0.8590    0.2650 C   0  0  0  0  0  0  0  0  0  0  0  0
   -2.3370    0.2130    0.4650 N   0  0  0  0  0  0  0  0  0  0  0  0
   -3.2440    0.6110    1.5360 C   0  0  0  0  0  0  0  0  0  0  0  0
   -4.6650    0.7410    1.0240 C   0  0  0  0  0  0  0  0  0  0  0  0
   -4.8170    0.2020   -0.2410 O   0  0  0  0  0  0  0  0  0  0  0  0
   -4.2110   -1.0290   -0.3750 C   0  0  0  0  0  0  0  0  0  0  0  0
   -2.7060   -0.8610   -0.4150 C   0  0  0  0  0  0  0  0  0  0  0  0
    2.7980   -1.1170   -0.0420 C   0  0  0  0  0  0  0  0  0  0  0  0
    1.8920   -2.1560    0.1500 O   0  0  0  0  0  0  0  0  0  0  0  0
    4.0890   -1.2300   -0.1870 N   0  0  0  0  0  0  0  0  0  0  0  0
  1  2  1  0
  2  3  2  0
  2 16  1  0
  3  4  1  0
  4  5  2  3
  4 14  1  0
  5  6  1  0
  6  7  2  3
  7  8  1  0
  8  9  1  0
  8 13  1  0
  9 10  1  0
 10 11  1  0
 11 12  1  0
 12 13  1  0
 14 15  1  0
 14 16  2  0
M  END
