
     RDKit          3D

 33 35  0  0  0  0  0  0  0  0999 V2000
    3.6670   -1.2990   -3.7420 C   0  0  0  0  0  0  0  0  0  0  0  0
    4.7650   -1.3570   -2.8610 O   0  0  0  0  0  0  0  0  0  0  0  0
    4.6950   -1.0280   -1.5260 C   0  0  0  0  0  0  0  0  0  0  0  0
    3.5180   -0.6060   -0.9300 C   0  0  0  0  0  0  0  0  0  0  0  0
    3.4980   -0.2910    0.3970 C   0  0  0  0  0  0  0  0  0  0  0  0
    2.3470    0.1340    1.1000 N   0  0  0  0  0  0  0  0  0  0  0  0
    1.0150    0.1300    0.6710 C   0  0  0  0  0  0  0  0  0  0  0  0
    0.7710   -0.3110   -0.4890 O   0  0  0  0  0  0  0  0  0  0  0  0
   -0.1060    0.5910    1.4530 N   0  0  0  0  0  0  0  0  0  0  0  0
    0.1250    1.1860    2.7350 C   0  0  0  0  0  0  0  0  0  0  0  0
    0.2960    2.6880    2.7110 C   0  0  0  0  0  0  0  0  0  0  0  0
    1.3430    3.0820    1.8140 C   0  0  0  0  0  0  0  0  0  0  0  0
    2.2000    3.3940    1.1060 N   0  0  0  0  0  0  0  0  0  0  0  0
   -1.4260    0.4800    0.9420 C   0  0  0  0  0  0  0  0  0  0  0  0
   -2.1480    1.5670    0.4890 C   0  0  0  0  0  0  0  0  0  0  0  0
   -3.4160    1.4340   -0.0210 C   0  0  0  0  0  0  0  0  0  0  0  0
   -4.0560    0.2010   -0.1180 C   0  0  0  0  0  0  0  0  0  0  0  0
   -5.3350    0.0740   -0.7920 C   0  0  0  0  0  0  0  0  0  0  0  0
   -5.5580    0.7350   -2.0750 C   0  0  0  0  0  0  0  0  0  0  0  0
   -4.7230    1.4020   -2.7670 C   0  0  0  0  0  0  0  0  0  0  0  0
   -3.4380    1.7120   -2.5880 F   0  0  0  0  0  0  0  0  0  0  0  0
   -5.2580    1.9250   -3.9660 F   0  0  0  0  0  0  0  0  0  0  0  0
   -6.3410   -0.6400   -0.3020 C   0  0  0  0  0  0  0  0  0  0  0  0
   -6.2620   -1.3620    0.9700 C   0  0  0  0  0  0  0  0  0  0  0  0
   -6.4420   -2.7460    0.8350 O   0  0  0  0  0  0  0  0  0  0  0  0
   -3.3450   -0.8980    0.3340 C   0  0  0  0  0  0  0  0  0  0  0  0
   -2.0760   -0.7290    0.8410 C   0  0  0  0  0  0  0  0  0  0  0  0
    4.7120   -0.4140    1.1160 C   0  0  0  0  0  0  0  0  0  0  0  0
    5.8700   -0.8250    0.5440 C   0  0  0  0  0  0  0  0  0  0  0  0
    5.8650   -1.1360   -0.7910 C   0  0  0  0  0  0  0  0  0  0  0  0
    7.1620   -1.5300   -1.1400 O   0  0  0  0  0  0  0  0  0  0  0  0
    8.0300   -1.1470   -0.0770 C   0  0  0  0  0  0  0  0  0  0  0  0
    7.1630   -1.0210    1.0290 O   0  0  0  0  0  0  0  0  0  0  0  0
  1  2  1  0
  2  3  1  0
  3  4  2  0
  3 30  1  0
  4  5  1  0
  5  6  1  0
  5 28  2  0
  6  7  1  0
  7  8  2  0
  7  9  1  0
  9 10  1  0
  9 14  1  0
 10 11  1  0
 11 12  1  0
 12 13  3  0
 14 15  2  0
 14 27  1  0
 15 16  1  0
 16 17  2  0
 17 18  1  0
 17 26  1  0
 18 19  1  0
 18 23  2  3
 19 20  2  3
 20 21  1  0
 20 22  1  0
 23 24  1  0
 24 25  1  0
 26 27  2  0
 28 29  1  0
 29 30  2  0
 29 33  1  0
 30 31  1  0
 31 32  1  0
 32 33  1  0
M  END
