
     RDKit          3D

 34 36  0  0  0  0  0  0  0  0999 V2000
   -0.2240    5.1800    0.3870 C   0  0  0  0  0  0  0  0  0  0  0  0
   -1.5350    4.8790   -0.0310 O   0  0  0  0  0  0  0  0  0  0  0  0
   -1.9340    3.5600   -0.1630 C   0  0  0  0  0  0  0  0  0  0  0  0
   -1.0400    2.5440    0.1170 C   0  0  0  0  0  0  0  0  0  0  0  0
   -1.3780    1.1940    0.0040 C   0  0  0  0  0  0  0  0  0  0  0  0
   -0.4380    0.2200    0.4020 N   0  0  0  0  0  0  0  0  0  0  0  0
    0.9450    0.3630    0.5640 C   0  0  0  0  0  0  0  0  0  0  0  0
    1.5050    1.4350    0.3360 O   0  0  0  0  0  0  0  0  0  0  0  0
    1.7880   -0.7140    1.0010 N   0  0  0  0  0  0  0  0  0  0  0  0
    3.2150   -0.5970    1.1710 C   0  0  0  0  0  0  0  0  0  0  0  0
    3.8370   -0.2570   -0.1580 C   0  0  0  0  0  0  0  0  0  0  0  0
    5.2520   -0.1360   -0.0480 O   0  0  0  0  0  0  0  0  0  0  0  0
    5.9210   -1.2610    0.3900 C   0  0  0  0  0  0  0  0  0  0  0  0
    5.9570   -2.3570   -0.3180 C   0  0  0  0  0  0  0  0  0  0  0  0
    6.6430   -3.6050    0.0670 C   0  0  1  0  0  0  0  0  0  0  0  0
    7.5820   -3.8920   -0.9140 F   0  0  0  0  0  0  0  0  0  0  0  0
    7.2680   -3.4920    1.3050 O   0  0  0  0  0  0  0  0  0  0  0  0
    7.2550   -2.3650    2.0750 C   0  0  0  0  0  0  0  0  0  0  0  0
    6.6150   -1.2670    1.6690 C   0  0  0  0  0  0  0  0  0  0  0  0
    6.6260   -0.1700    2.4610 F   0  0  0  0  0  0  0  0  0  0  0  0
   -2.6640    0.9090   -0.4070 C   0  0  0  0  0  0  0  0  0  0  0  0
   -3.0620   -0.4420   -0.6770 C   0  0  0  0  0  0  0  0  0  0  0  0
   -2.2190   -1.3690   -0.6850 O   0  0  0  0  0  0  0  0  0  0  0  0
   -4.4340   -0.8380   -0.9550 C   0  0  0  0  0  0  0  0  0  0  0  0
   -4.6770   -1.8230   -1.9090 C   0  0  0  0  0  0  0  0  0  0  0  0
   -5.9290   -2.2870   -2.1730 C   0  0  0  0  0  0  0  0  0  0  0  0
   -6.9970   -1.7620   -1.4670 C   0  0  0  0  0  0  0  0  0  0  0  0
   -6.8200   -0.7890   -0.5130 C   0  0  0  0  0  0  0  0  0  0  0  0
   -7.9630   -0.2950    0.1900 C   0  0  0  0  0  0  0  0  0  0  0  0
   -8.8930    0.1310    0.7680 N   0  0  0  0  0  0  0  0  0  0  0  0
   -5.5210   -0.3520   -0.2850 C   0  0  0  0  0  0  0  0  0  0  0  0
   -3.5580    1.9290   -0.6850 C   0  0  0  0  0  0  0  0  0  0  0  0
   -3.2070    3.2610   -0.5670 C   0  0  0  0  0  0  0  0  0  0  0  0
   -4.0850    4.2640   -0.8400 F   0  0  0  0  0  0  0  0  0  0  0  0
  1  2  1  0
  2  3  1  0
  3  4  2  0
  3 33  1  0
  4  5  1  0
  5  6  1  0
  5 21  2  0
  6  7  1  0
  7  8  2  0
  7  9  1  0
  9 10  1  0
 10 11  1  0
 11 12  1  0
 12 13  1  0
 13 14  2  0
 13 19  1  0
 14 15  1  0
 15 16  1  6
 15 17  1  0
 17 18  1  0
 18 19  2  0
 19 20  1  0
 21 22  1  0
 21 32  1  0
 22 23  2  0
 22 24  1  0
 24 25  2  0
 24 31  1  0
 25 26  1  0
 26 27  2  0
 27 28  1  0
 28 29  1  0
 28 31  2  0
 29 30  3  0
 32 33  2  0
 33 34  1  0
M  END
