
     RDKit          3D

 34 38  0  0  0  0  0  0  0  0999 V2000
   -1.4460    0.7040    3.2760 O   0  0  0  0  0  0  0  0  0  0  0  0
   -1.2690    0.0760    2.1790 C   0  0  0  0  0  0  0  0  0  0  0  0
   -2.4630   -0.5030    1.5440 C   0  0  1  0  0  0  0  0  0  0  0  0
   -3.6860   -0.3500    2.4390 C   0  0  0  0  0  0  0  0  0  0  0  0
   -4.8940   -0.8520    1.6470 C   0  0  0  0  0  0  0  0  0  0  0  0
   -5.0400   -0.0080    0.4760 N   0  0  0  0  0  0  0  0  0  0  0  0
   -6.1900   -0.1440   -0.3340 C   0  0  0  0  0  0  0  0  0  0  0  0
   -7.1570   -1.0840    0.0040 C   0  0  0  0  0  0  0  0  0  0  0  0
   -8.2760   -1.2150   -0.7840 C   0  0  0  0  0  0  0  0  0  0  0  0
   -8.4990   -0.4740   -1.8870 N   0  0  0  0  0  0  0  0  0  0  0  0
   -7.5870    0.4410   -2.2400 C   0  0  0  0  0  0  0  0  0  0  0  0
   -6.4450    0.5950   -1.4600 C   0  0  0  0  0  0  0  0  0  0  0  0
   -3.9870    0.9250    0.2140 C   0  0  0  0  0  0  0  0  0  0  0  0
   -2.6780    0.1380    0.1960 C   0  0  0  0  0  0  0  0  0  0  0  0
    0.0320   -0.0440    1.6170 N   0  0  0  0  0  0  0  0  0  0  0  0
    0.3240   -0.7440    0.3870 C   0  0  0  0  0  0  0  0  0  0  0  0
    0.9440    0.2220   -0.5630 C   0  0  0  0  0  0  0  0  0  0  0  0
    1.4670    1.4180   -0.0130 N   0  0  0  0  0  0  0  0  0  0  0  0
    2.6680    2.0330   -1.0860 S   0  0  2  0  0  0  0  0  0  0  0  0
    3.1960    3.3640   -0.5900 O   0  0  0  0  0  0  0  0  0  0  0  0
    2.0080    2.3360   -2.4210 O   0  0  0  0  0  0  0  0  0  0  0  0
    4.0070    0.9600   -1.3120 C   0  0  0  0  0  0  0  0  0  0  0  0
    3.9970    0.0420   -2.3350 C   0  0  0  0  0  0  0  0  0  0  0  0
    5.0650   -0.8090   -2.5090 C   0  0  0  0  0  0  0  0  0  0  0  0
    6.1120   -0.7060   -1.6420 C   0  0  0  0  0  0  0  0  0  0  0  0
    7.1920   -1.5610   -1.8130 C   0  0  0  0  0  0  0  0  0  0  0  0
    8.2770   -1.5000   -0.9670 C   0  0  0  0  0  0  0  0  0  0  0  0
    9.6140   -2.5900   -1.2140 Cl  0  0  0  0  0  0  0  0  0  0  0  0
    8.2660   -0.5680    0.0570 C   0  0  0  0  0  0  0  0  0  0  0  0
    7.2200    0.2920    0.2580 C   0  0  0  0  0  0  0  0  0  0  0  0
    6.1310    0.2140   -0.6110 C   0  0  0  0  0  0  0  0  0  0  0  0
    5.0720    1.0740   -0.4200 C   0  0  0  0  0  0  0  0  0  0  0  0
    2.0570    1.2930    1.2900 C   0  0  0  0  0  0  0  0  0  0  0  0
    1.1900    0.5490    2.2700 C   0  0  0  0  0  0  0  0  0  0  0  0
  1  2  2  0
  3  2  1  1
  2 15  1  0
  3  4  1  0
  3 14  1  0
  4  5  1  0
  5  6  1  0
  6  7  1  0
  6 13  1  0
  7  8  2  0
  7 12  1  0
  8  9  1  0
  9 10  2  0
 10 11  1  0
 11 12  2  0
 13 14  1  0
 15 16  1  0
 15 34  1  0
 16 17  1  0
 17 18  1  0
 19 18  1  1
 18 33  1  0
 19 20  2  0
 19 21  2  0
 19 22  1  0
 22 23  2  0
 22 32  1  0
 23 24  1  0
 24 25  2  0
 25 26  1  0
 25 31  1  0
 26 27  2  0
 27 28  1  0
 27 29  1  0
 29 30  2  0
 30 31  1  0
 31 32  2  0
 33 34  1  0
M  END
