
     RDKit          3D

 34 36  0  0  0  0  0  0  0  0999 V2000
   -8.0190    3.0130    0.9890 C   0  0  0  0  0  0  0  0  0  0  0  0
   -6.9450    2.0480    0.5360 C   0  0  0  0  0  0  0  0  0  0  0  0
   -7.4810    1.2690   -0.5540 N   0  0  0  0  0  0  0  0  0  0  0  0
   -6.6830    0.2760   -1.1780 C   0  0  0  0  0  0  0  0  0  0  0  0
   -7.1580   -0.4870   -2.2210 C   0  0  0  0  0  0  0  0  0  0  0  0
   -6.3460   -1.4500   -2.8060 C   0  0  0  0  0  0  0  0  0  0  0  0
   -6.8350   -2.2000   -3.8420 F   0  0  0  0  0  0  0  0  0  0  0  0
   -5.0830   -1.6170   -2.3270 C   0  0  0  0  0  0  0  0  0  0  0  0
   -4.5400   -0.8710   -1.2680 C   0  0  0  0  0  0  0  0  0  0  0  0
   -3.2090   -1.1290   -0.8590 N   0  0  0  0  0  0  0  0  0  0  0  0
   -2.5520   -0.5630    0.2480 C   0  0  0  0  0  0  0  0  0  0  0  0
   -3.1430    0.2490    0.9820 O   0  0  0  0  0  0  0  0  0  0  0  0
   -1.1650   -0.8880    0.5950 C   0  0  0  0  0  0  0  0  0  0  0  0
   -0.5440   -0.3240    1.6790 C   0  0  0  0  0  0  0  0  0  0  0  0
    0.7600   -0.6370    1.9970 C   0  0  0  0  0  0  0  0  0  0  0  0
    1.4160   -1.5460    1.1710 C   0  0  0  0  0  0  0  0  0  0  0  0
    2.7400   -1.8990    1.4480 O   0  0  0  0  0  0  0  0  0  0  0  0
    3.7710   -1.1650    0.8910 C   0  0  0  0  0  0  0  0  0  0  0  0
    3.4980   -0.0940    0.0690 C   0  0  0  0  0  0  0  0  0  0  0  0
    4.5550    0.6200   -0.4730 C   0  0  0  0  0  0  0  0  0  0  0  0
    5.8620    0.2960   -0.2190 C   0  0  0  0  0  0  0  0  0  0  0  0
    6.9640    1.0580   -0.7970 C   0  0  0  0  0  0  0  0  0  0  0  0
    8.1630    0.7730   -0.5720 O   0  0  0  0  0  0  0  0  0  0  0  0
    6.7280    2.1430   -1.6290 O   0  0  0  0  0  0  0  0  0  0  0  0
    7.7730    2.9000   -2.2040 C   0  0  0  0  0  0  0  0  0  0  0  0
    6.1610   -0.7880    0.6140 C   0  0  0  0  0  0  0  0  0  0  0  0
    7.4730   -1.1180    0.8720 O   0  0  0  0  0  0  0  0  0  0  0  0
    7.9040   -2.1700    1.6800 C   0  0  1  0  0  0  0  0  0  0  0  0
    8.6450   -3.0430    0.8630 F   0  0  0  0  0  0  0  0  0  0  0  0
    8.8370   -1.7360    2.6350 F   0  0  0  0  0  0  0  0  0  0  0  0
    5.1020   -1.4890    1.1450 C   0  0  0  0  0  0  0  0  0  0  0  0
    0.7800   -2.1050    0.0860 C   0  0  0  0  0  0  0  0  0  0  0  0
   -0.4920   -1.7580   -0.1690 N   0  0  0  0  0  0  0  0  0  0  0  0
   -5.3800    0.0590   -0.7320 C   0  0  0  0  0  0  0  0  0  0  0  0
  1  2  1  0
  2  3  1  0
  3  4  1  0
  4  5  2  0
  4 34  1  0
  5  6  1  0
  6  7  1  0
  6  8  2  0
  8  9  1  0
  9 10  1  0
  9 34  2  0
 10 11  1  0
 11 12  2  0
 11 13  1  0
 13 14  2  0
 13 33  1  0
 14 15  1  0
 15 16  2  0
 16 17  1  0
 16 32  1  0
 17 18  1  0
 18 19  2  0
 18 31  1  0
 19 20  1  0
 20 21  2  0
 21 22  1  0
 21 26  1  0
 22 23  2  0
 22 24  1  0
 24 25  1  0
 26 27  1  0
 26 31  2  0
 27 28  1  0
 28 29  1  6
 28 30  1  0
 32 33  2  0
M  END
