
     RDKit          3D

 34 36  0  0  0  0  0  0  0  0999 V2000
   -5.6170   -4.4480    0.0930 C   0  0  0  0  0  0  0  0  0  0  0  0
   -4.2810   -4.0120   -0.4790 C   0  0  0  0  0  0  0  0  0  0  0  0
   -3.7360   -4.8280   -1.2400 O   0  0  0  0  0  0  0  0  0  0  0  0
   -3.7430   -2.7440   -0.1300 N   0  0  0  0  0  0  0  0  0  0  0  0
   -2.4980   -2.2870   -0.6230 C   0  0  0  0  0  0  0  0  0  0  0  0
   -1.5810   -3.1310   -1.1750 C   0  0  0  0  0  0  0  0  0  0  0  0
   -0.3260   -2.7140   -1.6030 C   0  0  0  0  0  0  0  0  0  0  0  0
    0.0470   -1.4080   -1.4830 C   0  0  0  0  0  0  0  0  0  0  0  0
    1.3250   -0.9370   -1.8550 N   0  0  0  0  0  0  0  0  0  0  0  0
    2.2580   -1.6870   -2.5940 C   0  0  0  0  0  0  0  0  0  0  0  0
    1.9930   -2.8350   -2.9870 O   0  0  0  0  0  0  0  0  0  0  0  0
    3.6220   -1.0930   -2.9300 C   0  0  0  0  0  0  0  0  0  0  0  0
    3.7830    0.0130   -2.1200 O   0  0  0  0  0  0  0  0  0  0  0  0
    3.9180   -0.4090   -0.8020 C   0  0  0  0  0  0  0  0  0  0  0  0
    4.0300    0.8380    0.0720 C   0  0  0  0  0  0  0  0  0  0  0  0
    4.1800    0.4610    1.5310 C   0  0  2  0  0  0  0  0  0  0  0  0
    4.2820    1.7780    2.3000 C   0  0  0  0  0  0  0  0  0  0  0  0
    5.4440   -0.3320    1.6760 C   0  0  0  0  0  0  0  0  0  0  0  0
   -0.8770   -0.5030   -0.9160 C   0  0  0  0  0  0  0  0  0  0  0  0
   -0.4890    0.7850   -0.8280 N   0  0  0  0  0  0  0  0  0  0  0  0
   -1.3320    1.7280   -0.3100 C   0  0  0  0  0  0  0  0  0  0  0  0
   -0.9350    3.0570   -0.2170 C   0  0  0  0  0  0  0  0  0  0  0  0
   -1.8080    3.9850    0.3100 C   0  0  0  0  0  0  0  0  0  0  0  0
   -3.0590    3.6030    0.7410 C   0  0  0  0  0  0  0  0  0  0  0  0
   -3.9220    4.5360    1.2650 O   0  0  0  0  0  0  0  0  0  0  0  0
   -3.9540    4.8400    2.6570 C   0  0  2  0  0  0  0  0  0  0  0  0
   -2.7230    5.3040    3.0340 F   0  0  0  0  0  0  0  0  0  0  0  0
   -4.2100    3.6700    3.3430 F   0  0  0  0  0  0  0  0  0  0  0  0
   -4.9470    5.7410    2.9510 F   0  0  0  0  0  0  0  0  0  0  0  0
   -3.4300    2.2600    0.6350 C   0  0  0  0  0  0  0  0  0  0  0  0
   -2.5550    1.3120    0.1030 C   0  0  0  0  0  0  0  0  0  0  0  0
   -2.9760   -0.0080    0.0220 C   0  0  0  0  0  0  0  0  0  0  0  0
   -4.1130   -0.3020    0.4190 O   0  0  0  0  0  0  0  0  0  0  0  0
   -2.1270   -0.9490   -0.4970 C   0  0  0  0  0  0  0  0  0  0  0  0
  1  2  1  0
  2  3  2  0
  2  4  1  0
  4  5  1  0
  5  6  2  0
  5 34  1  0
  6  7  1  0
  7  8  2  0
  8  9  1  0
  8 19  1  0
  9 10  1  0
 10 11  2  0
 10 12  1  0
 12 13  1  0
 13 14  1  0
 14 15  1  0
 15 16  1  0
 16 17  1  1
 16 18  1  0
 19 20  1  0
 19 34  2  0
 20 21  1  0
 21 22  2  0
 21 31  1  0
 22 23  1  0
 23 24  2  0
 24 25  1  0
 24 30  1  0
 25 26  1  0
 26 27  1  1
 26 28  1  0
 26 29  1  0
 30 31  2  0
 31 32  1  0
 32 33  2  0
 32 34  1  0
M  END
