
     RDKit          3D

 34 36  0  0  0  0  0  0  0  0999 V2000
   -3.6410   -3.8990   -2.9500 C   0  0  0  0  0  0  0  0  0  0  0  0
   -2.6390   -2.9110   -2.5400 C   0  0  0  0  0  0  0  0  0  0  0  0
   -1.3150   -3.0270   -2.8730 N   0  0  0  0  0  0  0  0  0  0  0  0
   -0.6310   -2.0050   -2.3430 C   0  0  0  0  0  0  0  0  0  0  0  0
   -1.5680   -1.2360   -1.6610 C   0  0  0  0  0  0  0  0  0  0  0  0
   -1.4310   -0.0900   -0.9240 C   0  0  0  0  0  0  0  0  0  0  0  0
   -0.1180    0.5430   -0.7690 C   0  0  0  0  0  0  0  0  0  0  0  0
   -0.1110    1.5890   -0.0760 O   0  0  0  0  0  0  0  0  0  0  0  0
    0.9760    0.0200   -1.3380 O   0  0  0  0  0  0  0  0  0  0  0  0
    2.2780    0.4230   -1.3120 C   0  0  0  0  0  0  0  0  0  0  0  0
    2.9610    0.2710   -0.0230 C   0  0  0  0  0  0  0  0  0  0  0  0
    2.6530    0.8950    1.2380 C   0  0  0  0  0  0  0  0  0  0  0  0
    3.3950    0.6420    2.2660 O   0  0  0  0  0  0  0  0  0  0  0  0
    4.0520   -0.5420   -0.0050 C   0  0  0  0  0  0  0  0  0  0  0  0
    4.7480   -0.7320    1.1900 N   0  0  0  0  0  0  0  0  0  0  0  0
    5.9530   -0.0070    1.4940 C   0  0  0  0  0  0  0  0  0  0  0  0
    6.4840    0.9020    0.6260 C   0  0  0  0  0  0  0  0  0  0  0  0
    7.6330    1.5810    0.9380 C   0  0  0  0  0  0  0  0  0  0  0  0
    8.2850    1.3700    2.1300 C   0  0  0  0  0  0  0  0  0  0  0  0
    9.4290    2.0340    2.4610 F   0  0  0  0  0  0  0  0  0  0  0  0
    7.7420    0.4490    3.0020 C   0  0  0  0  0  0  0  0  0  0  0  0
    6.5850   -0.2300    2.6810 C   0  0  0  0  0  0  0  0  0  0  0  0
   -2.5540    0.4380   -0.3430 C   0  0  0  0  0  0  0  0  0  0  0  0
   -3.8290   -0.1390   -0.4710 C   0  0  0  0  0  0  0  0  0  0  0  0
   -4.9390    0.4680    0.2450 C   0  0  0  0  0  0  0  0  0  0  0  0
   -6.0090   -0.1150    0.4100 O   0  0  0  0  0  0  0  0  0  0  0  0
   -4.8430    1.7530    0.7840 O   0  0  0  0  0  0  0  0  0  0  0  0
   -5.9600    2.3220    1.4840 C   0  0  0  0  0  0  0  0  0  0  0  0
   -5.6250    3.7090    1.9720 C   0  0  2  0  0  0  0  0  0  0  0  0
   -6.7020    4.2360    2.6380 F   0  0  0  0  0  0  0  0  0  0  0  0
   -5.2490    4.5510    0.9480 F   0  0  0  0  0  0  0  0  0  0  0  0
   -3.9170   -1.2850   -1.2220 C   0  0  0  0  0  0  0  0  0  0  0  0
   -5.2510   -1.9250   -1.4810 C   0  0  0  0  0  0  0  0  0  0  0  0
   -2.8050   -1.8240   -1.8040 N   0  0  0  0  0  0  0  0  0  0  0  0
  1  2  1  0
  2  3  2  0
  2 34  1  0
  3  4  1  0
  4  5  2  0
  5  6  1  0
  5 34  1  0
  6  7  1  0
  6 23  2  0
  7  8  2  0
  7  9  1  0
  9 10  1  0
 10 11  1  0
 11 12  1  0
 11 14  2  3
 12 13  2  0
 14 15  1  0
 15 16  1  0
 16 17  2  0
 16 22  1  0
 17 18  1  0
 18 19  2  0
 19 20  1  0
 19 21  1  0
 21 22  2  0
 23 24  1  0
 24 25  1  0
 24 32  2  0
 25 26  2  0
 25 27  1  0
 27 28  1  0
 28 29  1  0
 29 30  1  6
 29 31  1  0
 32 33  1  0
 32 34  1  0
M  END
