
     RDKit          3D

 34 36  0  0  0  0  0  0  0  0999 V2000
    3.3540    3.9970    0.1260 C   0  0  0  0  0  0  0  0  0  0  0  0
    4.6250    3.2350    0.4760 C   0  0  0  0  0  0  0  0  0  0  0  0
    4.4720    1.7810    0.4360 C   0  0  0  0  0  0  0  0  0  0  0  0
    4.5910    1.0530   -0.6220 C   0  0  0  0  0  0  0  0  0  0  0  0
    4.4340   -0.4320   -0.5720 C   0  0  0  0  0  0  0  0  0  0  0  0
    5.3980   -1.2850   -0.8560 O   0  0  0  0  0  0  0  0  0  0  0  0
    4.9730   -2.5290   -0.7330 C   0  0  0  0  0  0  0  0  0  0  0  0
    5.7210   -3.8130   -0.9520 C   0  0  0  0  0  0  0  0  0  0  0  0
    3.6300   -2.4400   -0.3460 C   0  0  0  0  0  0  0  0  0  0  0  0
    3.2840   -1.1000   -0.2440 C   0  0  0  0  0  0  0  0  0  0  0  0
    1.9570   -0.5420    0.0250 C   0  0  0  0  0  0  0  0  0  0  0  0
    1.6660    0.6800    0.0600 O   0  0  0  0  0  0  0  0  0  0  0  0
    0.8950   -1.3980    0.2440 O   0  0  0  0  0  0  0  0  0  0  0  0
   -0.4180   -1.2210    0.4540 C   0  0  0  0  0  0  0  0  0  0  0  0
   -1.0820   -0.0460    0.7890 C   0  0  0  0  0  0  0  0  0  0  0  0
   -2.4180   -0.0030    0.9800 C   0  0  0  0  0  0  0  0  0  0  0  0
   -3.2030    1.1430    1.3600 N   0  0  0  0  0  0  0  0  0  0  0  0
   -4.4030    1.4510    0.6860 C   0  0  0  0  0  0  0  0  0  0  0  0
   -4.6620    0.7220   -0.3240 O   0  0  0  0  0  0  0  0  0  0  0  0
   -5.2860    2.4880    1.0700 N   0  0  0  0  0  0  0  0  0  0  0  0
   -6.5130    2.7360    0.2860 C   0  0  2  0  0  0  0  0  0  0  0  0
   -7.7670    3.1740    0.8640 C   0  0  0  0  0  0  0  0  0  0  0  0
   -7.5970    1.6950    0.6110 C   0  0  0  0  0  0  0  0  0  0  0  0
   -3.1410   -1.1790    0.8280 C   0  0  0  0  0  0  0  0  0  0  0  0
   -2.5650   -2.3920    0.4950 C   0  0  0  0  0  0  0  0  0  0  0  0
   -1.1900   -2.3940    0.3120 C   0  0  0  0  0  0  0  0  0  0  0  0
   -0.5680   -3.5980   -0.0090 O   0  0  0  0  0  0  0  0  0  0  0  0
   -1.4110   -4.8120   -0.0150 C   0  0  0  0  0  0  0  0  0  0  0  0
   -1.8480   -5.0660    1.2330 C   0  0  0  0  0  0  0  0  0  0  0  0
   -2.3020   -5.3250    2.4600 N   0  0  0  0  0  0  0  0  0  0  0  0
    4.9440    1.6460   -1.9450 C   0  0  1  0  0  0  0  0  0  0  0  0
    3.8760    1.7710   -2.7930 F   0  0  0  0  0  0  0  0  0  0  0  0
    5.7410    2.7360   -1.9000 F   0  0  0  0  0  0  0  0  0  0  0  0
    5.7530    0.6310   -2.5680 F   0  0  0  0  0  0  0  0  0  0  0  0
  1  2  1  0
  2  3  1  0
  3  4  2  3
  4  5  1  0
  4 31  1  0
  5  6  1  0
  5 10  2  0
  6  7  1  0
  7  8  1  0
  7  9  2  0
  9 10  1  0
 10 11  1  0
 11 12  2  0
 11 13  1  0
 13 14  1  0
 14 15  2  0
 14 26  1  0
 15 16  1  0
 16 17  1  0
 16 24  2  0
 17 18  1  0
 18 19  2  0
 18 20  1  0
 21 20  1  1
 21 22  1  0
 21 23  1  0
 22 23  1  0
 24 25  1  0
 25 26  2  0
 26 27  1  0
 27 28  1  0
 28 29  1  0
 29 30  3  0
 31 32  1  6
 31 33  1  0
 31 34  1  0
M  END
