
     RDKit          3D

 34 36  0  0  0  0  0  0  0  0999 V2000
    8.5490   -1.3630    0.1380 C   0  0  0  0  0  0  0  0  0  0  0  0
    7.6650   -0.2080    0.5450 C   0  0  0  0  0  0  0  0  0  0  0  0
    6.2630   -0.5170    0.1740 C   0  0  0  0  0  0  0  0  0  0  0  0
    5.6640   -1.5960    0.8830 C   0  0  0  0  0  0  0  0  0  0  0  0
    4.3370   -1.9060    0.5590 C   0  0  0  0  0  0  0  0  0  0  0  0
    3.6830   -1.2040   -0.3770 C   0  0  0  0  0  0  0  0  0  0  0  0
    2.2440   -1.3280   -0.3990 N   0  0  0  0  0  0  0  0  0  0  0  0
    1.5730   -0.0630   -0.1120 C   0  0  0  0  0  0  0  0  0  0  0  0
    2.4590    0.8990    0.0500 O   0  0  0  0  0  0  0  0  0  0  0  0
    0.1970    0.2630    0.0340 C   0  0  0  0  0  0  0  0  0  0  0  0
   -0.0030    1.4620    0.7480 C   0  0  0  0  0  0  0  0  0  0  0  0
   -1.2750    1.8870    1.0180 C   0  0  0  0  0  0  0  0  0  0  0  0
   -2.2490    1.1150    0.5700 N   0  0  0  0  0  0  0  0  0  0  0  0
   -2.0940   -0.0350   -0.1180 C   0  0  0  0  0  0  0  0  0  0  0  0
   -3.2700   -0.6880   -0.5090 O   0  0  0  0  0  0  0  0  0  0  0  0
   -4.4500    0.0370   -0.2700 C   0  0  0  0  0  0  0  0  0  0  0  0
   -4.4440    1.3730   -0.3760 C   0  0  0  0  0  0  0  0  0  0  0  0
   -5.6040    2.1500   -0.1150 C   0  0  0  0  0  0  0  0  0  0  0  0
   -5.5600    3.5110   -0.2440 O   0  0  0  0  0  0  0  0  0  0  0  0
   -6.6130    4.3540    0.0090 C   0  0  0  0  0  0  0  0  0  0  0  0
   -6.7470    1.4780    0.2520 C   0  0  0  0  0  0  0  0  0  0  0  0
   -6.7400    0.1010    0.3500 C   0  0  0  0  0  0  0  0  0  0  0  0
   -5.6210   -0.6700    0.1030 C   0  0  0  0  0  0  0  0  0  0  0  0
   -5.4780   -1.9990    0.1770 O   0  0  0  0  0  0  0  0  0  0  0  0
   -6.3300   -3.0050    0.5090 C   0  0  0  0  0  0  0  0  0  0  0  0
   -5.4650   -4.2950    0.3520 C   0  0  1  0  0  0  0  0  0  0  0  0
   -5.0940   -4.2680   -0.9860 F   0  0  0  0  0  0  0  0  0  0  0  0
   -4.3950   -4.1550    1.2000 F   0  0  0  0  0  0  0  0  0  0  0  0
   -6.2540   -5.3570    0.6010 F   0  0  0  0  0  0  0  0  0  0  0  0
   -0.8460   -0.4500   -0.3820 N   0  0  0  0  0  0  0  0  0  0  0  0
    4.3070   -0.1910   -1.0450 C   0  0  0  0  0  0  0  0  0  0  0  0
    5.6280    0.2000   -0.7900 C   0  0  0  0  0  0  0  0  0  0  0  0
    6.0950    1.4340   -1.4090 C   0  0  0  0  0  0  0  0  0  0  0  0
    7.3030    1.4230   -2.0540 O   0  0  0  0  0  0  0  0  0  0  0  0
  1  2  1  0
  2  3  1  0
  3  4  2  0
  3 32  1  0
  4  5  1  0
  5  6  2  0
  6  7  1  0
  6 31  1  0
  7  8  1  0
  8  9  2  0
  8 10  1  0
 10 11  2  0
 10 30  1  0
 11 12  1  0
 12 13  2  0
 13 14  1  0
 14 15  1  0
 14 30  2  0
 15 16  1  0
 16 17  2  0
 16 23  1  0
 17 18  1  0
 18 19  1  0
 18 21  2  0
 19 20  1  0
 21 22  1  0
 22 23  2  0
 23 24  1  0
 24 25  1  0
 25 26  1  0
 26 27  1  6
 26 28  1  0
 26 29  1  0
 31 32  2  0
 32 33  1  0
 33 34  1  0
M  END
