
     RDKit          3D

 34 36  0  0  0  0  0  0  0  0999 V2000
   -5.9260   -4.8300    1.2610 C   0  0  0  0  0  0  0  0  0  0  0  0
   -4.5250   -4.3630    0.9680 C   0  0  0  0  0  0  0  0  0  0  0  0
   -3.6420   -5.2160    0.8820 O   0  0  0  0  0  0  0  0  0  0  0  0
   -4.2630   -2.9780    0.8030 N   0  0  0  0  0  0  0  0  0  0  0  0
   -3.0190   -2.4030    0.5390 C   0  0  0  0  0  0  0  0  0  0  0  0
   -1.8640   -3.1020    0.7280 C   0  0  0  0  0  0  0  0  0  0  0  0
   -0.6190   -2.5010    0.5260 C   0  0  0  0  0  0  0  0  0  0  0  0
   -0.4540   -1.2020    0.1340 C   0  0  0  0  0  0  0  0  0  0  0  0
    0.8020   -0.5880   -0.0590 N   0  0  0  0  0  0  0  0  0  0  0  0
    2.0200   -1.2830    0.0790 C   0  0  0  0  0  0  0  0  0  0  0  0
    2.1330   -2.4680    0.3720 O   0  0  0  0  0  0  0  0  0  0  0  0
    3.2970   -0.4950   -0.1560 C   0  0  0  0  0  0  0  0  0  0  0  0
    4.3500   -1.3540    0.0280 O   0  0  0  0  0  0  0  0  0  0  0  0
    5.5550   -0.7600   -0.1960 C   0  0  0  0  0  0  0  0  0  0  0  0
    5.7830    0.3910    0.7320 C   0  0  0  0  0  0  0  0  0  0  0  0
    7.1590    0.9610    0.4180 C   0  0  1  0  0  0  0  0  0  0  0  0
    7.4060    2.1400    1.3610 C   0  0  0  0  0  0  0  0  0  0  0  0
    8.2160   -0.1000    0.6010 C   0  0  0  0  0  0  0  0  0  0  0  0
   -1.6500   -0.4920   -0.0580 C   0  0  0  0  0  0  0  0  0  0  0  0
   -1.5500    0.7970   -0.4620 N   0  0  0  0  0  0  0  0  0  0  0  0
   -2.6290    1.5780   -0.6940 C   0  0  0  0  0  0  0  0  0  0  0  0
   -2.4360    2.8760   -1.1000 C   0  0  0  0  0  0  0  0  0  0  0  0
   -3.5710    3.6630   -1.3340 C   0  0  0  0  0  0  0  0  0  0  0  0
   -4.8420    3.1560   -1.1630 C   0  0  0  0  0  0  0  0  0  0  0  0
   -5.9540    3.9610   -1.4020 O   0  0  0  0  0  0  0  0  0  0  0  0
   -6.5610    4.7570   -0.4180 C   0  0  2  0  0  0  0  0  0  0  0  0
   -5.6930    5.6910    0.1070 F   0  0  0  0  0  0  0  0  0  0  0  0
   -7.0220    3.9640    0.6290 F   0  0  0  0  0  0  0  0  0  0  0  0
   -7.6620    5.3640   -0.9970 F   0  0  0  0  0  0  0  0  0  0  0  0
   -4.9570    1.8470   -0.7540 C   0  0  0  0  0  0  0  0  0  0  0  0
   -3.8550    1.0270   -0.5090 C   0  0  0  0  0  0  0  0  0  0  0  0
   -4.0030   -0.2920   -0.0960 C   0  0  0  0  0  0  0  0  0  0  0  0
   -5.1710   -0.6910    0.0370 O   0  0  0  0  0  0  0  0  0  0  0  0
   -2.9120   -1.0850    0.1410 C   0  0  0  0  0  0  0  0  0  0  0  0
  1  2  1  0
  2  3  2  0
  2  4  1  0
  4  5  1  0
  5  6  2  0
  5 34  1  0
  6  7  1  0
  7  8  2  0
  8  9  1  0
  8 19  1  0
  9 10  1  0
 10 11  2  0
 10 12  1  0
 12 13  1  0
 13 14  1  0
 14 15  1  0
 15 16  1  0
 16 17  1  1
 16 18  1  0
 19 20  1  0
 19 34  2  0
 20 21  1  0
 21 22  2  0
 21 31  1  0
 22 23  1  0
 23 24  2  0
 24 25  1  0
 24 30  1  0
 25 26  1  0
 26 27  1  1
 26 28  1  0
 26 29  1  0
 30 31  2  0
 31 32  1  0
 32 33  2  0
 32 34  1  0
M  END
