
     RDKit          3D

  8  7  0  0  0  0  0  0  0  0999 V2000
   -2.5750    0.3130   -0.3280 N   0  0  0  0  0  0  0  0  0  0  0  0
   -1.1490    0.5170   -0.2330 C   0  0  0  0  0  0  0  0  0  0  0  0
   -0.5590   -0.4020    0.8170 C   0  0  0  0  0  0  0  0  0  0  0  0
    0.7920   -0.2700    0.9690 O   0  0  0  0  0  0  0  0  0  0  0  0
    1.5610   -0.5260   -0.1300 C   0  0  2  0  0  0  0  0  0  0  0  0
    2.5380   -1.5040    0.1000 O   0  0  0  0  0  0  0  0  0  0  0  0
    2.3290    0.7410   -0.4250 C   0  0  0  0  0  0  0  0  0  0  0  0
    2.4970    1.2360   -1.7390 S   0  0  0  0  0  0  0  0  0  0  0  0
  1  2  1  0
  2  3  1  0
  3  4  1  0
  4  5  1  0
  5  6  1  1
  5  7  1  0
  7  8  2  0
M  CHG  1   1   1
M  END
