
     RDKit          3D

  8  7  0  0  0  0  0  0  0  0999 V2000
    0.2930    1.8010   -0.5960 N   0  0  0  0  0  0  0  0  0  0  0  0
    0.5060    0.5550    0.0180 C   0  0  0  0  0  0  0  0  0  0  0  0
    1.7880    0.3640    0.7340 C   0  0  0  0  0  0  0  0  0  0  0  0
    1.9450   -1.2800    1.4820 S   0  0  0  0  0  0  0  0  0  0  0  0
   -0.3710   -0.4350   -0.0150 C   0  0  0  0  0  0  0  0  0  0  0  0
   -0.1590   -1.6630    0.5910 O   0  0  0  0  0  0  0  0  0  0  0  0
   -1.6810   -0.2960   -0.7230 C   0  0  0  0  0  0  0  0  0  0  0  0
   -2.7460   -0.4750    0.1790 O   0  0  0  0  0  0  0  0  0  0  0  0
  1  2  1  0
  2  3  1  0
  2  5  2  3
  3  4  1  0
  5  6  1  0
  5  7  1  0
  7  8  1  0
M  END
