
     RDKit          3D

  6  5  0  0  0  0  0  0  0  0999 V2000
   -1.7300   -0.0200    0.2910 C   0  0  0  0  0  0  0  0  0  0  0  0
   -0.3990   -0.2770   -0.2990 C   0  0  0  0  0  0  0  0  0  0  0  0
   -0.3190   -1.0070   -1.3040 O   0  0  0  0  0  0  0  0  0  0  0  0
    0.8090    0.2860    0.2470 C   0  0  0  0  0  0  0  0  0  0  0  0
    2.0530   -0.0010   -0.3670 N   0  0  0  0  0  0  0  0  0  0  0  0
    0.7760    1.0400    1.2770 O   0  0  0  0  0  0  0  0  0  0  0  0
  1  2  1  0
  2  3  2  0
  2  4  1  0
  4  5  1  0
  4  6  2  0
M  END
