
     RDKit          3D

  8  7  0  0  0  0  0  0  0  0999 V2000
   -1.1130   -1.5190    0.1810 C   0  0  0  0  0  0  0  0  0  0  0  0
   -1.0530   -0.0340   -0.0780 C   0  0  1  0  0  0  0  0  0  0  0  0
    0.5160    0.4180   -0.8540 S   0  0  0  0  0  0  0  0  0  0  0  0
    1.7560    0.7520    0.4290 C   0  0  0  0  0  0  0  0  0  0  0  0
    3.0360    0.1280    0.1100 N   0  0  0  0  0  0  0  0  0  0  0  0
   -2.2220    0.4400   -0.8410 C   0  0  0  0  0  0  0  0  0  0  0  0
   -2.1860    0.7990   -2.0360 O   0  0  0  0  0  0  0  0  0  0  0  0
   -3.4500    0.4750   -0.1760 O   0  0  0  0  0  0  0  0  0  0  0  0
  2  1  1  6
  2  3  1  0
  2  6  1  0
  3  4  1  0
  4  5  1  0
  6  7  2  0
  6  8  1  0
M  CHG  1   5   1
M  END
