
     RDKit          3D

  8  7  0  0  0  0  0  0  0  0999 V2000
   -2.6610    1.3060   -0.0730 C   0  0  0  0  0  0  0  0  0  0  0  0
   -1.3040    1.2080    0.1820 O   0  0  0  0  0  0  0  0  0  0  0  0
   -1.0070   -0.1480    0.2990 C   0  0  0  0  0  0  0  0  0  0  0  0
    0.4800   -0.3470    0.5800 C   0  0  1  0  0  0  0  0  0  0  0  0
    0.7210   -1.7780    0.6900 N   0  0  0  0  0  0  0  0  0  0  0  0
    1.2100    0.1430   -0.6580 C   0  0  0  0  0  0  0  0  0  0  0  0
    2.9930   -0.0110   -0.5160 S   0  0  0  0  0  0  0  0  0  0  0  0
    3.6560    0.9980    0.6720 O   0  0  0  0  0  0  0  0  0  0  0  0
  1  2  1  0
  2  3  1  0
  3  4  1  0
  4  5  1  6
  4  6  1  0
  6  7  1  0
  7  8  1  0
M  CHG  1   5   1
M  END
