
     RDKit          3D

  8  7  0  0  0  0  0  0  0  0999 V2000
    2.7660    0.2840    0.3530 C   0  0  0  0  0  0  0  0  0  0  0  0
    1.4370    0.0150    0.7290 O   0  0  0  0  0  0  0  0  0  0  0  0
    0.7430   -0.4100   -0.4020 C   0  0  0  0  0  0  0  0  0  0  0  0
   -0.6900   -0.7130   -0.0550 C   0  0  1  0  0  0  0  0  0  0  0  0
   -1.4320   -1.1380   -1.1290 O   0  0  0  0  0  0  0  0  0  0  0  0
   -0.6120   -2.1240    1.1220 S   0  0  0  0  0  0  0  0  0  0  0  0
   -1.3960    0.3910    0.6370 C   0  0  0  0  0  0  0  0  0  0  0  0
   -1.6490    1.5540   -0.1630 N   0  0  0  0  0  0  0  0  0  0  0  0
  1  2  1  0
  2  3  1  0
  3  4  1  0
  4  5  1  6
  4  6  1  0
  4  7  1  0
  7  8  1  0
M  CHG  1   8   1
M  END
