
     RDKit          3D

 36 38  0  0  0  0  0  0  0  0999 V2000
    7.4440   -0.4250   -2.5640 C   0  0  0  0  0  0  0  0  0  0  0  0
    7.3000   -0.0510   -1.1210 C   0  0  0  0  0  0  0  0  0  0  0  0
    8.4470    0.2360   -0.4140 C   0  0  0  0  0  0  0  0  0  0  0  0
    8.3470    0.5840    0.9200 C   0  0  0  0  0  0  0  0  0  0  0  0
    7.1410    0.6500    1.5590 C   0  0  0  0  0  0  0  0  0  0  0  0
    7.0230    0.9990    2.9020 O   0  0  0  0  0  0  0  0  0  0  0  0
    6.0140    0.3590    0.8310 C   0  0  0  0  0  0  0  0  0  0  0  0
    6.0770    0.0060   -0.5120 C   0  0  0  0  0  0  0  0  0  0  0  0
    4.8840   -0.2880   -1.2360 N   0  0  0  0  0  0  0  0  0  0  0  0
    3.5980   -0.2260   -0.5620 C   0  0  0  0  0  0  0  0  0  0  0  0
    2.4720   -0.5650   -1.5500 C   0  0  1  0  0  0  0  0  0  0  0  0
    2.7710   -2.0000   -2.0130 C   0  0  0  0  0  0  0  0  0  0  0  0
    1.2370   -0.5260   -0.9710 O   0  0  0  0  0  0  0  0  0  0  0  0
    0.1030    0.1850   -1.2190 C   0  0  0  0  0  0  0  0  0  0  0  0
   -1.0350   -0.0250   -0.4160 C   0  0  0  0  0  0  0  0  0  0  0  0
   -2.2170    0.6430   -0.5900 C   0  0  0  0  0  0  0  0  0  0  0  0
   -3.3990    0.3790    0.2920 C   0  0  2  0  0  0  0  0  0  0  0  0
   -3.2820    1.1290    1.5960 C   0  0  0  0  0  0  0  0  0  0  0  0
   -3.0800    2.4950    1.2820 O   0  0  0  0  0  0  0  0  0  0  0  0
   -2.9290    3.4870    2.2100 C   0  0  0  0  0  0  0  0  0  0  0  0
   -1.9710    4.3920    2.2060 C   0  0  0  0  0  0  0  0  0  0  0  0
   -2.1390    5.2870    3.3590 C   0  0  0  0  0  0  0  0  0  0  0  0
   -3.3340    4.7800    4.0440 C   0  0  0  0  0  0  0  0  0  0  0  0
   -3.7680    3.7430    3.3600 C   0  0  0  0  0  0  0  0  0  0  0  0
   -4.8860    3.0500    3.7630 F   0  0  0  0  0  0  0  0  0  0  0  0
   -3.6080   -1.0300    0.4730 N   0  0  0  0  0  0  0  0  0  0  0  0
   -4.7800   -1.7130    0.0510 C   0  0  0  0  0  0  0  0  0  0  0  0
   -5.6620   -1.0210   -0.5060 O   0  0  0  0  0  0  0  0  0  0  0  0
   -4.9940   -3.0910    0.2210 N   0  0  0  0  0  0  0  0  0  0  0  0
   -6.2340   -3.7330   -0.2410 C   0  0  1  0  0  0  0  0  0  0  0  0
   -5.7970   -4.7860   -1.2580 C   0  0  0  0  0  0  0  0  0  0  0  0
   -6.8570   -4.4890    0.9130 C   0  0  0  0  0  0  0  0  0  0  0  0
   -2.2490    1.5600   -1.6180 C   0  0  0  0  0  0  0  0  0  0  0  0
   -1.1640    1.7960   -2.4250 C   0  0  0  0  0  0  0  0  0  0  0  0
    0.0250    1.0970   -2.2190 C   0  0  0  0  0  0  0  0  0  0  0  0
    1.0710    1.4080   -3.0920 O   0  0  0  0  0  0  0  0  0  0  0  0
  1  2  1  0
  2  3  2  0
  2  8  1  0
  3  4  1  0
  4  5  2  0
  5  6  1  0
  5  7  1  0
  7  8  2  0
  8  9  1  0
  9 10  1  0
 10 11  1  0
 11 12  1  1
 11 13  1  0
 13 14  1  0
 14 15  2  0
 14 35  1  0
 15 16  1  0
 16 17  1  0
 16 33  2  0
 17 18  1  1
 17 26  1  0
 18 19  1  0
 19 20  1  0
 20 21  2  0
 20 24  1  0
 21 22  1  0
 22 23  1  0
 23 24  2  0
 24 25  1  0
 26 27  1  0
 27 28  2  0
 27 29  1  0
 29 30  1  0
 30 31  1  6
 30 32  1  0
 33 34  1  0
 34 35  2  0
 35 36  1  0
M  END
