
     RDKit          3D

 36 38  0  0  0  0  0  0  0  0999 V2000
    7.6990    1.8050   -3.7800 C   0  0  0  0  0  0  0  0  0  0  0  0
    7.1350    0.8360   -2.7940 C   0  0  0  0  0  0  0  0  0  0  0  0
    6.3100   -0.2740   -3.2830 C   0  0  0  0  0  0  0  0  0  0  0  0
    7.3920    1.0070   -1.5330 C   0  0  0  0  0  0  0  0  0  0  0  0
    6.8470    0.0620   -0.5330 C   0  0  0  0  0  0  0  0  0  0  0  0
    6.1410   -0.8960   -0.8980 O   0  0  0  0  0  0  0  0  0  0  0  0
    7.1300    0.2500    0.8360 N   0  0  0  0  0  0  0  0  0  0  0  0
    6.6530   -0.5450    1.8920 C   0  0  0  0  0  0  0  0  0  0  0  0
    5.2180   -0.4890    2.2750 C   0  0  2  0  0  0  0  0  0  0  0  0
    5.0640   -1.4220    3.3130 O   0  0  0  0  0  0  0  0  0  0  0  0
    4.1600   -0.5030    1.2500 C   0  0  0  0  0  0  0  0  0  0  0  0
    2.8680   -0.2910    1.6660 O   0  0  0  0  0  0  0  0  0  0  0  0
    1.9470   -0.9680    2.4040 C   0  0  0  0  0  0  0  0  0  0  0  0
    2.1530   -2.2320    2.8920 C   0  0  0  0  0  0  0  0  0  0  0  0
    1.1800   -2.8740    3.6450 C   0  0  0  0  0  0  0  0  0  0  0  0
    1.4530   -4.1380    4.1040 F   0  0  0  0  0  0  0  0  0  0  0  0
   -0.0180   -2.2580    3.9200 C   0  0  0  0  0  0  0  0  0  0  0  0
   -0.2280   -0.9710    3.4210 C   0  0  0  0  0  0  0  0  0  0  0  0
    0.7140   -0.3320    2.6840 C   0  0  0  0  0  0  0  0  0  0  0  0
    0.5390    0.9250    2.1830 O   0  0  0  0  0  0  0  0  0  0  0  0
   -0.5480    1.7760    2.2860 C   0  0  0  0  0  0  0  0  0  0  0  0
   -1.8010    1.2690    1.7060 C   0  0  0  0  0  0  0  0  0  0  0  0
   -1.7160    0.7430    0.4160 C   0  0  0  0  0  0  0  0  0  0  0  0
   -2.8870    0.2660   -0.1450 C   0  0  0  0  0  0  0  0  0  0  0  0
   -4.1000    0.2900    0.5070 C   0  0  0  0  0  0  0  0  0  0  0  0
   -5.3120   -0.2070   -0.1300 C   0  0  0  0  0  0  0  0  0  0  0  0
   -5.6130    0.1460   -1.3610 C   0  0  0  0  0  0  0  0  0  0  0  0
   -4.9030    1.0000   -2.2400 N   0  0  0  0  0  0  0  0  0  0  0  0
   -5.5450    0.9160   -3.5290 C   0  0  0  0  0  0  0  0  0  0  0  0
   -6.4640   -0.2680   -3.4420 C   0  0  0  0  0  0  0  0  0  0  0  0
   -6.7920   -0.3360   -2.0340 N   0  0  0  0  0  0  0  0  0  0  0  0
   -8.0230   -0.7880   -1.4150 C   0  0  0  0  0  0  0  0  0  0  0  0
   -9.1000    0.2210   -1.7610 C   0  0  0  0  0  0  0  0  0  0  0  0
  -10.3110   -0.1390   -1.2030 O   0  0  0  0  0  0  0  0  0  0  0  0
   -4.1460    0.8270    1.8020 C   0  0  0  0  0  0  0  0  0  0  0  0
   -2.9970    1.3100    2.3860 C   0  0  0  0  0  0  0  0  0  0  0  0
  1  2  1  0
  2  3  1  0
  2  4  2  3
  4  5  1  0
  5  6  2  0
  5  7  1  0
  7  8  1  0
  8  9  1  0
  9 10  1  1
  9 11  1  0
 11 12  1  0
 12 13  1  0
 13 14  2  0
 13 19  1  0
 14 15  1  0
 15 16  1  0
 15 17  2  0
 17 18  1  0
 18 19  2  0
 19 20  1  0
 20 21  1  0
 21 22  1  0
 22 23  2  0
 22 36  1  0
 23 24  1  0
 24 25  2  0
 25 26  1  0
 25 35  1  0
 26 27  2  3
 27 28  1  0
 27 31  1  0
 28 29  1  0
 29 30  1  0
 30 31  1  0
 31 32  1  0
 32 33  1  0
 33 34  1  0
 35 36  2  0
M  END
