
     RDKit          3D

 37 41  0  0  0  0  0  0  0  0999 V2000
    8.0210    2.2580    0.4270 C   0  0  0  0  0  0  0  0  0  0  0  0
    6.7010    1.6770    0.0410 C   0  0  0  0  0  0  0  0  0  0  0  0
    5.9990    2.2370   -1.0140 C   0  0  0  0  0  0  0  0  0  0  0  0
    4.7690    1.6980   -1.3760 C   0  0  0  0  0  0  0  0  0  0  0  0
    4.2290    0.6190   -0.7100 C   0  0  0  0  0  0  0  0  0  0  0  0
    2.9830    0.0940   -1.0980 N   0  0  0  0  0  0  0  0  0  0  0  0
    1.7000    0.6970   -0.8330 C   0  0  0  0  0  0  0  0  0  0  0  0
    0.6910   -0.3730   -0.3510 C   0  0  1  0  0  0  0  0  0  0  0  0
   -0.5580    0.3260    0.1090 C   0  0  0  0  0  0  0  0  0  0  0  0
   -1.5330   -0.3980    0.8270 N   0  0  0  0  0  0  0  0  0  0  0  0
   -1.1250   -1.0960    2.0540 C   0  0  0  0  0  0  0  0  0  0  0  0
   -1.7270   -0.4150    3.2360 C   0  0  0  0  0  0  0  0  0  0  0  0
   -2.5910    0.7100    2.7770 C   0  0  0  0  0  0  0  0  0  0  0  0
   -3.6970    0.1040    1.8040 C   0  0  1  0  0  0  0  0  0  0  0  0
   -4.2220   -0.8900    2.5580 F   0  0  0  0  0  0  0  0  0  0  0  0
   -4.5520    1.1490    1.6200 F   0  0  0  0  0  0  0  0  0  0  0  0
   -2.9770   -0.3600    0.5850 C   0  0  0  0  0  0  0  0  0  0  0  0
   -3.4880   -0.6370   -0.5560 C   0  0  0  0  0  0  0  0  0  0  0  0
   -2.6060   -1.0100   -1.6950 C   0  0  0  0  0  0  0  0  0  0  0  0
   -3.0640   -1.2820   -2.8990 C   0  0  0  0  0  0  0  0  0  0  0  0
   -2.1660   -1.6120   -3.8640 F   0  0  0  0  0  0  0  0  0  0  0  0
   -4.4680   -1.2430   -3.2130 C   0  0  0  0  0  0  0  0  0  0  0  0
   -5.2780   -0.9240   -2.2450 C   0  0  0  0  0  0  0  0  0  0  0  0
   -4.8550   -0.6050   -0.8710 N   0  0  0  0  0  0  0  0  0  0  0  0
   -5.9710   -0.3710   -0.0320 C   0  0  0  0  0  0  0  0  0  0  0  0
   -6.7890    0.8610   -0.3680 C   0  0  0  0  0  0  0  0  0  0  0  0
   -7.8720    0.9380    0.5950 N   0  0  0  0  0  0  0  0  0  0  0  0
    0.6640   -1.4420   -1.1410 O   0  0  0  0  0  0  0  0  0  0  0  0
    1.5020   -1.5170   -2.2170 C   0  0  0  0  0  0  0  0  0  0  0  0
    2.9040   -1.1520   -1.8260 C   0  0  0  0  0  0  0  0  0  0  0  0
    3.9100   -1.8200   -2.0810 O   0  0  0  0  0  0  0  0  0  0  0  0
    4.9540    0.0870    0.3360 C   0  0  0  0  0  0  0  0  0  0  0  0
    4.4510   -0.9950    1.0320 C   0  0  0  0  0  0  0  0  0  0  0  0
    5.1710   -1.5460    2.0930 C   0  0  0  0  0  0  0  0  0  0  0  0
    6.3890   -1.0210    2.4590 C   0  0  0  0  0  0  0  0  0  0  0  0
    6.9040    0.0670    1.7660 C   0  0  0  0  0  0  0  0  0  0  0  0
    6.1790    0.5980    0.7210 C   0  0  0  0  0  0  0  0  0  0  0  0
  1  2  1  0
  2  3  2  0
  2 37  1  0
  3  4  1  0
  4  5  2  0
  5  6  1  0
  5 32  1  0
  6  7  1  0
  6 30  1  0
  7  8  1  0
  8  9  1  6
  8 28  1  0
  9 10  1  0
 10 11  1  0
 10 17  1  0
 11 12  1  0
 12 13  1  0
 13 14  1  0
 14 15  1  1
 14 16  1  0
 14 17  1  0
 17 18  2  3
 18 19  1  0
 18 24  1  0
 19 20  2  0
 20 21  1  0
 20 22  1  0
 22 23  2  0
 23 24  1  0
 24 25  1  0
 25 26  1  0
 26 27  1  0
 28 29  1  0
 29 30  1  0
 30 31  2  0
 32 33  2  0
 32 37  1  0
 33 34  1  0
 34 35  2  0
 35 36  1  0
 36 37  2  0
M  CHG  1  27   1
M  END
