
     RDKit          3D

 36 38  0  0  0  0  0  0  0  0999 V2000
    2.3190   -0.5740   -6.0790 C   0  0  0  0  0  0  0  0  0  0  0  0
    1.5700    0.5470   -5.3890 C   0  0  0  0  0  0  0  0  0  0  0  0
    1.7620    0.5000   -3.9180 C   0  0  0  0  0  0  0  0  0  0  0  0
    0.6830    0.3530   -3.1270 C   0  0  0  0  0  0  0  0  0  0  0  0
    0.7560    0.2960   -1.6940 C   0  0  0  0  0  0  0  0  0  0  0  0
   -0.1640    0.1600   -0.8290 C   0  0  0  0  0  0  0  0  0  0  0  0
   -1.6640    0.0100   -0.9720 C   0  0  0  0  0  0  0  0  0  0  0  0
   -2.2200   -0.1080    0.2470 C   0  0  0  0  0  0  0  0  0  0  0  0
   -3.4980   -0.2700    0.7790 C   0  0  0  0  0  0  0  0  0  0  0  0
   -3.6140   -0.3400    2.1280 C   0  0  0  0  0  0  0  0  0  0  0  0
   -2.6100   -0.2740    3.1430 C   0  0  0  0  0  0  0  0  0  0  0  0
   -1.2970   -0.1230    2.9550 F   0  0  0  0  0  0  0  0  0  0  0  0
   -3.0050   -0.3720    4.4360 C   0  0  0  0  0  0  0  0  0  0  0  0
   -2.0520   -0.3120    5.4170 O   0  0  0  0  0  0  0  0  0  0  0  0
   -4.7710   -0.3890    0.0300 C   0  0  0  0  0  0  0  0  0  0  0  0
   -4.8380   -0.3580   -1.1820 O   0  0  0  0  0  0  0  0  0  0  0  0
   -6.0090   -0.5510    0.7240 N   0  0  0  0  0  0  0  0  0  0  0  0
   -7.2390   -0.6650   -0.0560 C   0  0  1  0  0  0  0  0  0  0  0  0
   -7.8580   -2.0380    0.1240 C   0  0  0  0  0  0  0  0  0  0  0  0
   -8.2220    0.3980    0.3340 C   0  0  0  0  0  0  0  0  0  0  0  0
   -2.2570    0.0050   -2.1110 O   0  0  0  0  0  0  0  0  0  0  0  0
   -2.9040   -0.0040   -3.2500 C   0  0  0  0  0  0  0  0  0  0  0  0
    2.0920    0.4110   -1.1660 O   0  0  0  0  0  0  0  0  0  0  0  0
    3.1970    0.5600   -1.9530 C   0  0  0  0  0  0  0  0  0  0  0  0
    4.5400    0.6740   -1.3670 C   0  0  0  0  0  0  0  0  0  0  0  0
    5.5090    0.7980   -2.1540 O   0  0  0  0  0  0  0  0  0  0  0  0
    4.6800    0.6390    0.0410 N   0  0  0  0  0  0  0  0  0  0  0  0
    6.0350    0.7450    0.5510 C   0  0  0  0  0  0  0  0  0  0  0  0
    6.0900    1.7330    1.6940 C   0  0  0  0  0  0  0  0  0  0  0  0
    4.9970    1.6170    2.5780 N   0  0  0  0  0  0  0  0  0  0  0  0
    4.0390    0.6140    2.3690 C   0  0  2  0  0  0  0  0  0  0  0  0
    4.3380   -0.7490    2.9490 C   0  0  2  0  0  0  0  0  0  0  0  0
    4.4790   -0.9130    4.4190 C   0  0  0  0  0  0  0  0  0  0  0  0
    5.6880   -0.9670    3.5090 C   0  0  0  0  0  0  0  0  0  0  0  0
    3.5790    0.5230    0.9470 C   0  0  0  0  0  0  0  0  0  0  0  0
    3.0410    0.6030   -3.2740 C   0  0  0  0  0  0  0  0  0  0  0  0
  1  2  1  0
  2  3  1  0
  3  4  2  0
  3 36  1  0
  4  5  1  0
  5  6  2  3
  5 23  1  0
  6  7  1  0
  7  8  2  3
  7 21  1  0
  8  9  1  0
  9 10  2  3
  9 15  1  0
 10 11  1  0
 11 12  1  0
 11 13  2  3
 13 14  1  0
 15 16  2  0
 15 17  1  0
 17 18  1  0
 18 19  1  1
 18 20  1  0
 21 22  1  0
 23 24  1  0
 24 25  1  0
 24 36  2  0
 25 26  2  0
 25 27  1  0
 27 28  1  0
 27 35  1  0
 28 29  1  0
 29 30  1  0
 30 31  1  0
 31 32  1  0
 31 35  1  6
 32 33  1  1
 32 34  1  0
 33 34  1  0
M  END
