
     RDKit          3D

 36 38  0  0  0  0  0  0  0  0999 V2000
   -5.2820    4.8270   -0.3160 C   0  0  0  0  0  0  0  0  0  0  0  0
   -6.1030    4.4970   -1.2440 C   0  0  0  0  0  0  0  0  0  0  0  0
   -6.4190    3.2120   -1.7890 C   0  0  0  0  0  0  0  0  0  0  0  0
   -7.3230    3.0600   -2.7800 C   0  0  0  0  0  0  0  0  0  0  0  0
   -7.4460    1.6510   -3.1410 C   0  0  0  0  0  0  0  0  0  0  0  0
   -6.5020    0.9320   -2.2440 C   0  0  0  0  0  0  0  0  0  0  0  0
   -6.1820   -0.3950   -2.1130 C   0  0  0  0  0  0  0  0  0  0  0  0
   -5.2390   -0.8850   -1.1830 C   0  0  0  0  0  0  0  0  0  0  0  0
   -4.9890   -2.3080   -1.1870 C   0  0  0  0  0  0  0  0  0  0  0  0
   -5.5930   -2.9920   -2.3090 F   0  0  0  0  0  0  0  0  0  0  0  0
   -4.3420   -3.0940   -0.4330 C   0  0  0  0  0  0  0  0  0  0  0  0
   -3.5590   -2.9670    0.7710 C   0  0  0  0  0  0  0  0  0  0  0  0
   -4.6450    0.0650   -0.3970 C   0  0  0  0  0  0  0  0  0  0  0  0
   -3.7380   -0.2840    0.5190 O   0  0  0  0  0  0  0  0  0  0  0  0
   -2.9010    0.2080    1.4440 C   0  0  0  0  0  0  0  0  0  0  0  0
   -1.7490    0.9960    0.8780 C   0  0  1  0  0  0  0  0  0  0  0  0
   -2.0570    2.0960    0.1220 O   0  0  0  0  0  0  0  0  0  0  0  0
   -0.8800    1.4650    2.0490 C   0  0  0  0  0  0  0  0  0  0  0  0
    0.3060    2.0670    1.5200 N   0  0  0  0  0  0  0  0  0  0  0  0
    1.2170    1.3030    0.7440 C   0  0  0  0  0  0  0  0  0  0  0  0
    1.0570    0.0850    0.4900 O   0  0  0  0  0  0  0  0  0  0  0  0
    2.4000    1.8950    0.1930 N   0  0  0  0  0  0  0  0  0  0  0  0
    3.3520    1.1480   -0.5830 C   0  0  0  0  0  0  0  0  0  0  0  0
    3.9320    0.0520    0.2750 C   0  0  0  0  0  0  0  0  0  0  0  0
    4.9440   -0.7500   -0.5380 C   0  0  0  0  0  0  0  0  0  0  0  0
    5.5300   -1.8040    0.2450 N   0  0  0  0  0  0  0  0  0  0  0  0
    5.0430   -3.1290    0.3730 C   0  0  0  0  0  0  0  0  0  0  0  0
    3.8500   -3.5310    0.1960 O   0  0  0  0  0  0  0  0  0  0  0  0
    6.1440   -4.0480    0.7610 C   0  0  0  0  0  0  0  0  0  0  0  0
    7.2260   -3.1230    1.2240 C   0  0  0  0  0  0  0  0  0  0  0  0
    6.7190   -1.7070    1.0410 C   0  0  2  0  0  0  0  0  0  0  0  0
    6.4640   -1.1360    2.4180 C   0  0  0  0  0  0  0  0  0  0  0  0
    7.7830   -0.9230    0.3140 C   0  0  0  0  0  0  0  0  0  0  0  0
    8.1080   -1.5340   -0.8730 O   0  0  0  0  0  0  0  0  0  0  0  0
   -4.9900    1.4190   -0.5470 C   0  0  0  0  0  0  0  0  0  0  0  0
   -5.9070    1.8820   -1.4560 C   0  0  0  0  0  0  0  0  0  0  0  0
  1  2  2  0
  2  3  1  0
  3  4  2  0
  3 36  1  0
  4  5  1  0
  5  6  1  0
  6  7  2  0
  6 36  1  0
  7  8  1  0
  8  9  1  0
  8 13  2  0
  9 10  1  0
  9 11  2  3
 11 12  1  0
 13 14  1  0
 13 35  1  0
 14 15  1  0
 15 16  1  0
 16 17  1  1
 16 18  1  0
 18 19  1  0
 19 20  1  0
 20 21  2  0
 20 22  1  0
 22 23  1  0
 23 24  1  0
 24 25  1  0
 25 26  1  0
 26 27  1  0
 26 31  1  0
 27 28  2  0
 27 29  1  0
 29 30  1  0
 30 31  1  0
 31 32  1  1
 31 33  1  0
 33 34  1  0
 35 36  2  0
M  END
