
     RDKit          3D

 36 38  0  0  0  0  0  0  0  0999 V2000
    6.2410    1.1760   -3.5940 C   0  0  0  0  0  0  0  0  0  0  0  0
    5.5610    1.3480   -2.2640 C   0  0  0  0  0  0  0  0  0  0  0  0
    6.5030    0.8950   -1.1410 C   0  0  0  0  0  0  0  0  0  0  0  0
    5.7840    1.0820    0.1430 C   0  0  0  0  0  0  0  0  0  0  0  0
    4.6080    0.4030    0.3450 O   0  0  0  0  0  0  0  0  0  0  0  0
    4.4610   -0.9480    0.4370 C   0  0  0  0  0  0  0  0  0  0  0  0
    5.4990   -1.8530    0.3680 C   0  0  0  0  0  0  0  0  0  0  0  0
    5.2840   -3.2210    0.4720 C   0  0  0  0  0  0  0  0  0  0  0  0
    4.0060   -3.6660    0.6480 C   0  0  0  0  0  0  0  0  0  0  0  0
    3.7710   -5.0000    0.7530 F   0  0  0  0  0  0  0  0  0  0  0  0
    2.9190   -2.7960    0.7260 C   0  0  0  0  0  0  0  0  0  0  0  0
    3.1490   -1.4430    0.6210 C   0  0  0  0  0  0  0  0  0  0  0  0
    2.1250   -0.4710    0.6820 N   0  0  0  0  0  0  0  0  0  0  0  0
    0.7510   -0.7080    0.9150 C   0  0  0  0  0  0  0  0  0  0  0  0
    0.3260   -1.8690    1.0940 O   0  0  0  0  0  0  0  0  0  0  0  0
   -0.2320    0.3720    0.9600 C   0  0  0  0  0  0  0  0  0  0  0  0
   -1.6300   -0.0810    1.2840 C   0  0  1  0  0  0  0  0  0  0  0  0
   -2.5440    1.0750    1.3150 N   0  0  0  0  0  0  0  0  0  0  0  0
   -3.2450    1.4320    2.4960 C   0  0  0  0  0  0  0  0  0  0  0  0
   -2.9880    0.6520    3.4880 O   0  0  0  0  0  0  0  0  0  0  0  0
   -4.1650    2.5370    2.6410 C   0  0  0  0  0  0  0  0  0  0  0  0
   -4.5200    3.3850    1.7350 C   0  0  0  0  0  0  0  0  0  0  0  0
   -4.0520    3.3550    0.4470 O   0  0  0  0  0  0  0  0  0  0  0  0
   -4.7300    2.6930    3.9290 O   0  0  0  0  0  0  0  0  0  0  0  0
   -5.4660    3.8480    4.2870 C   0  0  0  0  0  0  0  0  0  0  0  0
   -4.6830    5.1160    4.1780 C   0  0  0  0  0  0  0  0  0  0  0  0
   -2.0950   -0.9680    0.1900 C   0  0  0  0  0  0  0  0  0  0  0  0
   -2.3340   -2.3150    0.3490 C   0  0  0  0  0  0  0  0  0  0  0  0
   -2.7440   -3.0340   -0.7470 C   0  0  0  0  0  0  0  0  0  0  0  0
   -3.0030   -4.4830   -0.5950 C   0  0  0  0  0  0  0  0  0  0  0  0
   -2.9150   -2.4160   -1.9880 C   0  0  0  0  0  0  0  0  0  0  0  0
   -2.6880   -1.0830   -2.1730 C   0  0  0  0  0  0  0  0  0  0  0  0
   -2.2690   -0.3570   -1.0490 C   0  0  0  0  0  0  0  0  0  0  0  0
   -2.9620   -0.7350   -3.5720 C   0  0  0  0  0  0  0  0  0  0  0  0
   -2.8820   -2.0480   -4.2930 C   0  0  0  0  0  0  0  0  0  0  0  0
   -3.3230   -2.9850   -3.2420 N   0  0  0  0  0  0  0  0  0  0  0  0
  1  2  1  0
  2  3  1  0
  3  4  1  0
  4  5  1  0
  5  6  1  0
  6  7  2  0
  6 12  1  0
  7  8  1  0
  8  9  2  0
  9 10  1  0
  9 11  1  0
 11 12  2  0
 12 13  1  0
 13 14  1  0
 14 15  2  0
 14 16  1  0
 17 16  1  6
 17 18  1  0
 17 27  1  0
 18 19  1  0
 19 20  2  0
 19 21  1  0
 21 22  2  3
 21 24  1  0
 22 23  1  0
 24 25  1  0
 25 26  1  0
 27 28  2  0
 27 33  1  0
 28 29  1  0
 29 30  1  0
 29 31  2  0
 31 32  1  0
 31 36  1  0
 32 33  2  0
 32 34  1  0
 34 35  1  0
 35 36  1  0
M  END
