
     RDKit          3D

 37 41  0  0  0  0  0  0  0  0999 V2000
    1.4810    2.7480    2.0220 N   0  0  0  0  0  0  0  0  0  0  0  0
    2.3950    2.0830    1.6040 C   0  0  0  0  0  0  0  0  0  0  0  0
    3.6650    1.1830    1.0070 C   0  0  0  0  0  0  0  0  0  0  0  0
    3.1350    0.1670    0.3110 C   0  0  0  0  0  0  0  0  0  0  0  0
    1.9190   -0.4260    0.7950 C   0  0  0  0  0  0  0  0  0  0  0  0
    2.1110   -0.8170    2.1510 O   0  0  0  0  0  0  0  0  0  0  0  0
    0.6750   -0.6850    0.4180 N   0  0  0  0  0  0  0  0  0  0  0  0
   -0.2120   -0.5030    1.6590 C   0  0  0  0  0  0  0  0  0  0  0  0
   -1.6370   -0.7540    1.5570 C   0  0  0  0  0  0  0  0  0  0  0  0
   -2.0880   -0.1770    0.2680 N   0  0  0  0  0  0  0  0  0  0  0  0
   -3.4610   -0.0960    0.3400 C   0  0  0  0  0  0  0  0  0  0  0  0
   -4.2990    0.8030   -0.3940 C   0  0  0  0  0  0  0  0  0  0  0  0
   -4.0260    1.4100   -1.6190 C   0  0  0  0  0  0  0  0  0  0  0  0
   -4.9360    2.1370   -2.2580 C   0  0  0  0  0  0  0  0  0  0  0  0
   -4.5660    2.8280   -3.4230 F   0  0  0  0  0  0  0  0  0  0  0  0
   -6.2410    2.3540   -1.8590 C   0  0  0  0  0  0  0  0  0  0  0  0
   -6.5980    1.7280   -0.6200 C   0  0  0  0  0  0  0  0  0  0  0  0
   -5.6510    1.0280    0.0050 C   0  0  0  0  0  0  0  0  0  0  0  0
   -5.7850    0.5780    1.4380 N   0  0  0  0  0  0  0  0  0  0  0  0
   -5.5530    1.5890    2.2590 C   0  0  0  0  0  0  0  0  0  0  0  0
   -5.2040    2.8490    1.7010 F   0  0  0  0  0  0  0  0  0  0  0  0
   -1.3570   -0.4580   -0.8070 C   0  0  0  0  0  0  0  0  0  0  0  0
   -0.0690   -1.2630   -0.6620 C   0  0  2  0  0  0  0  0  0  0  0  0
   -0.3120   -2.6260   -0.4400 C   0  0  0  0  0  0  0  0  0  0  0  0
   -0.1010   -3.4100    0.6930 C   0  0  0  0  0  0  0  0  0  0  0  0
   -0.2460   -4.7370    0.7010 C   0  0  0  0  0  0  0  0  0  0  0  0
   -0.6510   -5.4760   -0.3610 C   0  0  0  0  0  0  0  0  0  0  0  0
   -0.8710   -4.7780   -1.5510 C   0  0  0  0  0  0  0  0  0  0  0  0
   -0.6810   -3.3710   -1.6040 C   0  0  0  0  0  0  0  0  0  0  0  0
   -0.9780   -2.7730   -2.7180 F   0  0  0  0  0  0  0  0  0  0  0  0
    4.0490    0.0200   -0.5910 O   0  0  0  0  0  0  0  0  0  0  0  0
    5.0050    0.7990   -0.4560 C   0  0  0  0  0  0  0  0  0  0  0  0
    4.8330    1.6800    0.7160 C   0  0  0  0  0  0  0  0  0  0  0  0
    5.8410    2.5990    1.2380 C   0  0  0  0  0  0  0  0  0  0  0  0
    7.0250    2.7510    0.3570 C   0  0  0  0  0  0  0  0  0  0  0  0
    7.3440    1.3590   -0.1950 C   0  0  0  0  0  0  0  0  0  0  0  0
    6.2960    1.0930   -1.3170 C   0  0  0  0  0  0  0  0  0  0  0  0
  1  2  3  0
  2  3  1  0
  3  4  2  0
  3 33  1  0
  4  5  1  0
  4 31  1  0
  5  6  2  0
  5  7  1  0
  7  8  1  0
  7 23  1  0
  8  9  1  0
  9 10  1  0
 10 11  1  0
 10 22  1  0
 11 12  1  0
 12 13  2  0
 12 18  1  0
 13 14  1  0
 14 15  1  0
 14 16  2  0
 16 17  1  0
 17 18  2  0
 18 19  1  0
 19 20  2  3
 20 21  1  0
 22 23  1  0
 23 24  1  1
 24 25  2  0
 24 29  1  0
 25 26  1  0
 26 27  2  0
 27 28  1  0
 28 29  2  0
 29 30  1  0
 31 32  1  0
 32 33  2  0
 32 37  1  0
 33 34  1  0
 34 35  1  0
 35 36  1  0
 36 37  1  0
M  CHG  1  19   1
M  END
