
     RDKit          3D

 36 38  0  0  0  0  0  0  0  0999 V2000
   12.1650    0.0620    0.6810 C   0  0  0  0  0  0  0  0  0  0  0  0
   11.1280    0.8510   -0.1090 C   0  0  1  0  0  0  0  0  0  0  0  0
   11.4670    0.7260   -1.4560 O   0  0  0  0  0  0  0  0  0  0  0  0
    9.7820    0.2210    0.0990 C   0  0  0  0  0  0  0  0  0  0  0  0
    8.7790    0.8240   -0.6670 O   0  0  0  0  0  0  0  0  0  0  0  0
    7.4790    0.3440   -0.5800 C   0  0  0  0  0  0  0  0  0  0  0  0
    7.1650   -0.7120    0.2430 C   0  0  0  0  0  0  0  0  0  0  0  0
    5.8980   -1.1790    0.3270 C   0  0  0  0  0  0  0  0  0  0  0  0
    4.8370   -0.6320   -0.4030 C   0  0  0  0  0  0  0  0  0  0  0  0
    3.5700   -1.2150   -0.2460 N   0  0  0  0  0  0  0  0  0  0  0  0
    2.3670   -0.6170   -0.7160 C   0  0  0  0  0  0  0  0  0  0  0  0
    2.3530    0.4850   -1.3040 O   0  0  0  0  0  0  0  0  0  0  0  0
    1.1220   -1.2900   -0.5150 N   0  0  0  0  0  0  0  0  0  0  0  0
   -0.1300   -0.8110   -0.9270 C   0  0  0  0  0  0  0  0  0  0  0  0
   -0.4220    0.3510   -1.5730 C   0  0  0  0  0  0  0  0  0  0  0  0
   -1.7170    0.7320   -1.9450 C   0  0  0  0  0  0  0  0  0  0  0  0
   -2.7710   -0.0890   -1.6570 C   0  0  0  0  0  0  0  0  0  0  0  0
   -4.1950    0.1730   -1.9660 C   0  0  0  0  0  0  0  0  0  0  0  0
   -4.8920    0.5240   -0.7150 C   0  0  0  0  0  0  0  0  0  0  0  0
   -5.5780   -0.5000   -0.0440 C   0  0  0  0  0  0  0  0  0  0  0  0
   -6.2210   -0.2770    1.1570 C   0  0  0  0  0  0  0  0  0  0  0  0
   -6.9330   -1.3230    1.8990 C   0  0  1  0  0  0  0  0  0  0  0  0
   -6.1940   -1.4600    3.1370 O   0  0  0  0  0  0  0  0  0  0  0  0
   -8.3090   -0.9860    2.2800 C   0  0  0  0  0  0  0  0  0  0  0  0
   -9.3850   -0.6910    1.3520 C   0  0  0  0  0  0  0  0  0  0  0  0
   -9.3540    0.4520    0.4250 C   0  0  0  0  0  0  0  0  0  0  0  0
   -8.3640    0.4120   -0.4930 F   0  0  0  0  0  0  0  0  0  0  0  0
   -6.1580    1.0200    1.6760 C   0  0  0  0  0  0  0  0  0  0  0  0
   -5.4870    2.0250    1.0190 C   0  0  0  0  0  0  0  0  0  0  0  0
   -4.8460    1.7760   -0.1940 C   0  0  0  0  0  0  0  0  0  0  0  0
   -4.1920    2.8820   -0.8690 C   0  0  0  0  0  0  0  0  0  0  0  0
   -4.0860    4.0160   -0.2970 O   0  0  0  0  0  0  0  0  0  0  0  0
   -2.4680   -1.2840   -0.9920 C   0  0  0  0  0  0  0  0  0  0  0  0
   -1.2210   -1.6010   -0.6600 N   0  0  0  0  0  0  0  0  0  0  0  0
    5.1560    0.4180   -1.2210 C   0  0  0  0  0  0  0  0  0  0  0  0
    6.4560    0.8890   -1.3000 C   0  0  0  0  0  0  0  0  0  0  0  0
  2  1  1  1
  2  3  1  0
  2  4  1  0
  4  5  1  0
  5  6  1  0
  6  7  2  0
  6 36  1  0
  7  8  1  0
  8  9  2  0
  9 10  1  0
  9 35  1  0
 10 11  1  0
 11 12  2  0
 11 13  1  0
 13 14  1  0
 14 15  2  0
 14 34  1  0
 15 16  1  0
 16 17  2  0
 17 18  1  0
 17 33  1  0
 18 19  1  0
 19 20  2  0
 19 30  1  0
 20 21  1  0
 21 22  1  0
 21 28  2  0
 22 23  1  1
 22 24  1  0
 24 25  1  0
 25 26  1  0
 26 27  1  0
 28 29  1  0
 29 30  2  0
 30 31  1  0
 31 32  2  0
 33 34  2  0
 35 36  2  0
M  END
