
     RDKit          3D

 14 13  0  0  0  0  0  0  0  0999 V2000
    3.5000   -1.3950   -0.4430 C   0  0  0  0  0  0  0  0  0  0  0  0
    2.0590   -1.1650   -0.1650 C   0  0  0  0  0  0  0  0  0  0  0  0
    1.6050    0.0690   -0.1820 C   0  0  0  0  0  0  0  0  0  0  0  0
    2.5560    1.1250   -0.4750 N   0  0  0  0  0  0  0  0  0  0  0  0
    0.2060    0.3460    0.0850 C   0  0  0  0  0  0  0  0  0  0  0  0
   -0.3270    1.5340    0.0850 C   0  0  0  0  0  0  0  0  0  0  0  0
    0.2290    2.8590   -0.1570 C   0  0  0  0  0  0  0  0  0  0  0  0
   -0.4380    3.4460   -1.2690 O   0  0  0  0  0  0  0  0  0  0  0  0
   -0.6830   -0.8170    0.4010 C   0  0  2  0  0  0  0  0  0  0  0  0
   -0.2050   -1.4200    1.6940 C   0  0  0  0  0  0  0  0  0  0  0  0
   -0.6240   -1.7790   -0.6270 O   0  0  0  0  0  0  0  0  0  0  0  0
   -2.1380   -0.4730    0.5290 C   0  0  1  0  0  0  0  0  0  0  0  0
   -2.7500   -0.0760   -0.7860 C   0  0  0  0  0  0  0  0  0  0  0  0
   -2.8150   -1.7480    0.8850 N   0  0  0  0  0  0  0  0  0  0  0  0
  1  2  1  0
  2  3  2  3
  3  4  1  0
  3  5  1  0
  5  6  2  3
  5  9  1  0
  6  7  1  0
  7  8  1  0
  9 10  1  1
  9 11  1  0
  9 12  1  0
 12 13  1  6
 12 14  1  0
M  END
