
     RDKit          3D

 14 14  0  0  0  0  0  0  0  0999 V2000
    3.3630   -1.2500   -1.5110 C   0  0  0  0  0  0  0  0  0  0  0  0
    2.4790   -0.6640   -0.7340 C   0  0  0  0  0  0  0  0  0  0  0  0
    2.9680    0.1120    0.4260 C   0  0  0  0  0  0  0  0  0  0  0  0
    4.3490    0.0600    0.4600 O   0  0  0  0  0  0  0  0  0  0  0  0
    1.0280   -0.7780   -1.0120 C   0  0  0  0  0  0  0  0  0  0  0  0
    0.6360   -1.5350   -2.1380 N   0  0  0  0  0  0  0  0  0  0  0  0
    0.1090   -0.2160   -0.2720 C   0  0  0  0  0  0  0  0  0  0  0  0
   -1.2850   -0.3710   -0.6060 C   0  0  0  0  0  0  0  0  0  0  0  0
   -2.2280    0.1890    0.1280 C   0  0  0  0  0  0  0  0  0  0  0  0
   -3.6710    0.1500   -0.0410 C   0  0  0  0  0  0  0  0  0  0  0  0
   -4.2850    0.5630    1.0030 N   0  0  0  0  0  0  0  0  0  0  0  0
   -3.3640    0.9480    2.0510 C   0  0  0  0  0  0  0  0  0  0  0  0
   -2.0020    1.0220    1.3500 C   0  0  2  0  0  0  0  0  0  0  0  0
   -1.7700    2.3470    1.0270 O   0  0  0  0  0  0  0  0  0  0  0  0
  1  2  2  0
  2  3  1  0
  2  5  1  0
  3  4  1  0
  5  6  1  0
  5  7  2  3
  7  8  1  0
  8  9  2  3
  9 10  1  0
  9 13  1  0
 10 11  2  0
 11 12  1  0
 12 13  1  0
 13 14  1  6
M  END
