
     RDKit          3D

 14 14  0  0  0  0  0  0  0  0999 V2000
   -4.0840    0.7690   -0.9780 C   0  0  0  0  0  0  0  0  0  0  0  0
   -3.6870   -0.4020   -0.1090 C   0  0  0  0  0  0  0  0  0  0  0  0
   -2.8860    0.0480    1.0750 C   0  0  0  0  0  0  0  0  0  0  0  0
   -1.6130    0.7550    0.7220 C   0  0  0  0  0  0  0  0  0  0  0  0
   -0.6580   -0.0720   -0.0850 C   0  0  2  0  0  0  0  0  0  0  0  0
   -0.2930   -1.2550    0.6590 N   0  0  0  0  0  0  0  0  0  0  0  0
    0.5200    0.8230   -0.3970 C   0  0  2  0  0  0  0  0  0  0  0  0
    1.0880    1.2110    0.8090 O   0  0  0  0  0  0  0  0  0  0  0  0
   -0.0550    1.9780   -0.9830 O   0  0  0  0  0  0  0  0  0  0  0  0
    1.5080    0.2120   -1.3520 C   0  0  0  0  0  0  0  0  0  0  0  0
    2.1660   -0.9600   -0.8850 N   0  0  0  0  0  0  0  0  0  0  0  0
    3.0880   -0.7660    0.2010 C   0  0  2  0  0  0  0  0  0  0  0  0
    4.2920    0.0850    0.0470 C   0  0  0  0  0  0  0  0  0  0  0  0
    4.4550   -1.3930   -0.0280 C   0  0  0  0  0  0  0  0  0  0  0  0
  1  2  1  0
  2  3  1  0
  3  4  1  0
  4  5  1  0
  5  6  1  1
  5  7  1  0
  7  8  1  1
  7  9  1  0
  7 10  1  0
 10 11  1  0
 12 11  1  6
 12 13  1  0
 12 14  1  0
 13 14  1  0
M  END
