
     RDKit          3D

 14 14  0  0  0  0  0  0  0  0999 V2000
   -1.6970    1.0700    1.1580 N   0  0  0  0  0  0  0  0  0  0  0  0
   -0.9690   -0.1700    0.9750 C   0  0  0  0  0  0  0  0  0  0  0  0
   -1.6350   -1.2920    1.1460 C   0  0  0  0  0  0  0  0  0  0  0  0
   -3.0740   -1.3000    1.5120 C   0  0  0  0  0  0  0  0  0  0  0  0
   -3.7990   -2.0400    0.3810 C   0  0  0  0  0  0  0  0  0  0  0  0
   -5.1670   -2.0430    0.7370 O   0  0  0  0  0  0  0  0  0  0  0  0
    0.4340   -0.0940    0.6190 C   0  0  0  0  0  0  0  0  0  0  0  0
    1.2290   -1.2890    0.4190 C   0  0  0  0  0  0  0  0  0  0  0  0
    2.4500   -1.2440    0.1090 O   0  0  0  0  0  0  0  0  0  0  0  0
    1.0330    1.0720    0.4650 C   0  0  0  0  0  0  0  0  0  0  0  0
    2.3810    1.2610    0.1220 N   0  0  0  0  0  0  0  0  0  0  0  0
    2.8160    1.9420   -1.0740 C   0  0  1  0  0  0  0  0  0  0  0  0
    4.2360    2.1160   -1.3820 C   0  0  0  0  0  0  0  0  0  0  0  0
    3.4160    1.0910   -2.1570 C   0  0  0  0  0  0  0  0  0  0  0  0
  1  2  1  0
  2  3  2  3
  2  7  1  0
  3  4  1  0
  4  5  1  0
  5  6  1  0
  7  8  1  0
  7 10  2  3
  8  9  2  0
 10 11  1  0
 12 11  1  1
 12 13  1  0
 12 14  1  0
 13 14  1  0
M  END
