
     RDKit          3D

 14 13  0  0  0  0  0  0  0  0999 V2000
    0.1950    3.3980    0.3970 C   0  0  0  0  0  0  0  0  0  0  0  0
   -0.4560    2.0310   -0.0780 C   0  0  1  0  0  0  0  0  0  0  0  0
   -1.6160    1.8040    0.8050 C   0  0  0  0  0  0  0  0  0  0  0  0
   -0.8600    2.4520   -1.5030 C   0  0  0  0  0  0  0  0  0  0  0  0
   -1.7430    3.5440   -1.4240 O   0  0  0  0  0  0  0  0  0  0  0  0
    0.6260    1.0430   -0.0840 C   0  0  0  0  0  0  0  0  0  0  0  0
    0.3440   -0.3830   -0.4030 C   0  0  0  0  0  0  0  0  0  0  0  0
    0.6600   -1.2460    0.5280 C   0  0  0  0  0  0  0  0  0  0  0  0
    0.5530   -2.6640    0.6130 C   0  0  0  0  0  0  0  0  0  0  0  0
    0.9590   -3.3440    1.7070 C   0  0  0  0  0  0  0  0  0  0  0  0
    0.8350   -4.7480    1.7500 N   0  0  0  0  0  0  0  0  0  0  0  0
    1.5110   -2.6840    2.8230 N   0  0  0  0  0  0  0  0  0  0  0  0
   -0.1970   -0.7950   -1.7060 C   0  0  0  0  0  0  0  0  0  0  0  0
   -0.3220   -2.1670   -1.8650 O   0  0  0  0  0  0  0  0  0  0  0  0
  2  1  1  1
  2  3  1  0
  2  4  1  0
  2  6  1  0
  4  5  1  0
  6  7  1  0
  7  8  2  3
  7 13  1  0
  8  9  1  0
  9 10  2  3
 10 11  1  0
 10 12  1  0
 13 14  1  0
M  END
