
     RDKit          3D

 14 13  0  0  0  0  0  0  0  0999 V2000
   -1.9470   -2.5760   -0.4070 C   0  0  0  0  0  0  0  0  0  0  0  0
   -2.3050   -1.4060    0.4530 C   0  0  0  0  0  0  0  0  0  0  0  0
   -2.0740   -0.0730   -0.2390 C   0  0  1  0  0  0  0  0  0  0  0  0
   -2.4850    0.9800    0.7690 C   0  0  0  0  0  0  0  0  0  0  0  0
   -2.3180    2.3800    0.2390 C   0  0  0  0  0  0  0  0  0  0  0  0
   -2.7250    3.2530    1.2480 O   0  0  0  0  0  0  0  0  0  0  0  0
   -0.6450    0.0770   -0.6670 C   0  0  2  0  0  0  0  0  0  0  0  0
   -0.3330   -0.9430   -1.5450 O   0  0  0  0  0  0  0  0  0  0  0  0
    0.3120    0.0340    0.5030 C   0  0  0  0  0  0  0  0  0  0  0  0
    1.7130    0.1800    0.0980 C   0  0  0  0  0  0  0  0  0  0  0  0
    2.6190   -0.7540    0.3450 C   0  0  0  0  0  0  0  0  0  0  0  0
    4.0120   -0.5930   -0.0650 C   0  0  0  0  0  0  0  0  0  0  0  0
    4.4300    0.4480   -0.6790 N   0  0  0  0  0  0  0  0  0  0  0  0
    5.7620    0.5620   -1.0510 N   0  0  0  0  0  0  0  0  0  0  0  0
  1  2  1  0
  3  2  1  1
  3  4  1  0
  3  7  1  0
  4  5  1  0
  5  6  1  0
  7  8  1  6
  7  9  1  0
  9 10  1  0
 10 11  2  3
 11 12  1  0
 12 13  2  3
 13 14  1  0
M  END
