
     RDKit          3D

 14 13  0  0  0  0  0  0  0  0999 V2000
    2.9470    1.9180    0.0430 C   0  0  0  0  0  0  0  0  0  0  0  0
    3.0380    0.4670    0.3810 C   0  0  0  0  0  0  0  0  0  0  0  0
    1.7180   -0.2200    0.6010 C   0  0  0  0  0  0  0  0  0  0  0  0
    0.8970   -0.1210   -0.6420 C   0  0  0  0  0  0  0  0  0  0  0  0
   -0.4530   -0.7640   -0.5310 C   0  0  0  0  0  0  0  0  0  0  0  0
   -1.4900   -0.0910    0.1800 C   0  0  0  0  0  0  0  0  0  0  0  0
   -1.4930    1.0860    0.7730 C   0  0  0  0  0  0  0  0  0  0  0  0
   -0.4290    2.0100    0.8500 N   0  0  0  0  0  0  0  0  0  0  0  0
   -2.7980    1.4970    1.4540 C   0  0  0  0  0  0  0  0  0  0  0  0
   -3.2680    2.6730    0.8790 O   0  0  0  0  0  0  0  0  0  0  0  0
   -0.5870   -1.9160   -1.1020 C   0  0  0  0  0  0  0  0  0  0  0  0
    0.6430   -2.3980   -1.7740 N   0  0  0  0  0  0  0  0  0  0  0  0
   -1.7090   -2.8080   -1.2070 C   0  0  0  0  0  0  0  0  0  0  0  0
   -2.8850   -2.4580   -0.6310 O   0  0  0  0  0  0  0  0  0  0  0  0
  1  2  1  0
  2  3  1  0
  3  4  1  0
  4  5  1  0
  5  6  1  0
  5 11  2  3
  6  7  2  3
  7  8  1  0
  7  9  1  0
  9 10  1  0
 11 12  1  0
 11 13  1  0
 13 14  1  0
M  END
