
     RDKit          3D

 22 22  0  0  0  0  0  0  0  0999 V2000
   -4.2130    1.8100   -1.6640 O   0  0  0  0  0  0  0  0  0  0  0  0
   -4.3930    2.2300   -0.3830 C   0  0  0  0  0  0  0  0  0  0  0  0
   -4.4580    1.2270    0.6940 C   0  0  0  0  0  0  0  0  0  0  0  0
   -3.3010    0.3560    0.9660 C   0  0  0  0  0  0  0  0  0  0  0  0
   -2.8110   -0.5440   -0.0980 C   0  0  1  0  0  0  0  0  0  0  0  0
   -3.8710   -1.3950   -0.4610 O   0  0  0  0  0  0  0  0  0  0  0  0
   -2.4150    0.1480   -1.2210 O   0  0  0  0  0  0  0  0  0  0  0  0
   -1.6740   -1.4430    0.3840 C   0  0  1  0  0  0  0  0  0  0  0  0
   -2.1720   -2.1570    1.4690 O   0  0  0  0  0  0  0  0  0  0  0  0
   -1.3870   -2.4360   -0.7230 C   0  0  0  0  0  0  0  0  0  0  0  0
   -0.5350   -3.4000   -0.2250 O   0  0  0  0  0  0  0  0  0  0  0  0
    0.3620   -2.9260    0.7120 C   0  0  0  0  0  0  0  0  0  0  0  0
    0.6410   -1.4690    0.3890 C   0  0  2  0  0  0  0  0  0  0  0  0
    1.6410   -0.9930    1.2010 O   0  0  0  0  0  0  0  0  0  0  0  0
    2.7380   -0.4670    0.5400 C   0  0  0  0  0  0  0  0  0  0  0  0
    2.4340    0.6920   -0.3350 C   0  0  0  0  0  0  0  0  0  0  0  0
    3.5800    1.1500   -0.9550 O   0  0  0  0  0  0  0  0  0  0  0  0
    4.5630    1.6200   -0.1170 C   0  0  2  0  0  0  0  0  0  0  0  0
    4.8250    2.9480   -0.5250 O   0  0  0  0  0  0  0  0  0  0  0  0
    5.8120    0.7910   -0.3840 C   0  0  0  0  0  0  0  0  0  0  0  0
    6.8560    1.2240    0.4460 O   0  0  0  0  0  0  0  0  0  0  0  0
   -0.5280   -0.7480    0.6590 O   0  0  0  0  0  0  0  0  0  0  0  0
  1  2  1  0
  2  3  1  0
  3  4  1  0
  4  5  1  0
  5  6  1  6
  5  7  1  0
  5  8  1  0
  8  9  1  1
  8 10  1  0
  8 22  1  0
 10 11  1  0
 11 12  1  0
 12 13  1  0
 13 14  1  1
 13 22  1  0
 14 15  1  0
 15 16  1  0
 16 17  1  0
 17 18  1  0
 18 19  1  6
 18 20  1  0
 20 21  1  0
M  END
