
     RDKit          3D

 22 22  0  0  0  0  0  0  0  0999 V2000
    5.2890    0.9460   -1.3990 C   0  0  0  0  0  0  0  0  0  0  0  0
    3.9910    0.8640   -0.8460 O   0  0  0  0  0  0  0  0  0  0  0  0
    3.7960    0.5580    0.4860 C   0  0  0  0  0  0  0  0  0  0  0  0
    4.8080    0.3540    1.2000 O   0  0  0  0  0  0  0  0  0  0  0  0
    2.4170    0.4770    1.0520 C   0  0  2  0  0  0  0  0  0  0  0  0
    2.4360    0.1600    2.4000 O   0  0  0  0  0  0  0  0  0  0  0  0
    1.5830   -0.5530    0.2740 C   0  0  1  0  0  0  0  0  0  0  0  0
    2.2770   -1.8670    0.4250 C   0  0  0  0  0  0  0  0  0  0  0  0
    1.6430   -2.9290   -0.1710 O   0  0  0  0  0  0  0  0  0  0  0  0
    0.3150   -0.5040    0.7980 O   0  0  0  0  0  0  0  0  0  0  0  0
   -0.6550   -0.0480   -0.0540 C   0  0  2  0  0  0  0  0  0  0  0  0
   -1.3450    1.0550    0.4300 O   0  0  0  0  0  0  0  0  0  0  0  0
   -2.5620    1.1030   -0.2050 C   0  0  2  0  0  0  0  0  0  0  0  0
   -2.5830    2.1030   -1.3500 C   0  0  0  0  0  0  0  0  0  0  0  0
   -1.6360    1.7890   -2.3200 O   0  0  0  0  0  0  0  0  0  0  0  0
   -3.6390    1.5510    0.7820 C   0  0  0  0  0  0  0  0  0  0  0  0
   -3.3230    2.8180    1.2740 O   0  0  0  0  0  0  0  0  0  0  0  0
   -2.8630   -0.2460   -0.7600 C   0  0  0  0  0  0  0  0  0  0  0  0
   -1.7410   -1.0900   -0.2200 C   0  0  1  0  0  0  0  0  0  0  0  0
   -1.3800   -2.0750   -1.1160 O   0  0  0  0  0  0  0  0  0  0  0  0
   -2.0910   -1.7450    1.0930 C   0  0  0  0  0  0  0  0  0  0  0  0
   -3.1360   -2.6120    0.8910 O   0  0  0  0  0  0  0  0  0  0  0  0
  1  2  1  0
  2  3  1  0
  3  4  2  0
  3  5  1  0
  5  6  1  1
  5  7  1  0
  7  8  1  1
  7 10  1  0
  8  9  1  0
 11 10  1  1
 11 12  1  0
 11 19  1  0
 12 13  1  0
 13 14  1  6
 13 16  1  0
 13 18  1  0
 14 15  1  0
 16 17  1  0
 18 19  1  0
 19 20  1  6
 19 21  1  0
 21 22  1  0
M  END
