
     RDKit          3D

 22 22  0  0  0  0  0  0  0  0999 V2000
    2.0170    0.2240    0.9300 O   0  0  0  0  0  0  0  0  0  0  0  0
    1.9090    1.1620    0.0990 C   0  0  0  0  0  0  0  0  0  0  0  0
    3.0630    1.6110   -0.5060 O   0  0  0  0  0  0  0  0  0  0  0  0
    4.3480    1.1190   -0.2800 C   0  0  0  0  0  0  0  0  0  0  0  0
    4.5160   -0.3380   -0.6020 C   0  0  0  0  0  0  0  0  0  0  0  0
    5.8390   -0.6790   -0.3280 O   0  0  0  0  0  0  0  0  0  0  0  0
    6.0940   -2.0210   -0.5970 C   0  0  0  0  0  0  0  0  0  0  0  0
    5.8210   -2.2040   -1.9720 O   0  0  0  0  0  0  0  0  0  0  0  0
    0.5540    1.7260   -0.1800 C   0  0  1  0  0  0  0  0  0  0  0  0
    0.6240    2.7520   -1.1210 O   0  0  0  0  0  0  0  0  0  0  0  0
   -0.3860    0.6770   -0.7380 C   0  0  0  0  0  0  0  0  0  0  0  0
   -1.6920    1.1950   -0.1720 C   0  0  1  0  0  0  0  0  0  0  0  0
   -2.0250    2.3130   -0.9740 O   0  0  0  0  0  0  0  0  0  0  0  0
   -2.7800    0.2010   -0.2320 C   0  0  0  0  0  0  0  0  0  0  0  0
   -2.6160   -1.0670    0.4720 C   0  0  1  0  0  0  0  0  0  0  0  0
   -2.4420   -0.9960    1.8420 O   0  0  0  0  0  0  0  0  0  0  0  0
   -3.7020   -2.0680    0.2080 C   0  0  0  0  0  0  0  0  0  0  0  0
   -5.0810   -1.6390    0.5870 C   0  0  0  0  0  0  0  0  0  0  0  0
   -5.5540   -0.5170   -0.0740 O   0  0  0  0  0  0  0  0  0  0  0  0
   -1.2790    1.7050    1.1460 C   0  0  2  0  0  0  0  0  0  0  0  0
   -2.0160    2.8520    1.5260 O   0  0  0  0  0  0  0  0  0  0  0  0
    0.0360    2.2000    0.9820 O   0  0  0  0  0  0  0  0  0  0  0  0
  1  2  2  0
  2  3  1  0
  2  9  1  0
  3  4  1  0
  4  5  1  0
  5  6  1  0
  6  7  1  0
  7  8  1  0
  9 10  1  6
  9 11  1  0
  9 22  1  0
 11 12  1  0
 12 13  1  6
 12 14  1  0
 12 20  1  0
 14 15  1  0
 15 16  1  1
 15 17  1  0
 17 18  1  0
 18 19  1  0
 20 21  1  6
 20 22  1  0
M  END
