
     RDKit          3D

 22 22  0  0  0  0  0  0  0  0999 V2000
    4.0700   -2.3680    2.1090 C   0  0  0  0  0  0  0  0  0  0  0  0
    3.6550   -1.0280    2.0800 O   0  0  0  0  0  0  0  0  0  0  0  0
    2.9640   -0.4980    0.9690 C   0  0  0  0  0  0  0  0  0  0  0  0
    2.7620   -1.3010    0.0460 O   0  0  0  0  0  0  0  0  0  0  0  0
    2.5250    0.8970    0.9270 C   0  0  0  0  0  0  0  0  0  0  0  0
    1.6970    1.3160   -0.2030 C   0  0  1  0  0  0  0  0  0  0  0  0
    1.4620    2.8620    0.0610 C   0  0  0  0  0  0  0  0  0  0  0  0
    2.6460    3.4530    0.4180 O   0  0  0  0  0  0  0  0  0  0  0  0
    2.6060    1.3540   -1.4450 C   0  0  0  0  0  0  0  0  0  0  0  0
    2.0420    2.1940   -2.3960 O   0  0  0  0  0  0  0  0  0  0  0  0
    0.5360    0.8690   -0.5270 O   0  0  0  0  0  0  0  0  0  0  0  0
   -0.0640   -0.2040   -0.8880 C   0  0  2  0  0  0  0  0  0  0  0  0
   -0.6460    0.0260   -2.1820 O   0  0  0  0  0  0  0  0  0  0  0  0
   -1.3310   -0.3790   -0.0160 C   0  0  2  0  0  0  0  0  0  0  0  0
   -0.9890   -0.4700    1.3310 O   0  0  0  0  0  0  0  0  0  0  0  0
   -2.0840   -1.6230   -0.3930 C   0  0  0  0  0  0  0  0  0  0  0  0
   -3.5180   -1.0720   -0.4260 C   0  0  1  0  0  0  0  0  0  0  0  0
   -4.3400   -1.8140   -1.2480 O   0  0  0  0  0  0  0  0  0  0  0  0
   -4.0570   -0.9010    0.9710 C   0  0  0  0  0  0  0  0  0  0  0  0
   -5.2880   -0.2470    0.8520 O   0  0  0  0  0  0  0  0  0  0  0  0
   -3.2380    0.3090   -0.9810 C   0  0  0  0  0  0  0  0  0  0  0  0
   -2.1460    0.7020   -0.2250 O   0  0  0  0  0  0  0  0  0  0  0  0
  1  2  1  0
  2  3  1  0
  3  4  2  0
  3  5  1  0
  6  5  1  1
  6  7  1  0
  6  9  1  0
  6 11  1  0
  7  8  1  0
  9 10  1  0
 11 12  1  0
 12 13  1  6
 12 14  1  0
 14 15  1  1
 14 16  1  0
 14 22  1  0
 16 17  1  0
 17 18  1  6
 17 19  1  0
 17 21  1  0
 19 20  1  0
 21 22  1  0
M  END
