
     RDKit          3D

 22 22  0  0  0  0  0  0  0  0999 V2000
   -2.0870   -2.9290    0.4630 O   0  0  0  0  0  0  0  0  0  0  0  0
   -1.6080   -1.9470   -0.1290 C   0  0  0  0  0  0  0  0  0  0  0  0
   -2.0960   -0.6880    0.1330 O   0  0  0  0  0  0  0  0  0  0  0  0
   -3.1290   -0.4130    1.0500 C   0  0  0  0  0  0  0  0  0  0  0  0
   -3.3520    1.0900    1.0300 C   0  0  2  0  0  0  0  0  0  0  0  0
   -2.1770    1.7080    1.4030 O   0  0  0  0  0  0  0  0  0  0  0  0
   -4.4520    1.5150    1.9530 C   0  0  0  0  0  0  0  0  0  0  0  0
   -4.5900    2.8880    1.8630 O   0  0  0  0  0  0  0  0  0  0  0  0
   -0.5090   -2.1130   -1.1240 C   0  0  2  0  0  0  0  0  0  0  0  0
   -0.1460   -3.4450   -1.2600 O   0  0  0  0  0  0  0  0  0  0  0  0
    0.6660   -3.8790   -0.2140 C   0  0  0  0  0  0  0  0  0  0  0  0
    1.8550   -2.9620   -0.0150 C   0  0  1  0  0  0  0  0  0  0  0  0
    3.0660   -3.6590   -0.0620 O   0  0  0  0  0  0  0  0  0  0  0  0
    1.8200   -1.9940   -1.0090 O   0  0  0  0  0  0  0  0  0  0  0  0
    0.6660   -1.2220   -0.7830 C   0  0  1  0  0  0  0  0  0  0  0  0
    0.6680    0.0160   -1.6570 C   0  0  1  0  0  0  0  0  0  0  0  0
   -0.4860    0.7340   -1.3920 O   0  0  0  0  0  0  0  0  0  0  0  0
    1.8930    0.8570   -1.4390 C   0  0  0  0  0  0  0  0  0  0  0  0
    1.9350    1.2860   -0.1300 O   0  0  0  0  0  0  0  0  0  0  0  0
    3.0210    2.0670    0.1770 C   0  0  0  0  0  0  0  0  0  0  0  0
    3.1200    3.3300   -0.6270 C   0  0  0  0  0  0  0  0  0  0  0  0
    4.2780    4.0030   -0.1880 O   0  0  0  0  0  0  0  0  0  0  0  0
  1  2  2  0
  2  3  1  0
  9  2  1  1
  3  4  1  0
  4  5  1  0
  5  6  1  1
  5  7  1  0
  7  8  1  0
  9 10  1  0
  9 15  1  0
 10 11  1  0
 11 12  1  0
 12 13  1  6
 12 14  1  0
 15 14  1  6
 15 16  1  0
 16 17  1  1
 16 18  1  0
 18 19  1  0
 19 20  1  0
 20 21  1  0
 21 22  1  0
M  END
