
     RDKit          3D

 22 23  0  0  0  0  0  0  0  0999 V2000
   -0.3850   -1.1780   -1.6680 C   0  0  0  0  0  0  0  0  0  0  0  0
   -0.1450   -0.8930   -0.1770 C   0  0  1  0  0  0  0  0  0  0  0  0
   -0.1190   -2.1940    0.4000 O   0  0  0  0  0  0  0  0  0  0  0  0
    1.2310   -0.3470   -0.0580 C   0  0  2  0  0  0  0  0  0  0  0  0
    1.2960    0.9360   -0.5920 O   0  0  0  0  0  0  0  0  0  0  0  0
    2.5620    1.4480   -0.2240 C   0  0  0  0  0  0  0  0  0  0  0  0
    3.5720    0.7210   -1.0700 C   0  0  1  0  0  0  0  0  0  0  0  0
    4.8380    1.0810   -0.6340 O   0  0  0  0  0  0  0  0  0  0  0  0
    3.3510   -0.7630   -0.8840 C   0  0  2  0  0  0  0  0  0  0  0  0
    4.0010   -1.1620    0.2830 O   0  0  0  0  0  0  0  0  0  0  0  0
    3.9970   -1.4040   -1.9410 O   0  0  0  0  0  0  0  0  0  0  0  0
    2.0320   -1.1330   -0.9100 O   0  0  0  0  0  0  0  0  0  0  0  0
   -1.2550   -0.1160    0.4250 C   0  0  2  0  0  0  0  0  0  0  0  0
   -0.9460    0.1380    1.8860 C   0  0  0  0  0  0  0  0  0  0  0  0
    0.1990    0.8490    2.1180 O   0  0  0  0  0  0  0  0  0  0  0  0
   -2.5350   -0.9820    0.4750 C   0  0  0  0  0  0  0  0  0  0  0  0
   -3.7750   -0.1370    0.4940 C   0  0  1  0  0  0  0  0  0  0  0  0
   -4.0250    0.4880    1.6900 O   0  0  0  0  0  0  0  0  0  0  0  0
   -3.8290    0.8060   -0.6830 C   0  0  0  0  0  0  0  0  0  0  0  0
   -2.5790    0.7400   -1.3020 O   0  0  0  0  0  0  0  0  0  0  0  0
   -1.6530    1.1230   -0.3020 C   0  0  1  0  0  0  0  0  0  0  0  0
   -2.2480    2.0690    0.5670 O   0  0  0  0  0  0  0  0  0  0  0  0
  2  1  1  6
  2  3  1  0
  2  4  1  0
  2 13  1  0
  4  5  1  6
  4 12  1  0
  5  6  1  0
  6  7  1  0
  7  8  1  1
  7  9  1  0
  9 10  1  1
  9 11  1  0
  9 12  1  0
 13 14  1  1
 13 16  1  0
 13 21  1  0
 14 15  1  0
 16 17  1  0
 17 18  1  1
 17 19  1  0
 19 20  1  0
 20 21  1  0
 21 22  1  1
M  END
