
     RDKit          3D

 22 22  0  0  0  0  0  0  0  0999 V2000
    3.3290   -1.1970   -0.7110 O   0  0  0  0  0  0  0  0  0  0  0  0
    3.2860    0.0350   -0.4950 C   0  0  0  0  0  0  0  0  0  0  0  0
    2.0950    0.6880   -0.5830 O   0  0  0  0  0  0  0  0  0  0  0  0
    0.8420    0.2120   -0.8760 C   0  0  0  0  0  0  0  0  0  0  0  0
    0.2620   -0.7480    0.1230 C   0  0  2  0  0  0  0  0  0  0  0  0
    1.1100   -1.8630    0.1850 O   0  0  0  0  0  0  0  0  0  0  0  0
   -1.1440   -1.1640   -0.1270 C   0  0  1  0  0  0  0  0  0  0  0  0
   -1.2270   -1.8400   -1.3430 O   0  0  0  0  0  0  0  0  0  0  0  0
   -1.4310   -2.2900    0.8920 C   0  0  0  0  0  0  0  0  0  0  0  0
   -1.4000   -1.8840    2.1880 O   0  0  0  0  0  0  0  0  0  0  0  0
   -2.1900   -0.1150   -0.0830 C   0  0  1  0  0  0  0  0  0  0  0  0
   -3.5920   -0.7190   -0.1780 C   0  0  0  0  0  0  0  0  0  0  0  0
   -3.7180   -1.3890   -1.3920 O   0  0  0  0  0  0  0  0  0  0  0  0
   -2.1660    0.7560    1.1500 C   0  0  0  0  0  0  0  0  0  0  0  0
   -3.3180    1.5790    1.0710 O   0  0  0  0  0  0  0  0  0  0  0  0
   -3.0400    2.5150    0.0830 C   0  0  0  0  0  0  0  0  0  0  0  0
   -3.0060    1.7460   -1.2290 C   0  0  0  0  0  0  0  0  0  0  0  0
   -2.0650    0.7600   -1.1550 O   0  0  0  0  0  0  0  0  0  0  0  0
    4.5620    0.7660   -0.1420 C   0  0  1  0  0  0  0  0  0  0  0  0
    4.3170    2.1100    0.0590 O   0  0  0  0  0  0  0  0  0  0  0  0
    5.1910    0.1600    1.0840 C   0  0  0  0  0  0  0  0  0  0  0  0
    6.3870    0.8100    1.3450 O   0  0  0  0  0  0  0  0  0  0  0  0
  1  2  2  0
  2  3  1  0
  2 19  1  0
  3  4  1  0
  4  5  1  0
  5  6  1  6
  5  7  1  0
  7  8  1  6
  7  9  1  0
  7 11  1  0
  9 10  1  0
 11 12  1  6
 11 14  1  0
 11 18  1  0
 12 13  1  0
 14 15  1  0
 15 16  1  0
 16 17  1  0
 17 18  1  0
 19 20  1  1
 19 21  1  0
 21 22  1  0
M  END
