
     RDKit          3D

 23 23  0  0  0  0  0  0  0  0999 V2000
   -2.9880   -3.0780   -0.6110 O   0  0  0  0  0  0  0  0  0  0  0  0
   -2.4460   -2.7830    0.6310 C   0  0  0  0  0  0  0  0  0  0  0  0
   -2.1920   -1.3140    0.8330 C   0  0  2  0  0  0  0  0  0  0  0  0
   -3.4370   -0.4790    0.6600 C   0  0  0  0  0  0  0  0  0  0  0  0
   -2.9930    0.8880    0.1870 C   0  0  1  0  0  0  0  0  0  0  0  0
   -3.0420    1.0230   -1.3160 C   0  0  0  0  0  0  0  0  0  0  0  0
   -4.3340    0.6680   -1.7380 O   0  0  0  0  0  0  0  0  0  0  0  0
   -3.9740    1.8910    0.7600 C   0  0  2  0  0  0  0  0  0  0  0  0
   -5.2850    1.6260    0.3690 O   0  0  0  0  0  0  0  0  0  0  0  0
   -3.6400    3.1690    0.2780 O   0  0  0  0  0  0  0  0  0  0  0  0
   -1.7360    1.2310    0.6260 O   0  0  0  0  0  0  0  0  0  0  0  0
   -0.7530    0.3050    0.3080 C   0  0  2  0  0  0  0  0  0  0  0  0
    0.1400    0.7430   -0.6260 O   0  0  0  0  0  0  0  0  0  0  0  0
    1.4810    0.7340   -0.1940 C   0  0  0  0  0  0  0  0  0  0  0  0
    1.9450   -0.6460    0.0990 C   0  0  0  0  0  0  0  0  0  0  0  0
    3.1930   -0.8390    0.5480 O   0  0  0  0  0  0  0  0  0  0  0  0
    4.2920   -0.4120   -0.1000 C   0  0  1  0  0  0  0  0  0  0  0  0
    4.3550   -0.9250   -1.3790 O   0  0  0  0  0  0  0  0  0  0  0  0
    4.5830    1.0230    0.0830 C   0  0  0  0  0  0  0  0  0  0  0  0
    5.7260    1.4380   -0.6230 O   0  0  0  0  0  0  0  0  0  0  0  0
    5.5490   -1.1080    0.5790 C   0  0  0  0  0  0  0  0  0  0  0  0
    5.4450   -2.4680    0.4820 O   0  0  0  0  0  0  0  0  0  0  0  0
   -1.2930   -0.8970   -0.1550 O   0  0  0  0  0  0  0  0  0  0  0  0
  1  2  1  0
  3  2  1  6
  3  4  1  0
  3 23  1  0
  4  5  1  0
  5  6  1  6
  5  8  1  0
  5 11  1  0
  6  7  1  0
  8  9  1  6
  8 10  1  0
 11 12  1  0
 12 13  1  6
 12 23  1  0
 13 14  1  0
 14 15  1  0
 15 16  1  0
 16 17  1  0
 17 18  1  6
 17 19  1  0
 17 21  1  0
 19 20  1  0
 21 22  1  0
M  END
