
     RDKit          3D

 22 22  0  0  0  0  0  0  0  0999 V2000
   -3.9140   -0.1690   -1.2190 C   0  0  0  0  0  0  0  0  0  0  0  0
   -2.6860    0.5270   -0.6990 C   0  0  1  0  0  0  0  0  0  0  0  0
   -3.0210    1.9230   -0.7710 O   0  0  0  0  0  0  0  0  0  0  0  0
   -2.2850    0.2890    0.5430 O   0  0  0  0  0  0  0  0  0  0  0  0
   -1.8990   -0.8960    1.0180 C   0  0  0  0  0  0  0  0  0  0  0  0
   -2.9930   -1.9070    1.0540 C   0  0  0  0  0  0  0  0  0  0  0  0
   -4.0240   -1.4310    1.8870 O   0  0  0  0  0  0  0  0  0  0  0  0
   -1.5810    0.3900   -1.7460 C   0  0  2  0  0  0  0  0  0  0  0  0
   -1.0500   -0.8650   -1.7810 O   0  0  0  0  0  0  0  0  0  0  0  0
   -0.6800    1.5490   -1.8040 C   0  0  0  0  0  0  0  0  0  0  0  0
    0.1100    1.9280   -0.6080 C   0  0  2  0  0  0  0  0  0  0  0  0
   -0.5990    2.2300    0.5240 O   0  0  0  0  0  0  0  0  0  0  0  0
    0.7780    3.1650   -0.9380 O   0  0  0  0  0  0  0  0  0  0  0  0
    1.2400    0.9430   -0.4070 C   0  0  1  0  0  0  0  0  0  0  0  0
    1.8470    0.7620   -1.6510 O   0  0  0  0  0  0  0  0  0  0  0  0
    2.1260    1.3780    0.5550 O   0  0  0  0  0  0  0  0  0  0  0  0
    2.3480    0.5340    1.6030 C   0  0  0  0  0  0  0  0  0  0  0  0
    2.9190   -0.8090    1.2150 C   0  0  1  0  0  0  0  0  0  0  0  0
    4.3370   -0.6580    0.6820 C   0  0  0  0  0  0  0  0  0  0  0  0
    5.1180   -1.5130    1.4890 O   0  0  0  0  0  0  0  0  0  0  0  0
    4.1670   -2.4430    1.8820 C   0  0  0  0  0  0  0  0  0  0  0  0
    3.1240   -1.6220    2.3280 O   0  0  0  0  0  0  0  0  0  0  0  0
  2  1  1  6
  2  3  1  0
  2  4  1  0
  2  8  1  0
  4  5  1  0
  5  6  1  0
  6  7  1  0
  8  9  1  1
  8 10  1  0
 10 11  1  0
 11 12  1  1
 11 13  1  0
 11 14  1  0
 14 15  1  6
 14 16  1  0
 16 17  1  0
 18 17  1  1
 18 19  1  0
 18 22  1  0
 19 20  1  0
 20 21  1  0
 21 22  1  0
M  END
