
     RDKit          3D

 11 11  0  0  0  0  0  0  0  0999 V2000
    1.6630    2.0670   -0.7010 C   0  0  0  0  0  0  0  0  0  0  0  0
    1.8600    0.7710   -0.4950 C   0  0  0  0  0  0  0  0  0  0  0  0
    0.7340   -0.0730   -0.1240 C   0  0  0  0  0  0  0  0  0  0  0  0
   -0.5010    0.4580    0.0090 N   0  0  0  0  0  0  0  0  0  0  0  0
   -1.5500   -0.3110    0.3510 C   0  0  0  0  0  0  0  0  0  0  0  0
   -2.8370    0.1860    0.5000 O   0  0  0  0  0  0  0  0  0  0  0  0
   -3.1830    1.5290    0.3130 C   0  0  0  0  0  0  0  0  0  0  0  0
   -1.3170   -1.6540    0.5590 C   0  0  0  0  0  0  0  0  0  0  0  0
   -0.0800   -2.1870    0.4260 N   0  0  0  0  0  0  0  0  0  0  0  0
    0.9700   -1.4210    0.0840 C   0  0  0  0  0  0  0  0  0  0  0  0
    2.3310   -1.9470   -0.0740 C   0  0  0  0  0  0  0  0  0  0  0  0
  1  2  2  0
  2  3  1  0
  3  4  2  0
  3 10  1  0
  4  5  1  0
  5  6  1  0
  5  8  2  0
  6  7  1  0
  8  9  1  0
  9 10  2  0
 10 11  1  0
M  END
