
     RDKit          3D

 11 11  0  0  0  0  0  0  0  0999 V2000
    2.6470    0.3800   -1.2000 C   0  0  0  0  0  0  0  0  0  0  0  0
    1.3330    0.8510   -1.4610 O   0  0  0  0  0  0  0  0  0  0  0  0
    0.2690    0.4070   -0.6660 C   0  0  0  0  0  0  0  0  0  0  0  0
   -0.2420   -0.7940   -0.7630 C   0  0  0  0  0  0  0  0  0  0  0  0
    0.1430   -1.8700   -1.6480 C   0  0  0  0  0  0  0  0  0  0  0  0
    0.4510   -2.7270   -2.3790 N   0  0  0  0  0  0  0  0  0  0  0  0
   -1.3300   -0.8870    0.2240 C   0  0  1  0  0  0  0  0  0  0  0  0
   -1.1830   -2.1470    1.0450 C   0  0  0  0  0  0  0  0  0  0  0  0
   -1.1820    0.3230    1.1120 C   0  0  0  0  0  0  0  0  0  0  0  0
   -0.3530    1.1980    0.3050 N   0  0  0  0  0  0  0  0  0  0  0  0
   -0.2180    2.6450    0.5050 C   0  0  0  0  0  0  0  0  0  0  0  0
  1  2  1  0
  2  3  1  0
  3  4  2  0
  3 10  1  0
  4  5  1  0
  4  7  1  0
  5  6  3  0
  7  8  1  1
  7  9  1  0
  9 10  1  0
 10 11  1  0
M  END
