
     RDKit          3D

 11 11  0  0  0  0  0  0  0  0999 V2000
   -0.1870    0.7310    2.2110 C   0  0  0  0  0  0  0  0  0  0  0  0
    0.7930    1.0110    1.3840 C   0  0  0  0  0  0  0  0  0  0  0  0
    1.6390    2.1700    1.6770 C   0  0  0  0  0  0  0  0  0  0  0  0
    1.4180    2.8700    2.7080 N   0  0  0  0  0  0  0  0  0  0  0  0
    1.0030    0.1890    0.1790 C   0  0  0  0  0  0  0  0  0  0  0  0
   -0.0750   -0.7950    0.0820 N   0  0  0  0  0  0  0  0  0  0  0  0
    0.2550   -1.7990   -0.9080 C   0  0  0  0  0  0  0  0  0  0  0  0
   -0.8260   -2.3420   -1.7350 C   0  0  0  0  0  0  0  0  0  0  0  0
   -1.8620   -1.4820   -2.0640 O   0  0  0  0  0  0  0  0  0  0  0  0
   -1.3760   -0.1900   -1.8250 C   0  0  0  0  0  0  0  0  0  0  0  0
   -1.3100   -0.0970   -0.3070 C   0  0  0  0  0  0  0  0  0  0  0  0
  1  2  2  0
  2  3  1  0
  2  5  1  0
  3  4  2  0
  5  6  1  0
  6  7  1  0
  6 11  1  0
  7  8  1  0
  8  9  1  0
  9 10  1  0
 10 11  1  0
M  END
