
     RDKit          3D

 10 10  0  0  0  0  0  0  0  0999 V2000
    3.7510    0.0470   -0.3150 C   0  0  0  0  0  0  0  0  0  0  0  0
    2.6740   -0.8040    0.3160 C   0  0  0  0  0  0  0  0  0  0  0  0
    1.3560   -0.0320    0.1580 C   0  0  0  0  0  0  0  0  0  0  0  0
    0.2610   -0.7420    0.7200 N   0  0  0  0  0  0  0  0  0  0  0  0
   -0.9770   -0.6250    0.4870 C   0  0  0  0  0  0  0  0  0  0  0  0
   -1.9590   -1.4080    1.1280 O   0  0  0  0  0  0  0  0  0  0  0  0
   -3.1670   -0.6930    0.9450 C   0  0  0  0  0  0  0  0  0  0  0  0
   -2.9860   -0.1790   -0.4900 C   0  0  0  0  0  0  0  0  0  0  0  0
   -1.6060    0.2640   -0.4160 N   0  0  0  0  0  0  0  0  0  0  0  0
   -0.9980    1.3660   -1.1040 C   0  0  0  0  0  0  0  0  0  0  0  0
  1  2  1  0
  2  3  1  0
  3  4  1  0
  4  5  2  3
  5  6  1  0
  5  9  1  0
  6  7  1  0
  7  8  1  0
  8  9  1  0
  9 10  1  0
M  END
