
     RDKit          3D

 11 11  0  0  0  0  0  0  0  0999 V2000
   -1.9900   -2.3090   -0.1900 C   0  0  0  0  0  0  0  0  0  0  0  0
   -0.8680   -1.5070    0.1290 O   0  0  0  0  0  0  0  0  0  0  0  0
   -0.9870   -0.1400   -0.0550 C   0  0  0  0  0  0  0  0  0  0  0  0
   -2.1510    0.4220   -0.5180 N   0  0  0  0  0  0  0  0  0  0  0  0
   -2.2020    1.7650   -0.6780 C   0  0  0  0  0  0  0  0  0  0  0  0
   -1.1060    2.5080   -0.3760 C   0  0  0  0  0  0  0  0  0  0  0  0
    0.0600    1.9840    0.0840 N   0  0  0  0  0  0  0  0  0  0  0  0
    0.1040    0.6310    0.2440 C   0  0  0  0  0  0  0  0  0  0  0  0
    1.3220    0.0320    0.7880 C   0  0  2  0  0  0  0  0  0  0  0  0
    2.4730    1.0270    0.5920 C   0  0  0  0  0  0  0  0  0  0  0  0
    1.6970   -1.3050    0.2950 C   0  0  0  0  0  0  0  0  0  0  0  0
  1  2  1  0
  2  3  1  0
  3  4  2  0
  3  8  1  0
  4  5  1  0
  5  6  2  0
  6  7  1  0
  7  8  2  0
  8  9  1  0
  9 10  1  6
  9 11  1  0
M  END
