
     RDKit          3D

 11 10  0  0  0  0  0  0  0  0999 V2000
    3.9150    1.1080    0.2180 C   0  0  0  0  0  0  0  0  0  0  0  0
    3.4360    0.0820   -0.6230 O   0  0  0  0  0  0  0  0  0  0  0  0
    2.1100    0.1140   -0.9680 N   0  0  0  0  0  0  0  0  0  0  0  0
    1.2160   -0.5980   -0.3290 C   0  0  0  0  0  0  0  0  0  0  0  0
    1.6460   -1.4560    0.7910 C   0  0  0  0  0  0  0  0  0  0  0  0
   -0.1250   -0.4870   -0.7710 N   0  0  0  0  0  0  0  0  0  0  0  0
   -0.7370   -1.6030   -1.4510 C   0  0  0  0  0  0  0  0  0  0  0  0
   -0.8670    0.6990   -0.5550 C   0  0  0  0  0  0  0  0  0  0  0  0
   -2.0480    0.7490   -0.0060 C   0  0  0  0  0  0  0  0  0  0  0  0
   -2.7230    2.0590    0.1650 C   0  0  0  0  0  0  0  0  0  0  0  0
   -2.7390   -0.4700    0.4550 C   0  0  0  0  0  0  0  0  0  0  0  0
  1  2  1  0
  2  3  1  0
  3  4  2  3
  4  5  1  0
  4  6  1  0
  6  7  1  0
  6  8  1  0
  8  9  2  3
  9 10  1  0
  9 11  1  0
M  END
