
     RDKit          3D

 18 18  0  0  0  0  0  0  0  0999 V2000
    1.9110   -0.7800    1.3230 O   0  0  0  0  0  0  0  0  0  0  0  0
    1.1540   -0.5250    0.3530 C   0  0  0  0  0  0  0  0  0  0  0  0
   -0.3140   -0.3730    0.5690 C   0  0  0  0  0  0  0  0  0  0  0  0
   -0.9900   -0.0990   -0.6380 O   0  0  0  0  0  0  0  0  0  0  0  0
   -2.3750    0.0770   -0.5980 C   0  0  0  0  0  0  0  0  0  0  0  0
   -2.8990    1.0960   -1.2000 C   0  0  0  0  0  0  0  0  0  0  0  0
   -4.2890    1.5230   -1.3220 C   0  0  0  0  0  0  0  0  0  0  0  0
   -5.4490    0.4430   -0.4930 S   0  0  0  0  0  0  0  0  0  0  0  0
   -4.4760   -0.8610    0.2440 C   0  0  0  0  0  0  0  0  0  0  0  0
   -3.1620   -0.9060    0.1260 C   0  0  0  0  0  0  0  0  0  0  0  0
    1.7580   -0.3950   -0.9260 N   0  0  0  0  0  0  0  0  0  0  0  0
    3.1560   -0.5450   -1.1020 N   0  0  0  0  0  0  0  0  0  0  0  0
    4.0850    0.2300   -0.3710 C   0  0  0  0  0  0  0  0  0  0  0  0
    3.6820    1.0740    0.4580 O   0  0  0  0  0  0  0  0  0  0  0  0
    5.5310    0.0390   -0.5880 C   0  0  2  0  0  0  0  0  0  0  0  0
    5.8630   -1.2860   -0.2850 F   0  0  0  0  0  0  0  0  0  0  0  0
    6.2330    0.8160    0.2880 F   0  0  0  0  0  0  0  0  0  0  0  0
    5.8930    0.2740   -1.9130 F   0  0  0  0  0  0  0  0  0  0  0  0
  1  2  2  0
  2  3  1  0
  2 11  1  0
  3  4  1  0
  4  5  1  0
  5  6  2  0
  5 10  1  0
  6  7  1  0
  7  8  1  0
  8  9  1  0
  9 10  2  0
 11 12  1  0
 12 13  1  0
 13 14  2  0
 13 15  1  0
 15 16  1  1
 15 17  1  0
 15 18  1  0
M  END
