
     RDKit          3D

 18 18  0  0  0  0  0  0  0  0999 V2000
    0.9090    0.0400    0.6450 O   0  0  0  0  0  0  0  0  0  0  0  0
    1.1150   -1.0600    0.0690 C   0  0  0  0  0  0  0  0  0  0  0  0
    2.4470   -1.4970   -0.1460 N   0  0  0  0  0  0  0  0  0  0  0  0
    3.6070   -0.7620    0.2520 C   0  0  0  0  0  0  0  0  0  0  0  0
    3.6910    0.6050   -0.3900 C   0  0  0  0  0  0  0  0  0  0  0  0
    4.9790    1.2510    0.1390 C   0  0  2  0  0  0  0  0  0  0  0  0
    6.0760    0.4870   -0.2010 F   0  0  0  0  0  0  0  0  0  0  0  0
    4.9510    1.3050    1.5260 F   0  0  0  0  0  0  0  0  0  0  0  0
    5.1350    2.4950   -0.4190 F   0  0  0  0  0  0  0  0  0  0  0  0
   -0.0230   -1.8040   -0.3330 N   0  0  0  0  0  0  0  0  0  0  0  0
   -1.3250   -1.3470   -0.1070 N   0  0  0  0  0  0  0  0  0  0  0  0
   -1.8220   -0.1390   -0.6770 C   0  0  0  0  0  0  0  0  0  0  0  0
   -1.0010    0.4960   -1.4080 O   0  0  0  0  0  0  0  0  0  0  0  0
   -3.1670    0.3350   -0.4450 C   0  0  0  0  0  0  0  0  0  0  0  0
   -3.7730    1.4190   -0.8940 C   0  0  0  0  0  0  0  0  0  0  0  0
   -5.1650    1.4620   -0.3680 C   0  0  0  0  0  0  0  0  0  0  0  0
   -5.0720    0.6640    0.7690 O   0  0  0  0  0  0  0  0  0  0  0  0
   -4.1850   -0.3530    0.4010 C   0  0  0  0  0  0  0  0  0  0  0  0
  1  2  2  0
  2  3  1  0
  2 10  1  0
  3  4  1  0
  4  5  1  0
  5  6  1  0
  6  7  1  1
  6  8  1  0
  6  9  1  0
 10 11  1  0
 11 12  1  0
 12 13  2  0
 12 14  1  0
 14 15  2  0
 14 18  1  0
 15 16  1  0
 16 17  1  0
 17 18  1  0
M  END
