
     RDKit          3D

 25 27  0  0  0  0  0  0  0  0999 V2000
    5.0570   -2.6490    0.4660 C   0  0  0  0  0  0  0  0  0  0  0  0
    3.8600   -2.2970    0.0040 C   0  0  0  0  0  0  0  0  0  0  0  0
    3.7880   -1.0960   -0.8800 C   0  0  0  0  0  0  0  0  0  0  0  0
    2.8740   -0.0240   -0.2510 C   0  0  1  0  0  0  0  0  0  0  0  0
    2.8340    1.1350   -1.1540 C   0  0  0  0  0  0  0  0  0  0  0  0
    1.5150    1.4510   -1.6660 C   0  0  0  0  0  0  0  0  0  0  0  0
    0.3290    1.0660   -1.1630 C   0  0  0  0  0  0  0  0  0  0  0  0
   -0.9230    1.4660   -1.7960 C   0  0  0  0  0  0  0  0  0  0  0  0
   -1.9660    0.8520   -2.2630 C   0  0  0  0  0  0  0  0  0  0  0  0
   -2.3960   -0.4800   -2.3900 N   0  0  0  0  0  0  0  0  0  0  0  0
   -2.7500   -1.5290   -1.5340 C   0  0  0  0  0  0  0  0  0  0  0  0
   -3.6140   -1.6860   -0.5570 C   0  0  0  0  0  0  0  0  0  0  0  0
   -4.7420   -0.4820    0.0720 S   0  0  2  0  0  0  0  0  0  0  0  0
   -5.9580   -1.1950    0.5630 O   0  0  0  0  0  0  0  0  0  0  0  0
   -5.1880    0.4810   -0.9710 O   0  0  0  0  0  0  0  0  0  0  0  0
   -4.0670    0.3480    1.5190 C   0  0  0  0  0  0  0  0  0  0  0  0
   -2.6020    0.3120    1.5100 C   0  0  0  0  0  0  0  0  0  0  0  0
   -1.7630    0.7690    2.5060 N   0  0  0  0  0  0  0  0  0  0  0  0
   -0.4360    1.2810    2.2400 C   0  0  0  0  0  0  0  0  0  0  0  0
    0.1540    2.1900    3.0900 N   0  0  0  0  0  0  0  0  0  0  0  0
    1.3740    2.5280    2.6540 C   0  0  0  0  0  0  0  0  0  0  0  0
    1.5150    1.8140    1.5340 N   0  0  0  0  0  0  0  0  0  0  0  0
    0.4090    1.0590    1.2920 N   0  0  0  0  0  0  0  0  0  0  0  0
    0.4060    0.2160    0.1010 C   0  0  2  0  0  0  0  0  0  0  0  0
    1.5820   -0.6980    0.0150 C   0  0  0  0  0  0  0  0  0  0  0  0
  1  2  2  0
  2  3  1  0
  4  3  1  6
  4  5  1  0
  4 25  1  0
  5  6  1  0
  6  7  2  0
  7  8  1  0
  7 24  1  0
  8  9  2  0
  9 10  1  0
 10 11  1  0
 11 12  2  0
 12 13  1  0
 13 14  2  0
 13 15  2  0
 13 16  1  1
 16 17  1  0
 17 18  1  0
 18 19  1  0
 19 20  2  0
 19 23  1  0
 20 21  1  0
 21 22  2  0
 22 23  1  0
 23 24  1  0
 24 25  1  6
M  END
