
     RDKit          3D

 21 23  0  0  0  0  0  0  0  0999 V2000
   -2.1270   -1.3370    2.4170 C   0  0  0  0  0  0  0  0  0  0  0  0
   -1.5160   -0.9480    1.1520 N   0  0  1  0  0  0  0  0  0  0  0  0
   -2.0650   -1.7450    0.0440 C   0  0  1  0  0  0  0  0  0  0  0  0
   -3.4790   -1.2240   -0.1430 C   0  0  0  0  0  0  0  0  0  0  0  0
   -3.5320    0.0300    0.7060 C   0  0  0  0  0  0  0  0  0  0  0  0
   -2.0570    0.3610    0.8220 C   0  0  2  0  0  0  0  0  0  0  0  0
   -1.6010    0.8370   -0.5420 C   0  0  1  0  0  0  0  0  0  0  0  0
   -1.0990    2.2130   -0.3920 C   0  0  0  0  0  0  0  0  0  0  0  0
    0.0780    2.4810   -0.6830 O   0  0  0  0  0  0  0  0  0  0  0  0
   -1.9380    3.1960    0.0700 O   0  0  0  0  0  0  0  0  0  0  0  0
   -0.6070   -0.0940   -1.1700 C   0  0  1  0  0  0  0  0  0  0  0  0
    0.6740   -0.0360   -0.6260 O   0  0  0  0  0  0  0  0  0  0  0  0
    1.7900    0.3050   -1.3680 C   0  0  0  0  0  0  0  0  0  0  0  0
    1.6020    0.5680   -2.5840 O   0  0  0  0  0  0  0  0  0  0  0  0
    3.1270    0.3730   -0.8320 C   0  0  0  0  0  0  0  0  0  0  0  0
    4.1960    0.7200   -1.6270 C   0  0  0  0  0  0  0  0  0  0  0  0
    5.4780    0.7830   -1.1000 C   0  0  0  0  0  0  0  0  0  0  0  0
    5.7100    0.4990    0.2320 C   0  0  0  0  0  0  0  0  0  0  0  0
    4.6170    0.1550    1.0010 C   0  0  0  0  0  0  0  0  0  0  0  0
    3.3400    0.0880    0.4970 C   0  0  0  0  0  0  0  0  0  0  0  0
   -1.1970   -1.4910   -1.1450 C   0  0  0  0  0  0  0  0  0  0  0  0
  2  1  1  1
  2  3  1  0
  2  6  1  0
  3  4  1  6
  3 21  1  0
  4  5  1  0
  6  5  1  6
  6  7  1  0
  7  8  1  1
  7 11  1  0
  8  9  2  0
  8 10  1  0
 11 12  1  1
 11 21  1  0
 12 13  1  0
 13 14  2  0
 13 15  1  0
 15 16  2  0
 15 20  1  0
 16 17  1  0
 17 18  2  0
 18 19  1  0
 19 20  2  0
M  CHG  1   2   1
M  END
