
     RDKit          3D

 24 27  0  0  0  0  0  0  0  0999 V2000
   -2.9300    1.8090   -1.3320 C   0  0  0  0  0  0  0  0  0  0  0  0
   -2.6580    0.7170   -0.2740 C   0  0  1  0  0  0  0  0  0  0  0  0
   -3.8620   -0.1300   -0.1340 C   0  0  0  0  0  0  0  0  0  0  0  0
   -4.4170   -1.0020   -1.0120 C   0  0  0  0  0  0  0  0  0  0  0  0
   -5.4870   -1.5400   -0.4680 O   0  0  0  0  0  0  0  0  0  0  0  0
   -5.6690   -1.0640    0.7370 C   0  0  0  0  0  0  0  0  0  0  0  0
   -4.6820   -0.1940    0.9650 N   0  0  0  0  0  0  0  0  0  0  0  0
   -1.5230   -0.0420   -0.6440 N   0  0  0  0  0  0  0  0  0  0  0  0
   -1.4590   -1.4060   -0.2530 C   0  0  0  0  0  0  0  0  0  0  0  0
   -1.3860   -1.5800    1.2470 C   0  0  0  0  0  0  0  0  0  0  0  0
   -0.7500   -0.4290    1.9330 C   0  0  0  0  0  0  0  0  0  0  0  0
    0.2030    0.3550    1.0930 C   0  0  1  0  0  0  0  0  0  0  0  0
    1.4910   -0.3800    1.0280 C   0  0  0  0  0  0  0  0  0  0  0  0
    1.5390   -1.5300    1.5640 O   0  0  0  0  0  0  0  0  0  0  0  0
    2.6880    0.1660    0.3720 C   0  0  0  0  0  0  0  0  0  0  0  0
    2.7130    1.4150   -0.1910 C   0  0  0  0  0  0  0  0  0  0  0  0
    3.8300    1.9120   -0.8060 N   0  0  0  0  0  0  0  0  0  0  0  0
    4.9690    1.2110   -0.8980 C   0  0  0  0  0  0  0  0  0  0  0  0
    6.1800    1.4980   -1.4500 N   0  0  0  0  0  0  0  0  0  0  0  0
    6.9410    0.4400   -1.2500 N   0  0  0  0  0  0  0  0  0  0  0  0
    6.2580   -0.5240   -0.5830 C   0  0  0  0  0  0  0  0  0  0  0  0
    4.9840   -0.0550   -0.3420 C   0  0  0  0  0  0  0  0  0  0  0  0
    3.8530   -0.5680    0.2860 C   0  0  0  0  0  0  0  0  0  0  0  0
   -0.2750    0.6550   -0.3040 C   0  0  0  0  0  0  0  0  0  0  0  0
  2  1  1  6
  2  3  1  0
  2  8  1  0
  3  4  2  0
  3  7  1  0
  4  5  1  0
  5  6  1  0
  6  7  2  0
  8  9  1  0
  8 24  1  0
  9 10  1  0
 10 11  1  0
 11 12  1  0
 12 13  1  6
 12 24  1  0
 13 14  2  0
 13 15  1  0
 15 16  2  0
 15 23  1  0
 16 17  1  0
 17 18  2  0
 18 19  1  0
 18 22  1  0
 19 20  1  0
 20 21  2  0
 21 22  1  0
 22 23  2  0
M  END
