
     RDKit          3D

 25 28  0  0  0  0  0  0  0  0999 V2000
   -2.8590    2.6190    0.0460 C   0  0  0  0  0  0  0  0  0  0  0  0
   -1.6290    1.7990   -0.0870 C   0  0  2  0  0  0  0  0  0  0  0  0
   -1.2840    1.4470   -1.5260 C   0  0  0  0  0  0  0  0  0  0  0  0
   -0.1320    0.5090   -1.3090 C   0  0  1  0  0  0  0  0  0  0  0  0
    1.1050    1.2190   -1.6150 N   0  0  0  0  0  0  0  0  0  0  0  0
    2.1100    0.2450   -2.6500 S   0  0  2  0  0  0  0  0  0  0  0  0
    2.5020    1.0080   -3.8800 O   0  0  0  0  0  0  0  0  0  0  0  0
    1.3720   -1.0170   -3.0050 O   0  0  0  0  0  0  0  0  0  0  0  0
    3.5820   -0.1130   -1.7380 C   0  0  0  0  0  0  0  0  0  0  0  0
    4.7930    0.4400   -2.1210 C   0  0  0  0  0  0  0  0  0  0  0  0
    5.9270    0.2060   -1.3860 C   0  0  0  0  0  0  0  0  0  0  0  0
    5.8760   -0.5800   -0.2550 C   0  0  0  0  0  0  0  0  0  0  0  0
    6.8020   -0.9610    0.6470 N   0  0  0  0  0  0  0  0  0  0  0  0
    6.1910   -1.7300    1.5690 C   0  0  0  0  0  0  0  0  0  0  0  0
    4.8910   -1.8700    1.3050 N   0  0  0  0  0  0  0  0  0  0  0  0
    4.6680   -1.1570    0.1640 C   0  0  0  0  0  0  0  0  0  0  0  0
    3.5540   -0.8920   -0.6130 C   0  0  0  0  0  0  0  0  0  0  0  0
   -0.2020    0.1130    0.1720 C   0  0  0  0  0  0  0  0  0  0  0  0
   -1.5200    0.6090    0.6060 N   0  0  0  0  0  0  0  0  0  0  0  0
   -2.4740   -0.3750    0.7280 C   0  0  2  0  0  0  0  0  0  0  0  0
   -3.8660   -0.1880    0.2590 C   0  0  0  0  0  0  0  0  0  0  0  0
   -4.6150   -1.5150    0.4740 C   0  0  0  0  0  0  0  0  0  0  0  0
   -4.6610   -1.7080    1.9740 C   0  0  0  0  0  0  0  0  0  0  0  0
   -3.2810   -2.0470    2.3540 N   0  0  0  0  0  0  0  0  0  0  0  0
   -2.4840   -0.8540    2.1730 C   0  0  0  0  0  0  0  0  0  0  0  0
  2  1  1  6
  2  3  1  0
  2 19  1  0
  3  4  1  0
  4  5  1  1
  4 18  1  0
  6  5  1  1
  6  7  2  0
  6  8  2  0
  6  9  1  0
  9 10  2  0
  9 17  1  0
 10 11  1  0
 11 12  2  0
 12 13  1  0
 12 16  1  0
 13 14  2  0
 14 15  1  0
 15 16  1  0
 16 17  2  0
 18 19  1  0
 20 19  1  1
 20 21  1  0
 20 25  1  0
 21 22  1  0
 22 23  1  0
 23 24  1  0
 24 25  1  0
M  END
