
     RDKit          3D

 25 28  0  0  0  0  0  0  0  0999 V2000
   -5.1300    1.4760    0.4640 C   0  0  0  0  0  0  0  0  0  0  0  0
   -4.8000    0.0540    0.7410 C   0  0  0  0  0  0  0  0  0  0  0  0
   -3.7610   -0.5610   -0.1920 C   0  0  1  0  0  0  0  0  0  0  0  0
   -4.1870   -0.5420   -1.6380 C   0  0  0  0  0  0  0  0  0  0  0  0
   -2.5000    0.1140   -0.0850 N   0  0  0  0  0  0  0  0  0  0  0  0
   -2.3330    1.3720   -0.4730 N   0  0  0  0  0  0  0  0  0  0  0  0
   -1.1100    1.7870   -0.2230 C   0  0  0  0  0  0  0  0  0  0  0  0
   -0.5060    3.1350   -0.4670 C   0  0  0  0  0  0  0  0  0  0  0  0
   -0.4210    0.7260    0.3720 C   0  0  0  0  0  0  0  0  0  0  0  0
    0.9760    0.7400    0.6910 N   0  0  0  0  0  0  0  0  0  0  0  0
    1.9080    0.0260   -0.1540 C   0  0  0  0  0  0  0  0  0  0  0  0
    1.4120   -0.6040   -1.0990 O   0  0  0  0  0  0  0  0  0  0  0  0
    3.3570    0.0590    0.0880 C   0  0  0  0  0  0  0  0  0  0  0  0
    4.3700   -0.6280   -0.5480 C   0  0  0  0  0  0  0  0  0  0  0  0
    5.5680   -0.1990   -0.0200 N   0  0  0  0  0  0  0  0  0  0  0  0
    5.2950    0.7060    0.8890 C   0  0  0  0  0  0  0  0  0  0  0  0
    3.9810    0.8870    0.9850 N   0  0  0  0  0  0  0  0  0  0  0  0
    6.8620    1.2620    1.5570 S   0  0  0  0  0  0  0  0  0  0  0  0
    7.8760    0.5500    0.1770 C   0  0  0  0  0  0  0  0  0  0  0  0
    6.9220   -0.5110   -0.2410 C   0  0  0  0  0  0  0  0  0  0  0  0
    7.4100   -1.5910   -0.7580 O   0  0  0  0  0  0  0  0  0  0  0  0
   -1.3070   -0.3220    0.4520 C   0  0  0  0  0  0  0  0  0  0  0  0
   -1.1350   -1.6160    1.1130 C   0  0  1  0  0  0  0  0  0  0  0  0
   -1.7410   -2.8210    0.3780 C   0  0  0  0  0  0  0  0  0  0  0  0
   -0.2920   -2.7460    0.9200 C   0  0  0  0  0  0  0  0  0  0  0  0
  1  2  1  0
  2  3  1  0
  3  4  1  6
  3  5  1  0
  5  6  1  0
  5 22  1  0
  6  7  2  0
  7  8  1  0
  7  9  1  0
  9 10  1  0
  9 22  2  0
 10 11  1  0
 11 12  2  0
 11 13  1  0
 13 14  2  0
 13 17  1  0
 14 15  1  0
 15 16  1  0
 15 20  1  0
 16 17  2  0
 16 18  1  0
 18 19  1  0
 19 20  1  0
 20 21  2  0
 23 22  1  6
 23 24  1  0
 23 25  1  0
 24 25  1  0
M  END
