
     RDKit          3D

 24 26  0  0  0  0  0  0  0  0999 V2000
   -4.4710    1.8340    2.8490 C   0  0  0  0  0  0  0  0  0  0  0  0
   -3.4780    2.2090    1.7520 C   0  0  0  0  0  0  0  0  0  0  0  0
   -3.5320    1.1970    0.6860 C   0  0  0  0  0  0  0  0  0  0  0  0
   -4.4110    1.3550   -0.3630 C   0  0  0  0  0  0  0  0  0  0  0  0
   -4.4330    0.3870   -1.3440 C   0  0  0  0  0  0  0  0  0  0  0  0
   -3.6120   -0.7290   -1.3160 C   0  0  0  0  0  0  0  0  0  0  0  0
   -3.6660   -1.7560   -2.3990 C   0  0  0  0  0  0  0  0  0  0  0  0
   -2.7230   -0.8920   -0.2560 C   0  0  0  0  0  0  0  0  0  0  0  0
   -1.8690   -2.0260   -0.2010 N   0  0  0  0  0  0  0  0  0  0  0  0
   -0.9270   -2.2630    0.8570 C   0  0  0  0  0  0  0  0  0  0  0  0
    0.0510   -1.1990    0.9840 N   0  0  0  0  0  0  0  0  0  0  0  0
    0.9350   -1.5710    2.0740 C   0  0  0  0  0  0  0  0  0  0  0  0
    1.8790   -0.4630    2.4380 C   0  0  0  0  0  0  0  0  0  0  0  0
    2.5210   -0.0140    1.2860 O   0  0  0  0  0  0  0  0  0  0  0  0
    2.0940   -0.3130    0.0150 C   0  0  0  0  0  0  0  0  0  0  0  0
    2.8780   -0.0700   -1.0120 C   0  0  0  0  0  0  0  0  0  0  0  0
    4.2130    0.5150   -0.8960 C   0  0  0  0  0  0  0  0  0  0  0  0
    4.4820    1.5030    0.0270 C   0  0  0  0  0  0  0  0  0  0  0  0
    5.7400    2.0210    0.1080 C   0  0  0  0  0  0  0  0  0  0  0  0
    6.7720    1.6320   -0.6660 N   0  0  0  0  0  0  0  0  0  0  0  0
    6.5070    0.6660   -1.5690 C   0  0  0  0  0  0  0  0  0  0  0  0
    5.2550    0.0990   -1.7020 C   0  0  0  0  0  0  0  0  0  0  0  0
    0.7630   -0.9060   -0.2160 C   0  0  0  0  0  0  0  0  0  0  0  0
   -2.7190    0.0880    0.7120 C   0  0  0  0  0  0  0  0  0  0  0  0
  1  2  1  0
  2  3  1  0
  3  4  2  0
  3 24  1  0
  4  5  1  0
  5  6  2  0
  6  7  1  0
  6  8  1  0
  8  9  1  0
  8 24  2  0
  9 10  1  0
 10 11  1  0
 11 12  1  0
 11 23  1  0
 12 13  1  0
 13 14  1  0
 14 15  1  0
 15 16  2  3
 15 23  1  0
 16 17  1  0
 17 18  2  0
 17 22  1  0
 18 19  1  0
 19 20  2  0
 20 21  1  0
 21 22  2  0
M  CHG  1  20   1
M  END
