
     RDKit          3D

 24 26  0  0  0  0  0  0  0  0999 V2000
   -5.6090    0.3410   -0.1030 C   0  0  0  0  0  0  0  0  0  0  0  0
   -4.1920    0.0420   -0.5390 C   0  0  0  0  0  0  0  0  0  0  0  0
   -3.3170   -0.3640    0.6260 C   0  0  1  0  0  0  0  0  0  0  0  0
   -3.8450   -1.6080    1.3070 C   0  0  0  0  0  0  0  0  0  0  0  0
   -3.9200   -2.7920    0.4040 C   0  0  0  0  0  0  0  0  0  0  0  0
   -1.9340   -0.5010    0.2470 N   0  0  0  0  0  0  0  0  0  0  0  0
   -1.1120    0.4590    0.1050 C   0  0  0  0  0  0  0  0  0  0  0  0
   -1.5170    1.8430    0.3230 C   0  0  0  0  0  0  0  0  0  0  0  0
   -0.6480    2.8150    0.1700 C   0  0  0  0  0  0  0  0  0  0  0  0
   -1.0900    4.2190    0.3990 C   0  0  0  0  0  0  0  0  0  0  0  0
    0.7390    2.6200   -0.2150 C   0  0  0  0  0  0  0  0  0  0  0  0
    1.1670    1.3820   -0.4270 C   0  0  0  0  0  0  0  0  0  0  0  0
    2.5590    1.1580   -0.8150 C   0  0  0  0  0  0  0  0  0  0  0  0
    3.3580    2.1390   -0.9490 O   0  0  0  0  0  0  0  0  0  0  0  0
    2.9880   -0.2150   -1.0380 C   0  0  0  0  0  0  0  0  0  0  0  0
    4.3270   -0.4190   -1.4100 N   0  0  0  0  0  0  0  0  0  0  0  0
    5.3580   -0.5250   -0.4020 C   0  0  0  0  0  0  0  0  0  0  0  0
    5.2650   -0.8430    0.8230 N   0  0  0  0  0  0  0  0  0  0  0  0
    6.6690   -0.7020    1.0480 C   0  0  0  0  0  0  0  0  0  0  0  0
    6.8030   -0.3350   -0.3530 C   0  0  0  0  0  0  0  0  0  0  0  0
    2.1130   -1.1910   -0.8830 C   0  0  0  0  0  0  0  0  0  0  0  0
    0.7190   -1.0190   -0.4990 C   0  0  0  0  0  0  0  0  0  0  0  0
   -0.2060   -2.1900   -0.3470 C   0  0  0  0  0  0  0  0  0  0  0  0
    0.2910    0.2270   -0.2860 C   0  0  0  0  0  0  0  0  0  0  0  0
  1  2  1  0
  3  2  1  6
  3  4  1  0
  3  6  1  0
  4  5  1  0
  6  7  2  3
  7  8  1  0
  7 24  1  0
  8  9  2  0
  9 10  1  0
  9 11  1  0
 11 12  2  0
 12 13  1  0
 12 24  1  0
 13 14  2  0
 13 15  1  0
 15 16  1  0
 15 21  2  0
 16 17  1  0
 17 18  2  0
 17 20  1  0
 18 19  1  0
 19 20  1  0
 21 22  1  0
 22 23  1  0
 22 24  2  0
M  CHG  1  18   1
M  END
