
     RDKit          3D

 24 26  0  0  0  0  0  0  0  0999 V2000
   -7.4560   -1.3010   -0.0540 C   0  0  0  0  0  0  0  0  0  0  0  0
   -6.3910   -1.9500   -0.8680 C   0  0  0  0  0  0  0  0  0  0  0  0
   -5.1600   -1.5290   -0.8470 C   0  0  0  0  0  0  0  0  0  0  0  0
   -4.7040   -0.3820   -0.0260 C   0  0  0  0  0  0  0  0  0  0  0  0
   -3.4410    0.0140   -0.0340 C   0  0  0  0  0  0  0  0  0  0  0  0
   -2.9690    1.1340    0.7590 C   0  0  0  0  0  0  0  0  0  0  0  0
   -3.8930    1.8230    1.5650 C   0  0  0  0  0  0  0  0  0  0  0  0
   -3.4920    2.8970    2.3240 C   0  0  0  0  0  0  0  0  0  0  0  0
   -2.1940    3.3040    2.3010 C   0  0  0  0  0  0  0  0  0  0  0  0
   -1.3090    2.6230    1.5130 C   0  0  0  0  0  0  0  0  0  0  0  0
   -1.6530    1.5260    0.7220 C   0  0  0  0  0  0  0  0  0  0  0  0
   -0.6680    0.8360   -0.0780 C   0  0  0  0  0  0  0  0  0  0  0  0
   -0.6800   -0.2170   -0.8740 N   0  0  0  0  0  0  0  0  0  0  0  0
    0.5500   -0.4230   -1.3720 C   0  0  0  0  0  0  0  0  0  0  0  0
    1.3500    0.5650   -0.8440 C   0  0  0  0  0  0  0  0  0  0  0  0
    0.6020    1.2810   -0.0930 O   0  0  0  0  0  0  0  0  0  0  0  0
    2.8030    0.5300   -1.2730 C   0  0  0  0  0  0  0  0  0  0  0  0
    3.3260   -0.7670   -1.2130 N   0  0  0  0  0  0  0  0  0  0  0  0
    3.9880   -1.2650   -0.0880 C   0  0  0  0  0  0  0  0  0  0  0  0
    5.3400   -0.7600    0.2650 C   0  0  0  0  0  0  0  0  0  0  0  0
    5.4690    0.6190    0.5770 N   0  0  0  0  0  0  0  0  0  0  0  0
    6.6810    0.8500    1.4110 C   0  0  0  0  0  0  0  0  0  0  0  0
    2.5840   -1.7560   -1.9640 C   0  0  0  0  0  0  0  0  0  0  0  0
    1.1800   -1.4000   -2.2870 C   0  0  0  0  0  0  0  0  0  0  0  0
  1  2  1  0
  2  3  2  3
  3  4  1  0
  4  5  2  3
  5  6  1  0
  6  7  2  0
  6 11  1  0
  7  8  1  0
  8  9  2  0
  9 10  1  0
 10 11  2  0
 11 12  1  0
 12 13  2  0
 12 16  1  0
 13 14  1  0
 14 15  2  0
 14 24  1  0
 15 16  1  0
 15 17  1  0
 17 18  1  0
 18 19  1  0
 18 23  1  0
 19 20  1  0
 20 21  1  0
 21 22  1  0
 23 24  1  0
M  CHG  1  21   1
M  END
