
     RDKit          3D

 24 26  0  0  0  0  0  0  0  0999 V2000
   -3.5000    2.9990    1.0240 C   0  0  0  0  0  0  0  0  0  0  0  0
   -2.5120    2.9830   -0.1750 C   0  0  0  0  0  0  0  0  0  0  0  0
   -1.1870    3.0930    0.3920 C   0  0  0  0  0  0  0  0  0  0  0  0
   -0.0760    2.5010    0.4950 C   0  0  0  0  0  0  0  0  0  0  0  0
    0.6670    1.3530    0.1590 C   0  0  0  0  0  0  0  0  0  0  0  0
    1.9720    1.2610    0.5630 C   0  0  0  0  0  0  0  0  0  0  0  0
    2.8290    0.1370    0.2800 C   0  0  0  0  0  0  0  0  0  0  0  0
    4.0110    0.3880    0.8170 C   0  0  0  0  0  0  0  0  0  0  0  0
    5.2890   -0.3680    0.8680 C   0  0  0  0  0  0  0  0  0  0  0  0
    5.1180   -1.7890    1.3010 C   0  0  0  0  0  0  0  0  0  0  0  0
    4.8860   -2.5980    0.1120 N   0  0  0  0  0  0  0  0  0  0  0  0
    3.4970   -2.9900    0.1320 C   0  0  0  0  0  0  0  0  0  0  0  0
    2.7860   -2.2040   -0.9410 C   0  0  0  0  0  0  0  0  0  0  0  0
    2.2850   -0.9330   -0.4580 N   0  0  0  0  0  0  0  0  0  0  0  0
    0.9750   -0.8270   -0.8540 N   0  0  0  0  0  0  0  0  0  0  0  0
    0.1940    0.2120   -0.5880 C   0  0  0  0  0  0  0  0  0  0  0  0
   -1.1770    0.0420   -1.0640 C   0  0  0  0  0  0  0  0  0  0  0  0
   -2.1030   -0.2000   -0.0360 O   0  0  0  0  0  0  0  0  0  0  0  0
   -3.4320   -0.4210   -0.3650 C   0  0  0  0  0  0  0  0  0  0  0  0
   -3.8850   -0.4110   -1.6760 C   0  0  0  0  0  0  0  0  0  0  0  0
   -5.2140   -0.6330   -1.9720 C   0  0  0  0  0  0  0  0  0  0  0  0
   -6.1460   -0.8740   -0.9840 C   0  0  0  0  0  0  0  0  0  0  0  0
   -5.6980   -0.8850    0.3210 C   0  0  0  0  0  0  0  0  0  0  0  0
   -4.3700   -0.6620    0.6170 C   0  0  0  0  0  0  0  0  0  0  0  0
  1  2  1  0
  2  3  1  0
  3  4  2  3
  4  5  1  0
  5  6  2  0
  5 16  1  0
  6  7  1  0
  7  8  2  0
  7 14  1  0
  8  9  1  0
  9 10  1  0
 10 11  1  0
 11 12  1  0
 12 13  1  0
 13 14  1  0
 14 15  1  0
 15 16  2  0
 16 17  1  0
 17 18  1  0
 18 19  1  0
 19 20  2  0
 19 24  1  0
 20 21  1  0
 21 22  2  0
 22 23  1  0
 23 24  2  0
M  CHG  1  11   1
M  END
