
     RDKit          3D

 24 25  0  0  0  0  0  0  0  0999 V2000
   -0.1860    5.7560    1.5630 C   0  0  0  0  0  0  0  0  0  0  0  0
    0.4510    4.4370    1.6340 C   0  0  0  0  0  0  0  0  0  0  0  0
   -0.1730    3.3300    1.1510 C   0  0  0  0  0  0  0  0  0  0  0  0
    0.5220    2.0880    1.2610 C   0  0  0  0  0  0  0  0  0  0  0  0
    0.2800    0.8700    0.9420 C   0  0  0  0  0  0  0  0  0  0  0  0
    1.4170   -0.1380    1.2930 C   0  0  0  0  0  0  0  0  0  0  0  0
    1.7910   -0.7220    0.0540 N   0  0  0  0  0  0  0  0  0  0  0  0
    2.4400    0.0990   -0.8870 C   0  0  0  0  0  0  0  0  0  0  0  0
    3.9390    0.1510   -0.7460 C   0  0  0  0  0  0  0  0  0  0  0  0
    4.4570   -1.2160   -0.5870 C   0  0  0  0  0  0  0  0  0  0  0  0
    3.7030   -2.1980   -0.1860 C   0  0  0  0  0  0  0  0  0  0  0  0
    4.5140   -3.4060   -0.1340 C   0  0  0  0  0  0  0  0  0  0  0  0
    5.7600   -3.1420   -0.5080 C   0  0  0  0  0  0  0  0  0  0  0  0
    5.8440   -1.7100   -0.8350 C   0  0  0  0  0  0  0  0  0  0  0  0
    2.2680   -2.0710    0.1520 C   0  0  0  0  0  0  0  0  0  0  0  0
   -0.8350    0.2460    0.3540 C   0  0  0  0  0  0  0  0  0  0  0  0
   -0.7720   -1.0370    0.1200 O   0  0  0  0  0  0  0  0  0  0  0  0
   -2.0370    0.8610   -0.0150 N   0  0  0  0  0  0  0  0  0  0  0  0
   -3.1120    0.0860   -0.6170 C   0  0  1  0  0  0  0  0  0  0  0  0
   -4.2510    1.0740   -0.9200 C   0  0  0  0  0  0  0  0  0  0  0  0
   -2.7330   -0.5510   -1.9100 C   0  0  0  0  0  0  0  0  0  0  0  0
   -3.6470   -0.8880    0.4000 C   0  0  0  0  0  0  0  0  0  0  0  0
   -4.7290   -1.6900   -0.1730 N   0  0  0  0  0  0  0  0  0  0  0  0
   -4.5520   -3.0570    0.2570 C   0  0  0  0  0  0  0  0  0  0  0  0
  1  2  1  0
  2  3  2  3
  3  4  1  0
  4  5  2  3
  5  6  1  0
  5 16  1  0
  6  7  1  0
  7  8  1  0
  7 15  1  0
  8  9  1  0
  9 10  1  0
 10 11  2  0
 10 14  1  0
 11 12  1  0
 11 15  1  0
 12 13  2  0
 13 14  1  0
 16 17  2  0
 16 18  1  0
 18 19  1  0
 19 20  1  6
 19 21  1  0
 19 22  1  0
 22 23  1  0
 23 24  1  0
M  CHG  1  23   1
M  END
