
     RDKit          3D

 24 25  0  0  0  0  0  0  0  0999 V2000
    6.4710    2.4890    0.0950 C   0  0  0  0  0  0  0  0  0  0  0  0
    5.5510    1.5450   -0.1020 C   0  0  0  0  0  0  0  0  0  0  0  0
    4.3930    1.4170    0.7460 C   0  0  0  0  0  0  0  0  0  0  0  0
    3.4090    0.4880    0.5920 C   0  0  0  0  0  0  0  0  0  0  0  0
    2.3420    0.5360    1.5510 C   0  0  0  0  0  0  0  0  0  0  0  0
    0.9690    0.8070    1.0930 N   0  0  0  0  0  0  0  0  0  0  0  0
    0.6790    2.1770    0.7040 C   0  0  0  0  0  0  0  0  0  0  0  0
    0.0720   -0.2500    1.0150 C   0  0  0  0  0  0  0  0  0  0  0  0
    0.5070   -1.4190    1.3880 O   0  0  0  0  0  0  0  0  0  0  0  0
   -1.2770   -0.2520    0.5770 C   0  0  0  0  0  0  0  0  0  0  0  0
   -1.9720   -1.4190    0.5480 C   0  0  0  0  0  0  0  0  0  0  0  0
   -1.2910   -2.6330    0.9970 C   0  0  0  0  0  0  0  0  0  0  0  0
   -0.8820   -3.5770   -0.0950 C   0  0  0  0  0  0  0  0  0  0  0  0
   -3.3150   -1.6630    0.0690 N   0  0  0  0  0  0  0  0  0  0  0  0
   -3.9700   -1.0190   -1.0390 C   0  0  0  0  0  0  0  0  0  0  0  0
   -4.2390    0.4300   -0.7400 C   0  0  2  0  0  0  0  0  0  0  0  0
   -5.7170    0.5970   -0.4840 C   0  0  0  0  0  0  0  0  0  0  0  0
   -3.8890    1.2320   -1.9720 C   0  0  0  0  0  0  0  0  0  0  0  0
   -3.4950    0.9210    0.4560 C   0  0  0  0  0  0  0  0  0  0  0  0
   -1.9940    1.0350    0.2280 C   0  0  0  0  0  0  0  0  0  0  0  0
    3.6110   -0.4060   -0.5110 C   0  0  0  0  0  0  0  0  0  0  0  0
    2.6420   -1.5140   -0.8200 C   0  0  0  0  0  0  0  0  0  0  0  0
    4.6310   -0.3470   -1.3020 N   0  0  0  0  0  0  0  0  0  0  0  0
    5.7150    0.5930   -1.2250 C   0  0  0  0  0  0  0  0  0  0  0  0
  1  2  2  0
  2  3  1  0
  2 24  1  0
  3  4  2  0
  4  5  1  0
  4 21  1  0
  5  6  1  0
  6  7  1  0
  6  8  1  0
  8  9  2  0
  8 10  1  0
 10 11  2  0
 10 20  1  0
 11 12  1  0
 11 14  1  0
 12 13  1  0
 14 15  1  0
 15 16  1  0
 16 17  1  1
 16 18  1  0
 16 19  1  0
 19 20  1  0
 21 22  1  0
 21 23  2  0
 23 24  1  0
M  CHG  1  23   1
M  END
