
     RDKit          3D

 24 25  0  0  0  0  0  0  0  0999 V2000
    3.7780    2.5510    2.0000 C   0  0  0  0  0  0  0  0  0  0  0  0
    4.2080    1.7410    1.0790 C   0  0  0  0  0  0  0  0  0  0  0  0
    3.4160    0.7670    0.3490 C   0  0  0  0  0  0  0  0  0  0  0  0
    3.9220   -0.0280   -0.5780 C   0  0  0  0  0  0  0  0  0  0  0  0
    5.3570    0.0540   -0.9090 C   0  0  0  0  0  0  0  0  0  0  0  0
    3.0610   -1.0100   -1.2980 C   0  0  0  0  0  0  0  0  0  0  0  0
    1.8530   -0.2020   -1.7250 C   0  0  0  0  0  0  0  0  0  0  0  0
    1.1940    0.2600   -0.5570 N   0  0  0  0  0  0  0  0  0  0  0  0
   -0.2250    0.4110   -0.4370 C   0  0  0  0  0  0  0  0  0  0  0  0
   -0.7090    1.5180   -0.8880 N   0  0  0  0  0  0  0  0  0  0  0  0
   -2.1070    1.8030   -0.8330 C   0  0  0  0  0  0  0  0  0  0  0  0
   -2.8770    1.2810   -1.7600 C   0  0  0  0  0  0  0  0  0  0  0  0
   -4.3390    1.5210   -1.7850 C   0  0  0  0  0  0  0  0  0  0  0  0
   -2.6440    2.6440    0.2180 C   0  0  0  0  0  0  0  0  0  0  0  0
   -1.8030    3.1330    1.1160 C   0  0  0  0  0  0  0  0  0  0  0  0
   -3.9860    2.9630    0.3320 O   0  0  0  0  0  0  0  0  0  0  0  0
   -1.0390   -0.5980    0.1420 N   0  0  0  0  0  0  0  0  0  0  0  0
   -1.4150   -0.4300    1.5270 C   0  0  0  0  0  0  0  0  0  0  0  0
   -1.5710   -1.6870    2.3010 C   0  0  0  0  0  0  0  0  0  0  0  0
   -1.0580   -2.8460    1.4760 C   0  0  0  0  0  0  0  0  0  0  0  0
   -1.8590   -2.8900    0.2040 C   0  0  2  0  0  0  0  0  0  0  0  0
   -1.7090   -4.1750   -0.5390 C   0  0  0  0  0  0  0  0  0  0  0  0
   -1.4380   -1.7150   -0.6610 C   0  0  0  0  0  0  0  0  0  0  0  0
    1.9690    0.6190    0.6200 C   0  0  0  0  0  0  0  0  0  0  0  0
  1  2  2  0
  2  3  1  0
  3  4  2  0
  3 24  1  0
  4  5  1  0
  4  6  1  0
  6  7  1  0
  7  8  1  0
  8  9  1  0
  8 24  1  0
  9 10  2  3
  9 17  1  0
 10 11  1  0
 11 12  2  3
 11 14  1  0
 12 13  1  0
 14 15  2  0
 14 16  1  0
 17 18  1  0
 17 23  1  0
 18 19  1  0
 19 20  1  0
 20 21  1  0
 21 22  1  6
 21 23  1  0
M  CHG  1  10   1
M  END
