
     RDKit          3D

 24 26  0  0  0  0  0  0  0  0999 V2000
    4.8570    0.5800   -0.3420 C   0  0  0  0  0  0  0  0  0  0  0  0
    3.6930    1.3600   -0.9820 C   0  0  0  0  0  0  0  0  0  0  0  0
    2.7470    1.8190   -0.0610 N   0  0  0  0  0  0  0  0  0  0  0  0
    3.0680    3.1780    0.5210 C   0  0  0  0  0  0  0  0  0  0  0  0
    1.5720    1.2460    0.4130 C   0  0  0  0  0  0  0  0  0  0  0  0
    1.0110    2.0100    1.2960 O   0  0  0  0  0  0  0  0  0  0  0  0
    0.9040    0.0030    0.1030 C   0  0  0  0  0  0  0  0  0  0  0  0
   -0.2230   -0.2490    0.7960 C   0  0  0  0  0  0  0  0  0  0  0  0
   -0.7670    0.6430    1.7980 C   0  0  0  0  0  0  0  0  0  0  0  0
   -2.1210    1.2380    1.3510 C   0  0  0  0  0  0  0  0  0  0  0  0
   -1.9330    2.0110    0.1280 N   0  0  0  0  0  0  0  0  0  0  0  0
   -2.0160    1.5520   -1.1310 C   0  0  0  0  0  0  0  0  0  0  0  0
   -1.7810    2.5920   -2.0340 C   0  0  0  0  0  0  0  0  0  0  0  0
   -1.5520    3.7040   -1.2710 C   0  0  0  0  0  0  0  0  0  0  0  0
   -1.6480    3.3340    0.0360 C   0  0  0  0  0  0  0  0  0  0  0  0
   -1.0750   -1.4710    0.6440 C   0  0  0  0  0  0  0  0  0  0  0  0
   -1.1760   -2.2740   -0.4200 C   0  0  0  0  0  0  0  0  0  0  0  0
   -2.0270   -3.4630   -0.5370 C   0  0  0  0  0  0  0  0  0  0  0  0
   -2.8350   -3.7280    0.7110 C   0  0  0  0  0  0  0  0  0  0  0  0
   -3.1760   -2.4290    1.4180 C   0  0  0  0  0  0  0  0  0  0  0  0
   -1.8230   -1.8210    1.8320 C   0  0  0  0  0  0  0  0  0  0  0  0
   -0.3580   -2.1320   -1.6700 C   0  0  0  0  0  0  0  0  0  0  0  0
    1.0290   -2.1290   -1.1840 N   0  0  0  0  0  0  0  0  0  0  0  0
    1.5320   -0.8200   -0.9950 C   0  0  0  0  0  0  0  0  0  0  0  0
  1  2  1  0
  2  3  1  0
  3  4  1  0
  3  5  1  0
  5  6  2  0
  5  7  1  0
  7  8  2  0
  7 24  1  0
  8  9  1  0
  8 16  1  0
  9 10  1  0
 10 11  1  0
 11 12  1  0
 11 15  1  0
 12 13  2  0
 13 14  1  0
 14 15  2  0
 16 17  2  0
 16 21  1  0
 17 18  1  0
 17 22  1  0
 18 19  1  0
 19 20  1  0
 20 21  1  0
 22 23  1  0
 23 24  1  0
M  CHG  1  23   1
M  END
