
     RDKit          3D

 27 27  0  0  0  0  0  0  0  0999 V2000
   -0.2830   -3.6920   -1.4110 C   0  0  0  0  0  0  0  0  0  0  0  0
    0.0960   -2.4700   -1.9400 O   0  0  0  0  0  0  0  0  0  0  0  0
    0.5770   -1.6520   -0.8930 C   0  0  1  0  0  0  0  0  0  0  0  0
    1.9920   -1.2690   -1.1810 C   0  0  0  0  0  0  0  0  0  0  0  0
    2.5210   -1.6040   -2.2610 O   0  0  0  0  0  0  0  0  0  0  0  0
    2.7470   -0.5360   -0.2540 N   0  0  0  0  0  0  0  0  0  0  0  0
    4.1080   -0.1820   -0.5680 C   0  0  1  0  0  0  0  0  0  0  0  0
    4.2000    1.3340   -0.5420 C   0  0  0  0  0  0  0  0  0  0  0  0
    5.3920    1.6940    0.3120 C   0  0  0  0  0  0  0  0  0  0  0  0
    6.6430    1.4500   -0.5020 C   0  0  1  0  0  0  0  0  0  0  0  0
    7.4920    2.5530   -0.4840 O   0  0  0  0  0  0  0  0  0  0  0  0
    7.3400    0.2220    0.0440 C   0  0  0  0  0  0  0  0  0  0  0  0
    6.3510   -0.5850    0.7230 N   0  0  0  0  0  0  0  0  0  0  0  0
    4.9680   -0.7840    0.4950 C   0  0  0  0  0  0  0  0  0  0  0  0
    4.4330   -1.5750    1.3140 O   0  0  0  0  0  0  0  0  0  0  0  0
   -0.2360   -0.3860   -0.8260 C   0  0  2  0  0  0  0  0  0  0  0  0
    0.2410    0.4220    0.1940 O   0  0  0  0  0  0  0  0  0  0  0  0
   -1.6570   -0.7680   -0.4200 C   0  0  1  0  0  0  0  0  0  0  0  0
   -1.5670   -1.4210    0.8040 O   0  0  0  0  0  0  0  0  0  0  0  0
   -2.4140    0.5510   -0.2670 C   0  0  2  0  0  0  0  0  0  0  0  0
   -1.7580    1.3910    0.6320 O   0  0  0  0  0  0  0  0  0  0  0  0
   -3.7980    0.2680    0.2420 C   0  0  0  0  0  0  0  0  0  0  0  0
   -4.8160    1.0470   -0.0370 C   0  0  0  0  0  0  0  0  0  0  0  0
   -6.1610    0.7350    0.4820 C   0  0  2  0  0  0  0  0  0  0  0  0
   -6.9090   -0.0720   -0.5600 C   0  0  0  0  0  0  0  0  0  0  0  0
   -6.9490    2.0040    0.7260 C   0  0  0  0  0  0  0  0  0  0  0  0
   -6.0260   -0.1090    1.7140 C   0  0  0  0  0  0  0  0  0  0  0  0
  1  2  1  0
  3  2  1  6
  3  4  1  0
  3 16  1  0
  4  5  2  0
  4  6  1  0
  7  6  1  1
  7  8  1  0
  7 14  1  0
  8  9  1  0
  9 10  1  0
 10 11  1  1
 10 12  1  0
 12 13  1  0
 13 14  1  0
 14 15  2  0
 16 17  1  1
 16 18  1  0
 18 19  1  1
 18 20  1  0
 20 21  1  1
 20 22  1  0
 22 23  2  3
 23 24  1  0
 24 25  1  6
 24 26  1  0
 24 27  1  0
M  END
