
     RDKit          3D

 24 26  0  0  0  0  0  0  0  0999 V2000
   -2.7680    4.7150    1.0100 C   0  0  0  0  0  0  0  0  0  0  0  0
   -1.9700    4.7080   -0.1880 N   0  0  0  0  0  0  0  0  0  0  0  0
   -1.0550    3.5940   -0.1270 C   0  0  0  0  0  0  0  0  0  0  0  0
   -1.7320    2.3030   -0.3730 C   0  0  0  0  0  0  0  0  0  0  0  0
   -3.0680    2.2930   -0.6280 C   0  0  0  0  0  0  0  0  0  0  0  0
   -3.6990    1.1500   -0.8530 N   0  0  0  0  0  0  0  0  0  0  0  0
   -2.9910   -0.0170   -0.8260 C   0  0  0  0  0  0  0  0  0  0  0  0
   -1.6400   -0.0400   -0.5710 C   0  0  0  0  0  0  0  0  0  0  0  0
   -0.9440    1.1130   -0.3340 C   0  0  0  0  0  0  0  0  0  0  0  0
    0.4710    1.2690    0.0030 C   0  0  0  0  0  0  0  0  0  0  0  0
    1.3830    0.2330   -0.0120 N   0  0  0  0  0  0  0  0  0  0  0  0
    1.8790   -0.2810   -1.2210 C   0  0  0  0  0  0  0  0  0  0  0  0
    2.3770   -1.6790   -1.2230 C   0  0  0  0  0  0  0  0  0  0  0  0
    3.8730   -1.7900   -1.3870 C   0  0  0  0  0  0  0  0  0  0  0  0
    4.6260   -2.0120   -0.1190 C   0  0  0  0  0  0  0  0  0  0  0  0
    3.9260   -1.5580    1.1260 C   0  0  0  0  0  0  0  0  0  0  0  0
    3.6130   -0.0790    1.0100 C   0  0  0  0  0  0  0  0  0  0  0  0
    2.1220    0.0790    1.1760 C   0  0  0  0  0  0  0  0  0  0  0  0
   -0.9560   -1.3660   -0.5020 C   0  0  0  0  0  0  0  0  0  0  0  0
   -2.0290   -2.4380   -0.2040 C   0  0  1  0  0  0  0  0  0  0  0  0
   -1.4170   -3.8140   -0.2950 C   0  0  0  0  0  0  0  0  0  0  0  0
   -2.4760   -2.2240    1.2170 C   0  0  0  0  0  0  0  0  0  0  0  0
   -3.0280   -2.3470   -1.1430 O   0  0  0  0  0  0  0  0  0  0  0  0
   -3.7810   -1.2280   -1.0770 C   0  0  0  0  0  0  0  0  0  0  0  0
  1  2  1  0
  2  3  1  0
  3  4  1  0
  4  5  2  0
  4  9  1  0
  5  6  1  0
  6  7  2  0
  7  8  1  0
  7 24  1  0
  8  9  2  0
  8 19  1  0
  9 10  1  0
 10 11  1  0
 11 12  1  0
 11 18  1  0
 12 13  1  0
 13 14  1  0
 14 15  1  0
 15 16  1  0
 16 17  1  0
 17 18  1  0
 19 20  1  0
 20 21  1  1
 20 22  1  0
 20 23  1  0
 23 24  1  0
M  CHG  1   2   1
M  END
