
     RDKit          3D

 30 31  0  0  0  0  0  0  0  0999 V2000
    2.7510   -2.3420    1.3470 N   0  0  0  0  0  0  0  0  0  0  0  0
    2.6940   -1.6840    0.2440 C   0  0  0  0  0  0  0  0  0  0  0  0
    3.1200   -2.3210   -0.9560 N   0  0  0  0  0  0  0  0  0  0  0  0
    3.5530   -4.0570   -0.9190 P   0  0  0  0  0  0  0  0  0  0  0  0
    5.2670   -4.1980   -0.9950 O   0  0  0  0  0  0  0  0  0  0  0  0
    2.8870   -4.7670    0.4970 O   0  0  0  0  0  0  0  0  0  0  0  0
    2.2310   -0.3530    0.1420 N   0  0  0  0  0  0  0  0  0  0  0  0
    0.9010   -0.0380    0.6010 C   0  0  0  0  0  0  0  0  0  0  0  0
   -0.1050   -0.6700   -0.2830 C   0  0  0  0  0  0  0  0  0  0  0  0
    0.3320   -1.3680   -1.2530 O   0  0  0  0  0  0  0  0  0  0  0  0
   -1.5030   -0.5400   -0.1050 N   0  0  0  0  0  0  0  0  0  0  0  0
   -2.4940   -1.1850   -0.9810 C   0  0  0  0  0  0  0  0  0  0  0  0
   -3.7230   -0.2770   -0.9470 C   0  0  1  0  0  0  0  0  0  0  0  0
   -3.9550    0.1130   -2.2700 O   0  0  0  0  0  0  0  0  0  0  0  0
   -4.9200   -0.9870   -0.4140 C   0  0  0  0  0  0  0  0  0  0  0  0
   -6.0780   -0.1220   -0.4680 N   0  0  0  0  0  0  0  0  0  0  0  0
   -3.2980    0.8570   -0.0850 C   0  0  2  0  0  0  0  0  0  0  0  0
   -2.5560    1.8010   -0.8320 O   0  0  0  0  0  0  0  0  0  0  0  0
   -2.4380    2.9270    0.0150 C   0  0  0  0  0  0  0  0  0  0  0  0
   -1.5330    2.5070    1.0320 O   0  0  0  0  0  0  0  0  0  0  0  0
   -1.6130    1.2430    1.5870 C   0  0  0  0  0  0  0  0  0  0  0  0
   -1.1080    1.0400    2.7010 O   0  0  0  0  0  0  0  0  0  0  0  0
   -2.2890    0.1730    0.8560 C   0  0  2  0  0  0  0  0  0  0  0  0
    3.3370    0.8720   -0.5540 P   0  0  0  0  0  0  0  0  0  0  0  0
    4.9060    0.8050    0.1440 O   0  0  0  0  0  0  0  0  0  0  0  0
    4.9840   -0.0630    1.1350 O   0  0  0  0  0  0  0  0  0  0  0  0
    2.6390    2.4470   -0.5250 O   0  0  0  0  0  0  0  0  0  0  0  0
    3.6300    3.5480    0.3690 P   0  0  0  0  0  0  0  0  0  0  0  0
    3.4210    5.1360   -0.2870 O   0  0  0  0  0  0  0  0  0  0  0  0
    5.2860    3.0370    0.2140 O   0  0  0  0  0  0  0  0  0  0  0  0
  1  2  2  0
  2  3  1  0
  2  7  1  0
  3  4  1  0
  4  5  1  0
  4  6  1  0
  7  8  1  0
  7 24  1  0
  8  9  1  0
  9 10  2  0
  9 11  1  0
 11 12  1  0
 23 11  1  6
 12 13  1  0
 13 14  1  6
 13 15  1  0
 13 17  1  0
 15 16  1  0
 17 18  1  6
 17 23  1  0
 18 19  1  0
 19 20  1  0
 20 21  1  0
 21 22  2  0
 21 23  1  0
 24 25  1  0
 24 27  1  0
 25 26  1  0
 27 28  1  0
 28 29  1  0
 28 30  1  0
M  END
