
     RDKit          3D

 31 32  0  0  0  0  0  0  0  0999 V2000
   -2.7880   -2.2970    0.2540 N   0  0  0  0  0  0  0  0  0  0  0  0
   -2.5610   -1.0160    0.3070 C   0  0  0  0  0  0  0  0  0  0  0  0
   -1.2190   -0.6180    0.0960 N   0  0  0  0  0  0  0  0  0  0  0  0
   -0.3450   -0.4850    1.2140 C   0  0  0  0  0  0  0  0  0  0  0  0
    1.0340   -0.0710    0.8250 C   0  0  0  0  0  0  0  0  0  0  0  0
    1.4910    1.1280    0.8830 N   0  0  0  0  0  0  0  0  0  0  0  0
    2.8260    1.1870    0.4440 N   0  0  0  0  0  0  0  0  0  0  0  0
    3.5900    2.4210    0.3970 C   0  0  1  0  0  0  0  0  0  0  0  0
    4.9920    2.3590    0.8750 C   0  0  0  0  0  0  0  0  0  0  0  0
    5.3780    1.9770   -0.4040 O   0  0  0  0  0  0  0  0  0  0  0  0
    4.2490    2.5870   -0.9190 C   0  0  0  0  0  0  0  0  0  0  0  0
    3.8860    3.0750   -1.9960 O   0  0  0  0  0  0  0  0  0  0  0  0
    3.2290   -0.1160    0.0810 C   0  0  0  0  0  0  0  0  0  0  0  0
    4.3760   -0.4260   -0.3400 O   0  0  0  0  0  0  0  0  0  0  0  0
    2.0540   -0.9930    0.2950 C   0  0  1  0  0  0  0  0  0  0  0  0
    2.3410   -2.0260    1.1950 O   0  0  0  0  0  0  0  0  0  0  0  0
    2.2410   -3.1540    0.5410 O   0  0  0  0  0  0  0  0  0  0  0  0
    3.8500   -3.7670    0.1970 P   0  0  0  0  0  0  0  0  0  0  0  0
    4.2660   -4.1830   -1.2210 O   0  0  0  0  0  0  0  0  0  0  0  0
   -0.8500   -0.3640   -1.2850 C   0  0  0  0  0  0  0  0  0  0  0  0
   -1.1190   -1.8880   -2.2630 P   0  0  0  0  0  0  0  0  0  0  0  0
   -1.9710   -1.5710   -3.7480 O   0  0  0  0  0  0  0  0  0  0  0  0
    0.3170   -2.8050   -2.5450 O   0  0  0  0  0  0  0  0  0  0  0  0
   -3.6090   -0.1040    0.5470 N   0  0  0  0  0  0  0  0  0  0  0  0
   -3.3890    1.2880    0.6400 C   0  0  0  0  0  0  0  0  0  0  0  0
   -4.3630    2.0850    0.8650 O   0  0  0  0  0  0  0  0  0  0  0  0
   -2.1620    1.9200    0.5060 O   0  0  0  0  0  0  0  0  0  0  0  0
   -1.9700    3.2290    0.5950 O   0  0  0  0  0  0  0  0  0  0  0  0
   -5.2870   -0.7140    0.7230 P   0  0  0  0  0  0  0  0  0  0  0  0
   -5.8400   -0.4130    2.3230 O   0  0  0  0  0  0  0  0  0  0  0  0
   -6.2710    0.2230   -0.3930 O   0  0  0  0  0  0  0  0  0  0  0  0
  1  2  2  0
  2  3  1  0
  2 24  1  0
  3  4  1  0
  3 20  1  0
  4  5  1  0
  5  6  2  0
  5 15  1  0
  6  7  1  0
  8  7  1  6
  7 13  1  0
  8  9  1  0
  8 11  1  0
  9 10  1  0
 10 11  1  0
 11 12  2  0
 13 14  2  0
 13 15  1  0
 15 16  1  1
 16 17  1  0
 17 18  1  0
 18 19  2  0
 20 21  1  0
 21 22  1  0
 21 23  1  0
 24 25  1  0
 24 29  1  0
 25 26  2  0
 25 27  1  0
 27 28  1  0
 29 30  1  0
 29 31  1  0
M  END
