
     RDKit          3D

 31 33  0  0  0  0  0  0  0  0999 V2000
    2.0910   -3.3200    0.5370 O   0  0  0  0  0  0  0  0  0  0  0  0
    1.3820   -2.2920    0.2710 C   0  0  0  0  0  0  0  0  0  0  0  0
   -0.0820   -2.3950    0.2680 C   0  0  0  0  0  0  0  0  0  0  0  0
   -0.7700   -1.1820    0.0070 N   0  0  0  0  0  0  0  0  0  0  0  0
   -0.8140   -0.1260    1.0180 C   0  0  0  0  0  0  0  0  0  0  0  0
   -2.2680    0.3920    0.9570 C   0  0  1  0  0  0  0  0  0  0  0  0
   -2.6570    1.4820    2.3860 P   0  0  0  0  0  0  0  0  0  0  0  0
   -1.2150    2.0490    3.1140 O   0  0  0  0  0  0  0  0  0  0  0  0
   -3.6840    0.6290    3.4870 O   0  0  0  0  0  0  0  0  0  0  0  0
   -2.3670    1.1010   -0.3310 N   0  0  0  0  0  0  0  0  0  0  0  0
   -2.5430    0.0540   -1.3170 C   0  0  1  0  0  0  0  0  0  0  0  0
   -4.2200   -0.6910   -1.0610 P   0  0  0  0  0  0  0  0  0  0  0  0
   -4.8630   -1.2580   -2.5870 O   0  0  0  0  0  0  0  0  0  0  0  0
   -5.5330    0.8970   -0.2460 P   0  0  0  0  0  0  0  0  0  0  0  0
   -4.7710    2.4500   -0.3380 O   0  0  0  0  0  0  0  0  0  0  0  0
   -7.0820    0.8800   -0.9800 O   0  0  0  0  0  0  0  0  0  0  0  0
   -2.4470    0.4540   -2.6260 O   0  0  0  0  0  0  0  0  0  0  0  0
   -2.2800   -0.7590   -3.2360 O   0  0  0  0  0  0  0  0  0  0  0  0
   -1.3260   -1.3990   -2.4260 N   0  0  0  0  0  0  0  0  0  0  0  0
   -1.4410   -0.9370   -1.2400 C   0  0  0  0  0  0  0  0  0  0  0  0
    2.0570   -1.0970   -0.0160 N   0  0  0  0  0  0  0  0  0  0  0  0
    3.5000   -1.0940   -0.0130 C   0  0  0  0  0  0  0  0  0  0  0  0
    4.2880   -0.0330   -0.2590 N   0  0  0  0  0  0  0  0  0  0  0  0
    5.5920   -0.3710   -0.1790 C   0  0  0  0  0  0  0  0  0  0  0  0
    6.7600    0.4750   -0.3730 C   0  0  0  0  0  0  0  0  0  0  0  0
    7.9010   -0.0320   -0.2570 O   0  0  0  0  0  0  0  0  0  0  0  0
    6.6650    1.8210   -0.6830 O   0  0  0  0  0  0  0  0  0  0  0  0
    7.6980    2.6350   -0.8700 O   0  0  0  0  0  0  0  0  0  0  0  0
    7.3850    3.8930   -0.6520 O   0  0  0  0  0  0  0  0  0  0  0  0
    5.5750   -1.7140    0.1330 C   0  0  0  0  0  0  0  0  0  0  0  0
    4.3220   -2.0910    0.2190 O   0  0  0  0  0  0  0  0  0  0  0  0
  1  2  2  0
  2  3  1  0
  2 21  1  0
  3  4  1  0
  4  5  1  0
  4 20  1  0
  5  6  1  0
  6  7  1  1
  6 10  1  0
  7  8  1  0
  7  9  1  0
 10 11  1  0
 11 12  1  6
 11 17  1  0
 11 20  1  0
 12 13  1  0
 12 14  1  0
 14 15  1  0
 14 16  1  0
 17 18  1  0
 18 19  1  0
 19 20  2  0
 21 22  1  0
 22 23  2  0
 22 31  1  0
 23 24  1  0
 24 25  1  0
 24 30  2  0
 25 26  2  0
 25 27  1  0
 27 28  1  0
 28 29  1  0
 30 31  1  0
M  END
