
     RDKit          3D

 29 31  0  0  0  0  0  0  0  0999 V2000
   -5.0470    3.8040    1.2450 C   0  0  0  0  0  0  0  0  0  0  0  0
   -5.2870    2.4630    1.4800 O   0  0  0  0  0  0  0  0  0  0  0  0
   -5.9570    1.8780    0.4020 C   0  0  2  0  0  0  0  0  0  0  0  0
   -7.2370    1.3310    0.9170 C   0  0  0  0  0  0  0  0  0  0  0  0
   -8.1770    2.0050    1.4530 O   0  0  0  0  0  0  0  0  0  0  0  0
   -7.1950   -0.0680    0.6930 N   0  0  0  0  0  0  0  0  0  0  0  0
   -5.9800   -0.4480    0.0690 C   0  0  0  0  0  0  0  0  0  0  0  0
   -5.4520   -1.6650   -0.3580 C   0  0  0  0  0  0  0  0  0  0  0  0
   -4.2140   -1.7790   -0.9560 C   0  0  0  0  0  0  0  0  0  0  0  0
   -3.4570   -0.6360   -1.1430 C   0  0  0  0  0  0  0  0  0  0  0  0
   -3.9940    0.5780   -0.7120 C   0  0  0  0  0  0  0  0  0  0  0  0
   -5.2290    0.6930   -0.1150 C   0  0  0  0  0  0  0  0  0  0  0  0
   -2.1270   -0.6890   -1.7850 C   0  0  0  0  0  0  0  0  0  0  0  0
   -1.1850   -1.6840   -1.1580 C   0  0  2  0  0  0  0  0  0  0  0  0
    0.0690   -1.8330   -1.9520 C   0  0  0  0  0  0  0  0  0  0  0  0
    0.8190   -0.6940   -2.1020 O   0  0  0  0  0  0  0  0  0  0  0  0
    1.2790   -0.1470   -0.9170 C   0  0  2  0  0  0  0  0  0  0  0  0
    0.8960    1.3140   -0.8770 C   0  0  0  0  0  0  0  0  0  0  0  0
    2.6830   -0.1870   -0.9910 O   0  0  0  0  0  0  0  0  0  0  0  0
    3.2070   -0.8970    0.0990 C   0  0  0  0  0  0  0  0  0  0  0  0
    4.6640   -0.9740    0.0630 C   0  0  0  0  0  0  0  0  0  0  0  0
    5.2530   -1.6530   -1.1560 C   0  0  0  0  0  0  0  0  0  0  0  0
    5.4590   -0.5150    0.9690 C   0  0  0  0  0  0  0  0  0  0  0  0
    6.9520   -0.6930    0.7500 C   0  0  0  0  0  0  0  0  0  0  0  0
    5.0880    0.1680    2.2110 C   0  0  0  0  0  0  0  0  0  0  0  0
    5.6470    1.5810    2.2790 C   0  0  0  0  0  0  0  0  0  0  0  0
    5.1360    2.2970    1.1950 O   0  0  0  0  0  0  0  0  0  0  0  0
   -1.9950   -3.3850   -1.1320 P   0  0  0  0  0  0  0  0  0  0  0  0
   -3.7290   -3.0410   -1.3690 O   0  0  0  0  0  0  0  0  0  0  0  0
  1  2  1  0
  3  2  1  1
  3  4  1  0
  3 12  1  0
  4  5  2  0
  4  6  1  0
  6  7  1  0
  7  8  2  0
  7 12  1  0
  8  9  1  0
  9 10  2  0
  9 29  1  0
 10 11  1  0
 10 13  1  0
 11 12  2  0
 13 14  1  0
 14 15  1  6
 14 28  1  0
 15 16  1  0
 16 17  1  0
 17 18  1  6
 17 19  1  0
 19 20  1  0
 20 21  1  0
 21 22  1  0
 21 23  2  3
 23 24  1  0
 23 25  1  0
 25 26  1  0
 26 27  1  0
 28 29  1  0
M  END
