
     RDKit          3D

 29 30  0  0  0  0  0  0  0  0999 V2000
   -3.0570    4.9700   -0.3110 C   0  0  0  0  0  0  0  0  0  0  0  0
   -3.3950    3.6130    0.2690 C   0  0  2  0  0  0  0  0  0  0  0  0
   -2.2860    2.6890    0.1470 N   0  0  0  0  0  0  0  0  0  0  0  0
   -1.5840    2.1480    1.2450 C   0  0  0  0  0  0  0  0  0  0  0  0
   -2.0000    2.5430    2.3840 O   0  0  0  0  0  0  0  0  0  0  0  0
   -0.4510    1.1970    1.1600 C   0  0  2  0  0  0  0  0  0  0  0  0
    0.5560    1.5830    0.1240 C   0  0  0  0  0  0  0  0  0  0  0  0
    1.7150    0.7190   -0.0230 C   0  0  0  0  0  0  0  0  0  0  0  0
    1.7570   -0.2880   -0.9510 C   0  0  0  0  0  0  0  0  0  0  0  0
    2.8880   -1.1090   -1.0570 C   0  0  0  0  0  0  0  0  0  0  0  0
    3.9810   -0.9320   -0.2390 C   0  0  0  0  0  0  0  0  0  0  0  0
    5.1590   -1.7920   -0.3550 C   0  0  0  0  0  0  0  0  0  0  0  0
    5.0630   -3.1140   -0.7380 C   0  0  0  0  0  0  0  0  0  0  0  0
    6.2010   -3.9010   -0.8390 C   0  0  0  0  0  0  0  0  0  0  0  0
    7.4580   -3.4090   -0.5650 C   0  0  0  0  0  0  0  0  0  0  0  0
    7.5640   -2.0880   -0.1810 C   0  0  0  0  0  0  0  0  0  0  0  0
    6.4180   -1.3000   -0.0810 C   0  0  0  0  0  0  0  0  0  0  0  0
    3.9340    0.0810    0.6920 C   0  0  0  0  0  0  0  0  0  0  0  0
    2.8200    0.8850    0.7910 C   0  0  0  0  0  0  0  0  0  0  0  0
   -0.8360   -0.2500    1.2170 C   0  0  0  0  0  0  0  0  0  0  0  0
   -1.9120   -0.7550   -0.0310 P   0  0  0  0  0  0  0  0  0  0  0  0
   -1.7550   -0.1480   -1.6040 O   0  0  0  0  0  0  0  0  0  0  0  0
   -1.0510   -1.9400   -0.5470 O   0  0  0  0  0  0  0  0  0  0  0  0
   -3.2920   -1.7750    0.3370 C   0  0  2  0  0  0  0  0  0  0  0  0
   -3.6290   -2.8280   -0.7030 C   0  0  0  0  0  0  0  0  0  0  0  0
   -4.5400   -1.1960    0.7230 N   0  0  0  0  0  0  0  0  0  0  0  0
   -4.6540    3.0630   -0.2560 C   0  0  0  0  0  0  0  0  0  0  0  0
   -4.6740    1.9170   -0.7370 O   0  0  0  0  0  0  0  0  0  0  0  0
   -5.8000    3.8180   -0.2120 O   0  0  0  0  0  0  0  0  0  0  0  0
  2  1  1  6
  2  3  1  0
  2 27  1  0
  3  4  1  0
  4  5  2  0
  4  6  1  0
  6  7  1  6
  6 20  1  0
  7  8  1  0
  8  9  2  0
  8 19  1  0
  9 10  1  0
 10 11  2  0
 11 12  1  0
 11 18  1  0
 12 13  2  0
 12 17  1  0
 13 14  1  0
 14 15  2  0
 15 16  1  0
 16 17  2  0
 18 19  2  0
 20 21  1  0
 21 22  1  0
 21 23  1  0
 21 24  1  0
 24 25  1  6
 24 26  1  0
 27 28  2  0
 27 29  1  0
M  CHG  1  26   1
M  END
