
     RDKit          3D

 29 30  0  0  0  0  0  0  0  0999 V2000
   -3.2590    0.8130    3.4370 C   0  0  0  0  0  0  0  0  0  0  0  0
   -2.4020   -0.2600    3.9720 C   0  0  0  0  0  0  0  0  0  0  0  0
   -1.1310   -0.6130    3.3920 C   0  0  0  0  0  0  0  0  0  0  0  0
   -0.4890   -1.6270    4.5350 C   0  0  0  0  0  0  0  0  0  0  0  0
   -0.3350   -0.6020    2.4350 C   0  0  0  0  0  0  0  0  0  0  0  0
    1.2840   -1.3950    2.6770 P   0  0  0  0  0  0  0  0  0  0  0  0
    2.3570   -1.2140    1.3520 C   0  0  0  0  0  0  0  0  0  0  0  0
    1.8870   -0.5060    0.2790 C   0  0  0  0  0  0  0  0  0  0  0  0
    2.6990   -0.3670   -0.7980 C   0  0  0  0  0  0  0  0  0  0  0  0
    4.0440   -0.9050   -0.9250 C   0  0  0  0  0  0  0  0  0  0  0  0
    4.1160   -1.8500   -2.1180 C   0  0  1  0  0  0  0  0  0  0  0  0
    5.5570   -2.3600   -2.1320 C   0  0  0  0  0  0  0  0  0  0  0  0
    3.2080   -3.0270   -2.0120 C   0  0  0  0  0  0  0  0  0  0  0  0
    3.8330   -1.1700   -3.3020 O   0  0  0  0  0  0  0  0  0  0  0  0
    0.6220    0.0360    0.2460 C   0  0  0  0  0  0  0  0  0  0  0  0
    0.3410    0.7550   -0.9660 O   0  0  0  0  0  0  0  0  0  0  0  0
    0.6700    2.1360   -1.0330 C   0  0  0  0  0  0  0  0  0  0  0  0
   -0.0060    3.0110   -0.0520 C   0  0  0  0  0  0  0  0  0  0  0  0
    0.4320    4.3460   -0.2570 O   0  0  0  0  0  0  0  0  0  0  0  0
    0.1740    4.7620   -1.5430 C   0  0  0  0  0  0  0  0  0  0  0  0
   -0.3570   -0.0190    1.2000 C   0  0  0  0  0  0  0  0  0  0  0  0
   -1.6230    0.6050    0.8010 O   0  0  0  0  0  0  0  0  0  0  0  0
   -2.3870   -0.1740   -0.0650 C   0  0  1  0  0  0  0  0  0  0  0  0
   -3.7900   -0.3940    0.2550 C   0  0  1  0  0  0  0  0  0  0  0  0
   -4.6170    0.6990    0.3080 O   0  0  0  0  0  0  0  0  0  0  0  0
   -4.2490   -1.4130   -1.3160 P   0  0  0  0  0  0  0  0  0  0  0  0
   -2.7030   -0.8900   -2.2490 C   0  0  0  0  0  0  0  0  0  0  0  0
   -2.2840    0.2160   -1.4290 N   0  0  0  0  0  0  0  0  0  0  0  0
   -2.7810    1.4670   -1.8490 C   0  0  0  0  0  0  0  0  0  0  0  0
  1  2  1  0
  2  3  1  0
  3  4  1  0
  3  5  2  3
  5  6  1  0
  5 21  1  0
  6  7  2  0
  7  8  1  0
  8  9  2  3
  8 15  1  0
  9 10  1  0
 10 11  1  0
 11 12  1  6
 11 13  1  0
 11 14  1  0
 15 16  1  0
 15 21  2  0
 16 17  1  0
 17 18  1  0
 18 19  1  0
 19 20  1  0
 21 22  1  0
 23 22  1  1
 23 24  1  0
 23 28  1  0
 24 25  1  6
 24 26  1  0
 26 27  1  0
 27 28  1  0
 28 29  1  0
M  END
