
     RDKit          3D

 29 30  0  0  0  0  0  0  0  0999 V2000
   -7.8590   -3.0050   -0.9960 C   0  0  0  0  0  0  0  0  0  0  0  0
   -7.3570   -1.5930   -1.1130 C   0  0  0  0  0  0  0  0  0  0  0  0
   -6.3280   -1.3100   -0.1530 N   0  0  0  0  0  0  0  0  0  0  0  0
   -5.7330   -0.0240   -0.1150 C   0  0  0  0  0  0  0  0  0  0  0  0
   -6.1580    0.8160   -0.9510 O   0  0  0  0  0  0  0  0  0  0  0  0
   -4.6690    0.2830    0.8710 C   0  0  0  0  0  0  0  0  0  0  0  0
   -4.2170    1.7140    0.7380 C   0  0  2  0  0  0  0  0  0  0  0  0
   -3.2090    2.0200    1.6550 O   0  0  0  0  0  0  0  0  0  0  0  0
   -2.0790    1.2690    1.5600 C   0  0  0  0  0  0  0  0  0  0  0  0
   -1.3950    1.3190    0.3550 O   0  0  0  0  0  0  0  0  0  0  0  0
   -0.2620    0.6760    0.0110 C   0  0  0  0  0  0  0  0  0  0  0  0
    0.8200    1.1700   -0.5200 C   0  0  0  0  0  0  0  0  0  0  0  0
    2.0130    0.6150   -0.3890 C   0  0  0  0  0  0  0  0  0  0  0  0
    3.1890    1.4330   -0.1780 C   0  0  0  0  0  0  0  0  0  0  0  0
    4.4070    1.0240   -0.0340 C   0  0  0  0  0  0  0  0  0  0  0  0
    4.7930   -0.3660   -0.0650 C   0  0  0  0  0  0  0  0  0  0  0  0
    6.0330   -0.8040    0.0800 C   0  0  0  0  0  0  0  0  0  0  0  0
    7.2410    0.0030    0.2960 C   0  0  0  0  0  0  0  0  0  0  0  0
    8.3800   -0.2020   -0.9170 S   0  0  2  0  0  0  0  0  0  0  0  0
    8.9270   -1.7630   -1.0920 C   0  0  0  0  0  0  0  0  0  0  0  0
    9.6260    0.9390   -0.7590 C   0  0  0  0  0  0  0  0  0  0  0  0
    1.8970   -0.7660   -0.4890 O   0  0  0  0  0  0  0  0  0  0  0  0
    0.2480   -1.1010    0.1280 P   0  0  0  0  0  0  0  0  0  0  0  0
    0.3130   -1.6530    1.8860 C   0  0  0  0  0  0  0  0  0  0  0  0
   -0.1390   -3.0990    2.0130 C   0  0  0  0  0  0  0  0  0  0  0  0
   -5.3940    2.5730    1.1350 C   0  0  0  0  0  0  0  0  0  0  0  0
   -5.3330    3.6830    0.1170 C   0  0  0  0  0  0  0  0  0  0  0  0
   -4.8550    3.0870   -1.0430 O   0  0  0  0  0  0  0  0  0  0  0  0
   -3.9040    2.1580   -0.6390 C   0  0  0  0  0  0  0  0  0  0  0  0
  1  2  1  0
  2  3  1  0
  3  4  1  0
  4  5  2  0
  4  6  1  0
  7  6  1  6
  7  8  1  0
  7 26  1  0
  7 29  1  0
  8  9  1  0
  9 10  1  0
 10 11  1  0
 11 12  2  0
 11 23  1  0
 12 13  2  0
 13 14  1  0
 13 22  1  0
 14 15  2  3
 15 16  1  0
 16 17  2  3
 17 18  1  0
 18 19  1  0
 19 20  1  1
 19 21  1  0
 22 23  1  0
 23 24  1  0
 24 25  1  0
 26 27  1  0
 27 28  1  0
 28 29  1  0
M  END
