
     RDKit          3D

 29 30  0  0  0  0  0  0  0  0999 V2000
   -4.8140   -3.3420   -1.9230 C   0  0  0  0  0  0  0  0  0  0  0  0
   -4.5800   -2.4540   -0.6660 C   0  0  1  0  0  0  0  0  0  0  0  0
   -4.4560   -3.3880    0.5040 C   0  0  0  0  0  0  0  0  0  0  0  0
   -5.3400   -4.1570    0.8270 O   0  0  0  0  0  0  0  0  0  0  0  0
   -3.2700   -1.2990   -0.8690 P   0  0  0  0  0  0  0  0  0  0  0  0
   -2.6630    0.0340   -0.2490 C   0  0  0  0  0  0  0  0  0  0  0  0
   -3.1520    0.7910    0.8890 C   0  0  0  0  0  0  0  0  0  0  0  0
   -4.1800    0.5280    1.6180 C   0  0  0  0  0  0  0  0  0  0  0  0
   -5.0630   -0.5030    1.5210 O   0  0  0  0  0  0  0  0  0  0  0  0
   -4.4600    1.4300    2.6890 O   0  0  0  0  0  0  0  0  0  0  0  0
   -1.4910    0.6380   -0.8570 N   0  0  0  0  0  0  0  0  0  0  0  0
   -0.2850    0.5430   -0.6630 C   0  0  0  0  0  0  0  0  0  0  0  0
    0.5060    1.3530   -1.5320 O   0  0  0  0  0  0  0  0  0  0  0  0
   -0.0340    2.1430   -2.5570 C   0  0  2  0  0  0  0  0  0  0  0  0
   -1.0050    3.2000   -2.0940 C   0  0  0  0  0  0  0  0  0  0  0  0
   -0.6210    1.3220   -3.6850 C   0  0  0  0  0  0  0  0  0  0  0  0
    1.1720    2.8800   -3.1620 C   0  0  0  0  0  0  0  0  0  0  0  0
    0.4620   -0.2490    0.2940 C   0  0  0  0  0  0  0  0  0  0  0  0
   -0.0560   -1.0470    1.1980 C   0  0  0  0  0  0  0  0  0  0  0  0
    0.7530   -1.8610    2.1820 C   0  0  0  0  0  0  0  0  0  0  0  0
    1.8230   -0.9580    2.5450 O   0  0  0  0  0  0  0  0  0  0  0  0
    2.6000   -0.4200    1.5260 C   0  0  0  0  0  0  0  0  0  0  0  0
    3.8760   -0.1300    1.6740 C   0  0  0  0  0  0  0  0  0  0  0  0
    4.6360   -0.3280    2.9020 C   0  0  0  0  0  0  0  0  0  0  0  0
    5.9120   -0.0230    3.0010 C   0  0  0  0  0  0  0  0  0  0  0  0
    6.6530    0.5430    1.8680 C   0  0  0  0  0  0  0  0  0  0  0  0
    6.0370    0.1070    0.5680 C   0  0  0  0  0  0  0  0  0  0  0  0
    4.6350    0.4160    0.6140 O   0  0  0  0  0  0  0  0  0  0  0  0
    1.9600   -0.1710    0.2320 C   0  0  0  0  0  0  0  0  0  0  0  0
  2  1  1  6
  2  3  1  0
  2  5  1  0
  3  4  2  0
  5  6  2  3
  6  7  1  0
  6 11  1  0
  7  8  2  3
  8  9  1  0
  8 10  1  0
 11 12  2  3
 12 13  1  0
 12 18  1  0
 13 14  1  0
 14 15  1  1
 14 16  1  0
 14 17  1  0
 18 19  2  0
 18 29  1  0
 19 20  1  0
 20 21  1  0
 21 22  1  0
 22 23  2  3
 22 29  1  0
 23 24  1  0
 23 28  1  0
 24 25  2  0
 25 26  1  0
 26 27  1  0
 27 28  1  0
M  END
