
     RDKit          3D

 29 31  0  0  0  0  0  0  0  0999 V2000
   -5.7210    0.3720   -0.3840 C   0  0  0  0  0  0  0  0  0  0  0  0
   -4.3940   -0.2950   -0.0860 C   0  0  0  0  0  0  0  0  0  0  0  0
   -4.5280   -1.4070    0.7040 O   0  0  0  0  0  0  0  0  0  0  0  0
   -3.1140   -2.2310    1.1170 P   0  0  0  0  0  0  0  0  0  0  0  0
   -2.9680   -3.9530    0.5330 C   0  0  0  0  0  0  0  0  0  0  0  0
   -1.5650   -1.2840    1.1190 C   0  0  0  0  0  0  0  0  0  0  0  0
   -1.0320   -0.9500   -0.1710 N   0  0  0  0  0  0  0  0  0  0  0  0
    0.2320   -0.1800    0.0190 C   0  0  1  0  0  0  0  0  0  0  0  0
    1.2280   -1.0420    0.2640 O   0  0  0  0  0  0  0  0  0  0  0  0
    2.2730   -1.4560   -0.5550 C   0  0  0  0  0  0  0  0  0  0  0  0
    3.1480   -2.4730   -0.1480 O   0  0  0  0  0  0  0  0  0  0  0  0
    4.4760   -2.2390    0.1390 C   0  0  0  0  0  0  0  0  0  0  0  0
    4.9910   -0.9680    0.0300 C   0  0  0  0  0  0  0  0  0  0  0  0
    6.3400   -0.7680    0.3290 C   0  0  0  0  0  0  0  0  0  0  0  0
    7.1630   -1.8110    0.7290 C   0  0  0  0  0  0  0  0  0  0  0  0
    6.6360   -3.0740    0.8340 C   0  0  0  0  0  0  0  0  0  0  0  0
    7.4460   -4.1250    1.2320 O   0  0  0  0  0  0  0  0  0  0  0  0
    5.2930   -3.2610    0.5340 C   0  0  0  0  0  0  0  0  0  0  0  0
    2.4010   -0.8520   -1.7240 C   0  0  0  0  0  0  0  0  0  0  0  0
    1.4310    0.1840   -2.0610 C   0  0  0  0  0  0  0  0  0  0  0  0
    0.4440    0.5310   -1.3030 C   0  0  0  0  0  0  0  0  0  0  0  0
   -0.5930    1.6010   -1.3170 C   0  0  0  0  0  0  0  0  0  0  0  0
   -0.8820    1.8870   -0.0290 C   0  0  0  0  0  0  0  0  0  0  0  0
   -1.7700    2.8020    0.4910 O   0  0  0  0  0  0  0  0  0  0  0  0
   -2.5540    3.6510   -0.3300 C   0  0  1  0  0  0  0  0  0  0  0  0
   -3.4320    4.5320    0.5130 C   0  0  0  0  0  0  0  0  0  0  0  0
   -1.6930    4.5310   -1.2040 C   0  0  0  0  0  0  0  0  0  0  0  0
   -0.0430    1.0010    0.8380 C   0  0  0  0  0  0  0  0  0  0  0  0
    0.4280    1.3460    2.3600 P   0  0  0  0  0  0  0  0  0  0  0  0
  1  2  1  0
  2  3  1  0
  3  4  1  0
  4  5  1  0
  4  6  1  0
  6  7  1  0
  8  7  1  6
  8  9  1  0
  8 21  1  0
  8 28  1  0
  9 10  1  0
 10 11  1  0
 10 19  2  0
 11 12  1  0
 12 13  2  0
 12 18  1  0
 13 14  1  0
 14 15  2  0
 15 16  1  0
 16 17  1  0
 16 18  2  0
 19 20  1  0
 20 21  2  0
 21 22  1  0
 22 23  2  0
 23 24  1  0
 23 28  1  0
 24 25  1  0
 25 26  1  1
 25 27  1  0
 28 29  2  0
M  END
