
     RDKit          3D

 29 30  0  0  0  0  0  0  0  0999 V2000
    0.6180    4.3340   -0.9860 C   0  0  0  0  0  0  0  0  0  0  0  0
    0.7050    3.0140   -0.7140 C   0  0  0  0  0  0  0  0  0  0  0  0
    1.9150    2.4110   -0.2540 C   0  0  0  0  0  0  0  0  0  0  0  0
    2.4600    1.3540    0.0900 C   0  0  0  0  0  0  0  0  0  0  0  0
    2.3810   -0.0720    0.3090 C   0  0  0  0  0  0  0  0  0  0  0  0
    1.1280   -0.8600    0.2070 C   0  0  0  0  0  0  0  0  0  0  0  0
    0.1610   -0.3270   -0.5040 C   0  0  0  0  0  0  0  0  0  0  0  0
   -1.1920   -0.7320   -0.8500 C   0  0  2  0  0  0  0  0  0  0  0  0
   -2.0180    0.3710   -0.6390 O   0  0  0  0  0  0  0  0  0  0  0  0
   -2.5020    0.9520   -1.7810 C   0  0  0  0  0  0  0  0  0  0  0  0
   -3.3890    2.1280   -1.3820 C   0  0  0  0  0  0  0  0  0  0  0  0
   -3.9540    2.8090   -2.6200 C   0  0  0  0  0  0  0  0  0  0  0  0
   -4.7570    3.8730   -2.2880 O   0  0  0  0  0  0  0  0  0  0  0  0
   -1.7170   -1.8900   -0.1690 C   0  0  0  0  0  0  0  0  0  0  0  0
   -2.9810   -2.2420   -0.3070 C   0  0  0  0  0  0  0  0  0  0  0  0
   -3.5300   -3.4300    0.3890 C   0  0  0  0  0  0  0  0  0  0  0  0
   -4.8110   -3.5680    0.0890 C   0  0  0  0  0  0  0  0  0  0  0  0
   -5.2200   -2.4930   -0.8230 C   0  0  0  0  0  0  0  0  0  0  0  0
   -4.0430   -1.7390   -1.0060 O   0  0  0  0  0  0  0  0  0  0  0  0
   -0.5390   -2.8230    0.8890 P   0  0  0  0  0  0  0  0  0  0  0  0
    0.9820   -2.0740    0.9610 C   0  0  0  0  0  0  0  0  0  0  0  0
    1.9600   -2.6680    1.8410 N   0  0  0  0  0  0  0  0  0  0  0  0
    1.5420   -2.8750    3.0660 C   0  0  0  0  0  0  0  0  0  0  0  0
    0.2160   -2.5610    3.5820 C   0  0  0  0  0  0  0  0  0  0  0  0
    3.5040   -0.5790    0.8160 C   0  0  0  0  0  0  0  0  0  0  0  0
    3.7570   -1.8500    1.1190 O   0  0  0  0  0  0  0  0  0  0  0  0
    4.5630    0.3270    1.0700 O   0  0  0  0  0  0  0  0  0  0  0  0
    5.7670    0.0370    0.3800 C   0  0  0  0  0  0  0  0  0  0  0  0
    6.8380    1.0520    0.7100 C   0  0  0  0  0  0  0  0  0  0  0  0
  1  2  2  0
  2  3  1  0
  3  4  2  3
  4  5  1  0
  5  6  1  0
  5 25  2  3
  6  7  2  0
  6 21  1  0
  7  8  1  0
  8  9  1  1
  8 14  1  0
  9 10  1  0
 10 11  1  0
 11 12  1  0
 12 13  1  0
 14 15  2  3
 14 20  1  0
 15 16  1  0
 15 19  1  0
 16 17  2  0
 17 18  1  0
 18 19  1  0
 20 21  2  0
 21 22  1  0
 22 23  2  3
 23 24  1  0
 25 26  1  0
 25 27  1  0
 27 28  1  0
 28 29  1  0
M  END
