
     RDKit          3D

 29 30  0  0  0  0  0  0  0  0999 V2000
   -0.6300   -4.9990   -1.1870 C   0  0  0  0  0  0  0  0  0  0  0  0
   -0.9310   -3.9450   -0.1530 C   0  0  0  0  0  0  0  0  0  0  0  0
   -2.1750   -3.8130    0.2270 C   0  0  0  0  0  0  0  0  0  0  0  0
   -2.5170   -2.7950    1.2330 C   0  0  0  0  0  0  0  0  0  0  0  0
   -3.7900   -2.7100    1.6080 C   0  0  0  0  0  0  0  0  0  0  0  0
   -4.2150   -1.7270    2.6080 C   0  0  0  0  0  0  0  0  0  0  0  0
   -1.5850   -1.9760    1.7540 O   0  0  0  0  0  0  0  0  0  0  0  0
   -1.0260   -0.8430    1.1180 C   0  0  2  0  0  0  0  0  0  0  0  0
   -0.1030   -0.1950    1.8810 O   0  0  0  0  0  0  0  0  0  0  0  0
    1.1960   -0.1040    1.4260 C   0  0  2  0  0  0  0  0  0  0  0  0
    1.3440    0.5850    0.1410 C   0  0  0  0  0  0  0  0  0  0  0  0
    0.2530    1.0410   -0.4370 O   0  0  0  0  0  0  0  0  0  0  0  0
    2.4880    0.8550   -0.6180 N   0  0  0  0  0  0  0  0  0  0  0  0
    2.4200    1.5430   -1.9510 C   0  0  0  0  0  0  0  0  0  0  0  0
    3.6190    1.0650   -2.7180 C   0  0  0  0  0  0  0  0  0  0  0  0
    4.3700    0.1910   -1.7790 C   0  0  1  0  0  0  0  0  0  0  0  0
    5.7480    0.2980   -1.8950 O   0  0  0  0  0  0  0  0  0  0  0  0
    6.3610   -0.9150   -2.1580 C   0  0  0  0  0  0  0  0  0  0  0  0
    3.8790    0.6380   -0.4400 C   0  0  0  0  0  0  0  0  0  0  0  0
    4.5870    0.7670    0.5480 O   0  0  0  0  0  0  0  0  0  0  0  0
    2.2370   -1.0480    1.8570 C   0  0  0  0  0  0  0  0  0  0  0  0
    2.1650    0.2510    2.5670 C   0  0  0  0  0  0  0  0  0  0  0  0
   -2.4040    0.3160    0.7350 P   0  0  0  0  0  0  0  0  0  0  0  0
   -2.8390    0.3810   -1.0410 C   0  0  0  0  0  0  0  0  0  0  0  0
   -2.0480    1.8880    1.3930 O   0  0  0  0  0  0  0  0  0  0  0  0
   -2.5010    3.0790    0.8370 C   0  0  0  0  0  0  0  0  0  0  0  0
   -3.9110    3.3150    0.5010 C   0  0  0  0  0  0  0  0  0  0  0  0
   -1.6110    4.0260    0.6080 C   0  0  0  0  0  0  0  0  0  0  0  0
   -2.0650    5.3060    0.0160 C   0  0  0  0  0  0  0  0  0  0  0  0
  1  2  1  0
  2  3  2  3
  3  4  1  0
  4  5  2  3
  4  7  1  0
  5  6  1  0
  8  7  1  1
  8  9  1  0
  8 23  1  0
 10  9  1  1
 10 11  1  0
 10 21  1  0
 10 22  1  0
 11 12  2  0
 11 13  1  0
 13 14  1  0
 13 19  1  0
 14 15  1  0
 15 16  1  0
 16 17  1  1
 16 19  1  0
 17 18  1  0
 19 20  2  0
 21 22  1  0
 23 24  1  0
 23 25  1  0
 25 26  1  0
 26 27  1  0
 26 28  2  3
 28 29  1  0
M  END
