
     RDKit          3D

 28 29  0  0  0  0  0  0  0  0999 V2000
   -0.5050    1.7720   -2.8310 C   0  0  0  0  0  0  0  0  0  0  0  0
   -1.6460    1.7760   -2.1790 C   0  0  0  0  0  0  0  0  0  0  0  0
   -2.2430    0.5950   -1.5060 C   0  0  0  0  0  0  0  0  0  0  0  0
   -2.4210    0.7910   -0.1540 O   0  0  0  0  0  0  0  0  0  0  0  0
   -2.9350   -0.2200    0.5690 C   0  0  1  0  0  0  0  0  0  0  0  0
   -4.2540   -0.7580    0.0530 C   0  0  0  0  0  0  0  0  0  0  0  0
   -2.0100   -1.3330    0.9320 C   0  0  0  0  0  0  0  0  0  0  0  0
   -2.5260   -2.3420    1.5430 O   0  0  0  0  0  0  0  0  0  0  0  0
   -0.6380   -1.3790    0.6700 N   0  0  0  0  0  0  0  0  0  0  0  0
    0.2740   -2.4160    0.9930 C   0  0  0  0  0  0  0  0  0  0  0  0
   -0.1080   -3.5610    1.6330 C   0  0  0  0  0  0  0  0  0  0  0  0
    0.8030   -4.5730    1.9430 C   0  0  0  0  0  0  0  0  0  0  0  0
    2.1110   -4.3960    1.5890 C   0  0  0  0  0  0  0  0  0  0  0  0
    2.4950   -3.2390    0.9440 C   0  0  0  0  0  0  0  0  0  0  0  0
    1.6200   -2.2360    0.6300 C   0  0  0  0  0  0  0  0  0  0  0  0
    2.0090   -1.0400   -0.0390 C   0  0  0  0  0  0  0  0  0  0  0  0
    2.3420   -0.0160   -0.5910 C   0  0  0  0  0  0  0  0  0  0  0  0
    2.7560    1.2440   -1.2430 C   0  0  0  0  0  0  0  0  0  0  0  0
    4.2320    1.2560   -1.4060 C   0  0  0  0  0  0  0  0  0  0  0  0
    4.9230    0.2900   -0.9810 O   0  0  0  0  0  0  0  0  0  0  0  0
    4.9200    2.3020   -2.0180 O   0  0  0  0  0  0  0  0  0  0  0  0
    6.3290    2.2260   -2.1260 C   0  0  0  0  0  0  0  0  0  0  0  0
    6.7090    1.0550   -2.8980 N   0  0  0  0  0  0  0  0  0  0  0  0
   -3.2760    0.4080    1.9540 C   0  0  2  0  0  0  0  0  0  0  0  0
   -4.2510    1.4950    1.8470 C   0  0  0  0  0  0  0  0  0  0  0  0
   -3.6480    2.7820    1.4460 C   0  0  0  0  0  0  0  0  0  0  0  0
   -1.9320    2.6060    2.0780 S   0  0  0  0  0  0  0  0  0  0  0  0
   -2.0250    0.8580    2.5880 C   0  0  0  0  0  0  0  0  0  0  0  0
  1  2  2  0
  2  3  1  0
  3  4  1  0
  4  5  1  0
  5  6  1  6
  5  7  1  0
  5 24  1  0
  7  8  2  0
  7  9  1  0
  9 10  1  0
 10 11  2  0
 10 15  1  0
 11 12  1  0
 12 13  2  0
 13 14  1  0
 14 15  2  0
 15 16  1  0
 16 17  3  0
 17 18  1  0
 18 19  1  0
 19 20  2  0
 19 21  1  0
 21 22  1  0
 22 23  1  0
 24 25  1  6
 24 28  1  0
 25 26  1  0
 26 27  1  0
 27 28  1  0
M  END
