
     RDKit          3D

 28 29  0  0  0  0  0  0  0  0999 V2000
   -2.3080    6.7410    0.6870 C   0  0  0  0  0  0  0  0  0  0  0  0
   -1.1980    6.2660    1.5660 C   0  0  0  0  0  0  0  0  0  0  0  0
   -0.6530    5.0390    1.2360 O   0  0  0  0  0  0  0  0  0  0  0  0
   -1.3500    3.8530    1.2220 C   0  0  0  0  0  0  0  0  0  0  0  0
   -2.5780    3.9260    1.5410 O   0  0  0  0  0  0  0  0  0  0  0  0
   -0.7410    2.5650    0.8660 C   0  0  0  0  0  0  0  0  0  0  0  0
   -1.3940    1.3970    0.8740 N   0  0  0  0  0  0  0  0  0  0  0  0
   -0.5670    0.3840    0.5040 C   0  0  0  0  0  0  0  0  0  0  0  0
   -0.8890   -1.0450    0.3910 C   0  0  0  0  0  0  0  0  0  0  0  0
   -2.3470   -1.3220    0.0870 C   0  0  1  0  0  0  0  0  0  0  0  0
   -2.6940   -0.6670   -1.2260 C   0  0  0  0  0  0  0  0  0  0  0  0
   -4.0870   -1.1190   -1.6780 C   0  0  0  0  0  0  0  0  0  0  0  0
   -3.9550   -2.6290   -1.9360 C   0  0  0  0  0  0  0  0  0  0  0  0
   -3.8160   -3.2670   -0.5500 C   0  0  1  0  0  0  0  0  0  0  0  0
   -3.7520   -4.7680   -0.7340 C   0  0  0  0  0  0  0  0  0  0  0  0
   -2.5170   -2.8220    0.0670 C   0  0  0  0  0  0  0  0  0  0  0  0
    0.6680    0.9470    0.2510 C   0  0  0  0  0  0  0  0  0  0  0  0
    1.8860    0.2520   -0.2040 C   0  0  0  0  0  0  0  0  0  0  0  0
    1.7040   -0.7960   -0.8580 O   0  0  0  0  0  0  0  0  0  0  0  0
    3.1980    0.6530    0.0370 N   0  0  0  0  0  0  0  0  0  0  0  0
    4.4530    0.1260   -0.2940 C   0  0  0  0  0  0  0  0  0  0  0  0
    4.9770   -1.1310    0.2320 C   0  0  2  0  0  0  0  0  0  0  0  0
    6.3100   -1.2470   -0.3120 O   0  0  0  0  0  0  0  0  0  0  0  0
    4.2990   -2.3710   -0.2730 C   0  0  0  0  0  0  0  0  0  0  0  0
    5.0600   -3.5710    0.3960 C   0  0  0  0  0  0  0  0  0  0  0  0
    4.8800   -3.3610    2.1790 S   0  0  0  0  0  0  0  0  0  0  0  0
    0.5610    2.3000    0.4730 C   0  0  0  0  0  0  0  0  0  0  0  0
    1.5650    3.3710    0.2990 C   0  0  0  0  0  0  0  0  0  0  0  0
  1  2  1  0
  2  3  1  0
  3  4  1  0
  4  5  2  0
  4  6  1  0
  6  7  1  0
  6 27  2  0
  7  8  1  0
  8  9  1  0
  8 17  2  0
 10  9  1  6
 10 11  1  0
 10 16  1  0
 11 12  1  0
 12 13  1  0
 13 14  1  0
 14 15  1  6
 14 16  1  0
 17 18  1  0
 17 27  1  0
 18 19  2  0
 18 20  1  0
 20 21  1  0
 21 22  1  0
 22 23  1  6
 22 24  1  0
 24 25  1  0
 25 26  1  0
 27 28  1  0
M  END
