
     RDKit          3D

 28 29  0  0  0  0  0  0  0  0999 V2000
    7.6020    3.3160   -2.4110 C   0  0  0  0  0  0  0  0  0  0  0  0
    7.1260    2.5660   -1.4170 C   0  0  0  0  0  0  0  0  0  0  0  0
    5.8020    2.0030   -1.4890 C   0  0  0  0  0  0  0  0  0  0  0  0
    5.3190    1.2590   -0.5170 C   0  0  0  0  0  0  0  0  0  0  0  0
    3.9750    0.6580   -0.5310 C   0  0  0  0  0  0  0  0  0  0  0  0
    3.8340   -0.4500    0.1110 C   0  0  0  0  0  0  0  0  0  0  0  0
    2.6600   -1.2930    0.2920 C   0  0  0  0  0  0  0  0  0  0  0  0
    2.7720   -2.4750    1.0380 C   0  0  0  0  0  0  0  0  0  0  0  0
    1.6890   -3.2860    1.2280 C   0  0  0  0  0  0  0  0  0  0  0  0
    1.7740   -4.5330    2.0070 C   0  0  0  0  0  0  0  0  0  0  0  0
    0.4550   -2.9330    0.6720 C   0  0  0  0  0  0  0  0  0  0  0  0
    0.2910   -1.7900   -0.0650 C   0  0  0  0  0  0  0  0  0  0  0  0
   -1.0070   -1.4640   -0.6230 C   0  0  0  0  0  0  0  0  0  0  0  0
   -1.2040   -0.3970   -1.3230 O   0  0  0  0  0  0  0  0  0  0  0  0
   -2.1220   -2.3230   -0.4130 N   0  0  0  0  0  0  0  0  0  0  0  0
   -3.4060   -1.9670   -0.9840 C   0  0  0  0  0  0  0  0  0  0  0  0
   -3.8520   -0.6370   -0.4340 C   0  0  0  0  0  0  0  0  0  0  0  0
   -3.1580    0.0070    0.3930 O   0  0  0  0  0  0  0  0  0  0  0  0
   -5.0830   -0.0540   -0.8330 N   0  0  0  0  0  0  0  0  0  0  0  0
   -5.4950    1.2060   -0.3060 C   0  0  0  0  0  0  0  0  0  0  0  0
   -5.6580    1.2470    1.1830 C   0  0  0  0  0  0  0  0  0  0  0  0
   -6.1000    2.6740    1.5350 C   0  0  0  0  0  0  0  0  0  0  0  0
   -7.3890    3.0360    0.8740 C   0  0  0  0  0  0  0  0  0  0  0  0
    1.4230   -0.9730   -0.2460 C   0  0  0  0  0  0  0  0  0  0  0  0
    1.3380    0.1750   -0.9640 O   0  0  0  0  0  0  0  0  0  0  0  0
    5.4520   -0.8140    0.8370 S   0  0  0  0  0  0  0  0  0  0  0  0
    5.3000   -1.1980    2.3030 O   0  0  0  0  0  0  0  0  0  0  0  0
    6.0580    0.9180    0.7230 C   0  0  0  0  0  0  0  0  0  0  0  0
  1  2  2  0
  2  3  1  0
  3  4  2  3
  4  5  1  0
  4 28  1  0
  5  6  2  0
  6  7  1  0
  6 26  1  0
  7  8  2  0
  7 24  1  0
  8  9  1  0
  9 10  1  0
  9 11  2  0
 11 12  1  0
 12 13  1  0
 12 24  2  0
 13 14  2  0
 13 15  1  0
 15 16  1  0
 16 17  1  0
 17 18  2  0
 17 19  1  0
 19 20  1  0
 20 21  1  0
 21 22  1  0
 22 23  1  0
 24 25  1  0
 26 27  2  0
 26 28  1  1
M  END
