
     RDKit          3D

 28 29  0  0  0  0  0  0  0  0999 V2000
    1.9280    4.9600    0.3690 C   0  0  0  0  0  0  0  0  0  0  0  0
    2.1310    3.5750   -0.2790 C   0  0  2  0  0  0  0  0  0  0  0  0
    1.9150    3.8340   -1.7640 C   0  0  0  0  0  0  0  0  0  0  0  0
    1.1310    2.6650    0.2770 C   0  0  0  0  0  0  0  0  0  0  0  0
   -0.0640    3.4000    1.1870 S   0  0  0  0  0  0  0  0  0  0  0  0
    1.0280    1.2760    0.1240 N   0  0  0  0  0  0  0  0  0  0  0  0
   -0.1650    0.6450    0.7420 C   0  0  0  0  0  0  0  0  0  0  0  0
   -1.2130    0.6100   -0.3160 C   0  0  2  0  0  0  0  0  0  0  0  0
   -1.4830    1.9080   -0.7250 O   0  0  0  0  0  0  0  0  0  0  0  0
   -2.5120    0.0030    0.1370 C   0  0  2  0  0  0  0  0  0  0  0  0
   -3.4580    0.0390   -1.0530 C   0  0  0  0  0  0  0  0  0  0  0  0
   -3.0100    0.7490    1.1770 O   0  0  0  0  0  0  0  0  0  0  0  0
   -2.3670   -1.4220    0.6020 C   0  0  0  0  0  0  0  0  0  0  0  0
   -3.7210   -1.8960    1.0190 C   0  0  0  0  0  0  0  0  0  0  0  0
   -4.3670   -2.9240    0.4850 C   0  0  0  0  0  0  0  0  0  0  0  0
   -5.6910   -3.1240    1.1340 C   0  0  0  0  0  0  0  0  0  0  0  0
   -5.6110   -2.3060    2.2990 N   0  0  0  0  0  0  0  0  0  0  0  0
   -4.5710   -1.3250    2.0760 C   0  0  0  0  0  0  0  0  0  0  0  0
    1.9010    0.3980   -0.5310 C   0  0  0  0  0  0  0  0  0  0  0  0
    1.5360   -0.8390   -0.5420 O   0  0  0  0  0  0  0  0  0  0  0  0
    3.1670    0.6780   -1.2020 C   0  0  0  0  0  0  0  0  0  0  0  0
    3.7650   -0.5460   -1.6620 O   0  0  0  0  0  0  0  0  0  0  0  0
    4.1680   -1.5330   -0.8080 C   0  0  0  0  0  0  0  0  0  0  0  0
    4.0440   -1.3940    0.5440 C   0  0  0  0  0  0  0  0  0  0  0  0
    4.4450   -2.3890    1.4380 C   0  0  0  0  0  0  0  0  0  0  0  0
    4.9830   -3.5480    0.9110 C   0  0  0  0  0  0  0  0  0  0  0  0
    5.1040   -3.6780   -0.4520 C   0  0  0  0  0  0  0  0  0  0  0  0
    4.7130   -2.7060   -1.3370 C   0  0  0  0  0  0  0  0  0  0  0  0
  2  1  1  1
  2  3  1  0
  2  4  1  0
  4  5  2  0
  4  6  1  0
  6  7  1  0
  6 19  1  0
  7  8  1  0
  8  9  1  1
  8 10  1  0
 10 11  1  6
 10 12  1  0
 10 13  1  0
 13 14  1  0
 14 15  2  0
 14 18  1  0
 15 16  1  0
 16 17  1  0
 17 18  1  0
 19 20  2  0
 19 21  1  0
 21 22  1  0
 22 23  1  0
 23 24  2  0
 23 28  1  0
 24 25  1  0
 25 26  2  0
 26 27  1  0
 27 28  2  0
M  END
