
     RDKit          3D

 28 29  0  0  0  0  0  0  0  0999 V2000
   -2.6670   -1.5300   -3.1960 C   0  0  0  0  0  0  0  0  0  0  0  0
   -2.7820   -2.0210   -1.8480 N   0  0  0  0  0  0  0  0  0  0  0  0
   -3.9150   -1.6870   -1.0750 C   0  0  0  0  0  0  0  0  0  0  0  0
   -3.8930   -0.5230   -0.4410 C   0  0  0  0  0  0  0  0  0  0  0  0
   -2.7610    0.2620   -0.5950 O   0  0  0  0  0  0  0  0  0  0  0  0
   -1.6010    0.0580    0.1980 C   0  0  0  0  0  0  0  0  0  0  0  0
   -0.5090    1.0440   -0.1660 C   0  0  0  0  0  0  0  0  0  0  0  0
   -0.0950    0.9200   -1.6070 C   0  0  0  0  0  0  0  0  0  0  0  0
    0.9700    1.9310   -1.9060 C   0  0  0  0  0  0  0  0  0  0  0  0
    2.1890    1.7550   -1.0620 C   0  0  0  0  0  0  0  0  0  0  0  0
    2.8600    0.4630   -1.2280 C   0  0  0  0  0  0  0  0  0  0  0  0
    2.5200   -0.3600   -2.0860 O   0  0  0  0  0  0  0  0  0  0  0  0
    3.9570    0.1310   -0.3670 N   0  0  0  0  0  0  0  0  0  0  0  0
    4.4010    1.0530    0.6580 C   0  0  0  0  0  0  0  0  0  0  0  0
    5.9010    0.8740    0.8320 C   0  0  0  0  0  0  0  0  0  0  0  0
    6.1820   -0.4910    1.3800 C   0  0  0  0  0  0  0  0  0  0  0  0
    5.2450   -1.5360    0.8490 C   0  0  2  0  0  0  0  0  0  0  0  0
    5.9650   -2.8600    0.6550 C   0  0  0  0  0  0  0  0  0  0  0  0
    4.6550   -1.1320   -0.4940 C   0  0  0  0  0  0  0  0  0  0  0  0
   -4.8940    0.0950    0.4210 C   0  0  0  0  0  0  0  0  0  0  0  0
   -4.8040    1.5450    0.5240 C   0  0  0  0  0  0  0  0  0  0  0  0
   -3.9150    2.1720   -0.1010 O   0  0  0  0  0  0  0  0  0  0  0  0
   -5.6930    2.2520    1.3090 O   0  0  0  0  0  0  0  0  0  0  0  0
   -5.6770    3.6520    1.4650 C   0  0  0  0  0  0  0  0  0  0  0  0
   -5.8650   -0.4810    1.1180 C   0  0  0  0  0  0  0  0  0  0  0  0
   -6.2610   -1.8590    1.2650 C   0  0  0  0  0  0  0  0  0  0  0  0
   -6.0400   -2.8620    0.4550 C   0  0  0  0  0  0  0  0  0  0  0  0
   -5.1900   -2.9520   -1.1120 S   0  0  0  0  0  0  0  0  0  0  0  0
  1  2  1  0
  2  3  1  0
  3  4  2  0
  3 28  1  0
  4  5  1  0
  4 20  1  0
  5  6  1  0
  6  7  1  0
  7  8  1  0
  8  9  1  0
  9 10  1  0
 10 11  1  0
 11 12  2  0
 11 13  1  0
 13 14  1  0
 13 19  1  0
 14 15  1  0
 15 16  1  0
 16 17  1  0
 17 18  1  6
 17 19  1  0
 20 21  1  0
 20 25  2  0
 21 22  2  0
 21 23  1  0
 23 24  1  0
 25 26  1  0
 26 27  2  0
 27 28  1  0
M  END
