
     RDKit          3D

 18 20  0  0  0  0  0  0  0  0999 V2000
   -4.2190    0.4770    0.8330 C   0  0  0  0  0  0  0  0  0  0  0  0
   -3.1410    0.3390   -0.1920 C   0  0  2  0  0  0  0  0  0  0  0  0
   -3.5580    1.0190   -1.4730 C   0  0  0  0  0  0  0  0  0  0  0  0
   -2.8630   -1.1370   -0.3930 C   0  0  0  0  0  0  0  0  0  0  0  0
   -1.7120   -1.4910    0.5250 C   0  0  0  0  0  0  0  0  0  0  0  0
   -0.4460   -0.9530   -0.1580 C   0  0  2  0  0  0  0  0  0  0  0  0
    0.6680   -0.9620    0.7370 N   0  0  0  0  0  0  0  0  0  0  0  0
    1.9370   -0.5380    0.2820 C   0  0  0  0  0  0  0  0  0  0  0  0
    2.1380   -0.1640   -1.0310 C   0  0  0  0  0  0  0  0  0  0  0  0
    3.3910    0.2460   -1.4350 C   0  0  0  0  0  0  0  0  0  0  0  0
    4.4860    0.3070   -0.5850 C   0  0  0  0  0  0  0  0  0  0  0  0
    5.8020    0.6660   -0.7210 C   0  0  0  0  0  0  0  0  0  0  0  0
    6.3910    0.5180    0.4680 N   0  0  0  0  0  0  0  0  0  0  0  0
    5.4840    0.0770    1.3440 N   0  0  0  0  0  0  0  0  0  0  0  0
    4.2880   -0.0710    0.7430 C   0  0  0  0  0  0  0  0  0  0  0  0
    3.0360   -0.4810    1.1480 C   0  0  0  0  0  0  0  0  0  0  0  0
   -0.7720    0.4920   -0.4880 C   0  0  0  0  0  0  0  0  0  0  0  0
   -1.9180    0.9840    0.2610 N   0  0  0  0  0  0  0  0  0  0  0  0
  2  1  1  1
  2  3  1  0
  2  4  1  0
  2 18  1  0
  4  5  1  0
  5  6  1  0
  6  7  1  1
  6 17  1  0
  7  8  1  0
  8  9  2  0
  8 16  1  0
  9 10  1  0
 10 11  2  0
 11 12  1  0
 11 15  1  0
 12 13  2  0
 13 14  1  0
 14 15  1  0
 15 16  2  0
 17 18  1  0
M  CHG  1  18   1
M  END
