
     RDKit          3D

  6  5  0  0  0  0  0  0  0  0999 V2000
   -2.6020   -0.1180    0.1160 C   0  0  0  0  0  0  0  0  0  0  0  0
   -1.3000    0.6270    0.4070 C   0  0  0  0  0  0  0  0  0  0  0  0
   -0.2870   -0.2680    0.1850 O   0  0  0  0  0  0  0  0  0  0  0  0
    0.9830    0.2450    0.4050 C   0  0  0  0  0  0  0  0  0  0  0  0
    1.9570   -0.8790    0.1110 C   0  0  0  0  0  0  0  0  0  0  0  0
    3.2580   -0.4230    0.3140 O   0  0  0  0  0  0  0  0  0  0  0  0
  1  2  1  0
  2  3  1  0
  3  4  1  0
  4  5  1  0
  5  6  1  0
M  END
