
     RDKit          3D

 18 20  0  0  0  0  0  0  0  0999 V2000
    4.2890   -1.1950    0.3670 C   0  0  0  0  0  0  0  0  0  0  0  0
    3.3490   -0.1970   -0.2660 C   0  0  0  0  0  0  0  0  0  0  0  0
    2.3610   -0.8830   -1.1920 C   0  0  0  0  0  0  0  0  0  0  0  0
    1.4060    0.0550   -1.8360 C   0  0  0  0  0  0  0  0  0  0  0  0
    0.5390    0.7930   -0.9420 N   0  0  0  0  0  0  0  0  0  0  0  0
    0.6920    2.1880   -0.7240 C   0  0  0  0  0  0  0  0  0  0  0  0
    1.5540    3.0130   -1.2180 N   0  0  0  0  0  0  0  0  0  0  0  0
   -0.3340    2.5280    0.1870 N   0  0  0  0  0  0  0  0  0  0  0  0
   -1.0630    1.5520    0.5370 C   0  0  0  0  0  0  0  0  0  0  0  0
   -2.1850    1.5850    1.4490 N   0  0  0  0  0  0  0  0  0  0  0  0
   -2.9280    2.7970    1.6330 C   0  0  0  0  0  0  0  0  0  0  0  0
   -0.5670    0.3270   -0.1520 C   0  0  2  0  0  0  0  0  0  0  0  0
   -0.1970   -0.7370    0.8440 C   0  0  0  0  0  0  0  0  0  0  0  0
   -0.6980   -2.0710    0.3370 C   0  0  0  0  0  0  0  0  0  0  0  0
   -2.2140   -2.0700    0.4940 C   0  0  2  0  0  0  0  0  0  0  0  0
   -3.0550   -2.3890   -0.6890 C   0  0  0  0  0  0  0  0  0  0  0  0
   -2.7360   -0.9280   -0.3010 C   0  0  2  0  0  0  0  0  0  0  0  0
   -1.6900   -0.1860   -1.0610 C   0  0  0  0  0  0  0  0  0  0  0  0
  1  2  1  0
  2  3  1  0
  3  4  1  0
  4  5  1  0
  5  6  1  0
  5 12  1  0
  6  7  2  0
  6  8  1  0
  8  9  2  0
  9 10  1  0
  9 12  1  0
 10 11  1  0
 12 13  1  1
 12 18  1  0
 13 14  1  0
 15 14  1  6
 15 16  1  0
 15 17  1  0
 17 16  1  6
 17 18  1  0
M  CHG  1   7   1
M  END
