
     RDKit          3D

 18 19  0  0  0  0  0  0  0  0999 V2000
    4.7360   -0.1860    1.4650 C   0  0  0  0  0  0  0  0  0  0  0  0
    3.8650    0.9790    1.8400 C   0  0  0  0  0  0  0  0  0  0  0  0
    2.5300    0.8260    1.1250 C   0  0  0  0  0  0  0  0  0  0  0  0
    2.2310    1.7790    0.2800 C   0  0  0  0  0  0  0  0  0  0  0  0
    1.0630    1.9510   -0.5570 C   0  0  0  0  0  0  0  0  0  0  0  0
   -0.1690    1.6920   -0.2420 C   0  0  0  0  0  0  0  0  0  0  0  0
   -1.0680    1.5160   -1.1640 C   0  0  0  0  0  0  0  0  0  0  0  0
   -2.1180    0.5780   -1.1640 N   0  0  0  0  0  0  0  0  0  0  0  0
   -3.5300    0.8160   -1.5280 C   0  0  0  0  0  0  0  0  0  0  0  0
   -4.2160   -0.4740   -1.2480 C   0  0  0  0  0  0  0  0  0  0  0  0
   -3.3330   -1.0660   -0.1410 C   0  0  2  0  0  0  0  0  0  0  0  0
   -3.5110   -0.2800    1.0380 N   0  0  0  0  0  0  0  0  0  0  0  0
   -1.9930   -0.8000   -0.8080 C   0  0  0  0  0  0  0  0  0  0  0  0
   -0.9830   -1.4860   -1.0620 N   0  0  0  0  0  0  0  0  0  0  0  0
    0.2480   -1.1890   -1.7110 C   0  0  0  0  0  0  0  0  0  0  0  0
    1.4090   -1.3300   -0.7470 C   0  0  0  0  0  0  0  0  0  0  0  0
    0.9730   -1.1810    0.6770 C   0  0  0  0  0  0  0  0  0  0  0  0
    1.7900   -0.3140    1.4920 N   0  0  0  0  0  0  0  0  0  0  0  0
  1  2  1  0
  2  3  1  0
  3  4  2  0
  3 18  1  0
  4  5  1  0
  5  6  2  0
  6  7  2  0
  7  8  1  0
  8  9  1  0
  8 13  1  0
  9 10  1  0
 10 11  1  0
 11 12  1  1
 11 13  1  0
 13 14  2  0
 14 15  1  0
 15 16  1  0
 16 17  1  0
 17 18  1  0
M  CHG  1  12   1
M  END
