
     RDKit          3D

 19 20  0  0  0  0  0  0  0  0999 V2000
   -3.3380   -0.2560    3.4510 N   0  0  0  0  0  0  0  0  0  0  0  0
   -3.3770    0.3660    2.1880 C   0  0  0  0  0  0  0  0  0  0  0  0
   -2.4540    0.2050    1.2200 C   0  0  0  0  0  0  0  0  0  0  0  0
   -1.3100   -0.6260    1.3630 N   0  0  0  0  0  0  0  0  0  0  0  0
   -0.3320   -0.8020    0.3630 C   0  0  0  0  0  0  0  0  0  0  0  0
   -0.4300   -0.2150   -0.7130 O   0  0  0  0  0  0  0  0  0  0  0  0
    0.7590   -1.6750    0.6460 N   0  0  0  0  0  0  0  0  0  0  0  0
    1.8370   -1.9320   -0.2510 C   0  0  0  0  0  0  0  0  0  0  0  0
    2.6640   -0.7100   -0.5300 C   0  0  2  0  0  0  0  0  0  0  0  0
    1.9370    0.2740   -1.1140 O   0  0  0  0  0  0  0  0  0  0  0  0
    2.2230    0.4650   -2.4440 C   0  0  0  0  0  0  0  0  0  0  0  0
    3.6480    1.0370   -2.5140 C   0  0  0  0  0  0  0  0  0  0  0  0
    4.4790   -0.0760   -2.1110 N   0  0  0  0  0  0  0  0  0  0  0  0
    3.8630   -1.1070   -1.3550 C   0  0  0  0  0  0  0  0  0  0  0  0
    4.2950   -2.2990   -1.3720 O   0  0  0  0  0  0  0  0  0  0  0  0
   -2.8930    0.9990    0.0820 C   0  0  0  0  0  0  0  0  0  0  0  0
   -2.6390    0.8260   -1.1170 O   0  0  0  0  0  0  0  0  0  0  0  0
   -3.7500    2.1170    0.6340 C   0  0  0  0  0  0  0  0  0  0  0  0
   -4.4320    1.3080    1.7540 C   0  0  0  0  0  0  0  0  0  0  0  0
  1  2  1  0
  2  3  2  0
  2 19  1  0
  3  4  1  0
  3 16  1  0
  4  5  1  0
  5  6  2  0
  5  7  1  0
  7  8  1  0
  9  8  1  6
  9 10  1  0
  9 14  1  0
 10 11  1  0
 11 12  1  0
 12 13  1  0
 13 14  1  0
 14 15  2  0
 16 17  2  0
 16 18  1  0
 18 19  1  0
M  END
