
     RDKit          3D

 18 18  0  0  0  0  0  0  0  0999 V2000
    4.0770    3.0460   -2.7220 N   0  0  0  0  0  0  0  0  0  0  0  0
    3.9630    2.1660   -1.6320 C   0  0  0  0  0  0  0  0  0  0  0  0
    3.5450    0.9250   -1.7660 C   0  0  0  0  0  0  0  0  0  0  0  0
    3.4320    0.0300   -0.6410 C   0  0  0  0  0  0  0  0  0  0  0  0
    3.0110   -1.2040   -0.8130 C   0  0  0  0  0  0  0  0  0  0  0  0
    2.8760   -2.1680    0.3190 C   0  0  0  0  0  0  0  0  0  0  0  0
    1.4000   -2.5830    0.3700 C   0  0  0  0  0  0  0  0  0  0  0  0
    0.5410   -1.3990    0.5930 C   0  0  0  0  0  0  0  0  0  0  0  0
    1.0210   -0.2490    0.7130 O   0  0  0  0  0  0  0  0  0  0  0  0
   -0.8720   -1.4750    0.6870 N   0  0  0  0  0  0  0  0  0  0  0  0
   -1.7420   -0.3860    0.8980 C   0  0  1  0  0  0  0  0  0  0  0  0
   -2.5430   -0.1950   -0.3830 C   0  0  0  0  0  0  0  0  0  0  0  0
   -3.8970    0.3550   -0.1800 C   0  0  0  0  0  0  0  0  0  0  0  0
   -4.0410    1.5940    1.0450 S   0  0  1  0  0  0  0  0  0  0  0  0
   -3.6550    2.9580    0.5730 O   0  0  0  0  0  0  0  0  0  0  0  0
   -5.4620    1.5900    1.5650 O   0  0  0  0  0  0  0  0  0  0  0  0
   -2.9920    1.0540    2.3980 C   0  0  0  0  0  0  0  0  0  0  0  0
   -2.6520   -0.4080    2.0500 C   0  0  0  0  0  0  0  0  0  0  0  0
  1  2  1  0
  2  3  2  3
  3  4  1  0
  4  5  2  3
  5  6  1  0
  6  7  1  0
  7  8  1  0
  8  9  2  0
  8 10  1  0
 11 10  1  6
 11 12  1  0
 11 18  1  0
 12 13  1  0
 14 13  1  6
 14 15  2  0
 14 16  2  0
 14 17  1  0
 17 18  1  0
M  END
