
     RDKit          3D

 19 20  0  0  0  0  0  0  0  0999 V2000
   -2.3300   -0.9930    1.1630 C   0  0  0  0  0  0  0  0  0  0  0  0
   -1.6840   -0.8350   -0.1640 C   0  0  2  0  0  0  0  0  0  0  0  0
   -0.3550   -1.5800   -0.2780 C   0  0  0  0  0  0  0  0  0  0  0  0
    0.3110   -1.2520   -1.4320 O   0  0  0  0  0  0  0  0  0  0  0  0
    1.5320   -1.9240   -1.4010 C   0  0  0  0  0  0  0  0  0  0  0  0
    2.3730   -1.2410   -0.3530 C   0  0  1  0  0  0  0  0  0  0  0  0
    3.7350   -1.4150   -0.6620 O   0  0  0  0  0  0  0  0  0  0  0  0
    2.0080    0.1980   -0.3650 C   0  0  0  0  0  0  0  0  0  0  0  0
    1.6080    0.6380   -1.5030 O   0  0  0  0  0  0  0  0  0  0  0  0
    2.0770    1.0650    0.7550 N   0  0  0  0  0  0  0  0  0  0  0  0
    1.4620    0.9460    1.9960 N   0  0  0  0  0  0  0  0  0  0  0  0
    0.0650    0.9940    2.2580 C   0  0  0  0  0  0  0  0  0  0  0  0
   -0.3160    0.3120    3.2740 O   0  0  0  0  0  0  0  0  0  0  0  0
   -0.9450    1.6920    1.5520 N   0  0  0  0  0  0  0  0  0  0  0  0
   -1.2370    1.6650    0.1530 C   0  0  0  0  0  0  0  0  0  0  0  0
   -1.2530    2.7780   -0.7010 C   0  0  0  0  0  0  0  0  0  0  0  0
   -1.5740    2.3330   -1.9600 C   0  0  0  0  0  0  0  0  0  0  0  0
   -1.7470    1.0150   -1.8800 N   0  0  0  0  0  0  0  0  0  0  0  0
   -1.5470    0.5900   -0.6070 C   0  0  0  0  0  0  0  0  0  0  0  0
  2  1  1  1
  2  3  1  0
  2 19  1  0
  3  4  1  0
  4  5  1  0
  5  6  1  0
  6  7  1  6
  6  8  1  0
  8  9  2  0
  8 10  1  0
 10 11  1  0
 11 12  1  0
 12 13  2  0
 12 14  1  0
 14 15  1  0
 15 16  1  0
 15 19  2  0
 16 17  2  0
 17 18  1  0
 18 19  1  0
M  END
