
     RDKit          3D

 19 20  0  0  0  0  0  0  0  0999 V2000
   -2.0660   -2.4100   -0.3590 N   0  0  0  0  0  0  0  0  0  0  0  0
   -1.5730   -1.3980    0.5490 C   0  0  0  0  0  0  0  0  0  0  0  0
   -1.1020   -0.1630   -0.1960 C   0  0  1  0  0  0  0  0  0  0  0  0
   -2.2370    0.2980   -1.0870 C   0  0  0  0  0  0  0  0  0  0  0  0
   -3.2890    0.9440   -0.2390 C   0  0  0  0  0  0  0  0  0  0  0  0
   -2.7460    2.2890    0.2150 C   0  0  0  0  0  0  0  0  0  0  0  0
   -1.4650    2.0350    0.8890 C   0  0  0  0  0  0  0  0  0  0  0  0
   -0.7340    0.9330    0.6980 C   0  0  0  0  0  0  0  0  0  0  0  0
    0.4560    0.9980    1.5040 N   0  0  0  0  0  0  0  0  0  0  0  0
    1.6550    0.2400    1.4020 C   0  0  0  0  0  0  0  0  0  0  0  0
    2.4850    0.3770    2.3270 O   0  0  0  0  0  0  0  0  0  0  0  0
    2.0080   -0.6610    0.3540 N   0  0  0  0  0  0  0  0  0  0  0  0
    3.3090   -1.3010    0.4260 C   0  0  0  0  0  0  0  0  0  0  0  0
    4.3410   -0.4750   -0.2680 C   0  0  0  0  0  0  0  0  0  0  0  0
    4.0460    0.7630   -0.8990 N   0  0  0  0  0  0  0  0  0  0  0  0
    5.5290   -0.8830   -0.3010 O   0  0  0  0  0  0  0  0  0  0  0  0
    1.2220   -1.0180   -0.7840 C   0  0  0  0  0  0  0  0  0  0  0  0
    1.7640   -1.8100   -1.5820 O   0  0  0  0  0  0  0  0  0  0  0  0
   -0.0600   -0.5670   -1.0640 O   0  0  0  0  0  0  0  0  0  0  0  0
  1  2  1  0
  3  2  1  1
  3  4  1  0
  3  8  1  0
  3 19  1  0
  4  5  1  0
  5  6  1  0
  6  7  1  0
  7  8  2  0
  8  9  1  0
  9 10  1  0
 10 11  2  0
 10 12  1  0
 12 13  1  0
 12 17  1  0
 13 14  1  0
 14 15  1  0
 14 16  2  0
 17 18  2  0
 17 19  1  0
M  END
