
     RDKit          3D

 13 14  0  0  0  0  0  0  0  0999 V2000
    3.7330    0.3860   -0.4120 N   0  0  0  0  0  0  0  0  0  0  0  0
    2.3590   -0.0240   -0.3260 C   0  0  0  0  0  0  0  0  0  0  0  0
    2.0210   -1.3610   -0.3420 C   0  0  0  0  0  0  0  0  0  0  0  0
    0.7000   -1.7510   -0.2600 C   0  0  0  0  0  0  0  0  0  0  0  0
   -0.2420   -0.7460   -0.1620 C   0  0  0  0  0  0  0  0  0  0  0  0
   -1.5460   -1.1230   -0.0810 N   0  0  0  0  0  0  0  0  0  0  0  0
   -2.5360   -0.2210    0.0170 C   0  0  0  0  0  0  0  0  0  0  0  0
   -3.9020   -0.5950    0.1030 N   0  0  0  0  0  0  0  0  0  0  0  0
   -2.1930    1.0950    0.0320 N   0  0  0  0  0  0  0  0  0  0  0  0
   -0.9180    1.5090   -0.0460 C   0  0  0  0  0  0  0  0  0  0  0  0
   -0.5890    2.7280   -0.0330 O   0  0  0  0  0  0  0  0  0  0  0  0
    0.0970    0.5910   -0.1460 C   0  0  0  0  0  0  0  0  0  0  0  0
    1.4180    0.9800   -0.2290 C   0  0  0  0  0  0  0  0  0  0  0  0
  1  2  1  0
  2  3  2  0
  2 13  1  0
  3  4  1  0
  4  5  2  0
  5  6  1  0
  5 12  1  0
  6  7  2  0
  7  8  1  0
  7  9  1  0
  9 10  1  0
 10 11  2  0
 10 12  1  0
 12 13  2  0
M  END
