
     RDKit          3D

 18 18  0  0  0  0  0  0  0  0999 V2000
   -5.6260   -1.6700   -0.9010 C   0  0  0  0  0  0  0  0  0  0  0  0
   -5.1130   -0.2540   -0.7720 C   0  0  0  0  0  0  0  0  0  0  0  0
   -3.6210   -0.2400   -0.4120 C   0  0  0  0  0  0  0  0  0  0  0  0
   -3.2170    1.1980   -0.3090 C   0  0  0  0  0  0  0  0  0  0  0  0
   -1.7650    1.4060    0.0360 C   0  0  0  0  0  0  0  0  0  0  0  0
   -1.4670    0.7830    1.3490 C   0  0  0  0  0  0  0  0  0  0  0  0
   -0.1140    0.9250    1.7830 N   0  0  0  0  0  0  0  0  0  0  0  0
    0.9980    0.4280    1.0590 C   0  0  0  0  0  0  0  0  0  0  0  0
    0.7710   -0.1650   -0.0160 O   0  0  0  0  0  0  0  0  0  0  0  0
    2.3370    0.5630    1.4790 N   0  0  0  0  0  0  0  0  0  0  0  0
    3.4440    0.0380    0.7040 C   0  0  0  0  0  0  0  0  0  0  0  0
    4.3310    0.9030    0.2950 C   0  0  0  0  0  0  0  0  0  0  0  0
    5.5480    0.6740   -0.4990 C   0  0  0  0  0  0  0  0  0  0  0  0
    5.7630   -1.0070   -0.9160 S   0  0  1  0  0  0  0  0  0  0  0  0
    5.7860   -1.1150   -2.4290 O   0  0  0  0  0  0  0  0  0  0  0  0
    7.0880   -1.5100   -0.3590 O   0  0  0  0  0  0  0  0  0  0  0  0
    4.4520   -1.9420   -0.2540 C   0  0  0  0  0  0  0  0  0  0  0  0
    3.4850   -1.3930    0.4400 C   0  0  0  0  0  0  0  0  0  0  0  0
  1  2  1  0
  2  3  1  0
  3  4  1  0
  4  5  1  0
  5  6  1  0
  6  7  1  0
  7  8  1  0
  8  9  2  0
  8 10  1  0
 10 11  1  0
 11 12  2  0
 11 18  1  0
 12 13  1  0
 14 13  1  6
 14 15  2  0
 14 16  2  0
 14 17  1  0
 17 18  2  0
M  END
