
     RDKit          3D

 19 20  0  0  0  0  0  0  0  0999 V2000
   -2.9450   -0.9610   -1.9630 C   0  0  0  0  0  0  0  0  0  0  0  0
   -2.5620   -0.5840   -0.5420 C   0  0  2  0  0  0  0  0  0  0  0  0
   -3.7660   -0.0160    0.0970 C   0  0  0  0  0  0  0  0  0  0  0  0
   -4.4630   -0.7480    0.8270 O   0  0  0  0  0  0  0  0  0  0  0  0
   -4.0540    1.3420   -0.1630 N   0  0  0  0  0  0  0  0  0  0  0  0
   -3.2150    2.1130   -1.0470 C   0  0  0  0  0  0  0  0  0  0  0  0
   -3.6420    3.2400   -1.4060 O   0  0  0  0  0  0  0  0  0  0  0  0
   -1.8950    1.5740   -1.5060 C   0  0  0  0  0  0  0  0  0  0  0  0
   -1.4960    0.5040   -0.5240 C   0  0  2  0  0  0  0  0  0  0  0  0
   -0.2010   -0.0490   -0.7720 N   0  0  0  0  0  0  0  0  0  0  0  0
    0.8460    0.0090    0.1960 C   0  0  0  0  0  0  0  0  0  0  0  0
    0.5900    0.5630    1.2740 O   0  0  0  0  0  0  0  0  0  0  0  0
    2.1350   -0.5420   -0.0500 N   0  0  0  0  0  0  0  0  0  0  0  0
    3.1820   -0.4970    0.8870 C   0  0  0  0  0  0  0  0  0  0  0  0
    3.2440    0.0260    2.1460 C   0  0  0  0  0  0  0  0  0  0  0  0
    4.4880   -0.1800    2.6590 N   0  0  0  0  0  0  0  0  0  0  0  0
    5.2520   -0.8310    1.7620 C   0  0  0  0  0  0  0  0  0  0  0  0
    4.4500   -1.0290    0.6650 C   0  0  0  0  0  0  0  0  0  0  0  0
    4.8770   -1.6750   -0.4880 O   0  0  0  0  0  0  0  0  0  0  0  0
  2  1  1  6
  2  3  1  0
  2  9  1  0
  3  4  2  0
  3  5  1  0
  5  6  1  0
  6  7  2  0
  6  8  1  0
  8  9  1  0
  9 10  1  6
 10 11  1  0
 11 12  2  0
 11 13  1  0
 13 14  1  0
 14 15  2  0
 14 18  1  0
 15 16  1  0
 16 17  1  0
 17 18  2  0
 18 19  1  0
M  END
