
     RDKit          3D

 13 14  0  0  0  0  0  0  0  0999 V2000
   -2.3260    2.7040    0.2530 O   0  0  0  0  0  0  0  0  0  0  0  0
   -2.8790    1.6480   -0.0370 N   0  0  0  0  0  0  0  0  0  0  0  0
   -2.4170    0.3750    0.2610 N   0  0  0  0  0  0  0  0  0  0  0  0
   -1.3920   -0.1900   -0.6160 C   0  0  1  0  0  0  0  0  0  0  0  0
   -0.2320    0.7240   -0.5460 C   0  0  0  0  0  0  0  0  0  0  0  0
    0.9780    0.3440   -0.1510 C   0  0  0  0  0  0  0  0  0  0  0  0
    2.1460    1.0120   -0.0190 N   0  0  0  0  0  0  0  0  0  0  0  0
    3.0380    0.1300    0.4180 C   0  0  0  0  0  0  0  0  0  0  0  0
    4.2500    0.4160    0.6530 O   0  0  0  0  0  0  0  0  0  0  0  0
    2.4580   -1.0340    0.5540 O   0  0  0  0  0  0  0  0  0  0  0  0
    1.1790   -0.9570    0.2140 C   0  0  0  0  0  0  0  0  0  0  0  0
    0.2260   -1.8660    0.1950 C   0  0  0  0  0  0  0  0  0  0  0  0
   -1.0700   -1.5320   -0.2110 N   0  0  0  0  0  0  0  0  0  0  0  0
  1  2  2  0
  2  3  1  0
  4  3  1  1
  4  5  1  0
  4 13  1  0
  5  6  2  0
  6  7  1  0
  6 11  1  0
  7  8  1  0
  8  9  2  0
  8 10  1  0
 10 11  1  0
 11 12  2  0
 12 13  1  0
M  END
