
     RDKit          3D

 13 14  0  0  0  0  0  0  0  0999 V2000
   -1.5590    1.7620   -0.1500 C   0  0  0  0  0  0  0  0  0  0  0  0
   -1.2050    0.3980    0.3340 C   0  0  1  0  0  0  0  0  0  0  0  0
   -1.3900    0.3530    1.7320 O   0  0  0  0  0  0  0  0  0  0  0  0
   -1.9610   -0.6850   -0.3160 C   0  0  0  0  0  0  0  0  0  0  0  0
   -3.0020   -0.5610   -0.9180 O   0  0  0  0  0  0  0  0  0  0  0  0
   -1.2070   -1.9420   -0.0900 C   0  0  0  0  0  0  0  0  0  0  0  0
    0.2450   -1.5080   -0.0280 C   0  0  0  0  0  0  0  0  0  0  0  0
    0.2250    0.0100    0.0660 C   0  0  1  0  0  0  0  0  0  0  0  0
    0.7480    0.5820   -1.1440 N   0  0  0  0  0  0  0  0  0  0  0  0
    2.0990    0.7820   -0.9220 N   0  0  0  0  0  0  0  0  0  0  0  0
    2.3010    0.8780    0.4380 N   0  0  0  0  0  0  0  0  0  0  0  0
    3.4090    0.2730    0.8800 O   0  0  0  0  0  0  0  0  0  0  0  0
    1.1400    0.4310    1.0790 N   0  0  0  0  0  0  0  0  0  0  0  0
  2  1  1  6
  2  3  1  0
  2  4  1  0
  2  8  1  0
  4  5  2  0
  4  6  1  0
  6  7  1  0
  8  7  1  6
  8  9  1  0
  8 13  1  0
  9 10  1  0
 10 11  1  0
 11 12  1  0
 11 13  1  0
M  END
