
     RDKit          3D

 14 15  0  0  0  0  0  0  0  0999 V2000
   -2.9140   -0.6770   -2.0150 O   0  0  0  0  0  0  0  0  0  0  0  0
   -2.6060   -0.1350   -0.9160 C   0  0  0  0  0  0  0  0  0  0  0  0
   -2.7810   -0.6220    0.4100 N   0  0  0  0  0  0  0  0  0  0  0  0
   -2.1420    0.2260    1.3180 N   0  0  0  0  0  0  0  0  0  0  0  0
   -1.3440    1.1300    0.5150 C   0  0  1  0  0  0  0  0  0  0  0  0
    0.0350    0.5880    0.3850 C   0  0  0  0  0  0  0  0  0  0  0  0
    0.6340    0.2710   -0.7690 C   0  0  0  0  0  0  0  0  0  0  0  0
    0.1130    0.3760   -2.0610 O   0  0  0  0  0  0  0  0  0  0  0  0
    1.9760   -0.2260   -0.4840 C   0  0  0  0  0  0  0  0  0  0  0  0
    2.9400   -0.3720   -1.3300 N   0  0  0  0  0  0  0  0  0  0  0  0
    4.1520   -0.8560   -0.8970 O   0  0  0  0  0  0  0  0  0  0  0  0
    1.9710   -0.5180    0.9840 C   0  0  0  0  0  0  0  0  0  0  0  0
    0.9160    0.3250    1.4310 O   0  0  0  0  0  0  0  0  0  0  0  0
   -1.9900    1.1360   -0.7730 N   0  0  0  0  0  0  0  0  0  0  0  0
  1  2  2  0
  2  3  1  0
  2 14  1  0
  3  4  1  0
  4  5  1  0
  5  6  1  6
  5 14  1  0
  6  7  2  0
  6 13  1  0
  7  8  1  0
  7  9  1  0
  9 10  2  3
  9 12  1  0
 10 11  1  0
 12 13  1  0
M  END
