
     RDKit          3D

 13 14  0  0  0  0  0  0  0  0999 V2000
   -3.5580    1.7320    0.9510 O   0  0  0  0  0  0  0  0  0  0  0  0
   -2.6810    0.9620    0.4860 C   0  0  0  0  0  0  0  0  0  0  0  0
   -3.0890   -0.4510    0.2350 C   0  0  0  0  0  0  0  0  0  0  0  0
   -1.9780   -1.3300    0.4360 O   0  0  0  0  0  0  0  0  0  0  0  0
   -0.6780   -0.9210    0.1760 C   0  0  0  0  0  0  0  0  0  0  0  0
    0.2920   -1.8040    0.0250 C   0  0  0  0  0  0  0  0  0  0  0  0
    1.6140   -1.3920   -0.2390 N   0  0  0  0  0  0  0  0  0  0  0  0
    1.9690   -0.0020   -0.3570 C   0  0  2  0  0  0  0  0  0  0  0  0
    3.0130    0.3630    0.5680 N   0  0  0  0  0  0  0  0  0  0  0  0
    3.2910    1.6750    0.3990 O   0  0  0  0  0  0  0  0  0  0  0  0
    0.8630    0.8930   -0.1810 N   0  0  0  0  0  0  0  0  0  0  0  0
   -0.3280    0.5000    0.0580 C   0  0  0  0  0  0  0  0  0  0  0  0
   -1.3740    1.4440    0.2210 N   0  0  0  0  0  0  0  0  0  0  0  0
  1  2  2  0
  2  3  1  0
  2 13  1  0
  3  4  1  0
  4  5  1  0
  5  6  2  0
  5 12  1  0
  6  7  1  0
  7  8  1  0
  8  9  1  1
  8 11  1  0
  9 10  1  0
 11 12  2  0
 12 13  1  0
M  END
