
     RDKit          3D

 14 14  0  0  0  0  0  0  0  0999 V2000
    0.1930    1.6230    1.7100 C   0  0  0  0  0  0  0  0  0  0  0  0
    0.2750    0.9430    0.3480 C   0  0  1  0  0  0  0  0  0  0  0  0
    1.3850   -0.0010    0.4840 N   0  0  0  0  0  0  0  0  0  0  0  0
    2.5510    0.0560   -0.3190 C   0  0  0  0  0  0  0  0  0  0  0  0
    2.6150    0.9680   -1.1810 O   0  0  0  0  0  0  0  0  0  0  0  0
    3.6110   -0.8150   -0.2190 O   0  0  0  0  0  0  0  0  0  0  0  0
    4.7380   -0.7370   -1.0140 N   0  0  0  0  0  0  0  0  0  0  0  0
   -1.0220    0.2590    0.0840 C   0  0  2  0  0  0  0  0  0  0  0  0
   -1.0270   -0.5070   -1.0750 O   0  0  0  0  0  0  0  0  0  0  0  0
   -2.1320   -1.3160   -1.0870 C   0  0  0  0  0  0  0  0  0  0  0  0
   -3.2750   -0.8710   -0.3710 N   0  0  0  0  0  0  0  0  0  0  0  0
   -3.4170    0.5180   -0.2710 N   0  0  0  0  0  0  0  0  0  0  0  0
   -2.1580    1.2080   -0.0800 C   0  0  0  0  0  0  0  0  0  0  0  0
   -2.0990    2.4370   -0.0660 O   0  0  0  0  0  0  0  0  0  0  0  0
  2  1  1  1
  2  3  1  0
  2  8  1  0
  3  4  1  0
  4  5  2  0
  4  6  1  0
  6  7  1  0
  8  9  1  6
  8 13  1  0
  9 10  1  0
 10 11  1  0
 11 12  1  0
 12 13  1  0
 13 14  2  0
M  END
