
     RDKit          3D

 14 14  0  0  0  0  0  0  0  0999 V2000
   -3.6960   -0.5400   -0.5390 C   0  0  0  0  0  0  0  0  0  0  0  0
   -2.6890   -1.0600    0.3380 N   0  0  0  0  0  0  0  0  0  0  0  0
   -1.3300   -0.7420   -0.0330 C   0  0  0  0  0  0  0  0  0  0  0  0
   -1.0840    0.7050    0.1500 C   0  0  1  0  0  0  0  0  0  0  0  0
   -1.2980    0.9980    1.5170 O   0  0  0  0  0  0  0  0  0  0  0  0
   -0.5070    2.0980    1.7050 N   0  0  0  0  0  0  0  0  0  0  0  0
    0.6770    1.6250    1.2330 O   0  0  0  0  0  0  0  0  0  0  0  0
    0.2960    1.1880   -0.0470 C   0  0  1  0  0  0  0  0  0  0  0  0
    1.2640    0.2750   -0.6380 C   0  0  0  0  0  0  0  0  0  0  0  0
    1.0410   -0.2270   -1.7620 O   0  0  0  0  0  0  0  0  0  0  0  0
    2.4630   -0.0640    0.0300 N   0  0  0  0  0  0  0  0  0  0  0  0
    3.4470   -0.9530   -0.5170 C   0  0  0  0  0  0  0  0  0  0  0  0
    4.6290   -1.2300    0.2140 N   0  0  0  0  0  0  0  0  0  0  0  0
    3.2420   -1.4760   -1.6470 O   0  0  0  0  0  0  0  0  0  0  0  0
  1  2  1  0
  2  3  1  0
  4  3  1  1
  4  5  1  0
  4  8  1  0
  5  6  1  0
  6  7  1  0
  7  8  1  0
  8  9  1  1
  9 10  2  0
  9 11  1  0
 11 12  1  0
 12 13  1  0
 12 14  2  0
M  END
