
     RDKit          3D

  8  7  0  0  0  0  0  0  0  0999 V2000
   -0.5950    0.3680   -1.3110 C   0  0  0  0  0  0  0  0  0  0  0  0
   -0.4400    0.1670    0.0940 N   0  0  1  0  0  0  0  0  0  0  0  0
   -1.2410    1.1610    0.8200 C   0  0  0  0  0  0  0  0  0  0  0  0
   -1.0550   -1.1270    0.4260 C   0  0  0  0  0  0  0  0  0  0  0  0
    0.9030    0.2560    0.5620 C   0  0  0  0  0  0  0  0  0  0  0  0
    1.8720   -0.4750   -0.2920 C   0  0  0  0  0  0  0  0  0  0  0  0
    1.4510   -1.0830   -1.3060 O   0  0  0  0  0  0  0  0  0  0  0  0
    3.2300   -0.5270   -0.0340 O   0  0  0  0  0  0  0  0  0  0  0  0
  2  1  1  6
  2  3  1  0
  2  4  1  0
  2  5  1  0
  5  6  1  0
  6  7  2  0
  6  8  1  0
M  CHG  1   2   1
M  END
