
     RDKit          3D

 14 14  0  0  0  0  0  0  0  0999 V2000
   -3.0060   -0.6470   -0.2570 C   0  0  0  0  0  0  0  0  0  0  0  0
   -1.5350   -0.8410   -0.0930 C   0  0  1  0  0  0  0  0  0  0  0  0
   -1.0840   -1.5770   -1.2000 O   0  0  0  0  0  0  0  0  0  0  0  0
   -0.7870    0.4710   -0.0140 C   0  0  1  0  0  0  0  0  0  0  0  0
   -1.1590    1.2880    1.0570 N   0  0  0  0  0  0  0  0  0  0  0  0
    0.6480    0.2670   -0.0080 N   0  0  0  0  0  0  0  0  0  0  0  0
    1.2180   -0.8870    0.2100 N   0  0  0  0  0  0  0  0  0  0  0  0
    2.5660   -0.9870    0.1980 C   0  0  0  0  0  0  0  0  0  0  0  0
    3.1340   -2.1110    0.4100 O   0  0  0  0  0  0  0  0  0  0  0  0
    3.3450    0.0840   -0.0360 N   0  0  0  0  0  0  0  0  0  0  0  0
    2.7740    1.2800   -0.2620 C   0  0  0  0  0  0  0  0  0  0  0  0
    3.5050    2.2910   -0.4820 O   0  0  0  0  0  0  0  0  0  0  0  0
    1.4060    1.3690   -0.2470 C   0  0  0  0  0  0  0  0  0  0  0  0
    0.8620    2.4990   -0.4600 O   0  0  0  0  0  0  0  0  0  0  0  0
  2  1  1  6
  2  3  1  0
  2  4  1  0
  4  5  1  1
  4  6  1  0
  6  7  1  0
  6 13  1  0
  7  8  1  0
  8  9  2  0
  8 10  1  0
 10 11  1  0
 11 12  2  0
 11 13  1  0
 13 14  2  0
M  END
