
     RDKit          3D

 24 24  0  0  0  0  0  0  0  0999 V2000
   -2.9410   -2.5120    3.3650 N   0  0  0  0  0  0  0  0  0  0  0  0
   -3.4520   -2.2940    2.0710 C   0  0  0  0  0  0  0  0  0  0  0  0
   -4.5150   -2.8290    1.6760 O   0  0  0  0  0  0  0  0  0  0  0  0
   -2.7680   -1.4490    1.1560 N   0  0  0  0  0  0  0  0  0  0  0  0
   -3.2400   -1.1940   -0.1630 C   0  0  0  0  0  0  0  0  0  0  0  0
   -4.3160   -1.7650   -0.4930 O   0  0  0  0  0  0  0  0  0  0  0  0
   -2.5140   -0.3070   -1.1100 C   0  0  1  0  0  0  0  0  0  0  0  0
   -3.4550    0.7780   -1.5590 C   0  0  0  0  0  0  0  0  0  0  0  0
   -3.9290    1.5590   -0.5210 O   0  0  0  0  0  0  0  0  0  0  0  0
   -4.9960    2.7500   -1.2400 P   0  0  0  0  0  0  0  0  0  0  0  0
   -5.7300    2.0890   -2.6890 O   0  0  0  0  0  0  0  0  0  0  0  0
   -4.1010    4.1490   -1.7350 O   0  0  0  0  0  0  0  0  0  0  0  0
   -1.3710    0.1730   -0.4640 O   0  0  0  0  0  0  0  0  0  0  0  0
   -0.0750   -0.0930   -0.8970 C   0  0  0  0  0  0  0  0  0  0  0  0
   -0.0090   -0.8180   -1.9410 O   0  0  0  0  0  0  0  0  0  0  0  0
    1.0750    0.3970   -0.2350 N   0  0  0  0  0  0  0  0  0  0  0  0
    2.3250    0.0840   -0.7330 N   0  0  0  0  0  0  0  0  0  0  0  0
    3.3980   -0.0250   -0.0590 C   0  0  0  0  0  0  0  0  0  0  0  0
    3.4690    0.1630    1.3400 N   0  0  0  0  0  0  0  0  0  0  0  0
    4.7530    0.4590    1.9230 C   0  0  0  0  0  0  0  0  0  0  0  0
    5.6250    1.0000    0.7860 C   0  0  0  0  0  0  0  0  0  0  0  0
    5.7890   -0.0440   -0.1080 O   0  0  0  0  0  0  0  0  0  0  0  0
    4.6450   -0.3720   -0.7900 C   0  0  1  0  0  0  0  0  0  0  0  0
    4.6190   -1.8080   -1.1000 N   0  0  0  0  0  0  0  0  0  0  0  0
  1  2  1  0
  2  3  2  0
  2  4  1  0
  4  5  1  0
  5  6  2  0
  5  7  1  0
  7  8  1  1
  7 13  1  0
  8  9  1  0
  9 10  1  0
 10 11  1  0
 10 12  1  0
 13 14  1  0
 14 15  2  0
 14 16  1  0
 16 17  1  0
 17 18  2  3
 18 19  1  0
 18 23  1  0
 19 20  1  0
 20 21  1  0
 21 22  1  0
 22 23  1  0
 23 24  1  1
M  END
