
     RDKit          3D

 24 25  0  0  0  0  0  0  0  0999 V2000
    4.3820    1.0840   -0.7440 O   0  0  0  0  0  0  0  0  0  0  0  0
    4.2250    0.1950    0.1230 C   0  0  0  0  0  0  0  0  0  0  0  0
    5.3770   -0.7510    0.3390 C   0  0  0  0  0  0  0  0  0  0  0  0
    4.8170   -2.0570    0.6080 N   0  0  0  0  0  0  0  0  0  0  0  0
    3.8920   -1.9580    1.6460 N   0  0  0  0  0  0  0  0  0  0  0  0
    2.8700   -1.0180    1.6450 N   0  0  0  0  0  0  0  0  0  0  0  0
    3.0120    0.0470    0.9050 C   0  0  0  0  0  0  0  0  0  0  0  0
    1.9790    0.9440    0.9370 O   0  0  0  0  0  0  0  0  0  0  0  0
    0.6550    0.5970    0.7130 C   0  0  0  0  0  0  0  0  0  0  0  0
    0.2630   -0.6800    0.4020 C   0  0  0  0  0  0  0  0  0  0  0  0
   -1.0720   -1.0200    0.1760 C   0  0  0  0  0  0  0  0  0  0  0  0
   -1.4310   -2.3930   -0.1490 C   0  0  0  0  0  0  0  0  0  0  0  0
   -0.5140   -3.2490   -0.1680 O   0  0  0  0  0  0  0  0  0  0  0  0
   -2.7450   -2.8100   -0.4410 N   0  0  0  0  0  0  0  0  0  0  0  0
   -2.9420   -4.1160   -0.7280 O   0  0  0  0  0  0  0  0  0  0  0  0
   -4.2300   -4.4410   -0.7130 O   0  0  0  0  0  0  0  0  0  0  0  0
   -1.9630    0.0140    0.2860 C   0  0  0  0  0  0  0  0  0  0  0  0
   -1.6300    1.2880    0.5900 N   0  0  0  0  0  0  0  0  0  0  0  0
   -2.6690    2.2660    0.7140 C   0  0  0  0  0  0  0  0  0  0  0  0
   -2.9800    3.0590   -0.5020 C   0  0  0  0  0  0  0  0  0  0  0  0
   -1.8170    3.7710   -0.8680 O   0  0  0  0  0  0  0  0  0  0  0  0
   -2.0490    4.5170   -1.9510 O   0  0  0  0  0  0  0  0  0  0  0  0
   -0.3160    1.5670    0.8010 C   0  0  0  0  0  0  0  0  0  0  0  0
    0.0200    2.7400    1.0820 O   0  0  0  0  0  0  0  0  0  0  0  0
  1  2  2  0
  2  3  1  0
  2  7  1  0
  3  4  1  0
  4  5  1  0
  5  6  1  0
  6  7  2  0
  7  8  1  0
  8  9  1  0
  9 10  2  0
  9 23  1  0
 10 11  1  0
 11 12  1  0
 11 17  2  0
 12 13  2  0
 12 14  1  0
 14 15  1  0
 15 16  1  0
 17 18  1  0
 18 19  1  0
 18 23  1  0
 19 20  1  0
 20 21  1  0
 21 22  1  0
 23 24  2  0
M  END
