
     RDKit          3D

 24 25  0  0  0  0  0  0  0  0999 V2000
    5.5820   -2.5330    1.9790 O   0  0  0  0  0  0  0  0  0  0  0  0
    5.2290   -1.5270    1.3590 C   0  0  0  0  0  0  0  0  0  0  0  0
    3.9000   -0.9430    1.3130 C   0  0  0  0  0  0  0  0  0  0  0  0
    3.6060    0.1220    0.6090 C   0  0  0  0  0  0  0  0  0  0  0  0
    2.3880    0.6140    0.6040 O   0  0  0  0  0  0  0  0  0  0  0  0
    1.2110    0.8760    0.3800 O   0  0  0  0  0  0  0  0  0  0  0  0
    0.9510    0.9680   -1.0750 C   0  0  0  0  0  0  0  0  0  0  0  0
    0.0360   -0.2540   -1.2110 C   0  0  0  0  0  0  0  0  0  0  0  0
   -1.1150   -0.2940   -0.4260 N   0  0  0  0  0  0  0  0  0  0  0  0
   -2.1960    0.6130   -0.5310 C   0  0  0  0  0  0  0  0  0  0  0  0
   -2.1430    1.5470   -1.3470 O   0  0  0  0  0  0  0  0  0  0  0  0
   -3.3220    0.4270    0.2530 N   0  0  0  0  0  0  0  0  0  0  0  0
   -4.5470    1.1240    0.1930 C   0  0  0  0  0  0  0  0  0  0  0  0
   -4.9460    2.4280    0.0790 C   0  0  0  0  0  0  0  0  0  0  0  0
   -6.2750    2.4600    0.0540 O   0  0  0  0  0  0  0  0  0  0  0  0
   -6.7210    1.2040    0.1470 N   0  0  0  0  0  0  0  0  0  0  0  0
   -5.7310    0.3570    0.2200 C   0  0  0  0  0  0  0  0  0  0  0  0
   -5.7200   -1.0790    0.1910 N   0  0  0  0  0  0  0  0  0  0  0  0
   -4.5260   -1.6720   -0.0350 O   0  0  0  0  0  0  0  0  0  0  0  0
   -4.4420   -2.8840   -0.3030 O   0  0  0  0  0  0  0  0  0  0  0  0
    4.6620    0.7630   -0.1960 C   0  0  0  0  0  0  0  0  0  0  0  0
    4.4590    1.7830   -0.8100 O   0  0  0  0  0  0  0  0  0  0  0  0
    6.0540    0.1620   -0.3100 C   0  0  0  0  0  0  0  0  0  0  0  0
    6.2860   -0.8790    0.5800 N   0  0  0  0  0  0  0  0  0  0  0  0
  1  2  2  0
  2  3  1  0
  2 24  1  0
  3  4  2  0
  4  5  1  0
  4 21  1  0
  5  6  1  0
  6  7  1  0
  7  8  1  0
  8  9  1  0
  9 10  1  0
 10 11  2  0
 10 12  1  0
 12 13  1  0
 13 14  2  0
 13 17  1  0
 14 15  1  0
 15 16  1  0
 16 17  2  0
 17 18  1  0
 18 19  1  0
 19 20  1  0
 21 22  2  0
 21 23  1  0
 23 24  1  0
M  END
