
     RDKit          3D

 24 25  0  0  0  0  0  0  0  0999 V2000
    6.4050   -1.3200    1.2030 O   0  0  0  0  0  0  0  0  0  0  0  0
    5.3400   -1.6050    0.6210 C   0  0  0  0  0  0  0  0  0  0  0  0
    4.0760   -1.5410    1.2000 N   0  0  0  0  0  0  0  0  0  0  0  0
    3.1330   -1.8960    0.3990 C   0  0  0  0  0  0  0  0  0  0  0  0
    1.7180   -1.8450    0.9310 N   0  0  0  0  0  0  0  0  0  0  0  0
    1.6330   -0.5640    1.5260 N   0  0  0  0  0  0  0  0  0  0  0  0
    0.9350    0.3020    0.8230 C   0  0  0  0  0  0  0  0  0  0  0  0
    0.8180    1.6650    1.2360 O   0  0  0  0  0  0  0  0  0  0  0  0
    0.3990    2.2970    0.0790 C   0  0  0  0  0  0  0  0  0  0  0  0
    0.3290    3.7840   -0.0750 C   0  0  2  0  0  0  0  0  0  0  0  0
    1.5140    4.2350    0.5760 O   0  0  0  0  0  0  0  0  0  0  0  0
   -0.8210    4.5170    0.4540 C   0  0  0  0  0  0  0  0  0  0  0  0
   -1.9980    4.2590   -0.2690 O   0  0  0  0  0  0  0  0  0  0  0  0
    0.1160    1.5110   -0.8920 N   0  0  0  0  0  0  0  0  0  0  0  0
    0.2420    0.0860   -0.3860 C   0  0  2  0  0  0  0  0  0  0  0  0
   -1.2490   -0.1930   -0.0570 C   0  0  0  0  0  0  0  0  0  0  0  0
   -1.6000   -1.4830    0.3500 O   0  0  0  0  0  0  0  0  0  0  0  0
   -2.8020   -1.7600   -0.1860 C   0  0  0  0  0  0  0  0  0  0  0  0
   -3.4720   -3.1220    0.1470 C   0  0  0  0  0  0  0  0  0  0  0  0
   -4.5820   -3.0430   -0.6120 O   0  0  0  0  0  0  0  0  0  0  0  0
   -5.7920   -2.9940   -0.2180 O   0  0  0  0  0  0  0  0  0  0  0  0
    3.6650   -2.2390   -0.8350 N   0  0  0  0  0  0  0  0  0  0  0  0
    5.0980   -2.0620   -0.7140 C   0  0  0  0  0  0  0  0  0  0  0  0
    5.9450   -2.2560   -1.5820 O   0  0  0  0  0  0  0  0  0  0  0  0
  1  2  2  0
  2  3  1  0
  2 23  1  0
  3  4  2  0
  4  5  1  0
  4 22  1  0
  5  6  1  0
  6  7  2  3
  7  8  1  0
  7 15  1  0
  8  9  1  0
  9 10  1  0
  9 14  2  0
 10 11  1  1
 10 12  1  0
 12 13  1  0
 14 15  1  0
 15 16  1  1
 16 17  1  0
 17 18  1  0
 18 19  1  0
 19 20  1  0
 20 21  1  0
 22 23  1  0
 23 24  2  0
M  END
