
     RDKit          3D

 24 25  0  0  0  0  0  0  0  0999 V2000
   -5.1280    1.6260    2.5250 N   0  0  0  0  0  0  0  0  0  0  0  0
   -5.1550    0.2920    2.1740 N   0  0  0  0  0  0  0  0  0  0  0  0
   -4.8440   -0.1500    0.8590 C   0  0  0  0  0  0  0  0  0  0  0  0
   -5.7640   -0.2540   -0.1910 C   0  0  0  0  0  0  0  0  0  0  0  0
   -5.1420   -0.7080   -1.2920 N   0  0  0  0  0  0  0  0  0  0  0  0
   -3.8490   -0.9140   -1.0360 C   0  0  0  0  0  0  0  0  0  0  0  0
   -2.8230   -1.3880   -1.9030 N   0  0  0  0  0  0  0  0  0  0  0  0
   -3.6560   -0.5690    0.3020 C   0  0  0  0  0  0  0  0  0  0  0  0
   -2.4500   -0.6290    0.9970 O   0  0  0  0  0  0  0  0  0  0  0  0
   -1.3090   -1.0670    0.3970 N   0  0  0  0  0  0  0  0  0  0  0  0
   -0.2620   -0.3690    0.2500 C   0  0  0  0  0  0  0  0  0  0  0  0
   -0.2690    1.0040    0.7550 C   0  0  0  0  0  0  0  0  0  0  0  0
    0.8170    1.7550    0.3520 O   0  0  0  0  0  0  0  0  0  0  0  0
    2.0360    1.1360    0.4310 C   0  0  0  0  0  0  0  0  0  0  0  0
    2.4330    0.5020   -0.8980 C   0  0  1  0  0  0  0  0  0  0  0  0
    3.5460   -0.4520   -0.7320 C   0  0  0  0  0  0  0  0  0  0  0  0
    3.4410   -1.6740   -1.0230 O   0  0  0  0  0  0  0  0  0  0  0  0
    4.7760   -0.0260   -0.2390 O   0  0  0  0  0  0  0  0  0  0  0  0
    5.8400   -0.9480   -0.0820 C   0  0  0  0  0  0  0  0  0  0  0  0
    6.9500   -0.2670    0.4190 O   0  0  0  0  0  0  0  0  0  0  0  0
    7.2410    0.6610   -0.4820 O   0  0  0  0  0  0  0  0  0  0  0  0
    7.3630    1.8100    0.1730 O   0  0  0  0  0  0  0  0  0  0  0  0
    1.3380   -0.1850   -1.4120 O   0  0  0  0  0  0  0  0  0  0  0  0
    0.8730   -1.0660   -0.4410 C   0  0  0  0  0  0  0  0  0  0  0  0
  1  2  1  0
  2  3  1  0
  3  4  2  0
  3  8  1  0
  4  5  1  0
  5  6  1  0
  6  7  1  0
  6  8  2  0
  8  9  1  0
  9 10  1  0
 10 11  2  3
 11 12  1  0
 11 24  1  0
 12 13  1  0
 13 14  1  0
 14 15  1  0
 15 16  1  1
 15 23  1  0
 16 17  2  0
 16 18  1  0
 18 19  1  0
 19 20  1  0
 20 21  1  0
 21 22  1  0
 23 24  1  0
M  END
