
     RDKit          3D

 24 24  0  0  0  0  0  0  0  0999 V2000
    0.1760    5.6380    0.6980 C   0  0  0  0  0  0  0  0  0  0  0  0
   -0.4520    4.7240   -0.2640 N   0  0  0  0  0  0  0  0  0  0  0  0
    0.2640    3.6180   -0.7340 C   0  0  0  0  0  0  0  0  0  0  0  0
   -0.3320    2.4100   -0.7780 C   0  0  0  0  0  0  0  0  0  0  0  0
   -1.7280    2.2890   -0.3350 C   0  0  0  0  0  0  0  0  0  0  0  0
   -1.6980    1.0890    0.6970 C   0  0  0  0  0  0  0  0  0  0  0  0
   -1.0750    0.0130    0.0040 N   0  0  0  0  0  0  0  0  0  0  0  0
   -1.7410   -1.2260   -0.1830 C   0  0  0  0  0  0  0  0  0  0  0  0
   -1.5500   -2.2510    0.6170 C   0  0  0  0  0  0  0  0  0  0  0  0
   -2.2550   -3.4810    0.3770 N   0  0  0  0  0  0  0  0  0  0  0  0
   -3.1360   -4.0620    1.3140 C   0  0  0  0  0  0  0  0  0  0  0  0
   -3.3000   -3.4610    2.4040 O   0  0  0  0  0  0  0  0  0  0  0  0
   -3.8170   -5.2390    1.1000 O   0  0  0  0  0  0  0  0  0  0  0  0
    0.1870    0.1700   -0.7080 C   0  0  0  0  0  0  0  0  0  0  0  0
    0.9640   -0.8240   -1.3410 N   0  0  0  0  0  0  0  0  0  0  0  0
    1.6790   -1.7130   -0.5090 C   0  0  0  0  0  0  0  0  0  0  0  0
    1.5390   -1.3200    0.7340 O   0  0  0  0  0  0  0  0  0  0  0  0
    2.3920   -2.7730   -0.9060 O   0  0  0  0  0  0  0  0  0  0  0  0
    3.0200   -3.4820    0.0460 O   0  0  0  0  0  0  0  0  0  0  0  0
    4.3480   -3.4870   -0.1310 O   0  0  0  0  0  0  0  0  0  0  0  0
    5.0830   -2.3480   -0.4230 C   0  0  0  0  0  0  0  0  0  0  0  0
    4.4480   -1.2650   -0.5230 O   0  0  0  0  0  0  0  0  0  0  0  0
    6.4570   -2.3570   -0.6060 O   0  0  0  0  0  0  0  0  0  0  0  0
    0.4830    1.3290   -1.0810 N   0  0  0  0  0  0  0  0  0  0  0  0
  1  2  1  0
  2  3  1  0
  3  4  2  3
  4  5  1  0
  4 24  1  0
  5  6  1  0
  6  7  1  0
  7  8  1  0
  7 14  1  0
  8  9  2  3
  9 10  1  0
 10 11  1  0
 11 12  2  0
 11 13  1  0
 14 15  1  0
 14 24  2  0
 15 16  1  0
 16 17  2  0
 16 18  1  0
 18 19  1  0
 19 20  1  0
 20 21  1  0
 21 22  2  0
 21 23  1  0
M  END
