
     RDKit          3D

 21 22  0  0  0  0  0  0  0  0999 V2000
   -3.9650   -0.5400    2.5310 C   0  0  0  0  0  0  0  0  0  0  0  0
   -4.1940   -0.7170    1.0520 C   0  0  0  0  0  0  0  0  0  0  0  0
   -3.0640   -0.1150    0.2240 C   0  0  1  0  0  0  0  0  0  0  0  0
   -1.8090   -0.8220    0.6260 C   0  0  0  0  0  0  0  0  0  0  0  0
   -0.5890   -0.3250   -0.1210 C   0  0  0  0  0  0  0  0  0  0  0  0
    0.6410   -1.0670    0.3210 C   0  0  0  0  0  0  0  0  0  0  0  0
    1.9070   -0.6270   -0.4060 C   0  0  2  0  0  0  0  0  0  0  0  0
    2.1720    0.7970   -0.1710 C   0  0  0  0  0  0  0  0  0  0  0  0
    1.5170   -0.7870   -1.8050 O   0  0  0  0  0  0  0  0  0  0  0  0
    2.9890   -1.6360   -0.2440 C   0  0  0  0  0  0  0  0  0  0  0  0
    4.2940   -1.3780   -0.8380 C   0  0  0  0  0  0  0  0  0  0  0  0
    5.1810   -0.3680   -0.2610 C   0  0  0  0  0  0  0  0  0  0  0  0
    5.1460    0.3910    0.8000 C   0  0  0  0  0  0  0  0  0  0  0  0
    6.3340    1.2510    0.8960 C   0  0  0  0  0  0  0  0  0  0  0  0
    7.1040    0.8880   -0.2900 C   0  0  0  0  0  0  0  0  0  0  0  0
    6.4560   -0.0350   -0.9560 C   0  0  0  0  0  0  0  0  0  0  0  0
   -3.3930   -0.4330   -1.2240 C   0  0  0  0  0  0  0  0  0  0  0  0
   -4.6700    0.2490   -1.6560 C   0  0  0  0  0  0  0  0  0  0  0  0
   -4.6900    1.7070   -1.3440 C   0  0  0  0  0  0  0  0  0  0  0  0
   -4.3340    1.9910    0.1060 C   0  0  0  0  0  0  0  0  0  0  0  0
   -2.9780    1.3720    0.3530 C   0  0  0  0  0  0  0  0  0  0  0  0
  1  2  1  0
  3  2  1  1
  3  4  1  0
  3 17  1  0
  3 21  1  0
  4  5  1  0
  5  6  1  0
  6  7  1  0
  7  8  1  6
  7  9  1  0
  7 10  1  0
 10 11  1  0
 11 12  1  0
 12 13  2  0
 12 16  1  0
 13 14  1  0
 14 15  1  0
 15 16  2  0
 17 18  1  0
 18 19  1  0
 19 20  1  0
 20 21  1  0
M  END
