
     RDKit          3D

  9  8  0  0  0  0  0  0  0  0999 V2000
   -0.6580    1.4520    0.8530 C   0  0  0  0  0  0  0  0  0  0  0  0
   -0.4070    0.1530    0.3170 N   0  0  0  0  0  0  0  0  0  0  0  0
   -1.6280   -0.5260   -0.0400 C   0  0  1  0  0  0  0  0  0  0  0  0
   -1.3560   -1.7900   -0.5540 O   0  0  0  0  0  0  0  0  0  0  0  0
   -2.4480   -0.5820    1.0820 O   0  0  0  0  0  0  0  0  0  0  0  0
    0.6080    0.0850   -0.6910 C   0  0  2  0  0  0  0  0  0  0  0  0
    0.7510   -1.2400   -1.0960 O   0  0  0  0  0  0  0  0  0  0  0  0
    1.9540    0.5070   -0.1130 C   0  0  0  0  0  0  0  0  0  0  0  0
    2.9540    0.4490   -1.0750 O   0  0  0  0  0  0  0  0  0  0  0  0
  1  2  1  0
  2  3  1  0
  2  6  1  0
  3  4  1  1
  3  5  1  0
  6  7  1  1
  6  8  1  0
  8  9  1  0
M  END
