
     RDKit          3D

 21 21  0  0  0  0  0  0  0  0999 V2000
    5.3840    2.4540   -0.9380 C   0  0  0  0  0  0  0  0  0  0  0  0
    5.5790    1.6610    0.0710 C   0  0  0  0  0  0  0  0  0  0  0  0
    4.8450    0.4980    0.4900 C   0  0  0  0  0  0  0  0  0  0  0  0
    5.2870   -0.1580    1.5670 C   0  0  0  0  0  0  0  0  0  0  0  0
    4.6780   -1.3600    2.1440 C   0  0  0  0  0  0  0  0  0  0  0  0
    3.6450   -0.0290   -0.1740 C   0  0  0  0  0  0  0  0  0  0  0  0
    2.4510    0.8640   -0.2090 C   0  0  1  0  0  0  0  0  0  0  0  0
    1.3500    0.0730   -0.9480 C   0  0  0  0  0  0  0  0  0  0  0  0
    0.6390   -0.7860    0.0660 C   0  0  0  0  0  0  0  0  0  0  0  0
   -0.3040    0.0160    0.8830 C   0  0  2  0  0  0  0  0  0  0  0  0
   -1.5990    0.3890    0.2670 C   0  0  0  0  0  0  0  0  0  0  0  0
   -2.4970   -0.6990   -0.1760 C   0  0  2  0  0  0  0  0  0  0  0  0
   -2.8940   -1.6300    0.9620 C   0  0  0  0  0  0  0  0  0  0  0  0
   -1.9820   -1.5010   -1.1770 O   0  0  0  0  0  0  0  0  0  0  0  0
   -3.7720   -0.0630   -0.7130 C   0  0  2  0  0  0  0  0  0  0  0  0
   -3.4440    0.8460   -1.8610 C   0  0  0  0  0  0  0  0  0  0  0  0
   -4.5060    0.7410    0.3380 C   0  0  0  0  0  0  0  0  0  0  0  0
   -4.7380   -1.1220   -1.2080 C   0  0  0  0  0  0  0  0  0  0  0  0
   -4.1890   -1.9680   -2.3100 C   0  0  0  0  0  0  0  0  0  0  0  0
    0.4090    1.3480    1.1770 C   0  0  0  0  0  0  0  0  0  0  0  0
    1.9000    1.1630    1.1770 C   0  0  0  0  0  0  0  0  0  0  0  0
  1  2  2  0
  2  3  1  0
  3  4  2  3
  3  6  1  0
  4  5  1  0
  7  6  1  1
  7  8  1  0
  7 21  1  0
  8  9  1  0
  9 10  1  0
 10 11  1  6
 10 20  1  0
 11 12  1  0
 12 13  1  1
 12 14  1  0
 12 15  1  0
 15 16  1  6
 15 17  1  0
 15 18  1  0
 18 19  1  0
 20 21  1  0
M  END
