
     RDKit          3D

 20 20  0  0  0  0  0  0  0  0999 V2000
    0.0700   -1.1590   -2.8890 C   0  0  0  0  0  0  0  0  0  0  0  0
    0.9590   -0.7320   -1.8230 C   0  0  0  0  0  0  0  0  0  0  0  0
    0.7340   -0.1100   -0.6860 C   0  0  0  0  0  0  0  0  0  0  0  0
    1.9900    0.1510    0.1280 C   0  0  0  0  0  0  0  0  0  0  0  0
    3.2030   -0.3760   -0.5480 C   0  0  0  0  0  0  0  0  0  0  0  0
    4.4560   -0.1110    0.3210 C   0  0  1  0  0  0  0  0  0  0  0  0
    5.6140   -0.6880   -0.4650 C   0  0  0  0  0  0  0  0  0  0  0  0
    4.6450    1.3410    0.5940 C   0  0  0  0  0  0  0  0  0  0  0  0
   -0.5480    0.2060   -0.0960 C   0  0  0  0  0  0  0  0  0  0  0  0
   -0.7940    0.8730    0.9700 C   0  0  0  0  0  0  0  0  0  0  0  0
   -0.3980    1.6170    2.1080 C   0  0  2  0  0  0  0  0  0  0  0  0
   -1.0890    3.0340    1.9270 C   0  0  0  0  0  0  0  0  0  0  0  0
    0.9740    1.9640    2.5010 C   0  0  0  0  0  0  0  0  0  0  0  0
   -1.7770   -0.4510   -0.6760 C   0  0  1  0  0  0  0  0  0  0  0  0
   -1.8960   -1.8810   -0.2820 C   0  0  0  0  0  0  0  0  0  0  0  0
   -3.3040   -2.1280   -0.8570 C   0  0  0  0  0  0  0  0  0  0  0  0
   -3.9610   -0.8190   -0.4070 C   0  0  1  0  0  0  0  0  0  0  0  0
   -4.9380   -0.3740   -1.4710 C   0  0  0  0  0  0  0  0  0  0  0  0
   -4.6890   -1.1280    0.8920 C   0  0  0  0  0  0  0  0  0  0  0  0
   -2.9650    0.0950   -0.1630 O   0  0  0  0  0  0  0  0  0  0  0  0
  1  2  1  0
  2  3  2  3
  3  4  1  0
  3  9  1  0
  4  5  1  0
  5  6  1  0
  6  7  1  6
  6  8  1  0
  9 10  2  3
 14  9  1  1
 10 11  1  0
 11 12  1  6
 11 13  1  0
 14 15  1  0
 14 20  1  0
 15 16  1  0
 16 17  1  0
 17 18  1  6
 17 19  1  0
 17 20  1  0
M  END
