
     RDKit          3D

 21 22  0  0  0  0  0  0  0  0999 V2000
    2.5170    2.2440    1.2370 C   0  0  0  0  0  0  0  0  0  0  0  0
    3.0820    1.8510   -0.0390 C   0  0  0  0  0  0  0  0  0  0  0  0
    2.7960    0.3660   -0.5050 C   0  0  2  0  0  0  0  0  0  0  0  0
    1.3410    0.2350   -0.5760 C   0  0  0  0  0  0  0  0  0  0  0  0
    0.6780   -0.9530   -1.0820 C   0  0  0  0  0  0  0  0  0  0  0  0
    1.3020   -2.0100   -1.4400 O   0  0  0  0  0  0  0  0  0  0  0  0
   -0.8080   -0.9600   -1.2020 C   0  0  0  0  0  0  0  0  0  0  0  0
   -1.4350   -2.0940   -1.6470 C   0  0  0  0  0  0  0  0  0  0  0  0
   -2.8560   -1.8330   -1.6760 C   0  0  0  0  0  0  0  0  0  0  0  0
   -3.8970   -2.8280   -2.1040 C   0  0  0  0  0  0  0  0  0  0  0  0
   -3.1300   -0.6330   -1.2870 C   0  0  0  0  0  0  0  0  0  0  0  0
   -4.4600    0.0330   -1.1730 C   0  0  0  0  0  0  0  0  0  0  0  0
   -1.8260   -0.0020   -0.9660 C   0  0  1  0  0  0  0  0  0  0  0  0
   -1.9540    0.7160    0.3090 C   0  0  0  0  0  0  0  0  0  0  0  0
   -2.9280    0.4690    1.2170 C   0  0  0  0  0  0  0  0  0  0  0  0
   -2.7980    1.3590    2.3850 C   0  0  0  0  0  0  0  0  0  0  0  0
   -1.6480    2.2120    2.0370 C   0  0  0  0  0  0  0  0  0  0  0  0
   -1.1980    1.8090    0.8570 C   0  0  0  0  0  0  0  0  0  0  0  0
    3.7010   -0.4780    0.2520 C   0  0  2  0  0  0  0  0  0  0  0  0
    3.6690   -1.9490   -0.0300 C   0  0  0  0  0  0  0  0  0  0  0  0
    3.8580   -0.2430    1.7340 C   0  0  0  0  0  0  0  0  0  0  0  0
  1  2  1  0
  3  2  1  1
  3  4  1  0
  3 19  1  0
  4  5  1  0
  5  6  2  0
  5  7  1  0
  7  8  2  0
  7 13  1  0
  8  9  1  0
  9 10  1  0
  9 11  2  0
 11 12  1  0
 11 13  1  0
 13 14  1  1
 14 15  2  0
 14 18  1  0
 15 16  1  0
 16 17  1  0
 17 18  2  0
 19 20  1  1
 19 21  1  0
M  END
