
     RDKit          3D

 21 21  0  0  0  0  0  0  0  0999 V2000
   -2.2260    1.4320    2.5030 C   0  0  0  0  0  0  0  0  0  0  0  0
   -2.3300    0.2510    1.6760 C   0  0  0  0  0  0  0  0  0  0  0  0
   -1.9740    0.0120    0.2960 C   0  0  1  0  0  0  0  0  0  0  0  0
   -2.3980   -1.4770    0.1250 C   0  0  0  0  0  0  0  0  0  0  0  0
   -1.8660   -2.5470    0.9150 C   0  0  0  0  0  0  0  0  0  0  0  0
   -2.9030    0.6010   -0.7580 C   0  0  1  0  0  0  0  0  0  0  0  0
   -4.3010   -0.0780   -0.7490 C   0  0  0  0  0  0  0  0  0  0  0  0
   -3.2520    2.0360   -0.6720 C   0  0  0  0  0  0  0  0  0  0  0  0
   -2.5580    0.3380   -2.0470 O   0  0  0  0  0  0  0  0  0  0  0  0
   -1.4320   -0.1880   -2.4290 C   0  0  0  0  0  0  0  0  0  0  0  0
   -0.4570   -0.6880   -1.4010 C   0  0  0  0  0  0  0  0  0  0  0  0
   -0.5410    0.1860   -0.1620 C   0  0  1  0  0  0  0  0  0  0  0  0
   -0.0540    1.4890   -0.6400 C   0  0  0  0  0  0  0  0  0  0  0  0
   -0.0080    2.6740    0.2230 C   0  0  0  0  0  0  0  0  0  0  0  0
    0.4190   -0.2830    0.8900 C   0  0  0  0  0  0  0  0  0  0  0  0
    1.8450   -0.2140    0.7980 C   0  0  0  0  0  0  0  0  0  0  0  0
    2.6360   -0.9180   -0.2600 C   0  0  0  0  0  0  0  0  0  0  0  0
    4.1650   -0.6900    0.0140 C   0  0  1  0  0  0  0  0  0  0  0  0
    4.8710   -1.4300   -1.0930 C   0  0  0  0  0  0  0  0  0  0  0  0
    4.4280    0.7900   -0.1600 C   0  0  0  0  0  0  0  0  0  0  0  0
    4.5410   -1.2140    1.3530 C   0  0  0  0  0  0  0  0  0  0  0  0
  1  2  1  0
  3  2  1  1
  3  4  1  0
  3  6  1  0
  3 12  1  0
  4  5  1  0
  6  7  1  1
  6  8  1  0
  6  9  1  0
  9 10  1  0
 10 11  1  0
 11 12  1  0
 12 13  1  6
 12 15  1  0
 13 14  1  0
 15 16  1  0
 16 17  1  0
 17 18  1  0
 18 19  1  6
 18 20  1  0
 18 21  1  0
M  END
