
     RDKit          3D

 21 21  0  0  0  0  0  0  0  0999 V2000
    5.4130   -1.9360    0.8990 C   0  0  0  0  0  0  0  0  0  0  0  0
    4.0170   -1.7900    1.2450 C   0  0  0  0  0  0  0  0  0  0  0  0
    3.0930   -0.9480    0.9830 C   0  0  0  0  0  0  0  0  0  0  0  0
    2.9370    0.2570    0.2370 C   0  0  0  0  0  0  0  0  0  0  0  0
    1.7440    0.8610    0.2370 C   0  0  0  0  0  0  0  0  0  0  0  0
    0.5170    0.4790    0.9070 C   0  0  0  0  0  0  0  0  0  0  0  0
   -0.6090    0.1500   -0.0770 C   0  0  0  0  0  0  0  0  0  0  0  0
   -1.8430   -0.2360    0.7060 C   0  0  2  0  0  0  0  0  0  0  0  0
   -1.5920   -1.4310    1.5680 C   0  0  0  0  0  0  0  0  0  0  0  0
   -3.0380   -0.4110   -0.1810 C   0  0  1  0  0  0  0  0  0  0  0  0
   -2.8310   -1.4890   -1.2220 C   0  0  0  0  0  0  0  0  0  0  0  0
   -4.2610   -0.6860    0.6250 C   0  0  0  0  0  0  0  0  0  0  0  0
   -4.9650    0.6130    0.9160 C   0  0  0  0  0  0  0  0  0  0  0  0
   -5.6980    1.0120   -0.3580 C   0  0  0  0  0  0  0  0  0  0  0  0
   -4.6870    0.9630   -1.4750 C   0  0  2  0  0  0  0  0  0  0  0  0
   -4.9520   -0.0520   -2.3860 O   0  0  0  0  0  0  0  0  0  0  0  0
   -3.2670    0.8870   -0.9530 C   0  0  0  0  0  0  0  0  0  0  0  0
    4.0440    0.8350   -0.5520 C   0  0  1  0  0  0  0  0  0  0  0  0
    3.5660    2.1790   -1.1500 C   0  0  0  0  0  0  0  0  0  0  0  0
    5.2380    1.0940    0.3150 C   0  0  0  0  0  0  0  0  0  0  0  0
    4.4480    0.0100   -1.7460 C   0  0  0  0  0  0  0  0  0  0  0  0
  1  2  1  0
  2  3  2  3
  3  4  1  0
  4  5  2  3
  4 18  1  0
  5  6  1  0
  6  7  1  0
  7  8  1  0
  8  9  1  6
  8 10  1  0
 10 11  1  6
 10 12  1  0
 10 17  1  0
 12 13  1  0
 13 14  1  0
 14 15  1  0
 15 16  1  6
 15 17  1  0
 18 19  1  6
 18 20  1  0
 18 21  1  0
M  END
