
     RDKit          3D

 21 22  0  0  0  0  0  0  0  0999 V2000
   -4.3240    1.4740    0.8300 C   0  0  0  0  0  0  0  0  0  0  0  0
   -3.3600    0.8300    0.2080 C   0  0  0  0  0  0  0  0  0  0  0  0
   -2.5040   -0.2440    0.7900 C   0  0  0  0  0  0  0  0  0  0  0  0
   -1.3620   -0.2390    0.1470 C   0  0  0  0  0  0  0  0  0  0  0  0
   -0.3750   -1.2320    0.5650 C   0  0  0  0  0  0  0  0  0  0  0  0
    0.9200   -1.3690   -0.1120 C   0  0  0  0  0  0  0  0  0  0  0  0
    1.8750   -0.2380    0.1250 C   0  0  0  0  0  0  0  0  0  0  0  0
    3.1960   -0.4910   -0.6160 C   0  0  0  0  0  0  0  0  0  0  0  0
    4.1500    0.6770   -0.3570 C   0  0  0  0  0  0  0  0  0  0  0  0
    5.4200    0.3630   -1.1110 C   0  0  0  0  0  0  0  0  0  0  0  0
    6.4650    1.4270   -0.9540 C   0  0  0  0  0  0  0  0  0  0  0  0
   -0.6300   -2.0880    1.5440 C   0  0  0  0  0  0  0  0  0  0  0  0
    0.4490   -3.0870    1.9210 C   0  0  0  0  0  0  0  0  0  0  0  0
   -1.8870   -2.1620    2.2970 C   0  0  0  0  0  0  0  0  0  0  0  0
   -2.8630   -1.1530    1.9230 C   0  0  1  0  0  0  0  0  0  0  0  0
   -3.1000   -0.3150    3.0440 O   0  0  0  0  0  0  0  0  0  0  0  0
   -1.3650    0.8280   -0.8930 C   0  0  2  0  0  0  0  0  0  0  0  0
   -0.8640    2.1480   -0.4400 C   0  0  0  0  0  0  0  0  0  0  0  0
   -2.8550    0.9710   -1.1970 C   0  0  1  0  0  0  0  0  0  0  0  0
   -3.2720   -0.1930   -2.0300 C   0  0  0  0  0  0  0  0  0  0  0  0
   -3.2460    2.2780   -1.7710 C   0  0  0  0  0  0  0  0  0  0  0  0
  1  2  2  0
  2  3  1  0
  2 19  1  0
  3  4  2  0
  3 15  1  0
  4  5  1  0
  4 17  1  0
  5  6  1  0
  5 12  2  0
  6  7  1  0
  7  8  1  0
  8  9  1  0
  9 10  1  0
 10 11  1  0
 12 13  1  0
 12 14  1  0
 14 15  1  0
 15 16  1  1
 17 18  1  1
 17 19  1  0
 19 20  1  6
 19 21  1  0
M  END
