
     RDKit          3D

 21 21  0  0  0  0  0  0  0  0999 V2000
   -3.5740    2.2280    1.8800 C   0  0  0  0  0  0  0  0  0  0  0  0
   -4.0230    1.0860    1.0430 C   0  0  0  0  0  0  0  0  0  0  0  0
   -3.1610    0.2910    0.3820 C   0  0  0  0  0  0  0  0  0  0  0  0
   -1.7420    0.6860    0.5910 C   0  0  0  0  0  0  0  0  0  0  0  0
   -0.7200    0.0620    0.0600 C   0  0  0  0  0  0  0  0  0  0  0  0
    0.6560    0.4710    0.2810 C   0  0  0  0  0  0  0  0  0  0  0  0
    1.0560    1.6160    1.1100 C   0  0  0  0  0  0  0  0  0  0  0  0
    1.6170   -0.2300   -0.3020 C   0  0  0  0  0  0  0  0  0  0  0  0
    3.0100    0.1390   -0.1120 C   0  0  0  0  0  0  0  0  0  0  0  0
    3.9710   -0.5470   -0.6850 C   0  0  0  0  0  0  0  0  0  0  0  0
    5.3620   -0.2150   -0.5220 C   0  0  0  0  0  0  0  0  0  0  0  0
    5.8300    0.9110    0.2780 C   0  0  0  0  0  0  0  0  0  0  0  0
    6.3110   -0.9470   -1.1250 C   0  0  0  0  0  0  0  0  0  0  0  0
    7.7320   -0.6290   -0.9740 C   0  0  0  0  0  0  0  0  0  0  0  0
    8.3260   -1.7780   -0.3910 O   0  0  0  0  0  0  0  0  0  0  0  0
   -3.5160   -0.8380   -0.4690 C   0  0  1  0  0  0  0  0  0  0  0  0
   -2.9920   -0.6040   -1.8840 C   0  0  0  0  0  0  0  0  0  0  0  0
   -2.9040   -2.1400    0.0390 C   0  0  0  0  0  0  0  0  0  0  0  0
   -5.0050   -0.9990   -0.5720 C   0  0  0  0  0  0  0  0  0  0  0  0
   -5.7600   -0.5990    0.6490 C   0  0  0  0  0  0  0  0  0  0  0  0
   -5.5060    0.8610    0.9910 C   0  0  0  0  0  0  0  0  0  0  0  0
  1  2  1  0
  2  3  2  0
  2 21  1  0
  3  4  1  0
  3 16  1  0
  4  5  2  3
  5  6  1  0
  6  7  1  0
  6  8  2  3
  8  9  1  0
  9 10  2  3
 10 11  1  0
 11 12  1  0
 11 13  2  3
 13 14  1  0
 14 15  1  0
 16 17  1  6
 16 18  1  0
 16 19  1  0
 19 20  1  0
 20 21  1  0
M  END
