
     RDKit          3D

 21 22  0  0  0  0  0  0  0  0999 V2000
   -3.1140    2.2440    0.7040 C   0  0  0  0  0  0  0  0  0  0  0  0
   -2.6980    2.8290   -0.3790 C   0  0  0  0  0  0  0  0  0  0  0  0
   -1.9530    2.1730   -1.4400 C   0  0  0  0  0  0  0  0  0  0  0  0
   -1.6000    2.9240   -2.4730 C   0  0  0  0  0  0  0  0  0  0  0  0
   -0.8350    2.5720   -3.7260 C   0  0  0  0  0  0  0  0  0  0  0  0
   -1.6600    1.5670   -4.5380 C   0  0  0  0  0  0  0  0  0  0  0  0
   -2.5250    0.8060   -3.5640 C   0  0  0  0  0  0  0  0  0  0  0  0
   -1.7030    0.0330   -2.5320 C   0  0  0  0  0  0  0  0  0  0  0  0
   -1.6960    0.7110   -1.2040 C   0  0  1  0  0  0  0  0  0  0  0  0
   -0.4850    0.6140   -0.3630 C   0  0  0  0  0  0  0  0  0  0  0  0
    0.0000   -0.7450    0.0330 C   0  0  2  0  0  0  0  0  0  0  0  0
    0.4390   -1.6300   -1.0750 C   0  0  0  0  0  0  0  0  0  0  0  0
   -1.1540   -1.3410    0.6750 O   0  0  0  0  0  0  0  0  0  0  0  0
    0.9960   -0.6610    1.1600 C   0  0  0  0  0  0  0  0  0  0  0  0
    1.5350   -1.9600    1.6390 C   0  0  0  0  0  0  0  0  0  0  0  0
    2.4270   -1.7710    2.8520 C   0  0  0  0  0  0  0  0  0  0  0  0
    3.6650   -2.1460    2.8260 C   0  0  0  0  0  0  0  0  0  0  0  0
    4.3620   -2.7740    1.6900 C   0  0  0  0  0  0  0  0  0  0  0  0
    1.8150   -1.2050    4.0210 C   0  0  0  0  0  0  0  0  0  0  0  0
    0.8580   -0.6680    4.7660 C   0  0  0  0  0  0  0  0  0  0  0  0
    2.1060   -0.8310    5.4740 C   0  0  0  0  0  0  0  0  0  0  0  0
  1  2  2  0
  2  3  1  0
  3  4  2  0
  3  9  1  0
  4  5  1  0
  5  6  1  0
  6  7  1  0
  7  8  1  0
  8  9  1  0
  9 10  1  6
 10 11  1  0
 11 12  1  6
 11 13  1  0
 11 14  1  0
 14 15  1  0
 15 16  1  0
 16 17  2  3
 16 19  1  0
 17 18  1  0
 19 20  2  0
 19 21  1  0
 20 21  1  0
M  END
