
     RDKit          3D

 35 38  0  0  0  0  0  0  0  0999 V2000
    3.7350    0.7360    0.3260 O   0  0  0  0  0  0  0  0  0  0  0  0
    4.2280    1.5020    1.1880 C   0  0  0  0  0  0  0  0  0  0  0  0
    5.5850    2.1020    1.0850 C   0  0  0  0  0  0  0  0  0  0  0  0
    6.2420    1.6850   -0.1010 O   0  0  0  0  0  0  0  0  0  0  0  0
    6.5030    0.3480   -0.3650 C   0  0  0  0  0  0  0  0  0  0  0  0
    6.1250   -0.4720    0.5060 O   0  0  0  0  0  0  0  0  0  0  0  0
    7.1700   -0.1260   -1.5640 C   0  0  0  0  0  0  0  0  0  0  0  0
    7.4360   -1.3850   -1.8530 C   0  0  0  0  0  0  0  0  0  0  0  0
    8.1250   -1.4920   -3.1580 C   0  0  0  0  0  0  0  0  0  0  0  0
    8.2140   -0.1140   -3.5710 N   0  0  0  0  0  0  0  0  0  0  0  0
    7.6820    0.6640   -2.6860 C   0  0  0  0  0  0  0  0  0  0  0  0
    3.4660    1.8080    2.3010 O   0  0  0  0  0  0  0  0  0  0  0  0
    2.1810    1.3450    2.5740 C   0  0  0  0  0  0  0  0  0  0  0  0
    2.1390   -0.1810    2.6660 C   0  0  0  0  0  0  0  0  0  0  0  0
    0.7560   -0.6060    2.9590 N   0  0  0  0  0  0  0  0  0  0  0  0
   -0.1850   -0.8810    1.9740 C   0  0  0  0  0  0  0  0  0  0  0  0
    0.0520   -0.7990    0.7060 O   0  0  0  0  0  0  0  0  0  0  0  0
   -1.5020   -1.2820    2.4470 C   0  0  0  0  0  0  0  0  0  0  0  0
   -2.6810   -1.2860    1.8940 C   0  0  0  0  0  0  0  0  0  0  0  0
   -3.0170   -0.8510    0.5520 C   0  0  0  0  0  0  0  0  0  0  0  0
   -2.5570    0.2750   -0.0950 C   0  0  0  0  0  0  0  0  0  0  0  0
   -3.1560    0.2490   -1.3360 C   0  0  0  0  0  0  0  0  0  0  0  0
   -3.9380   -0.8770   -1.3800 C   0  0  0  0  0  0  0  0  0  0  0  0
   -4.7700   -1.2810   -2.5710 C   0  0  0  0  0  0  0  0  0  0  0  0
   -5.5580   -0.1260   -2.8640 O   0  0  0  0  0  0  0  0  0  0  0  0
   -6.4070    0.3250   -1.8510 C   0  0  0  0  0  0  0  0  0  0  0  0
   -6.3170    1.4600   -1.1890 C   0  0  0  0  0  0  0  0  0  0  0  0
   -7.4120    1.5400   -0.2090 C   0  0  0  0  0  0  0  0  0  0  0  0
   -8.1550    0.2790   -0.4000 C   0  0  0  0  0  0  0  0  0  0  0  0
   -7.5580   -0.4100   -1.3550 C   0  0  0  0  0  0  0  0  0  0  0  0
   -7.9790   -1.6620   -1.8140 O   0  0  0  0  0  0  0  0  0  0  0  0
   -3.8290   -1.5000   -0.2430 O   0  0  0  0  0  0  0  0  0  0  0  0
   -1.1410   -1.8100    4.1540 S   0  0  0  0  0  0  0  0  0  0  0  0
    0.3280   -0.7500    4.2940 C   0  0  0  0  0  0  0  0  0  0  0  0
    0.8930   -0.1820    5.7010 S   0  0  0  0  0  0  0  0  0  0  0  0
  1  2  2  0
  2  3  1  0
  2 12  1  0
  3  4  1  0
  4  5  1  0
  5  6  2  0
  5  7  1  0
  7  8  2  0
  7 11  1  0
  8  9  1  0
  9 10  1  0
 10 11  2  0
 12 13  1  0
 13 14  1  0
 14 15  1  0
 15 16  1  0
 15 34  1  0
 16 17  2  0
 16 18  1  0
 18 19  2  3
 18 33  1  0
 19 20  1  0
 20 21  2  0
 20 32  1  0
 21 22  1  0
 22 23  2  0
 23 24  1  0
 23 32  1  0
 24 25  1  0
 25 26  1  0
 26 27  2  0
 26 30  1  0
 27 28  1  0
 28 29  1  0
 29 30  2  0
 30 31  1  0
 33 34  1  0
 34 35  2  0
M  END
