
     RDKit          3D

 34 36  0  0  0  0  0  0  0  0999 V2000
    4.5370   -0.4260    2.9560 C   0  0  0  0  0  0  0  0  0  0  0  0
    5.1580   -0.0880    1.6720 C   0  0  0  0  0  0  0  0  0  0  0  0
    4.9580   -0.8390    0.6510 C   0  0  0  0  0  0  0  0  0  0  0  0
    4.1670   -2.0310    0.5820 C   0  0  1  0  0  0  0  0  0  0  0  0
    3.4390   -2.6330    1.6750 C   0  0  0  0  0  0  0  0  0  0  0  0
    3.3190   -2.0470   -0.6430 N   0  0  0  0  0  0  0  0  0  0  0  0
    2.3890   -0.9450   -0.6260 C   0  0  0  0  0  0  0  0  0  0  0  0
    1.5570   -0.9540   -1.8900 C   0  0  0  0  0  0  0  0  0  0  0  0
    0.5510    0.1600   -1.9580 C   0  0  0  0  0  0  0  0  0  0  0  0
   -0.4550    0.1430   -0.8230 C   0  0  0  0  0  0  0  0  0  0  0  0
   -1.2330   -1.0380   -0.7340 N   0  0  0  0  0  0  0  0  0  0  0  0
   -2.4890   -1.0680   -1.3890 C   0  0  2  0  0  0  0  0  0  0  0  0
   -2.8870   -2.5510   -1.4970 C   0  0  0  0  0  0  0  0  0  0  0  0
   -2.5050   -0.5380   -2.7820 C   0  0  0  0  0  0  0  0  0  0  0  0
   -3.5890   -0.4330   -0.6220 C   0  0  0  0  0  0  0  0  0  0  0  0
   -4.8830   -0.5070   -1.0930 C   0  0  0  0  0  0  0  0  0  0  0  0
   -5.9490    0.0620   -0.4270 C   0  0  0  0  0  0  0  0  0  0  0  0
   -5.7580    0.7510    0.7760 C   0  0  0  0  0  0  0  0  0  0  0  0
   -6.9460    1.3500    1.4510 C   0  0  2  0  0  0  0  0  0  0  0  0
   -7.5160    0.4490    2.5250 C   0  0  0  0  0  0  0  0  0  0  0  0
   -7.9980    1.4760    0.4980 O   0  0  0  0  0  0  0  0  0  0  0  0
   -6.6600    2.7090    1.9150 C   0  0  0  0  0  0  0  0  0  0  0  0
   -7.2900    3.8660    1.4040 N   0  0  0  0  0  0  0  0  0  0  0  0
   -5.7970    2.9200    2.8340 O   0  0  0  0  0  0  0  0  0  0  0  0
   -4.4740    0.8260    1.2470 C   0  0  0  0  0  0  0  0  0  0  0  0
   -3.4030    0.2420    0.5570 C   0  0  0  0  0  0  0  0  0  0  0  0
    5.5870   -0.4580   -0.5660 O   0  0  0  0  0  0  0  0  0  0  0  0
    6.3740    0.6340   -0.7160 C   0  0  0  0  0  0  0  0  0  0  0  0
    6.9680    0.9590   -1.9440 C   0  0  0  0  0  0  0  0  0  0  0  0
    7.7420    2.0320   -2.0930 N   0  0  0  0  0  0  0  0  0  0  0  0
    7.9550    2.8220   -1.0330 C   0  0  0  0  0  0  0  0  0  0  0  0
    7.4080    2.5720    0.2030 C   0  0  0  0  0  0  0  0  0  0  0  0
    6.6040    1.4490    0.3410 C   0  0  0  0  0  0  0  0  0  0  0  0
    6.0130    1.1630    1.6400 C   0  0  0  0  0  0  0  0  0  0  0  0
  1  2  1  0
  2  3  2  0
  2 34  1  0
  3  4  1  0
  3 27  1  0
  4  5  1  1
  4  6  1  0
  6  7  1  0
  7  8  1  0
  8  9  1  0
  9 10  1  0
 10 11  1  0
 11 12  1  0
 12 13  1  6
 12 14  1  0
 12 15  1  0
 15 16  2  0
 15 26  1  0
 16 17  1  0
 17 18  2  0
 18 19  1  0
 18 25  1  0
 19 20  1  1
 19 21  1  0
 19 22  1  0
 22 23  1  0
 22 24  2  0
 25 26  2  0
 27 28  1  0
 28 29  2  0
 28 33  1  0
 29 30  1  0
 30 31  2  0
 31 32  1  0
 32 33  2  0
 33 34  1  0
M  CHG  2   6   1  11   1
M  END
