
     RDKit          3D

 34 37  0  0  0  0  0  0  0  0999 V2000
   11.3900   -0.6430   -0.7750 C   0  0  0  0  0  0  0  0  0  0  0  0
   10.1730   -1.5110   -0.6800 C   0  0  0  0  0  0  0  0  0  0  0  0
    8.9590   -0.7260   -0.3540 C   0  0  0  0  0  0  0  0  0  0  0  0
    8.9570    0.6430   -0.1620 C   0  0  0  0  0  0  0  0  0  0  0  0
    7.8250    1.3530    0.1380 C   0  0  0  0  0  0  0  0  0  0  0  0
    6.6320    0.6680    0.2540 C   0  0  0  0  0  0  0  0  0  0  0  0
    6.6680   -0.6870    0.0580 C   0  0  0  0  0  0  0  0  0  0  0  0
    7.7800   -1.3780   -0.2360 N   0  0  0  0  0  0  0  0  0  0  0  0
    5.2520   -1.1900    0.2400 C   0  0  0  0  0  0  0  0  0  0  0  0
    4.4890   -0.0180   -0.0450 N   0  0  1  0  0  0  0  0  0  0  0  0
    3.1370   -0.0630    0.2960 C   0  0  0  0  0  0  0  0  0  0  0  0
    2.3390    1.0890    0.1050 C   0  0  0  0  0  0  0  0  0  0  0  0
    1.0050    1.1210    0.3990 C   0  0  0  0  0  0  0  0  0  0  0  0
    0.3800    0.0060    0.9030 C   0  0  0  0  0  0  0  0  0  0  0  0
   -1.0720   -0.0240    1.2460 C   0  0  0  0  0  0  0  0  0  0  0  0
   -1.8930   -0.4120    0.1180 N   0  0  0  0  0  0  0  0  0  0  0  0
   -2.5520    0.7680   -0.4690 C   0  0  0  0  0  0  0  0  0  0  0  0
   -4.0240    0.5670   -0.4200 C   0  0  0  0  0  0  0  0  0  0  0  0
   -4.7420   -0.0000   -1.4490 C   0  0  0  0  0  0  0  0  0  0  0  0
   -6.1070   -0.1740   -1.3740 C   0  0  0  0  0  0  0  0  0  0  0  0
   -6.8380    0.2130   -0.2580 C   0  0  0  0  0  0  0  0  0  0  0  0
   -8.3000    0.0090   -0.2650 C   0  0  2  0  0  0  0  0  0  0  0  0
   -8.6900   -0.9790    0.8610 C   0  0  0  0  0  0  0  0  0  0  0  0
   -8.7070   -0.7190   -1.5560 C   0  0  0  0  0  0  0  0  0  0  0  0
   -9.0860    1.2430   -0.1510 C   0  0  0  0  0  0  0  0  0  0  0  0
   -9.0200    2.0790    0.9750 N   0  0  0  0  0  0  0  0  0  0  0  0
   -9.8510    1.5760   -1.0890 O   0  0  0  0  0  0  0  0  0  0  0  0
   -6.1180    0.7770    0.7660 C   0  0  0  0  0  0  0  0  0  0  0  0
   -6.7640    1.1840    1.9070 O   0  0  0  0  0  0  0  0  0  0  0  0
   -4.7410    0.9530    0.6910 C   0  0  0  0  0  0  0  0  0  0  0  0
    1.1450   -1.1080    1.0890 C   0  0  0  0  0  0  0  0  0  0  0  0
    2.5140   -1.1780    0.7990 C   0  0  0  0  0  0  0  0  0  0  0  0
    3.2090   -2.3570    1.0180 O   0  0  0  0  0  0  0  0  0  0  0  0
    5.2290    1.0800    0.5620 C   0  0  0  0  0  0  0  0  0  0  0  0
  1  2  1  0
  2  3  1  0
  3  4  2  0
  3  8  1  0
  4  5  1  0
  5  6  2  0
  6  7  1  0
  6 34  1  0
  7  8  2  0
  7  9  1  0
  9 10  1  0
 10 11  1  1
 10 34  1  0
 11 12  2  0
 11 32  1  0
 12 13  1  0
 13 14  2  0
 14 15  1  0
 14 31  1  0
 15 16  1  0
 16 17  1  0
 17 18  1  0
 18 19  2  0
 18 30  1  0
 19 20  1  0
 20 21  2  0
 21 22  1  0
 21 28  1  0
 22 23  1  1
 22 24  1  0
 22 25  1  0
 25 26  1  0
 25 27  2  0
 28 29  1  0
 28 30  2  0
 31 32  2  0
 32 33  1  0
M  CHG  2  10   1  16   1
M  END
