
     RDKit          3D

 34 37  0  0  0  0  0  0  0  0999 V2000
   -8.7280    2.9660   -0.2450 C   0  0  0  0  0  0  0  0  0  0  0  0
   -8.2070    2.1710   -1.4050 C   0  0  0  0  0  0  0  0  0  0  0  0
   -6.9570    1.6030   -1.2010 O   0  0  0  0  0  0  0  0  0  0  0  0
   -6.5880    0.6930   -0.2410 C   0  0  0  0  0  0  0  0  0  0  0  0
   -7.5410    0.2560    0.6510 C   0  0  0  0  0  0  0  0  0  0  0  0
   -7.2440   -0.6610    1.6450 C   0  0  0  0  0  0  0  0  0  0  0  0
   -5.9660   -1.1630    1.7640 C   0  0  0  0  0  0  0  0  0  0  0  0
   -5.0280   -0.7130    0.8620 C   0  0  0  0  0  0  0  0  0  0  0  0
   -5.3090    0.1950   -0.1270 C   0  0  0  0  0  0  0  0  0  0  0  0
   -4.0800    0.7690   -1.2900 S   0  0  0  0  0  0  0  0  0  0  0  0
   -2.4970    0.0240   -0.9950 C   0  0  0  0  0  0  0  0  0  0  0  0
   -1.5860    0.6220   -0.1360 C   0  0  0  0  0  0  0  0  0  0  0  0
   -0.3470    0.0210    0.0840 C   0  0  0  0  0  0  0  0  0  0  0  0
    0.0130   -1.1630   -0.5300 C   0  0  0  0  0  0  0  0  0  0  0  0
    1.3190   -1.7520   -0.2700 C   0  0  0  0  0  0  0  0  0  0  0  0
    1.5510   -3.1110   -0.2870 C   0  0  0  0  0  0  0  0  0  0  0  0
    2.8150   -3.6270   -0.0340 C   0  0  0  0  0  0  0  0  0  0  0  0
    3.8340   -2.7940    0.2320 N   0  0  0  0  0  0  0  0  0  0  0  0
    3.6590   -1.4480    0.2610 C   0  0  0  0  0  0  0  0  0  0  0  0
    4.7860   -0.6220    0.5510 N   0  0  0  0  0  0  0  0  0  0  0  0
    4.7670    0.8040    0.5960 C   0  0  0  0  0  0  0  0  0  0  0  0
    5.8610    1.3810   -0.3140 C   0  0  0  0  0  0  0  0  0  0  0  0
    7.0890    0.6950   -0.0380 N   0  0  0  0  0  0  0  0  0  0  0  0
    8.2450    1.4180    0.3070 C   0  0  0  0  0  0  0  0  0  0  0  0
    8.2490    2.9100    0.4010 C   0  0  0  0  0  0  0  0  0  0  0  0
    9.3550    0.8400    0.5600 O   0  0  0  0  0  0  0  0  0  0  0  0
    7.1340   -0.7380   -0.1160 C   0  0  0  0  0  0  0  0  0  0  0  0
    6.0770   -1.2730    0.8290 C   0  0  0  0  0  0  0  0  0  0  0  0
    2.4070   -0.9390    0.0100 C   0  0  0  0  0  0  0  0  0  0  0  0
   -0.9040   -1.7440   -1.3800 C   0  0  0  0  0  0  0  0  0  0  0  0
   -2.1500   -1.1600   -1.6150 C   0  0  0  0  0  0  0  0  0  0  0  0
   -3.0970   -1.7540   -2.4890 N   0  0  0  0  0  0  0  0  0  0  0  0
   -3.9040   -1.1060   -3.1640 O   0  0  0  0  0  0  0  0  0  0  0  0
   -3.1090   -3.1220   -2.5840 O   0  0  0  0  0  0  0  0  0  0  0  0
  1  2  1  0
  2  3  1  0
  3  4  1  0
  4  5  2  0
  4  9  1  0
  5  6  1  0
  6  7  2  0
  7  8  1  0
  8  9  2  0
  9 10  1  0
 10 11  1  0
 11 12  2  0
 11 31  1  0
 12 13  1  0
 13 14  2  0
 14 15  1  0
 14 30  1  0
 15 16  2  0
 15 29  1  0
 16 17  1  0
 17 18  2  0
 18 19  1  0
 19 20  1  0
 19 29  2  0
 20 21  1  0
 20 28  1  0
 21 22  1  0
 22 23  1  0
 23 24  1  0
 23 27  1  0
 24 25  1  0
 24 26  2  0
 27 28  1  0
 30 31  2  0
 31 32  1  0
 32 33  2  0
 32 34  1  0
M  CHG  2  32   1  34  -1
M  END
