
     RDKit          3D

 35 38  0  0  0  0  0  0  0  0999 V2000
    3.9790   -2.7750    2.7530 C   0  0  0  0  0  0  0  0  0  0  0  0
    4.9120   -1.7470    2.9400 O   0  0  0  0  0  0  0  0  0  0  0  0
    5.0490   -0.7590    1.9780 C   0  0  0  0  0  0  0  0  0  0  0  0
    4.2690   -0.7990    0.8530 C   0  0  0  0  0  0  0  0  0  0  0  0
    4.4300    0.1940   -0.0780 C   0  0  0  0  0  0  0  0  0  0  0  0
    3.4300    0.1740   -1.5600 S   0  0  0  0  0  0  0  0  0  0  0  0
    2.3070   -1.2420   -1.5660 C   0  0  0  0  0  0  0  0  0  0  0  0
    1.2840   -1.1270   -0.4830 C   0  0  0  0  0  0  0  0  0  0  0  0
    0.3860   -1.9490   -0.2790 O   0  0  0  0  0  0  0  0  0  0  0  0
    1.3410    0.0030    0.3730 O   0  0  0  0  0  0  0  0  0  0  0  0
    0.4370    0.1970    1.3970 C   0  0  0  0  0  0  0  0  0  0  0  0
   -0.9780    0.4360    1.0450 C   0  0  0  0  0  0  0  0  0  0  0  0
   -1.8240    0.1870    2.0080 O   0  0  0  0  0  0  0  0  0  0  0  0
   -1.4540    0.8900   -0.1830 N   0  0  0  0  0  0  0  0  0  0  0  0
   -0.6420    1.3650   -1.2880 C   0  0  0  0  0  0  0  0  0  0  0  0
   -1.2020    0.5130   -2.4080 C   0  0  0  0  0  0  0  0  0  0  0  0
   -2.6750    0.4100   -2.0950 C   0  0  0  0  0  0  0  0  0  0  0  0
   -2.7880    1.0050   -0.6570 C   0  0  1  0  0  0  0  0  0  0  0  0
   -3.8530    0.2850    0.0420 C   0  0  0  0  0  0  0  0  0  0  0  0
   -3.6330   -0.7180    0.7340 O   0  0  0  0  0  0  0  0  0  0  0  0
   -5.1900    0.6930   -0.0340 O   0  0  0  0  0  0  0  0  0  0  0  0
   -6.2630    0.0560    0.6040 C   0  0  0  0  0  0  0  0  0  0  0  0
   -6.4740   -1.3690    0.1840 C   0  0  2  0  0  0  0  0  0  0  0  0
   -6.6150   -1.4990   -1.3170 C   0  0  0  0  0  0  0  0  0  0  0  0
   -8.4530   -1.4640   -1.4240 S   0  0  0  0  0  0  0  0  0  0  0  0
   -8.7220   -1.3950    0.3990 C   0  0  0  0  0  0  0  0  0  0  0  0
   -7.5320   -1.9760    0.8010 O   0  0  0  0  0  0  0  0  0  0  0  0
    5.3460    1.2300    0.0730 C   0  0  0  0  0  0  0  0  0  0  0  0
    5.4950    2.2170   -0.8690 C   0  0  0  0  0  0  0  0  0  0  0  0
    6.4260    3.2090   -0.6420 C   0  0  0  0  0  0  0  0  0  0  0  0
    7.1680    3.2140    0.4690 N   0  0  0  0  0  0  0  0  0  0  0  0
    7.0510    2.2660    1.4120 C   0  0  0  0  0  0  0  0  0  0  0  0
    7.7680    2.2970    2.4540 O   0  0  0  0  0  0  0  0  0  0  0  0
    6.1280    1.2600    1.2140 C   0  0  0  0  0  0  0  0  0  0  0  0
    5.9780    0.2640    2.1650 C   0  0  0  0  0  0  0  0  0  0  0  0
  1  2  1  0
  2  3  1  0
  3  4  2  0
  3 35  1  0
  4  5  1  0
  5  6  1  0
  5 28  2  0
  6  7  1  0
  7  8  1  0
  8  9  2  0
  8 10  1  0
 10 11  1  0
 11 12  1  0
 12 13  2  0
 12 14  1  0
 14 15  1  0
 14 18  1  0
 15 16  1  0
 16 17  1  0
 17 18  1  0
 18 19  1  1
 19 20  2  0
 19 21  1  0
 21 22  1  0
 23 22  1  6
 23 24  1  0
 23 27  1  0
 24 25  1  0
 25 26  1  0
 26 27  1  0
 28 29  1  0
 28 34  1  0
 29 30  2  0
 30 31  1  0
 31 32  1  0
 32 33  2  0
 32 34  1  0
 34 35  2  0
M  END
