
     RDKit          3D

 35 38  0  0  0  0  0  0  0  0999 V2000
   11.4290   -0.2640   -0.9830 C   0  0  0  0  0  0  0  0  0  0  0  0
    9.9800   -0.2880   -0.7050 C   0  0  0  0  0  0  0  0  0  0  0  0
    8.8740   -1.7000   -0.8570 S   0  0  0  0  0  0  0  0  0  0  0  0
    7.4260   -0.8930   -0.3620 C   0  0  0  0  0  0  0  0  0  0  0  0
    6.0710   -1.4750   -0.2480 C   0  0  0  0  0  0  0  0  0  0  0  0
    5.8780   -2.6800   -0.5260 O   0  0  0  0  0  0  0  0  0  0  0  0
    5.0020   -0.6490    0.1800 N   0  0  0  0  0  0  0  0  0  0  0  0
    3.6640   -1.1640    0.3130 C   0  0  0  0  0  0  0  0  0  0  0  0
    3.5030   -2.3750    0.0260 O   0  0  0  0  0  0  0  0  0  0  0  0
    2.5640   -0.3260    0.7560 C   0  0  0  0  0  0  0  0  0  0  0  0
    2.6900    0.9990    1.0510 C   0  0  0  0  0  0  0  0  0  0  0  0
    1.6110    1.7690    1.4750 C   0  0  0  0  0  0  0  0  0  0  0  0
    0.4380    1.1730    1.5890 N   0  0  0  0  0  0  0  0  0  0  0  0
    0.1900   -0.1470    1.3220 C   0  0  0  0  0  0  0  0  0  0  0  0
   -0.9750   -0.6420    1.4580 O   0  0  0  0  0  0  0  0  0  0  0  0
   -2.1570   -1.1250    1.6010 C   0  0  0  0  0  0  0  0  0  0  0  0
   -3.1620   -0.4130    0.7050 C   0  0  0  0  0  0  0  0  0  0  0  0
   -2.7340    0.5010   -0.0190 O   0  0  0  0  0  0  0  0  0  0  0  0
   -4.4790   -0.7830    0.7170 O   0  0  0  0  0  0  0  0  0  0  0  0
   -5.4560   -0.1340   -0.1120 C   0  0  2  0  0  0  0  0  0  0  0  0
   -6.4450    0.4760    0.8600 C   0  0  0  0  0  0  0  0  0  0  0  0
   -7.6260    1.0830    0.1530 C   0  0  0  0  0  0  0  0  0  0  0  0
   -8.1190    0.2210   -0.9340 C   0  0  0  0  0  0  0  0  0  0  0  0
   -7.4390   -0.8370   -1.4460 C   0  0  0  0  0  0  0  0  0  0  0  0
   -8.2410   -1.3690   -2.4360 C   0  0  0  0  0  0  0  0  0  0  0  0
   -9.3520   -0.6860   -2.5360 O   0  0  0  0  0  0  0  0  0  0  0  0
   -9.3130    0.2890   -1.6370 C   0  0  0  0  0  0  0  0  0  0  0  0
  -10.5910    1.4920   -1.3790 S   0  0  0  0  0  0  0  0  0  0  0  0
  -10.4890    2.0990    0.0120 O   0  0  0  0  0  0  0  0  0  0  0  0
   -6.1150   -1.2100   -0.9310 C   0  0  0  0  0  0  0  0  0  0  0  0
    1.3220   -0.8850    0.8930 C   0  0  0  0  0  0  0  0  0  0  0  0
    7.8380    0.3860   -0.1080 C   0  0  0  0  0  0  0  0  0  0  0  0
    9.1190    0.7020   -0.2770 C   0  0  0  0  0  0  0  0  0  0  0  0
    9.6490    2.0890   -0.0180 C   0  0  0  0  0  0  0  0  0  0  0  0
    8.9060    3.0170    0.3690 O   0  0  0  0  0  0  0  0  0  0  0  0
  1  2  1  0
  2  3  1  0
  2 33  2  0
  3  4  1  0
  4  5  1  0
  4 32  2  0
  5  6  2  0
  5  7  1  0
  7  8  1  0
  8  9  2  0
  8 10  1  0
 10 11  2  0
 10 31  1  0
 11 12  1  0
 12 13  2  0
 13 14  1  0
 14 15  1  0
 14 31  2  0
 15 16  1  0
 16 17  1  0
 17 18  2  0
 17 19  1  0
 20 19  1  1
 20 21  1  0
 20 30  1  0
 21 22  1  0
 22 23  1  0
 23 24  1  0
 23 27  2  0
 24 25  2  0
 24 30  1  0
 25 26  1  0
 26 27  1  0
 27 28  1  0
 28 29  2  0
 32 33  1  0
 33 34  1  0
 34 35  2  0
M  END
