
     RDKit          3D

 35 38  0  0  0  0  0  0  0  0999 V2000
    7.0770    2.8060    0.6300 C   0  0  0  0  0  0  0  0  0  0  0  0
    6.5740    1.3880    0.6340 C   0  0  0  0  0  0  0  0  0  0  0  0
    6.6630    0.4980    1.6800 C   0  0  0  0  0  0  0  0  0  0  0  0
    6.0790   -0.6740    1.2500 C   0  0  0  0  0  0  0  0  0  0  0  0
    5.6610   -0.4400   -0.0420 C   0  0  0  0  0  0  0  0  0  0  0  0
    4.9660   -1.4930   -0.8680 C   0  0  1  0  0  0  0  0  0  0  0  0
    6.0000   -2.3990   -1.4580 C   0  0  0  0  0  0  0  0  0  0  0  0
    5.1270   -3.8400   -2.1830 S   0  0  0  0  0  0  0  0  0  0  0  0
    4.1140   -4.5130   -0.8050 C   0  0  0  0  0  0  0  0  0  0  0  0
    4.1620   -3.5230    0.3480 C   0  0  0  0  0  0  0  0  0  0  0  0
    3.9600   -2.1720   -0.1030 N   0  0  0  0  0  0  0  0  0  0  0  0
    2.7520   -1.5170    0.2140 C   0  0  0  0  0  0  0  0  0  0  0  0
    1.8470   -2.1140    0.8890 O   0  0  0  0  0  0  0  0  0  0  0  0
    2.5440   -0.1280   -0.2450 C   0  0  0  0  0  0  0  0  0  0  0  0
    1.2460    0.3800    0.1720 N   0  0  0  0  0  0  0  0  0  0  0  0
    0.8010    1.6870   -0.1360 C   0  0  0  0  0  0  0  0  0  0  0  0
    1.5600    2.4420   -0.7970 O   0  0  0  0  0  0  0  0  0  0  0  0
   -0.5130    2.1840    0.2920 C   0  0  0  0  0  0  0  0  0  0  0  0
   -1.0230    3.4400    0.0500 C   0  0  0  0  0  0  0  0  0  0  0  0
   -2.2990    3.5090    0.6240 C   0  0  0  0  0  0  0  0  0  0  0  0
   -2.4860    2.2650    1.1890 C   0  0  0  0  0  0  0  0  0  0  0  0
   -3.7180    1.8620    1.9230 C   0  0  0  0  0  0  0  0  0  0  0  0
   -4.4860    1.0160    1.1240 O   0  0  0  0  0  0  0  0  0  0  0  0
   -4.9660    1.4380   -0.0890 C   0  0  0  0  0  0  0  0  0  0  0  0
   -4.7220    2.5900   -0.4930 O   0  0  0  0  0  0  0  0  0  0  0  0
   -5.7750    0.5300   -0.9230 C   0  0  0  0  0  0  0  0  0  0  0  0
   -7.2360    0.9090   -0.7460 C   0  0  2  0  0  0  0  0  0  0  0  0
   -7.7280    0.7430    0.9920 S   0  0  0  0  0  0  0  0  0  0  0  0
   -8.7430   -0.7570    1.1190 C   0  0  0  0  0  0  0  0  0  0  0  0
   -8.1760   -1.7560    0.1230 C   0  0  0  0  0  0  0  0  0  0  0  0
   -8.2290   -1.2900   -1.1980 O   0  0  0  0  0  0  0  0  0  0  0  0
   -8.0740    0.0230   -1.5740 C   0  0  0  0  0  0  0  0  0  0  0  0
   -8.6170    0.5140   -2.6020 O   0  0  0  0  0  0  0  0  0  0  0  0
   -1.4110    1.5310    0.9650 O   0  0  0  0  0  0  0  0  0  0  0  0
    5.9680    0.7800   -0.3700 O   0  0  0  0  0  0  0  0  0  0  0  0
  1  2  1  0
  2  3  2  0
  2 35  1  0
  3  4  1  0
  4  5  2  0
  6  5  1  1
  5 35  1  0
  6  7  1  0
  6 11  1  0
  7  8  1  0
  8  9  1  0
  9 10  1  0
 10 11  1  0
 11 12  1  0
 12 13  2  0
 12 14  1  0
 14 15  1  0
 15 16  1  0
 16 17  2  0
 16 18  1  0
 18 19  2  0
 18 34  1  0
 19 20  1  0
 20 21  2  0
 21 22  1  0
 21 34  1  0
 22 23  1  0
 23 24  1  0
 24 25  2  0
 24 26  1  0
 27 26  1  1
 27 28  1  0
 27 32  1  0
 28 29  1  0
 29 30  1  0
 30 31  1  0
 31 32  1  0
 32 33  2  0
M  END
