
     RDKit          3D

 34 36  0  0  0  0  0  0  0  0999 V2000
   -6.2900   -2.8120    1.2760 C   0  0  0  0  0  0  0  0  0  0  0  0
   -4.9070   -2.2350    1.2430 C   0  0  0  0  0  0  0  0  0  0  0  0
   -4.7720   -1.1320    0.1970 C   0  0  2  0  0  0  0  0  0  0  0  0
   -3.4360   -0.6260    0.2160 N   0  0  0  0  0  0  0  0  0  0  0  0
   -2.6340   -1.3780   -0.7220 C   0  0  0  0  0  0  0  0  0  0  0  0
   -1.2280   -0.8670   -0.7650 C   0  0  0  0  0  0  0  0  0  0  0  0
   -0.8160    0.1390   -1.6140 C   0  0  0  0  0  0  0  0  0  0  0  0
    0.4680    0.6110   -1.6530 C   0  0  0  0  0  0  0  0  0  0  0  0
    1.4060    0.0620   -0.8090 C   0  0  0  0  0  0  0  0  0  0  0  0
    2.7300    0.5730   -0.8670 N   0  0  0  0  0  0  0  0  0  0  0  0
    3.5500    0.4840   -2.0060 C   0  0  0  0  0  0  0  0  0  0  0  0
    3.3140    0.5130   -3.2170 O   0  0  0  0  0  0  0  0  0  0  0  0
    4.9470    0.3270   -1.4470 C   0  0  0  0  0  0  0  0  0  0  0  0
    4.8840    0.9210   -0.0690 C   0  0  2  0  0  0  0  0  0  0  0  0
    5.6430    2.2540   -0.0240 C   0  0  0  0  0  0  0  0  0  0  0  0
    5.4130   -0.0370    0.9290 C   0  0  0  0  0  0  0  0  0  0  0  0
    6.8080   -0.4840    0.8440 C   0  0  0  0  0  0  0  0  0  0  0  0
    7.2900   -1.1880   -0.3630 C   0  0  0  0  0  0  0  0  0  0  0  0
    8.7760   -1.5340   -0.0780 C   0  0  0  0  0  0  0  0  0  0  0  0
    9.5150   -0.3070    0.1510 N   0  0  0  0  0  0  0  0  0  0  0  0
    3.4550    1.2500    0.1440 C   0  0  2  0  0  0  0  0  0  0  0  0
    2.9670    0.9540    1.5430 C   0  0  0  0  0  0  0  0  0  0  0  0
    3.2250    2.6320   -0.0600 O   0  0  0  0  0  0  0  0  0  0  0  0
    1.0440   -0.9360    0.0480 C   0  0  0  0  0  0  0  0  0  0  0  0
   -0.2700   -1.4010    0.0710 C   0  0  0  0  0  0  0  0  0  0  0  0
   -5.7640   -0.0470    0.5020 C   0  0  0  0  0  0  0  0  0  0  0  0
   -5.5590    0.8500    1.5280 C   0  0  0  0  0  0  0  0  0  0  0  0
   -6.4690    1.8460    1.8100 C   0  0  0  0  0  0  0  0  0  0  0  0
   -7.6180    1.9810    1.0770 C   0  0  0  0  0  0  0  0  0  0  0  0
   -8.5310    3.0240    1.4020 N   0  0  0  0  0  0  0  0  0  0  0  0
   -7.8410    1.0930    0.0470 C   0  0  0  0  0  0  0  0  0  0  0  0
   -9.0050    1.2350   -0.6900 O   0  0  0  0  0  0  0  0  0  0  0  0
   -9.3450    0.3880   -1.7700 C   0  0  0  0  0  0  0  0  0  0  0  0
   -6.9160    0.0890   -0.2320 C   0  0  0  0  0  0  0  0  0  0  0  0
  1  2  1  0
  3  2  1  1
  3  4  1  0
  3 26  1  0
  4  5  1  0
  5  6  1  0
  6  7  2  0
  6 25  1  0
  7  8  1  0
  8  9  2  0
  9 10  1  0
  9 24  1  0
 10 11  1  0
 10 21  1  0
 11 12  2  0
 11 13  1  0
 13 14  1  0
 14 15  1  6
 14 16  1  0
 14 21  1  0
 16 17  1  0
 17 18  1  0
 18 19  1  0
 19 20  1  0
 21 22  1  1
 21 23  1  0
 24 25  2  0
 26 27  2  0
 26 34  1  0
 27 28  1  0
 28 29  2  0
 29 30  1  0
 29 31  1  0
 31 32  1  0
 31 34  2  0
 32 33  1  0
M  CHG  2   4   1  20   1
M  END
