
     RDKit          3D

 41 45  0  0  0  0  0  0  0  0999 V2000
   -2.4950   -5.4820    1.3560 C   0  0  0  0  0  0  0  0  0  0  0  0
   -2.6130   -4.1030    0.8130 C   0  0  0  0  0  0  0  0  0  0  0  0
   -3.0680   -3.1060    1.6190 C   0  0  0  0  0  0  0  0  0  0  0  0
   -3.1730   -1.8290    1.0990 C   0  0  0  0  0  0  0  0  0  0  0  0
   -2.8350   -1.5430   -0.1940 C   0  0  0  0  0  0  0  0  0  0  0  0
   -2.9210   -0.2990   -0.7580 O   0  0  0  0  0  0  0  0  0  0  0  0
   -3.0900    0.8650   -0.0350 C   0  0  0  0  0  0  0  0  0  0  0  0
   -4.2990    1.5850   -0.1560 C   0  0  0  0  0  0  0  0  0  0  0  0
   -4.5540    2.7440    0.5170 C   0  0  0  0  0  0  0  0  0  0  0  0
   -5.7540    3.4600    0.4250 N   0  0  0  0  0  0  0  0  0  0  0  0
   -7.0070    3.0750   -0.0600 C   0  0  0  0  0  0  0  0  0  0  0  0
   -7.3450    1.6060   -0.6250 S   0  0  0  0  0  0  0  0  0  0  0  0
   -8.0700    4.0320   -0.0430 N   0  0  0  0  0  0  0  0  0  0  0  0
   -7.8910    5.3730    0.4580 C   0  0  2  0  0  0  0  0  0  0  0  0
   -9.0990    6.2860    0.3950 C   0  0  0  0  0  0  0  0  0  0  0  0
   -7.9100    6.5060   -0.4160 N   0  0  0  0  0  0  0  0  0  0  0  0
   -3.5180    3.1870    1.3560 C   0  0  0  0  0  0  0  0  0  0  0  0
   -2.3420    2.4940    1.4780 C   0  0  0  0  0  0  0  0  0  0  0  0
   -2.1090    1.3170    0.7800 C   0  0  0  0  0  0  0  0  0  0  0  0
   -0.7760    0.7120    0.9590 C   0  0  0  0  0  0  0  0  0  0  0  0
    0.0450    1.0960   -0.2700 C   0  0  0  0  0  0  0  0  0  0  0  0
    1.3690    0.5680   -0.2000 N   0  0  0  0  0  0  0  0  0  0  0  0
    1.6070   -0.8320   -0.1410 C   0  0  0  0  0  0  0  0  0  0  0  0
    0.6260   -1.6550   -0.1520 O   0  0  0  0  0  0  0  0  0  0  0  0
    2.9270   -1.4340   -0.0660 C   0  0  0  0  0  0  0  0  0  0  0  0
    3.0640   -2.7650    0.2510 C   0  0  0  0  0  0  0  0  0  0  0  0
    4.3060   -3.3440    0.3210 C   0  0  0  0  0  0  0  0  0  0  0  0
    5.4390   -2.5990    0.0730 C   0  0  0  0  0  0  0  0  0  0  0  0
    5.3110   -1.2780   -0.2410 C   0  0  0  0  0  0  0  0  0  0  0  0
    6.4450   -0.4510   -0.4960 N   0  0  0  0  0  0  0  0  0  0  0  0
    7.8160   -0.8640   -0.2710 C   0  0  1  0  0  0  0  0  0  0  0  0
    8.7180    0.2320   -0.7830 C   0  0  0  0  0  0  0  0  0  0  0  0
   10.1140   -0.0600   -0.2870 C   0  0  0  0  0  0  0  0  0  0  0  0
    9.7350   -0.5150    1.4120 S   0  0  1  0  0  0  0  0  0  0  0  0
   10.5360   -1.6880    1.8290 O   0  0  0  0  0  0  0  0  0  0  0  0
    9.8810    0.6720    2.3080 O   0  0  0  0  0  0  0  0  0  0  0  0
    7.9970   -0.9020    1.2300 C   0  0  0  0  0  0  0  0  0  0  0  0
    4.0530   -0.7010   -0.3090 C   0  0  0  0  0  0  0  0  0  0  0  0
   -2.3700   -2.5820   -1.0050 C   0  0  0  0  0  0  0  0  0  0  0  0
   -2.2650   -3.8470   -0.4930 C   0  0  0  0  0  0  0  0  0  0  0  0
   -1.7710   -4.9460   -1.3590 C   0  0  0  0  0  0  0  0  0  0  0  0
  1  2  1  0
  2  3  2  0
  2 40  1  0
  3  4  1  0
  4  5  2  0
  5  6  1  0
  5 39  1  0
  6  7  1  0
  7  8  2  0
  7 19  1  0
  8  9  1  0
  9 10  1  0
  9 17  2  0
 10 11  1  0
 11 12  2  0
 11 13  1  0
 14 13  1  6
 14 15  1  0
 14 16  1  0
 15 16  1  0
 17 18  1  0
 18 19  2  0
 19 20  1  0
 20 21  1  0
 21 22  1  0
 22 23  1  0
 23 24  2  0
 23 25  1  0
 25 26  2  0
 25 38  1  0
 26 27  1  0
 27 28  2  0
 28 29  1  0
 29 30  1  0
 29 38  2  0
 31 30  1  1
 31 32  1  0
 31 37  1  0
 32 33  1  0
 34 33  1  6
 34 35  2  0
 34 36  2  0
 34 37  1  0
 39 40  2  0
 40 41  1  0
M  CHG  1  16   1
M  END
