
     RDKit          3D

 41 46  0  0  0  0  0  0  0  0999 V2000
    3.1050    0.9760    1.3720 O   0  0  0  0  0  0  0  0  0  0  0  0
    3.5250   -0.1280    1.7790 C   0  0  0  0  0  0  0  0  0  0  0  0
    4.9410   -0.5520    1.7120 C   0  0  0  0  0  0  0  0  0  0  0  0
    5.7620    0.5730    1.1440 C   0  0  0  0  0  0  0  0  0  0  0  0
    6.7690    1.2080    1.6950 C   0  0  0  0  0  0  0  0  0  0  0  0
    7.4120    2.2650    0.9520 C   0  0  0  0  0  0  0  0  0  0  0  0
    6.4830    2.8620   -0.0790 C   0  0  0  0  0  0  0  0  0  0  0  0
    5.5220    1.3310   -0.4620 S   0  0  0  0  0  0  0  0  0  0  0  0
    2.5800   -1.0400    2.3450 N   0  0  0  0  0  0  0  0  0  0  0  0
    1.1730   -0.7040    2.4480 C   0  0  0  0  0  0  0  0  0  0  0  0
    0.5070   -0.8460    1.1060 C   0  0  0  0  0  0  0  0  0  0  0  0
    1.1290   -1.5900    0.1310 C   0  0  0  0  0  0  0  0  0  0  0  0
    0.5470   -1.7420   -1.1130 C   0  0  0  0  0  0  0  0  0  0  0  0
   -0.6760   -1.1520   -1.4130 C   0  0  0  0  0  0  0  0  0  0  0  0
   -1.2480   -1.3040   -2.6480 O   0  0  0  0  0  0  0  0  0  0  0  0
   -2.4470   -1.8370   -2.9900 C   0  0  0  0  0  0  0  0  0  0  0  0
   -3.4030   -1.1090   -3.6800 C   0  0  0  0  0  0  0  0  0  0  0  0
   -4.6150   -1.6030   -4.0410 C   0  0  0  0  0  0  0  0  0  0  0  0
   -4.9690   -2.8970   -3.7290 C   0  0  0  0  0  0  0  0  0  0  0  0
   -4.0350   -3.6500   -3.0400 C   0  0  0  0  0  0  0  0  0  0  0  0
   -2.7970   -3.1560   -2.6680 C   0  0  0  0  0  0  0  0  0  0  0  0
   -1.8590   -3.8820   -1.9860 O   0  0  0  0  0  0  0  0  0  0  0  0
   -2.1470   -5.1970   -1.6290 C   0  0  0  0  0  0  0  0  0  0  0  0
   -1.8630   -6.2060   -2.5120 C   0  0  0  0  0  0  0  0  0  0  0  0
   -2.1260   -7.5220   -2.2100 C   0  0  0  0  0  0  0  0  0  0  0  0
   -2.6730   -7.8330   -1.0280 N   0  0  0  0  0  0  0  0  0  0  0  0
   -2.9630   -6.8600   -0.1400 C   0  0  0  0  0  0  0  0  0  0  0  0
   -2.7090   -5.5410   -0.4200 C   0  0  0  0  0  0  0  0  0  0  0  0
   -1.2870   -0.4100   -0.4310 C   0  0  0  0  0  0  0  0  0  0  0  0
   -2.6060    0.2080   -0.7140 C   0  0  0  0  0  0  0  0  0  0  0  0
   -3.0380    0.9770    0.4120 N   0  0  0  0  0  0  0  0  0  0  0  0
   -2.3250    2.1640    0.8050 C   0  0  0  0  0  0  0  0  0  0  0  0
   -2.3860    3.0230    1.6380 N   0  0  0  0  0  0  0  0  0  0  0  0
   -1.6060    4.0320    1.8250 C   0  0  0  0  0  0  0  0  0  0  0  0
   -0.5240    4.0960    0.8750 C   0  0  0  0  0  0  0  0  0  0  0  0
   -0.7940    2.7180   -0.1210 S   0  0  0  0  0  0  0  0  0  0  0  0
    0.4100    5.2280    1.0320 C   0  0  0  0  0  0  0  0  0  0  0  0
   -0.3730    6.4400    1.0700 N   0  0  0  0  0  0  0  0  0  0  0  0
   -1.4330    6.4330    2.0250 C   0  0  0  0  0  0  0  0  0  0  0  0
   -1.5740    5.1440    2.8040 C   0  0  0  0  0  0  0  0  0  0  0  0
   -0.6950   -0.2590    0.8280 C   0  0  0  0  0  0  0  0  0  0  0  0
  1  2  2  0
  2  3  1  0
  2  9  1  0
  3  4  1  0
  4  5  2  0
  4  8  1  0
  5  6  1  0
  6  7  1  0
  7  8  1  0
  9 10  1  0
 10 11  1  0
 11 12  2  0
 11 41  1  0
 12 13  1  0
 13 14  2  0
 14 15  1  0
 14 29  1  0
 15 16  1  0
 16 17  2  0
 16 21  1  0
 17 18  1  0
 18 19  2  0
 19 20  1  0
 20 21  2  0
 21 22  1  0
 22 23  1  0
 23 24  2  0
 23 28  1  0
 24 25  1  0
 25 26  2  0
 26 27  1  0
 27 28  2  0
 29 30  1  0
 29 41  2  0
 30 31  1  0
 31 32  1  0
 32 33  2  0
 32 36  1  0
 33 34  1  0
 34 35  2  0
 34 40  1  0
 35 36  1  0
 35 37  1  0
 37 38  1  0
 38 39  1  0
 39 40  1  0
M  CHG  1  38   1
M  END
