
     RDKit          3D

 41 45  0  0  0  0  0  0  0  0999 V2000
    3.6170    0.5390   -0.4420 C   0  0  0  0  0  0  0  0  0  0  0  0
    5.0240    0.0010   -0.3760 C   0  0  0  0  0  0  0  0  0  0  0  0
    6.1180    0.6820   -0.6550 O   0  0  0  0  0  0  0  0  0  0  0  0
    7.1980   -0.0320   -0.5170 C   0  0  0  0  0  0  0  0  0  0  0  0
    8.5930    0.3540   -0.7290 C   0  0  0  0  0  0  0  0  0  0  0  0
    8.9120    1.6290   -1.1360 C   0  0  0  0  0  0  0  0  0  0  0  0
   10.2460    1.9870   -1.3340 C   0  0  0  0  0  0  0  0  0  0  0  0
   11.2760    1.0940   -1.1340 C   0  0  0  0  0  0  0  0  0  0  0  0
   10.9580   -0.1870   -0.7260 C   0  0  0  0  0  0  0  0  0  0  0  0
    9.6310   -0.5330   -0.5320 C   0  0  0  0  0  0  0  0  0  0  0  0
    6.7730   -1.2400   -0.1270 N   0  0  0  0  0  0  0  0  0  0  0  0
    5.4050   -1.2560   -0.0260 C   0  0  0  0  0  0  0  0  0  0  0  0
    4.6330   -2.4380    0.4100 C   0  0  0  0  0  0  0  0  0  0  0  0
    4.3230   -2.3430    1.8700 C   0  0  0  0  0  0  0  0  0  0  0  0
    3.5250   -1.3150    2.2830 O   0  0  0  0  0  0  0  0  0  0  0  0
    2.2070   -1.0830    2.0220 C   0  0  0  0  0  0  0  0  0  0  0  0
    1.3840   -1.8870    1.2830 C   0  0  0  0  0  0  0  0  0  0  0  0
    0.0370   -1.5670    1.0630 C   0  0  0  0  0  0  0  0  0  0  0  0
   -0.5190   -0.4240    1.5860 C   0  0  0  0  0  0  0  0  0  0  0  0
   -1.9510   -0.1020    1.3470 C   0  0  0  0  0  0  0  0  0  0  0  0
   -2.2110    0.7520    0.1650 C   0  0  2  0  0  0  0  0  0  0  0  0
   -3.6540    0.9600    0.0310 N   0  0  0  0  0  0  0  0  0  0  0  0
   -4.5640   -0.0550   -0.3600 C   0  0  0  0  0  0  0  0  0  0  0  0
   -4.0800   -1.3020   -0.6700 C   0  0  0  0  0  0  0  0  0  0  0  0
   -4.9120   -2.3650   -1.0380 C   0  0  0  0  0  0  0  0  0  0  0  0
   -6.2550   -2.1500   -1.0910 C   0  0  0  0  0  0  0  0  0  0  0  0
   -6.7640   -0.9090   -0.7880 C   0  0  0  0  0  0  0  0  0  0  0  0
   -5.9300    0.1610   -0.4170 C   0  0  0  0  0  0  0  0  0  0  0  0
   -6.5280    1.4640   -0.2300 C   0  0  0  0  0  0  0  0  0  0  0  0
   -5.8150    2.5050   -0.2040 O   0  0  0  0  0  0  0  0  0  0  0  0
   -7.9790    1.6640   -0.0600 C   0  0  0  0  0  0  0  0  0  0  0  0
   -8.8200    0.8050    0.5830 C   0  0  0  0  0  0  0  0  0  0  0  0
  -10.1960    1.0380    0.6580 C   0  0  0  0  0  0  0  0  0  0  0  0
  -10.7410    2.1570    0.0780 C   0  0  0  0  0  0  0  0  0  0  0  0
   -9.9120    3.0370   -0.5730 C   0  0  0  0  0  0  0  0  0  0  0  0
   -8.5530    2.8040   -0.6470 C   0  0  0  0  0  0  0  0  0  0  0  0
   -1.5740    0.3980   -1.1000 C   0  0  0  0  0  0  0  0  0  0  0  0
   -2.1750    0.3460   -2.2180 O   0  0  0  0  0  0  0  0  0  0  0  0
   -0.2080    0.0950   -1.0810 O   0  0  0  0  0  0  0  0  0  0  0  0
    0.3040    0.3810    2.3270 C   0  0  0  0  0  0  0  0  0  0  0  0
    1.6260    0.0890    2.5560 C   0  0  0  0  0  0  0  0  0  0  0  0
  1  2  1  0
  2  3  1  0
  2 12  2  0
  3  4  1  0
  4  5  1  0
  4 11  2  0
  5  6  2  0
  5 10  1  0
  6  7  1  0
  7  8  2  0
  8  9  1  0
  9 10  2  0
 11 12  1  0
 12 13  1  0
 13 14  1  0
 14 15  1  0
 15 16  1  0
 16 17  2  0
 16 41  1  0
 17 18  1  0
 18 19  2  0
 19 20  1  0
 19 40  1  0
 21 20  1  1
 21 22  1  0
 21 37  1  0
 22 23  1  0
 23 24  2  0
 23 28  1  0
 24 25  1  0
 25 26  2  0
 26 27  1  0
 27 28  2  0
 28 29  1  0
 29 30  2  0
 29 31  1  0
 31 32  2  0
 31 36  1  0
 32 33  1  0
 33 34  2  0
 34 35  1  0
 35 36  2  0
 37 38  2  0
 37 39  1  0
 40 41  2  0
M  END
