
     RDKit          3D

 41 45  0  0  0  0  0  0  0  0999 V2000
    8.9140    3.5210    1.8070 C   0  0  0  0  0  0  0  0  0  0  0  0
    8.3270    2.5830    0.8300 C   0  0  0  0  0  0  0  0  0  0  0  0
    8.6750    1.2530    0.8780 C   0  0  0  0  0  0  0  0  0  0  0  0
    8.1310    0.3600   -0.0300 C   0  0  0  0  0  0  0  0  0  0  0  0
    7.2500    0.8290   -0.9650 C   0  0  0  0  0  0  0  0  0  0  0  0
    6.6290   -0.0600   -1.9690 C   0  0  0  0  0  0  0  0  0  0  0  0
    5.3930   -0.7060   -1.3340 C   0  0  0  0  0  0  0  0  0  0  0  0
    5.6110   -1.4840   -0.4210 O   0  0  0  0  0  0  0  0  0  0  0  0
    4.1310   -0.4030   -1.7870 N   0  0  0  0  0  0  0  0  0  0  0  0
    2.7950   -0.7700   -1.5230 C   0  0  0  0  0  0  0  0  0  0  0  0
    2.2940   -0.7980   -0.1480 C   0  0  1  0  0  0  0  0  0  0  0  0
    0.8150   -0.8720    0.0610 C   0  0  0  0  0  0  0  0  0  0  0  0
   -0.1080   -0.4480   -0.7590 C   0  0  0  0  0  0  0  0  0  0  0  0
   -1.5240   -0.4970   -0.6170 C   0  0  0  0  0  0  0  0  0  0  0  0
   -2.2270   -0.9820    0.3260 N   0  0  0  0  0  0  0  0  0  0  0  0
   -3.6710   -0.9040    0.2360 C   0  0  0  0  0  0  0  0  0  0  0  0
   -4.4230   -1.9420    0.7010 C   0  0  0  0  0  0  0  0  0  0  0  0
   -5.8210   -1.9070    0.6490 C   0  0  0  0  0  0  0  0  0  0  0  0
   -6.3890   -0.7610    0.0990 C   0  0  0  0  0  0  0  0  0  0  0  0
   -5.6480    0.2930   -0.3740 C   0  0  0  0  0  0  0  0  0  0  0  0
   -4.2580    0.2120   -0.3000 C   0  0  0  0  0  0  0  0  0  0  0  0
   -6.2740    1.5240   -0.9590 C   0  0  0  0  0  0  0  0  0  0  0  0
   -7.5110    1.8000   -0.1310 C   0  0  1  0  0  0  0  0  0  0  0  0
   -7.9470    3.2420   -0.2370 C   0  0  2  0  0  0  0  0  0  0  0  0
   -9.1850    3.4010    0.6270 C   0  0  0  0  0  0  0  0  0  0  0  0
   -8.3630    3.6560   -1.9350 S   0  0  0  0  0  0  0  0  0  0  0  0
   -9.7070    4.3700   -1.9660 O   0  0  0  0  0  0  0  0  0  0  0  0
   -8.5540    0.8960   -0.5680 N   0  0  0  0  0  0  0  0  0  0  0  0
   -8.1540   -0.6750    0.0150 S   0  0  1  0  0  0  0  0  0  0  0  0
   -8.7040   -1.7660   -0.8320 O   0  0  0  0  0  0  0  0  0  0  0  0
   -8.6900   -0.7610    1.4330 O   0  0  0  0  0  0  0  0  0  0  0  0
    0.6990   -1.4760    1.3700 N   0  0  0  0  0  0  0  0  0  0  0  0
    1.7880   -2.3970    1.4390 C   0  0  0  0  0  0  0  0  0  0  0  0
    1.9460   -3.5070    2.2630 C   0  0  0  0  0  0  0  0  0  0  0  0
    2.8420   -4.5090    1.8530 C   0  0  0  0  0  0  0  0  0  0  0  0
    3.5460   -4.4160    0.6840 C   0  0  0  0  0  0  0  0  0  0  0  0
    4.4510   -5.4450    0.2710 N   0  0  0  0  0  0  0  0  0  0  0  0
    3.3640   -3.2790   -0.1120 C   0  0  0  0  0  0  0  0  0  0  0  0
    2.5070   -2.3170    0.2940 C   0  0  0  0  0  0  0  0  0  0  0  0
    6.9200    2.1620   -0.9910 C   0  0  0  0  0  0  0  0  0  0  0  0
    7.4320    3.0890   -0.1120 C   0  0  0  0  0  0  0  0  0  0  0  0
  1  2  1  0
  2  3  2  0
  2 41  1  0
  3  4  1  0
  4  5  2  0
  5  6  1  0
  5 40  1  0
  6  7  1  0
  7  8  2  0
  7  9  1  0
  9 10  1  0
 11 10  1  6
 11 12  1  0
 11 39  1  0
 12 13  2  3
 12 32  1  0
 13 14  1  0
 14 15  2  3
 15 16  1  0
 16 17  2  0
 16 21  1  0
 17 18  1  0
 18 19  2  0
 19 20  1  0
 19 29  1  0
 20 21  2  0
 20 22  1  0
 23 22  1  6
 23 24  1  0
 23 28  1  0
 24 25  1  1
 24 26  1  0
 26 27  2  0
 29 28  1  6
 29 30  2  0
 29 31  2  0
 32 33  1  0
 33 34  2  0
 33 39  1  0
 34 35  1  0
 35 36  2  0
 36 37  1  0
 36 38  1  0
 38 39  2  0
 40 41  2  0
M  CHG  1  15   1
M  END
