
     RDKit          3D

 41 45  0  0  0  0  0  0  0  0999 V2000
    4.6820    6.5720   -2.4250 C   0  0  0  0  0  0  0  0  0  0  0  0
    4.9180    5.0700   -2.3110 C   0  0  0  0  0  0  0  0  0  0  0  0
    4.2380    4.6160   -1.1510 O   0  0  0  0  0  0  0  0  0  0  0  0
    4.3400    3.2620   -0.7550 C   0  0  0  0  0  0  0  0  0  0  0  0
    3.6320    2.9250    0.3940 C   0  0  0  0  0  0  0  0  0  0  0  0
    3.7300    1.5730    0.8030 C   0  0  0  0  0  0  0  0  0  0  0  0
    4.4480    0.6790    0.1380 C   0  0  0  0  0  0  0  0  0  0  0  0
    4.5510   -0.7500    0.6350 C   0  0  0  0  0  0  0  0  0  0  0  0
    3.4870   -1.5250    0.5740 C   0  0  0  0  0  0  0  0  0  0  0  0
    2.0960   -1.4860    0.1480 C   0  0  0  0  0  0  0  0  0  0  0  0
    1.4310   -2.5770    0.3050 O   0  0  0  0  0  0  0  0  0  0  0  0
    1.3490   -0.4420   -0.4110 N   0  0  0  0  0  0  0  0  0  0  0  0
   -0.0440   -0.6890   -0.7510 C   0  0  0  0  0  0  0  0  0  0  0  0
    0.5360   -0.6400   -2.5290 C   0  0  0  0  0  0  0  0  0  0  0  0
   -1.1520   -0.8670   -1.1150 C   0  0  0  0  0  0  0  0  0  0  0  0
   -2.2850   -1.2980   -0.1980 C   0  0  0  0  0  0  0  0  0  0  0  0
   -3.4880   -1.5430   -0.5770 C   0  0  0  0  0  0  0  0  0  0  0  0
   -3.8550   -1.4150   -2.0150 C   0  0  0  0  0  0  0  0  0  0  0  0
   -4.6560   -2.3540   -2.5500 C   0  0  0  0  0  0  0  0  0  0  0  0
   -5.1030   -3.4080   -1.6660 N   0  0  0  0  0  0  0  0  0  0  0  0
   -4.7320   -3.4530   -0.2950 C   0  0  0  0  0  0  0  0  0  0  0  0
   -4.5780   -4.5250    0.3280 N   0  0  0  0  0  0  0  0  0  0  0  0
   -4.5790   -2.0520    0.2640 C   0  0  1  0  0  0  0  0  0  0  0  0
   -4.4840   -1.8700    1.6160 N   0  0  0  0  0  0  0  0  0  0  0  0
   -5.7980   -1.3420    2.5010 S   0  0  2  0  0  0  0  0  0  0  0  0
   -5.3240   -1.3180    3.9650 O   0  0  0  0  0  0  0  0  0  0  0  0
   -6.9070   -2.3990    2.5650 O   0  0  0  0  0  0  0  0  0  0  0  0
   -6.5560    0.1730    2.2070 C   0  0  2  0  0  0  0  0  0  0  0  0
   -7.0840    0.4700    0.8740 C   0  0  0  0  0  0  0  0  0  0  0  0
   -6.0270    1.3300    0.2380 C   0  0  0  0  0  0  0  0  0  0  0  0
   -5.7960    2.2690    1.3410 N   0  0  0  0  0  0  0  0  0  0  0  0
   -5.7390    1.4000    2.5270 C   0  0  0  0  0  0  0  0  0  0  0  0
    4.1170   -3.1320    1.2620 S   0  0  0  0  0  0  0  0  0  0  0  0
    5.7720   -2.5120    1.5390 C   0  0  0  0  0  0  0  0  0  0  0  0
    6.8800   -3.1690    2.0620 C   0  0  0  0  0  0  0  0  0  0  0  0
    8.0870   -2.4640    2.1850 C   0  0  0  0  0  0  0  0  0  0  0  0
    8.0660   -1.1550    1.7680 C   0  0  0  0  0  0  0  0  0  0  0  0
    6.9540   -0.5510    1.2580 C   0  0  0  0  0  0  0  0  0  0  0  0
    5.7210   -1.2410    1.1240 C   0  0  0  0  0  0  0  0  0  0  0  0
    5.1660    0.9950   -1.0150 C   0  0  0  0  0  0  0  0  0  0  0  0
    5.0570    2.3670   -1.4200 C   0  0  0  0  0  0  0  0  0  0  0  0
  1  2  1  0
  2  3  1  0
  3  4  1  0
  4  5  2  0
  4 41  1  0
  5  6  1  0
  6  7  2  0
  7  8  1  0
  7 40  1  0
  8  9  2  0
  8 39  1  0
  9 10  1  0
  9 33  1  0
 10 11  2  0
 10 12  1  0
 12 13  1  0
 13 14  1  0
 13 15  2  3
 15 16  1  0
 16 17  2  3
 17 18  1  0
 17 23  1  0
 18 19  2  0
 19 20  1  0
 20 21  1  0
 21 22  2  0
 21 23  1  0
 23 24  1  1
 25 24  1  6
 25 26  2  0
 25 27  2  0
 25 28  1  0
 28 29  1  6
 28 32  1  0
 29 30  1  0
 30 31  1  0
 31 32  1  0
 33 34  1  0
 34 35  2  0
 34 39  1  0
 35 36  1  0
 36 37  2  0
 37 38  1  0
 38 39  2  0
 40 41  2  0
M  CHG  1  22   1
M  END
