
     RDKit          3D

 41 45  0  0  0  0  0  0  0  0999 V2000
    7.7080   -0.8300   -4.3120 C   0  0  0  0  0  0  0  0  0  0  0  0
    8.0120   -0.4490   -3.0660 C   0  0  0  0  0  0  0  0  0  0  0  0
    6.9610   -0.2120   -2.0820 C   0  0  0  0  0  0  0  0  0  0  0  0
    7.2750    0.1620   -0.8720 C   0  0  0  0  0  0  0  0  0  0  0  0
    6.2470    0.4060    0.1310 C   0  0  0  0  0  0  0  0  0  0  0  0
    6.5710    0.7790    1.4130 C   0  0  0  0  0  0  0  0  0  0  0  0
    5.5430    0.9980    2.3170 C   0  0  0  0  0  0  0  0  0  0  0  0
    4.2370    0.8490    1.9530 C   0  0  0  0  0  0  0  0  0  0  0  0
    3.1850    1.0970    2.9610 C   0  0  0  0  0  0  0  0  0  0  0  0
    3.8700    0.4700    0.6560 C   0  0  0  0  0  0  0  0  0  0  0  0
    2.4940    0.3520    0.4010 N   0  0  0  0  0  0  0  0  0  0  0  0
    1.9030    0.0010   -0.8170 C   0  0  0  0  0  0  0  0  0  0  0  0
    2.6720   -0.2460   -1.8220 O   0  0  0  0  0  0  0  0  0  0  0  0
    0.4350   -0.1120   -1.0500 C   0  0  0  0  0  0  0  0  0  0  0  0
   -0.4300    0.1560    0.0320 N   0  0  1  0  0  0  0  0  0  0  0  0
   -1.6250    0.8900   -0.4090 C   0  0  0  0  0  0  0  0  0  0  0  0
   -0.7520   -1.0370    0.7550 C   0  0  1  0  0  0  0  0  0  0  0  0
   -0.5460   -0.8850    2.2560 C   0  0  0  0  0  0  0  0  0  0  0  0
   -1.2460   -2.1540    2.7130 C   0  0  0  0  0  0  0  0  0  0  0  0
   -2.5580   -2.0570    2.0190 C   0  0  1  0  0  0  0  0  0  0  0  0
   -3.4710   -1.1200    2.5440 N   0  0  0  0  0  0  0  0  0  0  0  0
   -5.0170   -1.6170    2.9330 S   0  0  2  0  0  0  0  0  0  0  0  0
   -5.6510   -0.9430    4.0890 O   0  0  0  0  0  0  0  0  0  0  0  0
   -5.0350   -3.1150    3.1610 O   0  0  0  0  0  0  0  0  0  0  0  0
   -6.0380   -1.3360    1.5530 N   0  0  0  0  0  0  0  0  0  0  0  0
   -6.6100    0.0180    1.6280 C   0  0  0  0  0  0  0  0  0  0  0  0
   -7.4620    0.1610    0.4100 C   0  0  0  0  0  0  0  0  0  0  0  0
   -8.7900   -0.1620    0.4370 C   0  0  0  0  0  0  0  0  0  0  0  0
   -9.5310   -0.0020   -0.7410 C   0  0  0  0  0  0  0  0  0  0  0  0
   -8.9340    0.4660   -1.8830 C   0  0  0  0  0  0  0  0  0  0  0  0
   -7.6030    0.7910   -1.9170 C   0  0  0  0  0  0  0  0  0  0  0  0
   -6.8730    0.6270   -0.7320 C   0  0  0  0  0  0  0  0  0  0  0  0
   -7.1170    1.2420   -3.1430 N   0  0  0  0  0  0  0  0  0  0  0  0
   -8.0980    1.8800   -3.9980 C   0  0  0  0  0  0  0  0  0  0  0  0
   -9.5400    0.8140   -3.5310 S   0  0  0  0  0  0  0  0  0  0  0  0
   -2.1400   -1.5480    0.6300 C   0  0  0  0  0  0  0  0  0  0  0  0
    4.8880    0.2580   -0.2200 C   0  0  0  0  0  0  0  0  0  0  0  0
    8.6880    0.3460   -0.4940 C   0  0  0  0  0  0  0  0  0  0  0  0
    9.6720    0.1440   -1.3450 C   0  0  0  0  0  0  0  0  0  0  0  0
   10.9870    0.3490   -0.8810 O   0  0  0  0  0  0  0  0  0  0  0  0
    9.4260   -0.2770   -2.7200 C   0  0  0  0  0  0  0  0  0  0  0  0
  1  2  2  0
  2  3  1  0
  2 41  1  0
  3  4  2  0
  4  5  1  0
  4 38  1  0
  5  6  2  0
  5 37  1  0
  6  7  1  0
  7  8  2  0
  8  9  1  0
  8 10  1  0
 10 11  1  0
 10 37  2  0
 11 12  1  0
 12 13  2  0
 12 14  1  0
 14 15  1  0
 15 16  1  6
 15 17  1  0
 17 18  1  1
 17 36  1  0
 18 19  1  0
 19 20  1  0
 20 21  1  1
 20 36  1  0
 22 21  1  6
 22 23  2  0
 22 24  2  0
 22 25  1  0
 25 26  1  0
 26 27  1  0
 27 28  2  0
 27 32  1  0
 28 29  1  0
 29 30  2  0
 30 31  1  0
 30 35  1  0
 31 32  2  0
 31 33  1  0
 33 34  1  0
 34 35  1  0
 38 39  2  0
 39 40  1  0
 39 41  1  0
M  CHG  1  15   1
M  END
