
     RDKit          3D

 41 44  0  0  0  0  0  0  0  0999 V2000
    7.6880    1.9450    2.3020 C   0  0  0  0  0  0  0  0  0  0  0  0
    7.2230    2.1620    1.1280 N   0  0  0  0  0  0  0  0  0  0  0  0
    6.0720    1.4660    0.6380 C   0  0  0  0  0  0  0  0  0  0  0  0
    4.8870    1.5330    1.3320 C   0  0  0  0  0  0  0  0  0  0  0  0
    4.7730    2.3180    2.5880 C   0  0  0  0  0  0  0  0  0  0  0  0
    3.7620    0.8370    0.8300 C   0  0  0  0  0  0  0  0  0  0  0  0
    3.8780    0.1200   -0.3200 C   0  0  0  0  0  0  0  0  0  0  0  0
    2.7800   -0.6020   -0.9420 N   0  0  0  0  0  0  0  0  0  0  0  0
    1.5710   -0.8760   -0.3700 C   0  0  0  0  0  0  0  0  0  0  0  0
    1.5960   -0.3830    0.8840 O   0  0  0  0  0  0  0  0  0  0  0  0
    0.2970   -1.4700   -0.5750 C   0  0  0  0  0  0  0  0  0  0  0  0
   -0.2100   -2.0410   -1.6150 C   0  0  0  0  0  0  0  0  0  0  0  0
    0.6120   -2.1090   -2.8440 C   0  0  0  0  0  0  0  0  0  0  0  0
    1.7160   -1.5950   -2.9200 O   0  0  0  0  0  0  0  0  0  0  0  0
    0.1800   -2.7730   -4.0430 N   0  0  0  0  0  0  0  0  0  0  0  0
   -1.0890   -3.3880   -4.0430 C   0  0  0  0  0  0  0  0  0  0  0  0
   -1.4860   -3.9780   -5.0950 O   0  0  0  0  0  0  0  0  0  0  0  0
   -1.8840   -3.3150   -2.8360 C   0  0  0  0  0  0  0  0  0  0  0  0
   -1.5040   -2.7150   -1.7340 C   0  0  0  0  0  0  0  0  0  0  0  0
   -2.4930   -2.8500   -0.6120 C   0  0  0  0  0  0  0  0  0  0  0  0
   -1.4850   -2.8040    0.9290 S   0  0  0  0  0  0  0  0  0  0  0  0
   -0.5560   -1.2770    0.6960 C   0  0  2  0  0  0  0  0  0  0  0  0
   -1.4940   -0.1650    0.5560 C   0  0  0  0  0  0  0  0  0  0  0  0
   -1.2230    0.9590   -0.1970 C   0  0  0  0  0  0  0  0  0  0  0  0
   -2.1280    1.9980   -0.3640 C   0  0  0  0  0  0  0  0  0  0  0  0
   -1.7100    3.1170   -1.2400 C   0  0  0  0  0  0  0  0  0  0  0  0
   -3.3480    1.8960    0.2530 C   0  0  0  0  0  0  0  0  0  0  0  0
   -4.3560    2.9460    0.1800 C   0  0  0  0  0  0  0  0  0  0  0  0
   -4.2460    4.0700    1.1420 C   0  0  0  0  0  0  0  0  0  0  0  0
   -2.7550    5.0410    1.0940 S   0  0  0  0  0  0  0  0  0  0  0  0
   -3.6250    0.7520    1.0200 C   0  0  0  0  0  0  0  0  0  0  0  0
   -2.7360   -0.2750    1.1880 C   0  0  0  0  0  0  0  0  0  0  0  0
   -3.0260   -1.3650    1.9390 O   0  0  0  0  0  0  0  0  0  0  0  0
   -4.1040   -1.7710    2.6660 C   0  0  0  0  0  0  0  0  0  0  0  0
   -5.4070   -2.0000    1.9880 C   0  0  0  0  0  0  0  0  0  0  0  0
   -5.3110   -3.0220    0.9700 N   0  0  0  0  0  0  0  0  0  0  0  0
   -6.5530   -3.2620    0.3020 C   0  0  0  0  0  0  0  0  0  0  0  0
    5.0980    0.0640   -1.0160 C   0  0  0  0  0  0  0  0  0  0  0  0
    5.1930   -0.7010   -2.2210 N   0  0  0  0  0  0  0  0  0  0  0  0
    6.1890    0.7410   -0.5270 C   0  0  0  0  0  0  0  0  0  0  0  0
    7.4680    0.6790   -1.2610 C   0  0  0  0  0  0  0  0  0  0  0  0
  1  2  2  0
  2  3  1  0
  3  4  2  0
  3 40  1  0
  4  5  1  0
  4  6  1  0
  6  7  2  0
  7  8  1  0
  7 38  1  0
  8  9  1  0
  9 10  2  0
  9 11  1  0
 11 12  2  0
 11 22  1  0
 12 13  1  0
 12 19  1  0
 13 14  2  0
 13 15  1  0
 15 16  1  0
 16 17  2  0
 16 18  1  0
 18 19  2  0
 19 20  1  0
 20 21  1  0
 21 22  1  0
 22 23  1  6
 23 24  2  0
 23 32  1  0
 24 25  1  0
 25 26  1  0
 25 27  2  0
 27 28  1  0
 27 31  1  0
 28 29  1  0
 29 30  1  0
 31 32  2  0
 32 33  1  0
 33 34  1  0
 34 35  1  0
 35 36  1  0
 36 37  1  0
 38 39  1  0
 38 40  2  0
 40 41  1  0
M  CHG  1   2   1
M  END
