
     RDKit          3D

 35 39  0  0  0  0  0  0  0  0999 V2000
   -6.9760   -3.3050    2.0840 C   0  0  0  0  0  0  0  0  0  0  0  0
   -6.4060   -2.1220    1.4020 C   0  0  0  0  0  0  0  0  0  0  0  0
   -5.0690   -2.0630    1.0570 C   0  0  0  0  0  0  0  0  0  0  0  0
   -4.5450   -0.9640    0.4260 C   0  0  0  0  0  0  0  0  0  0  0  0
   -3.1410   -0.8530    0.0440 C   0  0  0  0  0  0  0  0  0  0  0  0
   -2.2440   -1.8550    0.2740 C   0  0  0  0  0  0  0  0  0  0  0  0
   -0.8970   -1.7550   -0.0850 C   0  0  0  0  0  0  0  0  0  0  0  0
   -0.4320   -0.6100   -0.6950 C   0  0  0  0  0  0  0  0  0  0  0  0
    0.9050   -0.5260   -1.0440 O   0  0  0  0  0  0  0  0  0  0  0  0
    1.4890    0.5910   -1.6660 C   0  0  0  0  0  0  0  0  0  0  0  0
    2.9340    0.3890   -1.9150 C   0  0  0  0  0  0  0  0  0  0  0  0
    3.5970    1.3110   -2.4430 O   0  0  0  0  0  0  0  0  0  0  0  0
    3.5200   -0.8490   -1.5460 N   0  0  0  0  0  0  0  0  0  0  0  0
    4.9050   -1.1470   -1.7390 C   0  0  0  0  0  0  0  0  0  0  0  0
    5.7940   -0.5020   -0.7410 C   0  0  0  0  0  0  0  0  0  0  0  0
    5.3500    0.3590    0.2340 C   0  0  0  0  0  0  0  0  0  0  0  0
    6.2630    0.8950    1.1130 C   0  0  0  0  0  0  0  0  0  0  0  0
    7.5990    0.6050    1.0590 C   0  0  0  0  0  0  0  0  0  0  0  0
    8.0400   -0.2580    0.0820 C   0  0  0  0  0  0  0  0  0  0  0  0
    7.1320   -0.8000   -0.8050 C   0  0  0  0  0  0  0  0  0  0  0  0
    9.3930   -0.5450    0.0350 O   0  0  0  0  0  0  0  0  0  0  0  0
   10.3860    0.2740    0.5810 C   0  0  0  0  0  0  0  0  0  0  0  0
    9.9720    0.9270    1.8750 C   0  0  0  0  0  0  0  0  0  0  0  0
    8.5530    1.1500    1.9620 N   0  0  0  0  0  0  0  0  0  0  0  0
   -1.3410    0.3950   -0.9230 C   0  0  0  0  0  0  0  0  0  0  0  0
   -2.6610    0.2970   -0.5720 C   0  0  0  0  0  0  0  0  0  0  0  0
   -5.3900    0.0660    0.1520 N   0  0  0  0  0  0  0  0  0  0  0  0
   -6.6830   -0.0020    0.4910 C   0  0  0  0  0  0  0  0  0  0  0  0
   -7.5820    1.1130    0.1870 C   0  0  0  0  0  0  0  0  0  0  0  0
   -8.9060    1.0820    0.5150 C   0  0  0  0  0  0  0  0  0  0  0  0
   -9.7720    2.1240    0.2360 C   0  0  0  0  0  0  0  0  0  0  0  0
   -9.2610    3.2390   -0.4040 C   0  0  0  0  0  0  0  0  0  0  0  0
   -7.9250    3.3130   -0.7550 C   0  0  0  0  0  0  0  0  0  0  0  0
   -7.0990    2.2400   -0.4510 C   0  0  0  0  0  0  0  0  0  0  0  0
   -7.1940   -1.0900    1.1140 N   0  0  0  0  0  0  0  0  0  0  0  0
  1  2  1  0
  2  3  2  0
  2 35  1  0
  3  4  1  0
  4  5  1  0
  4 27  2  0
  5  6  2  0
  5 26  1  0
  6  7  1  0
  7  8  2  0
  8  9  1  0
  8 25  1  0
  9 10  1  0
 10 11  1  0
 11 12  2  0
 11 13  1  0
 13 14  1  0
 14 15  1  0
 15 16  2  0
 15 20  1  0
 16 17  1  0
 17 18  2  0
 18 19  1  0
 18 24  1  0
 19 20  2  0
 19 21  1  0
 21 22  1  0
 22 23  1  0
 23 24  1  0
 25 26  2  0
 27 28  1  0
 28 29  1  0
 28 35  2  0
 29 30  2  0
 29 34  1  0
 30 31  1  0
 31 32  2  0
 32 33  1  0
 33 34  2  0
M  END
