
     RDKit          3D

 35 39  0  0  0  0  0  0  0  0999 V2000
   -0.2850   -3.7450    0.0710 C   0  0  0  0  0  0  0  0  0  0  0  0
   -0.4280   -2.3980    0.5400 O   0  0  0  0  0  0  0  0  0  0  0  0
    0.2680   -1.3840   -0.1000 C   0  0  0  0  0  0  0  0  0  0  0  0
    1.0830   -1.6230   -1.1680 C   0  0  0  0  0  0  0  0  0  0  0  0
    1.7770   -0.6150   -1.8040 C   0  0  0  0  0  0  0  0  0  0  0  0
    1.6850    0.6910   -1.3900 C   0  0  0  0  0  0  0  0  0  0  0  0
    2.4100    1.7840   -2.0320 C   0  0  0  0  0  0  0  0  0  0  0  0
    3.7290    1.4850   -2.6060 C   0  0  0  0  0  0  0  0  0  0  0  0
    4.6850    0.9720   -1.6050 C   0  0  0  0  0  0  0  0  0  0  0  0
    5.5560    1.6590   -0.7810 C   0  0  0  0  0  0  0  0  0  0  0  0
    6.2380    0.6960   -0.0760 C   0  0  0  0  0  0  0  0  0  0  0  0
    5.8240   -0.5180   -0.4310 N   0  0  0  0  0  0  0  0  0  0  0  0
    4.8930   -0.3490   -1.3460 N   0  0  0  0  0  0  0  0  0  0  0  0
    6.5330   -1.5240    0.2930 C   0  0  0  0  0  0  0  0  0  0  0  0
    6.4200   -2.8030    0.2150 N   0  0  0  0  0  0  0  0  0  0  0  0
    7.4440   -0.8580    1.1520 N   0  0  0  0  0  0  0  0  0  0  0  0
    7.3010    0.5570    0.9590 C   0  0  0  0  0  0  0  0  0  0  0  0
    0.8530    0.9620   -0.2920 C   0  0  0  0  0  0  0  0  0  0  0  0
    0.8400    2.3420    0.1740 C   0  0  0  0  0  0  0  0  0  0  0  0
    0.0740    3.2190   -0.2560 O   0  0  0  0  0  0  0  0  0  0  0  0
    0.1560   -0.0490    0.3410 C   0  0  0  0  0  0  0  0  0  0  0  0
   -0.6570    0.1450    1.4000 O   0  0  0  0  0  0  0  0  0  0  0  0
   -1.9940   -0.1470    1.6100 C   0  0  0  0  0  0  0  0  0  0  0  0
   -2.2840   -1.0070    2.6790 C   0  0  0  0  0  0  0  0  0  0  0  0
   -3.5600   -1.3410    2.9480 C   0  0  0  0  0  0  0  0  0  0  0  0
   -4.6720   -0.8800    2.2140 C   0  0  0  0  0  0  0  0  0  0  0  0
   -6.0220   -1.2880    2.5480 C   0  0  0  0  0  0  0  0  0  0  0  0
   -4.3900   -0.0340    1.1650 C   0  0  0  0  0  0  0  0  0  0  0  0
   -5.4230    0.4600    0.4040 C   0  0  0  0  0  0  0  0  0  0  0  0
   -6.8240    0.1320    0.6670 C   0  0  0  0  0  0  0  0  0  0  0  0
   -5.0930    1.3220   -0.6610 C   0  0  0  0  0  0  0  0  0  0  0  0
   -3.8020    1.6680   -0.9470 C   0  0  0  0  0  0  0  0  0  0  0  0
   -3.5470    2.5920   -2.0890 C   0  0  0  0  0  0  0  0  0  0  0  0
   -2.7990    1.1710   -0.1850 C   0  0  0  0  0  0  0  0  0  0  0  0
   -3.0410    0.3200    0.8790 C   0  0  0  0  0  0  0  0  0  0  0  0
  1  2  1  0
  2  3  1  0
  3  4  2  0
  3 21  1  0
  4  5  1  0
  5  6  2  0
  6  7  1  0
  6 18  1  0
  7  8  1  0
  8  9  1  0
  9 10  1  0
  9 13  2  0
 10 11  2  0
 11 12  1  0
 11 17  1  0
 12 13  1  0
 12 14  1  0
 14 15  2  0
 14 16  1  0
 16 17  1  0
 18 19  1  0
 18 21  2  0
 19 20  2  0
 21 22  1  0
 22 23  1  0
 23 24  2  0
 23 35  1  0
 24 25  1  0
 25 26  2  0
 26 27  1  0
 26 28  1  0
 28 29  2  0
 28 35  1  0
 29 30  1  0
 29 31  1  0
 31 32  2  0
 32 33  1  0
 32 34  1  0
 34 35  2  0
M  END
