
     RDKit          3D

 35 39  0  0  0  0  0  0  0  0999 V2000
   -2.3210    4.6690   -0.8410 C   0  0  0  0  0  0  0  0  0  0  0  0
   -1.5650    3.5970   -0.1210 C   0  0  0  0  0  0  0  0  0  0  0  0
   -2.0320    3.1220    1.0810 C   0  0  0  0  0  0  0  0  0  0  0  0
   -1.3510    2.1320    1.7660 C   0  0  0  0  0  0  0  0  0  0  0  0
   -0.1690    1.5830    1.2610 C   0  0  0  0  0  0  0  0  0  0  0  0
    0.5080    0.5680    1.9910 N   0  0  0  0  0  0  0  0  0  0  0  0
    1.6860    0.8250    2.7250 C   0  0  0  0  0  0  0  0  0  0  0  0
    2.9900    0.5850    2.1140 C   0  0  0  0  0  0  0  0  0  0  0  0
    4.0070    0.8700    2.8390 O   0  0  0  0  0  0  0  0  0  0  0  0
    3.2620    0.0750    0.8190 N   0  0  0  0  0  0  0  0  0  0  0  0
    4.5170   -0.1470    0.2280 C   0  0  0  0  0  0  0  0  0  0  0  0
    5.7050    0.2230    0.8060 C   0  0  0  0  0  0  0  0  0  0  0  0
    6.9530    0.0200    0.1820 C   0  0  0  0  0  0  0  0  0  0  0  0
    6.9930   -0.5660   -1.0470 C   0  0  0  0  0  0  0  0  0  0  0  0
    5.8010   -0.9420   -1.6360 C   0  0  0  0  0  0  0  0  0  0  0  0
    4.5740   -0.7510   -1.0380 C   0  0  0  0  0  0  0  0  0  0  0  0
    3.3800   -1.1710   -1.6280 N   0  0  0  0  0  0  0  0  0  0  0  0
    3.3010   -1.6480   -2.9540 C   0  0  0  0  0  0  0  0  0  0  0  0
    4.2490   -1.7510   -3.7460 O   0  0  0  0  0  0  0  0  0  0  0  0
   -0.1420   -0.7210    1.9880 C   0  0  0  0  0  0  0  0  0  0  0  0
    0.5180   -1.6500    2.5700 O   0  0  0  0  0  0  0  0  0  0  0  0
   -1.4310   -0.9680    1.3900 C   0  0  0  0  0  0  0  0  0  0  0  0
   -2.6930   -0.8570    1.9950 C   0  0  0  0  0  0  0  0  0  0  0  0
   -3.6080   -1.1860    1.0540 N   0  0  0  0  0  0  0  0  0  0  0  0
   -3.0110   -1.4930   -0.0890 C   0  0  0  0  0  0  0  0  0  0  0  0
   -3.6180   -1.8760   -1.2610 C   0  0  0  0  0  0  0  0  0  0  0  0
   -2.8420   -2.1690   -2.3800 C   0  0  0  0  0  0  0  0  0  0  0  0
   -1.4690   -2.0470   -2.2180 C   0  0  0  0  0  0  0  0  0  0  0  0
   -0.8810   -1.6580   -1.0260 C   0  0  0  0  0  0  0  0  0  0  0  0
   -1.6580   -1.3640    0.0970 C   0  0  0  0  0  0  0  0  0  0  0  0
   -5.0980   -1.9650   -1.2910 C   0  0  0  0  0  0  0  0  0  0  0  0
   -5.5690   -2.2480    0.1200 C   0  0  0  0  0  0  0  0  0  0  0  0
   -5.0520   -1.2490    1.1130 C   0  0  0  0  0  0  0  0  0  0  0  0
    0.2640    2.0750    0.0710 C   0  0  0  0  0  0  0  0  0  0  0  0
   -0.4160    3.0740   -0.6280 C   0  0  0  0  0  0  0  0  0  0  0  0
  1  2  1  0
  2  3  2  0
  2 35  1  0
  3  4  1  0
  4  5  2  0
  5  6  1  0
  5 34  1  0
  6  7  1  0
  6 20  1  0
  7  8  1  0
  8  9  2  0
  8 10  1  0
 10 11  1  0
 11 12  2  0
 11 16  1  0
 12 13  1  0
 13 14  2  0
 14 15  1  0
 15 16  2  0
 16 17  1  0
 17 18  1  0
 18 19  2  0
 20 21  2  0
 20 22  1  0
 22 23  2  0
 22 30  1  0
 23 24  1  0
 24 25  1  0
 24 33  1  0
 25 26  2  0
 25 30  1  0
 26 27  1  0
 26 31  1  0
 27 28  2  0
 28 29  1  0
 29 30  2  0
 31 32  1  0
 32 33  1  0
 34 35  2  0
M  END
