
     RDKit          3D

 35 39  0  0  0  0  0  0  0  0999 V2000
   -0.8910    2.0080    1.6390 C   0  0  0  0  0  0  0  0  0  0  0  0
   -0.8420    0.6510    1.0270 C   0  0  0  0  0  0  0  0  0  0  0  0
    0.2830    0.1070    0.4920 C   0  0  0  0  0  0  0  0  0  0  0  0
    1.6200    0.4060    0.2780 C   0  0  0  0  0  0  0  0  0  0  0  0
    1.9840    1.5430    0.6850 O   0  0  0  0  0  0  0  0  0  0  0  0
    2.4600   -0.4600   -0.3230 N   0  0  0  0  0  0  0  0  0  0  0  0
    3.8130   -0.1240   -0.5260 C   0  0  0  0  0  0  0  0  0  0  0  0
    4.3810   -0.3510   -1.7680 C   0  0  0  0  0  0  0  0  0  0  0  0
    5.6910   -0.0570   -2.0630 C   0  0  0  0  0  0  0  0  0  0  0  0
    6.4910    0.4910   -1.0800 C   0  0  0  0  0  0  0  0  0  0  0  0
    7.7530    0.8690   -1.0660 O   0  0  0  0  0  0  0  0  0  0  0  0
    8.0260    1.3260    0.1170 C   0  0  0  0  0  0  0  0  0  0  0  0
    9.1610    1.7660    0.4450 O   0  0  0  0  0  0  0  0  0  0  0  0
    6.9400    1.2540    0.9030 N   0  0  0  0  0  0  0  0  0  0  0  0
    5.9350    0.7220    0.1610 C   0  0  0  0  0  0  0  0  0  0  0  0
    4.6250    0.4230    0.4410 C   0  0  0  0  0  0  0  0  0  0  0  0
    2.0470   -1.6960   -0.7610 C   0  0  0  0  0  0  0  0  0  0  0  0
    2.7790   -2.5220   -1.3160 O   0  0  0  0  0  0  0  0  0  0  0  0
    0.6640   -2.0060   -0.5390 C   0  0  0  0  0  0  0  0  0  0  0  0
   -0.3260   -3.4420   -0.9120 S   0  0  0  0  0  0  0  0  0  0  0  0
   -1.8520   -2.6390   -0.1610 C   0  0  0  0  0  0  0  0  0  0  0  0
   -1.4220   -1.4220    0.2610 C   0  0  0  0  0  0  0  0  0  0  0  0
   -0.1090   -1.2130    0.0110 C   0  0  0  0  0  0  0  0  0  0  0  0
   -1.8950   -0.2680    0.8950 C   0  0  0  0  0  0  0  0  0  0  0  0
   -3.1310   -0.0740    1.3210 C   0  0  0  0  0  0  0  0  0  0  0  0
   -4.2620   -0.9740    1.2160 C   0  0  0  0  0  0  0  0  0  0  0  0
   -5.0070   -1.0620   -0.0500 C   0  0  0  0  0  0  0  0  0  0  0  0
   -5.6810    0.1450   -0.5620 C   0  0  0  0  0  0  0  0  0  0  0  0
   -7.0280    0.1250   -0.6820 C   0  0  0  0  0  0  0  0  0  0  0  0
   -7.6570    1.2020   -1.1420 F   0  0  0  0  0  0  0  0  0  0  0  0
   -7.9540   -1.2990   -0.2420 Cl  0  0  0  0  0  0  0  0  0  0  0  0
   -4.9970    1.3770   -0.9720 C   0  0  1  0  0  0  0  0  0  0  0  0
   -5.8470    2.1950   -1.7350 F   0  0  0  0  0  0  0  0  0  0  0  0
   -4.6650    2.2030    0.1120 F   0  0  0  0  0  0  0  0  0  0  0  0
   -3.9240    1.0730   -1.7560 F   0  0  0  0  0  0  0  0  0  0  0  0
  1  2  1  0
  2  3  2  0
  2 24  1  0
  3  4  1  0
  3 23  1  0
  4  5  2  0
  4  6  1  0
  6  7  1  0
  6 17  1  0
  7  8  2  0
  7 16  1  0
  8  9  1  0
  9 10  2  0
 10 11  1  0
 10 15  1  0
 11 12  1  0
 12 13  2  0
 12 14  1  0
 14 15  1  0
 15 16  2  0
 17 18  2  0
 17 19  1  0
 19 20  1  0
 19 23  2  0
 20 21  1  0
 21 22  2  0
 22 23  1  0
 22 24  1  0
 24 25  2  3
 25 26  1  0
 26 27  1  0
 27 28  1  0
 28 29  2  3
 28 32  1  0
 29 30  1  0
 29 31  1  0
 32 33  1  6
 32 34  1  0
 32 35  1  0
M  END
