
     RDKit          3D

 35 39  0  0  0  0  0  0  0  0999 V2000
   -2.1150   -6.8930   -0.4510 C   0  0  0  0  0  0  0  0  0  0  0  0
   -3.2500   -5.9330   -0.7840 C   0  0  0  0  0  0  0  0  0  0  0  0
   -2.7750   -4.5600   -0.4080 C   0  0  0  0  0  0  0  0  0  0  0  0
   -2.0920   -3.8050   -1.3430 C   0  0  0  0  0  0  0  0  0  0  0  0
   -1.6210   -2.5330   -1.0100 C   0  0  0  0  0  0  0  0  0  0  0  0
   -1.8280   -2.0200    0.2420 C   0  0  0  0  0  0  0  0  0  0  0  0
   -1.3120   -0.7540    0.5840 N   0  0  0  0  0  0  0  0  0  0  0  0
    0.0720   -0.5950    1.0100 C   0  0  0  0  0  0  0  0  0  0  0  0
    0.9300   -0.2530   -0.1760 C   0  0  0  0  0  0  0  0  0  0  0  0
    2.3380   -0.1410    0.3230 C   0  0  0  0  0  0  0  0  0  0  0  0
    2.5890   -0.5590    1.4750 O   0  0  0  0  0  0  0  0  0  0  0  0
    3.3730    0.4110   -0.4500 N   0  0  0  0  0  0  0  0  0  0  0  0
    4.7420    0.5110   -0.0970 C   0  0  0  0  0  0  0  0  0  0  0  0
    5.3110   -0.0190    1.0120 C   0  0  0  0  0  0  0  0  0  0  0  0
    6.6600    0.1900    1.2530 C   0  0  0  0  0  0  0  0  0  0  0  0
    7.4440    0.9220    0.3980 C   0  0  0  0  0  0  0  0  0  0  0  0
    6.8430    1.4450   -0.7100 C   0  0  0  0  0  0  0  0  0  0  0  0
    5.5420    1.2420   -0.9420 N   0  0  0  0  0  0  0  0  0  0  0  0
    7.7880    2.2400   -1.5410 C   0  0  0  0  0  0  0  0  0  0  0  0
    8.9900    2.3670   -0.6420 C   0  0  0  0  0  0  0  0  0  0  0  0
    8.8620    1.2850    0.3980 C   0  0  0  0  0  0  0  0  0  0  0  0
   -2.1220    0.4290    0.5710 C   0  0  0  0  0  0  0  0  0  0  0  0
   -1.6220    1.5350    0.8570 O   0  0  0  0  0  0  0  0  0  0  0  0
   -3.4840    0.2940    0.2260 N   0  0  0  0  0  0  0  0  0  0  0  0
   -4.3560    1.3810    0.1690 C   0  0  0  0  0  0  0  0  0  0  0  0
   -5.7210    1.1410    0.3040 C   0  0  0  0  0  0  0  0  0  0  0  0
   -6.6610    2.1430    0.2380 C   0  0  0  0  0  0  0  0  0  0  0  0
   -6.2390    3.4470    0.0290 C   0  0  0  0  0  0  0  0  0  0  0  0
   -4.9120    3.7030   -0.1060 C   0  0  0  0  0  0  0  0  0  0  0  0
   -3.9770    2.6650   -0.0340 C   0  0  0  0  0  0  0  0  0  0  0  0
   -4.7240    5.1610   -0.3210 C   0  0  0  0  0  0  0  0  0  0  0  0
   -6.0850    5.7170    0.0400 C   0  0  0  0  0  0  0  0  0  0  0  0
   -6.9870    4.6290   -0.0760 O   0  0  0  0  0  0  0  0  0  0  0  0
   -2.5170   -2.7850    1.1780 C   0  0  0  0  0  0  0  0  0  0  0  0
   -2.9830   -4.0510    0.8360 C   0  0  0  0  0  0  0  0  0  0  0  0
  1  2  1  0
  2  3  1  0
  3  4  2  0
  3 35  1  0
  4  5  1  0
  5  6  2  0
  6  7  1  0
  6 34  1  0
  7  8  1  0
  7 22  1  0
  8  9  1  0
  9 10  1  0
 10 11  2  0
 10 12  1  0
 12 13  1  0
 13 14  2  0
 13 18  1  0
 14 15  1  0
 15 16  2  0
 16 17  1  0
 16 21  1  0
 17 18  2  0
 17 19  1  0
 19 20  1  0
 20 21  1  0
 22 23  2  0
 22 24  1  0
 24 25  1  0
 25 26  2  0
 25 30  1  0
 26 27  1  0
 27 28  2  0
 28 29  1  0
 28 33  1  0
 29 30  2  0
 29 31  1  0
 31 32  1  0
 32 33  1  0
 34 35  2  0
M  END
