
     RDKit          3D

 35 38  0  0  0  0  0  0  0  0999 V2000
    7.2680    2.1230   -0.5870 O   0  0  0  0  0  0  0  0  0  0  0  0
    6.9060    1.2880    0.3160 C   0  0  0  0  0  0  0  0  0  0  0  0
    7.5810    1.4040    1.6200 C   0  0  0  0  0  0  0  0  0  0  0  0
    7.1690    0.5130    2.5760 O   0  0  0  0  0  0  0  0  0  0  0  0
    5.9180    0.3640   -0.0240 N   0  0  0  0  0  0  0  0  0  0  0  0
    5.4420   -0.6290    0.9220 C   0  0  0  0  0  0  0  0  0  0  0  0
    4.5550   -1.6270    0.1930 C   0  0  0  0  0  0  0  0  0  0  0  0
    3.4030   -0.8370   -0.3200 N   0  0  0  0  0  0  0  0  0  0  0  0
    2.1460   -1.2570    0.0930 C   0  0  0  0  0  0  0  0  0  0  0  0
    2.1690   -2.2990    0.8950 O   0  0  0  0  0  0  0  0  0  0  0  0
    0.8140   -0.7740   -0.1860 C   0  0  0  0  0  0  0  0  0  0  0  0
    0.5550    0.2790   -1.0230 C   0  0  0  0  0  0  0  0  0  0  0  0
   -0.7400    0.7390   -1.2740 C   0  0  0  0  0  0  0  0  0  0  0  0
   -1.7890    0.1070   -0.6560 C   0  0  0  0  0  0  0  0  0  0  0  0
   -1.5530   -0.9600    0.1950 C   0  0  0  0  0  0  0  0  0  0  0  0
   -0.2890   -1.3950    0.4290 C   0  0  0  0  0  0  0  0  0  0  0  0
   -2.6520   -1.6770    0.8890 C   0  0  0  0  0  0  0  0  0  0  0  0
   -3.9060   -1.1690    0.5940 O   0  0  0  0  0  0  0  0  0  0  0  0
   -4.2280   -0.1360   -0.2200 C   0  0  0  0  0  0  0  0  0  0  0  0
   -5.5480    0.2070   -0.3730 C   0  0  0  0  0  0  0  0  0  0  0  0
   -6.6790   -0.4470    0.2770 C   0  0  0  0  0  0  0  0  0  0  0  0
   -6.5650   -1.4330    1.0980 C   0  0  0  0  0  0  0  0  0  0  0  0
   -8.0020   -2.1800    1.8530 S   0  0  0  0  0  0  0  0  0  0  0  0
   -8.0820    0.0410   -0.0170 C   0  0  2  0  0  0  0  0  0  0  0  0
   -9.0120   -0.6500    0.7110 F   0  0  0  0  0  0  0  0  0  0  0  0
   -8.3620    0.0040   -1.3690 F   0  0  0  0  0  0  0  0  0  0  0  0
   -8.1330    1.3560    0.3990 F   0  0  0  0  0  0  0  0  0  0  0  0
   -5.7940    1.2850   -1.2330 C   0  0  0  0  0  0  0  0  0  0  0  0
   -4.7900    1.9550   -1.8790 C   0  0  0  0  0  0  0  0  0  0  0  0
   -5.1630    3.3050   -2.9490 Cl  0  0  0  0  0  0  0  0  0  0  0  0
   -3.4520    1.5750   -1.6970 C   0  0  0  0  0  0  0  0  0  0  0  0
   -2.4960    2.2550   -2.3470 F   0  0  0  0  0  0  0  0  0  0  0  0
   -3.1690    0.5300   -0.8680 C   0  0  0  0  0  0  0  0  0  0  0  0
    3.7640    0.2590   -1.1730 C   0  0  0  0  0  0  0  0  0  0  0  0
    5.3050    0.3460   -1.3440 C   0  0  0  0  0  0  0  0  0  0  0  0
  1  2  2  0
  2  3  1  0
  2  5  1  0
  3  4  1  0
  5  6  1  0
  5 35  1  0
  6  7  1  0
  7  8  1  0
  8  9  1  0
  8 34  1  0
  9 10  2  0
  9 11  1  0
 11 12  2  0
 11 16  1  0
 12 13  1  0
 13 14  2  0
 14 15  1  0
 14 33  1  0
 15 16  2  0
 15 17  1  0
 17 18  1  0
 18 19  1  0
 19 20  2  0
 19 33  1  0
 20 21  1  0
 20 28  1  0
 21 22  2  3
 21 24  1  0
 22 23  1  0
 24 25  1  1
 24 26  1  0
 24 27  1  0
 28 29  2  0
 29 30  1  0
 29 31  1  0
 31 32  1  0
 31 33  2  0
 34 35  1  0
M  END
