
     RDKit          3D

 38 41  0  0  0  0  0  0  0  0999 V2000
   -7.4310    1.5520   -3.2120 C   0  0  0  0  0  0  0  0  0  0  0  0
   -7.6240    1.7960   -1.8430 O   0  0  0  0  0  0  0  0  0  0  0  0
   -6.6400    1.6930   -0.8900 C   0  0  0  0  0  0  0  0  0  0  0  0
   -5.3590    1.3400   -1.1700 C   0  0  0  0  0  0  0  0  0  0  0  0
   -4.3930    1.2470   -0.1720 C   0  0  0  0  0  0  0  0  0  0  0  0
   -4.6710    1.5040    1.1520 C   0  0  0  0  0  0  0  0  0  0  0  0
   -3.8010    1.4320    2.1640 O   0  0  0  0  0  0  0  0  0  0  0  0
   -2.5120    1.1170    2.4250 C   0  0  0  0  0  0  0  0  0  0  0  0
   -2.0600   -0.2950    2.2050 C   0  0  1  0  0  0  0  0  0  0  0  0
   -2.8020   -1.2540    3.1320 C   0  0  0  0  0  0  0  0  0  0  0  0
   -2.8000   -2.5510    2.5490 N   0  0  0  0  0  0  0  0  0  0  0  0
   -1.5700   -2.9130    1.8660 C   0  0  0  0  0  0  0  0  0  0  0  0
   -1.2930   -1.8880    0.7920 C   0  0  1  0  0  0  0  0  0  0  0  0
   -1.4680   -2.5530   -0.5500 C   0  0  2  0  0  0  0  0  0  0  0  0
   -0.5850   -3.6160   -0.5940 O   0  0  0  0  0  0  0  0  0  0  0  0
   -1.2320   -1.6350   -1.6960 C   0  0  0  0  0  0  0  0  0  0  0  0
    0.0660   -1.0270   -1.7770 N   0  0  0  0  0  0  0  0  0  0  0  0
    1.3010   -1.6870   -1.9400 C   0  0  0  0  0  0  0  0  0  0  0  0
    1.3440   -2.9190   -2.0450 O   0  0  0  0  0  0  0  0  0  0  0  0
    2.5480   -0.9940   -1.9930 N   0  0  0  0  0  0  0  0  0  0  0  0
    3.7790   -1.7410   -2.1660 C   0  0  0  0  0  0  0  0  0  0  0  0
    4.9540   -0.8320   -2.1890 C   0  0  0  0  0  0  0  0  0  0  0  0
    5.4160   -0.1380   -3.2840 C   0  0  0  0  0  0  0  0  0  0  0  0
    6.5190    0.5810   -2.8800 C   0  0  0  0  0  0  0  0  0  0  0  0
    6.6880    0.2950   -1.5460 C   0  0  0  0  0  0  0  0  0  0  0  0
    7.7380    0.8250   -0.6670 C   0  0  0  0  0  0  0  0  0  0  0  0
    7.7910    0.4460    0.6580 C   0  0  0  0  0  0  0  0  0  0  0  0
    8.7740    0.9360    1.4940 C   0  0  0  0  0  0  0  0  0  0  0  0
    9.7010    1.8040    0.9990 C   0  0  0  0  0  0  0  0  0  0  0  0
   10.9670    2.4210    2.1100 S   0  0  0  0  0  0  0  0  0  0  0  0
    9.6800    2.2010   -0.3110 C   0  0  0  0  0  0  0  0  0  0  0  0
    8.6860    1.6960   -1.1250 C   0  0  0  0  0  0  0  0  0  0  0  0
    5.7470   -0.5350   -1.1950 O   0  0  0  0  0  0  0  0  0  0  0  0
   -2.1640   -0.7850    0.9300 O   0  0  0  0  0  0  0  0  0  0  0  0
   -6.0130    1.8700    1.4160 C   0  0  0  0  0  0  0  0  0  0  0  0
   -6.3070    2.1340    2.7530 O   0  0  0  0  0  0  0  0  0  0  0  0
   -7.6050    2.5120    3.1710 C   0  0  0  0  0  0  0  0  0  0  0  0
   -6.9550    1.9590    0.4240 C   0  0  0  0  0  0  0  0  0  0  0  0
  1  2  1  0
  2  3  1  0
  3  4  2  0
  3 38  1  0
  4  5  1  0
  5  6  2  0
  6  7  1  0
  6 35  1  0
  7  8  1  0
  9  8  1  6
  9 10  1  0
  9 34  1  0
 10 11  1  0
 11 12  1  0
 13 12  1  1
 13 14  1  0
 13 34  1  0
 14 15  1  6
 14 16  1  0
 16 17  1  0
 17 18  1  0
 18 19  2  0
 18 20  1  0
 20 21  1  0
 21 22  1  0
 22 23  2  0
 22 33  1  0
 23 24  1  0
 24 25  2  0
 25 26  1  0
 25 33  1  0
 26 27  2  0
 26 32  1  0
 27 28  1  0
 28 29  2  0
 29 30  1  0
 29 31  1  0
 31 32  2  0
 35 36  1  0
 35 38  2  0
 36 37  1  0
M  END
