
     RDKit          3D

 38 44  0  0  0  0  0  0  0  0999 V2000
   -4.3120   -0.2550    2.2120 N   0  0  0  0  0  0  0  0  0  0  0  0
   -3.1050   -0.2720    1.4020 C   0  0  0  0  0  0  0  0  0  0  0  0
   -2.0900    0.4020    1.7990 N   0  0  0  0  0  0  0  0  0  0  0  0
   -0.8040    0.5230    1.1430 C   0  0  2  0  0  0  0  0  0  0  0  0
   -0.7680    1.9460    0.6360 C   0  0  0  0  0  0  0  0  0  0  0  0
    0.1990    2.7950    1.0890 C   0  0  0  0  0  0  0  0  0  0  0  0
    0.2840    4.1190    0.6600 C   0  0  0  0  0  0  0  0  0  0  0  0
   -0.6240    4.6030   -0.2440 C   0  0  0  0  0  0  0  0  0  0  0  0
   -0.5640    5.9100   -0.6850 F   0  0  0  0  0  0  0  0  0  0  0  0
   -1.6050    3.7600   -0.7090 C   0  0  0  0  0  0  0  0  0  0  0  0
   -1.6760    2.4380   -0.2710 C   0  0  0  0  0  0  0  0  0  0  0  0
   -0.6610   -0.4680    0.0550 C   0  0  0  0  0  0  0  0  0  0  0  0
    0.5240   -0.6940   -0.5700 C   0  0  0  0  0  0  0  0  0  0  0  0
    1.7870   -0.0650   -0.2900 N   0  0  0  0  0  0  0  0  0  0  0  0
    2.1340    1.0690   -1.0550 C   0  0  0  0  0  0  0  0  0  0  0  0
    3.2300    1.8940   -0.4530 C   0  0  0  0  0  0  0  0  0  0  0  0
    4.2800    0.8930   -0.0240 C   0  0  0  0  0  0  0  0  0  0  0  0
    5.4680    0.6020   -0.3320 N   0  0  0  0  0  0  0  0  0  0  0  0
    6.0000   -0.4870    0.4270 C   0  0  0  0  0  0  0  0  0  0  0  0
    7.3190   -1.0760    0.3330 C   0  0  0  0  0  0  0  0  0  0  0  0
    8.3170   -0.7440   -0.4670 C   0  0  0  0  0  0  0  0  0  0  0  0
    9.4620   -1.6200   -0.2060 C   0  0  0  0  0  0  0  0  0  0  0  0
    9.0520   -2.4270    0.7290 C   0  0  0  0  0  0  0  0  0  0  0  0
    7.8110   -2.1850    1.1280 C   0  0  0  0  0  0  0  0  0  0  0  0
    5.0340   -0.8780    1.2650 C   0  0  0  0  0  0  0  0  0  0  0  0
    3.8580   -0.0440    1.0680 C   0  0  2  0  0  0  0  0  0  0  0  0
    2.5770   -0.6980    0.7090 C   0  0  0  0  0  0  0  0  0  0  0  0
    0.5660   -1.6110   -1.5840 N   0  0  0  0  0  0  0  0  0  0  0  0
   -0.5200   -2.2890   -1.9770 C   0  0  0  0  0  0  0  0  0  0  0  0
   -1.7020   -2.0880   -1.3770 N   0  0  0  0  0  0  0  0  0  0  0  0
   -1.7550   -1.1860   -0.3730 C   0  0  0  0  0  0  0  0  0  0  0  0
   -3.0550   -1.1240    0.2860 N   0  0  0  0  0  0  0  0  0  0  0  0
   -4.1720   -1.8420   -0.2760 C   0  0  0  0  0  0  0  0  0  0  0  0
   -5.1380   -1.1090   -1.1040 C   0  0  2  0  0  0  0  0  0  0  0  0
   -6.0490   -0.1520   -0.4120 C   0  0  0  0  0  0  0  0  0  0  0  0
   -6.9790   -1.0600    0.3520 C   0  0  0  0  0  0  0  0  0  0  0  0
   -6.8860   -2.3250   -0.4780 C   0  0  0  0  0  0  0  0  0  0  0  0
   -6.0920   -2.0680   -1.5590 O   0  0  0  0  0  0  0  0  0  0  0  0
  1  2  1  0
  2  3  2  0
  2 32  1  0
  3  4  1  0
  4  5  1  6
  4 12  1  0
  5  6  2  0
  5 11  1  0
  6  7  1  0
  7  8  2  0
  8  9  1  0
  8 10  1  0
 10 11  2  0
 12 13  2  0
 12 31  1  0
 13 14  1  0
 13 28  1  0
 14 15  1  0
 14 27  1  0
 15 16  1  0
 16 17  1  0
 17 18  2  0
 17 26  1  0
 18 19  1  0
 19 20  1  0
 19 25  2  0
 20 21  2  0
 20 24  1  0
 21 22  1  0
 22 23  2  0
 23 24  2  0
 25 26  1  0
 26 27  1  6
 28 29  2  0
 29 30  1  0
 30 31  2  0
 31 32  1  0
 32 33  1  0
 34 33  1  1
 34 35  1  0
 34 38  1  0
 35 36  1  0
 36 37  1  0
 37 38  1  0
M  CHG  1   3   1
M  END
