
     RDKit          3D

 38 44  0  0  0  0  0  0  0  0999 V2000
   -4.4450    3.2030    1.1420 N   0  0  0  0  0  0  0  0  0  0  0  0
   -3.4660    2.1160    1.3190 C   0  0  1  0  0  0  0  0  0  0  0  0
   -4.0850    0.9640    1.9600 C   0  0  0  0  0  0  0  0  0  0  0  0
   -4.0360   -0.2570    1.4130 C   0  0  0  0  0  0  0  0  0  0  0  0
   -3.3790   -0.4890    0.1840 N   0  0  0  0  0  0  0  0  0  0  0  0
   -3.3710   -1.7670   -0.3820 C   0  0  0  0  0  0  0  0  0  0  0  0
   -4.3420   -2.1350   -1.2400 N   0  0  0  0  0  0  0  0  0  0  0  0
   -4.3820   -3.3350   -1.8100 C   0  0  0  0  0  0  0  0  0  0  0  0
   -3.4380   -4.2450   -1.5500 N   0  0  0  0  0  0  0  0  0  0  0  0
   -2.4430   -3.9390   -0.7030 C   0  0  0  0  0  0  0  0  0  0  0  0
   -2.3810   -2.6680   -0.0840 C   0  0  0  0  0  0  0  0  0  0  0  0
   -1.2480   -2.6350    0.7520 N   0  0  0  0  0  0  0  0  0  0  0  0
   -0.4940   -1.5310    1.1820 C   0  0  0  0  0  0  0  0  0  0  0  0
    0.8880   -1.6400    0.9200 C   0  0  0  0  0  0  0  0  0  0  0  0
    1.8170   -0.6910    1.2910 C   0  0  0  0  0  0  0  0  0  0  0  0
    3.2430   -0.9420    0.9300 C   0  0  0  0  0  0  0  0  0  0  0  0
    3.7280   -0.2260   -0.1920 N   0  0  0  0  0  0  0  0  0  0  0  0
    3.5490   -0.7550   -1.4210 C   0  0  0  0  0  0  0  0  0  0  0  0
    2.9510   -1.8770   -1.5460 O   0  0  0  0  0  0  0  0  0  0  0  0
    3.9640   -0.1840   -2.5950 C   0  0  0  0  0  0  0  0  0  0  0  0
    4.6120    1.0170   -2.5240 C   0  0  0  0  0  0  0  0  0  0  0  0
    4.8140    1.5860   -1.2850 C   0  0  0  0  0  0  0  0  0  0  0  0
    5.4850    2.7980   -1.2120 C   0  0  0  0  0  0  0  0  0  0  0  0
    5.6990    3.3580    0.0210 C   0  0  0  0  0  0  0  0  0  0  0  0
    5.2710    2.7560    1.1770 C   0  0  0  0  0  0  0  0  0  0  0  0
    4.6030    1.5490    1.1080 C   0  0  0  0  0  0  0  0  0  0  0  0
    4.3660    0.9540   -0.1130 C   0  0  0  0  0  0  0  0  0  0  0  0
    1.3480    0.4030    1.9460 C   0  0  0  0  0  0  0  0  0  0  0  0
   -0.0260    0.4910    2.1970 C   0  0  0  0  0  0  0  0  0  0  0  0
   -0.8790   -0.4550    1.8160 N   0  0  0  0  0  0  0  0  0  0  0  0
   -1.0000   -4.0500    1.1230 C   0  0  0  0  0  0  0  0  0  0  0  0
   -1.2580   -4.6920   -0.2150 C   0  0  0  0  0  0  0  0  0  0  0  0
   -2.7630    0.6060   -0.4740 C   0  0  0  0  0  0  0  0  0  0  0  0
   -2.7980    1.8350    0.0510 C   0  0  0  0  0  0  0  0  0  0  0  0
   -2.0750    2.7990   -0.8430 C   0  0  1  0  0  0  0  0  0  0  0  0
   -0.7780    2.9150   -0.4060 F   0  0  0  0  0  0  0  0  0  0  0  0
   -2.1100    2.0990   -2.1840 C   0  0  0  0  0  0  0  0  0  0  0  0
   -2.0110    0.6510   -1.7600 C   0  0  0  0  0  0  0  0  0  0  0  0
  2  1  1  6
  2  3  1  0
  2 34  1  0
  3  4  2  0
  4  5  1  0
  5  6  1  0
  5 33  1  0
  6  7  2  0
  6 11  1  0
  7  8  1  0
  8  9  2  0
  9 10  1  0
 10 11  2  0
 10 32  1  0
 11 12  1  0
 12 13  1  0
 12 31  1  0
 13 14  2  0
 13 30  1  0
 14 15  1  0
 15 16  1  0
 15 28  2  0
 16 17  1  0
 17 18  1  0
 17 27  1  0
 18 19  2  0
 18 20  1  0
 20 21  2  0
 21 22  1  0
 22 23  2  0
 22 27  1  0
 23 24  1  0
 24 25  2  0
 25 26  1  0
 26 27  2  0
 28 29  1  0
 29 30  2  0
 31 32  1  0
 33 34  2  0
 33 38  1  0
 34 35  1  0
 35 36  1  1
 35 37  1  0
 37 38  1  0
M  END
