
     RDKit          3D

 38 41  0  0  0  0  0  0  0  0999 V2000
    5.3580    5.7230    0.6750 C   0  0  0  0  0  0  0  0  0  0  0  0
    5.0450    6.5800   -0.5330 C   0  0  0  0  0  0  0  0  0  0  0  0
    4.4780    5.5370   -1.9220 S   0  0  0  0  0  0  0  0  0  0  0  0
    2.9090    4.8280   -1.4270 C   0  0  0  0  0  0  0  0  0  0  0  0
    2.8340    3.6540   -0.7820 N   0  0  0  0  0  0  0  0  0  0  0  0
    1.6690    3.1040   -0.4020 C   0  0  0  0  0  0  0  0  0  0  0  0
    1.2970    1.9490    0.2540 C   0  0  0  0  0  0  0  0  0  0  0  0
    2.2270    0.9340    0.7430 C   0  0  0  0  0  0  0  0  0  0  0  0
    1.7680   -0.0800    1.3260 O   0  0  0  0  0  0  0  0  0  0  0  0
    3.5920    1.0380    0.5950 O   0  0  0  0  0  0  0  0  0  0  0  0
    4.4490    0.0550    1.0700 C   0  0  0  0  0  0  0  0  0  0  0  0
    4.2710   -1.3090    0.4780 C   0  0  1  0  0  0  0  0  0  0  0  0
    4.4940   -1.2310   -1.0220 C   0  0  0  0  0  0  0  0  0  0  0  0
    4.1580   -2.5790   -1.6240 C   0  0  0  0  0  0  0  0  0  0  0  0
    4.8100   -3.7190   -0.8750 C   0  0  0  0  0  0  0  0  0  0  0  0
    5.9280   -3.1050   -0.0400 C   0  0  2  0  0  0  0  0  0  0  0  0
    6.7980   -4.1870    0.5670 C   0  0  0  0  0  0  0  0  0  0  0  0
    5.2740   -2.2960    1.0410 C   0  0  0  0  0  0  0  0  0  0  0  0
    0.0100    1.9460    0.3430 O   0  0  0  0  0  0  0  0  0  0  0  0
   -0.5340    2.9970   -0.1920 C   0  0  0  0  0  0  0  0  0  0  0  0
   -1.9610    3.3290   -0.2720 C   0  0  0  0  0  0  0  0  0  0  0  0
   -2.7390    2.3480    0.2900 O   0  0  0  0  0  0  0  0  0  0  0  0
   -2.7070    1.1270   -0.3430 C   0  0  0  0  0  0  0  0  0  0  0  0
   -3.6210    0.2020    0.4160 C   0  0  0  0  0  0  0  0  0  0  0  0
   -4.2170    0.6510    1.4200 O   0  0  0  0  0  0  0  0  0  0  0  0
   -3.8340   -1.1080    0.0620 O   0  0  0  0  0  0  0  0  0  0  0  0
   -4.6930   -1.9820    0.7730 C   0  0  2  0  0  0  0  0  0  0  0  0
   -3.8230   -3.0990    1.3140 C   0  0  0  0  0  0  0  0  0  0  0  0
   -5.8020   -2.5380   -0.0970 C   0  0  2  0  0  0  0  0  0  0  0  0
   -6.6140   -1.3730   -0.6190 C   0  0  0  0  0  0  0  0  0  0  0  0
   -7.8070   -1.0610    0.2450 C   0  0  0  0  0  0  0  0  0  0  0  0
   -8.7570   -2.1430    0.2810 N   0  0  0  0  0  0  0  0  0  0  0  0
   -8.0750   -3.4270    0.2410 C   0  0  0  0  0  0  0  0  0  0  0  0
   -6.7050   -3.3370    0.8340 C   0  0  0  0  0  0  0  0  0  0  0  0
    0.5180    3.7710   -0.6860 C   0  0  0  0  0  0  0  0  0  0  0  0
    0.5550    4.9680   -1.3420 C   0  0  0  0  0  0  0  0  0  0  0  0
   -0.5170    5.5910   -1.6080 O   0  0  0  0  0  0  0  0  0  0  0  0
    1.7660    5.4820   -1.7060 N   0  0  0  0  0  0  0  0  0  0  0  0
  1  2  1  0
  2  3  1  0
  3  4  1  0
  4  5  2  0
  4 38  1  0
  5  6  1  0
  6  7  2  0
  6 35  1  0
  7  8  1  0
  7 19  1  0
  8  9  2  0
  8 10  1  0
 10 11  1  0
 12 11  1  1
 12 13  1  0
 12 18  1  0
 13 14  1  0
 14 15  1  0
 15 16  1  0
 16 17  1  1
 16 18  1  0
 19 20  1  0
 20 21  1  0
 20 35  2  0
 21 22  1  0
 22 23  1  0
 23 24  1  0
 24 25  2  0
 24 26  1  0
 26 27  1  0
 27 28  1  6
 27 29  1  0
 29 30  1  1
 29 34  1  0
 30 31  1  0
 31 32  1  0
 32 33  1  0
 33 34  1  0
 35 36  1  0
 36 37  2  0
 36 38  1  0
M  CHG  1  32   1
M  END
