
     RDKit          3D

 38 44  0  0  0  0  0  0  0  0999 V2000
   -6.3890   -3.8450    1.7560 C   0  0  0  0  0  0  0  0  0  0  0  0
   -5.6620   -2.5890    2.2830 C   0  0  1  0  0  0  0  0  0  0  0  0
   -4.2070   -2.7540    2.1500 C   0  0  0  0  0  0  0  0  0  0  0  0
   -3.5220   -1.7800    1.2990 C   0  0  0  0  0  0  0  0  0  0  0  0
   -2.1740   -1.8920    1.0350 N   0  0  0  0  0  0  0  0  0  0  0  0
   -1.5410   -0.9910    0.2890 C   0  0  0  0  0  0  0  0  0  0  0  0
   -0.1730   -1.0450    0.0070 N   0  0  0  0  0  0  0  0  0  0  0  0
    0.3000   -1.0180   -1.3670 C   0  0  0  0  0  0  0  0  0  0  0  0
    1.5560   -1.9310   -1.3250 C   0  0  0  0  0  0  0  0  0  0  0  0
    2.5490   -1.1790   -0.6020 N   0  0  0  0  0  0  0  0  0  0  0  0
    3.8970   -1.0440   -1.0490 C   0  0  0  0  0  0  0  0  0  0  0  0
    4.7010   -0.1460   -0.3340 C   0  0  0  0  0  0  0  0  0  0  0  0
    6.0090    0.0390   -0.6900 C   0  0  0  0  0  0  0  0  0  0  0  0
    6.9030    0.9710   -0.0070 C   0  0  0  0  0  0  0  0  0  0  0  0
    7.9280    1.6020   -0.7160 C   0  0  0  0  0  0  0  0  0  0  0  0
    8.7870    2.4920   -0.1350 C   0  0  0  0  0  0  0  0  0  0  0  0
    8.6630    2.7970    1.1930 C   0  0  0  0  0  0  0  0  0  0  0  0
    9.5130    3.6790    1.7590 F   0  0  0  0  0  0  0  0  0  0  0  0
    7.6420    2.1750    1.9190 C   0  0  0  0  0  0  0  0  0  0  0  0
    6.7810    1.2750    1.3130 C   0  0  0  0  0  0  0  0  0  0  0  0
    6.4670   -0.6970   -1.7650 C   0  0  0  0  0  0  0  0  0  0  0  0
    5.6510   -1.5740   -2.4480 C   0  0  0  0  0  0  0  0  0  0  0  0
    4.3790   -1.7400   -2.0860 N   0  0  0  0  0  0  0  0  0  0  0  0
    2.1260   -0.5570    0.6420 C   0  0  0  0  0  0  0  0  0  0  0  0
    0.7830   -1.1000    1.1080 C   0  0  0  0  0  0  0  0  0  0  0  0
   -2.2100    0.0790   -0.2430 N   0  0  0  0  0  0  0  0  0  0  0  0
   -3.5260    0.2320   -0.0150 C   0  0  0  0  0  0  0  0  0  0  0  0
   -4.1590   -0.7000    0.7500 C   0  0  0  0  0  0  0  0  0  0  0  0
   -5.5840   -0.5720    0.9920 C   0  0  0  0  0  0  0  0  0  0  0  0
   -6.2200   -1.4340    1.6820 N   0  0  0  0  0  0  0  0  0  0  0  0
   -6.2240    0.5650    0.3980 N   0  0  0  0  0  0  0  0  0  0  0  0
   -5.5490    1.5380   -0.3940 C   0  0  0  0  0  0  0  0  0  0  0  0
   -4.2530    1.3800   -0.5960 C   0  0  0  0  0  0  0  0  0  0  0  0
   -3.5550    2.3750   -1.3940 C   0  0  0  0  0  0  0  0  0  0  0  0
   -2.5600    1.9880   -2.0690 O   0  0  0  0  0  0  0  0  0  0  0  0
   -4.0630    3.7640   -1.3540 C   0  0  0  0  0  0  0  0  0  0  0  0
   -5.5330    3.7730   -1.5400 C   0  0  0  0  0  0  0  0  0  0  0  0
   -6.3170    2.6750   -0.9570 C   0  0  0  0  0  0  0  0  0  0  0  0
  2  1  1  6
  2  3  1  0
  2 30  1  0
  3  4  1  0
  4  5  2  0
  4 28  1  0
  5  6  1  0
  6  7  1  0
  6 26  2  0
  7  8  1  0
  7 25  1  0
  8  9  1  0
  9 10  1  0
 10 11  1  0
 10 24  1  0
 11 12  2  0
 11 23  1  0
 12 13  1  0
 13 14  1  0
 13 21  2  0
 14 15  2  0
 14 20  1  0
 15 16  1  0
 16 17  2  0
 17 18  1  0
 17 19  1  0
 19 20  2  0
 21 22  1  0
 22 23  2  0
 24 25  1  0
 26 27  1  0
 27 28  2  0
 27 33  1  0
 28 29  1  0
 29 30  2  0
 29 31  1  0
 31 32  1  0
 32 33  2  0
 32 38  1  0
 33 34  1  0
 34 35  2  0
 34 36  1  0
 36 37  1  0
 37 38  1  0
M  CHG  1  23   1
M  END
