
     RDKit          3D

 38 44  0  0  0  0  0  0  0  0999 V2000
   -3.7500    1.5810   -2.2530 C   0  0  0  0  0  0  0  0  0  0  0  0
   -4.5330    0.9880   -1.1310 C   0  0  2  0  0  0  0  0  0  0  0  0
   -5.6190    2.0190   -0.7950 C   0  0  0  0  0  0  0  0  0  0  0  0
   -5.4150    2.7140    0.5000 C   0  0  0  0  0  0  0  0  0  0  0  0
   -4.0060    3.0330    0.8840 C   0  0  0  0  0  0  0  0  0  0  0  0
   -3.0030    1.9500    0.5030 C   0  0  0  0  0  0  0  0  0  0  0  0
   -3.7760    0.7340    0.1370 C   0  0  2  0  0  0  0  0  0  0  0  0
   -3.1050   -0.5310    0.2110 N   0  0  0  0  0  0  0  0  0  0  0  0
   -1.8830   -0.7810   -0.1840 C   0  0  0  0  0  0  0  0  0  0  0  0
   -1.3180   -2.0650   -0.0730 C   0  0  0  0  0  0  0  0  0  0  0  0
   -1.9600   -3.1010    0.4480 N   0  0  0  0  0  0  0  0  0  0  0  0
   -1.6030   -4.3490    0.7410 C   0  0  0  0  0  0  0  0  0  0  0  0
   -2.7020   -4.9320    1.3660 C   0  0  0  0  0  0  0  0  0  0  0  0
   -3.7060   -4.0020    1.4370 C   0  0  0  0  0  0  0  0  0  0  0  0
   -3.2420   -2.8400    0.8620 C   0  0  0  0  0  0  0  0  0  0  0  0
   -3.7940   -1.5670    0.7370 C   0  0  0  0  0  0  0  0  0  0  0  0
   -4.9790   -1.4420    1.1470 O   0  0  0  0  0  0  0  0  0  0  0  0
   -0.0240   -2.4770   -0.6340 C   0  0  0  0  0  0  0  0  0  0  0  0
   -0.0910   -3.7420   -1.1280 C   0  0  0  0  0  0  0  0  0  0  0  0
    1.1130   -4.2550   -1.6080 C   0  0  0  0  0  0  0  0  0  0  0  0
    2.2710   -3.4640   -1.5600 C   0  0  0  0  0  0  0  0  0  0  0  0
    2.2600   -2.2060   -1.0610 N   0  0  0  0  0  0  0  0  0  0  0  0
    1.1320   -1.7050   -0.6040 C   0  0  0  0  0  0  0  0  0  0  0  0
    1.1860   -0.2860   -0.2940 N   0  0  0  0  0  0  0  0  0  0  0  0
    2.3950    0.1950    0.2520 C   0  0  0  0  0  0  0  0  0  0  0  0
    3.2070    1.0370   -0.6920 C   0  0  0  0  0  0  0  0  0  0  0  0
    4.3900    1.5210   -0.0240 N   0  0  0  0  0  0  0  0  0  0  0  0
    4.5220    2.5330    0.9630 C   0  0  0  0  0  0  0  0  0  0  0  0
    3.5640    3.3300    1.4010 C   0  0  0  0  0  0  0  0  0  0  0  0
    2.2790    3.3100    0.9670 F   0  0  0  0  0  0  0  0  0  0  0  0
    5.8940    2.6410    1.3950 N   0  0  0  0  0  0  0  0  0  0  0  0
    6.6510    1.6840    0.6690 C   0  0  0  0  0  0  0  0  0  0  0  0
    7.8740    1.1860    0.4830 C   0  0  0  0  0  0  0  0  0  0  0  0
    7.8140    0.1220   -0.5290 C   0  0  0  0  0  0  0  0  0  0  0  0
    6.3790    0.0850   -0.9040 C   0  0  0  0  0  0  0  0  0  0  0  0
    5.7240    0.9970   -0.2010 C   0  0  0  0  0  0  0  0  0  0  0  0
    0.0910    0.6120   -0.5850 C   0  0  0  0  0  0  0  0  0  0  0  0
   -1.2030    0.4110   -0.5450 N   0  0  0  0  0  0  0  0  0  0  0  0
  2  1  1  6
  2  3  1  0
  2  7  1  0
  3  4  1  0
  4  5  1  0
  5  6  1  0
  6  7  1  0
  7  8  1  6
  8  9  1  0
  8 16  1  0
  9 10  2  0
  9 38  1  0
 10 11  1  0
 10 18  1  0
 11 12  1  0
 11 15  1  0
 12 13  2  0
 13 14  1  0
 14 15  2  0
 15 16  1  0
 16 17  2  0
 18 19  2  0
 18 23  1  0
 19 20  1  0
 20 21  2  0
 21 22  1  0
 22 23  2  0
 23 24  1  0
 24 25  1  0
 24 37  1  0
 25 26  1  0
 26 27  1  0
 27 28  1  0
 27 36  1  0
 28 29  2  3
 28 31  1  0
 29 30  1  0
 31 32  1  0
 32 33  2  0
 32 36  1  0
 33 34  1  0
 34 35  1  0
 35 36  2  0
 37 38  2  0
M  END
