
     RDKit          3D

 31 34  0  0  0  0  0  0  0  0999 V2000
    6.5340    2.4360   -1.0170 C   0  0  0  0  0  0  0  0  0  0  0  0
    5.4880    1.6220   -0.3560 C   0  0  0  0  0  0  0  0  0  0  0  0
    4.2750    1.3750   -0.9560 C   0  0  0  0  0  0  0  0  0  0  0  0
    3.3030    0.6220   -0.3460 C   0  0  0  0  0  0  0  0  0  0  0  0
    2.0930    0.3640   -0.9210 C   0  0  0  0  0  0  0  0  0  0  0  0
    1.1230   -0.3890   -0.3100 C   0  0  0  0  0  0  0  0  0  0  0  0
   -0.1680   -0.6960   -0.8630 C   0  0  0  0  0  0  0  0  0  0  0  0
   -1.2280   -1.2820   -0.6600 N   0  0  0  0  0  0  0  0  0  0  0  0
   -2.2720   -1.3830   -1.3960 C   0  0  0  0  0  0  0  0  0  0  0  0
   -3.5160   -2.1180   -1.0650 C   0  0  0  0  0  0  0  0  0  0  0  0
   -3.8120   -3.4340   -1.3360 C   0  0  0  0  0  0  0  0  0  0  0  0
   -2.7700   -4.5910   -2.1540 Cl  0  0  0  0  0  0  0  0  0  0  0  0
   -5.0670   -3.6910   -0.8540 C   0  0  0  0  0  0  0  0  0  0  0  0
   -5.5050   -2.5810   -0.3200 O   0  0  0  0  0  0  0  0  0  0  0  0
   -4.6210   -1.6180   -0.4200 C   0  0  0  0  0  0  0  0  0  0  0  0
   -4.8170   -0.2480    0.0860 C   0  0  0  0  0  0  0  0  0  0  0  0
   -3.9050    0.5770   -0.0680 O   0  0  0  0  0  0  0  0  0  0  0  0
   -5.9770    0.1370    0.7210 O   0  0  0  0  0  0  0  0  0  0  0  0
   -6.2230    1.4250    1.2250 C   0  0  0  0  0  0  0  0  0  0  0  0
   -5.2250    1.8410    2.2760 C   0  0  0  0  0  0  0  0  0  0  0  0
   -5.3160    0.6760    3.6340 Cl  0  0  0  0  0  0  0  0  0  0  0  0
   -2.1950   -0.7080   -2.6520 C   0  0  0  0  0  0  0  0  0  0  0  0
   -0.5370    0.0040   -2.5690 S   0  0  0  0  0  0  0  0  0  0  0  0
    1.4170   -0.8880    0.9340 C   0  0  0  0  0  0  0  0  0  0  0  0
    0.2250   -1.8570    1.7720 Cl  0  0  0  0  0  0  0  0  0  0  0  0
    2.5990   -0.6540    1.5320 N   0  0  0  0  0  0  0  0  0  0  0  0
    3.5480    0.0930    0.9130 C   0  0  0  0  0  0  0  0  0  0  0  0
    4.7390    0.3200    1.5330 C   0  0  0  0  0  0  0  0  0  0  0  0
    5.0010   -0.2490    2.8860 C   0  0  0  0  0  0  0  0  0  0  0  0
    5.6930    1.0760    0.9020 C   0  0  0  0  0  0  0  0  0  0  0  0
    7.2100    1.3580    1.7060 Cl  0  0  0  0  0  0  0  0  0  0  0  0
  1  2  1  0
  2  3  2  0
  2 30  1  0
  3  4  1  0
  4  5  2  0
  4 27  1  0
  5  6  1  0
  6  7  1  0
  6 24  2  0
  7  8  2  0
  7 23  1  0
  8  9  1  0
  9 10  1  0
  9 22  2  0
 10 11  1  0
 10 15  2  0
 11 12  1  0
 11 13  2  0
 13 14  1  0
 14 15  1  0
 15 16  1  0
 16 17  2  0
 16 18  1  0
 18 19  1  0
 19 20  1  0
 20 21  1  0
 22 23  1  0
 24 25  1  0
 24 26  1  0
 26 27  2  0
 27 28  1  0
 28 29  1  0
 28 30  2  0
 30 31  1  0
M  END
