
     RDKit          3D

 45 49  0  0  0  0  0  0  0  0999 V2000
    8.6370    2.4510    2.0720 N   0  0  0  0  0  0  0  0  0  0  0  0
    8.0560    1.6450    2.8730 C   0  0  0  0  0  0  0  0  0  0  0  0
    8.8210    0.7180    3.6130 N   0  0  0  0  0  0  0  0  0  0  0  0
    6.6590    1.6790    3.0170 N   0  0  0  0  0  0  0  0  0  0  0  0
    5.8150    2.8350    3.1980 C   0  0  0  0  0  0  0  0  0  0  0  0
    4.5570    2.4020    2.5360 C   0  0  0  0  0  0  0  0  0  0  0  0
    4.5370    1.0780    2.4240 C   0  0  0  0  0  0  0  0  0  0  0  0
    3.4700    0.2180    1.8250 C   0  0  0  0  0  0  0  0  0  0  0  0
    4.0880   -0.5340    0.6840 C   0  0  0  0  0  0  0  0  0  0  0  0
    3.1900   -1.4040    0.0070 N   0  0  0  0  0  0  0  0  0  0  0  0
    2.0110   -0.9290   -0.6180 C   0  0  0  0  0  0  0  0  0  0  0  0
    1.6790    0.2870   -0.6130 O   0  0  0  0  0  0  0  0  0  0  0  0
    1.1320   -1.8920   -1.3050 C   0  0  2  0  0  0  0  0  0  0  0  0
    1.8100   -2.7060   -2.3400 C   0  0  0  0  0  0  0  0  0  0  0  0
    1.0690   -2.3920   -3.5970 C   0  0  2  0  0  0  0  0  0  0  0  0
    1.9770   -2.1060   -4.7700 C   0  0  0  0  0  0  0  0  0  0  0  0
    1.2060   -1.3210   -5.8130 C   0  0  0  0  0  0  0  0  0  0  0  0
    0.9220    0.0480   -5.2940 C   0  0  1  0  0  0  0  0  0  0  0  0
   -0.1910    0.5340   -6.0170 O   0  0  0  0  0  0  0  0  0  0  0  0
    0.6710    0.0740   -3.8050 C   0  0  0  0  0  0  0  0  0  0  0  0
    0.1320   -1.2510   -3.3090 C   0  0  2  0  0  0  0  0  0  0  0  0
   -0.0450   -1.2570   -1.8970 N   0  0  0  0  0  0  0  0  0  0  0  0
   -1.1350   -0.7500   -1.1510 C   0  0  0  0  0  0  0  0  0  0  0  0
   -1.0320   -0.8650    0.1330 O   0  0  0  0  0  0  0  0  0  0  0  0
   -2.3500   -0.1170   -1.6490 C   0  0  1  0  0  0  0  0  0  0  0  0
   -3.2870   -1.0280   -2.4150 C   0  0  0  0  0  0  0  0  0  0  0  0
   -3.7470   -2.1680   -1.5930 C   0  0  0  0  0  0  0  0  0  0  0  0
   -3.0340   -3.3470   -1.5510 C   0  0  0  0  0  0  0  0  0  0  0  0
   -3.4720   -4.4030   -0.7840 C   0  0  0  0  0  0  0  0  0  0  0  0
   -4.6290   -4.3190   -0.0370 C   0  0  0  0  0  0  0  0  0  0  0  0
   -5.3520   -3.1430   -0.0690 C   0  0  0  0  0  0  0  0  0  0  0  0
   -4.8980   -2.1050   -0.8390 C   0  0  0  0  0  0  0  0  0  0  0  0
   -3.1400    0.3820   -0.5280 N   0  0  0  0  0  0  0  0  0  0  0  0
   -3.4630    1.7410   -0.3200 C   0  0  0  0  0  0  0  0  0  0  0  0
   -3.0470    2.5970   -1.1550 O   0  0  0  0  0  0  0  0  0  0  0  0
   -4.2700    2.2100    0.8360 C   0  0  2  0  0  0  0  0  0  0  0  0
   -4.4150    3.5920    0.8300 O   0  0  0  0  0  0  0  0  0  0  0  0
   -3.6750    1.7550    2.1460 C   0  0  0  0  0  0  0  0  0  0  0  0
   -4.4800    2.2270    3.2990 C   0  0  0  0  0  0  0  0  0  0  0  0
   -5.5260    1.5090    3.8400 C   0  0  0  0  0  0  0  0  0  0  0  0
   -6.2340    1.9890    4.9030 C   0  0  0  0  0  0  0  0  0  0  0  0
   -5.9390    3.2020    5.4810 C   0  0  0  0  0  0  0  0  0  0  0  0
   -4.8950    3.9280    4.9490 C   0  0  0  0  0  0  0  0  0  0  0  0
   -4.1890    3.4450    3.8850 C   0  0  0  0  0  0  0  0  0  0  0  0
    5.7860    0.5290    3.0130 C   0  0  0  0  0  0  0  0  0  0  0  0
  1  2  2  0
  2  3  1  0
  2  4  1  0
  4  5  1  0
  4 45  1  0
  5  6  1  0
  6  7  2  0
  7  8  1  0
  7 45  1  0
  8  9  1  0
  9 10  1  0
 10 11  1  0
 11 12  2  0
 13 11  1  6
 13 14  1  0
 13 22  1  0
 15 14  1  1
 15 16  1  0
 15 21  1  0
 16 17  1  0
 17 18  1  0
 18 19  1  6
 18 20  1  0
 21 20  1  1
 21 22  1  0
 22 23  1  0
 23 24  2  0
 23 25  1  0
 25 26  1  1
 25 33  1  0
 26 27  1  0
 27 28  2  0
 27 32  1  0
 28 29  1  0
 29 30  2  0
 30 31  1  0
 31 32  2  0
 33 34  1  0
 34 35  2  0
 34 36  1  0
 36 37  1  1
 36 38  1  0
 38 39  1  0
 39 40  2  0
 39 44  1  0
 40 41  1  0
 41 42  2  0
 42 43  1  0
 43 44  2  0
M  END
