
     RDKit          3D

 31 34  0  0  0  0  0  0  0  0999 V2000
   -4.6040   -3.1630    1.5530 C   0  0  0  0  0  0  0  0  0  0  0  0
   -4.3370   -1.7770    1.0680 C   0  0  0  0  0  0  0  0  0  0  0  0
   -5.2750   -0.8140    1.0580 N   0  0  0  0  0  0  0  0  0  0  0  0
   -4.9220    0.4030    0.5980 C   0  0  0  0  0  0  0  0  0  0  0  0
   -5.9100    1.3940    0.5930 C   0  0  0  0  0  0  0  0  0  0  0  0
   -5.6550    2.6640    0.1460 C   0  0  0  0  0  0  0  0  0  0  0  0
   -4.3960    2.9910   -0.3160 C   0  0  0  0  0  0  0  0  0  0  0  0
   -4.1770    4.2740   -0.7570 O   0  0  0  0  0  0  0  0  0  0  0  0
   -3.4520    1.9970   -0.2980 C   0  0  0  0  0  0  0  0  0  0  0  0
   -3.6730    0.7300    0.1380 C   0  0  0  0  0  0  0  0  0  0  0  0
   -2.6560   -0.2710    0.1370 C   0  0  0  0  0  0  0  0  0  0  0  0
   -1.4020   -0.1260   -0.2700 C   0  0  0  0  0  0  0  0  0  0  0  0
   -0.5410   -1.1600   -0.2170 C   0  0  0  0  0  0  0  0  0  0  0  0
    0.8550   -1.3750   -0.5590 C   0  0  0  0  0  0  0  0  0  0  0  0
    1.3770   -2.5230   -0.3730 O   0  0  0  0  0  0  0  0  0  0  0  0
    1.6870   -0.3830   -1.0930 N   0  0  0  0  0  0  0  0  0  0  0  0
    3.0520   -0.5880   -1.4290 C   0  0  0  0  0  0  0  0  0  0  0  0
    4.0170   -0.3400   -0.4240 C   0  0  0  0  0  0  0  0  0  0  0  0
    3.5960    0.0730    0.8060 O   0  0  0  0  0  0  0  0  0  0  0  0
    4.2610    0.4100    1.9500 C   0  0  0  0  0  0  0  0  0  0  0  0
    5.1480    1.6150    1.9120 C   0  0  0  0  0  0  0  0  0  0  0  0
    5.9240    1.8740    3.5170 Cl  0  0  0  0  0  0  0  0  0  0  0  0
    5.3520   -0.5230   -0.6970 C   0  0  0  0  0  0  0  0  0  0  0  0
    5.7510   -0.9520   -1.9680 C   0  0  0  0  0  0  0  0  0  0  0  0
    7.4480   -1.1880   -2.3310 Cl  0  0  0  0  0  0  0  0  0  0  0  0
    4.8380   -1.1980   -2.9590 C   0  0  0  0  0  0  0  0  0  0  0  0
    5.3360   -1.7370   -4.5600 Cl  0  0  0  0  0  0  0  0  0  0  0  0
    3.5110   -1.0030   -2.6430 C   0  0  0  0  0  0  0  0  0  0  0  0
    2.3300   -1.3160   -3.9070 Cl  0  0  0  0  0  0  0  0  0  0  0  0
   -1.6000   -2.5190    0.4910 S   0  0  0  0  0  0  0  0  0  0  0  0
   -3.1140   -1.4660    0.6210 C   0  0  0  0  0  0  0  0  0  0  0  0
  1  2  1  0
  2  3  2  0
  2 31  1  0
  3  4  1  0
  4  5  2  0
  4 10  1  0
  5  6  1  0
  6  7  2  0
  7  8  1  0
  7  9  1  0
  9 10  2  0
 10 11  1  0
 11 12  1  0
 11 31  2  0
 12 13  2  0
 13 14  1  0
 13 30  1  0
 14 15  2  0
 14 16  1  0
 16 17  1  0
 17 18  2  0
 17 28  1  0
 18 19  1  0
 18 23  1  0
 19 20  1  0
 20 21  1  0
 21 22  1  0
 23 24  2  0
 24 25  1  0
 24 26  1  0
 26 27  1  0
 26 28  2  0
 28 29  1  0
 30 31  1  0
M  END
