
     RDKit          3D

 31 34  0  0  0  0  0  0  0  0999 V2000
    9.3780   -0.5060    0.3600 C   0  0  0  0  0  0  0  0  0  0  0  0
    8.0590   -1.1670    0.1960 C   0  0  0  0  0  0  0  0  0  0  0  0
    7.8130   -2.9150   -0.0440 S   0  0  0  0  0  0  0  0  0  0  0  0
    6.0050   -2.7980   -0.1370 C   0  0  0  0  0  0  0  0  0  0  0  0
    5.7530   -1.4320    0.0240 C   0  0  0  0  0  0  0  0  0  0  0  0
    4.4220   -0.9090    0.0110 C   0  0  0  0  0  0  0  0  0  0  0  0
    4.1250    0.4020    0.1620 C   0  0  0  0  0  0  0  0  0  0  0  0
    2.8250    0.9800    0.1580 N   0  0  0  0  0  0  0  0  0  0  0  0
    1.6090    0.3050   -0.0020 C   0  0  0  0  0  0  0  0  0  0  0  0
    1.5970   -0.9400   -0.1630 O   0  0  0  0  0  0  0  0  0  0  0  0
    0.3090    1.0390    0.0150 C   0  0  0  0  0  0  0  0  0  0  0  0
   -0.8210    0.4100   -0.1340 C   0  0  0  0  0  0  0  0  0  0  0  0
   -2.0620    1.1630   -0.1110 C   0  0  0  0  0  0  0  0  0  0  0  0
   -2.1650    2.5260    0.0580 C   0  0  0  0  0  0  0  0  0  0  0  0
   -3.5130    2.8050    0.0130 C   0  0  0  0  0  0  0  0  0  0  0  0
   -4.1790    4.4110    0.1800 Cl  0  0  0  0  0  0  0  0  0  0  0  0
   -4.1870    1.6170   -0.1800 C   0  0  0  0  0  0  0  0  0  0  0  0
   -5.6350    1.4450   -0.2890 C   0  0  0  0  0  0  0  0  0  0  0  0
   -6.3500    2.4710   -0.2000 O   0  0  0  0  0  0  0  0  0  0  0  0
   -6.2230    0.1700   -0.4890 N   0  0  0  0  0  0  0  0  0  0  0  0
   -5.4820   -1.0660   -0.6030 C   0  0  0  0  0  0  0  0  0  0  0  0
   -6.4980   -2.1770   -0.6110 C   0  0  0  0  0  0  0  0  0  0  0  0
   -7.7260   -1.5150   -0.0520 C   0  0  1  0  0  0  0  0  0  0  0  0
   -9.2270   -2.3090   -0.5760 Cl  0  0  0  0  0  0  0  0  0  0  0  0
   -7.7030   -1.3980    1.7080 Cl  0  0  0  0  0  0  0  0  0  0  0  0
   -7.6240   -0.1080   -0.6080 C   0  0  0  0  0  0  0  0  0  0  0  0
   -3.2720    0.6620   -0.2480 O   0  0  0  0  0  0  0  0  0  0  0  0
    5.2290    1.2510    0.3370 C   0  0  0  0  0  0  0  0  0  0  0  0
    4.8940    2.9700    0.5380 Cl  0  0  0  0  0  0  0  0  0  0  0  0
    6.5020    0.7620    0.3510 C   0  0  0  0  0  0  0  0  0  0  0  0
    6.7890   -0.6140    0.1910 C   0  0  0  0  0  0  0  0  0  0  0  0
  1  2  1  0
  2  3  1  0
  2 31  2  0
  3  4  1  0
  4  5  2  0
  5  6  1  0
  5 31  1  0
  6  7  2  0
  7  8  1  0
  7 28  1  0
  8  9  1  0
  9 10  2  0
  9 11  1  0
 11 12  2  3
 12 13  1  0
 13 14  2  0
 13 27  1  0
 14 15  1  0
 15 16  1  0
 15 17  2  0
 17 18  1  0
 17 27  1  0
 18 19  2  0
 18 20  1  0
 20 21  1  0
 20 26  1  0
 21 22  1  0
 22 23  1  0
 23 24  1  1
 23 25  1  0
 23 26  1  0
 28 29  1  0
 28 30  2  0
 30 31  1  0
M  END
