
     RDKit          3D

 31 34  0  0  0  0  0  0  0  0999 V2000
    4.8300    0.5870    1.7640 O   0  0  0  0  0  0  0  0  0  0  0  0
    4.8920    0.1700    0.5740 C   0  0  0  0  0  0  0  0  0  0  0  0
    3.7010    0.0650   -0.1620 N   0  0  0  0  0  0  0  0  0  0  0  0
    2.3890    0.3820    0.2740 C   0  0  0  0  0  0  0  0  0  0  0  0
    2.1100    1.1040    1.4070 C   0  0  0  0  0  0  0  0  0  0  0  0
    0.8040    1.3490    1.7730 C   0  0  0  0  0  0  0  0  0  0  0  0
   -0.2440    0.8720    1.0070 C   0  0  0  0  0  0  0  0  0  0  0  0
   -1.5620    1.0890    1.3290 O   0  0  0  0  0  0  0  0  0  0  0  0
   -1.9340    1.8040    2.4640 C   0  0  0  0  0  0  0  0  0  0  0  0
   -1.3330    0.9800    3.9190 Cl  0  0  0  0  0  0  0  0  0  0  0  0
    0.0010    0.1430   -0.1390 C   0  0  0  0  0  0  0  0  0  0  0  0
   -1.1070   -0.3890   -0.9870 C   0  0  0  0  0  0  0  0  0  0  0  0
   -0.8460   -1.1330   -2.1630 C   0  0  0  0  0  0  0  0  0  0  0  0
   -2.4860   -1.5150   -2.7730 S   0  0  0  0  0  0  0  0  0  0  0  0
   -3.3040   -0.6100   -1.3450 C   0  0  0  0  0  0  0  0  0  0  0  0
   -4.8190   -0.5990   -1.3310 C   0  0  0  0  0  0  0  0  0  0  0  0
   -5.4470    0.0570   -0.2970 C   0  0  0  0  0  0  0  0  0  0  0  0
   -6.8090    0.1320   -0.1800 C   0  0  0  0  0  0  0  0  0  0  0  0
   -7.5710   -0.4840   -1.1550 C   0  0  0  0  0  0  0  0  0  0  0  0
   -9.3210   -0.4080   -1.0380 Cl  0  0  0  0  0  0  0  0  0  0  0  0
   -6.9340   -1.1400   -2.1890 C   0  0  0  0  0  0  0  0  0  0  0  0
   -5.5510   -1.2080   -2.2940 C   0  0  0  0  0  0  0  0  0  0  0  0
   -4.8040   -2.0540   -3.6270 Cl  0  0  0  0  0  0  0  0  0  0  0  0
   -2.3940   -0.2460   -0.7660 N   0  0  0  0  0  0  0  0  0  0  0  0
    1.2970   -0.0880   -0.4830 C   0  0  0  0  0  0  0  0  0  0  0  0
    6.1970   -0.1900   -0.0080 C   0  0  0  0  0  0  0  0  0  0  0  0
    7.4000   -0.1160    0.6410 C   0  0  0  0  0  0  0  0  0  0  0  0
    8.3820   -0.5440   -0.2530 C   0  0  0  0  0  0  0  0  0  0  0  0
    7.6750   -0.8560   -1.4170 C   0  0  0  0  0  0  0  0  0  0  0  0
    8.4510   -1.4480   -2.8610 Cl  0  0  0  0  0  0  0  0  0  0  0  0
    6.3900   -0.6270   -1.2110 O   0  0  0  0  0  0  0  0  0  0  0  0
  1  2  2  0
  2  3  1  0
  2 26  1  0
  3  4  1  0
  4  5  2  0
  4 25  1  0
  5  6  1  0
  6  7  2  0
  7  8  1  0
  7 11  1  0
  8  9  1  0
  9 10  1  0
 11 12  1  0
 11 25  2  0
 12 13  2  0
 12 24  1  0
 13 14  1  0
 14 15  1  0
 15 16  1  0
 15 24  2  0
 16 17  2  0
 16 22  1  0
 17 18  1  0
 18 19  2  0
 19 20  1  0
 19 21  1  0
 21 22  2  0
 22 23  1  0
 26 27  2  0
 26 31  1  0
 27 28  1  0
 28 29  2  0
 29 30  1  0
 29 31  1  0
M  END
