
     RDKit          3D

 31 34  0  0  0  0  0  0  0  0999 V2000
    6.1730    2.7220    0.3020 C   0  0  0  0  0  0  0  0  0  0  0  0
    5.0530    2.0510   -0.2070 O   0  0  0  0  0  0  0  0  0  0  0  0
    4.4890    1.3150    0.8390 C   0  0  0  0  0  0  0  0  0  0  0  0
    3.2900    0.5770    0.3630 C   0  0  0  0  0  0  0  0  0  0  0  0
    2.8190    0.6020   -0.8600 O   0  0  0  0  0  0  0  0  0  0  0  0
    1.7620   -0.1430   -0.9730 C   0  0  0  0  0  0  0  0  0  0  0  0
    1.0100   -0.3210   -2.2090 C   0  0  0  0  0  0  0  0  0  0  0  0
    1.4400   -0.8700   -3.3780 N   0  0  0  0  0  0  0  0  0  0  0  0
    0.4410   -0.8540   -4.2940 C   0  0  0  0  0  0  0  0  0  0  0  0
   -0.6320   -0.2750   -3.6570 C   0  0  0  0  0  0  0  0  0  0  0  0
   -0.3030    0.0630   -2.3650 C   0  0  0  0  0  0  0  0  0  0  0  0
   -1.1890    0.7130   -1.3450 C   0  0  0  0  0  0  0  0  0  0  0  0
   -0.8900    1.9280   -0.8370 C   0  0  0  0  0  0  0  0  0  0  0  0
   -2.2850    2.1890    0.3160 S   0  0  0  0  0  0  0  0  0  0  0  0
   -3.0440    0.6110   -0.0790 C   0  0  0  0  0  0  0  0  0  0  0  0
   -4.3280    0.1910    0.5890 C   0  0  0  0  0  0  0  0  0  0  0  0
   -4.8760   -1.0030    0.2730 C   0  0  0  0  0  0  0  0  0  0  0  0
   -6.0720   -1.4440    0.8660 C   0  0  0  0  0  0  0  0  0  0  0  0
   -6.7870   -2.9830    0.4660 Cl  0  0  0  0  0  0  0  0  0  0  0  0
   -6.6880   -0.6290    1.7890 C   0  0  0  0  0  0  0  0  0  0  0  0
   -8.1930   -1.1290    2.5680 Cl  0  0  0  0  0  0  0  0  0  0  0  0
   -6.1420    0.5760    2.1130 C   0  0  0  0  0  0  0  0  0  0  0  0
   -4.9490    0.9970    1.5110 C   0  0  0  0  0  0  0  0  0  0  0  0
   -4.2680    2.5400    1.9400 Cl  0  0  0  0  0  0  0  0  0  0  0  0
   -2.2840    0.1480   -0.8970 N   0  0  0  0  0  0  0  0  0  0  0  0
    1.5150   -0.7060    0.2730 C   0  0  0  0  0  0  0  0  0  0  0  0
    0.4730   -1.5540    0.5350 O   0  0  0  0  0  0  0  0  0  0  0  0
    0.4950   -2.9490    0.4230 C   0  0  0  0  0  0  0  0  0  0  0  0
    2.5060   -0.2340    1.1250 C   0  0  0  0  0  0  0  0  0  0  0  0
    2.6070   -0.5990    2.5600 C   0  0  0  0  0  0  0  0  0  0  0  0
    3.9100   -1.7870    2.8230 Cl  0  0  0  0  0  0  0  0  0  0  0  0
  1  2  1  0
  2  3  1  0
  3  4  1  0
  4  5  1  0
  4 29  2  0
  5  6  1  0
  6  7  1  0
  6 26  2  0
  7  8  1  0
  7 11  2  0
  8  9  1  0
  9 10  2  0
 10 11  1  0
 11 12  1  0
 12 13  2  0
 12 25  1  0
 13 14  1  0
 14 15  1  0
 15 16  1  0
 15 25  2  0
 16 17  2  0
 16 23  1  0
 17 18  1  0
 18 19  1  0
 18 20  2  0
 20 21  1  0
 20 22  1  0
 22 23  2  0
 23 24  1  0
 26 27  1  0
 26 29  1  0
 27 28  1  0
 29 30  1  0
 30 31  1  0
M  END
