
     RDKit          3D

 31 34  0  0  0  0  0  0  0  0999 V2000
    2.3750   -1.7820    0.8020 O   0  0  0  0  0  0  0  0  0  0  0  0
    2.0140   -2.3360   -0.2690 C   0  0  0  0  0  0  0  0  0  0  0  0
    1.5340   -1.4870   -1.2520 O   0  0  0  0  0  0  0  0  0  0  0  0
    1.4520   -0.1080   -1.0750 C   0  0  0  0  0  0  0  0  0  0  0  0
    2.5360    0.6230   -1.4390 C   0  0  0  0  0  0  0  0  0  0  0  0
    2.4980    1.9980   -1.2790 C   0  0  0  0  0  0  0  0  0  0  0  0
    1.3650    2.5710   -0.7590 C   0  0  0  0  0  0  0  0  0  0  0  0
    1.3410    4.0350   -0.5970 C   0  0  0  0  0  0  0  0  0  0  0  0
    2.3520    4.8210   -0.9250 C   0  0  0  0  0  0  0  0  0  0  0  0
    2.0300    6.2280   -0.6470 C   0  0  0  0  0  0  0  0  0  0  0  0
    0.6740    6.1560   -0.1040 C   0  0  0  0  0  0  0  0  0  0  0  0
    0.2810    4.8850   -0.0780 C   0  0  0  0  0  0  0  0  0  0  0  0
   -1.2750    4.3060    0.4940 Cl  0  0  0  0  0  0  0  0  0  0  0  0
    0.2900    1.8000   -0.4040 N   0  0  0  0  0  0  0  0  0  0  0  0
    0.3080    0.4820   -0.5490 C   0  0  0  0  0  0  0  0  0  0  0  0
   -0.7380   -0.4040   -0.2170 N   0  0  0  0  0  0  0  0  0  0  0  0
   -1.9810    0.0310    0.3330 C   0  0  0  0  0  0  0  0  0  0  0  0
   -2.2390    1.2090    0.5610 O   0  0  0  0  0  0  0  0  0  0  0  0
   -3.0170   -0.9550    0.6510 C   0  0  0  0  0  0  0  0  0  0  0  0
   -3.0590   -1.5380    1.9080 C   0  0  0  0  0  0  0  0  0  0  0  0
   -4.0170   -2.4650    2.2350 C   0  0  0  0  0  0  0  0  0  0  0  0
   -4.1000   -3.2180    3.8050 Cl  0  0  0  0  0  0  0  0  0  0  0  0
   -4.9550   -2.8190    1.2900 C   0  0  0  0  0  0  0  0  0  0  0  0
   -4.9080   -2.2330    0.0340 C   0  0  0  0  0  0  0  0  0  0  0  0
   -3.9540   -1.3100   -0.2920 C   0  0  0  0  0  0  0  0  0  0  0  0
   -3.9450   -0.5990   -1.9040 Cl  0  0  0  0  0  0  0  0  0  0  0  0
    2.0990   -3.8000   -0.4630 C   0  0  0  0  0  0  0  0  0  0  0  0
    2.5230   -4.7530    0.3480 C   0  0  0  0  0  0  0  0  0  0  0  0
    3.1730   -4.7840    1.9880 Cl  0  0  0  0  0  0  0  0  0  0  0  0
    2.2730   -5.8460   -0.5910 C   0  0  0  0  0  0  0  0  0  0  0  0
    1.6480   -4.7850   -1.8830 S   0  0  0  0  0  0  0  0  0  0  0  0
  1  2  2  0
  2  3  1  0
  2 27  1  0
  3  4  1  0
  4  5  2  0
  4 15  1  0
  5  6  1  0
  6  7  2  0
  7  8  1  0
  7 14  1  0
  8  9  2  0
  8 12  1  0
  9 10  1  0
 10 11  1  0
 11 12  2  0
 12 13  1  0
 14 15  2  0
 15 16  1  0
 16 17  1  0
 17 18  2  0
 17 19  1  0
 19 20  2  0
 19 25  1  0
 20 21  1  0
 21 22  1  0
 21 23  2  0
 23 24  1  0
 24 25  2  0
 25 26  1  0
 27 28  2  0
 27 31  1  0
 28 29  1  0
 28 30  1  0
 30 31  1  0
M  END
