
     RDKit          3D

 31 34  0  0  0  0  0  0  0  0999 V2000
   -8.0620   -1.6330   -1.6090 C   0  0  0  0  0  0  0  0  0  0  0  0
   -8.0530   -0.1920   -1.1790 C   0  0  1  0  0  0  0  0  0  0  0  0
   -8.3580   -0.0300    0.2800 C   0  0  0  0  0  0  0  0  0  0  0  0
   -7.3350   -0.6540    1.1790 C   0  0  0  0  0  0  0  0  0  0  0  0
   -5.9690   -0.3270    0.7300 C   0  0  0  0  0  0  0  0  0  0  0  0
   -4.7960   -0.4540    1.3870 N   0  0  0  0  0  0  0  0  0  0  0  0
   -3.8310   -0.0300    0.5750 C   0  0  0  0  0  0  0  0  0  0  0  0
   -2.3650   -0.0020    0.9150 C   0  0  0  0  0  0  0  0  0  0  0  0
   -1.8070   -1.3230    0.4910 C   0  0  0  0  0  0  0  0  0  0  0  0
   -0.3350   -1.4620    0.7680 C   0  0  0  0  0  0  0  0  0  0  0  0
    0.4670   -0.4510    0.0220 C   0  0  0  0  0  0  0  0  0  0  0  0
   -0.0430    0.3420   -0.7740 O   0  0  0  0  0  0  0  0  0  0  0  0
    1.8780   -0.4290    0.2650 N   0  0  0  0  0  0  0  0  0  0  0  0
    2.8120    0.4290   -0.3200 C   0  0  0  0  0  0  0  0  0  0  0  0
    2.4490    1.3820   -1.2300 C   0  0  0  0  0  0  0  0  0  0  0  0
    3.4030    2.2330   -1.8050 C   0  0  0  0  0  0  0  0  0  0  0  0
    4.7060    2.1290   -1.4710 C   0  0  0  0  0  0  0  0  0  0  0  0
    5.6400    2.9450   -2.0190 F   0  0  0  0  0  0  0  0  0  0  0  0
    5.0960    1.1790   -0.5590 C   0  0  0  0  0  0  0  0  0  0  0  0
    6.4230    1.0460   -0.1960 C   0  0  0  0  0  0  0  0  0  0  0  0
    6.8830    0.1200    0.7070 C   0  0  0  0  0  0  0  0  0  0  0  0
    8.2570    0.0110    1.0580 N   0  0  2  0  0  0  0  0  0  0  0  0
    9.0300    0.9780    0.3470 C   0  0  0  0  0  0  0  0  0  0  0  0
    8.6810   -1.3310    0.6900 C   0  0  0  0  0  0  0  0  0  0  0  0
    5.9460   -0.7100    1.2670 C   0  0  0  0  0  0  0  0  0  0  0  0
    4.5890   -0.6000    0.9190 C   0  0  0  0  0  0  0  0  0  0  0  0
    4.1460    0.3310    0.0140 C   0  0  0  0  0  0  0  0  0  0  0  0
   -4.3670    0.3580   -0.5720 N   0  0  0  0  0  0  0  0  0  0  0  0
   -5.7000    0.1840   -0.5020 C   0  0  0  0  0  0  0  0  0  0  0  0
   -6.7310    0.4710   -1.5280 C   0  0  2  0  0  0  0  0  0  0  0  0
   -6.8670    1.8520   -1.6250 O   0  0  0  0  0  0  0  0  0  0  0  0
  2  1  1  1
  2  3  1  0
  2 30  1  0
  3  4  1  0
  4  5  1  0
  5  6  1  0
  5 29  2  0
  6  7  1  0
  7  8  1  0
  7 28  2  0
  8  9  1  0
  9 10  1  0
 10 11  1  0
 11 12  2  0
 11 13  1  0
 13 14  1  0
 14 15  2  0
 14 27  1  0
 15 16  1  0
 16 17  2  0
 17 18  1  0
 17 19  1  0
 19 20  2  0
 19 27  1  0
 20 21  1  0
 21 22  1  0
 21 25  2  0
 22 23  1  6
 22 24  1  0
 25 26  1  0
 26 27  2  0
 28 29  1  0
 29 30  1  0
 30 31  1  1
M  CHG  1  22   1
M  END
