
     RDKit          3D

 29 31  0  0  0  0  0  0  0  0999 V2000
   -5.4570    3.2480   -0.7870 C   0  0  0  0  0  0  0  0  0  0  0  0
   -5.2980    2.1790   -1.5860 C   0  0  0  0  0  0  0  0  0  0  0  0
   -5.5810    0.8200   -1.1140 C   0  0  0  0  0  0  0  0  0  0  0  0
   -4.4360   -0.0650   -1.1580 N   0  0  0  0  0  0  0  0  0  0  0  0
   -3.2580    0.2130   -0.4390 C   0  0  0  0  0  0  0  0  0  0  0  0
   -3.2840    1.3090    0.2280 O   0  0  0  0  0  0  0  0  0  0  0  0
   -2.0420   -0.5960   -0.3740 C   0  0  1  0  0  0  0  0  0  0  0  0
   -0.9890    0.2500    0.2440 N   0  0  0  0  0  0  0  0  0  0  0  0
    0.3770    0.1280   -0.1080 C   0  0  0  0  0  0  0  0  0  0  0  0
    0.6210   -0.7660   -0.9900 O   0  0  0  0  0  0  0  0  0  0  0  0
    1.4610    0.9190    0.4540 C   0  0  0  0  0  0  0  0  0  0  0  0
    1.4100    1.9740    1.2230 O   0  0  0  0  0  0  0  0  0  0  0  0
    2.5880    2.4010    1.5220 C   0  0  0  0  0  0  0  0  0  0  0  0
    3.0150    3.4670    2.2950 C   0  0  0  0  0  0  0  0  0  0  0  0
    4.2890    3.6670    2.4300 O   0  0  0  0  0  0  0  0  0  0  0  0
    5.2220    2.9180    1.8760 C   0  0  0  0  0  0  0  0  0  0  0  0
    6.4320    3.1720    2.0520 O   0  0  0  0  0  0  0  0  0  0  0  0
    4.8570    1.8500    1.1000 C   0  0  0  0  0  0  0  0  0  0  0  0
    3.5060    1.5930    0.9240 C   0  0  0  0  0  0  0  0  0  0  0  0
    2.7910    0.6360    0.2360 C   0  0  0  0  0  0  0  0  0  0  0  0
    3.3780   -0.4550   -0.5300 C   0  0  0  0  0  0  0  0  0  0  0  0
    3.4710   -0.4720   -1.8950 C   0  0  0  0  0  0  0  0  0  0  0  0
    4.0510   -1.5450   -2.5760 C   0  0  0  0  0  0  0  0  0  0  0  0
    4.5530   -2.6310   -1.8970 C   0  0  0  0  0  0  0  0  0  0  0  0
    4.4640   -2.6230   -0.5190 C   0  0  0  0  0  0  0  0  0  0  0  0
    3.8900   -1.5620    0.1540 C   0  0  0  0  0  0  0  0  0  0  0  0
   -2.2920   -1.7530    0.6020 C   0  0  1  0  0  0  0  0  0  0  0  0
   -3.4220   -2.5810    0.0810 C   0  0  0  0  0  0  0  0  0  0  0  0
   -1.0720   -2.6360    0.7060 C   0  0  0  0  0  0  0  0  0  0  0  0
  1  2  2  0
  2  3  1  0
  3  4  1  0
  4  5  1  0
  5  6  2  0
  5  7  1  0
  7  8  1  1
  7 27  1  0
  8  9  1  0
  9 10  2  0
  9 11  1  0
 11 12  1  0
 11 20  2  0
 12 13  1  0
 13 14  2  0
 13 19  1  0
 14 15  1  0
 15 16  1  0
 16 17  2  0
 16 18  1  0
 18 19  2  0
 19 20  1  0
 20 21  1  0
 21 22  2  0
 21 26  1  0
 22 23  1  0
 23 24  2  0
 24 25  1  0
 25 26  2  0
 27 28  1  6
 27 29  1  0
M  END
