
     RDKit          3D

 31 33  0  0  0  0  0  0  0  0999 V2000
   -6.3910    0.6080    1.4850 C   0  0  0  0  0  0  0  0  0  0  0  0
   -6.1990   -0.8080    1.3920 N   0  0  0  0  0  0  0  0  0  0  0  0
   -6.8490   -1.6500    0.5690 C   0  0  0  0  0  0  0  0  0  0  0  0
   -6.3640   -2.9180    0.8010 C   0  0  0  0  0  0  0  0  0  0  0  0
   -5.4360   -2.7980    1.7590 N   0  0  0  0  0  0  0  0  0  0  0  0
   -5.3100   -1.5040    2.1460 C   0  0  0  0  0  0  0  0  0  0  0  0
   -4.3970   -0.9710    3.1720 C   0  0  0  0  0  0  0  0  0  0  0  0
   -3.0430   -0.8120    2.7600 N   0  0  0  0  0  0  0  0  0  0  0  0
   -2.9210   -0.8200    1.3250 C   0  0  0  0  0  0  0  0  0  0  0  0
   -2.1970    0.4050    0.8150 C   0  0  1  0  0  0  0  0  0  0  0  0
   -0.9260    0.4550    1.3840 O   0  0  0  0  0  0  0  0  0  0  0  0
   -2.0380    0.2350   -0.7030 C   0  0  0  0  0  0  0  0  0  0  0  0
   -0.8010    0.2290   -1.1180 C   0  0  0  0  0  0  0  0  0  0  0  0
   -0.3100    0.0920   -2.4420 C   0  0  0  0  0  0  0  0  0  0  0  0
    0.7950    0.0740   -3.0000 C   0  0  0  0  0  0  0  0  0  0  0  0
    2.2260    0.1500   -2.9300 C   0  0  0  0  0  0  0  0  0  0  0  0
    2.7960   -0.0110   -4.1880 C   0  0  0  0  0  0  0  0  0  0  0  0
    4.1550    0.0020   -4.6060 C   0  0  0  0  0  0  0  0  0  0  0  0
    4.5380   -1.2290   -5.1640 F   0  0  0  0  0  0  0  0  0  0  0  0
    3.1370    0.2260   -1.8210 C   0  0  0  0  0  0  0  0  0  0  0  0
    2.8320    0.4920   -0.5730 C   0  0  0  0  0  0  0  0  0  0  0  0
    3.8890    0.5540    0.4700 C   0  0  0  0  0  0  0  0  0  0  0  0
    5.1610    0.3710    0.2310 C   0  0  0  0  0  0  0  0  0  0  0  0
    6.1340    0.4400    1.3220 C   0  0  0  0  0  0  0  0  0  0  0  0
    5.8320    1.4890    2.3410 C   0  0  0  0  0  0  0  0  0  0  0  0
    4.4190    1.9700    2.3420 C   0  0  0  0  0  0  0  0  0  0  0  0
    3.5020    0.8380    1.8790 C   0  0  0  0  0  0  0  0  0  0  0  0
    5.6090    0.1770   -1.1950 C   0  0  0  0  0  0  0  0  0  0  0  0
    4.5000   -0.3030   -1.9400 N   0  0  0  0  0  0  0  0  0  0  0  0
   -3.2740    0.1300   -1.4460 C   0  0  0  0  0  0  0  0  0  0  0  0
   -3.1320    0.0090   -2.8030 O   0  0  0  0  0  0  0  0  0  0  0  0
  1  2  1  0
  2  3  1  0
  2  6  1  0
  3  4  2  0
  4  5  1  0
  5  6  2  0
  6  7  1  0
  7  8  1  0
  8  9  1  0
  9 10  1  0
 10 11  1  1
 10 12  1  0
 12 13  2  3
 12 30  1  0
 13 14  1  0
 14 15  2  3
 15 16  1  0
 16 17  2  3
 16 20  1  0
 17 18  1  0
 18 19  1  0
 20 21  2  0
 20 29  1  0
 21 22  1  0
 22 23  2  0
 22 27  1  0
 23 24  1  0
 23 28  1  0
 24 25  1  0
 25 26  1  0
 26 27  1  0
 28 29  1  0
 30 31  1  0
M  CHG  1   8   1
M  END
