
     RDKit          3D

 30 32  0  0  0  0  0  0  0  0999 V2000
   -7.5070    0.1670    2.3630 C   0  0  0  0  0  0  0  0  0  0  0  0
   -6.8030    0.1040    1.2470 C   0  0  0  0  0  0  0  0  0  0  0  0
   -7.2210    0.8890    0.0760 C   0  0  2  0  0  0  0  0  0  0  0  0
   -8.1700    0.1900   -0.6690 O   0  0  0  0  0  0  0  0  0  0  0  0
   -6.0790    1.3110   -0.7960 C   0  0  0  0  0  0  0  0  0  0  0  0
   -4.9580    0.3140   -0.8080 C   0  0  0  0  0  0  0  0  0  0  0  0
   -3.8090    0.6720   -1.3110 C   0  0  0  0  0  0  0  0  0  0  0  0
   -2.6270   -0.1990   -1.3860 C   0  0  0  0  0  0  0  0  0  0  0  0
   -1.4940    0.2530   -1.9180 C   0  0  0  0  0  0  0  0  0  0  0  0
   -1.4050    1.6530   -2.4470 C   0  0  0  0  0  0  0  0  0  0  0  0
    0.0670    1.8400   -2.8040 C   0  0  0  0  0  0  0  0  0  0  0  0
    0.9670    1.4880   -1.6180 C   0  0  0  0  0  0  0  0  0  0  0  0
    0.7620    0.0980   -1.1090 C   0  0  1  0  0  0  0  0  0  0  0  0
    0.1410    0.0730    0.2710 C   0  0  0  0  0  0  0  0  0  0  0  0
   -0.2810   -0.5390   -2.0300 C   0  0  1  0  0  0  0  0  0  0  0  0
   -0.3140   -1.9240   -1.5080 C   0  0  0  0  0  0  0  0  0  0  0  0
    1.1430   -2.1990   -1.1890 C   0  0  0  0  0  0  0  0  0  0  0  0
    1.8620   -0.8520   -1.3020 C   0  0  2  0  0  0  0  0  0  0  0  0
    3.0210   -0.7820   -0.3670 C   0  0  1  0  0  0  0  0  0  0  0  0
    4.0050   -1.8770   -0.7950 C   0  0  0  0  0  0  0  0  0  0  0  0
    3.6650    0.5330   -0.2030 C   0  0  0  0  0  0  0  0  0  0  0  0
    4.8400    0.5220    0.7710 C   0  0  0  0  0  0  0  0  0  0  0  0
    4.3990    0.0900    2.1510 C   0  0  0  0  0  0  0  0  0  0  0  0
    5.5600    0.0810    3.1210 C   0  0  2  0  0  0  0  0  0  0  0  0
    6.2010    1.4490    3.2650 C   0  0  0  0  0  0  0  0  0  0  0  0
    6.5670   -0.9900    2.8500 C   0  0  0  0  0  0  0  0  0  0  0  0
    4.9950   -0.1940    4.3880 O   0  0  0  0  0  0  0  0  0  0  0  0
   -5.2550   -1.0100   -0.2410 C   0  0  0  0  0  0  0  0  0  0  0  0
   -5.5910   -0.7790    1.2430 C   0  0  1  0  0  0  0  0  0  0  0  0
   -4.4960   -0.1200    1.7910 O   0  0  0  0  0  0  0  0  0  0  0  0
  1  2  2  0
  2  3  1  0
  2 29  1  0
  3  4  1  6
  3  5  1  0
  5  6  1  0
  6  7  2  3
  6 28  1  0
  7  8  1  0
  8  9  2  3
  9 10  1  0
  9 15  1  0
 10 11  1  0
 11 12  1  0
 12 13  1  0
 13 14  1  1
 13 15  1  0
 13 18  1  0
 15 16  1  1
 16 17  1  0
 18 17  1  1
 18 19  1  0
 19 20  1  6
 19 21  1  0
 21 22  1  0
 22 23  1  0
 23 24  1  0
 24 25  1  1
 24 26  1  0
 24 27  1  0
 28 29  1  0
 29 30  1  1
M  END
