
     RDKit          3D

 31 33  0  0  0  0  0  0  0  0999 V2000
    1.0090   -3.8390    1.1960 C   0  0  0  0  0  0  0  0  0  0  0  0
    1.4610   -2.6190    0.8380 C   0  0  0  0  0  0  0  0  0  0  0  0
    2.8280   -2.3460    1.1450 C   0  0  0  0  0  0  0  0  0  0  0  0
    3.6980   -1.4620    0.9790 C   0  0  0  0  0  0  0  0  0  0  0  0
    5.0850   -1.6040    1.5440 C   0  0  0  0  0  0  0  0  0  0  0  0
    5.3520   -2.7920    2.3930 C   0  0  0  0  0  0  0  0  0  0  0  0
    6.0270   -0.7200    1.3110 C   0  0  0  0  0  0  0  0  0  0  0  0
    5.8600    0.4960    0.4990 C   0  0  0  0  0  0  0  0  0  0  0  0
    4.3650    0.9180    0.6980 C   0  0  1  0  0  0  0  0  0  0  0  0
    4.1970    2.1860    0.1190 N   0  0  0  0  0  0  0  0  0  0  0  0
    4.4430    3.2550    1.1410 C   0  0  0  0  0  0  0  0  0  0  0  0
    3.6120   -0.2340    0.1540 C   0  0  0  0  0  0  0  0  0  0  0  0
    3.0140   -0.3130   -1.0030 C   0  0  0  0  0  0  0  0  0  0  0  0
    2.7860    0.7210   -2.0090 C   0  0  0  0  0  0  0  0  0  0  0  0
    0.5560   -1.6870    0.3470 N   0  0  0  0  0  0  0  0  0  0  0  0
   -0.8530   -1.8910    0.1650 C   0  0  0  0  0  0  0  0  0  0  0  0
   -1.3470   -2.9870    0.4570 O   0  0  0  0  0  0  0  0  0  0  0  0
   -1.6900   -0.8800   -0.3330 N   0  0  0  0  0  0  0  0  0  0  0  0
   -3.0780   -0.9890   -0.5550 C   0  0  0  0  0  0  0  0  0  0  0  0
   -3.7140   -2.1900   -0.7020 C   0  0  0  0  0  0  0  0  0  0  0  0
   -5.1000   -2.2370   -0.8890 C   0  0  0  0  0  0  0  0  0  0  0  0
   -5.8140   -1.0620   -0.9240 C   0  0  0  0  0  0  0  0  0  0  0  0
   -7.1660   -1.0500   -1.1040 F   0  0  0  0  0  0  0  0  0  0  0  0
   -5.2070    0.1670   -0.7790 C   0  0  0  0  0  0  0  0  0  0  0  0
   -5.9490    1.3640   -0.8050 N   0  0  0  0  0  0  0  0  0  0  0  0
   -5.6300    2.5080   -1.6710 C   0  0  0  0  0  0  0  0  0  0  0  0
   -7.0220    3.0980   -1.8740 C   0  0  0  0  0  0  0  0  0  0  0  0
   -7.5760    3.0150   -0.4520 C   0  0  0  0  0  0  0  0  0  0  0  0
   -7.0980    1.6800   -0.0320 C   0  0  0  0  0  0  0  0  0  0  0  0
   -7.6030    0.9540    0.8430 O   0  0  0  0  0  0  0  0  0  0  0  0
   -3.8600    0.1860   -0.5990 C   0  0  0  0  0  0  0  0  0  0  0  0
  1  2  2  0
  2  3  1  0
  2 15  1  0
  3  4  2  3
  4  5  1  0
  4 12  1  0
  5  6  1  0
  5  7  2  0
  7  8  1  0
  8  9  1  0
  9 10  1  6
  9 12  1  0
 10 11  1  0
 12 13  2  3
 13 14  1  0
 15 16  1  0
 16 17  2  0
 16 18  1  0
 18 19  1  0
 19 20  2  0
 19 31  1  0
 20 21  1  0
 21 22  2  0
 22 23  1  0
 22 24  1  0
 24 25  1  0
 24 31  2  0
 25 26  1  0
 25 29  1  0
 26 27  1  0
 27 28  1  0
 28 29  1  0
 29 30  2  0
M  CHG  1  10   1
M  END
