
     RDKit          3D

 30 32  0  0  0  0  0  0  0  0999 V2000
   -4.5860   -0.9080    2.6380 C   0  0  0  0  0  0  0  0  0  0  0  0
   -5.0420   -1.0790    1.2070 C   0  0  0  0  0  0  0  0  0  0  0  0
   -4.1230   -0.3200    0.3720 N   0  0  0  0  0  0  0  0  0  0  0  0
   -3.0490   -0.9930   -0.1350 C   0  0  0  0  0  0  0  0  0  0  0  0
   -2.9090   -2.2050    0.1340 O   0  0  0  0  0  0  0  0  0  0  0  0
   -2.1280   -0.3720   -0.9260 C   0  0  0  0  0  0  0  0  0  0  0  0
   -1.0220   -1.0710   -1.4460 O   0  0  0  0  0  0  0  0  0  0  0  0
    0.1680   -1.1640   -0.7380 C   0  0  0  0  0  0  0  0  0  0  0  0
    0.2140   -0.6070    0.3700 O   0  0  0  0  0  0  0  0  0  0  0  0
    1.3240   -1.8800   -1.2490 C   0  0  0  0  0  0  0  0  0  0  0  0
    2.4760   -1.9760   -0.6170 C   0  0  0  0  0  0  0  0  0  0  0  0
    3.5770   -2.7470   -1.2520 C   0  0  0  0  0  0  0  0  0  0  0  0
    4.8150   -1.9840   -1.5770 C   0  0  2  0  0  0  0  0  0  0  0  0
    4.5220   -0.8940   -2.5570 C   0  0  0  0  0  0  0  0  0  0  0  0
    5.7000   -2.9110   -2.1830 O   0  0  0  0  0  0  0  0  0  0  0  0
    2.6610   -1.3690    0.6630 N   0  0  0  0  0  0  0  0  0  0  0  0
    2.8920   -0.0010    0.8710 C   0  0  0  0  0  0  0  0  0  0  0  0
    2.8740    0.9340   -0.1560 C   0  0  0  0  0  0  0  0  0  0  0  0
    3.0930    2.2670    0.0330 C   0  0  0  0  0  0  0  0  0  0  0  0
    3.3480    2.7390    1.3020 C   0  0  0  0  0  0  0  0  0  0  0  0
    3.3760    1.8650    2.3450 C   0  0  0  0  0  0  0  0  0  0  0  0
    3.1520    0.5140    2.1380 C   0  0  0  0  0  0  0  0  0  0  0  0
    3.1940   -0.3170    3.2330 O   0  0  0  0  0  0  0  0  0  0  0  0
   -2.3370    0.9620   -1.1860 C   0  0  0  0  0  0  0  0  0  0  0  0
   -3.4300    1.6370   -0.6670 C   0  0  0  0  0  0  0  0  0  0  0  0
   -3.6130    2.9860   -0.9410 C   0  0  0  0  0  0  0  0  0  0  0  0
   -4.7050    3.6320   -0.4060 C   0  0  0  0  0  0  0  0  0  0  0  0
   -5.6110    2.9660    0.3900 C   0  0  0  0  0  0  0  0  0  0  0  0
   -5.4430    1.6210    0.6730 C   0  0  0  0  0  0  0  0  0  0  0  0
   -4.3530    0.9770    0.1380 C   0  0  0  0  0  0  0  0  0  0  0  0
  1  2  1  0
  2  3  1  0
  3  4  1  0
  3 30  1  0
  4  5  2  0
  4  6  1  0
  6  7  1  0
  6 24  2  0
  7  8  1  0
  8  9  2  0
  8 10  1  0
 10 11  2  3
 11 12  1  0
 11 16  1  0
 12 13  1  0
 13 14  1  6
 13 15  1  0
 16 17  1  0
 17 18  2  0
 17 22  1  0
 18 19  1  0
 19 20  2  0
 20 21  1  0
 21 22  2  0
 22 23  1  0
 24 25  1  0
 25 26  2  0
 25 30  1  0
 26 27  1  0
 27 28  2  0
 28 29  1  0
 29 30  2  0
M  END
