
     RDKit          3D

 31 33  0  0  0  0  0  0  0  0999 V2000
    5.4120    2.5340    1.0320 C   0  0  0  0  0  0  0  0  0  0  0  0
    4.5970    1.2600    0.8320 C   0  0  0  0  0  0  0  0  0  0  0  0
    4.8360    0.7550   -0.5560 C   0  0  1  0  0  0  0  0  0  0  0  0
    6.2530    0.4790   -0.7020 N   0  0  0  0  0  0  0  0  0  0  0  0
    4.0520   -0.5050   -0.8950 C   0  0  0  0  0  0  0  0  0  0  0  0
    2.6310   -0.3550   -0.8020 C   0  0  0  0  0  0  0  0  0  0  0  0
    1.9780    0.5830   -1.7900 C   0  0  0  0  0  0  0  0  0  0  0  0
    1.8390   -0.9890    0.1070 C   0  0  0  0  0  0  0  0  0  0  0  0
    0.4700   -0.7050    0.0190 N   0  0  0  0  0  0  0  0  0  0  0  0
   -0.6870   -1.0880    0.6900 C   0  0  0  0  0  0  0  0  0  0  0  0
   -0.5620   -1.8770    1.6100 O   0  0  0  0  0  0  0  0  0  0  0  0
   -2.0230   -0.5630    0.3100 C   0  0  0  0  0  0  0  0  0  0  0  0
   -2.3000    0.3210   -0.6900 C   0  0  0  0  0  0  0  0  0  0  0  0
   -3.6820    0.5380   -0.6960 C   0  0  0  0  0  0  0  0  0  0  0  0
   -4.1610   -0.2230    0.2950 N   0  0  0  0  0  0  0  0  0  0  0  0
   -3.1720   -0.8920    0.9110 N   0  0  0  0  0  0  0  0  0  0  0  0
   -3.3670   -1.8020    2.0270 C   0  0  2  0  0  0  0  0  0  0  0  0
   -2.7470   -1.3100    3.3110 C   0  0  0  0  0  0  0  0  0  0  0  0
   -3.0380   -3.2330    1.6990 C   0  0  0  0  0  0  0  0  0  0  0  0
   -4.8850   -1.8120    2.3100 C   0  0  0  0  0  0  0  0  0  0  0  0
   -4.0030    1.4860   -1.7650 C   0  0  0  0  0  0  0  0  0  0  0  0
   -5.2430    1.9850   -2.1330 C   0  0  0  0  0  0  0  0  0  0  0  0
   -5.3170    2.8700   -3.1710 C   0  0  0  0  0  0  0  0  0  0  0  0
   -4.1540    3.2370   -3.8190 C   0  0  0  0  0  0  0  0  0  0  0  0
   -4.2400    4.1210   -4.8550 F   0  0  0  0  0  0  0  0  0  0  0  0
   -2.9160    2.7410   -3.4540 C   0  0  0  0  0  0  0  0  0  0  0  0
   -2.8450    1.8490   -2.4060 C   0  0  0  0  0  0  0  0  0  0  0  0
   -1.6980    1.1340   -1.7640 C   0  0  0  0  0  0  0  0  0  0  0  0
    2.4840   -1.8080    1.0700 C   0  0  0  0  0  0  0  0  0  0  0  0
    1.9280   -2.6380    2.1370 C   0  0  0  0  0  0  0  0  0  0  0  0
    3.7910   -1.8390    1.0090 O   0  0  0  0  0  0  0  0  0  0  0  0
  1  2  1  0
  2  3  1  0
  3  4  1  1
  3  5  1  0
  5  6  1  0
  6  7  1  0
  6  8  2  3
  8  9  1  0
  8 29  1  0
  9 10  1  0
 10 11  2  0
 10 12  1  0
 12 13  2  0
 12 16  1  0
 13 14  1  0
 13 28  1  0
 14 15  2  0
 14 21  1  0
 15 16  1  0
 16 17  1  0
 17 18  1  1
 17 19  1  0
 17 20  1  0
 21 22  2  0
 21 27  1  0
 22 23  1  0
 23 24  2  0
 24 25  1  0
 24 26  1  0
 26 27  2  0
 27 28  1  0
 29 30  1  0
 29 31  2  0
M  CHG  1   4   1
M  END
