
     RDKit          3D

 31 33  0  0  0  0  0  0  0  0999 V2000
   -7.4830    1.2810   -0.8710 C   0  0  0  0  0  0  0  0  0  0  0  0
   -7.6350   -0.1860   -0.8970 C   0  0  0  0  0  0  0  0  0  0  0  0
   -6.6600   -1.0460   -0.7880 C   0  0  0  0  0  0  0  0  0  0  0  0
   -5.2320   -0.7870   -0.6220 C   0  0  0  0  0  0  0  0  0  0  0  0
   -4.5360    0.4300   -0.8870 N   0  0  0  0  0  0  0  0  0  0  0  0
   -3.3230    0.8180   -0.2380 C   0  0  1  0  0  0  0  0  0  0  0  0
   -3.5210    0.8730    1.2770 C   0  0  0  0  0  0  0  0  0  0  0  0
   -2.5060    1.8890    1.7790 C   0  0  0  0  0  0  0  0  0  0  0  0
   -1.1600    1.4380    1.3050 C   0  0  1  0  0  0  0  0  0  0  0  0
   -0.4690    2.4840    0.4600 C   0  0  0  0  0  0  0  0  0  0  0  0
   -0.2930    1.2800    2.5630 C   0  0  0  0  0  0  0  0  0  0  0  0
   -1.1690    0.0860    0.6420 C   0  0  2  0  0  0  0  0  0  0  0  0
    0.1980   -0.2150    0.2750 N   0  0  0  0  0  0  0  0  0  0  0  0
    0.3390   -1.2270   -0.7220 C   0  0  0  0  0  0  0  0  0  0  0  0
    1.4030   -0.7260   -1.7330 C   0  0  0  0  0  0  0  0  0  0  0  0
    2.5500   -0.5140   -1.1820 O   0  0  0  0  0  0  0  0  0  0  0  0
    3.6930   -0.2940   -0.6230 C   0  0  0  0  0  0  0  0  0  0  0  0
    3.8760    0.6370    0.4260 C   0  0  0  0  0  0  0  0  0  0  0  0
    5.0950    0.8540    1.0020 C   0  0  0  0  0  0  0  0  0  0  0  0
    6.2170    0.1450    0.5590 C   0  0  0  0  0  0  0  0  0  0  0  0
    7.4070    0.4080    1.1780 O   0  0  0  0  0  0  0  0  0  0  0  0
    8.5910   -0.2230    0.8210 C   0  0  0  0  0  0  0  0  0  0  0  0
    8.9770    0.0600   -0.6150 C   0  0  0  0  0  0  0  0  0  0  0  0
    6.0740   -0.7620   -0.4510 C   0  0  0  0  0  0  0  0  0  0  0  0
    4.8570   -0.9840   -1.0330 C   0  0  0  0  0  0  0  0  0  0  0  0
    4.6810   -1.9770   -2.1460 C   0  0  0  0  0  0  0  0  0  0  0  0
   -2.1310   -0.0310   -0.5040 C   0  0  0  0  0  0  0  0  0  0  0  0
   -4.6420   -1.8630   -0.1830 N   0  0  0  0  0  0  0  0  0  0  0  0
   -5.5680   -2.9020   -0.0190 N   0  0  0  0  0  0  0  0  0  0  0  0
   -6.7680   -2.5380   -0.7930 C   0  0  2  0  0  0  0  0  0  0  0  0
   -6.6350   -2.9950   -2.0680 F   0  0  0  0  0  0  0  0  0  0  0  0
  1  2  1  0
  2  3  2  3
  3  4  1  0
  3 30  1  0
  4  5  1  0
  4 28  2  0
  6  5  1  6
  6  7  1  0
  6 27  1  0
  7  8  1  0
  8  9  1  0
  9 10  1  6
  9 11  1  0
  9 12  1  0
 12 13  1  6
 12 27  1  0
 13 14  1  0
 14 15  1  0
 15 16  1  0
 16 17  1  0
 17 18  2  0
 17 25  1  0
 18 19  1  0
 19 20  2  0
 20 21  1  0
 20 24  1  0
 21 22  1  0
 22 23  1  0
 24 25  2  0
 25 26  1  0
 28 29  1  0
 29 30  1  0
 30 31  1  6
M  CHG  1  13   1
M  END
