
     RDKit          3D

 31 33  0  0  0  0  0  0  0  0999 V2000
    2.0820    3.4050   -0.2760 C   0  0  0  0  0  0  0  0  0  0  0  0
    0.6320    3.5810   -0.1840 C   0  0  0  0  0  0  0  0  0  0  0  0
    0.2100    4.9090   -0.0510 C   0  0  0  0  0  0  0  0  0  0  0  0
   -1.1090    5.2470   -0.0810 C   0  0  0  0  0  0  0  0  0  0  0  0
   -2.0390    4.2300   -0.2450 C   0  0  0  0  0  0  0  0  0  0  0  0
   -1.6130    2.9390   -0.3700 C   0  0  0  0  0  0  0  0  0  0  0  0
   -2.6040    1.9070   -0.3690 N   0  0  0  0  0  0  0  0  0  0  0  0
   -3.9510    2.0410   -0.7640 C   0  0  0  0  0  0  0  0  0  0  0  0
   -4.3610    3.1790   -1.1810 O   0  0  0  0  0  0  0  0  0  0  0  0
   -4.9330    0.9320   -0.7270 C   0  0  0  0  0  0  0  0  0  0  0  0
   -4.6760   -0.2700   -0.3350 C   0  0  0  0  0  0  0  0  0  0  0  0
   -5.5870   -1.3930   -0.2750 C   0  0  0  0  0  0  0  0  0  0  0  0
   -5.1240   -2.6440    0.1840 C   0  0  0  0  0  0  0  0  0  0  0  0
   -5.9720   -3.7180    0.2480 C   0  0  0  0  0  0  0  0  0  0  0  0
   -7.2610   -3.6260   -0.1190 N   0  0  0  0  0  0  0  0  0  0  0  0
   -7.7620   -2.4670   -0.5640 C   0  0  0  0  0  0  0  0  0  0  0  0
   -6.9060   -1.3640   -0.6330 C   0  0  0  0  0  0  0  0  0  0  0  0
   -7.4610   -0.2180   -1.0890 F   0  0  0  0  0  0  0  0  0  0  0  0
   -0.2600    2.5420   -0.3470 C   0  0  0  0  0  0  0  0  0  0  0  0
    0.0360    1.1870   -0.6780 C   0  0  0  0  0  0  0  0  0  0  0  0
   -0.9210    0.5920   -1.3840 O   0  0  0  0  0  0  0  0  0  0  0  0
    1.1240    0.3670   -0.3950 N   0  0  0  0  0  0  0  0  0  0  0  0
    1.2400   -1.0360   -0.9620 C   0  0  0  0  0  0  0  0  0  0  0  0
    1.5560   -1.8110    0.2970 C   0  0  0  0  0  0  0  0  0  0  0  0
    2.4850   -0.9380    1.0300 C   0  0  1  0  0  0  0  0  0  0  0  0
    3.9290   -1.2930    0.9210 C   0  0  0  0  0  0  0  0  0  0  0  0
    4.5140   -1.3020   -0.4410 C   0  0  0  0  0  0  0  0  0  0  0  0
    5.9920   -1.6950   -0.3190 C   0  0  2  0  0  0  0  0  0  0  0  0
    6.1440   -3.0590    0.2980 C   0  0  0  0  0  0  0  0  0  0  0  0
    6.7420   -0.7550    0.4530 N   0  0  0  0  0  0  0  0  0  0  0  0
    2.2280    0.4730    0.5040 C   0  0  0  0  0  0  0  0  0  0  0  0
  1  2  1  0
  2  3  2  0
  2 19  1  0
  3  4  1  0
  4  5  2  0
  5  6  1  0
  6  7  1  0
  6 19  2  0
  7  8  1  0
  8  9  2  0
  8 10  1  0
 10 11  2  3
 11 12  1  0
 12 13  2  0
 12 17  1  0
 13 14  1  0
 14 15  2  0
 15 16  1  0
 16 17  2  0
 17 18  1  0
 19 20  1  0
 20 21  2  0
 20 22  1  0
 22 23  1  0
 22 31  1  0
 23 24  1  0
 24 25  1  0
 25 26  1  6
 25 31  1  0
 26 27  1  0
 27 28  1  0
 28 29  1  1
 28 30  1  0
M  CHG  1  15   1
M  END
