
     RDKit          3D

 15 14  0  0  0  0  0  0  0  0999 V2000
    2.9390    0.3290   -1.4350 O   0  0  0  0  0  0  0  0  0  0  0  0
    3.6180    0.3010   -0.0730 P   0  0  2  0  0  0  0  0  0  0  0  0
    3.3900    1.7810    0.7120 O   0  0  0  0  0  0  0  0  0  0  0  0
    5.2720    0.0550   -0.2850 O   0  0  0  0  0  0  0  0  0  0  0  0
    2.9540   -1.0560    0.8780 C   0  0  0  0  0  0  0  0  0  0  0  0
    1.6850   -1.4260    0.7950 C   0  0  0  0  0  0  0  0  0  0  0  0
    0.7660   -0.6830   -0.1310 C   0  0  1  0  0  0  0  0  0  0  0  0
    0.8130   -1.2270   -1.4150 O   0  0  0  0  0  0  0  0  0  0  0  0
   -0.6780   -0.7950    0.3740 C   0  0  1  0  0  0  0  0  0  0  0  0
   -0.7660   -0.2630    1.6520 O   0  0  0  0  0  0  0  0  0  0  0  0
   -1.5130    0.0680   -0.5370 C   0  0  2  0  0  0  0  0  0  0  0  0
   -0.9930    1.3710   -0.4930 O   0  0  0  0  0  0  0  0  0  0  0  0
   -2.9490    0.1600   -0.0590 C   0  0  0  0  0  0  0  0  0  0  0  0
   -3.6890    1.0440   -1.0410 C   0  0  0  0  0  0  0  0  0  0  0  0
   -5.0270    1.1950   -0.6910 O   0  0  0  0  0  0  0  0  0  0  0  0
  1  2  2  0
  2  3  1  1
  2  4  1  0
  2  5  1  0
  5  6  2  3
  6  7  1  0
  7  8  1  6
  7  9  1  0
  9 10  1  1
  9 11  1  0
 11 12  1  1
 11 13  1  0
 13 14  1  0
 14 15  1  0
M  END
