
     RDKit          3D

 28 28  0  0  0  0  0  0  0  0999 V2000
    3.4480    4.6440   -0.4510 O   0  0  0  0  0  0  0  0  0  0  0  0
    4.2390    3.6810   -0.4340 C   0  0  0  0  0  0  0  0  0  0  0  0
    5.5210    3.9300    0.0500 O   0  0  0  0  0  0  0  0  0  0  0  0
    3.8330    2.4490   -0.8770 O   0  0  0  0  0  0  0  0  0  0  0  0
    2.5920    2.0840   -1.3690 C   0  0  0  0  0  0  0  0  0  0  0  0
    1.5230    2.2310   -0.3350 C   0  0  2  0  0  0  0  0  0  0  0  0
    1.2990    3.5100    0.1040 F   0  0  0  0  0  0  0  0  0  0  0  0
    1.8150    1.4350    0.7830 O   0  0  0  0  0  0  0  0  0  0  0  0
    1.8750    0.2040    0.3690 O   0  0  0  0  0  0  0  0  0  0  0  0
    2.9560   -0.4860    0.9190 C   0  0  0  0  0  0  0  0  0  0  0  0
    3.0000   -1.8690    0.4360 C   0  0  0  0  0  0  0  0  0  0  0  0
    2.1190   -2.2630   -0.3700 O   0  0  0  0  0  0  0  0  0  0  0  0
    3.9990   -2.7210    0.8640 O   0  0  0  0  0  0  0  0  0  0  0  0
    4.0690   -4.0000    0.4390 O   0  0  0  0  0  0  0  0  0  0  0  0
    0.2270    1.7640   -0.9190 C   0  0  0  0  0  0  0  0  0  0  0  0
   -0.2630    2.3070   -1.9290 O   0  0  0  0  0  0  0  0  0  0  0  0
   -0.4330    0.7150   -0.3280 O   0  0  0  0  0  0  0  0  0  0  0  0
   -1.6640    0.2080   -0.8130 C   0  0  2  0  0  0  0  0  0  0  0  0
   -1.5290   -0.2510   -2.1210 F   0  0  0  0  0  0  0  0  0  0  0  0
   -2.6910    1.2840   -0.6890 C   0  0  0  0  0  0  0  0  0  0  0  0
   -3.9950    0.8400   -0.7520 O   0  0  0  0  0  0  0  0  0  0  0  0
   -4.2620   -0.1770    0.1590 C   0  0  0  0  0  0  0  0  0  0  0  0
   -3.4290   -1.3730   -0.2620 C   0  0  2  0  0  0  0  0  0  0  0  0
   -3.8300   -2.5550    0.3600 O   0  0  0  0  0  0  0  0  0  0  0  0
   -4.2980   -3.6230   -0.3910 C   0  0  0  0  0  0  0  0  0  0  0  0
   -4.3590   -3.5190   -1.6430 O   0  0  0  0  0  0  0  0  0  0  0  0
   -4.7110   -4.8250    0.1800 O   0  0  0  0  0  0  0  0  0  0  0  0
   -1.9840   -1.0190    0.0260 C   0  0  0  0  0  0  0  0  0  0  0  0
  1  2  2  0
  2  3  1  0
  2  4  1  0
  4  5  1  0
  5  6  1  0
  6  7  1  1
  6  8  1  0
  6 15  1  0
  8  9  1  0
  9 10  1  0
 10 11  1  0
 11 12  2  0
 11 13  1  0
 13 14  1  0
 15 16  2  0
 15 17  1  0
 17 18  1  0
 18 19  1  6
 18 20  1  0
 18 28  1  0
 20 21  1  0
 21 22  1  0
 22 23  1  0
 23 24  1  1
 23 28  1  0
 24 25  1  0
 25 26  2  0
 25 27  1  0
M  END
