
     RDKit          3D

 28 28  0  0  0  0  0  0  0  0999 V2000
   -4.7610   -1.1900    1.5530 O   0  0  0  0  0  0  0  0  0  0  0  0
   -5.1230   -1.6770    0.4750 C   0  0  0  0  0  0  0  0  0  0  0  0
   -6.2850   -2.4550    0.4680 O   0  0  0  0  0  0  0  0  0  0  0  0
   -4.3850   -1.4380   -0.6480 O   0  0  0  0  0  0  0  0  0  0  0  0
   -3.2040   -0.6660   -0.7210 C   0  0  0  0  0  0  0  0  0  0  0  0
   -2.1390   -1.2420    0.1500 C   0  0  0  0  0  0  0  0  0  0  0  0
   -0.8480   -0.4420    0.0970 C   0  0  1  0  0  0  0  0  0  0  0  0
   -1.1450    0.9640    0.5650 C   0  0  0  0  0  0  0  0  0  0  0  0
    0.0560    1.7510    0.5770 O   0  0  0  0  0  0  0  0  0  0  0  0
   -0.0840    3.0670    0.9900 C   0  0  0  0  0  0  0  0  0  0  0  0
   -1.2090    3.5210    1.3290 O   0  0  0  0  0  0  0  0  0  0  0  0
    0.9930    3.9480    1.0530 O   0  0  0  0  0  0  0  0  0  0  0  0
    0.0960   -0.9760    1.0170 O   0  0  0  0  0  0  0  0  0  0  0  0
    1.1310   -1.8170    0.6330 C   0  0  0  0  0  0  0  0  0  0  0  0
    1.5230   -2.8140    1.2910 O   0  0  0  0  0  0  0  0  0  0  0  0
    1.8110   -1.5110   -0.6370 C   0  0  2  0  0  0  0  0  0  0  0  0
    1.7380   -2.6740   -1.4160 F   0  0  0  0  0  0  0  0  0  0  0  0
    3.1720   -1.2150   -0.4930 O   0  0  0  0  0  0  0  0  0  0  0  0
    3.6980   -0.1890    0.2470 C   0  0  0  0  0  0  0  0  0  0  0  0
    2.9080    0.5690    0.8620 O   0  0  0  0  0  0  0  0  0  0  0  0
    5.0680    0.0180    0.3230 O   0  0  0  0  0  0  0  0  0  0  0  0
    5.6270    1.0480    1.0640 C   0  0  0  0  0  0  0  0  0  0  0  0
    4.8590    1.8140    1.6840 O   0  0  0  0  0  0  0  0  0  0  0  0
    7.0160    1.2390    1.1260 O   0  0  0  0  0  0  0  0  0  0  0  0
    1.1550   -0.4230   -1.4210 C   0  0  0  0  0  0  0  0  0  0  0  0
   -0.3440   -0.4100   -1.3010 C   0  0  2  0  0  0  0  0  0  0  0  0
   -0.8070    0.7210   -1.9780 O   0  0  0  0  0  0  0  0  0  0  0  0
   -0.8430   -1.5080   -2.0160 F   0  0  0  0  0  0  0  0  0  0  0  0
  1  2  2  0
  2  3  1  0
  2  4  1  0
  4  5  1  0
  5  6  1  0
  7  6  1  6
  7  8  1  0
  7 13  1  0
  7 26  1  0
  8  9  1  0
  9 10  1  0
 10 11  2  0
 10 12  1  0
 13 14  1  0
 14 15  2  0
 14 16  1  0
 16 17  1  6
 16 18  1  0
 16 25  1  0
 18 19  1  0
 19 20  2  0
 19 21  1  0
 21 22  1  0
 22 23  2  0
 22 24  1  0
 25 26  1  0
 26 27  1  6
 26 28  1  0
M  END
