
     RDKit          3D

 28 28  0  0  0  0  0  0  0  0999 V2000
    6.5750   -0.4720    1.2220 O   0  0  0  0  0  0  0  0  0  0  0  0
    7.0320   -0.0850    0.1130 C   0  0  0  0  0  0  0  0  0  0  0  0
    8.1670    0.7450    0.0540 O   0  0  0  0  0  0  0  0  0  0  0  0
    6.3700   -0.5100   -1.0260 O   0  0  0  0  0  0  0  0  0  0  0  0
    5.2350   -1.3410   -0.9600 C   0  0  0  0  0  0  0  0  0  0  0  0
    4.1280   -0.6890   -0.1910 C   0  0  0  0  0  0  0  0  0  0  0  0
    3.0580   -1.3170   -0.0540 O   0  0  0  0  0  0  0  0  0  0  0  0
    4.2500    0.5590    0.3620 O   0  0  0  0  0  0  0  0  0  0  0  0
    3.3000    1.2600    1.0840 C   0  0  0  0  0  0  0  0  0  0  0  0
    2.0430    1.6160    0.3660 C   0  0  0  0  0  0  0  0  0  0  0  0
    1.3210    0.5510   -0.1050 O   0  0  0  0  0  0  0  0  0  0  0  0
    0.2500    1.0220   -0.7090 O   0  0  0  0  0  0  0  0  0  0  0  0
   -0.8740    0.4370   -0.0800 C   0  0  2  0  0  0  0  0  0  0  0  0
   -0.7980    0.8290    1.2440 F   0  0  0  0  0  0  0  0  0  0  0  0
   -0.7150   -1.0440   -0.2120 C   0  0  0  0  0  0  0  0  0  0  0  0
   -1.8030   -1.7800    0.1740 O   0  0  0  0  0  0  0  0  0  0  0  0
   -2.6270   -1.9450   -0.9390 C   0  0  0  0  0  0  0  0  0  0  0  0
   -3.7150   -0.8660   -0.8020 C   0  0  1  0  0  0  0  0  0  0  0  0
   -4.7800   -1.1860   -1.5790 F   0  0  0  0  0  0  0  0  0  0  0  0
   -4.0380   -0.8050    0.6650 C   0  0  0  0  0  0  0  0  0  0  0  0
   -4.9580    0.1610    1.0440 O   0  0  0  0  0  0  0  0  0  0  0  0
   -6.2540    0.2510    0.6520 C   0  0  0  0  0  0  0  0  0  0  0  0
   -6.7470   -0.5780   -0.1190 O   0  0  0  0  0  0  0  0  0  0  0  0
   -7.1180    1.2750    1.0870 O   0  0  0  0  0  0  0  0  0  0  0  0
   -8.3880    1.3110    0.6670 O   0  0  0  0  0  0  0  0  0  0  0  0
   -3.1940    0.3890   -1.1990 O   0  0  0  0  0  0  0  0  0  0  0  0
   -2.0600    0.9870   -0.7260 C   0  0  0  0  0  0  0  0  0  0  0  0
   -2.0090    2.2580   -0.8650 O   0  0  0  0  0  0  0  0  0  0  0  0
  1  2  2  0
  2  3  1  0
  2  4  1  0
  4  5  1  0
  5  6  1  0
  6  7  2  0
  6  8  1  0
  8  9  1  0
  9 10  1  0
 10 11  1  0
 11 12  1  0
 12 13  1  0
 13 14  1  1
 13 15  1  0
 13 27  1  0
 15 16  1  0
 16 17  1  0
 17 18  1  0
 18 19  1  6
 18 20  1  0
 18 26  1  0
 20 21  1  0
 21 22  1  0
 22 23  2  0
 22 24  1  0
 24 25  1  0
 26 27  1  0
 27 28  2  0
M  END
