
     RDKit          3D

 28 28  0  0  0  0  0  0  0  0999 V2000
   -5.0490   -3.5040    0.9040 O   0  0  0  0  0  0  0  0  0  0  0  0
   -4.4040   -2.4100    0.8670 C   0  0  0  0  0  0  0  0  0  0  0  0
   -3.3420   -2.0690   -0.1490 C   0  0  0  0  0  0  0  0  0  0  0  0
   -3.4220   -0.5610   -0.1040 C   0  0  2  0  0  0  0  0  0  0  0  0
   -4.6160   -0.2300   -0.7450 F   0  0  0  0  0  0  0  0  0  0  0  0
   -2.3760    0.0950   -0.7320 O   0  0  0  0  0  0  0  0  0  0  0  0
   -1.0500   -0.0480   -0.3660 C   0  0  0  0  0  0  0  0  0  0  0  0
   -0.8060   -0.8190    0.5880 O   0  0  0  0  0  0  0  0  0  0  0  0
    0.0300    0.6940   -1.0900 C   0  0  2  0  0  0  0  0  0  0  0  0
   -0.0620    0.4420   -2.4520 F   0  0  0  0  0  0  0  0  0  0  0  0
    1.2870    0.4120   -0.5680 O   0  0  0  0  0  0  0  0  0  0  0  0
    1.8560   -0.8560   -0.5240 C   0  0  0  0  0  0  0  0  0  0  0  0
    1.1440   -1.7930   -1.0030 O   0  0  0  0  0  0  0  0  0  0  0  0
    3.2000   -1.1140    0.0410 C   0  0  1  0  0  0  0  0  0  0  0  0
    3.2940   -0.7160    1.4950 C   0  0  0  0  0  0  0  0  0  0  0  0
    4.6030   -1.0080    1.9070 O   0  0  0  0  0  0  0  0  0  0  0  0
    3.5090   -2.5560   -0.1350 C   0  0  0  0  0  0  0  0  0  0  0  0
    3.7440   -3.3450    0.7970 O   0  0  0  0  0  0  0  0  0  0  0  0
    3.5290   -3.0320   -1.4520 O   0  0  0  0  0  0  0  0  0  0  0  0
   -0.2450    2.1430   -0.9010 C   0  0  0  0  0  0  0  0  0  0  0  0
   -1.3530    2.5820   -1.3190 O   0  0  0  0  0  0  0  0  0  0  0  0
    0.6390    3.0140   -0.3010 O   0  0  0  0  0  0  0  0  0  0  0  0
    0.3810    4.3610   -0.1260 C   0  0  0  0  0  0  0  0  0  0  0  0
   -0.7240    4.8000   -0.5420 O   0  0  0  0  0  0  0  0  0  0  0  0
    1.2650    5.2400    0.4760 O   0  0  0  0  0  0  0  0  0  0  0  0
    1.0240    6.5410    0.6480 O   0  0  0  0  0  0  0  0  0  0  0  0
   -3.5870   -0.3030    1.3580 C   0  0  0  0  0  0  0  0  0  0  0  0
   -4.5270   -1.3260    1.7190 O   0  0  0  0  0  0  0  0  0  0  0  0
  1  2  2  0
  2  3  1  0
  2 28  1  0
  3  4  1  0
  4  5  1  6
  4  6  1  0
  4 27  1  0
  6  7  1  0
  7  8  2  0
  7  9  1  0
  9 10  1  6
  9 11  1  0
  9 20  1  0
 11 12  1  0
 12 13  2  0
 12 14  1  0
 14 15  1  1
 14 17  1  0
 15 16  1  0
 17 18  2  0
 17 19  1  0
 20 21  2  0
 20 22  1  0
 22 23  1  0
 23 24  2  0
 23 25  1  0
 25 26  1  0
 27 28  1  0
M  END
