
     RDKit          3D

 21 21  0  0  0  0  0  0  0  0999 V2000
   -6.1110   -1.0440   -0.0250 C   0  0  0  0  0  0  0  0  0  0  0  0
   -4.9040   -0.8110   -0.8350 C   0  0  0  0  0  0  0  0  0  0  0  0
   -4.1290    0.2180   -0.5850 C   0  0  0  0  0  0  0  0  0  0  0  0
   -4.3100    1.2250    0.4460 C   0  0  0  0  0  0  0  0  0  0  0  0
   -5.2160    1.3300    1.2990 O   0  0  0  0  0  0  0  0  0  0  0  0
   -3.2190    2.1180    0.3120 N   0  0  0  0  0  0  0  0  0  0  0  0
   -2.4180    1.6730   -0.7490 C   0  0  0  0  0  0  0  0  0  0  0  0
   -2.8920    0.5750   -1.3100 C   0  0  0  0  0  0  0  0  0  0  0  0
   -2.2130   -0.3180   -2.6610 S   0  0  2  0  0  0  0  0  0  0  0  0
   -1.3960    0.6390   -3.5060 O   0  0  0  0  0  0  0  0  0  0  0  0
   -3.2690   -0.9920   -3.4710 O   0  0  0  0  0  0  0  0  0  0  0  0
   -1.1260   -1.5110   -2.0640 N   0  0  0  0  0  0  0  0  0  0  0  0
   -0.0570   -0.8040   -1.3620 C   0  0  0  0  0  0  0  0  0  0  0  0
    0.9540   -1.7680   -0.7970 C   0  0  0  0  0  0  0  0  0  0  0  0
    1.9640   -1.0500   -0.1330 O   0  0  0  0  0  0  0  0  0  0  0  0
    1.7570   -0.2340    0.9580 C   0  0  0  0  0  0  0  0  0  0  0  0
    0.5870   -0.1180    1.4020 O   0  0  0  0  0  0  0  0  0  0  0  0
    2.8890    0.5070    1.6170 C   0  0  0  0  0  0  0  0  0  0  0  0
    4.1690    0.1920    0.8940 C   0  0  0  0  0  0  0  0  0  0  0  0
    5.3080    0.9340    1.5520 C   0  0  0  0  0  0  0  0  0  0  0  0
    6.6000    0.5990    0.8010 C   0  0  0  0  0  0  0  0  0  0  0  0
  1  2  1  0
  2  3  2  3
  3  4  1  0
  3  8  1  0
  4  5  2  0
  4  6  1  0
  6  7  1  0
  7  8  2  0
  8  9  1  0
  9 10  2  0
  9 11  2  0
  9 12  1  1
 12 13  1  0
 13 14  1  0
 14 15  1  0
 15 16  1  0
 16 17  2  0
 16 18  1  0
 18 19  1  0
 19 20  1  0
 20 21  1  0
M  END
