
     RDKit          3D

 21 21  0  0  0  0  0  0  0  0999 V2000
    6.1150   -0.6940   -0.6720 C   0  0  0  0  0  0  0  0  0  0  0  0
    5.2890    0.3130   -1.2180 O   0  0  0  0  0  0  0  0  0  0  0  0
    3.9820    0.4200   -0.6990 C   0  0  0  0  0  0  0  0  0  0  0  0
    3.1150    1.3780   -1.1790 C   0  0  0  0  0  0  0  0  0  0  0  0
    1.8390    1.4920   -0.6810 C   0  0  0  0  0  0  0  0  0  0  0  0
    1.3940    0.6560    0.3050 C   0  0  0  0  0  0  0  0  0  0  0  0
   -0.2150    0.7680    0.9650 S   0  0  1  0  0  0  0  0  0  0  0  0
   -0.1940    0.2660    2.4070 O   0  0  0  0  0  0  0  0  0  0  0  0
   -0.5630    2.2280    1.0020 O   0  0  0  0  0  0  0  0  0  0  0  0
   -1.3380   -0.2020    0.1280 N   0  0  0  0  0  0  0  0  0  0  0  0
   -0.9620   -1.5790    0.2230 C   0  0  0  0  0  0  0  0  0  0  0  0
   -1.5990   -2.2790    1.3640 C   0  0  0  0  0  0  0  0  0  0  0  0
   -1.3520   -3.4930    1.5770 O   0  0  0  0  0  0  0  0  0  0  0  0
   -2.4990   -1.6340    2.2550 N   0  0  0  0  0  0  0  0  0  0  0  0
   -3.0580   -2.3290    3.2950 O   0  0  0  0  0  0  0  0  0  0  0  0
   -1.5340    0.2470   -1.1990 C   0  0  0  0  0  0  0  0  0  0  0  0
   -2.7650    1.0170   -1.4980 C   0  0  1  0  0  0  0  0  0  0  0  0
   -4.0380    0.2370   -1.2040 C   0  0  0  0  0  0  0  0  0  0  0  0
   -2.8750    2.3820   -0.9250 C   0  0  0  0  0  0  0  0  0  0  0  0
    2.2500   -0.3010    0.7910 C   0  0  0  0  0  0  0  0  0  0  0  0
    3.5460   -0.4280    0.2960 C   0  0  0  0  0  0  0  0  0  0  0  0
  1  2  1  0
  2  3  1  0
  3  4  2  0
  3 21  1  0
  4  5  1  0
  5  6  2  0
  6  7  1  0
  6 20  1  0
  7  8  2  0
  7  9  2  0
  7 10  1  6
 10 11  1  0
 10 16  1  0
 11 12  1  0
 12 13  2  0
 12 14  1  0
 14 15  1  0
 16 17  1  0
 17 18  1  1
 17 19  1  0
 20 21  2  0
M  END
