
     RDKit          3D

 21 21  0  0  0  0  0  0  0  0999 V2000
    8.1770   -0.1210    0.9970 C   0  0  0  0  0  0  0  0  0  0  0  0
    7.7950   -1.5740    0.9140 C   0  0  0  0  0  0  0  0  0  0  0  0
    6.4220   -1.6950    1.2490 O   0  0  0  0  0  0  0  0  0  0  0  0
    5.4570   -1.0400    0.4990 C   0  0  0  0  0  0  0  0  0  0  0  0
    5.8330   -0.3450   -0.4730 O   0  0  0  0  0  0  0  0  0  0  0  0
    4.0630   -1.1130    0.7720 N   0  0  0  0  0  0  0  0  0  0  0  0
    3.1470   -0.3850   -0.0800 C   0  0  0  0  0  0  0  0  0  0  0  0
    1.7430   -0.6300    0.4220 C   0  0  0  0  0  0  0  0  0  0  0  0
    0.7840    0.0810   -0.4010 N   0  0  0  0  0  0  0  0  0  0  0  0
   -0.6100    0.0250   -0.1510 C   0  0  0  0  0  0  0  0  0  0  0  0
   -1.0440   -0.6540    0.8060 O   0  0  0  0  0  0  0  0  0  0  0  0
   -1.4930    0.7930   -1.0620 C   0  0  0  0  0  0  0  0  0  0  0  0
   -2.8550    0.6540   -0.7040 O   0  0  0  0  0  0  0  0  0  0  0  0
   -3.8850    1.2550   -1.3740 C   0  0  0  0  0  0  0  0  0  0  0  0
   -3.6710    1.9700   -2.3520 O   0  0  0  0  0  0  0  0  0  0  0  0
   -5.3030    1.0620   -0.9380 C   0  0  0  0  0  0  0  0  0  0  0  0
   -6.4270    1.5450   -1.4390 C   0  0  0  0  0  0  0  0  0  0  0  0
   -7.6020    1.2240   -0.8630 C   0  0  0  0  0  0  0  0  0  0  0  0
   -7.5660    0.4000    0.2280 C   0  0  0  0  0  0  0  0  0  0  0  0
   -8.6580   -0.1450    1.0900 C   0  0  0  0  0  0  0  0  0  0  0  0
   -5.8240    0.1040    0.4010 S   0  0  0  0  0  0  0  0  0  0  0  0
  1  2  1  0
  2  3  1  0
  3  4  1  0
  4  5  2  0
  4  6  1  0
  6  7  1  0
  7  8  1  0
  8  9  1  0
  9 10  1  0
 10 11  2  0
 10 12  1  0
 12 13  1  0
 13 14  1  0
 14 15  2  0
 14 16  1  0
 16 17  2  0
 16 21  1  0
 17 18  1  0
 18 19  2  0
 19 20  1  0
 19 21  1  0
M  END
