
     RDKit          3D

 21 21  0  0  0  0  0  0  0  0999 V2000
    6.8570    1.0420   -0.6770 C   0  0  0  0  0  0  0  0  0  0  0  0
    6.4110   -0.2510   -0.4130 O   0  0  0  0  0  0  0  0  0  0  0  0
    5.2470   -0.2400    0.3420 C   0  0  0  0  0  0  0  0  0  0  0  0
    4.1090    0.4640   -0.3210 C   0  0  0  0  0  0  0  0  0  0  0  0
    2.8830    0.5230    0.4660 C   0  0  0  0  0  0  0  0  0  0  0  0
    2.0930   -0.6340    0.8560 C   0  0  0  0  0  0  0  0  0  0  0  0
    1.5070   -1.4360   -0.2180 N   0  0  0  0  0  0  0  0  0  0  0  0
    0.0660   -1.2310   -0.0370 N   0  0  0  0  0  0  0  0  0  0  0  0
   -0.7410   -1.2150   -1.1720 C   0  0  0  0  0  0  0  0  0  0  0  0
   -0.2730   -1.4600   -2.3420 O   0  0  0  0  0  0  0  0  0  0  0  0
   -2.1790   -0.8850   -1.0440 C   0  0  0  0  0  0  0  0  0  0  0  0
   -2.6680   -0.5800    0.1330 C   0  0  0  0  0  0  0  0  0  0  0  0
   -4.0690   -0.2280    0.3410 C   0  0  0  0  0  0  0  0  0  0  0  0
   -4.4740    0.0550    1.5780 C   0  0  0  0  0  0  0  0  0  0  0  0
   -5.8240    0.4190    1.9210 C   0  0  0  0  0  0  0  0  0  0  0  0
   -6.2350    0.5120    3.0990 O   0  0  0  0  0  0  0  0  0  0  0  0
   -6.9850    0.7610    0.6680 S   0  0  2  0  0  0  0  0  0  0  0  0
   -7.1840    2.2600    0.6610 O   0  0  0  0  0  0  0  0  0  0  0  0
   -8.2520    0.0320    0.9040 O   0  0  0  0  0  0  0  0  0  0  0  0
   -6.1850    0.3180   -0.8310 C   0  0  0  0  0  0  0  0  0  0  0  0
   -4.9410   -0.0840   -0.7930 C   0  0  0  0  0  0  0  0  0  0  0  0
  1  2  1  0
  2  3  1  0
  3  4  1  0
  4  5  1  0
  5  6  1  0
  6  7  1  0
  7  8  1  0
  8  9  1  0
  9 10  2  0
  9 11  1  0
 11 12  2  3
 12 13  1  0
 13 14  2  0
 13 21  1  0
 14 15  1  0
 15 16  2  0
 15 17  1  0
 17 18  2  0
 17 19  2  0
 17 20  1  6
 20 21  2  0
M  END
