
     RDKit          3D

 21 21  0  0  0  0  0  0  0  0999 V2000
   -6.5370    1.9560    1.0100 C   0  0  0  0  0  0  0  0  0  0  0  0
   -5.2210    1.3300    1.2870 C   0  0  0  0  0  0  0  0  0  0  0  0
   -4.7360    0.3580    0.5480 C   0  0  0  0  0  0  0  0  0  0  0  0
   -3.4660   -0.1620    0.9080 O   0  0  0  0  0  0  0  0  0  0  0  0
   -2.3660    0.1530    0.0830 C   0  0  0  0  0  0  0  0  0  0  0  0
   -1.1600   -0.4840    0.6020 C   0  0  0  0  0  0  0  0  0  0  0  0
   -0.8550   -1.1740    1.4650 O   0  0  0  0  0  0  0  0  0  0  0  0
    0.1620   -0.0030   -0.4720 N   0  0  0  0  0  0  0  0  0  0  0  0
    1.1640   -0.7450    0.2090 C   0  0  0  0  0  0  0  0  0  0  0  0
    1.0950   -1.5740    1.0680 O   0  0  0  0  0  0  0  0  0  0  0  0
    2.4890   -0.3230   -0.3220 N   0  0  0  0  0  0  0  0  0  0  0  0
    3.6820   -0.9200    0.1520 C   0  0  2  0  0  0  0  0  0  0  0  0
    3.7520   -0.7130    1.6820 C   0  0  0  0  0  0  0  0  0  0  0  0
    4.7980   -0.1770   -0.5140 C   0  0  0  0  0  0  0  0  0  0  0  0
    6.1730   -0.6110   -0.1920 C   0  0  0  0  0  0  0  0  0  0  0  0
    7.1440    0.3470   -0.9160 C   0  0  0  0  0  0  0  0  0  0  0  0
   -5.3870   -0.2330   -0.6080 C   0  0  0  0  0  0  0  0  0  0  0  0
   -5.3550   -1.1540   -1.6220 C   0  0  0  0  0  0  0  0  0  0  0  0
   -6.8000   -0.2190   -1.6580 S   0  0  2  0  0  0  0  0  0  0  0  0
   -6.9220    0.9010   -2.6460 O   0  0  0  0  0  0  0  0  0  0  0  0
   -8.0470   -0.7000   -0.9500 O   0  0  0  0  0  0  0  0  0  0  0  0
  1  2  1  0
  2  3  2  3
  3  4  1  0
  3 17  1  0
  4  5  1  0
  5  6  1  0
  6  7  2  0
  6  8  1  0
  8  9  1  0
  9 10  2  0
  9 11  1  0
 11 12  1  0
 12 13  1  1
 12 14  1  0
 14 15  1  0
 15 16  1  0
 17 18  2  0
 17 19  1  0
 19 18  1  6
 19 20  2  0
 19 21  2  0
M  END
