
     RDKit          3D

 21 21  0  0  0  0  0  0  0  0999 V2000
   -1.7150   -0.9030    2.9520 C   0  0  0  0  0  0  0  0  0  0  0  0
   -1.4250   -1.4820    1.5960 C   0  0  0  0  0  0  0  0  0  0  0  0
   -0.3790   -0.6140    0.9220 N   0  0  0  0  0  0  0  0  0  0  0  0
   -0.9020    0.3780    0.0720 C   0  0  0  0  0  0  0  0  0  0  0  0
   -1.2980   -0.0780   -1.3200 C   0  0  1  0  0  0  0  0  0  0  0  0
   -0.2120   -0.7220   -2.1090 C   0  0  0  0  0  0  0  0  0  0  0  0
   -2.5650   -0.8540   -1.4070 C   0  0  0  0  0  0  0  0  0  0  0  0
   -1.6080    1.2490   -2.0830 C   0  0  0  0  0  0  0  0  0  0  0  0
   -2.7110    1.8970   -1.3380 C   0  0  0  0  0  0  0  0  0  0  0  0
   -2.4450    2.7080   -0.4020 O   0  0  0  0  0  0  0  0  0  0  0  0
   -4.0580    1.6280   -1.6540 O   0  0  0  0  0  0  0  0  0  0  0  0
    0.9580   -0.9420    1.1330 C   0  0  0  0  0  0  0  0  0  0  0  0
    1.0340   -2.1310    1.7510 O   0  0  0  0  0  0  0  0  0  0  0  0
    2.2020   -0.3240    0.8590 C   0  0  0  0  0  0  0  0  0  0  0  0
    3.3390   -0.9840    1.1770 C   0  0  0  0  0  0  0  0  0  0  0  0
    4.6840   -0.5380    0.9910 C   0  0  0  0  0  0  0  0  0  0  0  0
    4.9900    0.6160    0.4720 C   0  0  0  0  0  0  0  0  0  0  0  0
    4.0950    1.5870    0.0240 N   0  0  0  0  0  0  0  0  0  0  0  0
    2.3800    1.2580    0.1990 S   0  0  1  0  0  0  0  0  0  0  0  0
    1.8670    1.3000   -1.2030 O   0  0  0  0  0  0  0  0  0  0  0  0
    1.7780    2.3210    1.0880 O   0  0  0  0  0  0  0  0  0  0  0  0
  1  2  1  0
  2  3  1  0
  3  4  1  0
  3 12  1  0
  4  5  1  0
  5  6  1  6
  5  7  1  0
  5  8  1  0
  8  9  1  0
  9 10  2  0
  9 11  1  0
 12 13  2  0
 12 14  1  0
 14 15  2  0
 14 19  1  0
 15 16  1  0
 16 17  2  0
 17 18  1  0
 19 18  1  6
 19 20  2  0
 19 21  2  0
M  END
