
     RDKit          3D

 20 20  0  0  0  0  0  0  0  0999 V2000
    1.4500    5.7530    0.0260 C   0  0  0  0  0  0  0  0  0  0  0  0
    0.2590    5.0290    0.0260 O   0  0  0  0  0  0  0  0  0  0  0  0
    0.2860    3.6440    0.0720 C   0  0  0  0  0  0  0  0  0  0  0  0
    1.4490    3.1070    0.1130 O   0  0  0  0  0  0  0  0  0  0  0  0
   -0.8870    2.8320    0.0750 C   0  0  0  0  0  0  0  0  0  0  0  0
   -0.7600    1.4600    0.1230 C   0  0  0  0  0  0  0  0  0  0  0  0
    0.5170    1.0860    0.1620 O   0  0  0  0  0  0  0  0  0  0  0  0
    1.1590   -0.0650    0.2160 C   0  0  0  0  0  0  0  0  0  0  0  0
    0.5340   -1.1380    0.2430 O   0  0  0  0  0  0  0  0  0  0  0  0
    2.5910   -0.2160    0.2490 N   0  0  0  0  0  0  0  0  0  0  0  0
    3.2530   -1.4940    0.3070 C   0  0  1  0  0  0  0  0  0  0  0  0
    4.2080   -1.5430   -0.8850 C   0  0  0  0  0  0  0  0  0  0  0  0
    4.1180   -1.6200    1.5550 C   0  0  0  0  0  0  0  0  0  0  0  0
   -2.0030    0.7070    0.1230 C   0  0  0  0  0  0  0  0  0  0  0  0
   -3.0700    1.4540    0.0800 O   0  0  0  0  0  0  0  0  0  0  0  0
   -2.2450   -0.7240    0.1630 C   0  0  0  0  0  0  0  0  0  0  0  0
   -3.7130   -0.9370    0.1530 N   0  0  0  0  0  0  0  0  0  0  0  0
   -4.0280   -2.3320    0.1880 C   0  0  2  0  0  0  0  0  0  0  0  0
   -3.6290   -3.2570   -0.8890 C   0  0  0  0  0  0  0  0  0  0  0  0
   -5.0870   -2.9140   -0.6880 C   0  0  0  0  0  0  0  0  0  0  0  0
  1  2  1  0
  2  3  1  0
  3  4  2  0
  3  5  1  0
  5  6  2  3
  6  7  1  0
  6 14  1  0
  7  8  1  0
  8  9  2  0
  8 10  1  0
 10 11  1  0
 11 12  1  6
 11 13  1  0
 14 15  2  0
 14 16  1  0
 16 17  1  0
 18 17  1  6
 18 19  1  0
 18 20  1  0
 19 20  1  0
M  END
