
     RDKit          3D

 25 25  0  0  0  0  0  0  0  0999 V2000
    4.8080    0.1080    3.0020 C   0  0  0  0  0  0  0  0  0  0  0  0
    3.7330    0.2250    2.1520 C   0  0  0  0  0  0  0  0  0  0  0  0
    3.5180   -0.8520    1.3480 O   0  0  0  0  0  0  0  0  0  0  0  0
    2.9860    1.4350    2.2150 C   0  0  0  0  0  0  0  0  0  0  0  0
    1.9770    1.9340    1.6330 C   0  0  0  0  0  0  0  0  0  0  0  0
    1.0550    1.4880    0.5670 C   0  0  0  0  0  0  0  0  0  0  0  0
    0.0390    2.3190    0.2110 C   0  0  0  0  0  0  0  0  0  0  0  0
   -1.0300    2.2720   -0.7160 C   0  0  0  0  0  0  0  0  0  0  0  0
   -2.3640    2.1800   -0.5400 C   0  0  0  0  0  0  0  0  0  0  0  0
   -3.1790    2.1050    0.6290 C   0  0  0  0  0  0  0  0  0  0  0  0
   -3.5860    1.2400    1.5140 C   0  0  0  0  0  0  0  0  0  0  0  0
   -3.3310   -0.1790    1.6670 C   0  0  0  0  0  0  0  0  0  0  0  0
   -2.8030   -0.5330    2.8070 O   0  0  0  0  0  0  0  0  0  0  0  0
   -3.5570   -1.2610    0.7920 N   0  0  0  0  0  0  0  0  0  0  0  0
   -3.2260   -1.3550   -0.5840 C   0  0  0  0  0  0  0  0  0  0  0  0
   -4.0640   -1.6780   -1.4680 O   0  0  0  0  0  0  0  0  0  0  0  0
   -1.8490   -1.0800   -1.1290 C   0  0  0  0  0  0  0  0  0  0  0  0
   -0.8420   -0.9430   -0.0120 C   0  0  0  0  0  0  0  0  0  0  0  0
    0.5450   -0.8370   -0.5020 C   0  0  1  0  0  0  0  0  0  0  0  0
    1.2020   -2.0060   -0.0200 O   0  0  0  0  0  0  0  0  0  0  0  0
    0.5660   -1.0340   -2.0050 C   0  0  0  0  0  0  0  0  0  0  0  0
    0.1850   -0.0860   -2.7340 O   0  0  0  0  0  0  0  0  0  0  0  0
    0.9750   -2.1840   -2.6200 O   0  0  0  0  0  0  0  0  0  0  0  0
    0.9870   -2.3520   -4.0360 C   0  0  0  0  0  0  0  0  0  0  0  0
    1.3190    0.2900   -0.1370 N   0  0  0  0  0  0  0  0  0  0  0  0
  1  2  2  0
  2  3  1  0
  2  4  1  0
  4  5  2  3
  5  6  1  0
  6  7  2  0
  6 25  1  0
  7  8  1  0
  8  9  2  0
  9 10  1  0
 10 11  2  0
 11 12  1  0
 12 13  2  0
 12 14  1  0
 14 15  1  0
 15 16  2  0
 15 17  1  0
 17 18  1  0
 18 19  1  0
 19 20  1  1
 19 21  1  0
 19 25  1  0
 21 22  2  0
 21 23  1  0
 23 24  1  0
M  END
