
     RDKit          3D

 21 22  0  0  0  0  0  0  0  0999 V2000
    5.8180    1.8820    1.1150 N   0  0  0  0  0  0  0  0  0  0  0  0
    4.7320    1.2730    0.6330 C   0  0  0  0  0  0  0  0  0  0  0  0
    4.0370    1.9530   -0.3250 C   0  0  0  0  0  0  0  0  0  0  0  0
    2.8260    1.4010   -0.7200 C   0  0  0  0  0  0  0  0  0  0  0  0
    2.3410    0.2540   -0.2040 N   0  0  0  0  0  0  0  0  0  0  0  0
    0.9860   -0.1600   -0.5000 C   0  0  2  0  0  0  0  0  0  0  0  0
    0.2520   -0.1550    0.7510 O   0  0  0  0  0  0  0  0  0  0  0  0
   -0.8420   -0.7770    0.3630 C   0  0  2  0  0  0  0  0  0  0  0  0
   -2.1280   -0.8090    1.0930 C   0  0  0  0  0  0  0  0  0  0  0  0
   -2.5500    0.5210    1.0410 O   0  0  0  0  0  0  0  0  0  0  0  0
   -4.0270    0.7230    0.3800 P   0  0  0  0  0  0  0  0  0  0  0  0
   -4.7210    1.2880    1.5360 O   0  0  0  0  0  0  0  0  0  0  0  0
   -5.1210   -0.4760    0.1630 O   0  0  0  0  0  0  0  0  0  0  0  0
   -4.2030    2.1370   -0.5330 O   0  0  0  0  0  0  0  0  0  0  0  0
   -0.4350   -2.0270   -0.3320 C   0  0  1  0  0  0  0  0  0  0  0  0
   -1.4160   -2.4740   -1.2290 O   0  0  0  0  0  0  0  0  0  0  0  0
    0.7870   -1.4960   -1.1070 C   0  0  1  0  0  0  0  0  0  0  0  0
    0.4210   -1.3210   -2.4500 O   0  0  0  0  0  0  0  0  0  0  0  0
    3.0850   -0.3890    0.7130 C   0  0  0  0  0  0  0  0  0  0  0  0
    2.6500   -1.4800    1.2020 O   0  0  0  0  0  0  0  0  0  0  0  0
    4.2670    0.1250    1.1140 N   0  0  0  0  0  0  0  0  0  0  0  0
  1  2  2  0
  2  3  1  0
  2 21  1  0
  3  4  2  0
  4  5  1  0
  6  5  1  1
  5 19  1  0
  6  7  1  0
  6 17  1  0
  7  8  1  0
  8  9  1  1
  8 15  1  0
  9 10  1  0
 10 11  1  0
 11 12  1  0
 11 13  1  0
 11 14  1  0
 15 16  1  6
 15 17  1  0
 17 18  1  6
 19 20  2  0
 19 21  1  0
M  END
