
     RDKit          3D

 25 25  0  0  0  0  0  0  0  0999 V2000
    5.0200   -1.4600    0.5690 C   0  0  0  0  0  0  0  0  0  0  0  0
    3.9660   -1.9710    1.1190 C   0  0  0  0  0  0  0  0  0  0  0  0
    4.2410   -2.9040    2.1570 O   0  0  0  0  0  0  0  0  0  0  0  0
    2.5530   -1.7210    0.8180 C   0  0  0  0  0  0  0  0  0  0  0  0
    1.6660   -2.3930    1.5530 C   0  0  0  0  0  0  0  0  0  0  0  0
    1.9600   -3.3420    2.6360 C   0  0  0  0  0  0  0  0  0  0  0  0
    2.2230   -0.7010   -0.1410 C   0  0  0  0  0  0  0  0  0  0  0  0
    3.2030   -0.2700   -0.8930 O   0  0  0  0  0  0  0  0  0  0  0  0
    0.9880   -0.0560   -0.4290 N   0  0  0  0  0  0  0  0  0  0  0  0
   -0.0970   -0.1010    0.4320 C   0  0  0  0  0  0  0  0  0  0  0  0
   -1.3530    0.2820    0.2660 C   0  0  0  0  0  0  0  0  0  0  0  0
   -2.2480    0.0830    1.4210 C   0  0  0  0  0  0  0  0  0  0  0  0
   -3.5170    0.4060    1.4550 C   0  0  0  0  0  0  0  0  0  0  0  0
   -4.2680    0.1430    2.6760 C   0  0  0  0  0  0  0  0  0  0  0  0
   -5.4860    0.4270    2.7770 O   0  0  0  0  0  0  0  0  0  0  0  0
   -3.6730   -0.4380    3.7960 O   0  0  0  0  0  0  0  0  0  0  0  0
   -1.9120    0.8310   -0.9020 N   0  0  0  0  0  0  0  0  0  0  0  0
   -2.7040    0.1050   -1.8540 C   0  0  2  0  0  0  0  0  0  0  0  0
   -3.0800    0.8080   -3.1200 C   0  0  0  0  0  0  0  0  0  0  0  0
   -4.1230    0.3910   -2.1220 C   0  0  0  0  0  0  0  0  0  0  0  0
    0.9040    0.7020   -1.6690 C   0  0  0  0  0  0  0  0  0  0  0  0
    1.2760    2.1260   -1.4550 C   0  0  0  0  0  0  0  0  0  0  0  0
    1.6020    2.4960   -0.2970 O   0  0  0  0  0  0  0  0  0  0  0  0
    1.2810    3.0610   -2.4660 O   0  0  0  0  0  0  0  0  0  0  0  0
    1.6230    4.4130   -2.3130 C   0  0  0  0  0  0  0  0  0  0  0  0
  1  2  2  0
  2  3  1  0
  2  4  1  0
  4  5  2  3
  4  7  1  0
  5  6  1  0
  7  8  2  0
  7  9  1  0
  9 10  1  0
  9 21  1  0
 10 11  2  3
 11 12  1  0
 11 17  1  0
 12 13  2  3
 13 14  1  0
 14 15  2  0
 14 16  1  0
 18 17  1  1
 18 19  1  0
 18 20  1  0
 19 20  1  0
 21 22  1  0
 22 23  2  0
 22 24  1  0
 24 25  1  0
M  END
