
     RDKit          3D

 25 25  0  0  0  0  0  0  0  0999 V2000
   -3.7890   -2.6060   -0.5240 C   0  0  0  0  0  0  0  0  0  0  0  0
   -2.5250   -1.9540   -0.8270 N   0  0  0  0  0  0  0  0  0  0  0  0
   -2.4960   -0.5710   -0.4370 C   0  0  0  0  0  0  0  0  0  0  0  0
   -3.3440   -0.0340    0.3540 O   0  0  0  0  0  0  0  0  0  0  0  0
   -1.4470    0.3780   -0.9400 C   0  0  0  0  0  0  0  0  0  0  0  0
   -1.1810    1.1840    0.2180 O   0  0  0  0  0  0  0  0  0  0  0  0
   -0.2300    0.8410    1.1360 C   0  0  0  0  0  0  0  0  0  0  0  0
   -0.3190    0.4320    2.3020 O   0  0  0  0  0  0  0  0  0  0  0  0
    1.1690    0.9970    0.6000 C   0  0  1  0  0  0  0  0  0  0  0  0
    1.4540    2.3870    1.0070 N   0  0  0  0  0  0  0  0  0  0  0  0
    0.5840    3.3260    0.3950 C   0  0  0  0  0  0  0  0  0  0  0  0
    1.0210    4.7230    0.8300 C   0  0  0  0  0  0  0  0  0  0  0  0
    2.3220    4.9920    0.4350 O   0  0  0  0  0  0  0  0  0  0  0  0
    2.1450    0.0540    1.2370 C   0  0  0  0  0  0  0  0  0  0  0  0
    3.4180    0.6530    1.6020 C   0  0  0  0  0  0  0  0  0  0  0  0
    3.8600    1.8140    1.4120 C   0  0  0  0  0  0  0  0  0  0  0  0
    5.1810    2.1800    1.8800 O   0  0  0  0  0  0  0  0  0  0  0  0
    1.8670   -1.2220    1.4630 C   0  0  0  0  0  0  0  0  0  0  0  0
    0.9410   -2.2840    1.3690 C   0  0  0  0  0  0  0  0  0  0  0  0
    0.1700   -2.9170    0.5470 C   0  0  0  0  0  0  0  0  0  0  0  0
   -0.3490   -3.0740   -0.7430 C   0  0  0  0  0  0  0  0  0  0  0  0
   -1.4630   -2.7070   -1.4040 C   0  0  0  0  0  0  0  0  0  0  0  0
   -1.7040   -3.2510   -2.7990 C   0  0  0  0  0  0  0  0  0  0  0  0
   -2.7360   -2.9230   -3.5060 C   0  0  0  0  0  0  0  0  0  0  0  0
   -3.7890   -2.0880   -3.2340 O   0  0  0  0  0  0  0  0  0  0  0  0
  1  2  1  0
  2  3  1  0
  2 22  1  0
  3  4  2  0
  3  5  1  0
  5  6  1  0
  6  7  1  0
  7  8  2  0
  7  9  1  0
  9 10  1  1
  9 14  1  0
 10 11  1  0
 11 12  1  0
 12 13  1  0
 14 15  1  0
 14 18  2  0
 15 16  2  3
 16 17  1  0
 18 19  1  0
 19 20  2  0
 20 21  1  0
 21 22  2  0
 22 23  1  0
 23 24  2  3
 24 25  1  0
M  END
