
     RDKit          3D

 25 26  0  0  0  0  0  0  0  0999 V2000
    7.9840   -0.2410   -2.2530 C   0  0  0  0  0  0  0  0  0  0  0  0
    7.3430   -1.1390   -1.3730 O   0  0  0  0  0  0  0  0  0  0  0  0
    6.1310   -0.7480   -0.8180 C   0  0  0  0  0  0  0  0  0  0  0  0
    5.5550    0.4730   -1.1030 C   0  0  0  0  0  0  0  0  0  0  0  0
    4.3520    0.8430   -0.5420 C   0  0  0  0  0  0  0  0  0  0  0  0
    3.6570    0.0130    0.3350 C   0  0  0  0  0  0  0  0  0  0  0  0
    2.4110    0.4430    0.8940 C   0  0  0  0  0  0  0  0  0  0  0  0
    2.0020    1.6410    0.6620 O   0  0  0  0  0  0  0  0  0  0  0  0
    1.6330   -0.4280    1.6920 N   0  0  0  0  0  0  0  0  0  0  0  0
    0.3810    0.0250    2.2460 C   0  0  0  0  0  0  0  0  0  0  0  0
   -0.5660    0.4230    1.1840 C   0  0  0  0  0  0  0  0  0  0  0  0
   -1.7360   -0.1570    1.0260 C   0  0  0  0  0  0  0  0  0  0  0  0
   -2.6500    0.2840   -0.0590 C   0  0  0  0  0  0  0  0  0  0  0  0
   -4.0530   -0.0920    0.3300 C   0  0  2  0  0  0  0  0  0  0  0  0
   -5.0400    0.7970   -0.2250 N   0  0  0  0  0  0  0  0  0  0  0  0
   -6.0480    0.2550   -1.0650 C   0  0  0  0  0  0  0  0  0  0  0  0
   -6.0950   -0.9740   -1.3310 O   0  0  0  0  0  0  0  0  0  0  0  0
   -7.0610    1.1550   -1.6370 C   0  0  0  0  0  0  0  0  0  0  0  0
   -7.0360    2.3810   -1.3880 O   0  0  0  0  0  0  0  0  0  0  0  0
   -8.0600    0.6700   -2.4610 O   0  0  0  0  0  0  0  0  0  0  0  0
   -4.1530    0.0380    1.8560 C   0  0  0  0  0  0  0  0  0  0  0  0
   -3.4990   -1.2390    2.3900 C   0  0  0  0  0  0  0  0  0  0  0  0
   -2.1620   -1.2010    1.8670 O   0  0  0  0  0  0  0  0  0  0  0  0
    4.2210   -1.2020    0.6250 C   0  0  0  0  0  0  0  0  0  0  0  0
    5.4450   -1.5700    0.0500 C   0  0  0  0  0  0  0  0  0  0  0  0
  1  2  1  0
  2  3  1  0
  3  4  2  0
  3 25  1  0
  4  5  1  0
  5  6  2  0
  6  7  1  0
  6 24  1  0
  7  8  2  0
  7  9  1  0
  9 10  1  0
 10 11  1  0
 11 12  2  3
 12 13  1  0
 12 23  1  0
 13 14  1  0
 14 15  1  6
 14 21  1  0
 15 16  1  0
 16 17  2  0
 16 18  1  0
 18 19  2  0
 18 20  1  0
 21 22  1  0
 22 23  1  0
 24 25  2  0
M  END
