
     RDKit          3D

 25 26  0  0  0  0  0  0  0  0999 V2000
   -4.9720    3.1110   -0.2560 C   0  0  0  0  0  0  0  0  0  0  0  0
   -4.1860    2.3020    0.7620 C   0  0  0  0  0  0  0  0  0  0  0  0
   -3.1630    1.6400    0.0740 O   0  0  0  0  0  0  0  0  0  0  0  0
   -2.2390    0.8030    0.6880 C   0  0  0  0  0  0  0  0  0  0  0  0
   -2.3200    0.6290    1.9090 O   0  0  0  0  0  0  0  0  0  0  0  0
   -1.1690    0.1380   -0.1700 C   0  0  2  0  0  0  0  0  0  0  0  0
   -0.4990    1.2550   -0.8710 C   0  0  0  0  0  0  0  0  0  0  0  0
    0.5960    0.9850   -1.8020 C   0  0  0  0  0  0  0  0  0  0  0  0
    1.7630    0.4050   -1.3940 O   0  0  0  0  0  0  0  0  0  0  0  0
    2.6760    0.9030   -0.4880 C   0  0  0  0  0  0  0  0  0  0  0  0
    2.4470    2.0010    0.0390 O   0  0  0  0  0  0  0  0  0  0  0  0
    3.8620    0.1230   -0.1910 C   0  0  0  0  0  0  0  0  0  0  0  0
    4.1440   -1.0870   -0.7530 C   0  0  0  0  0  0  0  0  0  0  0  0
    5.2920   -1.7940   -0.4360 C   0  0  0  0  0  0  0  0  0  0  0  0
    6.1800   -1.2610    0.4760 C   0  0  0  0  0  0  0  0  0  0  0  0
    7.3490   -1.9090    0.8430 O   0  0  0  0  0  0  0  0  0  0  0  0
    5.9170   -0.0450    1.0530 C   0  0  0  0  0  0  0  0  0  0  0  0
    4.7670    0.6330    0.7170 C   0  0  0  0  0  0  0  0  0  0  0  0
   -1.9720   -0.6710   -1.1690 C   0  0  0  0  0  0  0  0  0  0  0  0
   -2.4540   -1.9830   -0.7190 C   0  0  0  0  0  0  0  0  0  0  0  0
   -3.2170   -2.0450    0.5540 C   0  0  0  0  0  0  0  0  0  0  0  0
   -2.2310   -2.1870    1.6390 N   0  0  0  0  0  0  0  0  0  0  0  0
   -0.9240   -1.6260    1.6440 C   0  0  0  0  0  0  0  0  0  0  0  0
   -0.1140   -2.0060    2.5560 O   0  0  0  0  0  0  0  0  0  0  0  0
   -0.3820   -0.6510    0.7200 N   0  0  0  0  0  0  0  0  0  0  0  0
  1  2  1  0
  2  3  1  0
  3  4  1  0
  4  5  2  0
  4  6  1  0
  6  7  1  6
  6 19  1  0
  6 25  1  0
  7  8  1  0
  8  9  1  0
  9 10  1  0
 10 11  2  0
 10 12  1  0
 12 13  2  0
 12 18  1  0
 13 14  1  0
 14 15  2  0
 15 16  1  0
 15 17  1  0
 17 18  2  0
 19 20  1  0
 20 21  1  0
 21 22  1  0
 22 23  1  0
 23 24  2  0
 23 25  1  0
M  END
