
     RDKit          3D

 27 27  0  0  0  0  0  0  0  0999 V2000
    6.7880   -2.0510   -0.7270 O   0  0  0  0  0  0  0  0  0  0  0  0
    7.7140   -1.2270   -0.7080 C   0  0  0  0  0  0  0  0  0  0  0  0
    8.9490   -1.5560   -1.1690 O   0  0  0  0  0  0  0  0  0  0  0  0
    7.3910    0.0160   -0.1980 N   0  0  0  0  0  0  0  0  0  0  0  0
    6.1780    0.4470    0.2130 C   0  0  0  0  0  0  0  0  0  0  0  0
    6.4850    1.7490    0.5380 O   0  0  0  0  0  0  0  0  0  0  0  0
    4.9280    0.4670    0.5080 N   0  0  0  0  0  0  0  0  0  0  0  0
    3.6990   -0.0330    0.6430 C   0  0  0  0  0  0  0  0  0  0  0  0
    2.9500    0.9060    1.0940 O   0  0  0  0  0  0  0  0  0  0  0  0
    3.1690   -1.2290    0.4130 O   0  0  0  0  0  0  0  0  0  0  0  0
    1.7880   -1.3670    0.6890 C   0  0  0  0  0  0  0  0  0  0  0  0
    1.0420   -0.4560   -0.2110 C   0  0  0  0  0  0  0  0  0  0  0  0
    1.7010    0.1740   -1.0960 N   0  0  0  0  0  0  0  0  0  0  0  0
    1.1570    1.3370   -2.3370 S   0  0  0  0  0  0  0  0  0  0  0  0
   -0.1680    2.3090   -1.5290 C   0  0  0  0  0  0  0  0  0  0  0  0
   -1.2090    1.4400   -1.2180 O   0  0  0  0  0  0  0  0  0  0  0  0
   -1.2930    0.3590   -0.3810 C   0  0  0  0  0  0  0  0  0  0  0  0
   -2.6060    0.0020    0.1420 N   0  0  0  0  0  0  0  0  0  0  0  0
   -3.0700   -1.3380   -0.0440 C   0  0  0  0  0  0  0  0  0  0  0  0
   -3.1470   -2.0860    1.2870 C   0  0  0  0  0  0  0  0  0  0  0  0
   -4.0050   -1.4940    2.1970 O   0  0  0  0  0  0  0  0  0  0  0  0
   -3.3220    1.0340    0.8000 C   0  0  0  0  0  0  0  0  0  0  0  0
   -4.5280    1.5690    0.1190 C   0  0  0  0  0  0  0  0  0  0  0  0
   -5.8340    0.3250   -0.1300 P   0  0  0  0  0  0  0  0  0  0  0  0
   -7.3390    0.7390    0.6490 O   0  0  0  0  0  0  0  0  0  0  0  0
   -6.0760   -0.0280   -1.8120 O   0  0  0  0  0  0  0  0  0  0  0  0
   -0.3480   -0.3950    0.0100 N   0  0  0  0  0  0  0  0  0  0  0  0
  1  2  2  0
  2  3  1  0
  2  4  1  0
  4  5  1  0
  5  6  2  0
  5  7  1  0
  7  8  1  0
  8  9  2  0
  8 10  1  0
 10 11  1  0
 11 12  1  0
 12 13  2  0
 12 27  1  0
 13 14  1  0
 14 15  1  0
 15 16  1  0
 16 17  1  0
 17 18  1  0
 17 27  2  0
 18 19  1  0
 18 22  1  0
 19 20  1  0
 20 21  1  0
 22 23  1  0
 23 24  1  0
 24 25  1  0
 24 26  1  0
M  END
