
     RDKit          3D

  8  7  0  0  0  0  0  0  0  0999 V2000
   -3.6330    0.5370   -0.4850 O   0  0  0  0  0  0  0  0  0  0  0  0
   -2.5170    0.8490    0.1330 O   0  0  0  0  0  0  0  0  0  0  0  0
   -1.5640   -0.1210   -0.1940 C   0  0  0  0  0  0  0  0  0  0  0  0
   -0.2770    0.2730    0.5430 C   0  0  0  0  0  0  0  0  0  0  0  0
    0.6970   -0.6760    0.2380 O   0  0  0  0  0  0  0  0  0  0  0  0
    2.1990   -0.3230    1.0240 P   0  0  0  0  0  0  0  0  0  0  0  0
    3.3750   -1.4490    0.3600 O   0  0  0  0  0  0  0  0  0  0  0  0
    2.7800    1.2690    0.6090 O   0  0  0  0  0  0  0  0  0  0  0  0
  1  2  1  0
  2  3  1  0
  3  4  1  0
  4  5  1  0
  5  6  1  0
  6  7  1  0
  6  8  1  0
M  END
