
     RDKit          3D

 24 26  0  0  0  0  0  0  0  0999 V2000
    4.9890   -1.2320   -1.5840 N   0  0  0  0  0  0  0  0  0  0  0  0
    4.2580   -0.5530   -0.5540 C   0  0  0  0  0  0  0  0  0  0  0  0
    2.9200   -0.5040   -0.6030 N   0  0  0  0  0  0  0  0  0  0  0  0
    2.1870    0.1280    0.3510 C   0  0  0  0  0  0  0  0  0  0  0  0
    2.8210    0.7440    1.4110 C   0  0  0  0  0  0  0  0  0  0  0  0
    1.8490    1.2730    2.1760 N   0  0  0  0  0  0  0  0  0  0  0  0
    0.6610    0.9970    1.6130 C   0  0  0  0  0  0  0  0  0  0  0  0
    0.8470    0.2990    0.4990 N   0  0  0  0  0  0  0  0  0  0  0  0
   -0.1420   -0.2110   -0.4220 C   0  0  2  0  0  0  0  0  0  0  0  0
   -0.2200    0.6300   -1.4940 O   0  0  0  0  0  0  0  0  0  0  0  0
   -1.5150    1.0310   -1.6740 C   0  0  2  0  0  0  0  0  0  0  0  0
   -1.5690    2.4440   -2.2130 C   0  0  0  0  0  0  0  0  0  0  0  0
   -0.9710    3.3570   -1.3640 O   0  0  0  0  0  0  0  0  0  0  0  0
   -2.1460    0.9750   -0.2750 C   0  0  1  0  0  0  0  0  0  0  0  0
   -3.5360    0.8530   -0.3830 O   0  0  0  0  0  0  0  0  0  0  0  0
   -1.5110   -0.3050    0.2270 C   0  0  1  0  0  0  0  0  0  0  0  0
   -2.2520   -1.3530   -0.2260 O   0  0  0  0  0  0  0  0  0  0  0  0
   -2.5900   -2.3570    1.0530 P   0  0  0  0  0  0  0  0  0  0  0  0
   -3.5750   -1.3360    1.6160 O   0  0  0  0  0  0  0  0  0  0  0  0
   -3.8210   -3.4650    0.9220 O   0  0  0  0  0  0  0  0  0  0  0  0
   -1.5930   -2.3980    2.3440 O   0  0  0  0  0  0  0  0  0  0  0  0
    4.1870    0.6900    1.4540 C   0  0  0  0  0  0  0  0  0  0  0  0
    4.8100    1.2280    2.3860 O   0  0  0  0  0  0  0  0  0  0  0  0
    4.8650    0.0510    0.4840 N   0  0  0  0  0  0  0  0  0  0  0  0
  1  2  1  0
  2  3  2  0
  2 24  1  0
  3  4  1  0
  4  5  2  0
  4  8  1  0
  5  6  1  0
  5 22  1  0
  6  7  2  0
  7  8  1  0
  9  8  1  1
  9 10  1  0
  9 16  1  0
 10 11  1  0
 11 12  1  1
 11 14  1  0
 12 13  1  0
 14 15  1  6
 14 16  1  0
 16 17  1  6
 17 18  1  0
 18 19  1  0
 18 20  1  0
 18 21  1  0
 22 23  2  0
 22 24  1  0
M  END
