
     RDKit          3D

 27 27  0  0  0  0  0  0  0  0999 V2000
    6.5220   -0.6900    0.8300 N   0  0  0  0  0  0  0  0  0  0  0  0
    6.0550    0.2010    0.0210 C   0  0  0  0  0  0  0  0  0  0  0  0
    4.6920    0.5560    0.1230 N   0  0  0  0  0  0  0  0  0  0  0  0
    3.7170   -0.3550    0.7340 C   0  0  0  0  0  0  0  0  0  0  0  0
    2.3340    0.3180    0.6930 C   0  0  0  0  0  0  0  0  0  0  0  0
    2.0570    0.5400   -0.6250 O   0  0  0  0  0  0  0  0  0  0  0  0
    0.8650    1.1450   -0.9200 C   0  0  0  0  0  0  0  0  0  0  0  0
   -0.3520    0.4530   -0.5470 C   0  0  0  0  0  0  0  0  0  0  0  0
   -0.3630   -0.7100   -0.0440 N   0  0  0  0  0  0  0  0  0  0  0  0
   -1.4390   -1.4130    0.3240 O   0  0  0  0  0  0  0  0  0  0  0  0
   -2.7710   -1.0520    0.2470 C   0  0  0  0  0  0  0  0  0  0  0  0
   -3.7170   -2.0380    0.7310 C   0  0  0  0  0  0  0  0  0  0  0  0
   -3.2530   -3.1470    1.1850 O   0  0  0  0  0  0  0  0  0  0  0  0
   -5.1180   -1.9100    0.7600 N   0  0  0  0  0  0  0  0  0  0  0  0
   -5.9450   -2.9640    1.2680 C   0  0  0  0  0  0  0  0  0  0  0  0
   -5.4360   -4.0240    1.6980 O   0  0  0  0  0  0  0  0  0  0  0  0
   -7.3020   -2.7930    1.2770 O   0  0  0  0  0  0  0  0  0  0  0  0
   -3.1530    0.1030   -0.2310 C   0  0  0  0  0  0  0  0  0  0  0  0
   -4.4680    0.4720   -0.3120 O   0  0  0  0  0  0  0  0  0  0  0  0
   -4.9150    1.8120   -0.3510 C   0  0  0  0  0  0  0  0  0  0  0  0
   -6.4170    1.8620   -0.4400 C   0  0  0  0  0  0  0  0  0  0  0  0
   -7.0470    1.2520    0.6370 O   0  0  0  0  0  0  0  0  0  0  0  0
   -1.8980    1.2780   -0.8180 S   0  0  0  0  0  0  0  0  0  0  0  0
    6.8920    0.8200   -0.9590 N   0  0  0  0  0  0  0  0  0  0  0  0
    8.6150    0.3230   -1.0270 P   0  0  0  0  0  0  0  0  0  0  0  0
    9.5260    1.4050   -0.0410 O   0  0  0  0  0  0  0  0  0  0  0  0
    8.7880   -1.2950   -0.4400 O   0  0  0  0  0  0  0  0  0  0  0  0
  1  2  2  0
  2  3  1  0
  2 24  1  0
  3  4  1  0
  4  5  1  0
  5  6  1  0
  6  7  1  0
  7  8  1  0
  8  9  2  0
  8 23  1  0
  9 10  1  0
 10 11  1  0
 11 12  1  0
 11 18  2  0
 12 13  2  0
 12 14  1  0
 14 15  1  0
 15 16  2  0
 15 17  1  0
 18 19  1  0
 18 23  1  0
 19 20  1  0
 20 21  1  0
 21 22  1  0
 24 25  1  0
 25 26  1  0
 25 27  1  0
M  END
