
     RDKit          3D

 27 27  0  0  0  0  0  0  0  0999 V2000
   -6.5120   -3.0610    2.6290 C   0  0  0  0  0  0  0  0  0  0  0  0
   -5.2610   -2.5360    2.1770 O   0  0  0  0  0  0  0  0  0  0  0  0
   -5.1580   -1.6960    1.0880 C   0  0  0  0  0  0  0  0  0  0  0  0
   -6.1830   -1.3640    0.4550 O   0  0  0  0  0  0  0  0  0  0  0  0
   -3.8620   -1.1780    0.6530 C   0  0  0  0  0  0  0  0  0  0  0  0
   -3.6980   -0.3830   -0.3640 C   0  0  0  0  0  0  0  0  0  0  0  0
   -2.3340   -0.0010   -0.6130 C   0  0  0  0  0  0  0  0  0  0  0  0
   -1.8220    1.0000   -1.2410 C   0  0  0  0  0  0  0  0  0  0  0  0
   -2.5850    2.0480   -1.8890 C   0  0  0  0  0  0  0  0  0  0  0  0
   -3.8390    2.0370   -1.8710 O   0  0  0  0  0  0  0  0  0  0  0  0
   -1.9590    3.0920   -2.5460 O   0  0  0  0  0  0  0  0  0  0  0  0
   -2.6950    4.1000   -3.1680 C   0  0  0  0  0  0  0  0  0  0  0  0
   -3.9530    4.0680   -3.1380 O   0  0  0  0  0  0  0  0  0  0  0  0
   -1.4550   -1.3580    0.2300 S   0  0  1  0  0  0  0  0  0  0  0  0
   -1.2590   -2.3900   -0.5430 O   0  0  0  0  0  0  0  0  0  0  0  0
   -0.1170   -0.7130    1.0820 N   0  0  0  0  0  0  0  0  0  0  0  0
    1.1330   -0.6080    0.4100 C   0  0  0  0  0  0  0  0  0  0  0  0
    1.2160   -0.9900   -0.7790 O   0  0  0  0  0  0  0  0  0  0  0  0
    2.3460   -0.0630    1.0660 C   0  0  0  0  0  0  0  0  0  0  0  0
    3.4550   -0.0810    0.1450 N   0  0  0  0  0  0  0  0  0  0  0  0
    4.7260    0.3930    0.5530 C   0  0  0  0  0  0  0  0  0  0  0  0
    4.8660    0.8410    1.7380 N   0  0  0  0  0  0  0  0  0  0  0  0
    5.8530    0.3860   -0.3130 N   0  0  0  0  0  0  0  0  0  0  0  0
    7.5250    0.4210    0.2780 P   0  0  0  0  0  0  0  0  0  0  0  0
    8.4170   -0.9930   -0.1870 O   0  0  0  0  0  0  0  0  0  0  0  0
    8.3960    1.8230   -0.2220 O   0  0  0  0  0  0  0  0  0  0  0  0
   -2.6640   -1.5170    1.3830 N   0  0  0  0  0  0  0  0  0  0  0  0
  1  2  1  0
  2  3  1  0
  3  4  2  0
  3  5  1  0
  5  6  2  0
  5 27  1  0
  6  7  1  0
  7  8  2  3
  7 14  1  0
  8  9  1  0
  9 10  2  0
  9 11  1  0
 11 12  1  0
 12 13  2  0
 14 15  2  0
 14 16  1  1
 14 27  2  0
 16 17  1  0
 17 18  2  0
 17 19  1  0
 19 20  1  0
 20 21  1  0
 21 22  2  0
 21 23  1  0
 23 24  1  0
 24 25  1  0
 24 26  1  0
M  END
