
     RDKit          3D

  8  7  0  0  0  0  0  0  0  0999 V2000
   -0.1670   -1.6750    0.7580 O   0  0  0  0  0  0  0  0  0  0  0  0
   -0.6400   -0.5910    0.3400 C   0  0  0  0  0  0  0  0  0  0  0  0
   -2.1110   -0.4970    0.0740 C   0  0  0  0  0  0  0  0  0  0  0  0
   -2.4460    0.7760   -0.3810 O   0  0  0  0  0  0  0  0  0  0  0  0
    0.2290    0.4650    0.1470 O   0  0  0  0  0  0  0  0  0  0  0  0
    1.9310    0.2190    0.4980 P   0  0  0  0  0  0  0  0  0  0  0  0
    2.6560   -0.9200   -0.5810 O   0  0  0  0  0  0  0  0  0  0  0  0
    2.7090    1.7630    0.4460 O   0  0  0  0  0  0  0  0  0  0  0  0
  1  2  2  0
  2  3  1  0
  2  5  1  0
  3  4  1  0
  5  6  1  0
  6  7  1  0
  6  8  1  0
M  END
