
     RDKit          3D

 20 21  0  0  0  0  0  0  0  0999 V2000
    5.5440    2.2700    1.6770 C   0  0  0  0  0  0  0  0  0  0  0  0
    5.0720    1.5110    0.5360 N   0  0  0  0  0  0  0  0  0  0  0  0
    3.8370    0.8050    0.5900 C   0  0  0  0  0  0  0  0  0  0  0  0
    3.1860    0.8700    1.6540 O   0  0  0  0  0  0  0  0  0  0  0  0
    3.3190    0.0330   -0.5170 C   0  0  0  0  0  0  0  0  0  0  0  0
    2.1800   -0.6150   -0.4570 C   0  0  0  0  0  0  0  0  0  0  0  0
    1.7250   -1.3860   -1.6540 C   0  0  0  0  0  0  0  0  0  0  0  0
    1.3720   -2.7560   -1.1230 C   0  0  0  0  0  0  0  0  0  0  0  0
    0.1850   -2.7190   -0.1990 C   0  0  0  0  0  0  0  0  0  0  0  0
    0.0230   -1.4080    0.5200 C   0  0  2  0  0  0  0  0  0  0  0  0
   -0.9540   -0.6510   -0.1690 O   0  0  0  0  0  0  0  0  0  0  0  0
   -2.1700   -0.2820    0.3710 C   0  0  0  0  0  0  0  0  0  0  0  0
   -2.3910   -0.6570    1.5480 O   0  0  0  0  0  0  0  0  0  0  0  0
   -3.1700    0.4940   -0.3380 C   0  0  0  0  0  0  0  0  0  0  0  0
   -3.1390    0.9820   -1.5630 C   0  0  0  0  0  0  0  0  0  0  0  0
   -4.3770    1.7120   -1.8780 C   0  0  0  0  0  0  0  0  0  0  0  0
   -5.1700    1.5870   -0.6330 C   0  0  0  0  0  0  0  0  0  0  0  0
   -4.4530    0.8930    0.2110 C   0  0  0  0  0  0  0  0  0  0  0  0
   -4.9280    0.5520    1.6020 C   0  0  0  0  0  0  0  0  0  0  0  0
    1.3020   -0.6460    0.7040 C   0  0  0  0  0  0  0  0  0  0  0  0
  1  2  1  0
  2  3  1  0
  3  4  2  0
  3  5  1  0
  5  6  2  3
  6  7  1  0
  6 20  1  0
  7  8  1  0
  8  9  1  0
  9 10  1  0
 10 11  1  6
 10 20  1  0
 11 12  1  0
 12 13  2  0
 12 14  1  0
 14 15  2  0
 14 18  1  0
 15 16  1  0
 16 17  1  0
 17 18  2  0
 18 19  1  0
M  END
