
     RDKit          3D

 20 21  0  0  0  0  0  0  0  0999 V2000
   -2.2840   -4.6830    1.0670 C   0  0  0  0  0  0  0  0  0  0  0  0
   -2.9960   -3.6180    0.8370 C   0  0  0  0  0  0  0  0  0  0  0  0
   -4.0760   -3.6260   -0.1760 C   0  0  0  0  0  0  0  0  0  0  0  0
   -4.2320   -2.2230   -0.7160 C   0  0  0  0  0  0  0  0  0  0  0  0
   -5.2830   -1.8630   -1.2930 O   0  0  0  0  0  0  0  0  0  0  0  0
   -3.1300   -1.2520   -0.5650 C   0  0  0  0  0  0  0  0  0  0  0  0
   -2.4200   -1.3250    0.5390 C   0  0  0  0  0  0  0  0  0  0  0  0
   -2.7510   -2.3650    1.5770 C   0  0  0  0  0  0  0  0  0  0  0  0
   -1.2980   -0.3780    0.7400 C   0  0  0  0  0  0  0  0  0  0  0  0
   -1.7170    0.9500    0.1540 C   0  0  1  0  0  0  0  0  0  0  0  0
   -0.7290    2.0450    0.3390 C   0  0  0  0  0  0  0  0  0  0  0  0
    0.5990    1.7990   -0.2690 C   0  0  0  0  0  0  0  0  0  0  0  0
    0.8350    0.7550   -0.9270 O   0  0  0  0  0  0  0  0  0  0  0  0
    1.6750    2.7210   -0.1440 N   0  0  0  0  0  0  0  0  0  0  0  0
    2.9870    2.5260   -0.7160 C   0  0  0  0  0  0  0  0  0  0  0  0
    3.6720    1.2920   -0.2000 C   0  0  0  0  0  0  0  0  0  0  0  0
    5.0440    1.1180   -0.8220 C   0  0  0  0  0  0  0  0  0  0  0  0
    5.8630    2.3360   -0.4680 C   0  0  0  0  0  0  0  0  0  0  0  0
   -2.0950    0.8250   -1.3000 C   0  0  0  0  0  0  0  0  0  0  0  0
   -2.8760   -0.3190   -1.5550 O   0  0  0  0  0  0  0  0  0  0  0  0
  1  2  2  0
  2  3  1  0
  2  8  1  0
  3  4  1  0
  4  5  2  0
  4  6  1  0
  6  7  2  0
  6 20  1  0
  7  8  1  0
  7  9  1  0
  9 10  1  0
 10 11  1  6
 10 19  1  0
 11 12  1  0
 12 13  2  0
 12 14  1  0
 14 15  1  0
 15 16  1  0
 16 17  1  0
 17 18  1  0
 19 20  1  0
M  END
