
     RDKit          3D

 20 22  0  0  0  0  0  0  0  0999 V2000
   -1.1420    2.9650   -2.7160 C   0  0  0  0  0  0  0  0  0  0  0  0
   -1.2130    1.9310   -1.7630 O   0  0  0  0  0  0  0  0  0  0  0  0
   -0.0610    1.3310   -1.2620 C   0  0  0  0  0  0  0  0  0  0  0  0
    1.1920    1.7610   -1.7130 C   0  0  0  0  0  0  0  0  0  0  0  0
    2.3190    1.1590   -1.2100 C   0  0  0  0  0  0  0  0  0  0  0  0
    2.2150    0.1550   -0.2820 C   0  0  0  0  0  0  0  0  0  0  0  0
    3.4830   -0.4380    0.2080 C   0  0  2  0  0  0  0  0  0  0  0  0
    3.5190   -1.9390    0.0110 C   0  0  0  0  0  0  0  0  0  0  0  0
    4.5720   -2.3240    0.9400 N   0  0  0  0  0  0  0  0  0  0  0  0
    4.6230   -1.3830    1.9990 C   0  0  0  0  0  0  0  0  0  0  0  0
    5.3940   -1.3980    2.9820 O   0  0  0  0  0  0  0  0  0  0  0  0
    3.5840   -0.3590    1.7340 C   0  0  0  0  0  0  0  0  0  0  0  0
    0.9830   -0.2430    0.1390 C   0  0  0  0  0  0  0  0  0  0  0  0
   -0.2060    0.3320   -0.3370 C   0  0  0  0  0  0  0  0  0  0  0  0
   -1.3590   -0.1570    0.1640 O   0  0  0  0  0  0  0  0  0  0  0  0
   -2.6860    0.1120   -0.0250 C   0  0  1  0  0  0  0  0  0  0  0  0
   -3.5230   -1.1430   -0.2780 C   0  0  0  0  0  0  0  0  0  0  0  0
   -4.5410   -1.2290    0.8170 C   0  0  0  0  0  0  0  0  0  0  0  0
   -3.8380   -0.5640    1.9990 C   0  0  0  0  0  0  0  0  0  0  0  0
   -3.2290    0.6390    1.3170 C   0  0  0  0  0  0  0  0  0  0  0  0
  1  2  1  0
  2  3  1  0
  3  4  2  0
  3 14  1  0
  4  5  1  0
  5  6  2  0
  7  6  1  1
  6 13  1  0
  7  8  1  0
  7 12  1  0
  8  9  1  0
  9 10  1  0
 10 11  2  0
 10 12  1  0
 13 14  2  0
 14 15  1  0
 16 15  1  1
 16 17  1  0
 16 20  1  0
 17 18  1  0
 18 19  1  0
 19 20  1  0
M  END
