
     RDKit          3D

 20 21  0  0  0  0  0  0  0  0999 V2000
    2.5790    1.8510    2.1090 C   0  0  0  0  0  0  0  0  0  0  0  0
    2.9220    0.6110    2.4470 C   0  0  0  0  0  0  0  0  0  0  0  0
    3.1950   -0.4160    1.4550 C   0  0  0  0  0  0  0  0  0  0  0  0
    3.5280   -1.6160    1.8540 C   0  0  0  0  0  0  0  0  0  0  0  0
    3.8080   -2.6630    0.8480 C   0  0  0  0  0  0  0  0  0  0  0  0
    3.0880   -0.1060    0.0190 C   0  0  0  0  0  0  0  0  0  0  0  0
    1.8330    0.3310   -0.4010 O   0  0  0  0  0  0  0  0  0  0  0  0
    0.6370   -0.3340   -0.3140 C   0  0  0  0  0  0  0  0  0  0  0  0
    0.6430   -1.4700    0.2020 O   0  0  0  0  0  0  0  0  0  0  0  0
   -0.6470    0.2260   -0.7960 C   0  0  1  0  0  0  0  0  0  0  0  0
   -1.7130   -0.6400   -0.5200 N   0  0  0  0  0  0  0  0  0  0  0  0
   -2.9790   -0.2950   -1.0530 C   0  0  0  0  0  0  0  0  0  0  0  0
   -3.8710    0.3480   -0.0460 C   0  0  0  0  0  0  0  0  0  0  0  0
   -3.8360   -0.3180    1.1560 O   0  0  0  0  0  0  0  0  0  0  0  0
   -3.1920   -1.5260    1.1160 C   0  0  0  0  0  0  0  0  0  0  0  0
   -1.7240   -1.3820    0.6820 C   0  0  0  0  0  0  0  0  0  0  0  0
   -0.7840    1.6240   -0.2600 C   0  0  0  0  0  0  0  0  0  0  0  0
   -1.2850    2.4890   -1.3700 C   0  0  0  0  0  0  0  0  0  0  0  0
   -0.9280    1.7960   -2.6420 C   0  0  0  0  0  0  0  0  0  0  0  0
   -0.5660    0.3850   -2.3180 C   0  0  0  0  0  0  0  0  0  0  0  0
  1  2  2  0
  2  3  1  0
  3  4  2  3
  3  6  1  0
  4  5  1  0
  6  7  1  0
  7  8  1  0
  8  9  2  0
  8 10  1  0
 10 11  1  6
 10 17  1  0
 10 20  1  0
 11 12  1  0
 11 16  1  0
 12 13  1  0
 13 14  1  0
 14 15  1  0
 15 16  1  0
 17 18  1  0
 18 19  1  0
 19 20  1  0
M  END
