
     RDKit          3D

 20 21  0  0  0  0  0  0  0  0999 V2000
    6.9290    0.2680    0.3140 C   0  0  0  0  0  0  0  0  0  0  0  0
    6.1200   -0.3960    1.0950 C   0  0  0  0  0  0  0  0  0  0  0  0
    4.8310    0.0770    1.3030 O   0  0  0  0  0  0  0  0  0  0  0  0
    3.8370   -0.3640    0.4380 C   0  0  2  0  0  0  0  0  0  0  0  0
    4.0570   -0.0260   -0.9930 C   0  0  0  0  0  0  0  0  0  0  0  0
    2.8790    0.1960   -1.5900 C   0  0  0  0  0  0  0  0  0  0  0  0
    1.7780    0.0200   -0.5900 C   0  0  2  0  0  0  0  0  0  0  0  0
    0.5960    0.8740   -0.8850 C   0  0  0  0  0  0  0  0  0  0  0  0
   -0.4430    0.6370    0.1510 C   0  0  0  0  0  0  0  0  0  0  0  0
   -0.0910    0.8450    1.3400 O   0  0  0  0  0  0  0  0  0  0  0  0
   -1.7500    0.2040   -0.1720 N   0  0  0  0  0  0  0  0  0  0  0  0
   -1.9530    0.0240   -1.6050 C   0  0  0  0  0  0  0  0  0  0  0  0
   -3.3370   -0.4010   -1.9610 C   0  0  0  0  0  0  0  0  0  0  0  0
   -4.3180    0.2910   -1.2490 O   0  0  0  0  0  0  0  0  0  0  0  0
   -4.8060   -0.6080   -0.2960 C   0  0  0  0  0  0  0  0  0  0  0  0
   -3.6620   -1.1010    0.5190 C   0  0  0  0  0  0  0  0  0  0  0  0
   -2.6790    0.0010    0.9160 C   0  0  2  0  0  0  0  0  0  0  0  0
   -3.4590    1.2850    1.1220 C   0  0  0  0  0  0  0  0  0  0  0  0
   -2.0200   -0.4630    2.1880 C   0  0  0  0  0  0  0  0  0  0  0  0
    2.4990    0.3490    0.6940 C   0  0  0  0  0  0  0  0  0  0  0  0
  1  2  2  0
  2  3  1  0
  4  3  1  1
  4  5  1  0
  4 20  1  0
  5  6  2  0
  6  7  1  0
  7  8  1  6
  7 20  1  0
  8  9  1  0
  9 10  2  0
  9 11  1  0
 11 12  1  0
 11 17  1  0
 12 13  1  0
 13 14  1  0
 14 15  1  0
 15 16  1  0
 16 17  1  0
 17 18  1  1
 17 19  1  0
M  END
