
     RDKit          3D

 20 22  0  0  0  0  0  0  0  0999 V2000
   -0.7510    1.4050   -0.6780 C   0  0  0  0  0  0  0  0  0  0  0  0
   -0.7970    0.0740    0.0290 C   0  0  2  0  0  0  0  0  0  0  0  0
   -0.8520    0.3730    1.5120 C   0  0  0  0  0  0  0  0  0  0  0  0
    0.4530   -0.6940   -0.2940 C   0  0  0  0  0  0  0  0  0  0  0  0
    1.6690   -0.0540    0.0990 N   0  0  0  0  0  0  0  0  0  0  0  0
    2.1290   -0.2320    1.3420 C   0  0  0  0  0  0  0  0  0  0  0  0
    3.2770    0.3790    1.7490 C   0  0  0  0  0  0  0  0  0  0  0  0
    4.0040    1.1910    0.9130 C   0  0  0  0  0  0  0  0  0  0  0  0
    5.1690    1.9390    0.9990 C   0  0  0  0  0  0  0  0  0  0  0  0
    5.3980    2.5440   -0.1600 O   0  0  0  0  0  0  0  0  0  0  0  0
    4.4370    2.2270   -0.9980 C   0  0  0  0  0  0  0  0  0  0  0  0
    3.5400    1.3840   -0.3770 C   0  0  0  0  0  0  0  0  0  0  0  0
    2.3660    0.7350   -0.7310 C   0  0  0  0  0  0  0  0  0  0  0  0
    1.9890    0.9500   -1.9370 O   0  0  0  0  0  0  0  0  0  0  0  0
   -2.0190   -0.7020   -0.3980 C   0  0  1  0  0  0  0  0  0  0  0  0
   -2.0190   -0.9630   -1.8940 C   0  0  0  0  0  0  0  0  0  0  0  0
   -2.1530   -2.0260    0.2720 C   0  0  0  0  0  0  0  0  0  0  0  0
   -3.6640   -2.0740    0.5410 C   0  0  0  0  0  0  0  0  0  0  0  0
   -3.9450   -0.6070    0.7600 C   0  0  0  0  0  0  0  0  0  0  0  0
   -3.1280    0.0540   -0.1110 O   0  0  0  0  0  0  0  0  0  0  0  0
  2  1  1  6
  2  3  1  0
  2  4  1  0
  2 15  1  0
  4  5  1  0
  5  6  1  0
  5 13  1  0
  6  7  2  0
  7  8  1  0
  8  9  2  0
  8 12  1  0
  9 10  1  0
 10 11  1  0
 11 12  2  0
 12 13  1  0
 13 14  2  0
 15 16  1  6
 15 17  1  0
 15 20  1  0
 17 18  1  0
 18 19  1  0
 19 20  1  0
M  END
