
     RDKit          3D

 20 22  0  0  0  0  0  0  0  0999 V2000
    0.7750   -1.4610    0.4320 O   0  0  0  0  0  0  0  0  0  0  0  0
    1.2920   -0.7720   -0.4750 C   0  0  0  0  0  0  0  0  0  0  0  0
    0.5850   -0.5710   -1.6430 O   0  0  0  0  0  0  0  0  0  0  0  0
   -0.6950   -1.0830   -1.9170 C   0  0  0  0  0  0  0  0  0  0  0  0
   -1.6870   -0.5680   -0.9090 C   0  0  0  0  0  0  0  0  0  0  0  0
   -3.0720   -1.0950   -1.1720 C   0  0  0  0  0  0  0  0  0  0  0  0
   -4.0010   -0.5250   -0.1100 C   0  0  0  0  0  0  0  0  0  0  0  0
   -3.6640    0.2870    0.8700 C   0  0  0  0  0  0  0  0  0  0  0  0
   -4.7900    0.6720    1.7470 C   0  0  0  0  0  0  0  0  0  0  0  0
   -5.9890    0.2920    0.8740 C   0  0  0  0  0  0  0  0  0  0  0  0
   -5.4580   -0.8040   -0.0170 C   0  0  0  0  0  0  0  0  0  0  0  0
    2.6230   -0.2140   -0.2420 C   0  0  0  0  0  0  0  0  0  0  0  0
    3.3550    0.5710   -1.1240 C   0  0  0  0  0  0  0  0  0  0  0  0
    4.5330    0.8650   -0.4990 C   0  0  0  0  0  0  0  0  0  0  0  0
    4.5160    0.2750    0.7280 C   0  0  0  0  0  0  0  0  0  0  0  0
    3.3570   -0.3730    0.8680 N   0  0  0  0  0  0  0  0  0  0  0  0
    5.7810    0.5580    1.4680 C   0  0  0  0  0  0  0  0  0  0  0  0
    6.6150    1.3600    0.5230 C   0  0  0  0  0  0  0  0  0  0  0  0
    5.7870    1.5880   -0.6950 C   0  0  0  0  0  0  0  0  0  0  0  0
    6.1590    2.2770   -1.6620 O   0  0  0  0  0  0  0  0  0  0  0  0
  1  2  2  0
  2  3  1  0
  2 12  1  0
  3  4  1  0
  4  5  1  0
  5  6  1  0
  6  7  1  0
  7  8  2  0
  7 11  1  0
  8  9  1  0
  9 10  1  0
 10 11  1  0
 12 13  2  0
 12 16  1  0
 13 14  1  0
 14 15  2  0
 14 19  1  0
 15 16  1  0
 15 17  1  0
 17 18  1  0
 18 19  1  0
 19 20  2  0
M  END
