
     RDKit          3D

 16 16  0  0  0  0  0  0  0  0999 V2000
    4.8970    1.2450   -0.7770 O   0  0  0  0  0  0  0  0  0  0  0  0
    5.5390    0.1740   -0.8820 C   0  0  0  0  0  0  0  0  0  0  0  0
    6.9430    0.1810   -0.8970 O   0  0  0  0  0  0  0  0  0  0  0  0
    4.8130   -1.0030   -0.9810 O   0  0  0  0  0  0  0  0  0  0  0  0
    3.4280   -0.9450   -0.9600 C   0  0  0  0  0  0  0  0  0  0  0  0
    2.8230   -1.0240    0.2150 C   0  0  0  0  0  0  0  0  0  0  0  0
    1.3630   -0.9720    0.3360 C   0  0  0  0  0  0  0  0  0  0  0  0
    0.7690   -1.0440    1.4220 O   0  0  0  0  0  0  0  0  0  0  0  0
    0.6060   -0.8340   -0.8270 O   0  0  0  0  0  0  0  0  0  0  0  0
   -0.7690   -0.7810   -0.7540 O   0  0  0  0  0  0  0  0  0  0  0  0
   -1.4120    0.3120   -0.2190 C   0  0  0  0  0  0  0  0  0  0  0  0
   -0.6970    1.2570    0.1980 O   0  0  0  0  0  0  0  0  0  0  0  0
   -2.8350    0.3880   -0.1340 N   0  0  0  0  0  0  0  0  0  0  0  0
   -3.7640    1.3830    0.3640 C   0  0  0  0  0  0  0  0  0  0  0  0
   -4.8570    0.3310    0.4660 C   0  0  0  0  0  0  0  0  0  0  0  0
   -3.9530   -0.4420   -0.4830 C   0  0  0  0  0  0  0  0  0  0  0  0
  1  2  2  0
  2  3  1  0
  2  4  1  0
  4  5  1  0
  5  6  2  3
  6  7  1  0
  7  8  2  0
  7  9  1  0
  9 10  1  0
 10 11  1  0
 11 12  2  0
 11 13  1  0
 13 14  1  0
 13 16  1  0
 14 15  1  0
 15 16  1  0
M  END
