
     RDKit          3D

 17 17  0  0  0  0  0  0  0  0999 V2000
    3.9090    1.0350    0.5560 O   0  0  0  0  0  0  0  0  0  0  0  0
    4.0510    0.5360   -0.5960 C   0  0  0  0  0  0  0  0  0  0  0  0
    5.1770    0.8450   -1.3450 O   0  0  0  0  0  0  0  0  0  0  0  0
    6.1460    1.6620   -0.9080 O   0  0  0  0  0  0  0  0  0  0  0  0
    3.0730   -0.3080   -1.0770 O   0  0  0  0  0  0  0  0  0  0  0  0
    1.9250   -0.6200   -0.3090 C   0  0  0  0  0  0  0  0  0  0  0  0
    1.8310   -0.0990    0.8290 O   0  0  0  0  0  0  0  0  0  0  0  0
    0.9700   -1.4530   -0.7950 O   0  0  0  0  0  0  0  0  0  0  0  0
   -0.1960   -1.8330   -0.1590 C   0  0  0  0  0  0  0  0  0  0  0  0
   -1.1170   -0.6950    0.0880 C   0  0  1  0  0  0  0  0  0  0  0  0
   -0.6170    0.1900    1.0010 F   0  0  0  0  0  0  0  0  0  0  0  0
   -1.4810   -0.0410   -1.1100 O   0  0  0  0  0  0  0  0  0  0  0  0
   -2.0210    1.1990   -0.7090 C   0  0  0  0  0  0  0  0  0  0  0  0
   -3.4160    1.0140   -0.1480 C   0  0  0  0  0  0  0  0  0  0  0  0
   -3.5140   -0.2430    0.5490 N   0  0  0  0  0  0  0  0  0  0  0  0
   -2.4300   -1.1570    0.6570 C   0  0  0  0  0  0  0  0  0  0  0  0
   -2.5950   -2.2640    1.1960 O   0  0  0  0  0  0  0  0  0  0  0  0
  1  2  2  0
  2  3  1  0
  2  5  1  0
  3  4  1  0
  5  6  1  0
  6  7  2  0
  6  8  1  0
  8  9  1  0
  9 10  1  0
 10 11  1  1
 10 12  1  0
 10 16  1  0
 12 13  1  0
 13 14  1  0
 14 15  1  0
 15 16  1  0
 16 17  2  0
M  END
