
     RDKit          3D

 16 16  0  0  0  0  0  0  0  0999 V2000
   -3.4020    1.4430   -1.3570 O   0  0  0  0  0  0  0  0  0  0  0  0
   -4.0760    0.7090   -0.6140 C   0  0  0  0  0  0  0  0  0  0  0  0
   -5.4680    0.8560   -0.6570 O   0  0  0  0  0  0  0  0  0  0  0  0
   -3.4750   -0.2080    0.2140 O   0  0  0  0  0  0  0  0  0  0  0  0
   -2.1000   -0.3670    0.2690 C   0  0  1  0  0  0  0  0  0  0  0  0
   -1.3610    0.8310    0.6900 C   0  0  0  0  0  0  0  0  0  0  0  0
    0.1220    0.7310    0.7800 C   0  0  2  0  0  0  0  0  0  0  0  0
    0.5600    2.0120    1.2110 O   0  0  0  0  0  0  0  0  0  0  0  0
    0.8070    0.5480   -0.5760 C   0  0  0  0  0  0  0  0  0  0  0  0
    2.2320    0.6020   -0.4530 N   0  0  0  0  0  0  0  0  0  0  0  0
    2.8230   -0.5030    0.2430 C   0  0  0  0  0  0  0  0  0  0  0  0
    4.3380   -0.3480    0.3430 C   0  0  0  0  0  0  0  0  0  0  0  0
    4.8830   -1.4320    1.0230 O   0  0  0  0  0  0  0  0  0  0  0  0
   -1.7980   -1.5610    0.9470 O   0  0  0  0  0  0  0  0  0  0  0  0
   -2.2280   -2.1830   -0.2510 C   0  0  0  0  0  0  0  0  0  0  0  0
   -1.6640   -1.0430   -0.8760 O   0  0  0  0  0  0  0  0  0  0  0  0
  1  2  2  0
  2  3  1  0
  2  4  1  0
  4  5  1  0
  5  6  1  1
  5 14  1  0
  5 16  1  0
  6  7  1  0
  7  8  1  6
  7  9  1  0
  9 10  1  0
 10 11  1  0
 11 12  1  0
 12 13  1  0
 14 15  1  0
 15 16  1  0
M  END
