
     RDKit          3D

 16 15  0  0  0  0  0  0  0  0999 V2000
   -2.0910    1.7010   -1.2080 N   0  0  0  0  0  0  0  0  0  0  0  0
   -1.8200    1.1000    0.0770 C   0  0  1  0  0  0  0  0  0  0  0  0
   -2.9720    1.4110    0.9850 C   0  0  0  0  0  0  0  0  0  0  0  0
   -4.1800    0.9140    0.5030 O   0  0  0  0  0  0  0  0  0  0  0  0
   -1.4750   -0.3510    0.0240 C   0  0  1  0  0  0  0  0  0  0  0  0
   -1.2420   -0.8120    1.3420 O   0  0  0  0  0  0  0  0  0  0  0  0
   -2.5490   -1.2220   -0.5580 C   0  0  0  0  0  0  0  0  0  0  0  0
   -2.0600   -2.5500   -0.5450 O   0  0  0  0  0  0  0  0  0  0  0  0
   -0.1750   -0.6100   -0.7110 C   0  0  0  0  0  0  0  0  0  0  0  0
    0.8500    0.0950   -0.0900 O   0  0  0  0  0  0  0  0  0  0  0  0
    2.0780   -0.1020   -0.7220 C   0  0  0  0  0  0  0  0  0  0  0  0
    3.0830    0.7160    0.0540 C   0  0  0  0  0  0  0  0  0  0  0  0
    4.3680    0.6170   -0.4700 O   0  0  0  0  0  0  0  0  0  0  0  0
    5.0330   -0.5840   -0.5260 C   0  0  0  0  0  0  0  0  0  0  0  0
    4.5060   -1.6380   -0.1030 O   0  0  0  0  0  0  0  0  0  0  0  0
    6.3240   -0.5990   -1.0730 O   0  0  0  0  0  0  0  0  0  0  0  0
  2  1  1  6
  2  3  1  0
  2  5  1  0
  3  4  1  0
  5  6  1  1
  5  7  1  0
  5  9  1  0
  7  8  1  0
  9 10  1  0
 10 11  1  0
 11 12  1  0
 12 13  1  0
 13 14  1  0
 14 15  2  0
 14 16  1  0
M  END
