
     RDKit          3D

 16 16  0  0  0  0  0  0  0  0999 V2000
    6.4280   -0.4330    0.1510 O   0  0  0  0  0  0  0  0  0  0  0  0
    5.6680    0.5290   -0.1370 C   0  0  0  0  0  0  0  0  0  0  0  0
    4.3470    0.2490   -0.3780 O   0  0  0  0  0  0  0  0  0  0  0  0
    3.8630   -1.0820   -0.3040 C   0  0  0  0  0  0  0  0  0  0  0  0
    2.4480   -1.0640   -0.6040 N   0  0  0  0  0  0  0  0  0  0  0  0
    1.4950   -0.3430    0.1460 C   0  0  0  0  0  0  0  0  0  0  0  0
    1.9010    0.3230    1.1320 O   0  0  0  0  0  0  0  0  0  0  0  0
    0.1360   -0.3160   -0.1310 O   0  0  0  0  0  0  0  0  0  0  0  0
   -0.7770    0.3980    0.6180 C   0  0  0  0  0  0  0  0  0  0  0  0
   -2.0540    0.3800    0.3010 C   0  0  0  0  0  0  0  0  0  0  0  0
   -3.0260    1.0680    1.0020 O   0  0  0  0  0  0  0  0  0  0  0  0
   -4.2410    1.3590    0.2970 C   0  0  0  0  0  0  0  0  0  0  0  0
   -4.7620   -0.0020   -0.1760 C   0  0  0  0  0  0  0  0  0  0  0  0
   -3.8680   -0.4240   -1.1940 O   0  0  0  0  0  0  0  0  0  0  0  0
   -2.5110   -0.4050   -0.8570 C   0  0  0  0  0  0  0  0  0  0  0  0
   -1.6450   -1.0370   -1.5070 O   0  0  0  0  0  0  0  0  0  0  0  0
  1  2  2  0
  2  3  1  0
  3  4  1  0
  4  5  1  0
  5  6  1  0
  6  7  2  0
  6  8  1  0
  8  9  1  0
  9 10  2  3
 10 11  1  0
 10 15  1  0
 11 12  1  0
 12 13  1  0
 13 14  1  0
 14 15  1  0
 15 16  2  0
M  END
