
     RDKit          3D

 27 28  0  0  0  0  0  0  0  0999 V2000
    8.4710    0.8680   -0.7240 C   0  0  0  0  0  0  0  0  0  0  0  0
    7.1130    0.3540   -0.4680 C   0  0  0  0  0  0  0  0  0  0  0  0
    6.7380   -0.7460   -1.2130 N   0  0  0  0  0  0  0  0  0  0  0  0
    5.5230   -1.2500   -1.0720 C   0  0  0  0  0  0  0  0  0  0  0  0
    4.5750   -0.7060   -0.1840 C   0  0  0  0  0  0  0  0  0  0  0  0
    3.3360   -1.3940   -0.1490 C   0  0  0  0  0  0  0  0  0  0  0  0
    2.1880   -0.4670   -0.5720 N   0  0  0  0  0  0  0  0  0  0  0  0
    1.0050   -0.6690   -0.1450 C   0  0  0  0  0  0  0  0  0  0  0  0
    0.5370   -2.0950    0.2980 C   0  0  0  0  0  0  0  0  0  0  0  0
    0.0460    0.2890   -0.2370 C   0  0  0  0  0  0  0  0  0  0  0  0
   -1.2350    0.2570    0.4020 C   0  0  0  0  0  0  0  0  0  0  0  0
   -2.3510    1.1270   -0.0060 C   0  0  0  0  0  0  0  0  0  0  0  0
   -3.3060    0.9420    1.0390 O   0  0  0  0  0  0  0  0  0  0  0  0
   -4.6400    0.2240    0.4170 P   0  0  0  0  0  0  0  0  0  0  0  0
   -4.0070   -1.1350    0.9230 O   0  0  0  0  0  0  0  0  0  0  0  0
   -4.5160   -0.4260   -1.1580 O   0  0  0  0  0  0  0  0  0  0  0  0
   -5.9430    0.0570    1.2950 O   0  0  0  0  0  0  0  0  0  0  0  0
   -7.3900    0.6070    0.8210 P   0  0  0  0  0  0  0  0  0  0  0  0
   -7.6300    1.1080   -0.7700 O   0  0  0  0  0  0  0  0  0  0  0  0
   -7.8500   -0.7860    0.3750 O   0  0  0  0  0  0  0  0  0  0  0  0
   -7.0220    2.0560    1.1490 O   0  0  0  0  0  0  0  0  0  0  0  0
    0.9140    1.5870   -1.0270 S   0  0  0  0  0  0  0  0  0  0  0  0
    2.5030    0.7170   -1.1560 C   0  0  0  0  0  0  0  0  0  0  0  0
    3.5260    1.1840   -1.6620 O   0  0  0  0  0  0  0  0  0  0  0  0
    4.9370    0.3690    0.5450 C   0  0  0  0  0  0  0  0  0  0  0  0
    4.1090    1.0540    1.4780 N   0  0  0  0  0  0  0  0  0  0  0  0
    6.2050    0.8410    0.3530 N   0  0  0  0  0  0  0  0  0  0  0  0
  1  2  1  0
  2  3  2  0
  2 27  1  0
  3  4  1  0
  4  5  2  0
  5  6  1  0
  5 25  1  0
  6  7  1  0
  7  8  1  0
  7 23  1  0
  8  9  1  0
  8 10  2  0
 10 11  1  0
 10 22  1  0
 11 12  1  0
 12 13  1  0
 13 14  1  0
 14 15  1  0
 14 16  1  0
 14 17  1  0
 17 18  1  0
 18 19  1  0
 18 20  1  0
 18 21  1  0
 22 23  1  0
 23 24  2  0
 25 26  1  0
 25 27  2  0
M  END
