
     RDKit          3D

 17 17  0  0  0  0  0  0  0  0999 V2000
   -0.1640   -2.4370   -1.8490 O   0  0  0  0  0  0  0  0  0  0  0  0
   -0.0370   -1.9780   -0.6610 C   0  0  0  0  0  0  0  0  0  0  0  0
    1.2650   -1.3590   -0.4220 N   0  0  0  0  0  0  0  0  0  0  0  0
    1.3550   -0.1540    0.3990 C   0  0  0  0  0  0  0  0  0  0  0  0
    2.4960    0.0020    1.0720 C   0  0  0  0  0  0  0  0  0  0  0  0
    3.7670   -0.7780    1.0000 C   0  0  0  0  0  0  0  0  0  0  0  0
    4.5170    0.3540    0.5820 O   0  0  0  0  0  0  0  0  0  0  0  0
    5.2100    0.1510   -0.4470 O   0  0  0  0  0  0  0  0  0  0  0  0
    0.4010    0.7800    0.4860 O   0  0  0  0  0  0  0  0  0  0  0  0
    0.2110    1.6230   -0.7640 C   0  0  0  0  0  0  0  0  0  0  0  0
   -1.1790    2.2560   -0.5400 C   0  0  0  0  0  0  0  0  0  0  0  0
   -1.8640    0.9920    0.0240 C   0  0  0  0  0  0  0  0  0  0  0  0
   -3.1460    1.1450    0.3300 O   0  0  0  0  0  0  0  0  0  0  0  0
   -3.8440    0.0460   -0.1540 C   0  0  0  0  0  0  0  0  0  0  0  0
   -3.1660   -1.2560   -0.0840 C   0  0  0  0  0  0  0  0  0  0  0  0
   -2.0360   -1.3900    0.6830 O   0  0  0  0  0  0  0  0  0  0  0  0
   -1.0770   -2.0920    0.2280 O   0  0  0  0  0  0  0  0  0  0  0  0
  1  2  2  0
  2  3  1  0
  2 17  1  0
  3  4  1  0
  4  5  2  3
  4  9  1  0
  5  6  1  0
  6  7  1  0
  7  8  1  0
  9 10  1  0
 10 11  1  0
 11 12  1  0
 12 13  1  0
 13 14  1  0
 14 15  1  0
 15 16  1  0
 16 17  1  0
M  END
