
     RDKit          3D

 17 16  0  0  0  0  0  0  0  0999 V2000
   -1.4770    3.3410    3.2410 O   0  0  0  0  0  0  0  0  0  0  0  0
   -2.1160    3.1030    2.1880 C   0  0  0  0  0  0  0  0  0  0  0  0
   -3.2450    3.8850    1.9420 O   0  0  0  0  0  0  0  0  0  0  0  0
   -1.6850    2.1120    1.3520 O   0  0  0  0  0  0  0  0  0  0  0  0
   -0.5310    1.3160    1.6090 C   0  0  0  0  0  0  0  0  0  0  0  0
   -0.3140    0.3060    0.5030 C   0  0  2  0  0  0  0  0  0  0  0  0
   -1.5560   -0.5110    0.3740 C   0  0  0  0  0  0  0  0  0  0  0  0
   -1.4490   -1.5620   -0.7120 C   0  0  0  0  0  0  0  0  0  0  0  0
   -1.1380   -0.7850   -2.3700 P   0  0  0  0  0  0  0  0  0  0  0  0
   -0.4810   -1.9290   -3.4830 O   0  0  0  0  0  0  0  0  0  0  0  0
   -2.5770   -0.1020   -3.0460 O   0  0  0  0  0  0  0  0  0  0  0  0
    0.8600   -0.4840    0.7890 N   0  0  0  0  0  0  0  0  0  0  0  0
    1.9960   -0.4470   -0.0580 C   0  0  0  0  0  0  0  0  0  0  0  0
    2.0340    0.2790   -1.1010 O   0  0  0  0  0  0  0  0  0  0  0  0
    3.0880   -1.2140    0.2530 O   0  0  0  0  0  0  0  0  0  0  0  0
    4.2730   -1.2350   -0.5480 C   0  0  0  0  0  0  0  0  0  0  0  0
    4.0130   -1.6580   -1.8340 O   0  0  0  0  0  0  0  0  0  0  0  0
  1  2  2  0
  2  3  1  0
  2  4  1  0
  4  5  1  0
  6  5  1  1
  6  7  1  0
  6 12  1  0
  7  8  1  0
  8  9  1  0
  9 10  1  0
  9 11  1  0
 12 13  1  0
 13 14  2  0
 13 15  1  0
 15 16  1  0
 16 17  1  0
M  END
