
     RDKit          3D

  9  8  0  0  0  0  0  0  0  0999 V2000
   -1.2380   -1.0640   -1.5920 O   0  0  0  0  0  0  0  0  0  0  0  0
   -1.5460   -0.1650   -0.6000 C   0  0  0  0  0  0  0  0  0  0  0  0
   -0.3160    0.4070    0.0860 C   0  0  1  0  0  0  0  0  0  0  0  0
   -0.8270    1.4090    1.1100 C   0  0  0  0  0  0  0  0  0  0  0  0
   -1.6240    0.7340    2.0530 O   0  0  0  0  0  0  0  0  0  0  0  0
    0.4450   -0.5850    0.6770 O   0  0  0  0  0  0  0  0  0  0  0  0
    1.7450   -0.6110    0.1840 C   0  0  1  0  0  0  0  0  0  0  0  0
    2.6890   -0.4110    1.1880 O   0  0  0  0  0  0  0  0  0  0  0  0
    2.0320   -1.8450   -0.4070 O   0  0  0  0  0  0  0  0  0  0  0  0
  1  2  1  0
  3  2  1  1
  3  4  1  0
  3  6  1  0
  4  5  1  0
  6  7  1  0
  7  8  1  1
  7  9  1  0
M  END
