
     RDKit          3D

 12 12  0  0  0  0  0  0  0  0999 V2000
    3.3180    0.8740   -0.3550 O   0  0  0  0  0  0  0  0  0  0  0  0
    2.4460   -0.1980   -0.4220 C   0  0  0  0  0  0  0  0  0  0  0  0
    1.0930    0.1320    0.2260 C   0  0  1  0  0  0  0  0  0  0  0  0
    0.5700    1.1950   -0.4590 O   0  0  0  0  0  0  0  0  0  0  0  0
   -0.7620    1.4590   -0.1760 C   0  0  1  0  0  0  0  0  0  0  0  0
   -1.1640    2.6320   -0.7540 O   0  0  0  0  0  0  0  0  0  0  0  0
   -1.5540    0.2510   -0.6580 C   0  0  2  0  0  0  0  0  0  0  0  0
   -2.8960    0.4820   -0.7460 O   0  0  0  0  0  0  0  0  0  0  0  0
   -1.2040   -0.8520    0.3460 C   0  0  2  0  0  0  0  0  0  0  0  0
   -1.3910   -0.3020    1.6170 O   0  0  0  0  0  0  0  0  0  0  0  0
    0.2660   -1.1280    0.1190 C   0  0  2  0  0  0  0  0  0  0  0  0
    0.7690   -2.0620    1.0150 O   0  0  0  0  0  0  0  0  0  0  0  0
  1  2  1  0
  3  2  1  6
  3  4  1  0
  3 11  1  0
  4  5  1  0
  5  6  1  6
  5  7  1  0
  7  8  1  1
  7  9  1  0
  9 10  1  1
  9 11  1  0
 11 12  1  1
M  END
