
     RDKit          3D

  9  8  0  0  0  0  0  0  0  0999 V2000
   -2.9340   -1.3240   -0.2170 O   0  0  0  0  0  0  0  0  0  0  0  0
   -2.0560   -0.3390   -0.6250 C   0  0  0  0  0  0  0  0  0  0  0  0
   -0.9840   -0.1110    0.4210 C   0  0  2  0  0  0  0  0  0  0  0  0
   -1.5440    0.2800    1.6170 O   0  0  0  0  0  0  0  0  0  0  0  0
   -0.1020    0.8320   -0.0780 O   0  0  0  0  0  0  0  0  0  0  0  0
    1.1430    0.2200   -0.2330 C   0  0  1  0  0  0  0  0  0  0  0  0
    1.5880    0.4140   -1.5260 O   0  0  0  0  0  0  0  0  0  0  0  0
    2.1590    0.9070    0.6860 C   0  0  0  0  0  0  0  0  0  0  0  0
    3.3900    0.2940    0.5240 O   0  0  0  0  0  0  0  0  0  0  0  0
  1  2  1  0
  2  3  1  0
  3  4  1  1
  3  5  1  0
  5  6  1  0
  6  7  1  6
  6  8  1  0
  8  9  1  0
M  END
