
     RDKit          3D

 22 23  0  0  0  0  0  0  0  0999 V2000
   -6.1860    0.9640   -0.1230 C   0  0  0  0  0  0  0  0  0  0  0  0
   -5.0640    0.1860    0.5390 C   0  0  2  0  0  0  0  0  0  0  0  0
   -3.7760    0.9550    0.5810 C   0  0  0  0  0  0  0  0  0  0  0  0
   -2.5840    0.2190    0.5860 N   0  0  0  0  0  0  0  0  0  0  0  0
   -1.5720    0.7530   -0.2280 C   0  0  2  0  0  0  0  0  0  0  0  0
   -2.0050    0.7430   -1.6740 C   0  0  0  0  0  0  0  0  0  0  0  0
   -0.2040    0.1290   -0.0290 C   0  0  2  0  0  0  0  0  0  0  0  0
    0.1540    0.3180    1.2720 O   0  0  0  0  0  0  0  0  0  0  0  0
    0.7590    0.8430   -0.9430 C   0  0  0  0  0  0  0  0  0  0  0  0
    2.1250    0.4150   -0.8570 N   0  0  0  0  0  0  0  0  0  0  0  0
    2.9940    0.4910    0.2380 C   0  0  0  0  0  0  0  0  0  0  0  0
    2.5480    1.0120    1.3120 O   0  0  0  0  0  0  0  0  0  0  0  0
    4.3790    0.0210    0.2620 C   0  0  0  0  0  0  0  0  0  0  0  0
    4.9670   -0.5340   -0.7650 C   0  0  0  0  0  0  0  0  0  0  0  0
    6.3810   -1.0240   -0.7700 C   0  0  2  0  0  0  0  0  0  0  0  0
    6.3650   -2.4200   -0.9900 O   0  0  0  0  0  0  0  0  0  0  0  0
    7.0230   -0.8210    0.4520 O   0  0  0  0  0  0  0  0  0  0  0  0
    6.4370   -0.2380    1.5600 C   0  0  0  0  0  0  0  0  0  0  0  0
    5.1810    0.1660    1.4810 C   0  0  0  0  0  0  0  0  0  0  0  0
   -2.5790   -1.1330    0.9430 C   0  0  0  0  0  0  0  0  0  0  0  0
   -3.2500   -2.0340   -0.1060 C   0  0  0  0  0  0  0  0  0  0  0  0
   -4.9420   -1.4120   -0.2770 S   0  0  0  0  0  0  0  0  0  0  0  0
  2  1  1  6
  2  3  1  0
  2 22  1  0
  3  4  1  0
  4  5  1  0
  4 20  1  0
  5  6  1  6
  5  7  1  0
  7  8  1  1
  7  9  1  0
  9 10  1  0
 10 11  1  0
 11 12  2  0
 11 13  1  0
 13 14  2  0
 13 19  1  0
 14 15  1  0
 15 16  1  1
 15 17  1  0
 17 18  1  0
 18 19  2  0
 20 21  1  0
 21 22  1  0
M  END
