
     RDKit          3D

  9  8  0  0  0  0  0  0  0  0999 V2000
   -2.3150    0.3130   -1.9490 O   0  0  0  0  0  0  0  0  0  0  0  0
   -1.5080    0.7380   -0.9120 C   0  0  0  0  0  0  0  0  0  0  0  0
   -1.0390   -0.4120   -0.0680 C   0  0  2  0  0  0  0  0  0  0  0  0
   -2.1360   -1.0800    0.4820 O   0  0  0  0  0  0  0  0  0  0  0  0
   -0.1270    0.0000    1.0410 C   0  0  0  0  0  0  0  0  0  0  0  0
    0.9990    0.6740    0.6480 O   0  0  0  0  0  0  0  0  0  0  0  0
    1.8380   -0.0310   -0.1920 C   0  0  1  0  0  0  0  0  0  0  0  0
    2.0050    0.6100   -1.4220 O   0  0  0  0  0  0  0  0  0  0  0  0
    3.0700   -0.1490    0.4710 O   0  0  0  0  0  0  0  0  0  0  0  0
  1  2  1  0
  2  3  1  0
  3  4  1  1
  3  5  1  0
  5  6  1  0
  6  7  1  0
  7  8  1  6
  7  9  1  0
M  END
