
     RDKit          3D

  9  8  0  0  0  0  0  0  0  0999 V2000
    1.8460   -1.5550   -0.3580 O   0  0  0  0  0  0  0  0  0  0  0  0
    1.9880   -0.5830    0.6330 C   0  0  0  0  0  0  0  0  0  0  0  0
    0.7480   -0.1900    1.0670 O   0  0  0  0  0  0  0  0  0  0  0  0
   -0.0550    0.3500    0.0870 C   0  0  2  0  0  0  0  0  0  0  0  0
   -0.4930    1.7730    0.4330 C   0  0  0  0  0  0  0  0  0  0  0  0
   -1.2910    2.2520   -0.5870 O   0  0  0  0  0  0  0  0  0  0  0  0
   -1.3260   -0.4860    0.0410 C   0  0  1  0  0  0  0  0  0  0  0  0
   -0.9280   -1.7930   -0.2650 O   0  0  0  0  0  0  0  0  0  0  0  0
   -1.8580   -0.4800    1.3320 O   0  0  0  0  0  0  0  0  0  0  0  0
  1  2  1  0
  2  3  1  0
  3  4  1  0
  4  5  1  1
  4  7  1  0
  5  6  1  0
  7  8  1  1
  7  9  1  0
M  END
