
     RDKit          3D

  6  5  0  0  0  0  0  0  0  0999 V2000
    0.0500    1.5260    0.0230 C   0  0  0  0  0  0  0  0  0  0  0  0
    0.0850    0.2490   -0.2830 C   0  0  0  0  0  0  0  0  0  0  0  0
   -1.2010   -0.5120   -0.4550 C   0  0  0  0  0  0  0  0  0  0  0  0
   -1.1860   -1.5290    0.4820 O   0  0  0  0  0  0  0  0  0  0  0  0
    1.2540   -0.4430   -0.4570 O   0  0  0  0  0  0  0  0  0  0  0  0
    2.0870   -0.7700    0.5400 O   0  0  0  0  0  0  0  0  0  0  0  0
  1  2  2  0
  2  3  1  0
  2  5  1  0
  3  4  1  0
  5  6  1  0
M  END
