
     RDKit          3D

  6  5  0  0  0  0  0  0  0  0999 V2000
   -0.1800   -1.3670    0.1740 C   0  0  0  0  0  0  0  0  0  0  0  0
   -0.0690    0.1520   -0.0110 C   0  0  2  0  0  0  0  0  0  0  0  0
   -1.5010    0.6550   -0.0250 C   0  0  0  0  0  0  0  0  0  0  0  0
    0.6080    0.4540   -1.1840 O   0  0  0  0  0  0  0  0  0  0  0  0
    1.7040    1.1540   -0.9340 O   0  0  0  0  0  0  0  0  0  0  0  0
    2.5740    0.4760   -0.2250 O   0  0  0  0  0  0  0  0  0  0  0  0
  2  1  1  6
  2  3  1  0
  2  4  1  0
  4  5  1  0
  5  6  1  0
M  END
