
     RDKit          3D

  6  5  0  0  0  0  0  0  0  0999 V2000
    1.5020    0.4460   -0.7570 O   0  0  0  0  0  0  0  0  0  0  0  0
    0.6990   -0.4360   -0.0100 C   0  0  0  0  0  0  0  0  0  0  0  0
   -0.7660   -0.1240   -0.2510 C   0  0  2  0  0  0  0  0  0  0  0  0
   -1.0660    1.1760    0.1290 O   0  0  0  0  0  0  0  0  0  0  0  0
   -1.4900   -0.9990    0.5870 O   0  0  0  0  0  0  0  0  0  0  0  0
   -1.2540   -0.3830   -1.9070 Cl  0  0  0  0  0  0  0  0  0  0  0  0
  1  2  1  0
  2  3  1  0
  3  4  1  1
  3  5  1  0
  3  6  1  0
M  END
