
     RDKit          3D

  6  5  0  0  0  0  0  0  0  0999 V2000
   -1.6730    0.6910    0.3820 O   0  0  0  0  0  0  0  0  0  0  0  0
   -0.8240   -0.4180    0.4890 C   0  0  0  0  0  0  0  0  0  0  0  0
    0.4410   -0.1150   -0.3120 C   0  0  2  0  0  0  0  0  0  0  0  0
    1.3180   -1.1950   -0.2350 O   0  0  0  0  0  0  0  0  0  0  0  0
    1.0820    0.9720    0.2650 O   0  0  0  0  0  0  0  0  0  0  0  0
    1.2640    2.2740   -0.8040 Cl  0  0  0  0  0  0  0  0  0  0  0  0
  1  2  1  0
  2  3  1  0
  3  4  1  1
  3  5  1  0
  5  6  1  0
M  END
