
     RDKit          3D

  6  5  0  0  0  0  0  0  0  0999 V2000
   -1.5020    1.1470   -0.5990 O   0  0  0  0  0  0  0  0  0  0  0  0
   -0.7690    0.0670   -0.1020 C   0  0  1  0  0  0  0  0  0  0  0  0
   -1.5170   -1.0770    0.0450 O   0  0  0  0  0  0  0  0  0  0  0  0
    0.3280   -0.2240   -0.9010 O   0  0  0  0  0  0  0  0  0  0  0  0
    1.4730   -0.0300   -0.1260 C   0  0  0  0  0  0  0  0  0  0  0  0
    1.5110    1.6670    0.4120 Cl  0  0  0  0  0  0  0  0  0  0  0  0
  2  1  1  6
  2  3  1  0
  2  4  1  0
  4  5  1  0
  5  6  1  0
M  END
