
     RDKit          3D

  6  5  0  0  0  0  0  0  0  0999 V2000
    2.0330   -0.1820   -0.5720 O   0  0  0  0  0  0  0  0  0  0  0  0
    1.4180   -0.0230    0.5840 O   0  0  0  0  0  0  0  0  0  0  0  0
    0.0920   -0.4490    0.4340 C   0  0  0  0  0  0  0  0  0  0  0  0
   -0.6970    0.5030   -0.4470 C   0  0  1  0  0  0  0  0  0  0  0  0
   -1.6300   -0.2560   -1.1720 O   0  0  0  0  0  0  0  0  0  0  0  0
   -1.6020    1.6910    0.4930 Cl  0  0  0  0  0  0  0  0  0  0  0  0
  1  2  1  0
  2  3  1  0
  3  4  1  0
  4  5  1  1
  4  6  1  0
M  END
