
     RDKit          3D

  6  5  0  0  0  0  0  0  0  0999 V2000
    2.0560   -0.2860   -0.0630 C   0  0  0  0  0  0  0  0  0  0  0  0
    0.9600    0.4690   -0.1860 C   0  0  0  0  0  0  0  0  0  0  0  0
   -0.5770   -0.1940   -0.5940 S   0  0  1  0  0  0  0  0  0  0  0  0
   -0.8580   -1.5930   -0.3940 O   0  0  0  0  0  0  0  0  0  0  0  0
   -1.2010    0.4140    1.3760 O   0  0  0  0  0  0  0  0  0  0  0  0
   -1.4760    0.8840   -1.2650 O   0  0  0  0  0  0  0  0  0  0  0  0
  1  2  2  0
  2  3  1  0
  3  4  1  6
  3  5  1  0
  3  6  1  0
M  END
