
     RDKit          3D

 13 13  0  0  0  0  0  0  0  0999 V2000
    0.6890   -1.1630    0.1970 O   0  0  0  0  0  0  0  0  0  0  0  0
    1.0220    0.0060   -0.0890 C   0  0  0  0  0  0  0  0  0  0  0  0
    2.4350    0.3750   -0.3680 C   0  0  0  0  0  0  0  0  0  0  0  0
    3.2770   -0.8760   -0.2350 C   0  0  0  0  0  0  0  0  0  0  0  0
    4.6610   -0.6100   -0.4890 N   0  0  0  0  0  0  0  0  0  0  0  0
    5.4980   -0.8340    0.4020 O   0  0  0  0  0  0  0  0  0  0  0  0
    5.0980   -0.1070   -1.7090 O   0  0  0  0  0  0  0  0  0  0  0  0
   -0.0040    0.9520   -0.1330 O   0  0  0  0  0  0  0  0  0  0  0  0
   -1.3410    0.5750    0.1370 C   0  0  0  0  0  0  0  0  0  0  0  0
   -1.9620    0.5600    1.2800 C   0  0  0  0  0  0  0  0  0  0  0  0
   -3.3710    0.1030    1.1830 C   0  0  0  0  0  0  0  0  0  0  0  0
   -3.6280    0.3060   -0.3060 C   0  0  0  0  0  0  0  0  0  0  0  0
   -2.2610    0.1180   -0.9190 C   0  0  0  0  0  0  0  0  0  0  0  0
  1  2  2  0
  2  3  1  0
  2  8  1  0
  3  4  1  0
  4  5  1  0
  5  6  2  0
  5  7  1  0
  8  9  1  0
  9 10  2  0
  9 13  1  0
 10 11  1  0
 11 12  1  0
 12 13  1  0
M  CHG  2   5   1   7  -1
M  END
