
     RDKit          3D

 13 13  0  0  0  0  0  0  0  0999 V2000
    4.0280   -1.8020    0.6490 O   0  0  0  0  0  0  0  0  0  0  0  0
    3.4570   -0.9850   -0.0840 N   0  0  0  0  0  0  0  0  0  0  0  0
    4.2040   -0.0310   -0.7140 O   0  0  0  0  0  0  0  0  0  0  0  0
    2.0280   -1.0540   -0.2590 C   0  0  0  0  0  0  0  0  0  0  0  0
    1.4070    0.2200    0.1980 C   0  0  0  0  0  0  0  0  0  0  0  0
   -0.0540    0.2630    0.0650 C   0  0  0  0  0  0  0  0  0  0  0  0
   -0.8290   -0.7540   -0.4300 C   0  0  0  0  0  0  0  0  0  0  0  0
   -2.1920   -0.6350   -0.5210 C   0  0  0  0  0  0  0  0  0  0  0  0
   -2.9320   -1.7200   -1.0400 O   0  0  0  0  0  0  0  0  0  0  0  0
   -2.8240    0.5160   -0.1160 C   0  0  0  0  0  0  0  0  0  0  0  0
   -2.0580    1.5440    0.3830 C   0  0  0  0  0  0  0  0  0  0  0  0
   -0.6950    1.4250    0.4740 C   0  0  0  0  0  0  0  0  0  0  0  0
    0.0350    2.4800    0.9810 O   0  0  0  0  0  0  0  0  0  0  0  0
  1  2  2  0
  2  3  1  0
  2  4  1  0
  4  5  1  0
  5  6  1  0
  6  7  2  0
  6 12  1  0
  7  8  1  0
  8  9  1  0
  8 10  2  0
 10 11  1  0
 11 12  2  0
 12 13  1  0
M  CHG  2   2   1   3  -1
M  END
