
     RDKit          3D

 13 13  0  0  0  0  0  0  0  0999 V2000
   -2.5080    2.6070    0.5260 O   0  0  0  0  0  0  0  0  0  0  0  0
   -2.2170    1.4100    0.1850 C   0  0  0  0  0  0  0  0  0  0  0  0
   -0.8390    1.0820   -0.1510 C   0  0  0  0  0  0  0  0  0  0  0  0
   -0.5080   -0.1790   -0.3160 C   0  0  0  0  0  0  0  0  0  0  0  0
    0.8130   -0.5020   -0.6390 O   0  0  0  0  0  0  0  0  0  0  0  0
    1.8730    0.1340    0.0720 C   0  0  0  0  0  0  0  0  0  0  0  0
    3.1910   -0.3850   -0.4620 C   0  0  0  0  0  0  0  0  0  0  0  0
    4.2750    0.2580    0.2560 N   0  0  0  0  0  0  0  0  0  0  0  0
    5.1200   -0.3700    0.9250 O   0  0  0  0  0  0  0  0  0  0  0  0
    4.3560    1.6280    0.1820 O   0  0  0  0  0  0  0  0  0  0  0  0
   -1.4590   -1.2910   -0.1800 C   0  0  0  0  0  0  0  0  0  0  0  0
   -2.6630   -0.9320    0.6490 C   0  0  0  0  0  0  0  0  0  0  0  0
   -3.2720    0.3800    0.1350 C   0  0  0  0  0  0  0  0  0  0  0  0
  1  2  2  0
  2  3  1  0
  2 13  1  0
  3  4  2  0
  4  5  1  0
  4 11  1  0
  5  6  1  0
  6  7  1  0
  7  8  1  0
  8  9  2  0
  8 10  1  0
 11 12  1  0
 12 13  1  0
M  CHG  2   8   1  10  -1
M  END
