
     RDKit          3D

 13 13  0  0  0  0  0  0  0  0999 V2000
    3.2960    0.6520    1.3300 C   0  0  0  0  0  0  0  0  0  0  0  0
    2.1320    0.2730    0.6030 O   0  0  0  0  0  0  0  0  0  0  0  0
    2.1060   -0.9190   -0.0990 C   0  0  0  0  0  0  0  0  0  0  0  0
    3.1440   -1.6290   -0.0550 O   0  0  0  0  0  0  0  0  0  0  0  0
    0.9690   -1.4130   -0.8820 C   0  0  0  0  0  0  0  0  0  0  0  0
   -0.1620   -0.5140   -0.8560 N   0  0  0  0  0  0  0  0  0  0  0  0
   -0.4600    0.5010   -1.6810 C   0  0  0  0  0  0  0  0  0  0  0  0
   -1.6360    1.1090   -1.3050 C   0  0  0  0  0  0  0  0  0  0  0  0
   -2.0790    0.4290   -0.1900 C   0  0  0  0  0  0  0  0  0  0  0  0
   -3.3010    0.7320    0.5520 C   0  0  0  0  0  0  0  0  0  0  0  0
   -4.0440    1.6780    0.1890 O   0  0  0  0  0  0  0  0  0  0  0  0
   -3.6890    0.0060    1.6680 O   0  0  0  0  0  0  0  0  0  0  0  0
   -1.1500   -0.5560    0.0520 C   0  0  0  0  0  0  0  0  0  0  0  0
  1  2  1  0
  2  3  1  0
  3  4  2  0
  3  5  1  0
  5  6  1  0
  6  7  1  0
  6 13  1  0
  7  8  2  0
  8  9  1  0
  9 10  1  0
  9 13  2  0
 10 11  2  0
 10 12  1  0
M  END
