
     RDKit          3D

 12 12  0  0  0  0  0  0  0  0999 V2000
    4.1620    0.3740   -0.3080 C   0  0  0  0  0  0  0  0  0  0  0  0
    2.8990   -0.2100   -0.4930 O   0  0  0  0  0  0  0  0  0  0  0  0
    1.7150    0.2970   -0.0390 C   0  0  0  0  0  0  0  0  0  0  0  0
    1.7390    1.3820    0.6020 O   0  0  0  0  0  0  0  0  0  0  0  0
    0.4250   -0.3670   -0.2670 C   0  0  0  0  0  0  0  0  0  0  0  0
   -0.7080    0.1510    0.1860 C   0  0  0  0  0  0  0  0  0  0  0  0
   -0.7950    1.3330    0.8990 O   0  0  0  0  0  0  0  0  0  0  0  0
   -2.1410    1.5670    1.2120 C   0  0  0  0  0  0  0  0  0  0  0  0
   -2.6270    2.5400    1.8520 O   0  0  0  0  0  0  0  0  0  0  0  0
   -2.8700    0.4430    0.6380 C   0  0  0  0  0  0  0  0  0  0  0  0
   -2.0480   -0.3970    0.0330 C   0  0  0  0  0  0  0  0  0  0  0  0
   -2.3900   -1.6720   -0.6800 C   0  0  0  0  0  0  0  0  0  0  0  0
  1  2  1  0
  2  3  1  0
  3  4  2  0
  3  5  1  0
  5  6  2  3
  6  7  1  0
  6 11  1  0
  7  8  1  0
  8  9  2  0
  8 10  1  0
 10 11  2  0
 11 12  1  0
M  END
