
     RDKit          3D

 13 13  0  0  0  0  0  0  0  0999 V2000
    3.6900   -0.4800   -0.2510 C   0  0  0  0  0  0  0  0  0  0  0  0
    2.4860   -1.2800    0.0960 C   0  0  0  0  0  0  0  0  0  0  0  0
    1.2450   -0.4500    0.1990 C   0  0  0  0  0  0  0  0  0  0  0  0
    1.0700    0.8780    0.0260 C   0  0  0  0  0  0  0  0  0  0  0  0
   -0.2950    1.1560    0.2390 C   0  0  0  0  0  0  0  0  0  0  0  0
   -0.8350    2.4540    0.1910 N   0  0  0  0  0  0  0  0  0  0  0  0
   -0.1200    3.4740    0.4500 O   0  0  0  0  0  0  0  0  0  0  0  0
   -2.1220    2.6940   -0.1240 O   0  0  0  0  0  0  0  0  0  0  0  0
   -0.8500   -0.0570    0.5270 C   0  0  0  0  0  0  0  0  0  0  0  0
   -2.2680   -0.3840    0.8300 C   0  0  0  0  0  0  0  0  0  0  0  0
   -3.0990   -0.6900   -0.3760 C   0  0  0  0  0  0  0  0  0  0  0  0
   -3.2070    0.2830   -1.3320 O   0  0  0  0  0  0  0  0  0  0  0  0
    0.0980   -0.9790    0.4940 O   0  0  0  0  0  0  0  0  0  0  0  0
  1  2  1  0
  2  3  1  0
  3  4  2  0
  3 13  1  0
  4  5  1  0
  5  6  1  0
  5  9  2  0
  6  7  2  0
  6  8  1  0
  9 10  1  0
  9 13  1  0
 10 11  1  0
 11 12  1  0
M  CHG  2   6   1   8  -1
M  END
