
     RDKit          3D

 37 38  0  0  0  0  0  0  0  0999 V2000
   -6.9640   -1.2620   -2.2800 C   0  0  0  0  0  0  0  0  0  0  0  0
   -6.1720   -0.2400   -1.5560 C   0  0  1  0  0  0  0  0  0  0  0  0
   -6.7660    0.4410   -0.3950 C   0  0  0  0  0  0  0  0  0  0  0  0
   -7.1610   -0.2710    0.7930 C   0  0  0  0  0  0  0  0  0  0  0  0
   -6.5680    0.0260    1.9680 C   0  0  0  0  0  0  0  0  0  0  0  0
   -5.5170    1.0440    2.1500 C   0  0  0  0  0  0  0  0  0  0  0  0
   -5.9300    2.1000    3.0630 N   0  0  0  0  0  0  0  0  0  0  0  0
   -8.2330   -1.2910    0.8810 C   0  0  0  0  0  0  0  0  0  0  0  0
   -7.9790   -2.4060    0.1320 O   0  0  0  0  0  0  0  0  0  0  0  0
   -4.8590   -0.8450   -1.2240 N   0  0  0  0  0  0  0  0  0  0  0  0
   -3.6470   -0.3910   -1.7920 C   0  0  0  0  0  0  0  0  0  0  0  0
   -3.7340    0.5660   -2.6050 O   0  0  0  0  0  0  0  0  0  0  0  0
   -2.3740   -0.9490   -1.4950 N   0  0  0  0  0  0  0  0  0  0  0  0
   -2.3330   -2.0460   -0.5530 C   0  0  0  0  0  0  0  0  0  0  0  0
   -0.9880   -2.6260   -0.3320 C   0  0  0  0  0  0  0  0  0  0  0  0
   -0.0530   -2.6040   -1.4800 C   0  0  1  0  0  0  0  0  0  0  0  0
   -0.1730   -3.9470   -2.2150 C   0  0  0  0  0  0  0  0  0  0  0  0
   -0.1250   -1.4510   -2.4000 C   0  0  0  0  0  0  0  0  0  0  0  0
   -1.2010   -0.4310   -2.1160 C   0  0  2  0  0  0  0  0  0  0  0  0
   -0.6600    0.8410   -1.4700 C   0  0  0  0  0  0  0  0  0  0  0  0
   -0.2980    0.7930   -0.1340 N   0  0  0  0  0  0  0  0  0  0  0  0
    1.0310    0.5350    0.3080 C   0  0  2  0  0  0  0  0  0  0  0  0
    1.0770    0.1970    1.7890 C   0  0  0  0  0  0  0  0  0  0  0  0
    2.0300    1.0910    2.5420 C   0  0  0  0  0  0  0  0  0  0  0  0
    3.3960    0.7820    1.9640 C   0  0  0  0  0  0  0  0  0  0  0  0
    3.4280    1.3090    0.5750 C   0  0  1  0  0  0  0  0  0  0  0  0
    4.3310    2.4920    0.5240 C   0  0  0  0  0  0  0  0  0  0  0  0
    4.1330    0.2390   -0.2770 C   0  0  0  0  0  0  0  0  0  0  0  0
    5.4950   -0.0430    0.1710 C   0  0  0  0  0  0  0  0  0  0  0  0
    5.6740   -0.6970    1.2280 O   0  0  0  0  0  0  0  0  0  0  0  0
    6.6140    0.3830   -0.5240 O   0  0  0  0  0  0  0  0  0  0  0  0
    7.9320    0.1130   -0.1000 C   0  0  1  0  0  0  0  0  0  0  0  0
    8.6600   -0.7560   -1.1270 C   0  0  0  0  0  0  0  0  0  0  0  0
    8.7580    1.3490    0.0890 C   0  0  0  0  0  0  0  0  0  0  0  0
    8.1860    2.2860    1.1210 C   0  0  0  0  0  0  0  0  0  0  0  0
    8.1300    1.5870    2.3370 O   0  0  0  0  0  0  0  0  0  0  0  0
    2.0730    1.5310   -0.0390 C   0  0  0  0  0  0  0  0  0  0  0  0
  2  1  1  1
  2  3  1  0
  2 10  1  0
  3  4  1  0
  4  5  2  3
  4  8  1  0
  5  6  1  0
  6  7  1  0
  8  9  1  0
 10 11  1  0
 11 12  2  0
 11 13  1  0
 13 14  1  0
 13 19  1  0
 14 15  1  0
 15 16  1  0
 16 17  1  6
 16 18  1  0
 18 19  1  0
 19 20  1  1
 20 21  1  0
 22 21  1  1
 22 23  1  0
 22 37  1  0
 23 24  1  0
 24 25  1  0
 25 26  1  0
 26 27  1  1
 26 28  1  0
 26 37  1  0
 28 29  1  0
 29 30  2  0
 29 31  1  0
 31 32  1  0
 32 33  1  6
 32 34  1  0
 34 35  1  0
 35 36  1  0
M  CHG  2   7   1  21   1
M  END
