
     RDKit          3D

 37 37  0  0  0  0  0  0  0  0999 V2000
   -7.4420    2.3740    1.5030 C   0  0  0  0  0  0  0  0  0  0  0  0
   -7.3870    0.8900    1.6650 C   0  0  0  0  0  0  0  0  0  0  0  0
   -6.7250    0.1890    0.4600 C   0  0  1  0  0  0  0  0  0  0  0  0
   -6.7310   -1.2610    0.7450 C   0  0  0  0  0  0  0  0  0  0  0  0
   -7.7540    0.4230   -0.6460 C   0  0  0  0  0  0  0  0  0  0  0  0
   -5.4620    0.9100    0.2460 C   0  0  0  0  0  0  0  0  0  0  0  0
   -4.5010    0.5440   -0.7800 C   0  0  1  0  0  0  0  0  0  0  0  0
   -5.0500    0.4740   -2.1460 N   0  0  0  0  0  0  0  0  0  0  0  0
   -3.8780    2.0640   -1.0240 C   0  0  0  0  0  0  0  0  0  0  0  0
   -3.2960    2.3290    0.2020 O   0  0  0  0  0  0  0  0  0  0  0  0
   -3.2550   -0.1510   -0.5460 C   0  0  0  0  0  0  0  0  0  0  0  0
   -3.0840   -1.4730    0.0840 C   0  0  1  0  0  0  0  0  0  0  0  0
   -1.5990   -1.7490   -0.0090 N   0  0  0  0  0  0  0  0  0  0  0  0
   -1.2300   -2.9780   -0.5760 C   0  0  0  0  0  0  0  0  0  0  0  0
   -2.0080   -3.8530   -1.0080 O   0  0  0  0  0  0  0  0  0  0  0  0
    0.2440   -3.2930   -0.6810 C   0  0  2  0  0  0  0  0  0  0  0  0
    0.4670   -4.5740    0.1280 C   0  0  0  0  0  0  0  0  0  0  0  0
    0.9380   -2.2200   -0.1280 O   0  0  0  0  0  0  0  0  0  0  0  0
    1.9310   -1.4970   -0.7660 C   0  0  0  0  0  0  0  0  0  0  0  0
    2.3680   -1.7550   -2.0190 C   0  0  0  0  0  0  0  0  0  0  0  0
    3.3600   -0.9780   -2.5700 C   0  0  0  0  0  0  0  0  0  0  0  0
    3.9310    0.0820   -1.8550 C   0  0  0  0  0  0  0  0  0  0  0  0
    4.9580    0.9240   -2.4250 C   0  0  0  0  0  0  0  0  0  0  0  0
    3.5140    0.3760   -0.5780 C   0  0  0  0  0  0  0  0  0  0  0  0
    4.0440    1.4130    0.2120 C   0  0  1  0  0  0  0  0  0  0  0  0
    3.0780    1.5990    1.4210 C   0  0  0  0  0  0  0  0  0  0  0  0
    5.3210    1.5560    0.7170 N   0  0  2  0  0  0  0  0  0  0  0  0
    6.0620    2.7130    0.1790 C   0  0  0  0  0  0  0  0  0  0  0  0
    6.1690    0.3920    0.8280 C   0  0  0  0  0  0  0  0  0  0  0  0
    7.2940    0.6150    1.8500 C   0  0  0  0  0  0  0  0  0  0  0  0
    8.1810   -0.5650    1.9730 C   0  0  0  0  0  0  0  0  0  0  0  0
    8.7770   -0.8960    0.7760 O   0  0  0  0  0  0  0  0  0  0  0  0
    9.5600    0.0970    0.2660 C   0  0  0  0  0  0  0  0  0  0  0  0
    2.5120   -0.4430   -0.0790 C   0  0  0  0  0  0  0  0  0  0  0  0
   -3.1820   -1.3330    1.5970 C   0  0  0  0  0  0  0  0  0  0  0  0
   -4.1610   -1.8610    2.4090 N   0  0  0  0  0  0  0  0  0  0  0  0
   -2.2270   -0.6490    2.1200 O   0  0  0  0  0  0  0  0  0  0  0  0
  1  2  1  0
  2  3  1  0
  3  4  1  1
  3  5  1  0
  3  6  1  0
  6  7  1  0
  7  8  1  6
  7  9  1  0
  7 11  1  0
  9 10  1  0
 12 11  1  6
 12 13  1  0
 12 35  1  0
 13 14  1  0
 14 15  2  0
 14 16  1  0
 16 17  1  1
 16 18  1  0
 18 19  1  0
 19 20  2  0
 19 34  1  0
 20 21  1  0
 21 22  2  0
 22 23  1  0
 22 24  1  0
 24 25  1  0
 24 34  2  0
 25 26  1  1
 25 27  1  0
 27 28  1  6
 27 29  1  0
 29 30  1  0
 30 31  1  0
 31 32  1  0
 32 33  1  0
 35 36  1  0
 35 37  2  0
M  CHG  2   8   1  27   1
M  END
