
     RDKit          3D

 37 38  0  0  0  0  0  0  0  0999 V2000
    5.0260   -4.6880   -1.7310 C   0  0  0  0  0  0  0  0  0  0  0  0
    3.9630   -3.9890   -0.8520 C   0  0  0  0  0  0  0  0  0  0  0  0
    3.0740   -3.1420   -1.6690 C   0  0  0  0  0  0  0  0  0  0  0  0
    2.0000   -2.3660   -1.0260 C   0  0  2  0  0  0  0  0  0  0  0  0
    2.5490   -1.4150    0.0050 C   0  0  0  0  0  0  0  0  0  0  0  0
    3.5110   -0.4240   -0.6000 C   0  0  0  0  0  0  0  0  0  0  0  0
    4.0220    0.5120    0.4710 C   0  0  0  0  0  0  0  0  0  0  0  0
    3.3190    1.4760    0.8290 O   0  0  0  0  0  0  0  0  0  0  0  0
    5.2430    0.2650    1.0090 O   0  0  0  0  0  0  0  0  0  0  0  0
    5.9020    0.9860    1.9640 C   0  0  0  0  0  0  0  0  0  0  0  0
    6.4610    2.3210    1.6460 C   0  0  0  0  0  0  0  0  0  0  0  0
    5.5210    3.3480    1.1600 C   0  0  0  0  0  0  0  0  0  0  0  0
    6.2380    4.5660    0.9730 O   0  0  0  0  0  0  0  0  0  0  0  0
    5.3400    5.5270    0.5150 C   0  0  0  0  0  0  0  0  0  0  0  0
    0.7530   -3.0810   -0.6020 C   0  0  1  0  0  0  0  0  0  0  0  0
    1.0430   -4.1600    0.4080 C   0  0  0  0  0  0  0  0  0  0  0  0
   -0.0980   -2.1180    0.1210 N   0  0  0  0  0  0  0  0  0  0  0  0
   -0.6450   -0.9780   -0.4960 C   0  0  0  0  0  0  0  0  0  0  0  0
   -0.3800   -0.8030   -1.7180 O   0  0  0  0  0  0  0  0  0  0  0  0
   -1.4690   -0.0430    0.2080 N   0  0  0  0  0  0  0  0  0  0  0  0
   -1.7190   -0.3250    1.6010 C   0  0  0  0  0  0  0  0  0  0  0  0
   -2.7610    0.6070    2.1810 C   0  0  0  0  0  0  0  0  0  0  0  0
   -3.8320    0.8400    1.1350 C   0  0  2  0  0  0  0  0  0  0  0  0
   -4.8890    1.4860    1.7580 O   0  0  0  0  0  0  0  0  0  0  0  0
   -4.3510   -0.5670    0.8020 C   0  0  1  0  0  0  0  0  0  0  0  0
   -4.9200   -1.2140    2.0660 C   0  0  0  0  0  0  0  0  0  0  0  0
   -5.5160   -0.4320   -0.1530 C   0  0  0  0  0  0  0  0  0  0  0  0
   -3.3800    1.4700   -0.1170 C   0  0  1  0  0  0  0  0  0  0  0  0
   -3.5280    2.9460   -0.2520 C   0  0  2  0  0  0  0  0  0  0  0  0
   -2.7990    3.7380    0.7820 C   0  0  0  0  0  0  0  0  0  0  0  0
   -2.9860    5.1640    0.5820 N   0  0  0  0  0  0  0  0  0  0  0  0
   -4.9150    3.4610   -0.4040 C   0  0  0  0  0  0  0  0  0  0  0  0
   -5.6240    2.9620   -1.5670 N   0  0  0  0  0  0  0  0  0  0  0  0
   -1.9780    1.0780   -0.5030 C   0  0  0  0  0  0  0  0  0  0  0  0
   -0.0220   -3.6190   -1.7770 C   0  0  2  0  0  0  0  0  0  0  0  0
   -1.2720   -4.3500   -1.5310 C   0  0  0  0  0  0  0  0  0  0  0  0
   -0.1100   -5.0460   -2.1420 C   0  0  0  0  0  0  0  0  0  0  0  0
  1  2  1  0
  2  3  1  0
  4  3  1  1
  4  5  1  0
  4 15  1  0
  5  6  1  0
  6  7  1  0
  7  8  2  0
  7  9  1  0
  9 10  1  0
 10 11  1  0
 11 12  1  0
 12 13  1  0
 13 14  1  0
 15 16  1  1
 15 17  1  0
 15 35  1  0
 17 18  1  0
 18 19  2  0
 18 20  1  0
 20 21  1  0
 20 34  1  0
 21 22  1  0
 22 23  1  0
 23 24  1  1
 23 25  1  0
 23 28  1  0
 25 26  1  1
 25 27  1  0
 28 29  1  0
 28 34  1  1
 29 30  1  1
 29 32  1  0
 30 31  1  0
 32 33  1  0
 35 36  1  1
 35 37  1  0
 36 37  1  0
M  CHG  2  31   1  33   1
M  END
