
     RDKit          3D

 36 36  0  0  0  0  0  0  0  0999 V2000
   -3.7400    3.6580   -1.9150 C   0  0  0  0  0  0  0  0  0  0  0  0
   -4.9330    2.7480   -2.0360 C   0  0  0  0  0  0  0  0  0  0  0  0
   -5.0770    1.8630   -0.9540 O   0  0  0  0  0  0  0  0  0  0  0  0
   -4.1050    0.9370   -0.6190 C   0  0  0  0  0  0  0  0  0  0  0  0
   -3.0660    0.8920   -1.3040 O   0  0  0  0  0  0  0  0  0  0  0  0
   -4.3220    0.0540    0.5110 C   0  0  0  0  0  0  0  0  0  0  0  0
   -3.2490   -0.9480    0.8030 C   0  0  1  0  0  0  0  0  0  0  0  0
   -2.9830   -1.9160   -0.3260 C   0  0  0  0  0  0  0  0  0  0  0  0
   -4.1500   -2.6530   -0.6310 O   0  0  0  0  0  0  0  0  0  0  0  0
   -4.8220   -3.4930    0.2080 C   0  0  0  0  0  0  0  0  0  0  0  0
   -4.3940   -3.6610    1.3780 O   0  0  0  0  0  0  0  0  0  0  0  0
   -5.9660   -4.1980   -0.1250 O   0  0  0  0  0  0  0  0  0  0  0  0
   -6.6060   -5.0630    0.8290 C   0  0  0  0  0  0  0  0  0  0  0  0
   -7.0710   -4.0350    2.2180 S   0  0  0  0  0  0  0  0  0  0  0  0
   -8.1200   -3.0130    1.8640 O   0  0  0  0  0  0  0  0  0  0  0  0
   -1.9770   -0.3240    1.2850 C   0  0  0  0  0  0  0  0  0  0  0  0
   -1.4950   -0.5750    2.4440 O   0  0  0  0  0  0  0  0  0  0  0  0
   -1.2230    0.5640    0.5300 O   0  0  0  0  0  0  0  0  0  0  0  0
   -0.0300    1.1270    1.0300 C   0  0  2  0  0  0  0  0  0  0  0  0
   -0.1290    2.6340    1.1330 C   0  0  0  0  0  0  0  0  0  0  0  0
    1.1570    0.6940    0.2420 C   0  0  0  0  0  0  0  0  0  0  0  0
    0.9630   -0.0870   -0.7220 O   0  0  0  0  0  0  0  0  0  0  0  0
    2.4650    1.1200    0.5350 N   0  0  0  0  0  0  0  0  0  0  0  0
    3.6460    0.7180   -0.2070 C   0  0  1  0  0  0  0  0  0  0  0  0
    4.3940    1.8930   -0.6990 C   0  0  0  0  0  0  0  0  0  0  0  0
    4.0820    2.5490   -1.7200 O   0  0  0  0  0  0  0  0  0  0  0  0
    5.4980    2.1480    0.1530 N   0  0  0  0  0  0  0  0  0  0  0  0
    5.7320    0.9740    0.9550 C   0  0  0  0  0  0  0  0  0  0  0  0
    6.7670    0.8370    1.6470 O   0  0  0  0  0  0  0  0  0  0  0  0
    4.5930    0.0640    0.7940 C   0  0  2  0  0  0  0  0  0  0  0  0
    5.0320   -1.5990    0.2800 S   0  0  0  0  0  0  0  0  0  0  0  0
    5.9970   -1.6760   -1.2260 C   0  0  0  0  0  0  0  0  0  0  0  0
    7.3210   -1.0730   -1.0210 C   0  0  0  0  0  0  0  0  0  0  0  0
    8.2640   -1.7910   -0.5960 O   0  0  0  0  0  0  0  0  0  0  0  0
    7.5690    0.2570   -1.2800 O   0  0  0  0  0  0  0  0  0  0  0  0
    8.8290    0.8600   -1.0940 C   0  0  0  0  0  0  0  0  0  0  0  0
  1  2  1  0
  2  3  1  0
  3  4  1  0
  4  5  2  0
  4  6  1  0
  7  6  1  6
  7  8  1  0
  7 16  1  0
  8  9  1  0
  9 10  1  0
 10 11  2  0
 10 12  1  0
 12 13  1  0
 13 14  1  0
 14 15  2  0
 16 17  2  0
 16 18  1  0
 18 19  1  0
 19 20  1  6
 19 21  1  0
 21 22  2  0
 21 23  1  0
 24 23  1  1
 24 25  1  0
 24 30  1  0
 25 26  2  0
 25 27  1  0
 27 28  1  0
 28 29  2  0
 28 30  1  0
 30 31  1  6
 31 32  1  0
 32 33  1  0
 33 34  2  0
 33 35  1  0
 35 36  1  0
M  END
