
     RDKit          3D

 37 37  0  0  0  0  0  0  0  0999 V2000
   -7.9530    1.3500   -3.0410 C   0  0  0  0  0  0  0  0  0  0  0  0
   -7.7810    0.4660   -1.9320 O   0  0  0  0  0  0  0  0  0  0  0  0
   -7.0190   -0.6580   -2.0860 C   0  0  0  0  0  0  0  0  0  0  0  0
   -6.4920   -0.8760   -3.2090 O   0  0  0  0  0  0  0  0  0  0  0  0
   -6.8010   -1.6060   -1.0000 C   0  0  0  0  0  0  0  0  0  0  0  0
   -7.3130   -1.3170    0.2150 O   0  0  0  0  0  0  0  0  0  0  0  0
   -6.7950   -0.1700    0.8350 C   0  0  1  0  0  0  0  0  0  0  0  0
   -7.7920    0.5890    1.3210 O   0  0  0  0  0  0  0  0  0  0  0  0
   -7.8590    1.9140    1.1020 C   0  0  0  0  0  0  0  0  0  0  0  0
   -6.0270   -0.7330    1.9030 O   0  0  0  0  0  0  0  0  0  0  0  0
   -4.6880   -0.4900    1.8410 C   0  0  0  0  0  0  0  0  0  0  0  0
   -4.3800    0.9580    1.9420 C   0  0  0  0  0  0  0  0  0  0  0  0
   -2.9120    1.1900    1.8970 N   0  0  0  0  0  0  0  0  0  0  0  0
   -2.2190    1.3970    0.7200 C   0  0  0  0  0  0  0  0  0  0  0  0
   -2.7540    1.7420   -0.3940 O   0  0  0  0  0  0  0  0  0  0  0  0
   -0.7660    1.2000    0.7790 C   0  0  2  0  0  0  0  0  0  0  0  0
   -0.2970   -0.1420    0.3510 C   0  0  0  0  0  0  0  0  0  0  0  0
    1.1790   -0.1930    0.4610 C   0  0  0  0  0  0  0  0  0  0  0  0
    1.8000    0.8200    0.8600 O   0  0  0  0  0  0  0  0  0  0  0  0
    1.9380   -1.3470    0.1320 N   0  0  0  0  0  0  0  0  0  0  0  0
    3.3360   -1.4320    0.2210 C   0  0  0  0  0  0  0  0  0  0  0  0
    3.9920   -0.4360    0.6120 O   0  0  0  0  0  0  0  0  0  0  0  0
    4.1070   -2.6590   -0.1290 C   0  0  0  0  0  0  0  0  0  0  0  0
    5.4880   -2.4780    0.0380 O   0  0  0  0  0  0  0  0  0  0  0  0
    6.2230   -1.5230   -0.6470 C   0  0  0  0  0  0  0  0  0  0  0  0
    5.5860   -0.7960   -1.4550 O   0  0  0  0  0  0  0  0  0  0  0  0
    7.5700   -1.3080   -0.5180 O   0  0  0  0  0  0  0  0  0  0  0  0
    8.2710   -0.3170   -1.2460 C   0  0  2  0  0  0  0  0  0  0  0  0
    9.2940   -0.9220   -2.1370 C   0  0  0  0  0  0  0  0  0  0  0  0
    9.4480   -2.1580   -2.1740 O   0  0  0  0  0  0  0  0  0  0  0  0
   10.0790   -0.1030   -2.9300 O   0  0  0  0  0  0  0  0  0  0  0  0
    8.8260    0.7290   -0.3290 C   0  0  1  0  0  0  0  0  0  0  0  0
    9.7950    0.0750    0.6380 C   0  0  0  0  0  0  0  0  0  0  0  0
    9.5020    1.6640   -1.1450 O   0  0  0  0  0  0  0  0  0  0  0  0
   -0.4380    1.3280    2.5830 S   0  0  0  0  0  0  0  0  0  0  0  0
   -2.1630    1.2110    3.0690 C   0  0  0  0  0  0  0  0  0  0  0  0
   -2.6970    1.1440    4.5940 S   0  0  0  0  0  0  0  0  0  0  0  0
  1  2  1  0
  2  3  1  0
  3  4  2  0
  3  5  1  0
  5  6  1  0
  7  6  1  1
  7  8  1  0
  7 10  1  0
  8  9  1  0
 10 11  1  0
 11 12  1  0
 12 13  1  0
 13 14  1  0
 13 36  1  0
 14 15  2  0
 14 16  1  0
 16 17  1  1
 16 35  1  0
 17 18  1  0
 18 19  2  0
 18 20  1  0
 20 21  1  0
 21 22  2  0
 21 23  1  0
 23 24  1  0
 24 25  1  0
 25 26  2  0
 25 27  1  0
 28 27  1  1
 28 29  1  0
 28 32  1  0
 29 30  2  0
 29 31  1  0
 32 33  1  1
 32 34  1  0
 35 36  1  0
 36 37  2  0
M  END
