
     RDKit          3D

 36 40  0  0  0  0  0  0  0  0999 V2000
   -8.8350   -2.3390    3.4730 N   0  0  0  0  0  0  0  0  0  0  0  0
   -8.2190   -1.4460    2.5700 C   0  0  0  0  0  0  0  0  0  0  0  0
   -8.7970   -0.2230    2.3800 N   0  0  0  0  0  0  0  0  0  0  0  0
   -8.2650    0.6720    1.5370 C   0  0  0  0  0  0  0  0  0  0  0  0
   -8.8970    1.8930    1.3880 O   0  0  0  0  0  0  0  0  0  0  0  0
   -7.1150    0.3340    0.8600 C   0  0  0  0  0  0  0  0  0  0  0  0
   -6.3510    0.9810   -0.0280 N   0  0  0  0  0  0  0  0  0  0  0  0
   -5.3330    0.2200   -0.3950 N   0  0  0  0  0  0  0  0  0  0  0  0
   -4.3200    0.6100   -1.3380 C   0  0  0  0  0  0  0  0  0  0  0  0
   -4.6130    1.3240   -2.4800 C   0  0  0  0  0  0  0  0  0  0  0  0
   -3.6560    1.7030   -3.3870 C   0  0  0  0  0  0  0  0  0  0  0  0
   -2.3650    1.3650   -3.1570 C   0  0  0  0  0  0  0  0  0  0  0  0
   -1.9870    0.6410   -2.0200 C   0  0  0  0  0  0  0  0  0  0  0  0
   -0.5920    0.3110   -1.8370 C   0  0  0  0  0  0  0  0  0  0  0  0
    0.2300    0.6000   -2.7400 O   0  0  0  0  0  0  0  0  0  0  0  0
   -0.1100   -0.3270   -0.6740 N   0  0  0  0  0  0  0  0  0  0  0  0
    1.2780   -0.6590   -0.4660 C   0  0  0  0  0  0  0  0  0  0  0  0
    2.1270    0.5490   -0.3460 C   0  0  0  0  0  0  0  0  0  0  0  0
    1.5450    1.7870   -0.3680 C   0  0  0  0  0  0  0  0  0  0  0  0
    2.3740    2.9090   -0.2280 C   0  0  0  0  0  0  0  0  0  0  0  0
    3.7380    2.7330   -0.0730 C   0  0  0  0  0  0  0  0  0  0  0  0
    4.2870    1.4680   -0.0560 C   0  0  0  0  0  0  0  0  0  0  0  0
    3.4950    0.3690   -0.1910 C   0  0  0  0  0  0  0  0  0  0  0  0
    4.1180   -1.3000   -0.1800 S   0  0  0  0  0  0  0  0  0  0  0  0
    5.8720   -1.3590    0.0180 C   0  0  0  0  0  0  0  0  0  0  0  0
    6.7070   -1.3450   -1.0830 C   0  0  0  0  0  0  0  0  0  0  0  0
    8.0880   -1.3890   -0.9500 C   0  0  0  0  0  0  0  0  0  0  0  0
    8.6700   -1.4480    0.2940 C   0  0  0  0  0  0  0  0  0  0  0  0
    7.8450   -1.4620    1.4010 C   0  0  0  0  0  0  0  0  0  0  0  0
    6.4540   -1.4180    1.2660 C   0  0  0  0  0  0  0  0  0  0  0  0
    5.6060   -1.4350    2.4780 C   0  0  0  0  0  0  0  0  0  0  0  0
    6.4050   -1.4960    3.6160 O   0  0  0  0  0  0  0  0  0  0  0  0
   -2.9780    0.2800   -1.1350 C   0  0  0  0  0  0  0  0  0  0  0  0
   -5.4020   -0.9540    0.2470 N   0  0  0  0  0  0  0  0  0  0  0  0
   -6.5060   -0.9060    1.0360 C   0  0  0  0  0  0  0  0  0  0  0  0
   -7.0890   -1.7530    1.8920 N   0  0  0  0  0  0  0  0  0  0  0  0
  1  2  1  0
  2  3  1  0
  2 36  2  0
  3  4  2  0
  4  5  1  0
  4  6  1  0
  6  7  2  0
  6 35  1  0
  7  8  1  0
  8  9  1  0
  8 34  1  0
  9 10  2  0
  9 33  1  0
 10 11  1  0
 11 12  2  0
 12 13  1  0
 13 14  1  0
 13 33  2  0
 14 15  2  0
 14 16  1  0
 16 17  1  0
 17 18  1  0
 18 19  2  0
 18 23  1  0
 19 20  1  0
 20 21  2  0
 21 22  1  0
 22 23  2  0
 23 24  1  0
 24 25  1  0
 25 26  2  0
 25 30  1  0
 26 27  1  0
 27 28  2  0
 28 29  1  0
 29 30  2  0
 30 31  1  0
 31 32  1  0
 34 35  2  0
 35 36  1  0
M  END
