
     RDKit          3D

  9  9  0  0  0  0  0  0  0  0999 V2000
   -1.1060    1.9730   -0.3940 C   0  0  0  0  0  0  0  0  0  0  0  0
   -0.8400    0.4770   -0.1830 C   0  0  0  0  0  0  0  0  0  0  0  0
   -1.8330   -0.3380   -0.2490 C   0  0  0  0  0  0  0  0  0  0  0  0
   -1.8520   -1.7230   -0.0960 N   0  0  0  0  0  0  0  0  0  0  0  0
    0.5680    0.1390    0.0800 C   0  0  0  0  0  0  0  0  0  0  0  0
    1.1410   -1.0850    0.3130 C   0  0  0  0  0  0  0  0  0  0  0  0
    2.5150   -0.8990    0.5090 C   0  0  0  0  0  0  0  0  0  0  0  0
    2.7480    0.4360    0.3910 C   0  0  0  0  0  0  0  0  0  0  0  0
    1.5800    1.0310    0.1360 N   0  0  0  0  0  0  0  0  0  0  0  0
  1  2  1  0
  2  3  2  3
  2  5  1  0
  3  4  1  0
  5  6  2  0
  5  9  1  0
  6  7  1  0
  7  8  2  0
  8  9  1  0
M  CHG  1   4   1
M  END
