
     RDKit          3D

  9  9  0  0  0  0  0  0  0  0999 V2000
    3.1750    0.1870    0.5710 N   0  0  0  0  0  0  0  0  0  0  0  0
    2.1670    0.4310   -0.4450 C   0  0  0  0  0  0  0  0  0  0  0  0
    1.0940   -0.5520   -0.3820 C   0  0  0  0  0  0  0  0  0  0  0  0
   -0.1630   -0.2920   -0.1670 C   0  0  0  0  0  0  0  0  0  0  0  0
   -0.7150    1.0340    0.0480 C   0  0  0  0  0  0  0  0  0  0  0  0
   -2.0160    1.1600    0.2540 C   0  0  0  0  0  0  0  0  0  0  0  0
   -2.9640    0.0620    0.2840 C   0  0  0  0  0  0  0  0  0  0  0  0
   -2.4830   -1.1520    0.0900 C   0  0  0  0  0  0  0  0  0  0  0  0
   -1.1080   -1.3940   -0.1380 N   0  0  0  0  0  0  0  0  0  0  0  0
  1  2  1  0
  2  3  1  0
  3  4  2  3
  4  5  1  0
  4  9  1  0
  5  6  2  0
  6  7  1  0
  7  8  2  0
  8  9  1  0
M  END
