
     RDKit          3D

  9  9  0  0  0  0  0  0  0  0999 V2000
   -3.2600   -0.3150   -0.0880 C   0  0  0  0  0  0  0  0  0  0  0  0
   -2.2780    0.7200   -0.0360 N   0  0  0  0  0  0  0  0  0  0  0  0
   -0.8930    0.4230   -0.0130 C   0  0  0  0  0  0  0  0  0  0  0  0
   -0.4420   -0.8800   -0.0400 C   0  0  0  0  0  0  0  0  0  0  0  0
    0.9330   -1.1300   -0.0150 C   0  0  0  0  0  0  0  0  0  0  0  0
    1.8600   -0.1120    0.0350 C   0  0  0  0  0  0  0  0  0  0  0  0
    3.2610   -0.4160    0.0590 N   0  0  0  0  0  0  0  0  0  0  0  0
    1.3970    1.1880    0.0620 C   0  0  0  0  0  0  0  0  0  0  0  0
    0.0420    1.4450    0.0380 C   0  0  0  0  0  0  0  0  0  0  0  0
  1  2  1  0
  2  3  1  0
  3  4  2  0
  3  9  1  0
  4  5  1  0
  5  6  2  0
  6  7  1  0
  6  8  1  0
  8  9  2  0
M  CHG  1   7   1
M  END
