
     RDKit          3D

  9  9  0  0  0  0  0  0  0  0999 V2000
    3.1170   -0.2150   -0.2840 C   0  0  0  0  0  0  0  0  0  0  0  0
    1.8980   -0.5610    0.4390 N   0  0  0  0  0  0  0  0  0  0  0  0
    0.8250    0.3590    0.3650 C   0  0  0  0  0  0  0  0  0  0  0  0
   -0.4150   -0.0930    0.1680 C   0  0  0  0  0  0  0  0  0  0  0  0
   -0.8030   -1.4890    0.0140 C   0  0  0  0  0  0  0  0  0  0  0  0
   -2.1120   -1.4740   -0.1580 C   0  0  0  0  0  0  0  0  0  0  0  0
   -2.6080   -0.0990   -0.1220 C   0  0  0  0  0  0  0  0  0  0  0  0
   -1.6150    0.7420    0.0710 C   0  0  0  0  0  0  0  0  0  0  0  0
   -1.6220    2.1530    0.1740 N   0  0  0  0  0  0  0  0  0  0  0  0
  1  2  1  0
  2  3  1  0
  3  4  2  3
  4  5  1  0
  4  8  1  0
  5  6  2  0
  6  7  1  0
  7  8  2  0
  8  9  1  0
M  END
