
     RDKit          3D

  9  9  0  0  0  0  0  0  0  0999 V2000
   -2.5940   -0.9880   -0.0580 C   0  0  0  0  0  0  0  0  0  0  0  0
   -1.5820   -0.5100    0.8690 N   0  0  0  0  0  0  0  0  0  0  0  0
   -0.6070    0.4120    0.3960 C   0  0  0  0  0  0  0  0  0  0  0  0
   -0.7310    1.7140    0.1840 C   0  0  0  0  0  0  0  0  0  0  0  0
    0.5320    2.2620   -0.3050 C   0  0  0  0  0  0  0  0  0  0  0  0
    1.4430    1.3060   -0.3980 C   0  0  0  0  0  0  0  0  0  0  0  0
    0.7670    0.0860    0.0410 C   0  0  0  0  0  0  0  0  0  0  0  0
    1.3540   -1.1190    0.0930 C   0  0  0  0  0  0  0  0  0  0  0  0
    2.7080   -1.2870   -0.2860 N   0  0  0  0  0  0  0  0  0  0  0  0
  1  2  1  0
  2  3  1  0
  3  4  2  0
  3  7  1  0
  4  5  1  0
  5  6  2  0
  6  7  1  0
  7  8  2  3
  8  9  1  0
M  END
