
     RDKit          3D

  9 10  0  0  0  0  0  0  0  0999 V2000
    2.7860   -0.2290   -0.5890 N   0  0  0  0  0  0  0  0  0  0  0  0
    1.4860    0.3920   -0.6820 C   0  0  2  0  0  0  0  0  0  0  0  0
    1.1870    1.0740    0.6400 C   0  0  0  0  0  0  0  0  0  0  0  0
    0.2240    0.1480    1.3190 C   0  0  0  0  0  0  0  0  0  0  0  0
   -0.3630   -0.6900    0.3290 N   0  0  0  0  0  0  0  0  0  0  0  0
   -1.7730   -0.6870    0.2620 C   0  0  1  0  0  0  0  0  0  0  0  0
   -2.5550    0.5350   -0.0750 C   0  0  0  0  0  0  0  0  0  0  0  0
   -2.5860   -0.6490   -0.9690 C   0  0  0  0  0  0  0  0  0  0  0  0
    0.3700   -0.6190   -0.8770 C   0  0  0  0  0  0  0  0  0  0  0  0
  2  1  1  1
  2  3  1  0
  2  9  1  0
  3  4  1  0
  4  5  1  0
  6  5  1  6
  5  9  1  0
  6  7  1  0
  6  8  1  0
  7  8  1  0
M  CHG  1   1   1
M  END
