
     RDKit          3D

  9  9  0  0  0  0  0  0  0  0999 V2000
    2.8360    0.2970    0.4370 C   0  0  0  0  0  0  0  0  0  0  0  0
    2.0390   -0.2330   -0.6290 N   0  0  0  0  0  0  0  0  0  0  0  0
    0.6430   -0.1500   -0.3060 C   0  0  0  0  0  0  0  0  0  0  0  0
   -0.0830   -1.2880   -0.0040 C   0  0  0  0  0  0  0  0  0  0  0  0
   -1.4250   -1.1990    0.3060 C   0  0  0  0  0  0  0  0  0  0  0  0
   -2.0980    0.0050    0.3300 C   0  0  0  0  0  0  0  0  0  0  0  0
   -3.4870    0.0610    0.6540 N   0  0  0  0  0  0  0  0  0  0  0  0
   -1.3610    1.1350    0.0260 C   0  0  0  0  0  0  0  0  0  0  0  0
   -0.0180    1.0630   -0.2860 C   0  0  0  0  0  0  0  0  0  0  0  0
  1  2  1  0
  2  3  1  0
  3  4  2  0
  3  9  1  0
  4  5  1  0
  5  6  2  0
  6  7  1  0
  6  8  1  0
  8  9  2  0
M  CHG  1   2   1
M  END
