
     RDKit          3D

 27 29  0  0  0  0  0  0  0  0999 V2000
    4.9770    0.3920   -1.9230 C   0  0  0  0  0  0  0  0  0  0  0  0
    5.2370    0.2870   -0.4550 C   0  0  0  0  0  0  0  0  0  0  0  0
    6.3200    0.8240    0.1440 N   0  0  0  0  0  0  0  0  0  0  0  0
    6.2140    0.5300    1.4650 C   0  0  0  0  0  0  0  0  0  0  0  0
    7.4100    1.0280    2.6620 Cl  0  0  0  0  0  0  0  0  0  0  0  0
    5.0620   -0.1950    1.6990 C   0  0  0  0  0  0  0  0  0  0  0  0
    4.6050   -0.6870    2.9600 N   0  0  0  0  0  0  0  0  0  0  0  0
    4.4400   -0.3480    0.4750 C   0  0  0  0  0  0  0  0  0  0  0  0
    3.1850   -1.0430    0.1940 C   0  0  0  0  0  0  0  0  0  0  0  0
    2.0570   -0.0540   -0.0360 C   0  0  0  0  0  0  0  0  0  0  0  0
    2.2840    1.1760    0.0280 O   0  0  0  0  0  0  0  0  0  0  0  0
    0.7570   -0.4910   -0.3210 N   0  0  0  0  0  0  0  0  0  0  0  0
   -0.4000    0.2850   -0.5650 C   0  0  0  0  0  0  0  0  0  0  0  0
   -0.3600    1.6360   -0.7920 C   0  0  0  0  0  0  0  0  0  0  0  0
   -1.5520    2.3230   -1.0050 C   0  0  0  0  0  0  0  0  0  0  0  0
   -2.7600    1.6700   -0.9920 C   0  0  0  0  0  0  0  0  0  0  0  0
   -2.8360    0.3050   -0.7660 C   0  0  0  0  0  0  0  0  0  0  0  0
   -4.0690   -0.3960   -0.7470 N   0  0  0  0  0  0  0  0  0  0  0  0
   -4.9290   -0.1680    0.2590 C   0  0  0  0  0  0  0  0  0  0  0  0
   -4.5460    0.8120    1.3030 C   0  0  0  0  0  0  0  0  0  0  0  0
   -6.1480   -0.8000    0.3650 C   0  0  0  0  0  0  0  0  0  0  0  0
   -6.5190   -1.7120   -0.5960 C   0  0  0  0  0  0  0  0  0  0  0  0
   -8.0620   -2.5590   -0.5260 Cl  0  0  0  0  0  0  0  0  0  0  0  0
   -5.6430   -1.9520   -1.6320 C   0  0  0  0  0  0  0  0  0  0  0  0
   -4.4310   -1.2890   -1.6900 C   0  0  0  0  0  0  0  0  0  0  0  0
   -3.6540   -1.5290   -2.6460 O   0  0  0  0  0  0  0  0  0  0  0  0
   -1.6550   -0.3410   -0.5610 C   0  0  0  0  0  0  0  0  0  0  0  0
  1  2  1  0
  2  3  1  0
  2  8  2  0
  3  4  1  0
  4  5  1  0
  4  6  2  0
  6  7  1  0
  6  8  1  0
  8  9  1  0
  9 10  1  0
 10 11  2  0
 10 12  1  0
 12 13  1  0
 13 14  2  0
 13 27  1  0
 14 15  1  0
 15 16  2  0
 16 17  1  0
 17 18  1  0
 17 27  2  0
 18 19  1  0
 18 25  1  0
 19 20  1  0
 19 21  2  0
 21 22  1  0
 22 23  1  0
 22 24  2  0
 24 25  1  0
 25 26  2  0
M  END
