
     RDKit          3D

 27 29  0  0  0  0  0  0  0  0999 V2000
    4.9450    3.1040   -0.2580 C   0  0  0  0  0  0  0  0  0  0  0  0
    3.7770    2.4660   -0.1600 O   0  0  0  0  0  0  0  0  0  0  0  0
    3.3760    1.1880    0.1170 C   0  0  0  0  0  0  0  0  0  0  0  0
    4.3350    0.2470    0.3980 C   0  0  0  0  0  0  0  0  0  0  0  0
    4.0410   -1.0750    0.6590 C   0  0  0  0  0  0  0  0  0  0  0  0
    4.8850   -2.0640    0.9730 O   0  0  0  0  0  0  0  0  0  0  0  0
    4.5500   -3.4010    1.2430 C   0  0  0  0  0  0  0  0  0  0  0  0
    2.6570   -1.3710    0.5920 C   0  0  0  0  0  0  0  0  0  0  0  0
    1.6980   -0.5250    0.3320 C   0  0  0  0  0  0  0  0  0  0  0  0
    0.2770   -0.7560   -0.0330 C   0  0  0  0  0  0  0  0  0  0  0  0
    0.1100   -1.2730   -1.2810 N   0  0  0  0  0  0  0  0  0  0  0  0
   -1.0290   -1.2820   -1.9090 C   0  0  0  0  0  0  0  0  0  0  0  0
   -1.1630   -1.8770   -3.2050 N   0  0  0  0  0  0  0  0  0  0  0  0
   -2.1560   -0.7250   -1.2560 C   0  0  0  0  0  0  0  0  0  0  0  0
   -3.3620   -0.6210   -2.1150 C   0  0  0  0  0  0  0  0  0  0  0  0
   -4.5250   -1.3660   -1.6380 N   0  0  0  0  0  0  0  0  0  0  0  0
   -2.0230   -0.2100   -0.0200 C   0  0  0  0  0  0  0  0  0  0  0  0
   -2.9660    0.6110    0.7210 C   0  0  0  0  0  0  0  0  0  0  0  0
   -2.5810    1.9900    0.7890 C   0  0  0  0  0  0  0  0  0  0  0  0
   -3.2040    2.8960    1.5620 C   0  0  0  0  0  0  0  0  0  0  0  0
   -4.2570    2.5050    2.3130 C   0  0  0  0  0  0  0  0  0  0  0  0
   -5.0430    3.7380    3.3240 Cl  0  0  0  0  0  0  0  0  0  0  0  0
   -4.7100    1.1760    2.3180 C   0  0  0  0  0  0  0  0  0  0  0  0
   -4.0270    0.2540    1.5070 C   0  0  0  0  0  0  0  0  0  0  0  0
   -4.6730   -1.3730    1.5620 Cl  0  0  0  0  0  0  0  0  0  0  0  0
   -0.7470   -0.2410    0.6120 N   0  0  0  0  0  0  0  0  0  0  0  0
    2.0550    0.8410    0.0800 C   0  0  0  0  0  0  0  0  0  0  0  0
  1  2  1  0
  2  3  1  0
  3  4  2  0
  3 27  1  0
  4  5  1  0
  5  6  1  0
  5  8  2  0
  6  7  1  0
  8  9  1  0
  9 10  1  0
  9 27  2  0
 10 11  2  0
 10 26  1  0
 11 12  1  0
 12 13  1  0
 12 14  2  0
 14 15  1  0
 14 17  1  0
 15 16  1  0
 17 18  1  0
 17 26  2  0
 18 19  2  0
 18 24  1  0
 19 20  1  0
 20 21  2  0
 21 22  1  0
 21 23  1  0
 23 24  2  0
 24 25  1  0
M  END
