
     RDKit          3D

 11 11  0  0  0  0  0  0  0  0999 V2000
   -2.0780   -2.1850    0.5600 O   0  0  0  0  0  0  0  0  0  0  0  0
   -1.2570   -1.5350   -0.3300 C   0  0  0  0  0  0  0  0  0  0  0  0
   -0.2070   -0.6880    0.3590 C   0  0  2  0  0  0  0  0  0  0  0  0
   -0.8530    0.2550    1.1310 O   0  0  0  0  0  0  0  0  0  0  0  0
   -1.0250    1.3940    0.3670 C   0  0  2  0  0  0  0  0  0  0  0  0
   -2.2620    1.4040   -0.3000 O   0  0  0  0  0  0  0  0  0  0  0  0
    0.0610    1.4160   -0.6720 C   0  0  0  0  0  0  0  0  0  0  0  0
    0.6340    0.0280   -0.6430 C   0  0  2  0  0  0  0  0  0  0  0  0
    0.5510   -0.6150   -1.8750 O   0  0  0  0  0  0  0  0  0  0  0  0
    2.0920    0.0980   -0.2550 C   0  0  0  0  0  0  0  0  0  0  0  0
    2.2750    0.7290    0.9720 O   0  0  0  0  0  0  0  0  0  0  0  0
  1  2  1  0
  3  2  1  6
  3  4  1  0
  3  8  1  0
  4  5  1  0
  5  6  1  6
  5  7  1  0
  7  8  1  0
  8  9  1  6
  8 10  1  0
 10 11  1  0
M  END
