
     RDKit          3D

 11 11  0  0  0  0  0  0  0  0999 V2000
    3.4370    0.1060   -0.4480 O   0  0  0  0  0  0  0  0  0  0  0  0
    2.6520    0.5590    0.6220 C   0  0  0  0  0  0  0  0  0  0  0  0
    1.7780   -0.3940    1.0720 O   0  0  0  0  0  0  0  0  0  0  0  0
    0.8660   -0.8740    0.1780 C   0  0  0  0  0  0  0  0  0  0  0  0
   -0.0830    0.1150   -0.4160 C   0  0  1  0  0  0  0  0  0  0  0  0
    0.5210    1.1160   -1.1330 O   0  0  0  0  0  0  0  0  0  0  0  0
   -1.0580   -0.6910   -1.2800 C   0  0  0  0  0  0  0  0  0  0  0  0
   -1.9210   -1.1720   -0.2670 O   0  0  0  0  0  0  0  0  0  0  0  0
   -2.3410    0.0160    0.2930 C   0  0  1  0  0  0  0  0  0  0  0  0
   -3.0600   -0.1500    1.4660 O   0  0  0  0  0  0  0  0  0  0  0  0
   -1.0280    0.6970    0.6150 C   0  0  0  0  0  0  0  0  0  0  0  0
  1  2  1  0
  2  3  1  0
  3  4  1  0
  4  5  1  0
  5  6  1  6
  5  7  1  0
  5 11  1  0
  7  8  1  0
  8  9  1  0
  9 10  1  1
  9 11  1  0
M  END
