
     RDKit          3D

 16 17  0  0  0  0  0  0  0  0999 V2000
   -3.2110   -0.0040   -0.9520 O   0  0  0  0  0  0  0  0  0  0  0  0
   -2.8540    0.4600    0.1610 C   0  0  0  0  0  0  0  0  0  0  0  0
   -1.7440   -0.1380    0.9260 C   0  0  0  0  0  0  0  0  0  0  0  0
   -1.1290   -1.3230    0.2240 C   0  0  1  0  0  0  0  0  0  0  0  0
   -0.4540   -0.9000   -1.3880 S   0  0  0  0  0  0  0  0  0  0  0  0
    1.2260   -0.3150   -1.1230 C   0  0  0  0  0  0  0  0  0  0  0  0
    1.8640    0.4050   -2.1170 C   0  0  0  0  0  0  0  0  0  0  0  0
    3.1420    0.8620   -1.9410 C   0  0  0  0  0  0  0  0  0  0  0  0
    3.8050    0.6070   -0.7690 C   0  0  0  0  0  0  0  0  0  0  0  0
    3.1580   -0.1030    0.1950 C   0  0  0  0  0  0  0  0  0  0  0  0
    1.8450   -0.5960    0.0660 C   0  0  0  0  0  0  0  0  0  0  0  0
    1.2590   -1.3200    1.1150 N   0  0  0  0  0  0  0  0  0  0  0  0
   -0.0460   -1.8550    1.0870 C   0  0  0  0  0  0  0  0  0  0  0  0
   -0.3370   -2.8360    1.8210 O   0  0  0  0  0  0  0  0  0  0  0  0
   -3.5650    1.5870    0.6520 N   0  0  0  0  0  0  0  0  0  0  0  0
   -4.5840    2.1720   -0.0030 O   0  0  0  0  0  0  0  0  0  0  0  0
  1  2  2  0
  2  3  1  0
  2 15  1  0
  4  3  1  1
  4  5  1  0
  4 13  1  0
  5  6  1  0
  6  7  2  0
  6 11  1  0
  7  8  1  0
  8  9  2  0
  9 10  1  0
 10 11  2  0
 11 12  1  0
 12 13  1  0
 13 14  2  0
 15 16  1  0
M  END
