
     RDKit          3D

 11 11  0  0  0  0  0  0  0  0999 V2000
   -1.4640   -0.9570   -1.0450 C   0  0  0  0  0  0  0  0  0  0  0  0
   -0.7370    0.0450   -0.2120 C   0  0  1  0  0  0  0  0  0  0  0  0
   -0.7090    1.2560   -0.8710 O   0  0  0  0  0  0  0  0  0  0  0  0
   -1.3570    0.2060    1.1760 C   0  0  2  0  0  0  0  0  0  0  0  0
   -2.4450    1.0400    1.1770 O   0  0  0  0  0  0  0  0  0  0  0  0
   -0.3670    0.6530    2.0090 O   0  0  0  0  0  0  0  0  0  0  0  0
    0.8560    0.4110    1.4430 C   0  0  0  0  0  0  0  0  0  0  0  0
    0.6470   -0.4250    0.2050 C   0  0  1  0  0  0  0  0  0  0  0  0
    0.5920   -1.7460    0.5840 O   0  0  0  0  0  0  0  0  0  0  0  0
    1.6800   -0.1700   -0.8550 C   0  0  0  0  0  0  0  0  0  0  0  0
    1.7500    1.1440   -1.2470 O   0  0  0  0  0  0  0  0  0  0  0  0
  2  1  1  6
  2  3  1  0
  2  4  1  0
  2  8  1  0
  4  5  1  6
  4  6  1  0
  6  7  1  0
  7  8  1  0
  8  9  1  1
  8 10  1  0
 10 11  1  0
M  END
