
     RDKit          3D

 12 11  0  0  0  0  0  0  0  0999 V2000
   -3.3070   -1.0240    0.0290 O   0  0  0  0  0  0  0  0  0  0  0  0
   -2.3090   -0.9270   -0.9080 C   0  0  0  0  0  0  0  0  0  0  0  0
   -1.1850   -0.0110   -0.5830 C   0  0  1  0  0  0  0  0  0  0  0  0
   -1.6150    1.4160   -0.3760 C   0  0  0  0  0  0  0  0  0  0  0  0
   -2.5150    1.6090    0.6420 O   0  0  0  0  0  0  0  0  0  0  0  0
   -0.3080   -0.5230    0.5290 C   0  0  2  0  0  0  0  0  0  0  0  0
   -0.9960   -0.7120    1.7270 O   0  0  0  0  0  0  0  0  0  0  0  0
    0.8160    0.2490    0.7180 O   0  0  0  0  0  0  0  0  0  0  0  0
    1.9500   -0.4820    0.4630 C   0  0  2  0  0  0  0  0  0  0  0  0
    2.7630   -0.5540    1.5990 O   0  0  0  0  0  0  0  0  0  0  0  0
    2.7800    0.0930   -0.6640 C   0  0  0  0  0  0  0  0  0  0  0  0
    3.1950    1.3880   -0.3780 O   0  0  0  0  0  0  0  0  0  0  0  0
  1  2  1  0
  3  2  1  1
  3  4  1  0
  3  6  1  0
  4  5  1  0
  6  7  1  1
  6  8  1  0
  8  9  1  0
  9 10  1  1
  9 11  1  0
 11 12  1  0
M  END
