
     RDKit          3D

 12 11  0  0  0  0  0  0  0  0999 V2000
    3.2930    0.4610   -1.3210 O   0  0  0  0  0  0  0  0  0  0  0  0
    3.0500    0.4990    0.0330 C   0  0  0  0  0  0  0  0  0  0  0  0
    2.0510   -0.5410    0.4920 C   0  0  2  0  0  0  0  0  0  0  0  0
    2.5540   -1.8010    0.1780 O   0  0  0  0  0  0  0  0  0  0  0  0
    0.7940   -0.3380   -0.0580 O   0  0  0  0  0  0  0  0  0  0  0  0
   -0.1060   -0.1040    0.9460 C   0  0  0  0  0  0  0  0  0  0  0  0
   -1.5050    0.1310    0.4880 C   0  0  1  0  0  0  0  0  0  0  0  0
   -2.2890    0.3530    1.6390 O   0  0  0  0  0  0  0  0  0  0  0  0
   -1.6360    1.3420   -0.4070 C   0  0  0  0  0  0  0  0  0  0  0  0
   -2.9520    1.5610   -0.7910 O   0  0  0  0  0  0  0  0  0  0  0  0
   -2.0330   -1.1180   -0.1600 C   0  0  0  0  0  0  0  0  0  0  0  0
   -1.8930   -2.1520    0.7840 O   0  0  0  0  0  0  0  0  0  0  0  0
  1  2  1  0
  2  3  1  0
  3  4  1  6
  3  5  1  0
  5  6  1  0
  6  7  1  0
  7  8  1  1
  7  9  1  0
  7 11  1  0
  9 10  1  0
 11 12  1  0
M  END
