
     RDKit          3D

 30 32  0  0  0  0  0  0  0  0999 V2000
    7.0700    0.1650    0.4320 C   0  0  0  0  0  0  0  0  0  0  0  0
    5.7980    0.0180    1.1230 N   0  0  0  0  0  0  0  0  0  0  0  0
    5.4550    1.0900    1.9770 C   0  0  0  0  0  0  0  0  0  0  0  0
    4.8980    2.3400    1.4390 C   0  0  0  0  0  0  0  0  0  0  0  0
    3.6180    2.2760    0.6910 C   0  0  0  0  0  0  0  0  0  0  0  0
    3.7190    1.5360   -0.5750 C   0  0  0  0  0  0  0  0  0  0  0  0
    4.7500    1.4480   -1.2850 O   0  0  0  0  0  0  0  0  0  0  0  0
    2.5460    0.8600   -1.0530 N   0  0  0  0  0  0  0  0  0  0  0  0
    2.6240    0.1350   -2.2880 C   0  0  0  0  0  0  0  0  0  0  0  0
    1.4710    0.6310   -3.1730 C   0  0  0  0  0  0  0  0  0  0  0  0
    0.2120    0.3480   -2.4110 C   0  0  0  0  0  0  0  0  0  0  0  0
    0.1410    0.4740   -1.1040 C   0  0  0  0  0  0  0  0  0  0  0  0
   -1.0680    0.2040   -0.3380 C   0  0  0  0  0  0  0  0  0  0  0  0
   -1.1120    0.3330    0.9210 O   0  0  0  0  0  0  0  0  0  0  0  0
   -2.2690   -0.2180   -0.9570 N   0  0  0  0  0  0  0  0  0  0  0  0
   -3.4490   -0.4830   -0.2220 C   0  0  0  0  0  0  0  0  0  0  0  0
   -3.6800   -1.7950    0.2310 C   0  0  0  0  0  0  0  0  0  0  0  0
   -2.6890   -2.7620   -0.1230 C   0  0  0  0  0  0  0  0  0  0  0  0
   -2.6880   -4.1800    0.2620 C   0  0  0  0  0  0  0  0  0  0  0  0
   -1.6730   -2.4050   -0.8510 O   0  0  0  0  0  0  0  0  0  0  0  0
   -4.8100   -2.0570    0.9500 C   0  0  0  0  0  0  0  0  0  0  0  0
   -5.1540   -3.3980    1.4600 C   0  0  0  0  0  0  0  0  0  0  0  0
   -5.7200   -1.0160    1.2280 C   0  0  0  0  0  0  0  0  0  0  0  0
   -7.1760   -1.3410    2.1570 Cl  0  0  0  0  0  0  0  0  0  0  0  0
   -5.4710    0.2580    0.7740 C   0  0  0  0  0  0  0  0  0  0  0  0
   -4.3350    0.5450    0.0440 C   0  0  0  0  0  0  0  0  0  0  0  0
   -4.2890    1.8280   -0.2940 C   0  0  0  0  0  0  0  0  0  0  0  0
   -5.4990    2.4610    0.2550 C   0  0  0  0  0  0  0  0  0  0  0  0
   -6.1970    1.3580    0.9290 C   0  0  0  0  0  0  0  0  0  0  0  0
    1.3260    0.9170   -0.3000 C   0  0  0  0  0  0  0  0  0  0  0  0
  1  2  1  0
  2  3  1  0
  3  4  1  0
  4  5  1  0
  5  6  1  0
  6  7  2  0
  6  8  1  0
  8  9  1  0
  8 30  1  0
  9 10  1  0
 10 11  1  0
 11 12  2  0
 12 13  1  0
 12 30  1  0
 13 14  2  0
 13 15  1  0
 15 16  1  0
 16 17  2  0
 16 26  1  0
 17 18  1  0
 17 21  1  0
 18 19  1  0
 18 20  2  0
 21 22  1  0
 21 23  2  0
 23 24  1  0
 23 25  1  0
 25 26  1  0
 25 29  2  0
 26 27  2  0
 27 28  1  0
 28 29  1  0
M  CHG  1   2   1
M  END
