
     RDKit          3D

 30 33  0  0  0  0  0  0  0  0999 V2000
    6.7570   -2.1800   -0.3160 C   0  0  0  0  0  0  0  0  0  0  0  0
    5.2660   -1.8150   -0.1470 C   0  0  2  0  0  0  0  0  0  0  0  0
    4.7760   -1.4980   -1.4800 C   0  0  0  0  0  0  0  0  0  0  0  0
    4.7240   -2.4190   -2.3550 O   0  0  0  0  0  0  0  0  0  0  0  0
    4.3390   -0.1770   -1.8680 C   0  0  0  0  0  0  0  0  0  0  0  0
    4.3630    0.8200   -1.0180 C   0  0  0  0  0  0  0  0  0  0  0  0
    3.9050    2.1900   -1.4360 C   0  0  0  0  0  0  0  0  0  0  0  0
    2.8030    2.5300   -0.5660 N   0  0  0  0  0  0  0  0  0  0  0  0
    1.6610    1.6870   -0.5780 C   0  0  0  0  0  0  0  0  0  0  0  0
    1.6130    0.6760   -1.3250 O   0  0  0  0  0  0  0  0  0  0  0  0
    0.5200    1.9310    0.2400 N   0  0  0  0  0  0  0  0  0  0  0  0
   -0.6190    1.0760    0.2170 C   0  0  1  0  0  0  0  0  0  0  0  0
   -0.9340    0.4720    1.5870 C   0  0  0  0  0  0  0  0  0  0  0  0
   -1.9930   -0.5820    1.3410 C   0  0  0  0  0  0  0  0  0  0  0  0
   -3.1730   -0.0770    0.7190 N   0  0  2  0  0  0  0  0  0  0  0  0
   -3.9180   -1.2400    0.2060 C   0  0  0  0  0  0  0  0  0  0  0  0
   -5.3740   -1.0590    0.3480 C   0  0  0  0  0  0  0  0  0  0  0  0
   -5.9910   -1.4970    1.5180 C   0  0  0  0  0  0  0  0  0  0  0  0
   -7.3460   -1.3610    1.7200 C   0  0  0  0  0  0  0  0  0  0  0  0
   -8.1330   -0.7810    0.7540 C   0  0  0  0  0  0  0  0  0  0  0  0
   -9.8700   -0.6120    1.0230 Cl  0  0  0  0  0  0  0  0  0  0  0  0
   -7.5290   -0.3460   -0.4050 C   0  0  0  0  0  0  0  0  0  0  0  0
   -6.1720   -0.4780   -0.6160 C   0  0  0  0  0  0  0  0  0  0  0  0
   -2.9590    0.7990   -0.3840 C   0  0  0  0  0  0  0  0  0  0  0  0
   -1.8960    1.8230   -0.1880 C   0  0  0  0  0  0  0  0  0  0  0  0
    4.8360    0.6090    0.3410 C   0  0  0  0  0  0  0  0  0  0  0  0
    4.9490    1.4720    1.3710 O   0  0  0  0  0  0  0  0  0  0  0  0
    5.4210    0.8340    2.4010 C   0  0  0  0  0  0  0  0  0  0  0  0
    5.6370   -0.4810    2.0800 C   0  0  0  0  0  0  0  0  0  0  0  0
    5.2560   -0.6300    0.7350 C   0  0  0  0  0  0  0  0  0  0  0  0
  2  1  1  6
  2  3  1  0
  2 30  1  0
  3  4  2  0
  3  5  1  0
  5  6  2  0
  6  7  1  0
  6 26  1  0
  7  8  1  0
  8  9  1  0
  9 10  2  0
  9 11  1  0
 12 11  1  1
 12 13  1  0
 12 25  1  0
 13 14  1  0
 14 15  1  0
 15 16  1  6
 15 24  1  0
 16 17  1  0
 17 18  2  0
 17 23  1  0
 18 19  1  0
 19 20  2  0
 20 21  1  0
 20 22  1  0
 22 23  2  0
 24 25  1  0
 26 27  1  0
 26 30  2  0
 27 28  1  0
 28 29  2  0
 29 30  1  0
M  CHG  1  15   1
M  END
