
     RDKit          3D

 30 33  0  0  0  0  0  0  0  0999 V2000
   -6.1570   -1.8310   -0.6360 C   0  0  0  0  0  0  0  0  0  0  0  0
   -5.4700   -0.5770   -0.8720 N   0  0  0  0  0  0  0  0  0  0  0  0
   -4.8720   -0.0630    0.3480 C   0  0  2  0  0  0  0  0  0  0  0  0
   -5.7430    1.0910    0.8420 C   0  0  0  0  0  0  0  0  0  0  0  0
   -3.4900    0.4550    0.0620 C   0  0  0  0  0  0  0  0  0  0  0  0
   -3.2540    1.8140   -0.0560 C   0  0  0  0  0  0  0  0  0  0  0  0
   -2.0140    2.3490   -0.3650 C   0  0  0  0  0  0  0  0  0  0  0  0
   -1.7610    3.8210   -0.5030 C   0  0  0  0  0  0  0  0  0  0  0  0
   -0.9440    1.4560   -0.5650 C   0  0  0  0  0  0  0  0  0  0  0  0
   -1.1270    0.1110   -0.4610 C   0  0  0  0  0  0  0  0  0  0  0  0
    0.0200   -0.7760   -0.6010 C   0  0  0  0  0  0  0  0  0  0  0  0
    0.7240   -0.8050   -1.6620 O   0  0  0  0  0  0  0  0  0  0  0  0
    0.3920   -1.6430    0.4600 N   0  0  0  0  0  0  0  0  0  0  0  0
    1.4560   -2.5750    0.4650 C   0  0  0  0  0  0  0  0  0  0  0  0
    2.7490   -2.1120   -0.0280 C   0  0  0  0  0  0  0  0  0  0  0  0
    3.3850   -2.6480   -1.1100 O   0  0  0  0  0  0  0  0  0  0  0  0
    4.4990   -2.0670   -1.2890 N   0  0  0  0  0  0  0  0  0  0  0  0
    4.7230   -1.1060   -0.3700 C   0  0  0  0  0  0  0  0  0  0  0  0
    3.5940   -1.1280    0.4480 C   0  0  0  0  0  0  0  0  0  0  0  0
    3.4230   -0.1950    1.5630 C   0  0  0  0  0  0  0  0  0  0  0  0
    4.4840    0.7010    1.6920 O   0  0  0  0  0  0  0  0  0  0  0  0
    5.6250    0.7490    0.9000 C   0  0  0  0  0  0  0  0  0  0  0  0
    6.6000    1.6890    1.1770 C   0  0  0  0  0  0  0  0  0  0  0  0
    7.7490    1.7330    0.3990 C   0  0  0  0  0  0  0  0  0  0  0  0
    8.9840    2.9170    0.7420 Cl  0  0  0  0  0  0  0  0  0  0  0  0
    7.9270    0.8430   -0.6670 C   0  0  0  0  0  0  0  0  0  0  0  0
    6.9210   -0.0830   -0.9080 C   0  0  0  0  0  0  0  0  0  0  0  0
    5.7940   -0.1410   -0.1560 C   0  0  0  0  0  0  0  0  0  0  0  0
   -2.3960   -0.3820   -0.1500 C   0  0  0  0  0  0  0  0  0  0  0  0
   -2.6040   -1.8350   -0.0230 C   0  0  0  0  0  0  0  0  0  0  0  0
  1  2  1  0
  2  3  1  0
  3  4  1  6
  3  5  1  0
  5  6  2  0
  5 29  1  0
  6  7  1  0
  7  8  1  0
  7  9  2  0
  9 10  1  0
 10 11  1  0
 10 29  2  0
 11 12  2  0
 11 13  1  0
 13 14  1  0
 14 15  1  0
 15 16  1  0
 15 19  2  0
 16 17  1  0
 17 18  2  0
 18 19  1  0
 18 28  1  0
 19 20  1  0
 20 21  1  0
 21 22  1  0
 22 23  2  0
 22 28  1  0
 23 24  1  0
 24 25  1  0
 24 26  2  0
 26 27  1  0
 27 28  2  0
 29 30  1  0
M  CHG  1   2   1
M  END
