
     RDKit          3D

 29 32  0  0  0  0  0  0  0  0999 V2000
   -7.1420    1.3720   -1.1040 C   0  0  0  0  0  0  0  0  0  0  0  0
   -6.2670    0.2670   -1.3840 N   0  0  0  0  0  0  0  0  0  0  0  0
   -6.1780   -0.7330   -0.3840 C   0  0  0  0  0  0  0  0  0  0  0  0
   -4.8250   -0.8350    0.3070 C   0  0  1  0  0  0  0  0  0  0  0  0
   -4.9850   -1.9790    1.2910 C   0  0  0  0  0  0  0  0  0  0  0  0
   -5.3140   -3.1660    0.6110 O   0  0  0  0  0  0  0  0  0  0  0  0
   -3.7280   -1.1420   -0.6240 C   0  0  0  0  0  0  0  0  0  0  0  0
   -2.3710   -0.8460    0.0290 C   0  0  0  0  0  0  0  0  0  0  0  0
   -2.2990    0.5430    0.3310 N   0  0  0  0  0  0  0  0  0  0  0  0
   -1.0820    1.2320    0.4850 C   0  0  0  0  0  0  0  0  0  0  0  0
   -1.2250    2.5000    0.6860 O   0  0  0  0  0  0  0  0  0  0  0  0
    0.2680    0.7170    0.4430 C   0  0  0  0  0  0  0  0  0  0  0  0
    0.6800   -0.5730    0.5140 C   0  0  0  0  0  0  0  0  0  0  0  0
    2.0060   -0.9520    0.3790 C   0  0  0  0  0  0  0  0  0  0  0  0
    2.9840   -0.0160    0.1640 C   0  0  0  0  0  0  0  0  0  0  0  0
    4.3160   -0.3940    0.0220 C   0  0  0  0  0  0  0  0  0  0  0  0
    5.3100    0.5330   -0.2010 C   0  0  0  0  0  0  0  0  0  0  0  0
    6.6800    0.1290   -0.3480 N   0  0  0  0  0  0  0  0  0  0  0  0
    7.2090   -1.1910   -0.1150 C   0  0  0  0  0  0  0  0  0  0  0  0
    8.6780   -1.0140    0.2260 C   0  0  0  0  0  0  0  0  0  0  0  0
    9.0420    0.3960   -0.2240 C   0  0  0  0  0  0  0  0  0  0  0  0
    7.7750    0.9390   -0.7480 C   0  0  0  0  0  0  0  0  0  0  0  0
    7.7180    1.9860   -1.4520 O   0  0  0  0  0  0  0  0  0  0  0  0
    4.9490    1.8540   -0.2790 C   0  0  0  0  0  0  0  0  0  0  0  0
    3.6210    2.2280   -0.1370 C   0  0  0  0  0  0  0  0  0  0  0  0
    2.6160    1.2990    0.0870 C   0  0  0  0  0  0  0  0  0  0  0  0
    1.3000    1.6580    0.2220 C   0  0  0  0  0  0  0  0  0  0  0  0
   -3.5320    1.2910    0.5270 C   0  0  0  0  0  0  0  0  0  0  0  0
   -4.5420    0.3870    1.1740 C   0  0  0  0  0  0  0  0  0  0  0  0
  1  2  1  0
  2  3  1  0
  4  3  1  6
  4  5  1  0
  4  7  1  0
  4 29  1  0
  5  6  1  0
  7  8  1  0
  8  9  1  0
  9 10  1  0
  9 28  1  0
 10 11  2  0
 10 12  1  0
 12 13  2  0
 12 27  1  0
 13 14  1  0
 14 15  2  0
 15 16  1  0
 15 26  1  0
 16 17  2  0
 17 18  1  0
 17 24  1  0
 18 19  1  0
 18 22  1  0
 19 20  1  0
 20 21  1  0
 21 22  1  0
 22 23  2  0
 24 25  2  0
 25 26  1  0
 26 27  2  0
 28 29  1  0
M  CHG  1   2   1
M  END
