
     RDKit          3D

 30 33  0  0  0  0  0  0  0  0999 V2000
   -6.4380   -2.7690   -1.3060 C   0  0  0  0  0  0  0  0  0  0  0  0
   -6.8110   -2.0460   -0.0310 C   0  0  0  0  0  0  0  0  0  0  0  0
   -6.1100   -0.7440    0.0040 N   0  0  0  0  0  0  0  0  0  0  0  0
   -4.6970   -0.7540    0.0840 C   0  0  0  0  0  0  0  0  0  0  0  0
   -4.0300   -1.9420    0.2130 C   0  0  0  0  0  0  0  0  0  0  0  0
   -2.6290   -1.9420    0.3070 C   0  0  0  0  0  0  0  0  0  0  0  0
   -1.8780   -0.7920    0.2770 C   0  0  0  0  0  0  0  0  0  0  0  0
   -0.4550   -0.8130    0.3740 N   0  0  0  0  0  0  0  0  0  0  0  0
    0.3590   -1.9450    0.5090 C   0  0  0  0  0  0  0  0  0  0  0  0
   -0.1000   -3.0860    0.5590 O   0  0  0  0  0  0  0  0  0  0  0  0
    1.8610   -1.7290    0.5950 C   0  0  0  0  0  0  0  0  0  0  0  0
    2.1790   -0.4070    0.5220 O   0  0  0  0  0  0  0  0  0  0  0  0
    3.5310   -0.2020    0.6350 C   0  0  0  0  0  0  0  0  0  0  0  0
    4.2790   -0.8800   -0.4580 C   0  0  0  0  0  0  0  0  0  0  0  0
    5.7170   -0.6610   -0.3690 N   0  0  2  0  0  0  0  0  0  0  0  0
    6.1620   -0.1920    0.9050 C   0  0  0  0  0  0  0  0  0  0  0  0
    7.5470    0.3740    0.5510 C   0  0  0  0  0  0  0  0  0  0  0  0
    7.2610    1.0920   -0.7530 C   0  0  0  0  0  0  0  0  0  0  0  0
    6.0120    0.4420   -1.2920 C   0  0  0  0  0  0  0  0  0  0  0  0
   -2.5480    0.4190    0.1470 C   0  0  0  0  0  0  0  0  0  0  0  0
   -1.8350    1.6000    0.1110 C   0  0  0  0  0  0  0  0  0  0  0  0
   -2.5300    2.7930   -0.0210 C   0  0  0  0  0  0  0  0  0  0  0  0
   -3.8930    2.7920   -0.1130 C   0  0  0  0  0  0  0  0  0  0  0  0
   -4.6200    1.6070   -0.0780 C   0  0  0  0  0  0  0  0  0  0  0  0
   -3.9540    0.4070    0.0530 C   0  0  0  0  0  0  0  0  0  0  0  0
   -4.3670    4.1600   -0.2420 C   0  0  0  0  0  0  0  0  0  0  0  0
   -6.0160    4.7450   -0.3950 Cl  0  0  0  0  0  0  0  0  0  0  0  0
   -3.3190    4.9990   -0.2310 C   0  0  0  0  0  0  0  0  0  0  0  0
   -2.1000    4.1730   -0.0900 C   0  0  0  0  0  0  0  0  0  0  0  0
   -0.9310    4.5750   -0.0390 O   0  0  0  0  0  0  0  0  0  0  0  0
  1  2  1  0
  2  3  1  0
  3  4  1  0
  4  5  2  0
  4 25  1  0
  5  6  1  0
  6  7  2  0
  7  8  1  0
  7 20  1  0
  8  9  1  0
  9 10  2  0
  9 11  1  0
 11 12  1  0
 12 13  1  0
 13 14  1  0
 15 14  1  1
 15 16  1  0
 15 19  1  0
 16 17  1  0
 17 18  1  0
 18 19  1  0
 20 21  2  0
 20 25  1  0
 21 22  1  0
 22 23  2  0
 22 29  1  0
 23 24  1  0
 23 26  1  0
 24 25  2  0
 26 27  1  0
 26 28  2  0
 28 29  1  0
 29 30  2  0
M  CHG  1  15   1
M  END
