
     RDKit          3D

 30 33  0  0  0  0  0  0  0  0999 V2000
   -5.0200   -3.5400    1.1680 C   0  0  0  0  0  0  0  0  0  0  0  0
   -4.3050   -3.0060   -0.0020 N   0  0  1  0  0  0  0  0  0  0  0  0
   -4.8570   -1.7020   -0.2530 C   0  0  0  0  0  0  0  0  0  0  0  0
   -4.0010   -0.8180   -1.0780 C   0  0  0  0  0  0  0  0  0  0  0  0
   -2.6190   -0.7540   -0.4720 C   0  0  2  0  0  0  0  0  0  0  0  0
   -2.7710   -0.5240    0.9140 O   0  0  0  0  0  0  0  0  0  0  0  0
   -1.7800    0.3130   -1.1060 C   0  0  0  0  0  0  0  0  0  0  0  0
   -0.4010    0.3310   -0.5110 N   0  0  0  0  0  0  0  0  0  0  0  0
   -0.2640    1.1010    0.6990 C   0  0  0  0  0  0  0  0  0  0  0  0
    0.2220    2.4600    0.3590 C   0  0  0  0  0  0  0  0  0  0  0  0
    0.4480    3.4190    1.3240 C   0  0  0  0  0  0  0  0  0  0  0  0
    0.9050    4.6800    0.9520 C   0  0  0  0  0  0  0  0  0  0  0  0
    1.1480    5.0210   -0.3620 C   0  0  0  0  0  0  0  0  0  0  0  0
    1.6070    6.2940   -0.7130 O   0  0  0  0  0  0  0  0  0  0  0  0
    0.9210    4.0610   -1.3160 C   0  0  0  0  0  0  0  0  0  0  0  0
    0.4680    2.8110   -0.9540 C   0  0  0  0  0  0  0  0  0  0  0  0
    0.5980   -0.3990   -1.1290 C   0  0  0  0  0  0  0  0  0  0  0  0
    0.1720   -1.0580   -2.2080 O   0  0  0  0  0  0  0  0  0  0  0  0
    1.9920   -0.5870   -0.8450 C   0  0  0  0  0  0  0  0  0  0  0  0
    2.7250   -0.0960    0.0870 C   0  0  0  0  0  0  0  0  0  0  0  0
    4.1350   -0.3570    0.2830 C   0  0  0  0  0  0  0  0  0  0  0  0
    4.8740    0.2190    1.3330 C   0  0  0  0  0  0  0  0  0  0  0  0
    6.1550   -0.2470    1.2060 C   0  0  0  0  0  0  0  0  0  0  0  0
    6.2230   -1.0570    0.1560 N   0  0  0  0  0  0  0  0  0  0  0  0
    4.9820   -1.1360   -0.4260 C   0  0  0  0  0  0  0  0  0  0  0  0
    4.6980   -2.1170   -1.8400 Cl  0  0  0  0  0  0  0  0  0  0  0  0
    7.6010   -1.2650    0.4100 C   0  0  0  0  0  0  0  0  0  0  0  0
    7.5790   -0.4610    1.4700 C   0  0  0  0  0  0  0  0  0  0  0  0
   -2.0480   -2.1490   -0.5720 C   0  0  0  0  0  0  0  0  0  0  0  0
   -2.9240   -3.0310    0.2950 C   0  0  0  0  0  0  0  0  0  0  0  0
  2  1  1  1
  2  3  1  0
  2 30  1  0
  3  4  1  0
  4  5  1  0
  5  6  1  1
  5  7  1  0
  5 29  1  0
  7  8  1  0
  8  9  1  0
  8 17  1  0
  9 10  1  0
 10 11  2  0
 10 16  1  0
 11 12  1  0
 12 13  2  0
 13 14  1  0
 13 15  1  0
 15 16  2  0
 17 18  2  0
 17 19  1  0
 19 20  2  3
 20 21  1  0
 21 22  1  0
 21 25  2  0
 22 23  2  0
 23 24  1  0
 23 28  1  0
 24 25  1  0
 24 27  1  0
 25 26  1  0
 27 28  2  0
 29 30  1  0
M  CHG  1   2   1
M  END
