
     RDKit          3D

 30 33  0  0  0  0  0  0  0  0999 V2000
   -3.7920   -2.8970   -1.0490 C   0  0  0  0  0  0  0  0  0  0  0  0
   -4.0810   -1.5490   -0.4920 C   0  0  0  0  0  0  0  0  0  0  0  0
   -3.1280   -0.8080    0.1800 C   0  0  0  0  0  0  0  0  0  0  0  0
   -3.3900    0.4430    0.6990 C   0  0  0  0  0  0  0  0  0  0  0  0
   -4.6320    1.0070    0.5630 C   0  0  0  0  0  0  0  0  0  0  0  0
   -5.5920    0.2770   -0.1070 C   0  0  0  0  0  0  0  0  0  0  0  0
   -5.3330   -0.9880   -0.6330 C   0  0  0  0  0  0  0  0  0  0  0  0
   -6.3350   -1.6900   -1.3040 O   0  0  0  0  0  0  0  0  0  0  0  0
   -5.0100    2.3340    1.0780 C   0  0  0  0  0  0  0  0  0  0  0  0
   -3.7290    3.0940    1.4480 C   0  0  0  0  0  0  0  0  0  0  0  0
   -2.9080    2.1750    2.2870 C   0  0  0  0  0  0  0  0  0  0  0  0
   -2.2740    1.1470    1.4080 C   0  0  2  0  0  0  0  0  0  0  0  0
   -1.3600    1.6710    0.4320 N   0  0  0  0  0  0  0  0  0  0  0  0
    0.0030    1.2430    0.3610 C   0  0  0  0  0  0  0  0  0  0  0  0
    0.3580    0.3950    1.1890 O   0  0  0  0  0  0  0  0  0  0  0  0
    0.9160    1.7410   -0.5890 N   0  0  0  0  0  0  0  0  0  0  0  0
    2.3000    1.3450   -0.7210 C   0  0  0  0  0  0  0  0  0  0  0  0
    2.3720   -0.1340   -1.0360 C   0  0  1  0  0  0  0  0  0  0  0  0
    1.7150   -0.4800   -2.2180 N   0  0  0  0  0  0  0  0  0  0  0  0
    2.2300   -1.1340   -3.1710 C   0  0  0  0  0  0  0  0  0  0  0  0
    3.5910   -1.6170   -3.1520 C   0  0  0  0  0  0  0  0  0  0  0  0
    4.3230   -1.3510   -2.0580 C   0  0  0  0  0  0  0  0  0  0  0  0
    5.9910   -1.9460   -2.0460 Cl  0  0  0  0  0  0  0  0  0  0  0  0
    3.7620   -0.6520   -0.9410 C   0  0  0  0  0  0  0  0  0  0  0  0
    4.4270   -0.4950    0.1870 C   0  0  0  0  0  0  0  0  0  0  0  0
    5.7400   -0.8510    0.6140 C   0  0  0  0  0  0  0  0  0  0  0  0
    6.0410   -1.5290    1.8150 C   0  0  0  0  0  0  0  0  0  0  0  0
    7.4040   -1.6690    1.8530 C   0  0  0  0  0  0  0  0  0  0  0  0
    7.8850   -1.0900    0.7110 C   0  0  0  0  0  0  0  0  0  0  0  0
    6.8750   -0.6400    0.0430 O   0  0  0  0  0  0  0  0  0  0  0  0
  1  2  1  0
  2  3  2  0
  2  7  1  0
  3  4  1  0
  4  5  2  0
  4 12  1  0
  5  6  1  0
  5  9  1  0
  6  7  2  0
  7  8  1  0
  9 10  1  0
 10 11  1  0
 11 12  1  0
 12 13  1  6
 13 14  1  0
 14 15  2  0
 14 16  1  0
 16 17  1  0
 18 17  1  6
 18 19  1  0
 18 24  1  0
 19 20  2  0
 20 21  1  0
 21 22  2  0
 22 23  1  0
 22 24  1  0
 24 25  2  3
 25 26  1  0
 26 27  2  0
 26 30  1  0
 27 28  1  0
 28 29  2  0
 29 30  1  0
M  CHG  1  19   1
M  END
