
     RDKit          3D

 14 15  0  0  0  0  0  0  0  0999 V2000
    4.4380    1.2840   -0.2390 N   0  0  0  0  0  0  0  0  0  0  0  0
    3.4270    0.3480   -0.1800 N   0  0  0  0  0  0  0  0  0  0  0  0
    2.1780    0.6750    0.4220 C   0  0  0  0  0  0  0  0  0  0  0  0
    2.0360    1.8280    0.8870 O   0  0  0  0  0  0  0  0  0  0  0  0
    1.0690   -0.2840    0.5110 C   0  0  2  0  0  0  0  0  0  0  0  0
    0.7420   -0.7880   -0.8760 C   0  0  0  0  0  0  0  0  0  0  0  0
   -0.4860   -1.5000   -0.8610 O   0  0  0  0  0  0  0  0  0  0  0  0
   -1.5850   -0.8440   -0.3050 C   0  0  0  0  0  0  0  0  0  0  0  0
   -2.8200   -1.0600   -0.6990 C   0  0  0  0  0  0  0  0  0  0  0  0
   -3.9740   -0.3470   -0.0890 C   0  0  0  0  0  0  0  0  0  0  0  0
   -3.5970    0.5450    0.9160 O   0  0  0  0  0  0  0  0  0  0  0  0
   -2.3180    0.7890    1.3450 C   0  0  0  0  0  0  0  0  0  0  0  0
   -1.3250    0.1160    0.7570 C   0  0  0  0  0  0  0  0  0  0  0  0
   -0.0200    0.3230    1.1500 O   0  0  0  0  0  0  0  0  0  0  0  0
  1  2  1  0
  2  3  1  0
  3  4  2  0
  5  3  1  6
  5  6  1  0
  5 14  1  0
  6  7  1  0
  7  8  1  0
  8  9  2  0
  8 13  1  0
  9 10  1  0
 10 11  1  0
 11 12  1  0
 12 13  2  0
 13 14  1  0
M  END
