
     RDKit          3D

 13 14  0  0  0  0  0  0  0  0999 V2000
   -1.8930   -1.9260    0.1580 C   0  0  0  0  0  0  0  0  0  0  0  0
   -1.5320   -0.4790    0.0100 C   0  0  0  0  0  0  0  0  0  0  0  0
   -2.5450    0.4480   -0.1210 C   0  0  0  0  0  0  0  0  0  0  0  0
   -2.1890    1.7730   -0.2560 C   0  0  0  0  0  0  0  0  0  0  0  0
   -0.8500    2.1390   -0.2570 C   0  0  0  0  0  0  0  0  0  0  0  0
    0.1560    1.1900   -0.1240 C   0  0  0  0  0  0  0  0  0  0  0  0
    1.4880    1.5440   -0.1240 C   0  0  0  0  0  0  0  0  0  0  0  0
    1.8580    2.7370   -0.2440 O   0  0  0  0  0  0  0  0  0  0  0  0
    2.4340    0.6010    0.0070 N   0  0  0  0  0  0  0  0  0  0  0  0
    2.1080   -0.7180    0.1420 C   0  0  0  0  0  0  0  0  0  0  0  0
    3.1170   -1.7110    0.2800 N   0  0  0  0  0  0  0  0  0  0  0  0
    0.7980   -1.0490    0.1400 N   0  0  0  0  0  0  0  0  0  0  0  0
   -0.1920   -0.1380    0.0120 C   0  0  0  0  0  0  0  0  0  0  0  0
  1  2  1  0
  2  3  2  0
  2 13  1  0
  3  4  1  0
  4  5  2  0
  5  6  1  0
  6  7  1  0
  6 13  2  0
  7  8  2  0
  7  9  1  0
  9 10  1  0
 10 11  1  0
 10 12  2  0
 12 13  1  0
M  END
