
     RDKit          3D

 21 23  0  0  0  0  0  0  0  0999 V2000
    1.7570    1.2800   -1.2520 O   0  0  0  0  0  0  0  0  0  0  0  0
    1.8270    0.3750   -0.4110 C   0  0  0  0  0  0  0  0  0  0  0  0
    0.6750   -0.1670    0.2800 C   0  0  0  0  0  0  0  0  0  0  0  0
   -0.4650    0.6950    0.4480 N   0  0  1  0  0  0  0  0  0  0  0  0
   -0.6870    1.6790   -0.5380 C   0  0  0  0  0  0  0  0  0  0  0  0
   -2.0120    2.3850   -0.4080 C   0  0  0  0  0  0  0  0  0  0  0  0
   -3.1540    1.4890   -0.1030 C   0  0  0  0  0  0  0  0  0  0  0  0
   -2.8270    0.0320   -0.0040 C   0  0  1  0  0  0  0  0  0  0  0  0
   -3.9570   -0.5880    0.8330 C   0  0  0  0  0  0  0  0  0  0  0  0
   -4.4900   -1.7490    0.0490 C   0  0  0  0  0  0  0  0  0  0  0  0
   -4.1670   -1.3740   -1.3150 N   0  0  0  0  0  0  0  0  0  0  0  0
   -2.9180   -0.6930   -1.2680 C   0  0  0  0  0  0  0  0  0  0  0  0
   -2.1150   -0.7980   -2.2520 O   0  0  0  0  0  0  0  0  0  0  0  0
   -1.5830   -0.1420    0.7750 C   0  0  0  0  0  0  0  0  0  0  0  0
    3.1580   -0.1710   -0.1000 C   0  0  0  0  0  0  0  0  0  0  0  0
    4.2530    0.2730   -0.6940 C   0  0  0  0  0  0  0  0  0  0  0  0
    4.0810    1.2860   -1.6310 O   0  0  0  0  0  0  0  0  0  0  0  0
    5.5930   -0.2850   -0.3660 C   0  0  0  0  0  0  0  0  0  0  0  0
    5.4560   -1.6710    0.0580 N   0  0  0  0  0  0  0  0  0  0  0  0
    4.5750   -1.6680    1.2200 C   0  0  0  0  0  0  0  0  0  0  0  0
    3.3090   -1.1880    0.8400 O   0  0  0  0  0  0  0  0  0  0  0  0
  1  2  2  0
  2  3  1  0
  2 15  1  0
  4  3  1  6
  4  5  1  0
  4 14  1  0
  5  6  1  0
  6  7  1  0
  8  7  1  6
  8  9  1  0
  8 12  1  0
  8 14  1  0
  9 10  1  0
 10 11  1  0
 11 12  1  0
 12 13  2  0
 15 16  2  0
 15 21  1  0
 16 17  1  0
 16 18  1  0
 18 19  1  0
 19 20  1  0
 20 21  1  0
M  CHG  1   4   1
M  END
