
     RDKit          3D

 13 14  0  0  0  0  0  0  0  0999 V2000
    1.3340    0.6960   -2.2870 O   0  0  0  0  0  0  0  0  0  0  0  0
    1.8410    0.1760   -1.2830 C   0  0  0  0  0  0  0  0  0  0  0  0
    3.0780   -0.5170   -1.2340 O   0  0  0  0  0  0  0  0  0  0  0  0
    3.5840   -0.5350    0.0910 C   0  0  0  0  0  0  0  0  0  0  0  0
    2.5710    0.2620    0.9340 C   0  0  0  0  0  0  0  0  0  0  0  0
    1.3640    0.1050    0.0770 C   0  0  1  0  0  0  0  0  0  0  0  0
    0.1710    0.7380    0.4870 N   0  0  0  0  0  0  0  0  0  0  0  0
   -0.9640    0.0390   -0.0280 C   0  0  2  0  0  0  0  0  0  0  0  0
   -1.9880    0.7470   -0.8060 C   0  0  0  0  0  0  0  0  0  0  0  0
   -3.1520   -0.0250   -0.6800 O   0  0  0  0  0  0  0  0  0  0  0  0
   -3.0500   -0.8370    0.4150 C   0  0  0  0  0  0  0  0  0  0  0  0
   -1.8200   -0.4440    1.1800 C   0  0  2  0  0  0  0  0  0  0  0  0
   -2.0320    0.6960    1.9490 O   0  0  0  0  0  0  0  0  0  0  0  0
  1  2  2  0
  2  3  1  0
  2  6  1  0
  3  4  1  0
  4  5  1  0
  5  6  1  0
  6  7  1  1
  8  7  1  1
  8  9  1  0
  8 12  1  0
  9 10  1  0
 10 11  1  0
 11 12  1  0
 12 13  1  1
M  END
