
     RDKit          3D

 14 15  0  0  0  0  0  0  0  0999 V2000
   -1.4560   -2.7280   -0.0050 N   0  0  0  0  0  0  0  0  0  0  0  0
   -1.7320   -1.3410    0.0050 C   0  0  0  0  0  0  0  0  0  0  0  0
   -2.6340   -0.9480    0.7640 O   0  0  0  0  0  0  0  0  0  0  0  0
   -0.9750   -0.4580   -0.8450 C   0  0  2  0  0  0  0  0  0  0  0  0
    0.4880   -0.5430   -0.4830 C   0  0  0  0  0  0  0  0  0  0  0  0
    0.5710    0.7600   -0.2770 C   0  0  0  0  0  0  0  0  0  0  0  0
    1.8220    1.3300    0.1250 N   0  0  0  0  0  0  0  0  0  0  0  0
    2.9700    0.5100    0.3030 C   0  0  0  0  0  0  0  0  0  0  0  0
    4.0420    0.9790    0.7540 O   0  0  0  0  0  0  0  0  0  0  0  0
    2.8920   -0.9140   -0.0500 C   0  0  0  0  0  0  0  0  0  0  0  0
    1.5910   -1.3490   -0.3150 O   0  0  0  0  0  0  0  0  0  0  0  0
   -0.8640    0.9720   -0.6170 C   0  0  2  0  0  0  0  0  0  0  0  0
   -1.6460    1.6890    0.3980 C   0  0  0  0  0  0  0  0  0  0  0  0
   -3.0160    1.5780    0.1800 O   0  0  0  0  0  0  0  0  0  0  0  0
  1  2  1  0
  2  3  2  0
  4  2  1  1
  4  5  1  0
  4 12  1  0
  5  6  2  0
  5 11  1  0
  6  7  1  0
  6 12  1  0
  7  8  1  0
  8  9  2  0
  8 10  1  0
 10 11  1  0
 12 13  1  1
 13 14  1  0
M  END
