
     RDKit          3D

 21 23  0  0  0  0  0  0  0  0999 V2000
   -3.1940   -2.6000   -0.6660 O   0  0  0  0  0  0  0  0  0  0  0  0
   -2.4870   -1.9170    0.1180 C   0  0  0  0  0  0  0  0  0  0  0  0
   -1.3870   -2.5390    0.7460 N   0  0  0  0  0  0  0  0  0  0  0  0
   -0.2360   -1.8630    1.3620 C   0  0  0  0  0  0  0  0  0  0  0  0
    0.3620   -0.9740    0.3180 C   0  0  2  0  0  0  0  0  0  0  0  0
    1.5900   -0.4660    0.7160 O   0  0  0  0  0  0  0  0  0  0  0  0
    2.6280   -0.9110   -0.1030 C   0  0  0  0  0  0  0  0  0  0  0  0
    3.9190   -0.3300    0.3780 C   0  0  0  0  0  0  0  0  0  0  0  0
    4.9910   -0.9800    0.7960 C   0  0  0  0  0  0  0  0  0  0  0  0
    5.9980    0.0260    1.1620 C   0  0  0  0  0  0  0  0  0  0  0  0
    5.3760    1.3400    0.9040 C   0  0  0  0  0  0  0  0  0  0  0  0
    4.1630    1.1180    0.4470 C   0  0  0  0  0  0  0  0  0  0  0  0
   -0.4850    0.1270   -0.1140 C   0  0  0  0  0  0  0  0  0  0  0  0
    0.1690    1.0730   -0.6700 O   0  0  0  0  0  0  0  0  0  0  0  0
   -1.8740    0.4100   -0.0680 N   0  0  0  0  0  0  0  0  0  0  0  0
   -1.9950    1.7940   -0.4330 C   0  0  0  0  0  0  0  0  0  0  0  0
   -2.9920    2.0400   -1.5310 C   0  0  0  0  0  0  0  0  0  0  0  0
   -4.3550    1.9370   -1.1190 N   0  0  0  0  0  0  0  0  0  0  0  0
   -4.5760    1.0830   -0.1140 O   0  0  0  0  0  0  0  0  0  0  0  0
   -4.1300   -0.1860   -0.5450 C   0  0  0  0  0  0  0  0  0  0  0  0
   -2.9200   -0.5170    0.2750 C   0  0  1  0  0  0  0  0  0  0  0  0
  1  2  2  0
  2  3  1  0
  2 21  1  0
  3  4  1  0
  4  5  1  0
  5  6  1  1
  5 13  1  0
  6  7  1  0
  7  8  1  0
  8  9  2  0
  8 12  1  0
  9 10  1  0
 10 11  1  0
 11 12  2  0
 13 14  2  0
 13 15  1  0
 15 16  1  0
 15 21  1  0
 16 17  1  0
 17 18  1  0
 18 19  1  0
 19 20  1  0
 21 20  1  6
M  CHG  1  18   1
M  END
