
     RDKit          3D

 14 14  0  0  0  0  0  0  0  0999 V2000
   -3.0370   -1.6660   -0.2540 C   0  0  0  0  0  0  0  0  0  0  0  0
   -2.1980   -0.7040    0.0740 C   0  0  0  0  0  0  0  0  0  0  0  0
   -1.1910   -0.1650   -0.8680 C   0  0  1  0  0  0  0  0  0  0  0  0
   -1.5830    1.0480   -1.4240 O   0  0  0  0  0  0  0  0  0  0  0  0
   -1.5200    1.9610   -0.3790 C   0  0  1  0  0  0  0  0  0  0  0  0
   -2.7680    2.0450    0.1990 O   0  0  0  0  0  0  0  0  0  0  0  0
   -0.4490    1.4780    0.5650 C   0  0  0  0  0  0  0  0  0  0  0  0
   -0.0300    0.2290   -0.0900 N   0  0  0  0  0  0  0  0  0  0  0  0
    1.1970   -0.4420   -0.0000 C   0  0  0  0  0  0  0  0  0  0  0  0
    1.1970   -1.8620    0.1060 N   0  0  0  0  0  0  0  0  0  0  0  0
    2.3650    0.1770   -0.0090 C   0  0  0  0  0  0  0  0  0  0  0  0
    3.6210   -0.5350    0.0850 C   0  0  0  0  0  0  0  0  0  0  0  0
    3.5990   -1.7950    0.1790 O   0  0  0  0  0  0  0  0  0  0  0  0
    4.8170    0.1290    0.0740 O   0  0  0  0  0  0  0  0  0  0  0  0
  1  2  2  0
  3  2  1  1
  3  4  1  0
  3  8  1  0
  4  5  1  0
  5  6  1  1
  5  7  1  0
  7  8  1  0
  8  9  1  0
  9 10  1  0
  9 11  2  3
 11 12  1  0
 12 13  2  0
 12 14  1  0
M  END
