
     RDKit          3D

 14 14  0  0  0  0  0  0  0  0999 V2000
   -4.3260    0.2860   -0.5880 C   0  0  0  0  0  0  0  0  0  0  0  0
   -2.8540    0.1240   -0.7330 C   0  0  0  0  0  0  0  0  0  0  0  0
   -2.3290   -0.0870   -1.8540 O   0  0  0  0  0  0  0  0  0  0  0  0
   -2.0330    0.2070    0.4050 N   0  0  0  0  0  0  0  0  0  0  0  0
   -0.6290    0.0650    0.3610 C   0  0  0  0  0  0  0  0  0  0  0  0
    0.2240    0.9910    0.7380 C   0  0  0  0  0  0  0  0  0  0  0  0
    1.6540    0.7850    0.6690 N   0  0  0  0  0  0  0  0  0  0  0  0
    2.5630    1.6700    1.3610 C   0  0  0  0  0  0  0  0  0  0  0  0
    3.8520    1.2590    1.1360 O   0  0  0  0  0  0  0  0  0  0  0  0
    2.2030   -0.3160   -0.0980 C   0  0  0  0  0  0  0  0  0  0  0  0
    1.1080   -0.8330   -1.0380 C   0  0  1  0  0  0  0  0  0  0  0  0
    1.5040   -1.9480   -1.7320 O   0  0  0  0  0  0  0  0  0  0  0  0
   -0.0610   -1.2040   -0.1380 C   0  0  2  0  0  0  0  0  0  0  0  0
   -0.9640   -2.0390   -0.7370 O   0  0  0  0  0  0  0  0  0  0  0  0
  1  2  1  0
  2  3  2  0
  2  4  1  0
  4  5  1  0
  5  6  2  0
  5 13  1  0
  6  7  1  0
  7  8  1  0
  7 10  1  0
  8  9  1  0
 10 11  1  0
 11 12  1  1
 11 13  1  0
 13 14  1  6
M  END
