
     RDKit          3D

 28 32  0  0  0  0  0  0  0  0999 V2000
   -1.3270   -1.7450    2.0260 O   0  0  0  0  0  0  0  0  0  0  0  0
   -1.2320   -1.2960    0.7710 C   0  0  0  0  0  0  0  0  0  0  0  0
   -2.4850   -0.7270    0.3110 C   0  0  0  0  0  0  0  0  0  0  0  0
   -2.5970   -0.1900   -0.9900 N   0  0  2  0  0  0  0  0  0  0  0  0
   -2.4260    1.2550   -0.9330 C   0  0  0  0  0  0  0  0  0  0  0  0
   -3.3820    1.9440   -0.0180 C   0  0  0  0  0  0  0  0  0  0  0  0
   -4.6930    1.2750   -0.0150 C   0  0  0  0  0  0  0  0  0  0  0  0
   -4.9400    0.2000   -0.6960 C   0  0  0  0  0  0  0  0  0  0  0  0
   -6.2910   -0.4850   -0.6900 C   0  0  0  0  0  0  0  0  0  0  0  0
   -7.3810    0.4340   -0.2510 C   0  0  0  0  0  0  0  0  0  0  0  0
   -6.9470    1.0750    1.0540 C   0  0  0  0  0  0  0  0  0  0  0  0
   -5.7550    1.8400    0.7820 N   0  0  0  0  0  0  0  0  0  0  0  0
   -3.9300   -0.4850   -1.5540 C   0  0  0  0  0  0  0  0  0  0  0  0
    0.0250   -1.4710    0.1990 N   0  0  0  0  0  0  0  0  0  0  0  0
    1.0740   -2.1220    1.0550 C   0  0  0  0  0  0  0  0  0  0  0  0
    2.1430   -1.0270    1.1800 C   0  0  0  0  0  0  0  0  0  0  0  0
    2.7020   -0.9160   -0.1480 N   0  0  0  0  0  0  0  0  0  0  0  0
    4.0140   -0.4330   -0.3010 C   0  0  0  0  0  0  0  0  0  0  0  0
    4.5880   -0.3220   -1.5330 N   0  0  0  0  0  0  0  0  0  0  0  0
    5.8500    0.1500   -1.5790 C   0  0  0  0  0  0  0  0  0  0  0  0
    6.5700    0.5150   -0.4690 C   0  0  0  0  0  0  0  0  0  0  0  0
    5.9670    0.3930    0.7680 C   0  0  0  0  0  0  0  0  0  0  0  0
    4.7130   -0.0780    0.7860 N   0  0  0  0  0  0  0  0  0  0  0  0
    6.9450    0.8500    1.8040 C   0  0  0  0  0  0  0  0  0  0  0  0
    8.2630    0.5670    1.1140 C   0  0  0  0  0  0  0  0  0  0  0  0
    7.9510    1.0480   -0.3060 C   0  0  0  0  0  0  0  0  0  0  0  0
    1.9540   -1.2840   -1.3030 C   0  0  0  0  0  0  0  0  0  0  0  0
    0.4460   -1.1130   -1.1030 C   0  0  0  0  0  0  0  0  0  0  0  0
  1  2  2  0
  2  3  1  0
  2 14  1  0
  4  3  1  1
  4  5  1  0
  4 13  1  0
  5  6  1  0
  6  7  1  0
  7  8  2  0
  7 12  1  0
  8  9  1  0
  8 13  1  0
  9 10  1  0
 10 11  1  0
 11 12  1  0
 14 15  1  0
 14 28  1  0
 15 16  1  0
 16 17  1  0
 17 18  1  0
 17 27  1  0
 18 19  2  0
 18 23  1  0
 19 20  1  0
 20 21  2  0
 21 22  1  0
 21 26  1  0
 22 23  2  0
 22 24  1  0
 24 25  1  0
 25 26  1  0
 27 28  1  0
M  CHG  1   4   1
M  END
