
     RDKit          3D

 14 15  0  0  0  0  0  0  0  0999 V2000
   -0.1110   -2.6250    1.2570 O   0  0  0  0  0  0  0  0  0  0  0  0
    0.3160   -1.6110    0.6640 C   0  0  0  0  0  0  0  0  0  0  0  0
    1.7300   -1.5070    0.5560 N   0  0  0  0  0  0  0  0  0  0  0  0
    2.4930   -0.5600   -0.2310 C   0  0  1  0  0  0  0  0  0  0  0  0
    2.3280   -0.8170   -1.5800 O   0  0  0  0  0  0  0  0  0  0  0  0
    2.0700    0.8600    0.0950 C   0  0  2  0  0  0  0  0  0  0  0  0
    1.9670    1.0100    1.4840 O   0  0  0  0  0  0  0  0  0  0  0  0
    0.7960    1.1750   -0.5320 N   0  0  0  0  0  0  0  0  0  0  0  0
   -0.4480    0.5220   -0.3460 C   0  0  0  0  0  0  0  0  0  0  0  0
   -0.6760   -0.6730    0.1660 C   0  0  0  0  0  0  0  0  0  0  0  0
   -2.0320   -1.2470    0.3080 C   0  0  0  0  0  0  0  0  0  0  0  0
   -3.0060   -0.4930   -0.3430 O   0  0  0  0  0  0  0  0  0  0  0  0
   -2.8110    0.8390    0.0180 C   0  0  0  0  0  0  0  0  0  0  0  0
   -1.6080    1.3290   -0.8000 C   0  0  0  0  0  0  0  0  0  0  0  0
  1  2  2  0
  2  3  1  0
  2 10  1  0
  3  4  1  0
  4  5  1  6
  4  6  1  0
  6  7  1  1
  6  8  1  0
  8  9  1  0
  9 10  2  0
  9 14  1  0
 10 11  1  0
 11 12  1  0
 12 13  1  0
 13 14  1  0
M  END
