
     RDKit          3D

 14 15  0  0  0  0  0  0  0  0999 V2000
    3.4350    1.6720   -0.5230 O   0  0  0  0  0  0  0  0  0  0  0  0
    2.5500    0.7950   -0.4470 C   0  0  0  0  0  0  0  0  0  0  0  0
    1.8600    0.5910    0.8450 C   0  0  0  0  0  0  0  0  0  0  0  0
    1.1370   -0.7450    0.7020 C   0  0  1  0  0  0  0  0  0  0  0  0
    0.5700   -1.0800    1.9040 O   0  0  0  0  0  0  0  0  0  0  0  0
    0.1950   -0.7470   -0.4500 C   0  0  1  0  0  0  0  0  0  0  0  0
   -0.9080    0.2640   -0.3010 C   0  0  2  0  0  0  0  0  0  0  0  0
   -1.7550    0.0330    0.9300 C   0  0  0  0  0  0  0  0  0  0  0  0
   -3.0320    0.7700    0.4980 C   0  0  0  0  0  0  0  0  0  0  0  0
   -3.1310    0.4870   -0.8900 O   0  0  0  0  0  0  0  0  0  0  0  0
   -1.9070    0.0580   -1.3820 C   0  0  0  0  0  0  0  0  0  0  0  0
   -1.7320   -0.4110   -2.5380 O   0  0  0  0  0  0  0  0  0  0  0  0
    0.8830   -0.4720   -1.6800 N   0  0  0  0  0  0  0  0  0  0  0  0
    2.1790   -0.0130   -1.5410 N   0  0  0  0  0  0  0  0  0  0  0  0
  1  2  2  0
  2  3  1  0
  2 14  1  0
  3  4  1  0
  4  5  1  1
  4  6  1  0
  6  7  1  0
  6 13  1  6
  7  8  1  1
  7 11  1  0
  8  9  1  0
  9 10  1  0
 10 11  1  0
 11 12  2  0
 13 14  1  0
M  END
