
     RDKit          3D

 12 13  0  0  0  0  0  0  0  0999 V2000
    3.3950    0.8240    0.2060 N   0  0  0  0  0  0  0  0  0  0  0  0
    2.0520    0.3140    0.1120 C   0  0  0  0  0  0  0  0  0  0  0  0
    0.9860    1.1340    0.1220 N   0  0  0  0  0  0  0  0  0  0  0  0
   -0.2840    0.6720    0.0350 C   0  0  0  0  0  0  0  0  0  0  0  0
   -1.3590    1.5650    0.0500 C   0  0  0  0  0  0  0  0  0  0  0  0
   -2.6540    1.0950   -0.0380 C   0  0  0  0  0  0  0  0  0  0  0  0
   -2.8330   -0.2680   -0.1400 C   0  0  0  0  0  0  0  0  0  0  0  0
   -1.7680   -1.1500   -0.1550 C   0  0  0  0  0  0  0  0  0  0  0  0
   -0.4720   -0.6920   -0.0670 C   0  0  0  0  0  0  0  0  0  0  0  0
    0.6130   -1.5590   -0.0800 C   0  0  0  0  0  0  0  0  0  0  0  0
    0.4190   -2.8000   -0.1740 O   0  0  0  0  0  0  0  0  0  0  0  0
    1.8300   -1.0070    0.0110 N   0  0  0  0  0  0  0  0  0  0  0  0
  1  2  1  0
  2  3  2  0
  2 12  1  0
  3  4  1  0
  4  5  2  0
  4  9  1  0
  5  6  1  0
  6  7  2  0
  7  8  1  0
  8  9  2  0
  9 10  1  0
 10 11  2  0
 10 12  1  0
M  END
