
     RDKit          3D

 14 15  0  0  0  0  0  0  0  0999 V2000
   -2.4850   -0.8330   -0.8740 C   0  0  0  0  0  0  0  0  0  0  0  0
   -1.7510    0.4450   -0.5710 C   0  0  1  0  0  0  0  0  0  0  0  0
   -1.9750    0.8610    0.7980 N   0  0  0  0  0  0  0  0  0  0  0  0
   -1.2440    0.4010    1.9380 C   0  0  0  0  0  0  0  0  0  0  0  0
   -1.8450    0.5890    3.0420 O   0  0  0  0  0  0  0  0  0  0  0  0
    0.0120   -0.2120    1.9870 O   0  0  0  0  0  0  0  0  0  0  0  0
    1.0000   -0.1070    0.9630 C   0  0  2  0  0  0  0  0  0  0  0  0
    2.2420   -0.7500    1.3960 C   0  0  0  0  0  0  0  0  0  0  0  0
    3.3620   -0.7610    0.5230 N   0  0  0  0  0  0  0  0  0  0  0  0
    2.3860   -1.3080    2.5210 O   0  0  0  0  0  0  0  0  0  0  0  0
    1.1570    1.3140    0.5310 C   0  0  0  0  0  0  0  0  0  0  0  0
    0.2670    1.5880   -0.4640 O   0  0  0  0  0  0  0  0  0  0  0  0
   -0.3000    0.4170   -0.9140 C   0  0  1  0  0  0  0  0  0  0  0  0
    0.4600   -0.7270   -0.3360 C   0  0  0  0  0  0  0  0  0  0  0  0
  2  1  1  1
  2  3  1  0
  2 13  1  0
  3  4  1  0
  4  5  2  0
  4  6  1  0
  6  7  1  0
  7  8  1  1
  7 11  1  0
  7 14  1  0
  8  9  1  0
  8 10  2  0
 11 12  1  0
 13 12  1  1
 13 14  1  0
M  END
