
     RDKit          3D

 28 32  0  0  0  0  0  0  0  0999 V2000
    8.4360    0.5140    0.0510 C   0  0  0  0  0  0  0  0  0  0  0  0
    7.3800    0.7190    0.7910 N   0  0  0  0  0  0  0  0  0  0  0  0
    6.1190    0.2680    0.4250 N   0  0  0  0  0  0  0  0  0  0  0  0
    5.6640   -1.0950    0.4960 C   0  0  0  0  0  0  0  0  0  0  0  0
    4.1830   -1.0170    0.4580 C   0  0  0  0  0  0  0  0  0  0  0  0
    3.1670   -1.9350    0.6860 C   0  0  0  0  0  0  0  0  0  0  0  0
    1.8340   -1.6040    0.5830 C   0  0  0  0  0  0  0  0  0  0  0  0
    1.5120   -0.3070    0.2370 C   0  0  0  0  0  0  0  0  0  0  0  0
    0.3270    0.3160    0.0750 C   0  0  0  0  0  0  0  0  0  0  0  0
   -1.0730   -0.1720    0.1110 C   0  0  0  0  0  0  0  0  0  0  0  0
   -1.9600    0.7710    0.0190 N   0  0  0  0  0  0  0  0  0  0  0  0
   -3.3680    0.7860    0.0120 C   0  0  0  0  0  0  0  0  0  0  0  0
   -4.1710   -0.3260    0.2600 C   0  0  0  0  0  0  0  0  0  0  0  0
   -5.5180   -0.1860    0.2470 C   0  0  0  0  0  0  0  0  0  0  0  0
   -6.1030    1.0500   -0.0100 C   0  0  0  0  0  0  0  0  0  0  0  0
   -5.2960    2.1290   -0.2510 C   0  0  0  0  0  0  0  0  0  0  0  0
   -3.9280    2.0140   -0.2440 C   0  0  0  0  0  0  0  0  0  0  0  0
   -3.1160    3.1220   -0.4910 O   0  0  0  0  0  0  0  0  0  0  0  0
   -3.6910    4.3850   -0.7540 C   0  0  0  0  0  0  0  0  0  0  0  0
   -3.7420   -1.7240    0.5310 C   0  0  0  0  0  0  0  0  0  0  0  0
   -2.6070   -2.0500   -0.3120 N   0  0  2  0  0  0  0  0  0  0  0  0
   -2.5680   -3.4960   -0.4350 C   0  0  0  0  0  0  0  0  0  0  0  0
   -1.3280   -1.6230    0.1810 C   0  0  0  0  0  0  0  0  0  0  0  0
    0.6290    1.6100   -0.2460 N   0  0  0  0  0  0  0  0  0  0  0  0
    1.9190    1.7850   -0.2850 N   0  0  0  0  0  0  0  0  0  0  0  0
    2.5100    0.6340    0.0040 C   0  0  0  0  0  0  0  0  0  0  0  0
    3.8310    0.2680    0.1170 C   0  0  0  0  0  0  0  0  0  0  0  0
    5.0630    1.1040   -0.0860 C   0  0  0  0  0  0  0  0  0  0  0  0
  1  2  2  0
  2  3  1  0
  3  4  1  0
  3 28  1  0
  4  5  1  0
  5  6  2  0
  5 27  1  0
  6  7  1  0
  7  8  2  0
  8  9  1  0
  8 26  1  0
  9 10  1  0
  9 24  2  0
 10 11  2  0
 10 23  1  0
 11 12  1  0
 12 13  2  0
 12 17  1  0
 13 14  1  0
 13 20  1  0
 14 15  2  0
 15 16  1  0
 16 17  2  0
 17 18  1  0
 18 19  1  0
 20 21  1  0
 21 22  1  1
 21 23  1  0
 24 25  1  0
 25 26  1  0
 26 27  2  0
 27 28  1  0
M  CHG  1  21   1
M  END
