
     RDKit          3D

 14 14  0  0  0  0  0  0  0  0999 V2000
    4.8050   -0.3220   -0.3770 C   0  0  0  0  0  0  0  0  0  0  0  0
    3.4350   -0.5520   -0.0660 O   0  0  0  0  0  0  0  0  0  0  0  0
    2.4680    0.4120   -0.2160 C   0  0  0  0  0  0  0  0  0  0  0  0
    2.8170    1.5340   -0.6440 O   0  0  0  0  0  0  0  0  0  0  0  0
    1.0910    0.0840    0.1280 C   0  0  0  0  0  0  0  0  0  0  0  0
    0.7630   -1.1140    0.5780 C   0  0  0  0  0  0  0  0  0  0  0  0
   -0.5750   -1.4480    0.9170 N   0  0  0  0  0  0  0  0  0  0  0  0
   -1.7090   -0.5640    0.7500 C   0  0  2  0  0  0  0  0  0  0  0  0
   -2.4620   -1.0000   -0.4710 C   0  0  0  0  0  0  0  0  0  0  0  0
   -2.8720   -2.3320   -0.2360 O   0  0  0  0  0  0  0  0  0  0  0  0
   -1.2160    0.8430    0.6950 C   0  0  2  0  0  0  0  0  0  0  0  0
   -2.2350    1.8110    0.1450 C   0  0  0  0  0  0  0  0  0  0  0  0
   -2.4710    1.6320   -1.2020 O   0  0  0  0  0  0  0  0  0  0  0  0
    0.0210    1.0260    0.0030 N   0  0  0  0  0  0  0  0  0  0  0  0
  1  2  1  0
  2  3  1  0
  3  4  2  0
  3  5  1  0
  5  6  2  0
  5 14  1  0
  6  7  1  0
  7  8  1  0
  8  9  1  6
  8 11  1  0
  9 10  1  0
 11 12  1  6
 11 14  1  0
 12 13  1  0
M  END
