
     RDKit          3D

 25 26  0  0  0  0  0  0  0  0999 V2000
    2.6050   -2.1300   -2.2620 O   0  0  0  0  0  0  0  0  0  0  0  0
    3.0910   -1.3270   -1.4290 C   0  0  0  0  0  0  0  0  0  0  0  0
    4.5820   -1.1080   -1.3490 C   0  0  0  0  0  0  0  0  0  0  0  0
    5.2520   -1.8750   -2.2660 O   0  0  0  0  0  0  0  0  0  0  0  0
    6.5370   -1.6270   -2.1310 O   0  0  0  0  0  0  0  0  0  0  0  0
    2.2110   -0.6290   -0.5660 N   0  0  0  0  0  0  0  0  0  0  0  0
    0.7990   -0.7710   -0.5700 C   0  0  0  0  0  0  0  0  0  0  0  0
   -0.0280   -1.5760   -1.3170 C   0  0  0  0  0  0  0  0  0  0  0  0
   -1.2690   -1.3910   -0.9800 O   0  0  0  0  0  0  0  0  0  0  0  0
   -1.3620   -0.4770   -0.0130 C   0  0  0  0  0  0  0  0  0  0  0  0
   -2.6070   -0.0310    0.6000 C   0  0  0  0  0  0  0  0  0  0  0  0
   -2.6670    0.8140    1.5160 O   0  0  0  0  0  0  0  0  0  0  0  0
   -3.8630   -0.5660    0.1590 N   0  0  0  0  0  0  0  0  0  0  0  0
   -5.1180   -0.1350    0.7570 C   0  0  0  0  0  0  0  0  0  0  0  0
   -5.1300   -0.4140    2.1240 O   0  0  0  0  0  0  0  0  0  0  0  0
   -4.9970   -1.6880    2.3700 O   0  0  0  0  0  0  0  0  0  0  0  0
   -5.5440   -2.4290    1.4220 O   0  0  0  0  0  0  0  0  0  0  0  0
   -0.0800   -0.0680    0.2670 C   0  0  0  0  0  0  0  0  0  0  0  0
    0.3390    0.8690    1.1960 O   0  0  0  0  0  0  0  0  0  0  0  0
    0.4470    2.2120    0.8610 C   0  0  2  0  0  0  0  0  0  0  0  0
    1.9240    2.6800    0.8140 C   0  0  0  0  0  0  0  0  0  0  0  0
    1.7310    4.0650    0.8390 O   0  0  0  0  0  0  0  0  0  0  0  0
    0.7080    4.3190    1.6570 O   0  0  0  0  0  0  0  0  0  0  0  0
   -0.0510    3.1740    1.8570 C   0  0  0  0  0  0  0  0  0  0  0  0
   -0.9480    3.0200    2.6990 O   0  0  0  0  0  0  0  0  0  0  0  0
  1  2  2  0
  2  3  1  0
  2  6  1  0
  3  4  1  0
  4  5  1  0
  6  7  1  0
  7  8  2  0
  7 18  1  0
  8  9  1  0
  9 10  1  0
 10 11  1  0
 10 18  2  0
 11 12  2  0
 11 13  1  0
 13 14  1  0
 14 15  1  0
 15 16  1  0
 16 17  1  0
 18 19  1  0
 20 19  1  1
 20 21  1  0
 20 24  1  0
 21 22  1  0
 22 23  1  0
 23 24  1  0
 24 25  2  0
M  END
