
     RDKit          3D

 25 25  0  0  0  0  0  0  0  0999 V2000
   -6.1520    1.3210   -1.2740 O   0  0  0  0  0  0  0  0  0  0  0  0
   -6.5300    0.6770   -0.2710 C   0  0  0  0  0  0  0  0  0  0  0  0
   -7.8710    0.5670    0.0500 O   0  0  0  0  0  0  0  0  0  0  0  0
   -5.5650    0.0340    0.5700 N   0  0  0  0  0  0  0  0  0  0  0  0
   -4.1730    0.0900    0.3220 C   0  0  0  0  0  0  0  0  0  0  0  0
   -3.7760    0.7310   -0.6780 O   0  0  0  0  0  0  0  0  0  0  0  0
   -3.1530   -0.5650    1.1740 C   0  0  0  0  0  0  0  0  0  0  0  0
   -1.8120   -0.3370    0.6760 N   0  0  0  0  0  0  0  0  0  0  0  0
   -1.1560   -1.2160   -0.2730 C   0  0  0  0  0  0  0  0  0  0  0  0
    0.3450   -1.1530    0.0280 C   0  0  1  0  0  0  0  0  0  0  0  0
    0.9810   -2.1770   -0.6700 O   0  0  0  0  0  0  0  0  0  0  0  0
    1.6760   -3.1510    0.0010 C   0  0  0  0  0  0  0  0  0  0  0  0
    1.7760   -3.1750    1.2580 O   0  0  0  0  0  0  0  0  0  0  0  0
    2.3290   -4.1980   -0.6720 O   0  0  0  0  0  0  0  0  0  0  0  0
    0.7990    0.2250   -0.3850 C   0  0  2  0  0  0  0  0  0  0  0  0
    2.2450    0.4420   -0.1230 C   0  0  0  0  0  0  0  0  0  0  0  0
    3.0360   -0.2920   -0.7700 O   0  0  0  0  0  0  0  0  0  0  0  0
    2.7790    1.3460    0.7360 O   0  0  0  0  0  0  0  0  0  0  0  0
    4.1010    1.6060    1.0300 C   0  0  0  0  0  0  0  0  0  0  0  0
    4.9870    2.0700   -0.0640 C   0  0  0  0  0  0  0  0  0  0  0  0
    5.1250    1.2090   -1.1350 O   0  0  0  0  0  0  0  0  0  0  0  0
    5.9240    1.6860   -2.0640 O   0  0  0  0  0  0  0  0  0  0  0  0
    0.1150    1.1550    0.4470 O   0  0  0  0  0  0  0  0  0  0  0  0
   -1.0640    0.7980    1.1160 C   0  0  0  0  0  0  0  0  0  0  0  0
   -1.4860    1.4550    2.1010 O   0  0  0  0  0  0  0  0  0  0  0  0
  1  2  2  0
  2  3  1  0
  2  4  1  0
  4  5  1  0
  5  6  2  0
  5  7  1  0
  7  8  1  0
  8  9  1  0
  8 24  1  0
  9 10  1  0
 10 11  1  6
 10 15  1  0
 11 12  1  0
 12 13  2  0
 12 14  1  0
 15 16  1  1
 15 23  1  0
 16 17  2  0
 16 18  1  0
 18 19  1  0
 19 20  1  0
 20 21  1  0
 21 22  1  0
 23 24  1  0
 24 25  2  0
M  END
