
     RDKit          3D

 25 26  0  0  0  0  0  0  0  0999 V2000
   -5.0250    0.2140    2.1810 O   0  0  0  0  0  0  0  0  0  0  0  0
   -4.3200    0.4110    1.1610 C   0  0  0  0  0  0  0  0  0  0  0  0
   -4.4540    1.6650    0.4760 N   0  0  0  0  0  0  0  0  0  0  0  0
   -3.6070    2.2350   -0.5180 C   0  0  0  0  0  0  0  0  0  0  0  0
   -3.8520    3.4260   -0.8470 O   0  0  0  0  0  0  0  0  0  0  0  0
   -2.5530    1.5670   -1.1260 O   0  0  0  0  0  0  0  0  0  0  0  0
   -2.4490    0.2000   -1.3680 C   0  0  0  0  0  0  0  0  0  0  0  0
   -2.3590   -0.6880   -0.2030 C   0  0  1  0  0  0  0  0  0  0  0  0
   -2.3780   -2.1290   -0.7500 C   0  0  0  0  0  0  0  0  0  0  0  0
   -2.3860   -2.9560    0.3720 O   0  0  0  0  0  0  0  0  0  0  0  0
   -1.2730   -2.8860    1.0730 O   0  0  0  0  0  0  0  0  0  0  0  0
   -1.0950   -1.6340    1.6410 C   0  0  0  0  0  0  0  0  0  0  0  0
   -0.9850   -0.6270    0.5270 C   0  0  2  0  0  0  0  0  0  0  0  0
   -0.6790    0.6380    0.8950 O   0  0  0  0  0  0  0  0  0  0  0  0
    0.3650    1.1910    0.2070 C   0  0  0  0  0  0  0  0  0  0  0  0
    1.6680    0.5020    0.3180 C   0  0  0  0  0  0  0  0  0  0  0  0
    1.8690   -0.5310    0.9920 O   0  0  0  0  0  0  0  0  0  0  0  0
    2.7970    1.0110   -0.3700 O   0  0  0  0  0  0  0  0  0  0  0  0
    4.0250    0.3840   -0.2810 C   0  0  0  0  0  0  0  0  0  0  0  0
    4.1100   -0.6570    0.4320 O   0  0  0  0  0  0  0  0  0  0  0  0
    5.2330    0.8850   -0.9860 C   0  0  0  0  0  0  0  0  0  0  0  0
    6.3080    0.0620   -0.7140 O   0  0  0  0  0  0  0  0  0  0  0  0
    7.4010    0.4380   -1.2970 O   0  0  0  0  0  0  0  0  0  0  0  0
    8.4190   -0.1860   -0.7460 O   0  0  0  0  0  0  0  0  0  0  0  0
   -3.4240   -0.6250    0.7420 N   0  0  0  0  0  0  0  0  0  0  0  0
  1  2  2  0
  2  3  1  0
  2 25  1  0
  3  4  1  0
  4  5  2  0
  4  6  1  0
  6  7  1  0
  8  7  1  6
  8  9  1  0
  8 13  1  0
  8 25  1  0
  9 10  1  0
 10 11  1  0
 11 12  1  0
 12 13  1  0
 13 14  1  1
 14 15  1  0
 15 16  1  0
 16 17  2  0
 16 18  1  0
 18 19  1  0
 19 20  2  0
 19 21  1  0
 21 22  1  0
 22 23  1  0
 23 24  1  0
M  END
