
     RDKit          3D

 25 25  0  0  0  0  0  0  0  0999 V2000
    7.3830   -0.2370    1.3500 C   0  0  0  0  0  0  0  0  0  0  0  0
    6.3250   -1.1420    1.0260 O   0  0  0  0  0  0  0  0  0  0  0  0
    5.2480   -0.7450    0.2670 C   0  0  0  0  0  0  0  0  0  0  0  0
    5.2030    0.4550   -0.1500 O   0  0  0  0  0  0  0  0  0  0  0  0
    4.1890   -1.5680   -0.0850 O   0  0  0  0  0  0  0  0  0  0  0  0
    3.1550   -1.1530   -0.8250 O   0  0  0  0  0  0  0  0  0  0  0  0
    2.0730   -0.9190    0.0090 C   0  0  0  0  0  0  0  0  0  0  0  0
    0.8940   -0.4450   -0.8430 C   0  0  2  0  0  0  0  0  0  0  0  0
    0.6190   -1.4470   -1.7410 O   0  0  0  0  0  0  0  0  0  0  0  0
   -0.6760   -1.4850   -2.1950 C   0  0  0  0  0  0  0  0  0  0  0  0
   -1.6890   -1.6930   -1.0680 C   0  0  0  0  0  0  0  0  0  0  0  0
   -2.4840   -0.5140   -0.9870 N   0  0  0  0  0  0  0  0  0  0  0  0
   -3.1490   -0.2910    0.2520 C   0  0  2  0  0  0  0  0  0  0  0  0
   -2.6570   -1.2270    1.3640 C   0  0  0  0  0  0  0  0  0  0  0  0
   -4.5030   -0.6590    0.0600 O   0  0  0  0  0  0  0  0  0  0  0  0
   -5.2030   -0.4880    1.1560 O   0  0  0  0  0  0  0  0  0  0  0  0
   -5.5000    0.7710    1.3820 O   0  0  0  0  0  0  0  0  0  0  0  0
   -6.1980    1.3100    0.4220 O   0  0  0  0  0  0  0  0  0  0  0  0
   -3.1710    1.0240    0.6630 O   0  0  0  0  0  0  0  0  0  0  0  0
   -1.9520    1.6090    0.8540 C   0  0  0  0  0  0  0  0  0  0  0  0
   -1.3240    2.1840   -0.3770 C   0  0  0  0  0  0  0  0  0  0  0  0
    0.0700    2.4630   -0.0900 N   0  0  0  0  0  0  0  0  0  0  0  0
    1.1500    2.0140   -0.8920 C   0  0  0  0  0  0  0  0  0  0  0  0
    2.1200    2.8390   -1.0460 O   0  0  0  0  0  0  0  0  0  0  0  0
    1.2010    0.7760   -1.4890 O   0  0  0  0  0  0  0  0  0  0  0  0
  1  2  1  0
  2  3  1  0
  3  4  2  0
  3  5  1  0
  5  6  1  0
  6  7  1  0
  8  7  1  6
  8  9  1  0
  8 25  1  0
  9 10  1  0
 10 11  1  0
 11 12  1  0
 12 13  1  0
 13 14  1  1
 13 15  1  0
 13 19  1  0
 15 16  1  0
 16 17  1  0
 17 18  1  0
 19 20  1  0
 20 21  1  0
 21 22  1  0
 22 23  1  0
 23 24  2  0
 23 25  1  0
M  END
