
     RDKit          3D

 25 26  0  0  0  0  0  0  0  0999 V2000
   -1.0610    0.1310    2.8430 O   0  0  0  0  0  0  0  0  0  0  0  0
   -1.9680   -0.7360    2.8820 C   0  0  0  0  0  0  0  0  0  0  0  0
   -2.4280   -1.1550    4.1230 O   0  0  0  0  0  0  0  0  0  0  0  0
   -2.4620   -1.2270    1.6880 O   0  0  0  0  0  0  0  0  0  0  0  0
   -1.9210   -0.7300    0.4800 C   0  0  2  0  0  0  0  0  0  0  0  0
   -2.5190   -1.3230   -0.6330 O   0  0  0  0  0  0  0  0  0  0  0  0
   -2.3980   -2.7070   -0.5400 C   0  0  0  0  0  0  0  0  0  0  0  0
   -0.9950   -3.2030   -0.4390 C   0  0  0  0  0  0  0  0  0  0  0  0
   -0.1420   -2.3820    0.3430 O   0  0  0  0  0  0  0  0  0  0  0  0
   -0.4440   -1.0200    0.3950 C   0  0  0  0  0  0  0  0  0  0  0  0
    0.2270    0.1130    0.3890 C   0  0  0  0  0  0  0  0  0  0  0  0
    1.7010    0.2460    0.3160 C   0  0  0  0  0  0  0  0  0  0  0  0
    2.2280    1.3890    0.3180 O   0  0  0  0  0  0  0  0  0  0  0  0
    2.5530   -0.8820    0.2410 N   0  0  0  0  0  0  0  0  0  0  0  0
    3.9850   -0.8040    0.1600 C   0  0  0  0  0  0  0  0  0  0  0  0
    4.5450   -0.1240   -1.0360 C   0  0  0  0  0  0  0  0  0  0  0  0
    4.2070    1.1790   -1.2370 O   0  0  0  0  0  0  0  0  0  0  0  0
    4.7190    1.7250   -2.2910 O   0  0  0  0  0  0  0  0  0  0  0  0
    5.3820    2.8320   -2.0420 O   0  0  0  0  0  0  0  0  0  0  0  0
   -0.6780    1.1670    0.4640 O   0  0  0  0  0  0  0  0  0  0  0  0
   -1.9590    0.6940    0.4160 N   0  0  0  0  0  0  0  0  0  0  0  0
   -2.6540    1.1060   -0.7870 C   0  0  0  0  0  0  0  0  0  0  0  0
   -2.7130    2.6270   -0.8880 C   0  0  0  0  0  0  0  0  0  0  0  0
   -3.3920    3.0890    0.2320 O   0  0  0  0  0  0  0  0  0  0  0  0
   -3.4830    4.3940    0.2170 O   0  0  0  0  0  0  0  0  0  0  0  0
  1  2  2  0
  2  3  1  0
  2  4  1  0
  5  4  1  1
  5  6  1  0
  5 10  1  0
  5 21  1  0
  6  7  1  0
  7  8  1  0
  8  9  1  0
  9 10  1  0
 10 11  2  0
 11 12  1  0
 11 20  1  0
 12 13  2  0
 12 14  1  0
 14 15  1  0
 15 16  1  0
 16 17  1  0
 17 18  1  0
 18 19  1  0
 20 21  1  0
 21 22  1  0
 22 23  1  0
 23 24  1  0
 24 25  1  0
M  END
