
     RDKit          3D

 26 28  0  0  0  0  0  0  0  0999 V2000
   -7.3580    1.0080   -0.8580 N   0  0  0  0  0  0  0  0  0  0  0  0
   -6.2170    1.2540   -0.0490 C   0  0  0  0  0  0  0  0  0  0  0  0
   -6.2200    2.1060    0.9920 N   0  0  0  0  0  0  0  0  0  0  0  0
   -5.1220    2.3140    1.7350 C   0  0  0  0  0  0  0  0  0  0  0  0
   -4.0020    1.6450    1.4140 N   0  0  0  0  0  0  0  0  0  0  0  0
   -3.9490    0.7690    0.3670 C   0  0  0  0  0  0  0  0  0  0  0  0
   -5.0670    0.5570   -0.3900 C   0  0  0  0  0  0  0  0  0  0  0  0
   -4.7420   -0.3310   -1.3280 N   0  0  0  0  0  0  0  0  0  0  0  0
   -3.4560   -0.6780   -1.1800 C   0  0  0  0  0  0  0  0  0  0  0  0
   -2.9690    0.0050   -0.1290 N   0  0  0  0  0  0  0  0  0  0  0  0
   -1.6470   -0.0730    0.3750 C   0  0  2  0  0  0  0  0  0  0  0  0
   -0.7150    0.7300   -0.2910 O   0  0  0  0  0  0  0  0  0  0  0  0
    0.5230    0.2750    0.0980 C   0  0  2  0  0  0  0  0  0  0  0  0
    1.5680    0.3110   -0.9950 C   0  0  0  0  0  0  0  0  0  0  0  0
    2.7360   -0.2490   -0.4820 O   0  0  0  0  0  0  0  0  0  0  0  0
    3.4610    0.1960    0.6020 C   0  0  0  0  0  0  0  0  0  0  0  0
    3.1120    1.1840    1.2420 O   0  0  0  0  0  0  0  0  0  0  0  0
    4.6970   -0.6060    0.9360 C   0  0  0  0  0  0  0  0  0  0  0  0
    5.9110   -0.1850   -0.2300 P   0  0  0  0  0  0  0  0  0  0  0  0
    7.5000   -0.2830    0.2170 O   0  0  0  0  0  0  0  0  0  0  0  0
    6.0120    1.3280    0.0770 O   0  0  0  0  0  0  0  0  0  0  0  0
    6.0660   -1.5450   -0.9540 O   0  0  0  0  0  0  0  0  0  0  0  0
    0.4070   -1.1440    0.5690 C   0  0  1  0  0  0  0  0  0  0  0  0
    0.4040   -1.1160    1.9660 O   0  0  0  0  0  0  0  0  0  0  0  0
   -1.0240   -1.4590    0.1440 C   0  0  1  0  0  0  0  0  0  0  0  0
   -1.5990   -2.4230    0.9420 O   0  0  0  0  0  0  0  0  0  0  0  0
  1  2  1  0
  2  3  2  0
  2  7  1  0
  3  4  1  0
  4  5  2  0
  5  6  1  0
  6  7  2  0
  6 10  1  0
  7  8  1  0
  8  9  2  0
  9 10  1  0
 11 10  1  6
 11 12  1  0
 11 25  1  0
 12 13  1  0
 13 14  1  6
 13 23  1  0
 14 15  1  0
 15 16  1  0
 16 17  2  0
 16 18  1  0
 18 19  1  0
 19 20  1  0
 19 21  1  0
 19 22  1  0
 23 24  1  1
 23 25  1  0
 25 26  1  1
M  END
