
     RDKit          3D

 25 26  0  0  0  0  0  0  0  0999 V2000
   -4.4370    0.6570    1.8080 O   0  0  0  0  0  0  0  0  0  0  0  0
   -3.9400    0.5100    0.6440 C   0  0  0  0  0  0  0  0  0  0  0  0
   -4.5030   -0.4260   -0.2330 N   0  0  0  0  0  0  0  0  0  0  0  0
   -3.8110   -1.3060   -0.9910 O   0  0  0  0  0  0  0  0  0  0  0  0
   -3.8310   -2.5840   -0.3960 C   0  0  0  0  0  0  0  0  0  0  0  0
   -2.7830   -2.5710    0.5350 O   0  0  0  0  0  0  0  0  0  0  0  0
   -1.8210   -1.8880    0.0020 O   0  0  0  0  0  0  0  0  0  0  0  0
   -0.8110   -1.5370    0.8700 C   0  0  0  0  0  0  0  0  0  0  0  0
    0.2730   -0.8440    0.1520 C   0  0  2  0  0  0  0  0  0  0  0  0
    1.6300   -1.5050    0.3080 C   0  0  0  0  0  0  0  0  0  0  0  0
    2.4350   -0.7140    1.1290 O   0  0  0  0  0  0  0  0  0  0  0  0
    2.7960    0.4800    0.5340 C   0  0  1  0  0  0  0  0  0  0  0  0
    3.9610    0.3080   -0.3920 C   0  0  0  0  0  0  0  0  0  0  0  0
    5.0360   -0.1670    0.3140 O   0  0  0  0  0  0  0  0  0  0  0  0
    6.1080   -0.3520   -0.4030 O   0  0  0  0  0  0  0  0  0  0  0  0
    7.1000    0.4280   -0.1190 O   0  0  0  0  0  0  0  0  0  0  0  0
    6.7440    1.6370    0.2370 O   0  0  0  0  0  0  0  0  0  0  0  0
    1.6060    1.1350   -0.1750 C   0  0  0  0  0  0  0  0  0  0  0  0
    0.4270    0.5560    0.4430 N   0  0  0  0  0  0  0  0  0  0  0  0
   -0.4160    1.3720    1.2370 C   0  0  0  0  0  0  0  0  0  0  0  0
    0.1770    2.2990    1.9190 O   0  0  0  0  0  0  0  0  0  0  0  0
   -1.7570    1.1560    1.2480 O   0  0  0  0  0  0  0  0  0  0  0  0
   -2.7680    1.3870    0.3350 C   0  0  1  0  0  0  0  0  0  0  0  0
   -2.3760    1.3400   -1.1060 C   0  0  0  0  0  0  0  0  0  0  0  0
   -3.5370    1.5990   -1.8610 O   0  0  0  0  0  0  0  0  0  0  0  0
  1  2  2  0
  2  3  1  0
  2 23  1  0
  3  4  1  0
  4  5  1  0
  5  6  1  0
  6  7  1  0
  7  8  1  0
  9  8  1  1
  9 10  1  0
  9 19  1  0
 10 11  1  0
 11 12  1  0
 12 13  1  6
 12 18  1  0
 13 14  1  0
 14 15  1  0
 15 16  1  0
 16 17  1  0
 18 19  1  0
 19 20  1  0
 20 21  2  0
 20 22  1  0
 22 23  1  0
 23 24  1  6
 24 25  1  0
M  END
