
     RDKit          3D

 25 26  0  0  0  0  0  0  0  0999 V2000
   -2.3830    5.2510   -0.3560 O   0  0  0  0  0  0  0  0  0  0  0  0
   -2.0390    4.0700   -0.4920 C   0  0  0  0  0  0  0  0  0  0  0  0
   -0.6720    3.6440   -0.9800 C   0  0  0  0  0  0  0  0  0  0  0  0
   -0.2610    2.6320   -0.0890 O   0  0  0  0  0  0  0  0  0  0  0  0
   -1.0710    1.4990    0.2220 C   0  0  0  0  0  0  0  0  0  0  0  0
   -2.3870    1.7000    0.1610 C   0  0  0  0  0  0  0  0  0  0  0  0
   -2.9030    3.0020   -0.2000 N   0  0  0  0  0  0  0  0  0  0  0  0
   -3.4010    0.6510    0.4310 C   0  0  0  0  0  0  0  0  0  0  0  0
   -4.5250    1.1460    0.8830 O   0  0  0  0  0  0  0  0  0  0  0  0
   -3.3680   -0.7270    0.2880 N   0  0  0  0  0  0  0  0  0  0  0  0
   -2.7310   -1.7780    1.0460 C   0  0  0  0  0  0  0  0  0  0  0  0
   -1.8550   -2.6500    0.1350 C   0  0  0  0  0  0  0  0  0  0  0  0
   -0.7180   -2.9660    0.8420 O   0  0  0  0  0  0  0  0  0  0  0  0
    0.3820   -3.2020    0.0070 C   0  0  0  0  0  0  0  0  0  0  0  0
    1.4910   -2.4580    0.3090 O   0  0  0  0  0  0  0  0  0  0  0  0
    1.3350   -1.0900    0.1020 C   0  0  2  0  0  0  0  0  0  0  0  0
    2.5530   -0.4810    0.3800 O   0  0  0  0  0  0  0  0  0  0  0  0
    3.0730    0.1440   -0.7540 C   0  0  0  0  0  0  0  0  0  0  0  0
    4.2770    0.7420   -0.4640 O   0  0  0  0  0  0  0  0  0  0  0  0
    5.1190   -0.2000   -0.0470 O   0  0  0  0  0  0  0  0  0  0  0  0
    6.0490   -0.3390   -0.9400 O   0  0  0  0  0  0  0  0  0  0  0  0
    7.0830    0.3950   -0.5350 O   0  0  0  0  0  0  0  0  0  0  0  0
    0.2700   -0.5400    1.0300 C   0  0  0  0  0  0  0  0  0  0  0  0
    0.4380   -1.0490    2.2060 O   0  0  0  0  0  0  0  0  0  0  0  0
   -0.6060    0.3030    0.5570 O   0  0  0  0  0  0  0  0  0  0  0  0
  1  2  2  0
  2  3  1  0
  2  7  1  0
  3  4  1  0
  4  5  1  0
  5  6  2  0
  5 25  1  0
  6  7  1  0
  6  8  1  0
  8  9  2  0
  8 10  1  0
 10 11  1  0
 11 12  1  0
 12 13  1  0
 13 14  1  0
 14 15  1  0
 15 16  1  0
 16 17  1  1
 16 23  1  0
 17 18  1  0
 18 19  1  0
 19 20  1  0
 20 21  1  0
 21 22  1  0
 23 24  2  0
 23 25  1  0
M  END
