
     RDKit          3D

 23 24  0  0  0  0  0  0  0  0999 V2000
    1.2270   -0.6410   -1.6870 C   0  0  0  0  0  0  0  0  0  0  0  0
    0.1690   -0.3280   -0.7350 N   0  0  0  0  0  0  0  0  0  0  0  0
   -0.4310   -1.5940   -0.2850 C   0  0  0  0  0  0  0  0  0  0  0  0
   -1.7160   -1.8240   -1.0040 C   0  0  0  0  0  0  0  0  0  0  0  0
   -1.6410   -1.7550   -2.2810 O   0  0  0  0  0  0  0  0  0  0  0  0
   -2.9880   -2.1100   -0.3630 C   0  0  0  0  0  0  0  0  0  0  0  0
   -3.6350   -3.1000   -0.8660 O   0  0  0  0  0  0  0  0  0  0  0  0
   -3.5520   -1.4590    0.6840 O   0  0  0  0  0  0  0  0  0  0  0  0
   -3.9410   -0.1500    0.8710 C   0  0  0  0  0  0  0  0  0  0  0  0
   -3.2450    0.8650    0.0560 C   0  0  0  0  0  0  0  0  0  0  0  0
   -3.5040    1.6180   -1.0230 N   0  0  0  0  0  0  0  0  0  0  0  0
   -2.4590    2.3700   -1.3130 N   0  0  0  0  0  0  0  0  0  0  0  0
   -1.5200    2.0900   -0.4020 C   0  0  0  0  0  0  0  0  0  0  0  0
   -2.0050    1.1710    0.4300 N   0  0  0  0  0  0  0  0  0  0  0  0
   -0.1810    2.6160   -0.2490 N   0  0  0  0  0  0  0  0  0  0  0  0
    0.8700    1.7960    0.2460 C   0  0  0  0  0  0  0  0  0  0  0  0
    1.9390    2.3630    0.5820 O   0  0  0  0  0  0  0  0  0  0  0  0
    0.7730    0.3290    0.3860 C   0  0  2  0  0  0  0  0  0  0  0  0
    2.1310   -0.2740    0.7250 C   0  0  0  0  0  0  0  0  0  0  0  0
    2.6190    0.4360    1.8190 O   0  0  0  0  0  0  0  0  0  0  0  0
    4.1590   -0.1190    2.3400 P   0  0  0  0  0  0  0  0  0  0  0  0
    4.3450   -1.8200    2.2290 O   0  0  0  0  0  0  0  0  0  0  0  0
    5.4680    0.7210    1.6030 O   0  0  0  0  0  0  0  0  0  0  0  0
  1  2  1  0
  2  3  1  0
  2 18  1  0
  3  4  1  0
  4  5  2  0
  4  6  1  0
  6  7  2  0
  6  8  1  0
  8  9  1  0
  9 10  1  0
 10 11  2  0
 10 14  1  0
 11 12  1  0
 12 13  1  0
 13 14  2  0
 13 15  1  0
 15 16  1  0
 16 17  2  0
 16 18  1  0
 18 19  1  6
 19 20  1  0
 20 21  1  0
 21 22  1  0
 21 23  1  0
M  END
