
     RDKit          3D

 23 24  0  0  0  0  0  0  0  0999 V2000
    4.0650    0.8910    1.0160 N   0  0  0  0  0  0  0  0  0  0  0  0
    3.5560   -0.2020    0.5730 C   0  0  0  0  0  0  0  0  0  0  0  0
    4.5310   -1.2770    0.5520 N   0  0  0  0  0  0  0  0  0  0  0  0
    4.1410   -2.6870   -0.4880 P   0  0  0  0  0  0  0  0  0  0  0  0
    4.6280   -2.3870   -2.1250 O   0  0  0  0  0  0  0  0  0  0  0  0
    2.3870   -2.7440   -0.4210 O   0  0  0  0  0  0  0  0  0  0  0  0
    1.6190   -1.5770   -0.3160 C   0  0  0  0  0  0  0  0  0  0  0  0
    0.3990   -1.7080   -0.6770 N   0  0  0  0  0  0  0  0  0  0  0  0
   -0.6410   -0.8750   -0.7330 O   0  0  0  0  0  0  0  0  0  0  0  0
   -1.9160   -1.4310   -0.9960 C   0  0  1  0  0  0  0  0  0  0  0  0
   -2.5150   -2.0780    0.1780 C   0  0  0  0  0  0  0  0  0  0  0  0
   -3.6460   -2.6010    0.0450 O   0  0  0  0  0  0  0  0  0  0  0  0
   -1.9210   -2.1540    1.4280 O   0  0  0  0  0  0  0  0  0  0  0  0
   -2.8540   -0.4480   -1.6380 C   0  0  0  0  0  0  0  0  0  0  0  0
   -3.1810    0.7060   -0.7250 C   0  0  0  0  0  0  0  0  0  0  0  0
   -2.2080    1.6700   -0.8960 O   0  0  0  0  0  0  0  0  0  0  0  0
   -2.1690    2.5030    0.1930 C   0  0  0  0  0  0  0  0  0  0  0  0
   -0.7390    2.7940    0.6040 C   0  0  0  0  0  0  0  0  0  0  0  0
   -0.4030    1.8620    1.6630 N   0  0  0  0  0  0  0  0  0  0  0  0
    0.4350    0.7700    1.3810 C   0  0  0  0  0  0  0  0  0  0  0  0
    0.4130   -0.2330    2.1110 O   0  0  0  0  0  0  0  0  0  0  0  0
    1.3340    0.8240    0.2200 C   0  0  0  0  0  0  0  0  0  0  0  0
    2.2110   -0.3670    0.1650 N   0  0  0  0  0  0  0  0  0  0  0  0
  1  2  2  0
  2  3  1  0
  2 23  1  0
  3  4  1  0
  4  5  1  0
  4  6  1  0
  6  7  1  0
  7  8  2  0
  7 23  1  0
  8  9  1  0
  9 10  1  0
 10 11  1  1
 10 14  1  0
 11 12  2  0
 11 13  1  0
 14 15  1  0
 15 16  1  0
 16 17  1  0
 17 18  1  0
 18 19  1  0
 19 20  1  0
 20 21  2  0
 20 22  1  0
 22 23  1  0
M  END
