
     RDKit          3D

 23 25  0  0  0  0  0  0  0  0999 V2000
   -6.7230   -0.9220    1.2640 O   0  0  0  0  0  0  0  0  0  0  0  0
   -5.5870   -0.7240    0.7580 C   0  0  0  0  0  0  0  0  0  0  0  0
   -4.5470   -1.6470    1.0230 N   0  0  0  0  0  0  0  0  0  0  0  0
   -3.3560   -1.9350    0.3110 C   0  0  0  0  0  0  0  0  0  0  0  0
   -2.6090   -0.7780   -0.2090 C   0  0  0  0  0  0  0  0  0  0  0  0
   -1.3100   -0.8180   -0.3940 O   0  0  0  0  0  0  0  0  0  0  0  0
   -0.8650    0.3070   -0.8570 C   0  0  0  0  0  0  0  0  0  0  0  0
    0.2650    0.9640   -1.2600 C   0  0  0  0  0  0  0  0  0  0  0  0
    1.5690    0.5190   -1.3040 O   0  0  0  0  0  0  0  0  0  0  0  0
    2.4580    0.6410   -0.2750 C   0  0  0  0  0  0  0  0  0  0  0  0
    2.0930    1.1840    0.7810 O   0  0  0  0  0  0  0  0  0  0  0  0
    3.7840    0.1330   -0.4570 N   0  0  0  0  0  0  0  0  0  0  0  0
    4.7500    0.2540    0.6340 C   0  0  0  0  0  0  0  0  0  0  0  0
    6.3350   -0.5070    0.0330 P   0  0  0  0  0  0  0  0  0  0  0  0
    7.7020    0.0960    0.9090 O   0  0  0  0  0  0  0  0  0  0  0  0
    6.2180   -2.2180    0.0770 O   0  0  0  0  0  0  0  0  0  0  0  0
   -0.1100    2.1980   -1.6360 N   0  0  0  0  0  0  0  0  0  0  0  0
   -1.4020    2.3470   -1.4910 N   0  0  0  0  0  0  0  0  0  0  0  0
   -1.9090    1.1980   -1.0100 C   0  0  0  0  0  0  0  0  0  0  0  0
   -3.0170    0.4920   -0.5920 C   0  0  0  0  0  0  0  0  0  0  0  0
   -4.3430    1.0550   -0.5870 C   0  0  0  0  0  0  0  0  0  0  0  0
   -4.4980    2.1780   -1.1090 O   0  0  0  0  0  0  0  0  0  0  0  0
   -5.5330    0.4530   -0.0360 N   0  0  0  0  0  0  0  0  0  0  0  0
  1  2  2  0
  2  3  1  0
  2 23  1  0
  3  4  1  0
  4  5  1  0
  5  6  1  0
  5 20  2  0
  6  7  1  0
  7  8  2  0
  7 19  1  0
  8  9  1  0
  8 17  1  0
  9 10  1  0
 10 11  2  0
 10 12  1  0
 12 13  1  0
 13 14  1  0
 14 15  1  0
 14 16  1  0
 17 18  1  0
 18 19  2  0
 19 20  1  0
 20 21  1  0
 21 22  2  0
 21 23  1  0
M  END
