
     RDKit          3D

 23 25  0  0  0  0  0  0  0  0999 V2000
    1.9010   -0.8800   -1.4530 O   0  0  0  0  0  0  0  0  0  0  0  0
    2.3060   -0.2140   -0.5030 C   0  0  0  0  0  0  0  0  0  0  0  0
    3.7160   -0.1630   -0.3710 O   0  0  0  0  0  0  0  0  0  0  0  0
    4.7590   -1.0050   -1.5070 P   0  0  0  0  0  0  0  0  0  0  0  0
    6.3490   -0.3240   -1.4090 O   0  0  0  0  0  0  0  0  0  0  0  0
    4.8860   -2.6950   -1.1360 O   0  0  0  0  0  0  0  0  0  0  0  0
    1.5000    0.5050    0.4690 C   0  0  0  0  0  0  0  0  0  0  0  0
    1.9880    1.2390    1.5190 N   0  0  0  0  0  0  0  0  0  0  0  0
    0.9860    1.7720    2.2220 C   0  0  0  0  0  0  0  0  0  0  0  0
    1.0510    2.5820    3.3600 O   0  0  0  0  0  0  0  0  0  0  0  0
   -0.1240    1.3800    1.6260 N   0  0  0  0  0  0  0  0  0  0  0  0
    0.1370    0.6050    0.5520 C   0  0  0  0  0  0  0  0  0  0  0  0
   -0.8700    0.0010   -0.3380 C   0  0  0  0  0  0  0  0  0  0  0  0
   -0.6090   -0.7780   -1.4170 N   0  0  0  0  0  0  0  0  0  0  0  0
   -1.7380   -1.1650   -2.0080 C   0  0  0  0  0  0  0  0  0  0  0  0
   -2.7940   -0.6160   -1.2840 C   0  0  0  0  0  0  0  0  0  0  0  0
   -4.1200   -0.7100   -1.4720 N   0  0  0  0  0  0  0  0  0  0  0  0
   -4.9420   -0.0790   -0.6230 C   0  0  0  0  0  0  0  0  0  0  0  0
   -6.1990   -0.1320   -0.7510 O   0  0  0  0  0  0  0  0  0  0  0  0
   -4.4090    0.6240    0.3850 N   0  0  0  0  0  0  0  0  0  0  0  0
   -3.0560    0.7060    0.5570 C   0  0  0  0  0  0  0  0  0  0  0  0
   -2.5930    1.3740    1.5120 O   0  0  0  0  0  0  0  0  0  0  0  0
   -2.2090    0.0830   -0.2800 N   0  0  0  0  0  0  0  0  0  0  0  0
  1  2  2  0
  2  3  1  0
  2  7  1  0
  3  4  1  0
  4  5  1  0
  4  6  1  0
  7  8  1  0
  7 12  2  0
  8  9  1  0
  9 10  1  0
  9 11  2  0
 11 12  1  0
 12 13  1  0
 13 14  2  0
 13 23  1  0
 14 15  1  0
 15 16  2  0
 16 17  1  0
 16 23  1  0
 17 18  1  0
 18 19  2  0
 18 20  1  0
 20 21  1  0
 21 22  2  0
 21 23  1  0
M  END
