
     RDKit          3D

 37 40  0  0  0  0  0  0  0  0999 V2000
    7.3690   -3.8440    0.0120 C   0  0  0  0  0  0  0  0  0  0  0  0
    7.5590   -2.8280   -0.9820 O   0  0  0  0  0  0  0  0  0  0  0  0
    6.7870   -1.6620   -0.8550 C   0  0  0  0  0  0  0  0  0  0  0  0
    5.8840   -1.4850    0.1700 C   0  0  0  0  0  0  0  0  0  0  0  0
    5.1340   -0.3080    0.2590 C   0  0  0  0  0  0  0  0  0  0  0  0
    4.2300   -0.1170    1.2780 O   0  0  0  0  0  0  0  0  0  0  0  0
    2.8700    0.0750    1.1230 C   0  0  0  0  0  0  0  0  0  0  0  0
    2.1460    0.3140    2.2590 C   0  0  0  0  0  0  0  0  0  0  0  0
    0.7610    0.5150    2.1580 C   0  0  0  0  0  0  0  0  0  0  0  0
    0.0860    0.4860    0.9650 C   0  0  0  0  0  0  0  0  0  0  0  0
   -1.3790    0.7600    0.8850 C   0  0  0  0  0  0  0  0  0  0  0  0
   -1.9360    1.2620    1.9590 C   0  0  0  0  0  0  0  0  0  0  0  0
   -3.3170    1.6470    2.2400 N   0  0  0  0  0  0  0  0  0  0  0  0
   -4.4940    1.2150    1.5580 C   0  0  0  0  0  0  0  0  0  0  0  0
   -5.6640    1.6970    1.7880 C   0  0  0  0  0  0  0  0  0  0  0  0
   -5.9530    2.7460    2.7780 C   0  0  0  0  0  0  0  0  0  0  0  0
   -6.5500    3.9250    2.1290 N   0  0  0  0  0  0  0  0  0  0  0  0
   -4.4120    0.1350    0.5340 C   0  0  0  0  0  0  0  0  0  0  0  0
   -5.4940   -0.5660    0.8050 C   0  0  0  0  0  0  0  0  0  0  0  0
   -5.8830   -1.7670    0.0590 C   0  0  0  0  0  0  0  0  0  0  0  0
   -5.3980   -2.2320   -1.0760 C   0  0  0  0  0  0  0  0  0  0  0  0
   -6.0310   -3.4970   -1.5590 C   0  0  0  0  0  0  0  0  0  0  0  0
   -4.3930   -1.6680   -1.8660 N   0  0  0  0  0  0  0  0  0  0  0  0
   -3.4980   -0.7160   -1.6470 C   0  0  0  0  0  0  0  0  0  0  0  0
   -2.6340   -0.4200   -2.7260 C   0  0  0  0  0  0  0  0  0  0  0  0
   -2.8120   -1.2340   -3.9300 N   0  0  0  0  0  0  0  0  0  0  0  0
   -1.7540    0.4220   -2.8140 O   0  0  0  0  0  0  0  0  0  0  0  0
   -3.3530   -0.0160   -0.4240 N   0  0  0  0  0  0  0  0  0  0  0  0
   -2.0030    0.4110   -0.4320 C   0  0  0  0  0  0  0  0  0  0  0  0
    0.8450    0.2440   -0.1570 C   0  0  0  0  0  0  0  0  0  0  0  0
    2.2120    0.0420   -0.0770 C   0  0  0  0  0  0  0  0  0  0  0  0
    5.2760    0.7030   -0.6690 C   0  0  0  0  0  0  0  0  0  0  0  0
    4.5400    1.8940   -0.6050 O   0  0  0  0  0  0  0  0  0  0  0  0
    4.7400    2.8820   -1.5900 C   0  0  0  0  0  0  0  0  0  0  0  0
    6.1850    0.5090   -1.6880 C   0  0  0  0  0  0  0  0  0  0  0  0
    6.9270   -0.6490   -1.7830 C   0  0  0  0  0  0  0  0  0  0  0  0
    7.9150   -0.8510   -2.8970 C   0  0  0  0  0  0  0  0  0  0  0  0
  1  2  1  0
  2  3  1  0
  3  4  2  0
  3 36  1  0
  4  5  1  0
  5  6  1  0
  5 32  2  0
  6  7  1  0
  7  8  2  0
  7 31  1  0
  8  9  1  0
  9 10  2  0
 10 11  1  0
 10 30  1  0
 11 12  2  0
 11 29  1  0
 12 13  1  0
 13 14  1  0
 14 15  2  3
 14 18  1  0
 15 16  1  0
 16 17  1  0
 18 19  2  0
 18 28  1  0
 19 20  1  0
 20 21  2  0
 21 22  1  0
 21 23  1  0
 23 24  2  0
 24 25  1  0
 24 28  1  0
 25 26  1  0
 25 27  2  0
 28 29  1  0
 30 31  2  0
 32 33  1  0
 32 35  1  0
 33 34  1  0
 35 36  2  0
 36 37  1  0
M  CHG  1  17   1
M  END
