
     RDKit          3D

 37 40  0  0  0  0  0  0  0  0999 V2000
   -3.3270   -2.6890    1.9860 C   0  0  0  0  0  0  0  0  0  0  0  0
   -3.3580   -2.9480    0.5140 C   0  0  0  0  0  0  0  0  0  0  0  0
   -4.0670   -1.8290   -0.1640 C   0  0  0  0  0  0  0  0  0  0  0  0
   -5.3430   -1.9600   -0.6370 C   0  0  0  0  0  0  0  0  0  0  0  0
   -6.0080   -0.9370   -1.2830 C   0  0  0  0  0  0  0  0  0  0  0  0
   -5.3870    0.2700   -1.4710 C   0  0  0  0  0  0  0  0  0  0  0  0
   -6.0050    1.4200   -2.1410 C   0  0  0  0  0  0  0  0  0  0  0  0
   -4.0810    0.4050   -0.9870 C   0  0  0  0  0  0  0  0  0  0  0  0
   -3.4140   -0.5950   -0.3480 C   0  0  0  0  0  0  0  0  0  0  0  0
   -2.1130   -0.4750    0.1780 N   0  0  0  0  0  0  0  0  0  0  0  0
   -1.2630    0.6180   -0.0620 C   0  0  0  0  0  0  0  0  0  0  0  0
   -1.5790    1.5780   -0.7700 O   0  0  0  0  0  0  0  0  0  0  0  0
    0.1200    0.6360    0.5730 C   0  0  1  0  0  0  0  0  0  0  0  0
    0.7580   -0.6410    0.2390 C   0  0  0  0  0  0  0  0  0  0  0  0
    0.1710   -1.5060   -0.4930 O   0  0  0  0  0  0  0  0  0  0  0  0
    2.0570   -0.9730    0.7180 N   0  0  0  0  0  0  0  0  0  0  0  0
    2.5660   -2.2270    0.3410 N   0  0  0  0  0  0  0  0  0  0  0  0
    2.7950   -3.3460    1.2230 C   0  0  0  0  0  0  0  0  0  0  0  0
    3.2580   -4.4530    0.3590 C   0  0  0  0  0  0  0  0  0  0  0  0
    3.6020   -5.7740    0.6150 C   0  0  0  0  0  0  0  0  0  0  0  0
    4.0230   -6.6170   -0.3590 N   0  0  0  0  0  0  0  0  0  0  0  0
    4.1330   -6.2180   -1.6380 C   0  0  0  0  0  0  0  0  0  0  0  0
    3.7980   -4.9120   -1.9250 C   0  0  0  0  0  0  0  0  0  0  0  0
    3.3640   -4.0270   -0.9490 C   0  0  0  0  0  0  0  0  0  0  0  0
    2.9320   -2.6350   -0.9610 C   0  0  0  0  0  0  0  0  0  0  0  0
    2.9070   -1.9350   -2.0120 O   0  0  0  0  0  0  0  0  0  0  0  0
    0.8220    1.8290    0.0740 C   0  0  0  0  0  0  0  0  0  0  0  0
    1.3480    1.8450   -1.1970 C   0  0  0  0  0  0  0  0  0  0  0  0
    1.9990    2.9530   -1.6820 C   0  0  0  0  0  0  0  0  0  0  0  0
    2.1550    4.0890   -0.9320 C   0  0  0  0  0  0  0  0  0  0  0  0
    2.8670    5.2950   -1.4660 C   0  0  0  0  0  0  0  0  0  0  0  0
    1.6200    4.0820    0.3680 C   0  0  0  0  0  0  0  0  0  0  0  0
    1.7990    5.2830    1.1100 N   0  0  0  0  0  0  0  0  0  0  0  0
    1.3410    5.5360    2.4220 C   0  0  0  0  0  0  0  0  0  0  0  0
    1.6110    6.8770    3.0770 C   0  0  0  0  0  0  0  0  0  0  0  0
    0.7080    4.6730    3.0690 O   0  0  0  0  0  0  0  0  0  0  0  0
    0.9730    2.9770    0.8490 C   0  0  0  0  0  0  0  0  0  0  0  0
  1  2  1  0
  2  3  1  0
  3  4  2  0
  3  9  1  0
  4  5  1  0
  5  6  2  0
  6  7  1  0
  6  8  1  0
  8  9  2  0
  9 10  1  0
 10 11  1  0
 11 12  2  0
 13 11  1  6
 13 14  1  0
 13 27  1  0
 14 15  2  0
 14 16  1  0
 16 17  1  0
 17 18  1  0
 17 25  1  0
 18 19  1  0
 19 20  2  0
 19 24  1  0
 20 21  1  0
 21 22  2  0
 22 23  1  0
 23 24  2  0
 24 25  1  0
 25 26  2  0
 27 28  2  0
 27 37  1  0
 28 29  1  0
 29 30  2  0
 30 31  1  0
 30 32  1  0
 32 33  1  0
 32 37  2  0
 33 34  1  0
 34 35  1  0
 34 36  2  0
M  CHG  1  21   1
M  END
