
     RDKit          3D

 37 40  0  0  0  0  0  0  0  0999 V2000
   -5.2130   -0.8200   -1.8670 C   0  0  0  0  0  0  0  0  0  0  0  0
   -5.9570   -0.7800   -0.5700 C   0  0  0  0  0  0  0  0  0  0  0  0
   -5.2850   -0.3280    0.5550 C   0  0  0  0  0  0  0  0  0  0  0  0
   -3.9460    0.0720    0.4320 N   0  0  0  0  0  0  0  0  0  0  0  0
   -3.0840    0.5540    1.4420 C   0  0  0  0  0  0  0  0  0  0  0  0
   -3.5190    0.6550    2.6060 O   0  0  0  0  0  0  0  0  0  0  0  0
   -1.6740    0.9360    1.1240 C   0  0  0  0  0  0  0  0  0  0  0  0
   -1.3170    0.8200   -0.0120 O   0  0  0  0  0  0  0  0  0  0  0  0
   -0.8550    1.3980    2.1350 N   0  0  0  0  0  0  0  0  0  0  0  0
    0.4660    1.8350    2.2500 C   0  0  0  0  0  0  0  0  0  0  0  0
    1.4530    1.9650    1.3840 C   0  0  0  0  0  0  0  0  0  0  0  0
    1.4390    1.6660   -0.0320 C   0  0  0  0  0  0  0  0  0  0  0  0
    2.3070    1.7670   -0.9790 C   0  0  0  0  0  0  0  0  0  0  0  0
    3.6630    2.1990   -1.1710 C   0  0  0  0  0  0  0  0  0  0  0  0
    4.5930    1.0820   -1.5390 C   0  0  0  0  0  0  0  0  0  0  0  0
    4.7710    0.7500   -2.8660 C   0  0  0  0  0  0  0  0  0  0  0  0
    5.6300   -0.2880   -3.2240 C   0  0  0  0  0  0  0  0  0  0  0  0
    6.2950   -0.9730   -2.2190 C   0  0  0  0  0  0  0  0  0  0  0  0
    6.1060   -0.6290   -0.8980 C   0  0  0  0  0  0  0  0  0  0  0  0
    6.8380   -1.4000    0.1280 C   0  0  0  0  0  0  0  0  0  0  0  0
    8.1680   -0.8470    0.2720 N   0  0  1  0  0  0  0  0  0  0  0  0
    8.1910    0.5840    0.0040 C   0  0  0  0  0  0  0  0  0  0  0  0
    8.6930   -1.1640    1.5690 C   0  0  0  0  0  0  0  0  0  0  0  0
    5.2460    0.4120   -0.5280 C   0  0  0  0  0  0  0  0  0  0  0  0
    2.6430    2.4600    2.0960 C   0  0  0  0  0  0  0  0  0  0  0  0
    3.7990    2.7300    1.7140 O   0  0  0  0  0  0  0  0  0  0  0  0
    2.3030    2.6230    3.4600 N   0  0  0  0  0  0  0  0  0  0  0  0
    0.9640    2.2480    3.6050 C   0  0  0  0  0  0  0  0  0  0  0  0
    0.3240    2.2690    4.7020 O   0  0  0  0  0  0  0  0  0  0  0  0
   -5.9690   -0.2980    1.7280 C   0  0  0  0  0  0  0  0  0  0  0  0
   -7.3030   -0.7050    1.8150 C   0  0  0  0  0  0  0  0  0  0  0  0
   -7.9340   -1.1440    0.6900 C   0  0  0  0  0  0  0  0  0  0  0  0
   -7.2720   -1.1860   -0.5050 C   0  0  0  0  0  0  0  0  0  0  0  0
   -7.8750   -1.6500   -1.7860 C   0  0  0  0  0  0  0  0  0  0  0  0
   -9.3110   -2.0930   -1.6140 C   0  0  0  0  0  0  0  0  0  0  0  0
   -9.5460   -2.5990   -0.2720 N   0  0  0  0  0  0  0  0  0  0  0  0
   -9.3650   -1.5910    0.7230 C   0  0  0  0  0  0  0  0  0  0  0  0
  1  2  1  0
  2  3  2  0
  2 33  1  0
  3  4  1  0
  3 30  1  0
  4  5  1  0
  5  6  2  0
  5  7  1  0
  7  8  2  0
  7  9  1  0
  9 10  1  0
 10 11  2  0
 10 28  1  0
 11 12  1  0
 11 25  1  0
 12 13  2  3
 13 14  1  0
 14 15  1  0
 15 16  2  0
 15 24  1  0
 16 17  1  0
 17 18  2  0
 18 19  1  0
 19 20  1  0
 19 24  2  0
 20 21  1  0
 21 22  1  1
 21 23  1  0
 25 26  2  0
 25 27  1  0
 27 28  1  0
 28 29  2  0
 30 31  2  0
 31 32  1  0
 32 33  2  0
 32 37  1  0
 33 34  1  0
 34 35  1  0
 35 36  1  0
 36 37  1  0
M  CHG  1  21   1
M  END
