
     RDKit          3D

 37 40  0  0  0  0  0  0  0  0999 V2000
    5.9950    1.3330   -2.7260 C   0  0  0  0  0  0  0  0  0  0  0  0
    5.9280    0.1300   -1.8200 C   0  0  0  0  0  0  0  0  0  0  0  0
    5.6450    0.4570   -0.4610 N   0  0  0  0  0  0  0  0  0  0  0  0
    6.6950    0.7060    0.5220 C   0  0  0  0  0  0  0  0  0  0  0  0
    7.1180   -0.5550    1.2350 C   0  0  0  0  0  0  0  0  0  0  0  0
    8.1610   -0.1680    2.1780 N   0  0  0  0  0  0  0  0  0  0  0  0
    9.4650   -0.6270    1.7380 C   0  0  2  0  0  0  0  0  0  0  0  0
    9.9120    0.0700    0.4700 C   0  0  0  0  0  0  0  0  0  0  0  0
    9.5260   -2.1170    1.5730 C   0  0  0  0  0  0  0  0  0  0  0  0
    4.3070    0.5560    0.0070 C   0  0  0  0  0  0  0  0  0  0  0  0
    4.0790    0.8210    1.2370 O   0  0  0  0  0  0  0  0  0  0  0  0
    3.2160    0.3770   -0.8260 N   0  0  0  0  0  0  0  0  0  0  0  0
    1.8290    0.4420   -0.5160 C   0  0  0  0  0  0  0  0  0  0  0  0
    0.8900    0.0900   -1.4870 C   0  0  0  0  0  0  0  0  0  0  0  0
   -0.4670    0.1420   -1.2420 C   0  0  0  0  0  0  0  0  0  0  0  0
   -0.9960    0.5370   -0.0420 C   0  0  0  0  0  0  0  0  0  0  0  0
   -2.3690    0.6010    0.2900 N   0  0  0  0  0  0  0  0  0  0  0  0
   -3.4470    0.0740   -0.4350 C   0  0  0  0  0  0  0  0  0  0  0  0
   -3.1980   -0.5300   -1.4980 O   0  0  0  0  0  0  0  0  0  0  0  0
   -4.8330    0.2010   -0.0020 C   0  0  0  0  0  0  0  0  0  0  0  0
   -5.0030    0.8520    1.0710 O   0  0  0  0  0  0  0  0  0  0  0  0
   -5.9560   -0.3230   -0.6630 N   0  0  0  0  0  0  0  0  0  0  0  0
   -5.9390   -1.2410   -1.7920 C   0  0  0  0  0  0  0  0  0  0  0  0
   -6.7880   -2.4510   -1.4360 C   0  0  1  0  0  0  0  0  0  0  0  0
   -5.9020   -3.4050   -0.6600 C   0  0  0  0  0  0  0  0  0  0  0  0
   -7.9700   -2.1490   -0.7690 O   0  0  0  0  0  0  0  0  0  0  0  0
   -8.3090   -0.9260   -0.2560 C   0  0  0  0  0  0  0  0  0  0  0  0
   -9.5670   -0.5820    0.1930 C   0  0  0  0  0  0  0  0  0  0  0  0
   -9.7480    0.7010    0.6850 C   0  0  0  0  0  0  0  0  0  0  0  0
   -8.7420    1.6380    0.7460 C   0  0  0  0  0  0  0  0  0  0  0  0
   -7.4880    1.2800    0.2930 C   0  0  0  0  0  0  0  0  0  0  0  0
   -7.2830    0.0160   -0.1980 C   0  0  0  0  0  0  0  0  0  0  0  0
   -9.1630    2.7750    1.2500 C   0  0  0  0  0  0  0  0  0  0  0  0
  -10.5940    2.6360    1.5770 C   0  0  0  0  0  0  0  0  0  0  0  0
  -10.8620    1.2330    1.1620 C   0  0  0  0  0  0  0  0  0  0  0  0
   -0.0500    0.8920    0.9330 C   0  0  0  0  0  0  0  0  0  0  0  0
    1.3090    0.8370    0.6800 C   0  0  0  0  0  0  0  0  0  0  0  0
  1  2  1  0
  2  3  1  0
  3  4  1  0
  3 10  1  0
  4  5  1  0
  5  6  1  0
  6  7  1  0
  7  8  1  6
  7  9  1  0
 10 11  2  0
 10 12  1  0
 12 13  1  0
 13 14  2  0
 13 37  1  0
 14 15  1  0
 15 16  2  0
 16 17  1  0
 16 36  1  0
 17 18  1  0
 18 19  2  0
 18 20  1  0
 20 21  2  0
 20 22  1  0
 22 23  1  0
 22 32  1  0
 23 24  1  0
 24 25  1  1
 24 26  1  0
 26 27  1  0
 27 28  2  0
 27 32  1  0
 28 29  1  0
 29 30  1  0
 29 35  2  0
 30 31  1  0
 30 33  2  0
 31 32  2  0
 33 34  1  0
 34 35  1  0
 36 37  2  0
M  CHG  1   6   1
M  END
