
     RDKit          3D

 37 40  0  0  0  0  0  0  0  0999 V2000
   -6.4940    2.1410   -1.7080 C   0  0  0  0  0  0  0  0  0  0  0  0
   -5.4130    1.2680   -1.5680 N   0  0  0  0  0  0  0  0  0  0  0  0
   -5.3600    0.3290   -0.5130 C   0  0  2  0  0  0  0  0  0  0  0  0
   -6.6000   -0.5950   -0.7130 C   0  0  0  0  0  0  0  0  0  0  0  0
   -6.5110   -1.2170   -1.9630 O   0  0  0  0  0  0  0  0  0  0  0  0
   -5.4570    0.8670    0.8540 C   0  0  2  0  0  0  0  0  0  0  0  0
   -6.7180    1.6420    1.1820 C   0  0  0  0  0  0  0  0  0  0  0  0
   -4.3180    1.7640    1.2570 C   0  0  0  0  0  0  0  0  0  0  0  0
   -4.1690   -0.5710   -0.8000 C   0  0  2  0  0  0  0  0  0  0  0  0
   -3.8330   -1.5880    0.1560 C   0  0  0  0  0  0  0  0  0  0  0  0
   -2.4030   -1.7530    0.6550 C   0  0  0  0  0  0  0  0  0  0  0  0
   -1.4130   -1.2270   -0.1710 N   0  0  0  0  0  0  0  0  0  0  0  0
   -0.1000   -0.8560    0.0950 C   0  0  0  0  0  0  0  0  0  0  0  0
    0.1840    0.5090    0.0610 N   0  0  0  0  0  0  0  0  0  0  0  0
    1.3880    1.0140    0.2810 C   0  0  0  0  0  0  0  0  0  0  0  0
    2.4780    0.2230    0.5650 C   0  0  0  0  0  0  0  0  0  0  0  0
    3.7720    0.7790    0.8220 N   0  0  0  0  0  0  0  0  0  0  0  0
    4.8550    0.2500    0.0240 C   0  0  0  0  0  0  0  0  0  0  0  0
    4.5880   -0.6160   -0.8430 O   0  0  0  0  0  0  0  0  0  0  0  0
    6.2380    0.6660    0.1590 C   0  0  0  0  0  0  0  0  0  0  0  0
    6.9210    0.9610   -1.0250 C   0  0  0  0  0  0  0  0  0  0  0  0
    8.2250    1.4400   -1.0030 C   0  0  0  0  0  0  0  0  0  0  0  0
    9.0860    1.7750   -1.9850 N   0  0  0  0  0  0  0  0  0  0  0  0
   10.2460    2.1720   -1.4360 C   0  0  0  0  0  0  0  0  0  0  0  0
   10.1010    2.0790   -0.0630 C   0  0  0  0  0  0  0  0  0  0  0  0
    8.8170    1.6130    0.2070 C   0  0  0  0  0  0  0  0  0  0  0  0
    8.1540    1.3250    1.3750 C   0  0  0  0  0  0  0  0  0  0  0  0
    6.8310    0.8360    1.3810 C   0  0  0  0  0  0  0  0  0  0  0  0
    6.2330    0.4860    2.6820 C   0  0  0  0  0  0  0  0  0  0  0  0
    2.2260   -1.1360    0.6060 C   0  0  0  0  0  0  0  0  0  0  0  0
    0.9570   -1.7010    0.3760 C   0  0  0  0  0  0  0  0  0  0  0  0
    0.8300   -3.1290    0.4340 C   0  0  0  0  0  0  0  0  0  0  0  0
    1.8850   -3.7940    0.7880 O   0  0  0  0  0  0  0  0  0  0  0  0
   -0.2540   -3.9250    0.1700 O   0  0  0  0  0  0  0  0  0  0  0  0
   -0.1820   -5.3470    0.3150 C   0  0  0  0  0  0  0  0  0  0  0  0
   -1.8920   -0.9430   -1.5470 C   0  0  0  0  0  0  0  0  0  0  0  0
   -2.9840    0.1370   -1.3630 C   0  0  0  0  0  0  0  0  0  0  0  0
  1  2  1  0
  2  3  1  0
  3  4  1  6
  3  6  1  0
  3  9  1  0
  4  5  1  0
  6  7  1  6
  6  8  1  0
  9 10  1  1
  9 37  1  0
 10 11  1  0
 11 12  1  0
 12 13  1  0
 12 36  1  0
 13 14  2  0
 13 31  1  0
 14 15  1  0
 15 16  2  0
 16 17  1  0
 16 30  1  0
 17 18  1  0
 18 19  2  0
 18 20  1  0
 20 21  2  0
 20 28  1  0
 21 22  1  0
 22 23  1  0
 22 26  2  0
 23 24  1  0
 24 25  2  0
 25 26  1  0
 26 27  1  0
 27 28  2  0
 28 29  1  0
 30 31  2  0
 31 32  1  0
 32 33  2  0
 32 34  1  0
 34 35  1  0
 36 37  1  0
M  CHG  1  14   1
M  END
