
     RDKit          3D

 37 40  0  0  0  0  0  0  0  0999 V2000
   -9.9200   -0.0390   -0.4660 C   0  0  0  0  0  0  0  0  0  0  0  0
   -9.1800    1.2610   -0.3050 C   0  0  0  0  0  0  0  0  0  0  0  0
   -9.8320    2.3250    0.0060 N   0  0  0  0  0  0  0  0  0  0  0  0
   -7.7960    1.3170   -0.4730 N   0  0  0  0  0  0  0  0  0  0  0  0
   -7.0670    0.9340   -1.6520 C   0  0  0  0  0  0  0  0  0  0  0  0
   -5.9050   -0.0010   -1.3590 C   0  0  0  0  0  0  0  0  0  0  0  0
   -5.0850    0.5550   -0.2340 C   0  0  2  0  0  0  0  0  0  0  0  0
   -3.9960   -0.3630    0.2070 C   0  0  0  0  0  0  0  0  0  0  0  0
   -3.0530    0.0050    1.1310 C   0  0  0  0  0  0  0  0  0  0  0  0
   -2.0380   -0.8270    1.5600 C   0  0  0  0  0  0  0  0  0  0  0  0
   -1.9570   -2.0900    1.0420 C   0  0  0  0  0  0  0  0  0  0  0  0
   -0.9440   -3.0870    1.4300 C   0  0  0  0  0  0  0  0  0  0  0  0
    0.3390   -2.9470    0.7780 N   0  0  0  0  0  0  0  0  0  0  0  0
    1.3610   -2.0490    1.1650 C   0  0  0  0  0  0  0  0  0  0  0  0
    1.1660   -1.3000    2.1630 O   0  0  0  0  0  0  0  0  0  0  0  0
    2.6310   -1.9880    0.4220 C   0  0  0  0  0  0  0  0  0  0  0  0
    2.7630   -2.7180   -0.5680 O   0  0  0  0  0  0  0  0  0  0  0  0
    3.6790   -1.1300    0.8120 N   0  0  0  0  0  0  0  0  0  0  0  0
    4.9400   -0.9770    0.1910 C   0  0  0  0  0  0  0  0  0  0  0  0
    5.8120   -0.0420    0.7610 C   0  0  0  0  0  0  0  0  0  0  0  0
    7.0570    0.1830    0.2290 C   0  0  0  0  0  0  0  0  0  0  0  0
    7.4840   -0.5050   -0.8820 C   0  0  0  0  0  0  0  0  0  0  0  0
    8.8020   -0.2660   -1.4730 C   0  0  0  0  0  0  0  0  0  0  0  0
    9.3130   -1.0990   -2.2470 O   0  0  0  0  0  0  0  0  0  0  0  0
    9.5260    0.9510   -1.1630 C   0  0  0  0  0  0  0  0  0  0  0  0
   10.7960    1.0010   -0.6720 C   0  0  0  0  0  0  0  0  0  0  0  0
   11.3550    2.2590   -0.4250 C   0  0  0  0  0  0  0  0  0  0  0  0
   10.6430    3.4380   -0.6690 C   0  0  0  0  0  0  0  0  0  0  0  0
    9.3880    3.3560   -1.1550 N   0  0  0  0  0  0  0  0  0  0  0  0
    8.8530    2.1390   -1.3930 C   0  0  0  0  0  0  0  0  0  0  0  0
    7.6600    2.1320   -1.8520 O   0  0  0  0  0  0  0  0  0  0  0  0
    6.6510   -1.4330   -1.4690 C   0  0  0  0  0  0  0  0  0  0  0  0
    5.3960   -1.6370   -0.9030 C   0  0  0  0  0  0  0  0  0  0  0  0
   -2.8920   -2.5080    0.0980 C   0  0  0  0  0  0  0  0  0  0  0  0
   -3.8920   -1.6420   -0.3020 C   0  0  0  0  0  0  0  0  0  0  0  0
   -6.0600    0.6420    0.9730 C   0  0  0  0  0  0  0  0  0  0  0  0
   -6.9820    1.8080    0.6520 C   0  0  0  0  0  0  0  0  0  0  0  0
  1  2  1  0
  2  3  2  0
  2  4  1  0
  4  5  1  0
  4 37  1  0
  5  6  1  0
  6  7  1  0
  7  8  1  1
  7 36  1  0
  8  9  2  0
  8 35  1  0
  9 10  1  0
 10 11  2  0
 11 12  1  0
 11 34  1  0
 12 13  1  0
 13 14  1  0
 14 15  2  0
 14 16  1  0
 16 17  2  0
 16 18  1  0
 18 19  1  0
 19 20  2  0
 19 33  1  0
 20 21  1  0
 21 22  2  0
 22 23  1  0
 22 32  1  0
 23 24  2  0
 23 25  1  0
 25 26  2  0
 25 30  1  0
 26 27  1  0
 27 28  2  0
 28 29  1  0
 29 30  1  0
 30 31  2  0
 32 33  2  0
 34 35  2  0
 36 37  1  0
M  CHG  1   3   1
M  END
