
     RDKit          3D

 37 40  0  0  0  0  0  0  0  0999 V2000
   -2.7570    5.2300    1.9020 C   0  0  0  0  0  0  0  0  0  0  0  0
   -3.0760    4.6970    0.5340 C   0  0  0  0  0  0  0  0  0  0  0  0
   -3.7420    3.3890    0.5270 C   0  0  0  0  0  0  0  0  0  0  0  0
   -3.1740    2.3670   -0.0780 C   0  0  0  0  0  0  0  0  0  0  0  0
   -1.9600    2.4410   -0.7230 O   0  0  0  0  0  0  0  0  0  0  0  0
   -1.3880    1.3520   -1.3540 C   0  0  0  0  0  0  0  0  0  0  0  0
   -0.0890    1.5230   -2.0220 C   0  0  0  0  0  0  0  0  0  0  0  0
    0.9850    0.9940   -1.2690 N   0  0  0  0  0  0  0  0  0  0  0  0
    0.9340    1.1390    0.1580 C   0  0  2  0  0  0  0  0  0  0  0  0
    0.6780    2.5450    0.5580 C   0  0  0  0  0  0  0  0  0  0  0  0
    0.2360    2.8960    1.8760 N   0  0  0  0  0  0  0  0  0  0  0  0
    0.8470    3.4620   -0.2660 O   0  0  0  0  0  0  0  0  0  0  0  0
    2.2850    0.7180    0.6930 C   0  0  0  0  0  0  0  0  0  0  0  0
    2.9720    1.4620    1.6260 C   0  0  0  0  0  0  0  0  0  0  0  0
    4.2230    1.0760    2.0870 C   0  0  0  0  0  0  0  0  0  0  0  0
    4.7980   -0.0810    1.6010 C   0  0  0  0  0  0  0  0  0  0  0  0
    4.1430   -0.8430    0.6740 C   0  0  0  0  0  0  0  0  0  0  0  0
    2.8830   -0.4250    0.2320 C   0  0  0  0  0  0  0  0  0  0  0  0
    4.7460   -2.0990    0.1190 C   0  0  0  0  0  0  0  0  0  0  0  0
    6.2220   -1.9140   -0.0310 C   0  0  0  0  0  0  0  0  0  0  0  0
    6.8710   -2.5310   -0.9540 N   0  0  0  0  0  0  0  0  0  0  0  0
    8.3140   -2.3670   -1.1210 C   0  0  0  0  0  0  0  0  0  0  0  0
    8.5450   -1.0700   -1.6080 O   0  0  0  0  0  0  0  0  0  0  0  0
    6.8730   -1.0310    0.8790 N   0  0  0  0  0  0  0  0  0  0  0  0
    6.1390   -0.5430    2.0490 C   0  0  0  0  0  0  0  0  0  0  0  0
   -1.9820    0.1810   -1.3660 N   0  0  0  0  0  0  0  0  0  0  0  0
   -3.2130   -0.0310   -0.7490 N   0  0  0  0  0  0  0  0  0  0  0  0
   -3.9070   -1.2710   -0.7330 C   0  0  0  0  0  0  0  0  0  0  0  0
   -3.4320   -2.2780    0.0730 C   0  0  0  0  0  0  0  0  0  0  0  0
   -4.0800   -3.5060    0.1230 C   0  0  0  0  0  0  0  0  0  0  0  0
   -5.2230   -3.7120   -0.6540 C   0  0  0  0  0  0  0  0  0  0  0  0
   -5.8840   -5.0270   -0.5710 C   0  0  0  0  0  0  0  0  0  0  0  0
   -5.7110   -2.7080   -1.4690 C   0  0  0  0  0  0  0  0  0  0  0  0
   -6.9260   -2.9890   -2.2660 C   0  0  0  0  0  0  0  0  0  0  0  0
   -5.0310   -1.5110   -1.4810 C   0  0  0  0  0  0  0  0  0  0  0  0
   -3.8320    1.0660   -0.0920 C   0  0  0  0  0  0  0  0  0  0  0  0
   -4.9600    0.9620    0.4990 O   0  0  0  0  0  0  0  0  0  0  0  0
  1  2  1  0
  2  3  1  0
  3  4  2  3
  4  5  1  0
  4 36  1  0
  5  6  1  0
  6  7  1  0
  6 26  2  0
  7  8  1  0
  9  8  1  6
  9 10  1  0
  9 13  1  0
 10 11  1  0
 10 12  2  0
 13 14  2  0
 13 18  1  0
 14 15  1  0
 15 16  2  0
 16 17  1  0
 16 25  1  0
 17 18  2  0
 17 19  1  0
 19 20  1  0
 20 21  2  3
 20 24  1  0
 21 22  1  0
 22 23  1  0
 24 25  1  0
 26 27  1  0
 27 28  1  0
 27 36  1  0
 28 29  2  0
 28 35  1  0
 29 30  1  0
 30 31  2  0
 31 32  1  0
 31 33  1  0
 33 34  1  0
 33 35  2  0
 36 37  2  0
M  CHG  1   8   1
M  END
