
     RDKit          3D

 37 40  0  0  0  0  0  0  0  0999 V2000
    3.9780   -3.7120    1.9690 C   0  0  0  0  0  0  0  0  0  0  0  0
    4.9530   -2.9610    2.4320 C   0  0  0  0  0  0  0  0  0  0  0  0
    5.5410   -3.3060    3.7570 C   0  0  0  0  0  0  0  0  0  0  0  0
    5.4050   -1.8220    1.6690 C   0  0  0  0  0  0  0  0  0  0  0  0
    6.7990   -1.7160    1.4750 C   0  0  0  0  0  0  0  0  0  0  0  0
    7.2230   -0.6300    0.7490 C   0  0  0  0  0  0  0  0  0  0  0  0
    6.3680    0.3140    0.2300 C   0  0  0  0  0  0  0  0  0  0  0  0
    6.8350    1.4080   -0.5060 O   0  0  0  0  0  0  0  0  0  0  0  0
    5.0590    0.1430    0.4580 N   0  0  0  0  0  0  0  0  0  0  0  0
    4.5570   -0.9020    1.1660 C   0  0  0  0  0  0  0  0  0  0  0  0
    3.1320   -0.9380    1.4030 C   0  0  0  0  0  0  0  0  0  0  0  0
    2.3040   -0.0670    0.8580 C   0  0  0  0  0  0  0  0  0  0  0  0
    0.8770   -0.0940    1.0900 C   0  0  0  0  0  0  0  0  0  0  0  0
    0.4530   -1.0050    1.8470 O   0  0  0  0  0  0  0  0  0  0  0  0
   -0.0230    0.8510    0.5020 N   0  0  0  0  0  0  0  0  0  0  0  0
   -1.4210    0.6760    0.8300 C   0  0  2  0  0  0  0  0  0  0  0  0
   -1.9990   -0.5240    0.0870 C   0  0  2  0  0  0  0  0  0  0  0  0
   -1.8880   -0.2970   -1.3130 N   0  0  0  0  0  0  0  0  0  0  0  0
   -3.2930   -0.9180    0.6170 C   0  0  0  0  0  0  0  0  0  0  0  0
   -3.8520   -0.4140    1.7900 C   0  0  0  0  0  0  0  0  0  0  0  0
   -5.0770   -0.8360    2.2490 C   0  0  0  0  0  0  0  0  0  0  0  0
   -5.8140   -1.7700    1.5870 N   0  0  0  0  0  0  0  0  0  0  0  0
   -5.3090   -2.2710    0.4670 C   0  0  0  0  0  0  0  0  0  0  0  0
   -4.0650   -1.8710   -0.0390 C   0  0  0  0  0  0  0  0  0  0  0  0
   -3.7110   -2.5030   -1.2080 O   0  0  0  0  0  0  0  0  0  0  0  0
   -4.1460   -3.7740   -1.5830 C   0  0  0  0  0  0  0  0  0  0  0  0
   -5.1230   -4.2510   -0.7670 O   0  0  0  0  0  0  0  0  0  0  0  0
   -6.0480   -3.3150   -0.3210 C   0  0  0  0  0  0  0  0  0  0  0  0
   -2.2970    1.8450    0.7430 C   0  0  0  0  0  0  0  0  0  0  0  0
   -1.8660    2.8570   -0.1830 N   0  0  0  0  0  0  0  0  0  0  0  0
   -0.7240    2.6420   -0.9790 C   0  0  0  0  0  0  0  0  0  0  0  0
   -0.6520    3.0810   -2.2360 C   0  0  0  0  0  0  0  0  0  0  0  0
   -1.7480    3.8050   -2.8510 C   0  0  0  0  0  0  0  0  0  0  0  0
   -1.6600    4.2290   -4.0860 C   0  0  0  0  0  0  0  0  0  0  0  0
   -2.7910    4.9680   -4.7000 C   0  0  0  0  0  0  0  0  0  0  0  0
    0.3950    1.9050   -0.3450 C   0  0  1  0  0  0  0  0  0  0  0  0
    1.2760    2.9270    0.3010 C   0  0  0  0  0  0  0  0  0  0  0  0
  1  2  2  0
  2  3  1  0
  2  4  1  0
  4  5  2  0
  4 10  1  0
  5  6  1  0
  6  7  2  0
  7  8  1  0
  7  9  1  0
  9 10  2  0
 10 11  1  0
 11 12  2  3
 12 13  1  0
 13 14  2  0
 13 15  1  0
 15 16  1  0
 15 36  1  0
 16 17  1  0
 16 29  1  6
 17 18  1  6
 17 19  1  0
 19 20  2  0
 19 24  1  0
 20 21  1  0
 21 22  2  0
 22 23  1  0
 23 24  2  0
 23 28  1  0
 24 25  1  0
 25 26  1  0
 26 27  1  0
 27 28  1  0
 29 30  1  0
 30 31  1  0
 31 32  2  3
 31 36  1  0
 32 33  1  0
 33 34  2  3
 34 35  1  0
 36 37  1  1
M  CHG  1  18   1
M  END
