
     RDKit          3D

 37 40  0  0  0  0  0  0  0  0999 V2000
   -6.3150    3.1890    0.0560 C   0  0  0  0  0  0  0  0  0  0  0  0
   -5.6170    2.2010    0.5540 C   0  0  0  0  0  0  0  0  0  0  0  0
   -4.6430    1.2790   -0.1150 C   0  0  0  0  0  0  0  0  0  0  0  0
   -4.6380    0.9720   -1.4080 C   0  0  0  0  0  0  0  0  0  0  0  0
   -3.9070    0.1880   -2.3240 C   0  0  0  0  0  0  0  0  0  0  0  0
   -3.5620   -1.0380   -2.5900 C   0  0  0  0  0  0  0  0  0  0  0  0
   -3.7450   -2.3520   -2.0640 C   0  0  0  0  0  0  0  0  0  0  0  0
   -3.0630   -3.0870   -1.1830 C   0  0  0  0  0  0  0  0  0  0  0  0
   -3.4770   -4.4080   -0.8200 N   0  0  0  0  0  0  0  0  0  0  0  0
   -1.8710   -2.6750   -0.5040 N   0  0  0  0  0  0  0  0  0  0  0  0
   -0.8280   -1.8230   -0.9750 C   0  0  0  0  0  0  0  0  0  0  0  0
   -0.7850   -0.4020   -0.7590 C   0  0  0  0  0  0  0  0  0  0  0  0
   -1.3690    0.3010    0.4080 C   0  0  2  0  0  0  0  0  0  0  0  0
   -0.4090    0.2390    1.6210 C   0  0  0  0  0  0  0  0  0  0  0  0
    0.9020    0.8500    1.3600 C   0  0  0  0  0  0  0  0  0  0  0  0
    1.9530    0.1240    0.8570 N   0  0  0  0  0  0  0  0  0  0  0  0
    3.0150    0.9360    0.7240 C   0  0  0  0  0  0  0  0  0  0  0  0
    4.3230    0.5440    0.2160 C   0  0  0  0  0  0  0  0  0  0  0  0
    4.5170   -0.7710   -0.2320 C   0  0  0  0  0  0  0  0  0  0  0  0
    5.7340   -1.1830   -0.6980 C   0  0  0  0  0  0  0  0  0  0  0  0
    6.8000   -0.3130   -0.7380 C   0  0  0  0  0  0  0  0  0  0  0  0
    8.0690   -0.7040   -1.2110 O   0  0  0  0  0  0  0  0  0  0  0  0
    8.1700   -2.0670   -1.6490 C   0  0  0  0  0  0  0  0  0  0  0  0
    9.5540   -2.4130   -2.1450 C   0  0  0  0  0  0  0  0  0  0  0  0
    6.5910    0.9880   -0.2890 C   0  0  0  0  0  0  0  0  0  0  0  0
    7.6680    1.8610   -0.3320 O   0  0  0  0  0  0  0  0  0  0  0  0
    7.5920    3.1990    0.0660 C   0  0  0  0  0  0  0  0  0  0  0  0
    5.3740    1.4150    0.1800 C   0  0  0  0  0  0  0  0  0  0  0  0
    2.6020    2.1320    1.1440 N   0  0  0  0  0  0  0  0  0  0  0  0
    1.3490    2.0740    1.5190 O   0  0  0  0  0  0  0  0  0  0  0  0
   -2.6950   -0.0640    0.8740 C   0  0  0  0  0  0  0  0  0  0  0  0
   -3.7850    0.8610    0.9170 N   0  0  0  0  0  0  0  0  0  0  0  0
   -4.2250    1.5080    2.1370 C   0  0  0  0  0  0  0  0  0  0  0  0
   -3.5820    1.8000    3.1700 O   0  0  0  0  0  0  0  0  0  0  0  0
   -5.6730    1.8000    1.9750 C   0  0  2  0  0  0  0  0  0  0  0  0
   -6.4520    0.5360    2.1900 C   0  0  0  0  0  0  0  0  0  0  0  0
   -6.0630    2.9110    2.8810 C   0  0  0  0  0  0  0  0  0  0  0  0
  1  2  2  0
  2  3  1  0
  2 35  1  0
  3  4  2  0
  3 32  1  0
  4  5  1  0
  5  6  2  0
  6  7  1  0
  7  8  2  0
  8  9  1  0
  8 10  1  0
 10 11  1  0
 11 12  1  0
 12 13  1  0
 13 14  1  1
 13 31  1  0
 14 15  1  0
 15 16  2  0
 15 30  1  0
 16 17  1  0
 17 18  1  0
 17 29  2  0
 18 19  2  0
 18 28  1  0
 19 20  1  0
 20 21  2  0
 21 22  1  0
 21 25  1  0
 22 23  1  0
 23 24  1  0
 25 26  1  0
 25 28  2  0
 26 27  1  0
 29 30  1  0
 31 32  1  0
 32 33  1  0
 33 34  2  0
 33 35  1  0
 35 36  1  6
 35 37  1  0
M  CHG  1   9   1
M  END
