
     RDKit          3D

 39 42  0  0  0  0  0  0  0  0999 V2000
    2.4150   -1.6350   -5.4540 C   0  0  0  0  0  0  0  0  0  0  0  0
    1.8850   -1.5780   -4.0620 C   0  0  0  0  0  0  0  0  0  0  0  0
    2.8890   -1.5610   -3.0600 O   0  0  0  0  0  0  0  0  0  0  0  0
    2.5700   -1.4960   -1.7130 C   0  0  0  0  0  0  0  0  0  0  0  0
    1.2500   -1.4440   -1.2750 C   0  0  0  0  0  0  0  0  0  0  0  0
    0.9070   -1.3790    0.0480 C   0  0  0  0  0  0  0  0  0  0  0  0
   -0.3430   -1.3260    0.5330 O   0  0  0  0  0  0  0  0  0  0  0  0
   -1.5800   -1.3110   -0.1600 C   0  0  1  0  0  0  0  0  0  0  0  0
   -2.3080   -2.6280    0.0400 C   0  0  0  0  0  0  0  0  0  0  0  0
   -3.5400   -2.5130   -0.8700 C   0  0  0  0  0  0  0  0  0  0  0  0
   -4.4290   -1.5250   -0.1700 C   0  0  0  0  0  0  0  0  0  0  0  0
   -3.8330   -0.2060    0.1410 C   0  0  2  0  0  0  0  0  0  0  0  0
   -4.3950    0.2040    1.4350 N   0  0  0  0  0  0  0  0  0  0  0  0
   -3.9040   -0.6190    2.5150 C   0  0  2  0  0  0  0  0  0  0  0  0
   -4.8840   -1.4720    3.2800 C   0  0  0  0  0  0  0  0  0  0  0  0
   -4.4400   -0.1750    3.8730 C   0  0  0  0  0  0  0  0  0  0  0  0
   -4.4570    0.7710   -0.8450 C   0  0  0  0  0  0  0  0  0  0  0  0
   -4.1220    0.6770   -2.0640 O   0  0  0  0  0  0  0  0  0  0  0  0
   -5.3780    1.7700   -0.5020 N   0  0  0  0  0  0  0  0  0  0  0  0
   -5.9590    2.6900   -1.4640 C   0  0  1  0  0  0  0  0  0  0  0  0
   -4.9230    3.5280   -2.1540 C   0  0  0  0  0  0  0  0  0  0  0  0
   -6.7250    1.9430   -2.5550 C   0  0  0  0  0  0  0  0  0  0  0  0
   -6.9690    3.5470   -0.7360 C   0  0  0  0  0  0  0  0  0  0  0  0
   -2.3710   -0.0980    0.1190 C   0  0  0  0  0  0  0  0  0  0  0  0
    1.9700   -1.3690    0.9490 C   0  0  0  0  0  0  0  0  0  0  0  0
    3.2870   -1.4210    0.5310 C   0  0  0  0  0  0  0  0  0  0  0  0
    3.6040   -1.4850   -0.7980 C   0  0  0  0  0  0  0  0  0  0  0  0
    4.9970   -1.5920   -1.2850 C   0  0  0  0  0  0  0  0  0  0  0  0
    5.9500   -1.4930   -0.2730 O   0  0  0  0  0  0  0  0  0  0  0  0
    6.1470   -0.3360    0.4710 C   0  0  0  0  0  0  0  0  0  0  0  0
    5.3970    0.7920    0.1830 C   0  0  0  0  0  0  0  0  0  0  0  0
    5.5770    1.9480    0.9120 C   0  0  0  0  0  0  0  0  0  0  0  0
    6.5230    1.9530    1.9330 C   0  0  0  0  0  0  0  0  0  0  0  0
    6.6710    3.1240    2.6320 O   0  0  0  0  0  0  0  0  0  0  0  0
    7.6020    3.2340    3.6850 C   0  0  0  0  0  0  0  0  0  0  0  0
    7.2600    0.8330    2.2110 C   0  0  0  0  0  0  0  0  0  0  0  0
    7.0840   -0.3160    1.4920 C   0  0  0  0  0  0  0  0  0  0  0  0
    7.8260   -1.4640    1.7620 O   0  0  0  0  0  0  0  0  0  0  0  0
    8.7880   -1.4740    2.7940 C   0  0  0  0  0  0  0  0  0  0  0  0
  1  2  1  0
  2  3  1  0
  3  4  1  0
  4  5  2  0
  4 27  1  0
  5  6  1  0
  6  7  1  0
  6 25  2  0
  8  7  1  1
  8  9  1  0
  8 24  1  0
  9 10  1  0
 10 11  1  0
 11 12  1  0
 12 13  1  1
 12 17  1  0
 12 24  1  0
 14 13  1  6
 14 15  1  0
 14 16  1  0
 15 16  1  0
 17 18  2  0
 17 19  1  0
 19 20  1  0
 20 21  1  6
 20 22  1  0
 20 23  1  0
 25 26  1  0
 26 27  2  0
 27 28  1  0
 28 29  1  0
 29 30  1  0
 30 31  2  0
 30 37  1  0
 31 32  1  0
 32 33  2  0
 33 34  1  0
 33 36  1  0
 34 35  1  0
 36 37  2  0
 37 38  1  0
 38 39  1  0
M  CHG  1  13   1
M  END
