
     RDKit          3D

 39 42  0  0  0  0  0  0  0  0999 V2000
    9.7620    0.7760    1.8050 C   0  0  0  0  0  0  0  0  0  0  0  0
    8.8170   -0.0560    1.2130 O   0  0  0  0  0  0  0  0  0  0  0  0
    7.5720    0.5350    1.2320 C   0  0  0  0  0  0  0  0  0  0  0  0
    6.5830   -0.3920    0.5810 C   0  0  0  0  0  0  0  0  0  0  0  0
    6.9950   -1.4830    0.1400 O   0  0  0  0  0  0  0  0  0  0  0  0
    5.2220   -0.0640    0.4590 N   0  0  0  0  0  0  0  0  0  0  0  0
    4.1990   -0.8540   -0.1280 C   0  0  0  0  0  0  0  0  0  0  0  0
    4.3090   -2.1720   -0.4890 C   0  0  0  0  0  0  0  0  0  0  0  0
    3.2330   -2.8430   -1.0840 C   0  0  0  0  0  0  0  0  0  0  0  0
    2.0370   -2.2200   -1.3290 C   0  0  0  0  0  0  0  0  0  0  0  0
    1.8990   -0.8970   -0.9770 C   0  0  0  0  0  0  0  0  0  0  0  0
    0.6050   -0.1600   -1.2360 C   0  0  0  0  0  0  0  0  0  0  0  0
   -0.2710   -0.4860   -0.2060 O   0  0  0  0  0  0  0  0  0  0  0  0
   -1.5010    0.1620   -0.3570 C   0  0  1  0  0  0  0  0  0  0  0  0
   -2.5710   -0.8960   -0.5410 C   0  0  0  0  0  0  0  0  0  0  0  0
   -3.8760   -0.3530   -0.7200 N   0  0  0  0  0  0  0  0  0  0  0  0
   -4.6800   -0.9130   -1.7400 C   0  0  1  0  0  0  0  0  0  0  0  0
   -4.0240   -1.0060   -3.0850 C   0  0  0  0  0  0  0  0  0  0  0  0
   -5.1450   -2.2590   -1.3390 C   0  0  0  0  0  0  0  0  0  0  0  0
   -5.0900   -3.3630   -2.1970 C   0  0  0  0  0  0  0  0  0  0  0  0
   -5.5240   -4.6130   -1.8420 C   0  0  0  0  0  0  0  0  0  0  0  0
   -6.0450   -4.8430   -0.5960 C   0  0  0  0  0  0  0  0  0  0  0  0
   -6.4930   -6.1300   -0.2280 O   0  0  0  0  0  0  0  0  0  0  0  0
   -7.0140   -6.2950    1.0570 C   0  0  0  0  0  0  0  0  0  0  0  0
   -6.1230   -3.7940    0.2860 C   0  0  0  0  0  0  0  0  0  0  0  0
   -5.6820   -2.5460   -0.0880 C   0  0  0  0  0  0  0  0  0  0  0  0
   -1.8030    1.0130    0.8290 C   0  0  0  0  0  0  0  0  0  0  0  0
   -0.8700    1.9800    1.0590 O   0  0  0  0  0  0  0  0  0  0  0  0
   -0.4050    3.0640    0.4130 C   0  0  0  0  0  0  0  0  0  0  0  0
   -0.8340    3.5330   -0.8030 C   0  0  0  0  0  0  0  0  0  0  0  0
   -0.3210    4.6590   -1.4240 C   0  0  0  0  0  0  0  0  0  0  0  0
    0.6800    5.3600   -0.7930 C   0  0  0  0  0  0  0  0  0  0  0  0
    1.1570    4.9380    0.4380 C   0  0  0  0  0  0  0  0  0  0  0  0
    0.6220    3.8200    1.0160 C   0  0  0  0  0  0  0  0  0  0  0  0
    1.1110    3.3480    2.3350 C   0  0  0  0  0  0  0  0  0  0  0  0
    2.3870    3.9930    2.7480 C   0  0  0  0  0  0  0  0  0  0  0  0
    2.2630    5.4860    2.4940 C   0  0  0  0  0  0  0  0  0  0  0  0
    2.1630    5.6280    1.0910 O   0  0  0  0  0  0  0  0  0  0  0  0
    2.9590   -0.2580   -0.3970 C   0  0  0  0  0  0  0  0  0  0  0  0
  1  2  1  0
  2  3  1  0
  3  4  1  0
  4  5  2  0
  4  6  1  0
  6  7  1  0
  7  8  2  0
  7 39  1  0
  8  9  1  0
  9 10  2  0
 10 11  1  0
 11 12  1  0
 11 39  2  0
 12 13  1  0
 13 14  1  0
 14 15  1  1
 14 27  1  0
 15 16  1  0
 16 17  1  0
 17 18  1  6
 17 19  1  0
 19 20  2  0
 19 26  1  0
 20 21  1  0
 21 22  2  0
 22 23  1  0
 22 25  1  0
 23 24  1  0
 25 26  2  0
 27 28  1  0
 28 29  1  0
 29 30  2  0
 29 34  1  0
 30 31  1  0
 31 32  2  0
 32 33  1  0
 33 34  2  0
 33 38  1  0
 34 35  1  0
 35 36  1  0
 36 37  1  0
 37 38  1  0
M  CHG  1  16   1
M  END
