
     RDKit          3D

 39 42  0  0  0  0  0  0  0  0999 V2000
   -1.9910   -6.5140    0.2050 O   0  0  0  0  0  0  0  0  0  0  0  0
   -2.0290   -5.7080    1.1780 C   0  0  0  0  0  0  0  0  0  0  0  0
   -2.8140   -4.5310    1.0400 N   0  0  0  0  0  0  0  0  0  0  0  0
   -3.5380   -4.2840   -0.1810 C   0  0  0  0  0  0  0  0  0  0  0  0
   -3.3140   -3.2290   -0.9060 C   0  0  0  0  0  0  0  0  0  0  0  0
   -2.2990   -2.2930   -0.4420 N   0  0  0  0  0  0  0  0  0  0  0  0
   -2.6380   -1.1660    0.0420 C   0  0  0  0  0  0  0  0  0  0  0  0
   -1.8960   -0.0900    0.5590 C   0  0  0  0  0  0  0  0  0  0  0  0
   -0.6380    0.0480    0.7400 C   0  0  0  0  0  0  0  0  0  0  0  0
    0.4280   -0.8810    0.4760 C   0  0  0  0  0  0  0  0  0  0  0  0
    0.5010   -2.0990    1.1090 C   0  0  0  0  0  0  0  0  0  0  0  0
    1.5310   -2.9520    0.8350 C   0  0  0  0  0  0  0  0  0  0  0  0
    2.5230   -2.6290   -0.0740 C   0  0  0  0  0  0  0  0  0  0  0  0
    2.4900   -1.4110   -0.7350 C   0  0  0  0  0  0  0  0  0  0  0  0
    3.5160   -1.0280   -1.6950 C   0  0  0  0  0  0  0  0  0  0  0  0
    3.4120    0.0970   -2.2460 O   0  0  0  0  0  0  0  0  0  0  0  0
    4.5840   -1.8080   -2.0370 O   0  0  0  0  0  0  0  0  0  0  0  0
    5.5940   -1.4620   -2.9600 C   0  0  0  0  0  0  0  0  0  0  0  0
    6.3410   -0.2120   -2.5460 C   0  0  0  0  0  0  0  0  0  0  0  0
    6.9570   -0.3430   -1.3270 O   0  0  0  0  0  0  0  0  0  0  0  0
    7.6120    0.8220   -1.0060 C   0  0  1  0  0  0  0  0  0  0  0  0
    7.0150    1.4500    0.2570 C   0  0  0  0  0  0  0  0  0  0  0  0
    8.2120    2.1860    0.8200 C   0  0  0  0  0  0  0  0  0  0  0  0
    9.2950    1.1290    0.6950 C   0  0  0  0  0  0  0  0  0  0  0  0
    9.0570    0.5260   -0.6660 C   0  0  0  0  0  0  0  0  0  0  0  0
    1.4460   -0.5770   -0.4410 C   0  0  0  0  0  0  0  0  0  0  0  0
   -2.7010    1.1150    0.9760 C   0  0  0  0  0  0  0  0  0  0  0  0
   -2.1450    2.1270    1.4410 O   0  0  0  0  0  0  0  0  0  0  0  0
   -4.0450    1.0810    0.8370 O   0  0  0  0  0  0  0  0  0  0  0  0
   -4.9270    2.1430    1.1850 C   0  0  2  0  0  0  0  0  0  0  0  0
   -5.8530    1.5630    2.2670 C   0  0  0  0  0  0  0  0  0  0  0  0
   -6.7900    2.6490    2.6800 C   0  0  0  0  0  0  0  0  0  0  0  0
   -7.6170    3.1660    1.5520 C   0  0  0  0  0  0  0  0  0  0  0  0
   -7.0680    2.8590    0.2120 C   0  0  0  0  0  0  0  0  0  0  0  0
   -7.8720    3.0700   -0.8760 C   0  0  0  0  0  0  0  0  0  0  0  0
   -7.4750    2.8220   -2.1720 C   0  0  0  0  0  0  0  0  0  0  0  0
   -6.2020    2.3370   -2.3770 C   0  0  0  0  0  0  0  0  0  0  0  0
   -5.3990    2.1260   -1.2900 C   0  0  0  0  0  0  0  0  0  0  0  0
   -5.7980    2.3750    0.0070 C   0  0  0  0  0  0  0  0  0  0  0  0
  1  2  2  0
  2  3  1  0
  3  4  1  0
  4  5  2  3
  5  6  1  0
  6  7  2  3
  7  8  1  0
  8  9  2  3
  8 27  1  0
  9 10  1  0
 10 11  2  0
 10 26  1  0
 11 12  1  0
 12 13  2  0
 13 14  1  0
 14 15  1  0
 14 26  2  0
 15 16  2  0
 15 17  1  0
 17 18  1  0
 18 19  1  0
 19 20  1  0
 21 20  1  1
 21 22  1  0
 21 25  1  0
 22 23  1  0
 23 24  1  0
 24 25  1  0
 27 28  2  0
 27 29  1  0
 30 29  1  6
 30 31  1  0
 30 39  1  0
 31 32  1  0
 32 33  1  0
 33 34  1  0
 34 35  2  0
 34 39  1  0
 35 36  1  0
 36 37  2  0
 37 38  1  0
 38 39  2  0
M  CHG  1   6   1
M  END
