
     RDKit          3D

 39 42  0  0  0  0  0  0  0  0999 V2000
   12.0370   -0.4150    1.4180 C   0  0  0  0  0  0  0  0  0  0  0  0
   11.4750   -1.7780    1.1670 C   0  0  0  0  0  0  0  0  0  0  0  0
   10.2480   -2.0990    1.9620 C   0  0  0  0  0  0  0  0  0  0  0  0
    9.1460   -1.1880    1.7020 N   0  0  0  0  0  0  0  0  0  0  0  0
    8.6000   -1.0550    0.3960 C   0  0  0  0  0  0  0  0  0  0  0  0
    9.1210   -1.7630   -0.5010 O   0  0  0  0  0  0  0  0  0  0  0  0
    7.5000   -0.1460    0.1310 C   0  0  0  0  0  0  0  0  0  0  0  0
    6.8560    0.5810    1.1010 C   0  0  0  0  0  0  0  0  0  0  0  0
    5.8020    1.4420    0.7770 C   0  0  0  0  0  0  0  0  0  0  0  0
    5.3610    1.6020   -0.5190 C   0  0  0  0  0  0  0  0  0  0  0  0
    4.3120    2.4620   -0.8200 O   0  0  0  0  0  0  0  0  0  0  0  0
    3.9300    2.5610   -2.1780 C   0  0  0  0  0  0  0  0  0  0  0  0
    2.7960    3.5060   -2.4070 C   0  0  0  0  0  0  0  0  0  0  0  0
    1.6150    3.1880   -1.7420 O   0  0  0  0  0  0  0  0  0  0  0  0
    0.9650    1.9870   -1.9720 C   0  0  0  0  0  0  0  0  0  0  0  0
    1.4660    1.1890   -2.7950 O   0  0  0  0  0  0  0  0  0  0  0  0
   -0.2670    1.6950   -1.2580 C   0  0  0  0  0  0  0  0  0  0  0  0
   -0.8280    2.5690   -0.3530 C   0  0  0  0  0  0  0  0  0  0  0  0
   -1.9950    2.2920    0.3190 C   0  0  0  0  0  0  0  0  0  0  0  0
   -2.6770    1.0860    0.1100 C   0  0  0  0  0  0  0  0  0  0  0  0
   -2.1290    0.2090   -0.7860 C   0  0  0  0  0  0  0  0  0  0  0  0
   -0.9350    0.5100   -1.4640 C   0  0  0  0  0  0  0  0  0  0  0  0
   -3.0130   -0.9920   -0.8470 C   0  0  0  0  0  0  0  0  0  0  0  0
   -4.3130   -0.4070   -0.2840 C   0  0  1  0  0  0  0  0  0  0  0  0
   -5.0080   -1.4850    0.4630 C   0  0  0  0  0  0  0  0  0  0  0  0
   -6.3100   -1.1090    1.0820 C   0  0  2  0  0  0  0  0  0  0  0  0
   -6.8930   -2.2290    1.8270 N   0  0  0  0  0  0  0  0  0  0  0  0
   -7.1450   -3.3680    1.0030 C   0  0  0  0  0  0  0  0  0  0  0  0
   -7.3450   -0.7060    0.0460 C   0  0  0  0  0  0  0  0  0  0  0  0
   -7.1920   -1.0200   -1.2750 C   0  0  0  0  0  0  0  0  0  0  0  0
   -8.1620   -0.6590   -2.1790 C   0  0  0  0  0  0  0  0  0  0  0  0
   -9.2980    0.0180   -1.7810 C   0  0  0  0  0  0  0  0  0  0  0  0
   -9.4470    0.3330   -0.4380 C   0  0  0  0  0  0  0  0  0  0  0  0
   -8.4740   -0.0310    0.4580 C   0  0  0  0  0  0  0  0  0  0  0  0
   -8.5990    0.2760    1.8320 O   0  0  0  0  0  0  0  0  0  0  0  0
   -9.7690    0.9680    2.2170 C   0  0  0  0  0  0  0  0  0  0  0  0
   -3.8480    0.5710    0.6470 O   0  0  0  0  0  0  0  0  0  0  0  0
    6.0180    0.8630   -1.4850 C   0  0  0  0  0  0  0  0  0  0  0  0
    7.0570    0.0130   -1.1820 C   0  0  0  0  0  0  0  0  0  0  0  0
  1  2  1  0
  2  3  1  0
  3  4  1  0
  4  5  1  0
  5  6  2  0
  5  7  1  0
  7  8  2  0
  7 39  1  0
  8  9  1  0
  9 10  2  0
 10 11  1  0
 10 38  1  0
 11 12  1  0
 12 13  1  0
 13 14  1  0
 14 15  1  0
 15 16  2  0
 15 17  1  0
 17 18  2  0
 17 22  1  0
 18 19  1  0
 19 20  2  0
 20 21  1  0
 20 37  1  0
 21 22  2  0
 21 23  1  0
 23 24  1  0
 24 25  1  1
 24 37  1  0
 26 25  1  6
 26 27  1  0
 26 29  1  0
 27 28  1  0
 29 30  2  0
 29 34  1  0
 30 31  1  0
 31 32  2  0
 32 33  1  0
 33 34  2  0
 34 35  1  0
 35 36  1  0
 38 39  2  0
M  CHG  1  27   1
M  END
