
     RDKit          3D

 39 41  0  0  0  0  0  0  0  0999 V2000
   -5.8390   -1.8260    2.2330 C   0  0  0  0  0  0  0  0  0  0  0  0
   -4.4750   -1.8540    1.5370 C   0  0  2  0  0  0  0  0  0  0  0  0
   -3.4270   -2.1740    2.5700 C   0  0  0  0  0  0  0  0  0  0  0  0
   -4.2030   -0.5630    0.8300 C   0  0  2  0  0  0  0  0  0  0  0  0
   -2.9220   -0.5400    0.1550 N   0  0  0  0  0  0  0  0  0  0  0  0
   -2.7730   -0.1760   -1.1970 C   0  0  0  0  0  0  0  0  0  0  0  0
   -3.7440    0.1490   -1.8820 O   0  0  0  0  0  0  0  0  0  0  0  0
   -1.4090   -0.1870   -1.8070 C   0  0  2  0  0  0  0  0  0  0  0  0
   -1.0310   -1.6280   -1.9510 C   0  0  0  0  0  0  0  0  0  0  0  0
   -2.0830   -2.2410   -2.8570 C   0  0  0  0  0  0  0  0  0  0  0  0
   -3.2180   -2.8160   -2.3280 C   0  0  0  0  0  0  0  0  0  0  0  0
   -4.1660   -3.3610   -3.2030 C   0  0  0  0  0  0  0  0  0  0  0  0
   -3.9800   -3.3290   -4.5620 C   0  0  0  0  0  0  0  0  0  0  0  0
   -2.8180   -2.7380   -5.0700 C   0  0  0  0  0  0  0  0  0  0  0  0
   -1.8760   -2.1970   -4.2170 C   0  0  0  0  0  0  0  0  0  0  0  0
   -0.4690    0.6780   -1.0480 C   0  0  0  0  0  0  0  0  0  0  0  0
    0.8950    0.7050   -1.6320 C   0  0  2  0  0  0  0  0  0  0  0  0
    1.5700   -0.4800   -1.7010 O   0  0  0  0  0  0  0  0  0  0  0  0
    1.7860    1.7460   -0.9770 C   0  0  2  0  0  0  0  0  0  0  0  0
    2.9170    2.0430   -1.9120 C   0  0  0  0  0  0  0  0  0  0  0  0
    3.8500    3.0980   -1.3690 C   0  0  0  0  0  0  0  0  0  0  0  0
    4.9780    2.7350   -0.6770 C   0  0  0  0  0  0  0  0  0  0  0  0
    5.7890    3.7600   -0.1950 C   0  0  0  0  0  0  0  0  0  0  0  0
    5.4910    5.0890   -0.3910 C   0  0  0  0  0  0  0  0  0  0  0  0
    4.3530    5.4070   -1.0890 C   0  0  0  0  0  0  0  0  0  0  0  0
    3.5430    4.4340   -1.5720 C   0  0  0  0  0  0  0  0  0  0  0  0
    2.1730    1.3850    0.3620 N   0  0  0  0  0  0  0  0  0  0  0  0
    3.0540    0.3560    0.7330 C   0  0  0  0  0  0  0  0  0  0  0  0
    3.5840   -0.3520   -0.1280 O   0  0  0  0  0  0  0  0  0  0  0  0
    3.3860    0.0630    2.0570 O   0  0  0  0  0  0  0  0  0  0  0  0
    4.2900   -1.0000    2.3690 C   0  0  1  0  0  0  0  0  0  0  0  0
    3.7960   -2.3320    1.8740 C   0  0  0  0  0  0  0  0  0  0  0  0
    5.6700   -0.7600    1.8480 C   0  0  0  0  0  0  0  0  0  0  0  0
    4.3810   -1.0340    3.8940 C   0  0  0  0  0  0  0  0  0  0  0  0
   -4.1860    0.5900    1.8020 C   0  0  0  0  0  0  0  0  0  0  0  0
   -3.1860    0.9590    2.6170 N   0  0  0  0  0  0  0  0  0  0  0  0
   -3.5960    2.0310    3.3080 C   0  0  0  0  0  0  0  0  0  0  0  0
   -4.8770    2.3460    2.9240 C   0  0  0  0  0  0  0  0  0  0  0  0
   -5.2150    1.4380    1.9920 N   0  0  0  0  0  0  0  0  0  0  0  0
  2  1  1  1
  2  3  1  0
  2  4  1  0
  4  5  1  1
  4 35  1  0
  5  6  1  0
  6  7  2  0
  6  8  1  0
  8  9  1  1
  8 16  1  0
  9 10  1  0
 10 11  2  0
 10 15  1  0
 11 12  1  0
 12 13  2  0
 13 14  1  0
 14 15  2  0
 16 17  1  0
 17 18  1  1
 17 19  1  0
 19 20  1  6
 19 27  1  0
 20 21  1  0
 21 22  2  0
 21 26  1  0
 22 23  1  0
 23 24  2  0
 24 25  1  0
 25 26  2  0
 27 28  1  0
 28 29  2  0
 28 30  1  0
 30 31  1  0
 31 32  1  6
 31 33  1  0
 31 34  1  0
 35 36  2  0
 35 39  1  0
 36 37  1  0
 37 38  2  0
 38 39  1  0
M  END
