
     RDKit          3D

 39 42  0  0  0  0  0  0  0  0999 V2000
   -0.7660    6.5890   -1.7380 C   0  0  0  0  0  0  0  0  0  0  0  0
   -1.1110    6.5800   -0.2650 C   0  0  0  0  0  0  0  0  0  0  0  0
   -1.2520    5.2490    0.1770 O   0  0  0  0  0  0  0  0  0  0  0  0
   -0.1810    4.3600    0.0740 C   0  0  0  0  0  0  0  0  0  0  0  0
    0.8740    4.7980   -0.4150 O   0  0  0  0  0  0  0  0  0  0  0  0
   -0.3070    2.9710    0.5260 C   0  0  0  0  0  0  0  0  0  0  0  0
   -1.4750    2.4910    1.0670 C   0  0  0  0  0  0  0  0  0  0  0  0
   -1.5130    1.1570    1.4690 C   0  0  0  0  0  0  0  0  0  0  0  0
   -0.4150    0.3290    1.3320 C   0  0  0  0  0  0  0  0  0  0  0  0
   -0.4050   -0.9860    1.7100 O   0  0  0  0  0  0  0  0  0  0  0  0
   -1.5290   -1.6150    2.2670 C   0  0  0  0  0  0  0  0  0  0  0  0
   -2.6610   -1.6040    1.3130 C   0  0  0  0  0  0  0  0  0  0  0  0
   -2.4730   -1.3050   -0.0180 C   0  0  0  0  0  0  0  0  0  0  0  0
   -3.5730   -1.3080   -0.8810 C   0  0  0  0  0  0  0  0  0  0  0  0
   -4.8330   -1.5990   -0.4450 C   0  0  0  0  0  0  0  0  0  0  0  0
   -5.0390   -1.9010    0.8860 C   0  0  0  0  0  0  0  0  0  0  0  0
   -3.9550   -1.8970    1.7360 C   0  0  0  0  0  0  0  0  0  0  0  0
   -6.4020   -2.1720    1.1310 N   0  0  0  0  0  0  0  0  0  0  0  0
   -7.0770   -1.4250    0.0910 C   0  0  2  0  0  0  0  0  0  0  0  0
   -8.4680   -1.9470   -0.1780 C   0  0  0  0  0  0  0  0  0  0  0  0
   -9.2480   -1.8220    1.1250 C   0  0  0  0  0  0  0  0  0  0  0  0
   -6.1500   -1.6760   -1.0960 C   0  0  0  0  0  0  0  0  0  0  0  0
    0.7630    0.8230    0.7830 C   0  0  0  0  0  0  0  0  0  0  0  0
    1.8640    0.0100    0.6430 O   0  0  0  0  0  0  0  0  0  0  0  0
    3.0520    0.5040    0.0950 C   0  0  0  0  0  0  0  0  0  0  0  0
    4.0890   -0.5690    0.0600 C   0  0  0  0  0  0  0  0  0  0  0  0
    3.8030   -1.7120    0.4850 O   0  0  0  0  0  0  0  0  0  0  0  0
    5.3930   -0.3350   -0.4400 N   0  0  0  0  0  0  0  0  0  0  0  0
    5.7100    0.9960   -0.9310 C   0  0  0  0  0  0  0  0  0  0  0  0
    5.4210    1.1760   -2.3930 C   0  0  0  0  0  0  0  0  0  0  0  0
    6.3310   -1.3900   -0.4430 C   0  0  0  0  0  0  0  0  0  0  0  0
    6.8720   -1.8360    0.7580 C   0  0  0  0  0  0  0  0  0  0  0  0
    7.7880   -2.8640    0.7700 C   0  0  0  0  0  0  0  0  0  0  0  0
    8.1860   -3.4680   -0.4040 C   0  0  0  0  0  0  0  0  0  0  0  0
    9.1540   -4.5540   -0.3780 C   0  0  0  0  0  0  0  0  0  0  0  0
    9.6570   -4.9760    0.7040 O   0  0  0  0  0  0  0  0  0  0  0  0
    7.6510   -3.0270   -1.5930 C   0  0  0  0  0  0  0  0  0  0  0  0
    6.7250   -1.9880   -1.6070 C   0  0  0  0  0  0  0  0  0  0  0  0
    0.7820    2.1370    0.3940 C   0  0  0  0  0  0  0  0  0  0  0  0
  1  2  1  0
  2  3  1  0
  3  4  1  0
  4  5  2  0
  4  6  1  0
  6  7  2  0
  6 39  1  0
  7  8  1  0
  8  9  2  0
  9 10  1  0
  9 23  1  0
 10 11  1  0
 11 12  1  0
 12 13  2  0
 12 17  1  0
 13 14  1  0
 14 15  2  0
 15 16  1  0
 15 22  1  0
 16 17  2  0
 16 18  1  0
 18 19  1  0
 19 20  1  6
 19 22  1  0
 20 21  1  0
 23 24  1  0
 23 39  2  0
 24 25  1  0
 25 26  1  0
 26 27  2  0
 26 28  1  0
 28 29  1  0
 28 31  1  0
 29 30  1  0
 31 32  2  0
 31 38  1  0
 32 33  1  0
 33 34  2  0
 34 35  1  0
 34 37  1  0
 35 36  2  0
 37 38  2  0
M  CHG  1  18   1
M  END
