
     RDKit          3D

 39 42  0  0  0  0  0  0  0  0999 V2000
    8.4770   -2.6620    0.8800 C   0  0  0  0  0  0  0  0  0  0  0  0
    7.1740   -3.4000    1.0440 C   0  0  0  0  0  0  0  0  0  0  0  0
    6.0260   -2.7040    0.3620 C   0  0  0  0  0  0  0  0  0  0  0  0
    5.7990   -1.3140    0.9060 C   0  0  0  0  0  0  0  0  0  0  0  0
    4.7200   -0.6390    0.2710 N   0  0  2  0  0  0  0  0  0  0  0  0
    3.9920    0.2810    1.1240 C   0  0  0  0  0  0  0  0  0  0  0  0
    2.9430    0.7760    0.1020 C   0  0  0  0  0  0  0  0  0  0  0  0
    2.4930   -0.5330   -0.4630 C   0  0  1  0  0  0  0  0  0  0  0  0
    1.3700   -1.0160    0.4790 C   0  0  0  0  0  0  0  0  0  0  0  0
    2.0600   -0.5770   -1.8490 C   0  0  0  0  0  0  0  0  0  0  0  0
    2.8010   -1.2200   -2.6540 O   0  0  0  0  0  0  0  0  0  0  0  0
    0.8810    0.0000   -2.5110 C   0  0  0  0  0  0  0  0  0  0  0  0
    0.1330    0.8770   -1.8460 O   0  0  0  0  0  0  0  0  0  0  0  0
    0.1960    2.1400   -1.3670 C   0  0  0  0  0  0  0  0  0  0  0  0
    1.2680    2.9880   -1.5350 C   0  0  0  0  0  0  0  0  0  0  0  0
    1.2940    4.2750   -1.0270 C   0  0  0  0  0  0  0  0  0  0  0  0
    0.2260    4.7790   -0.3150 C   0  0  0  0  0  0  0  0  0  0  0  0
    0.2540    6.1340    0.2200 C   0  0  0  0  0  0  0  0  0  0  0  0
   -0.6790    6.6400    0.8660 O   0  0  0  0  0  0  0  0  0  0  0  0
    1.3810    6.9210    0.0040 O   0  0  0  0  0  0  0  0  0  0  0  0
    1.4460    8.2370    0.5050 C   0  0  0  0  0  0  0  0  0  0  0  0
   -0.8610    3.9550   -0.1310 C   0  0  0  0  0  0  0  0  0  0  0  0
   -0.8860    2.6790   -0.6350 C   0  0  0  0  0  0  0  0  0  0  0  0
   -1.9580    1.8220   -0.4730 O   0  0  0  0  0  0  0  0  0  0  0  0
   -3.1440    2.1360    0.2110 C   0  0  0  0  0  0  0  0  0  0  0  0
   -4.0240    0.9290    0.1370 C   0  0  0  0  0  0  0  0  0  0  0  0
   -3.5470   -0.3150   -0.2040 C   0  0  0  0  0  0  0  0  0  0  0  0
   -4.4070   -1.4190   -0.2740 C   0  0  0  0  0  0  0  0  0  0  0  0
   -5.7540   -1.3240   -0.0100 C   0  0  0  0  0  0  0  0  0  0  0  0
   -6.6510   -2.4540   -0.0930 C   0  0  0  0  0  0  0  0  0  0  0  0
   -7.9610   -2.3850    0.1970 C   0  0  0  0  0  0  0  0  0  0  0  0
   -8.7450   -3.5770    0.0780 N   0  0  0  0  0  0  0  0  0  0  0  0
   -8.2190   -4.8320    0.5470 C   0  0  0  0  0  0  0  0  0  0  0  0
   -6.7990   -5.0060    0.1000 C   0  0  0  0  0  0  0  0  0  0  0  0
   -6.2430   -3.8030   -0.5220 C   0  0  0  0  0  0  0  0  0  0  0  0
   -5.3800   -3.8650   -1.4640 O   0  0  0  0  0  0  0  0  0  0  0  0
   -6.2150   -0.0650    0.3310 C   0  0  0  0  0  0  0  0  0  0  0  0
   -5.3630    1.0420    0.4030 C   0  0  0  0  0  0  0  0  0  0  0  0
    3.7010   -1.4790   -0.2820 C   0  0  0  0  0  0  0  0  0  0  0  0
  1  2  1  0
  2  3  1  0
  3  4  1  0
  5  4  1  1
  5  6  1  0
  5 39  1  0
  6  7  1  0
  7  8  1  0
  8  9  1  1
  8 10  1  0
  8 39  1  0
 10 11  2  0
 10 12  1  0
 12 13  1  0
 13 14  1  0
 14 15  2  0
 14 23  1  0
 15 16  1  0
 16 17  2  0
 17 18  1  0
 17 22  1  0
 18 19  2  0
 18 20  1  0
 20 21  1  0
 22 23  2  0
 23 24  1  0
 24 25  1  0
 25 26  1  0
 26 27  2  0
 26 38  1  0
 27 28  1  0
 28 29  2  0
 29 30  1  0
 29 37  1  0
 30 31  2  0
 30 35  1  0
 31 32  1  0
 32 33  1  0
 33 34  1  0
 34 35  1  0
 35 36  2  0
 37 38  2  0
M  CHG  1   5   1
M  END
