
     RDKit          3D

 39 42  0  0  0  0  0  0  0  0999 V2000
   10.6550    0.0170    2.7060 C   0  0  0  0  0  0  0  0  0  0  0  0
   10.0720    0.3460    1.3770 C   0  0  0  0  0  0  0  0  0  0  0  0
   10.7670    0.9170    0.3320 C   0  0  0  0  0  0  0  0  0  0  0  0
    9.8490    1.0430   -0.6910 C   0  0  0  0  0  0  0  0  0  0  0  0
    8.6440    0.5460   -0.2270 C   0  0  0  0  0  0  0  0  0  0  0  0
    7.3760    0.4990   -1.0370 C   0  0  1  0  0  0  0  0  0  0  0  0
    7.1480   -0.8940   -1.5840 C   0  0  0  0  0  0  0  0  0  0  0  0
    6.3060    0.9570   -0.2150 N   0  0  0  0  0  0  0  0  0  0  0  0
    5.4440   -0.1080    0.2570 C   0  0  0  0  0  0  0  0  0  0  0  0
    4.8540    0.3520    1.5730 C   0  0  0  0  0  0  0  0  0  0  0  0
    4.0550    1.6190    1.4150 C   0  0  0  0  0  0  0  0  0  0  0  0
    2.9330    1.3770    0.4500 C   0  0  0  0  0  0  0  0  0  0  0  0
    2.1070    0.3490    0.9570 O   0  0  0  0  0  0  0  0  0  0  0  0
    1.0010   -0.0230    0.2050 C   0  0  0  0  0  0  0  0  0  0  0  0
    0.8010    0.5760   -0.8790 O   0  0  0  0  0  0  0  0  0  0  0  0
    0.0870   -1.0800    0.6490 C   0  0  0  0  0  0  0  0  0  0  0  0
    0.3410   -1.7130    1.8400 C   0  0  0  0  0  0  0  0  0  0  0  0
   -0.5320   -2.6990    2.2310 C   0  0  0  0  0  0  0  0  0  0  0  0
   -1.6240   -3.0450    1.4640 C   0  0  0  0  0  0  0  0  0  0  0  0
   -1.8310   -2.3760    0.2770 C   0  0  0  0  0  0  0  0  0  0  0  0
   -0.9850   -1.3890   -0.1480 C   0  0  0  0  0  0  0  0  0  0  0  0
   -1.1530   -0.7030   -1.3170 O   0  0  0  0  0  0  0  0  0  0  0  0
   -2.1770   -0.8500   -2.2620 C   0  0  0  0  0  0  0  0  0  0  0  0
   -3.4770   -0.4950   -1.5530 C   0  0  0  0  0  0  0  0  0  0  0  0
   -3.4480   -0.1060   -0.3780 O   0  0  0  0  0  0  0  0  0  0  0  0
   -4.6980   -0.6120   -2.2420 N   0  0  0  0  0  0  0  0  0  0  0  0
   -5.9810   -0.3120   -1.7060 C   0  0  0  0  0  0  0  0  0  0  0  0
   -6.2240    0.2750   -0.5060 C   0  0  0  0  0  0  0  0  0  0  0  0
   -7.4980    0.5210   -0.0560 C   0  0  0  0  0  0  0  0  0  0  0  0
   -8.6150    0.1940   -0.7830 C   0  0  0  0  0  0  0  0  0  0  0  0
   -9.9860    0.4660   -0.2860 C   0  0  0  0  0  0  0  0  0  0  0  0
  -11.0530    0.1570   -0.9750 C   0  0  0  0  0  0  0  0  0  0  0  0
  -12.4270    0.4100   -0.5160 C   0  0  0  0  0  0  0  0  0  0  0  0
  -12.5230    1.0150    0.7330 O   0  0  0  0  0  0  0  0  0  0  0  0
  -11.4310    1.3570    1.4910 C   0  0  0  0  0  0  0  0  0  0  0  0
  -10.2100    1.0990    1.0150 C   0  0  0  0  0  0  0  0  0  0  0  0
   -8.3850   -0.4020   -2.0030 C   0  0  0  0  0  0  0  0  0  0  0  0
   -7.1150   -0.6530   -2.4630 C   0  0  0  0  0  0  0  0  0  0  0  0
    8.8300    0.1490    0.9940 O   0  0  0  0  0  0  0  0  0  0  0  0
  1  2  1  0
  2  3  2  0
  2 39  1  0
  3  4  1  0
  4  5  2  0
  5  6  1  0
  5 39  1  0
  6  7  1  1
  6  8  1  0
  8  9  1  0
  9 10  1  0
 10 11  1  0
 11 12  1  0
 12 13  1  0
 13 14  1  0
 14 15  2  0
 14 16  1  0
 16 17  2  0
 16 21  1  0
 17 18  1  0
 18 19  2  0
 19 20  1  0
 20 21  2  0
 21 22  1  0
 22 23  1  0
 23 24  1  0
 24 25  2  0
 24 26  1  0
 26 27  1  0
 27 28  2  0
 27 38  1  0
 28 29  1  0
 29 30  2  0
 30 31  1  0
 30 37  1  0
 31 32  2  0
 31 36  1  0
 32 33  1  0
 33 34  1  0
 34 35  1  0
 35 36  2  0
 37 38  2  0
M  CHG  1   8   1
M  END
