
     RDKit          3D

 39 42  0  0  0  0  0  0  0  0999 V2000
   -6.3260    3.8500    1.7820 C   0  0  0  0  0  0  0  0  0  0  0  0
   -5.5150    3.1450    1.0430 C   0  0  0  0  0  0  0  0  0  0  0  0
   -5.6170    1.6270    1.1170 C   0  0  0  0  0  0  0  0  0  0  0  0
   -5.9170    1.1940   -0.1410 O   0  0  0  0  0  0  0  0  0  0  0  0
   -6.1560   -0.0010   -0.7240 C   0  0  0  0  0  0  0  0  0  0  0  0
   -5.1620   -0.7480   -1.2930 C   0  0  0  0  0  0  0  0  0  0  0  0
   -3.7120   -0.3600   -1.2740 C   0  0  0  0  0  0  0  0  0  0  0  0
   -3.1250   -0.8510    0.0260 C   0  0  0  0  0  0  0  0  0  0  0  0
   -1.7480   -0.4880    0.1090 N   0  0  0  0  0  0  0  0  0  0  0  0
   -1.3140    0.8550    0.1090 C   0  0  0  0  0  0  0  0  0  0  0  0
   -2.1410    1.7710    0.0440 O   0  0  0  0  0  0  0  0  0  0  0  0
    0.1080    1.1990    0.1870 C   0  0  0  0  0  0  0  0  0  0  0  0
    0.4600    2.5050    0.5510 C   0  0  0  0  0  0  0  0  0  0  0  0
    1.7800    2.8440    0.6200 C   0  0  0  0  0  0  0  0  0  0  0  0
    2.7730    1.9260    0.3380 C   0  0  0  0  0  0  0  0  0  0  0  0
    2.4700    0.6540   -0.0170 C   0  0  0  0  0  0  0  0  0  0  0  0
    3.4270   -0.4070   -0.3430 C   0  0  0  0  0  0  0  0  0  0  0  0
    4.7940   -0.0500   -0.3230 N   0  0  0  0  0  0  0  0  0  0  0  0
    5.4900   -0.2860    0.9190 C   0  0  1  0  0  0  0  0  0  0  0  0
    5.2100   -1.6250    1.5180 C   0  0  0  0  0  0  0  0  0  0  0  0
    5.5350   -2.7600    0.5710 C   0  0  0  0  0  0  0  0  0  0  0  0
    6.9130   -2.6730    0.2890 O   0  0  0  0  0  0  0  0  0  0  0  0
    7.6010   -1.4430    0.2750 C   0  0  0  0  0  0  0  0  0  0  0  0
    8.9400   -1.4140   -0.0410 C   0  0  0  0  0  0  0  0  0  0  0  0
    9.6470   -0.2370   -0.0660 C   0  0  0  0  0  0  0  0  0  0  0  0
    9.0040    0.9530    0.2330 C   0  0  0  0  0  0  0  0  0  0  0  0
    9.6500    2.1590    0.2260 O   0  0  0  0  0  0  0  0  0  0  0  0
   11.0090    2.3440   -0.0760 C   0  0  0  0  0  0  0  0  0  0  0  0
    7.6630    0.9170    0.5490 C   0  0  0  0  0  0  0  0  0  0  0  0
    6.9530   -0.2620    0.5740 C   0  0  0  0  0  0  0  0  0  0  0  0
    1.1150    0.3010   -0.0890 C   0  0  0  0  0  0  0  0  0  0  0  0
   -5.5000   -1.9650   -1.8800 C   0  0  0  0  0  0  0  0  0  0  0  0
   -6.7910   -2.4330   -1.9040 C   0  0  0  0  0  0  0  0  0  0  0  0
   -7.8050   -1.6980   -1.3360 C   0  0  0  0  0  0  0  0  0  0  0  0
   -9.1090   -2.1840   -1.3660 O   0  0  0  0  0  0  0  0  0  0  0  0
   -9.3530   -3.4300   -1.9830 C   0  0  0  0  0  0  0  0  0  0  0  0
   -7.4670   -0.5090   -0.7640 C   0  0  0  0  0  0  0  0  0  0  0  0
   -8.5050    0.2280   -0.1920 O   0  0  0  0  0  0  0  0  0  0  0  0
   -8.8260    0.0130    1.1610 C   0  0  0  0  0  0  0  0  0  0  0  0
  1  2  2  0
  2  3  1  0
  3  4  1  0
  4  5  1  0
  5  6  2  0
  5 37  1  0
  6  7  1  0
  6 32  1  0
  7  8  1  0
  8  9  1  0
  9 10  1  0
 10 11  2  0
 10 12  1  0
 12 13  2  0
 12 31  1  0
 13 14  1  0
 14 15  2  0
 15 16  1  0
 16 17  1  0
 16 31  2  0
 17 18  1  0
 19 18  1  6
 19 20  1  0
 19 30  1  0
 20 21  1  0
 21 22  1  0
 22 23  1  0
 23 24  2  0
 23 30  1  0
 24 25  1  0
 25 26  2  0
 26 27  1  0
 26 29  1  0
 27 28  1  0
 29 30  2  0
 32 33  2  0
 33 34  1  0
 34 35  1  0
 34 37  2  0
 35 36  1  0
 37 38  1  0
 38 39  1  0
M  CHG  1  18   1
M  END
