
     RDKit          3D

 39 40  0  0  0  0  0  0  0  0999 V2000
   -5.3430   -0.4540    2.9850 C   0  0  0  0  0  0  0  0  0  0  0  0
   -4.3010    0.4370    2.9930 O   0  0  0  0  0  0  0  0  0  0  0  0
   -4.0280    0.9300    1.7510 C   0  0  0  0  0  0  0  0  0  0  0  0
   -3.3130    0.0180    0.8490 C   0  0  0  0  0  0  0  0  0  0  0  0
   -2.9530   -1.1820    1.2860 C   0  0  0  0  0  0  0  0  0  0  0  0
   -2.2220   -2.1780    0.4390 C   0  0  2  0  0  0  0  0  0  0  0  0
   -3.1830   -3.3150    0.1690 C   0  0  0  0  0  0  0  0  0  0  0  0
   -4.3820   -2.7930   -0.5780 C   0  0  0  0  0  0  0  0  0  0  0  0
   -4.0300   -2.2340   -1.8090 O   0  0  0  0  0  0  0  0  0  0  0  0
   -1.0720   -2.5870    1.1780 N   0  0  0  0  0  0  0  0  0  0  0  0
    0.2660   -2.5160    0.6400 C   0  0  0  0  0  0  0  0  0  0  0  0
    0.4430   -2.0760   -0.5250 O   0  0  0  0  0  0  0  0  0  0  0  0
    1.3820   -2.9310    1.3940 N   0  0  0  0  0  0  0  0  0  0  0  0
    2.7210   -2.9090    0.9630 C   0  0  0  0  0  0  0  0  0  0  0  0
    3.6450   -3.7130    1.6640 C   0  0  0  0  0  0  0  0  0  0  0  0
    4.9680   -3.7610    1.3070 C   0  0  0  0  0  0  0  0  0  0  0  0
    5.8980   -4.5600    2.0000 O   0  0  0  0  0  0  0  0  0  0  0  0
    5.4600   -3.0300    0.2530 C   0  0  0  0  0  0  0  0  0  0  0  0
    6.7970   -3.0640   -0.1250 O   0  0  0  0  0  0  0  0  0  0  0  0
    7.6340   -2.0990    0.5220 C   0  0  0  0  0  0  0  0  0  0  0  0
    4.5720   -2.2200   -0.4650 C   0  0  0  0  0  0  0  0  0  0  0  0
    5.0690   -1.4880   -1.5210 O   0  0  0  0  0  0  0  0  0  0  0  0
    4.2270   -0.6230   -2.2400 C   0  0  0  0  0  0  0  0  0  0  0  0
    3.7330    0.4890   -1.3930 C   0  0  0  0  0  0  0  0  0  0  0  0
    4.5250    0.8810   -0.3080 C   0  0  0  0  0  0  0  0  0  0  0  0
    4.1510    1.9240    0.5040 C   0  0  0  0  0  0  0  0  0  0  0  0
    2.9910    2.6330    0.2990 C   0  0  0  0  0  0  0  0  0  0  0  0
    2.5840    3.7620    1.1850 C   0  0  0  0  0  0  0  0  0  0  0  0
    2.2030    2.2460   -0.7770 C   0  0  0  0  0  0  0  0  0  0  0  0
    1.0070    2.9890   -0.9980 N   0  0  0  0  0  0  0  0  0  0  0  0
    2.5820    1.1930   -1.5930 C   0  0  0  0  0  0  0  0  0  0  0  0
    3.2280   -2.1900   -0.0790 C   0  0  0  0  0  0  0  0  0  0  0  0
   -2.9850    0.3150   -0.4370 O   0  0  0  0  0  0  0  0  0  0  0  0
   -2.3170    1.3290   -1.0660 C   0  0  0  0  0  0  0  0  0  0  0  0
   -2.9220    2.7060   -0.9190 C   0  0  0  0  0  0  0  0  0  0  0  0
   -4.2050    2.7460   -1.4250 O   0  0  0  0  0  0  0  0  0  0  0  0
   -4.7870    3.9590   -1.2260 C   0  0  0  0  0  0  0  0  0  0  0  0
   -4.0530    5.1040   -1.8620 C   0  0  0  0  0  0  0  0  0  0  0  0
   -3.9850    4.8940   -3.2300 O   0  0  0  0  0  0  0  0  0  0  0  0
  1  2  1  0
  2  3  1  0
  3  4  1  0
  4  5  2  3
  4 33  1  0
  5  6  1  0
  6  7  1  1
  6 10  1  0
  7  8  1  0
  8  9  1  0
 10 11  1  0
 11 12  2  0
 11 13  1  0
 13 14  1  0
 14 15  2  0
 14 32  1  0
 15 16  1  0
 16 17  1  0
 16 18  2  0
 18 19  1  0
 18 21  1  0
 19 20  1  0
 21 22  1  0
 21 32  2  0
 22 23  1  0
 23 24  1  0
 24 25  2  0
 24 31  1  0
 25 26  1  0
 26 27  2  0
 27 28  1  0
 27 29  1  0
 29 30  1  0
 29 31  2  0
 33 34  1  0
 34 35  1  0
 35 36  1  0
 36 37  1  0
 37 38  1  0
 38 39  1  0
M  END
