
     RDKit          3D

 39 40  0  0  0  0  0  0  0  0999 V2000
  -10.2750   -1.8250   -2.3250 C   0  0  0  0  0  0  0  0  0  0  0  0
  -10.0050   -0.6780   -1.6120 O   0  0  0  0  0  0  0  0  0  0  0  0
   -8.8170   -0.3960   -0.9860 C   0  0  0  0  0  0  0  0  0  0  0  0
   -7.7420   -1.3220   -1.0690 C   0  0  0  0  0  0  0  0  0  0  0  0
   -6.5800   -1.0110   -0.4360 C   0  0  0  0  0  0  0  0  0  0  0  0
   -6.4450    0.1850    0.2700 C   0  0  0  0  0  0  0  0  0  0  0  0
   -5.1580    0.4150    0.9950 C   0  0  0  0  0  0  0  0  0  0  0  0
   -5.4040   -0.0060    2.4460 C   0  0  0  0  0  0  0  0  0  0  0  0
   -4.1090    0.1240    3.2690 C   0  0  0  0  0  0  0  0  0  0  0  0
   -3.1950   -0.7260    2.7020 O   0  0  0  0  0  0  0  0  0  0  0  0
   -1.9660   -0.8460    3.2320 C   0  0  0  0  0  0  0  0  0  0  0  0
   -1.1120    0.3630    3.3060 C   0  0  1  0  0  0  0  0  0  0  0  0
    0.1820    0.0550    3.7890 O   0  0  0  0  0  0  0  0  0  0  0  0
   -1.0350    1.2150    2.1050 C   0  0  0  0  0  0  0  0  0  0  0  0
   -0.5430    0.5120    0.9040 C   0  0  0  0  0  0  0  0  0  0  0  0
   -1.2420    0.3730   -0.1240 O   0  0  0  0  0  0  0  0  0  0  0  0
    0.7720   -0.0360    0.8660 O   0  0  0  0  0  0  0  0  0  0  0  0
    1.0960   -0.6540   -0.3890 C   0  0  0  0  0  0  0  0  0  0  0  0
    2.5180   -1.0310   -0.2630 C   0  0  0  0  0  0  0  0  0  0  0  0
    2.9910   -1.9070    0.6120 C   0  0  0  0  0  0  0  0  0  0  0  0
    4.3150   -2.2510    0.7470 C   0  0  0  0  0  0  0  0  0  0  0  0
    4.7790   -3.2000    1.7170 N   0  0  0  0  0  0  0  0  0  0  0  0
    5.2340   -1.6220   -0.1140 C   0  0  0  0  0  0  0  0  0  0  0  0
    6.6360   -2.0230    0.0610 C   0  0  0  0  0  0  0  0  0  0  0  0
    4.8210   -0.7200   -1.0290 C   0  0  0  0  0  0  0  0  0  0  0  0
    5.6770    0.0150   -1.9400 C   0  0  0  0  0  0  0  0  0  0  0  0
    5.1910    0.4970   -2.9970 O   0  0  0  0  0  0  0  0  0  0  0  0
    7.0510    0.2600   -1.7520 O   0  0  0  0  0  0  0  0  0  0  0  0
    7.6460    1.0700   -2.8860 C   0  0  2  0  0  0  0  0  0  0  0  0
    8.7960    0.2620   -3.3420 C   0  0  0  0  0  0  0  0  0  0  0  0
    9.7240   -0.4150   -3.7130 N   0  0  0  0  0  0  0  0  0  0  0  0
    8.0780    2.3530   -2.2130 C   0  0  0  0  0  0  0  0  0  0  0  0
    8.7660    3.3250   -3.0310 C   0  0  0  0  0  0  0  0  0  0  0  0
    9.3120    3.1600   -4.2860 N   0  0  0  0  0  0  0  0  0  0  0  0
    8.8740    4.5370   -2.4850 O   0  0  0  0  0  0  0  0  0  0  0  0
    3.4500   -0.4000   -1.1240 C   0  0  0  0  0  0  0  0  0  0  0  0
   -7.4620    1.0720    0.3470 C   0  0  0  0  0  0  0  0  0  0  0  0
   -7.4220    2.2780    1.0090 O   0  0  0  0  0  0  0  0  0  0  0  0
   -8.6590    0.7480   -0.3010 C   0  0  0  0  0  0  0  0  0  0  0  0
  1  2  1  0
  2  3  1  0
  3  4  2  0
  3 39  1  0
  4  5  1  0
  5  6  2  0
  6  7  1  0
  6 37  1  0
  7  8  1  0
  8  9  1  0
  9 10  1  0
 10 11  1  0
 11 12  1  0
 12 13  1  6
 12 14  1  0
 14 15  1  0
 15 16  2  0
 15 17  1  0
 17 18  1  0
 18 19  1  0
 19 20  2  0
 19 36  1  0
 20 21  1  0
 21 22  1  0
 21 23  2  0
 23 24  1  0
 23 25  1  0
 25 26  1  0
 25 36  2  0
 26 27  2  0
 26 28  1  0
 28 29  1  0
 29 30  1  1
 29 32  1  0
 30 31  3  0
 32 33  1  0
 33 34  1  0
 33 35  2  0
 37 38  1  0
 37 39  2  0
M  END
