
     RDKit          3D

 39 40  0  0  0  0  0  0  0  0999 V2000
    4.1690   -3.6360    3.4300 C   0  0  0  0  0  0  0  0  0  0  0  0
    3.6830   -2.6200    2.4620 C   0  0  0  0  0  0  0  0  0  0  0  0
    4.6090   -1.7570    1.8480 C   0  0  0  0  0  0  0  0  0  0  0  0
    4.2410   -0.7930    0.9430 C   0  0  0  0  0  0  0  0  0  0  0  0
    5.1310    0.1140    0.3230 N   0  0  0  0  0  0  0  0  0  0  0  0
    6.4500    0.3350    0.7080 C   0  0  0  0  0  0  0  0  0  0  0  0
    6.9860   -0.2610    1.6680 O   0  0  0  0  0  0  0  0  0  0  0  0
    7.2590    1.3380   -0.0690 C   0  0  1  0  0  0  0  0  0  0  0  0
    6.5250    2.6670   -0.1330 C   0  0  0  0  0  0  0  0  0  0  0  0
    8.5370    1.4700    0.4110 O   0  0  0  0  0  0  0  0  0  0  0  0
    9.5110    1.0970   -0.5110 C   0  0  0  0  0  0  0  0  0  0  0  0
   10.8990    1.2420    0.0240 C   0  0  0  0  0  0  0  0  0  0  0  0
   11.8020    0.8560   -0.9440 O   0  0  0  0  0  0  0  0  0  0  0  0
    2.8670   -0.7290    0.6730 C   0  0  0  0  0  0  0  0  0  0  0  0
    1.9240   -1.5280    1.2280 C   0  0  0  0  0  0  0  0  0  0  0  0
    0.4950   -1.4630    0.9460 C   0  0  0  0  0  0  0  0  0  0  0  0
   -0.3080   -1.9100    1.7950 O   0  0  0  0  0  0  0  0  0  0  0  0
    0.0390   -0.9060   -0.2630 N   0  0  0  0  0  0  0  0  0  0  0  0
   -1.3120   -0.7660   -0.6570 C   0  0  0  0  0  0  0  0  0  0  0  0
   -1.6040   -0.6250   -2.0250 C   0  0  0  0  0  0  0  0  0  0  0  0
   -2.8960   -0.4590   -2.4290 C   0  0  0  0  0  0  0  0  0  0  0  0
   -3.9650   -0.4180   -1.5500 C   0  0  0  0  0  0  0  0  0  0  0  0
   -5.1970   -0.2500   -2.0460 O   0  0  0  0  0  0  0  0  0  0  0  0
   -6.4570   -0.1430   -1.5180 C   0  0  2  0  0  0  0  0  0  0  0  0
   -7.3110   -1.3090   -2.0510 C   0  0  0  0  0  0  0  0  0  0  0  0
   -6.6420   -2.5870   -1.6030 C   0  0  0  0  0  0  0  0  0  0  0  0
   -5.3450   -2.7250   -2.0880 O   0  0  0  0  0  0  0  0  0  0  0  0
   -7.1440    1.1780   -1.9430 C   0  0  0  0  0  0  0  0  0  0  0  0
   -6.2970    2.3400   -1.4510 C   0  0  0  0  0  0  0  0  0  0  0  0
   -6.8930    3.6290   -1.8280 C   0  0  0  0  0  0  0  0  0  0  0  0
   -6.3050    4.8670   -1.5070 N   0  0  0  0  0  0  0  0  0  0  0  0
   -7.9790    3.6270   -2.4660 O   0  0  0  0  0  0  0  0  0  0  0  0
   -3.7000   -0.5550   -0.1860 C   0  0  0  0  0  0  0  0  0  0  0  0
   -4.6980   -0.5180    0.7440 O   0  0  0  0  0  0  0  0  0  0  0  0
   -4.5260   -0.5630    2.1100 C   0  0  0  0  0  0  0  0  0  0  0  0
   -3.8520    0.6890    2.6090 C   0  0  0  0  0  0  0  0  0  0  0  0
   -3.7090    0.5520    3.9940 O   0  0  0  0  0  0  0  0  0  0  0  0
   -2.3580   -0.7270    0.1960 C   0  0  0  0  0  0  0  0  0  0  0  0
    2.3530   -2.4820    2.1340 C   0  0  0  0  0  0  0  0  0  0  0  0
  1  2  1  0
  2  3  2  0
  2 39  1  0
  3  4  1  0
  4  5  1  0
  4 14  2  0
  5  6  1  0
  6  7  2  0
  6  8  1  0
  8  9  1  1
  8 10  1  0
 10 11  1  0
 11 12  1  0
 12 13  1  0
 14 15  1  0
 15 16  1  0
 15 39  2  0
 16 17  2  0
 16 18  1  0
 18 19  1  0
 19 20  2  0
 19 38  1  0
 20 21  1  0
 21 22  2  0
 22 23  1  0
 22 33  1  0
 23 24  1  0
 24 25  1  6
 24 28  1  0
 25 26  1  0
 26 27  1  0
 28 29  1  0
 29 30  1  0
 30 31  1  0
 30 32  2  0
 33 34  1  0
 33 38  2  0
 34 35  1  0
 35 36  1  0
 36 37  1  0
M  END
