
     RDKit          3D

 39 40  0  0  0  0  0  0  0  0999 V2000
   -8.4730   -0.2280    0.2430 C   0  0  0  0  0  0  0  0  0  0  0  0
   -7.5280    0.6020    1.0410 C   0  0  0  0  0  0  0  0  0  0  0  0
   -6.0950    0.1440    0.7080 C   0  0  2  0  0  0  0  0  0  0  0  0
   -5.7610    0.3010   -0.6350 O   0  0  0  0  0  0  0  0  0  0  0  0
   -4.8740    1.2540   -1.1470 C   0  0  0  0  0  0  0  0  0  0  0  0
   -3.4980    0.9920   -1.1840 C   0  0  0  0  0  0  0  0  0  0  0  0
   -3.0090   -0.1830   -0.7310 O   0  0  0  0  0  0  0  0  0  0  0  0
   -1.7870   -0.7520   -0.5890 C   0  0  0  0  0  0  0  0  0  0  0  0
   -0.8050   -0.1160    0.3430 C   0  0  0  0  0  0  0  0  0  0  0  0
    0.4480   -0.8660    0.3560 N   0  0  0  0  0  0  0  0  0  0  0  0
    0.7220   -1.8820    1.1870 C   0  0  0  0  0  0  0  0  0  0  0  0
   -0.1750   -2.4540    2.2540 C   0  0  0  0  0  0  0  0  0  0  0  0
    1.9960   -2.3010    0.8650 C   0  0  0  0  0  0  0  0  0  0  0  0
    2.4970   -1.5340   -0.1660 C   0  0  0  0  0  0  0  0  0  0  0  0
    3.8150   -1.6770   -0.7810 C   0  0  0  0  0  0  0  0  0  0  0  0
    4.1090   -0.8880   -1.7150 O   0  0  0  0  0  0  0  0  0  0  0  0
    4.7340   -2.6140   -0.3980 O   0  0  0  0  0  0  0  0  0  0  0  0
    5.9970   -2.8100   -0.9220 C   0  0  0  0  0  0  0  0  0  0  0  0
    6.9470   -1.6830   -0.7680 C   0  0  0  0  0  0  0  0  0  0  0  0
    8.0580   -1.8440   -1.3280 O   0  0  0  0  0  0  0  0  0  0  0  0
    6.6980   -0.4920   -0.0630 N   0  0  0  0  0  0  0  0  0  0  0  0
    7.6140    0.6020    0.0960 C   0  0  0  0  0  0  0  0  0  0  0  0
    8.8380    0.2140    0.8410 C   0  0  2  0  0  0  0  0  0  0  0  0
    8.4720   -0.2090    2.2600 C   0  0  0  0  0  0  0  0  0  0  0  0
    9.7020    1.4580    1.0030 C   0  0  0  0  0  0  0  0  0  0  0  0
    9.6230   -0.7640    0.2960 O   0  0  0  0  0  0  0  0  0  0  0  0
    1.5050   -0.6340   -0.4730 C   0  0  0  0  0  0  0  0  0  0  0  0
    1.5970    0.3940   -1.5240 C   0  0  0  0  0  0  0  0  0  0  0  0
   -2.5850    1.9110   -1.6780 C   0  0  0  0  0  0  0  0  0  0  0  0
   -3.0190    3.1140   -2.1470 C   0  0  0  0  0  0  0  0  0  0  0  0
   -2.0590    4.0190   -2.6370 O   0  0  0  0  0  0  0  0  0  0  0  0
   -4.3460    3.3980   -2.1270 C   0  0  0  0  0  0  0  0  0  0  0  0
   -5.2890    2.4700   -1.6280 C   0  0  0  0  0  0  0  0  0  0  0  0
   -6.6760    2.8800   -1.7710 C   0  0  0  0  0  0  0  0  0  0  0  0
   -7.0030    4.2390   -1.9890 N   0  0  0  0  0  0  0  0  0  0  0  0
   -7.5940    2.0650   -1.7060 O   0  0  0  0  0  0  0  0  0  0  0  0
   -6.1120   -1.3220    1.0740 C   0  0  1  0  0  0  0  0  0  0  0  0
   -4.8150   -2.0380    0.9550 C   0  0  0  0  0  0  0  0  0  0  0  0
   -6.5060   -1.4000    2.4450 O   0  0  0  0  0  0  0  0  0  0  0  0
  1  2  1  0
  3  2  1  6
  3  4  1  0
  3 37  1  0
  4  5  1  0
  5  6  2  0
  5 33  1  0
  6  7  1  0
  6 29  1  0
  7  8  1  0
  8  9  1  0
  9 10  1  0
 10 11  1  0
 10 27  1  0
 11 12  1  0
 11 13  2  0
 13 14  1  0
 14 15  1  0
 14 27  2  0
 15 16  2  0
 15 17  1  0
 17 18  1  0
 18 19  1  0
 19 20  2  0
 19 21  1  0
 21 22  1  0
 22 23  1  0
 23 24  1  1
 23 25  1  0
 23 26  1  0
 27 28  1  0
 29 30  2  0
 30 31  1  0
 30 32  1  0
 32 33  2  0
 33 34  1  0
 34 35  1  0
 34 36  2  0
 37 38  1  1
 37 39  1  0
M  END
