
     RDKit          3D

 45 49  0  0  0  0  0  0  0  0999 V2000
   -6.4490   -3.2000    0.1190 C   0  0  0  0  0  0  0  0  0  0  0  0
   -5.1870   -3.7150    0.7610 C   0  0  2  0  0  0  0  0  0  0  0  0
   -4.4560   -4.6180   -0.2010 C   0  0  0  0  0  0  0  0  0  0  0  0
   -5.6110   -4.5290    1.9800 C   0  0  0  0  0  0  0  0  0  0  0  0
   -4.3170   -2.6420    1.2120 N   0  0  0  0  0  0  0  0  0  0  0  0
   -3.8180   -1.7010    0.2700 C   0  0  0  0  0  0  0  0  0  0  0  0
   -4.1610   -1.8480   -0.9320 O   0  0  0  0  0  0  0  0  0  0  0  0
   -2.9120   -0.5720    0.6940 C   0  0  2  0  0  0  0  0  0  0  0  0
   -3.4170    0.1610    1.8750 C   0  0  0  0  0  0  0  0  0  0  0  0
   -4.0970    1.4000    1.6050 N   0  0  2  0  0  0  0  0  0  0  0  0
   -5.5350    1.2360    1.5280 C   0  0  0  0  0  0  0  0  0  0  0  0
   -6.1390    2.5540    1.2160 C   0  0  0  0  0  0  0  0  0  0  0  0
   -6.5250    2.9060   -0.0740 C   0  0  0  0  0  0  0  0  0  0  0  0
   -7.0880    4.1460   -0.3440 C   0  0  0  0  0  0  0  0  0  0  0  0
   -7.2760    5.0580    0.6570 C   0  0  0  0  0  0  0  0  0  0  0  0
   -6.9020    4.7200    1.9140 N   0  0  0  0  0  0  0  0  0  0  0  0
   -6.3520    3.5130    2.1920 C   0  0  0  0  0  0  0  0  0  0  0  0
   -3.5620    2.1300    0.5040 C   0  0  0  0  0  0  0  0  0  0  0  0
   -3.5680    1.2380   -0.7140 C   0  0  0  0  0  0  0  0  0  0  0  0
   -2.5670    0.2140   -0.4510 N   0  0  1  0  0  0  0  0  0  0  0  0
   -1.2920    0.8500   -0.3920 C   0  0  0  0  0  0  0  0  0  0  0  0
   -0.1730   -0.0780   -0.9250 C   0  0  1  0  0  0  0  0  0  0  0  0
   -0.4280   -0.4140   -2.2300 O   0  0  0  0  0  0  0  0  0  0  0  0
    1.0910    0.6240   -0.6360 C   0  0  0  0  0  0  0  0  0  0  0  0
    2.3780   -0.0150   -1.0190 C   0  0  1  0  0  0  0  0  0  0  0  0
    2.5330   -0.2820   -2.4720 C   0  0  0  0  0  0  0  0  0  0  0  0
    3.7870   -0.8910   -2.9110 C   0  0  0  0  0  0  0  0  0  0  0  0
    3.9950   -2.2360   -2.9340 C   0  0  0  0  0  0  0  0  0  0  0  0
    5.1840   -2.7780   -3.3760 C   0  0  0  0  0  0  0  0  0  0  0  0
    6.2080   -1.9810   -3.8120 C   0  0  0  0  0  0  0  0  0  0  0  0
    6.0200   -0.6150   -3.7980 C   0  0  0  0  0  0  0  0  0  0  0  0
    4.8120   -0.0690   -3.3490 C   0  0  0  0  0  0  0  0  0  0  0  0
    3.4620    0.8400   -0.4650 C   0  0  0  0  0  0  0  0  0  0  0  0
    3.2210    2.0430   -0.0870 O   0  0  0  0  0  0  0  0  0  0  0  0
    4.8080    0.4490   -0.3000 N   0  0  0  0  0  0  0  0  0  0  0  0
    5.8220    1.3210    0.2350 C   0  0  1  0  0  0  0  0  0  0  0  0
    6.5100    0.7890    1.4060 C   0  0  0  0  0  0  0  0  0  0  0  0
    6.1650   -0.0930    2.4330 C   0  0  0  0  0  0  0  0  0  0  0  0
    7.0750   -0.3940    3.4230 C   0  0  0  0  0  0  0  0  0  0  0  0
    8.3330    0.1740    3.4030 C   0  0  0  0  0  0  0  0  0  0  0  0
    8.7020    1.0440    2.4070 C   0  0  0  0  0  0  0  0  0  0  0  0
    7.7770    1.3290    1.4300 C   0  0  0  0  0  0  0  0  0  0  0  0
    7.9460    2.2410    0.2400 C   0  0  0  0  0  0  0  0  0  0  0  0
    6.9530    1.5820   -0.7340 C   0  0  1  0  0  0  0  0  0  0  0  0
    7.5750    0.3950   -1.1320 O   0  0  0  0  0  0  0  0  0  0  0  0
  2  1  1  6
  2  3  1  0
  2  4  1  0
  2  5  1  0
  5  6  1  0
  6  7  2  0
  8  6  1  6
  8  9  1  0
  8 20  1  0
  9 10  1  0
 10 11  1  6
 10 18  1  0
 11 12  1  0
 12 13  2  0
 12 17  1  0
 13 14  1  0
 14 15  2  0
 15 16  1  0
 16 17  2  0
 18 19  1  0
 19 20  1  0
 20 21  1  1
 21 22  1  0
 22 23  1  6
 22 24  1  0
 25 24  1  6
 25 26  1  0
 25 33  1  0
 26 27  1  0
 27 28  2  0
 27 32  1  0
 28 29  1  0
 29 30  2  0
 30 31  1  0
 31 32  2  0
 33 34  2  0
 33 35  1  0
 36 35  1  6
 36 37  1  0
 36 44  1  0
 37 38  2  0
 37 42  1  0
 38 39  1  0
 39 40  2  0
 40 41  1  0
 41 42  2  0
 42 43  1  0
 43 44  1  0
 44 45  1  1
M  CHG  2  10   1  20   1
M  END
