
     RDKit          3D

 39 40  0  0  0  0  0  0  0  0999 V2000
   -8.1650    1.2910    2.3730 C   0  0  0  0  0  0  0  0  0  0  0  0
   -8.4270    0.8470    1.0560 O   0  0  0  0  0  0  0  0  0  0  0  0
   -7.3820    0.8050    0.1390 C   0  0  0  0  0  0  0  0  0  0  0  0
   -6.1130    1.1900    0.5100 C   0  0  0  0  0  0  0  0  0  0  0  0
   -5.0440    1.1680   -0.3580 C   0  0  0  0  0  0  0  0  0  0  0  0
   -3.7600    1.5610    0.0260 O   0  0  0  0  0  0  0  0  0  0  0  0
   -3.4560    2.0070    1.3180 C   0  0  0  0  0  0  0  0  0  0  0  0
   -1.9850    2.3490    1.3690 C   0  0  0  0  0  0  0  0  0  0  0  0
   -1.2170    1.2030    1.0650 O   0  0  0  0  0  0  0  0  0  0  0  0
    0.1540    1.1880    1.0280 C   0  0  0  0  0  0  0  0  0  0  0  0
    0.9070    2.3180    1.2900 C   0  0  0  0  0  0  0  0  0  0  0  0
    2.2840    2.2840    1.2480 C   0  0  0  0  0  0  0  0  0  0  0  0
    3.0350    3.5370    1.5410 C   0  0  0  0  0  0  0  0  0  0  0  0
    2.9790    1.1190    0.9420 C   0  0  0  0  0  0  0  0  0  0  0  0
    4.3790    1.1570    0.9150 N   0  0  0  0  0  0  0  0  0  0  0  0
    5.2700    0.0960    0.6380 C   0  0  0  0  0  0  0  0  0  0  0  0
    4.8310   -1.0350    0.3810 O   0  0  0  0  0  0  0  0  0  0  0  0
    6.6970    0.3310    0.6540 N   0  0  0  0  0  0  0  0  0  0  0  0
    7.5810   -0.8110    0.3590 C   0  0  0  0  0  0  0  0  0  0  0  0
    9.0030   -0.3210    0.4310 C   0  0  1  0  0  0  0  0  0  0  0  0
    9.2140    0.2000    1.7420 O   0  0  0  0  0  0  0  0  0  0  0  0
   10.0510   -1.3140    0.0900 C   0  0  0  0  0  0  0  0  0  0  0  0
    9.9550   -1.8630   -1.2920 C   0  0  1  0  0  0  0  0  0  0  0  0
   11.1250   -2.8570   -1.4880 C   0  0  0  0  0  0  0  0  0  0  0  0
    8.7980   -2.6100   -1.5250 O   0  0  0  0  0  0  0  0  0  0  0  0
    2.2570    0.0020    0.6820 C   0  0  0  0  0  0  0  0  0  0  0  0
    0.8530    0.0490    0.7280 C   0  0  0  0  0  0  0  0  0  0  0  0
    0.1210   -1.1010    0.4590 O   0  0  0  0  0  0  0  0  0  0  0  0
    0.7800   -2.3290    0.1370 C   0  0  0  0  0  0  0  0  0  0  0  0
   -5.2830    0.7370   -1.6450 C   0  0  0  0  0  0  0  0  0  0  0  0
   -4.2220    0.7070   -2.5330 O   0  0  0  0  0  0  0  0  0  0  0  0
   -4.3960    0.2790   -3.8590 C   0  0  0  0  0  0  0  0  0  0  0  0
   -6.5570    0.3480   -2.0260 C   0  0  0  0  0  0  0  0  0  0  0  0
   -7.6320    0.3660   -1.1680 C   0  0  0  0  0  0  0  0  0  0  0  0
   -8.9850   -0.0310   -1.5570 C   0  0  0  0  0  0  0  0  0  0  0  0
   -9.4570   -1.3390   -1.0330 C   0  0  0  0  0  0  0  0  0  0  0  0
   -8.6640   -2.5060   -1.4310 C   0  0  0  0  0  0  0  0  0  0  0  0
   -9.0300   -3.7890   -0.9750 N   0  0  0  0  0  0  0  0  0  0  0  0
   -7.6440   -2.3550   -2.1880 O   0  0  0  0  0  0  0  0  0  0  0  0
  1  2  1  0
  2  3  1  0
  3  4  2  0
  3 34  1  0
  4  5  1  0
  5  6  1  0
  5 30  2  0
  6  7  1  0
  7  8  1  0
  8  9  1  0
  9 10  1  0
 10 11  2  0
 10 27  1  0
 11 12  1  0
 12 13  1  0
 12 14  2  0
 14 15  1  0
 14 26  1  0
 15 16  1  0
 16 17  2  0
 16 18  1  0
 18 19  1  0
 19 20  1  0
 20 21  1  1
 20 22  1  0
 22 23  1  0
 23 24  1  1
 23 25  1  0
 26 27  2  0
 27 28  1  0
 28 29  1  0
 30 31  1  0
 30 33  1  0
 31 32  1  0
 33 34  2  0
 34 35  1  0
 35 36  1  0
 36 37  1  0
 37 38  1  0
 37 39  2  0
M  END
