
     RDKit          3D

 39 40  0  0  0  0  0  0  0  0999 V2000
   -8.9630   -2.5350    0.5750 C   0  0  0  0  0  0  0  0  0  0  0  0
   -8.9550   -1.7420   -0.7070 C   0  0  0  0  0  0  0  0  0  0  0  0
   -7.6400   -1.3330   -0.9860 O   0  0  0  0  0  0  0  0  0  0  0  0
   -6.9580   -0.5380   -0.0790 C   0  0  0  0  0  0  0  0  0  0  0  0
   -7.5310   -0.2040    0.9840 O   0  0  0  0  0  0  0  0  0  0  0  0
   -5.5980   -0.0770   -0.3240 C   0  0  0  0  0  0  0  0  0  0  0  0
   -4.9690   -0.4400   -1.5180 C   0  0  0  0  0  0  0  0  0  0  0  0
   -3.6750    0.0140   -1.7570 C   0  0  0  0  0  0  0  0  0  0  0  0
   -2.9720   -0.3780   -3.0310 C   0  0  2  0  0  0  0  0  0  0  0  0
   -3.9260   -0.3650   -4.0650 O   0  0  0  0  0  0  0  0  0  0  0  0
   -2.3740   -1.7420   -2.9420 C   0  0  0  0  0  0  0  0  0  0  0  0
   -1.3670   -1.8380   -1.9190 N   0  0  0  0  0  0  0  0  0  0  0  0
   -0.1870   -1.0320   -1.9510 C   0  0  0  0  0  0  0  0  0  0  0  0
   -0.0660   -0.2360   -2.8980 O   0  0  0  0  0  0  0  0  0  0  0  0
    0.8320   -1.1040   -0.9720 N   0  0  0  0  0  0  0  0  0  0  0  0
    2.0230   -0.3140   -0.9440 C   0  0  0  0  0  0  0  0  0  0  0  0
    1.7860    1.1510   -0.7580 C   0  0  2  0  0  0  0  0  0  0  0  0
    1.1420    1.3920    0.5960 C   0  0  0  0  0  0  0  0  0  0  0  0
    0.9870    1.7060   -1.7230 O   0  0  0  0  0  0  0  0  0  0  0  0
    3.1250    1.9150   -0.8310 C   0  0  0  0  0  0  0  0  0  0  0  0
    4.0890    1.5600   -0.0410 O   0  0  0  0  0  0  0  0  0  0  0  0
    5.0330    1.2130    0.7400 C   0  0  0  0  0  0  0  0  0  0  0  0
    4.9360    1.2400    2.1170 C   0  0  0  0  0  0  0  0  0  0  0  0
    5.9370    0.8710    2.9790 C   0  0  0  0  0  0  0  0  0  0  0  0
    7.1220    0.4410    2.4450 C   0  0  0  0  0  0  0  0  0  0  0  0
    8.2260    0.0290    3.3180 C   0  0  0  0  0  0  0  0  0  0  0  0
    9.3960   -0.5490    2.7830 N   0  0  0  0  0  0  0  0  0  0  0  0
    8.1190    0.1970    4.5560 O   0  0  0  0  0  0  0  0  0  0  0  0
    7.2750    0.3930    1.0810 C   0  0  0  0  0  0  0  0  0  0  0  0
    6.2780    0.7610    0.2230 C   0  0  0  0  0  0  0  0  0  0  0  0
    6.4460    0.7090   -1.1550 O   0  0  0  0  0  0  0  0  0  0  0  0
    7.6040    0.2910   -1.8200 C   0  0  0  0  0  0  0  0  0  0  0  0
    8.0030   -1.1240   -1.5120 C   0  0  0  0  0  0  0  0  0  0  0  0
   -3.0530    0.7920   -0.8370 C   0  0  0  0  0  0  0  0  0  0  0  0
   -3.6980    1.1470    0.3590 C   0  0  0  0  0  0  0  0  0  0  0  0
   -4.9750    0.7060    0.6060 C   0  0  0  0  0  0  0  0  0  0  0  0
   -5.6060    1.0500    1.7690 O   0  0  0  0  0  0  0  0  0  0  0  0
   -5.0760    1.8360    2.7870 C   0  0  0  0  0  0  0  0  0  0  0  0
   -6.1690    1.9410    3.8580 C   0  0  0  0  0  0  0  0  0  0  0  0
  1  2  1  0
  2  3  1  0
  3  4  1  0
  4  5  2  0
  4  6  1  0
  6  7  2  0
  6 36  1  0
  7  8  1  0
  8  9  1  0
  8 34  2  0
  9 10  1  6
  9 11  1  0
 11 12  1  0
 12 13  1  0
 13 14  2  0
 13 15  1  0
 15 16  1  0
 16 17  1  0
 17 18  1  1
 17 19  1  0
 17 20  1  0
 20 21  1  0
 21 22  1  0
 22 23  2  0
 22 30  1  0
 23 24  1  0
 24 25  2  0
 25 26  1  0
 25 29  1  0
 26 27  1  0
 26 28  2  0
 29 30  2  0
 30 31  1  0
 31 32  1  0
 32 33  1  0
 34 35  1  0
 35 36  2  0
 36 37  1  0
 37 38  1  0
 38 39  1  0
M  END
