
     RDKit          3D

 45 49  0  0  0  0  0  0  0  0999 V2000
   -4.7090    3.7550    2.0490 C   0  0  0  0  0  0  0  0  0  0  0  0
   -5.1660    3.6800    0.6110 C   0  0  2  0  0  0  0  0  0  0  0  0
   -4.5540    4.7940   -0.2330 C   0  0  0  0  0  0  0  0  0  0  0  0
   -6.6610    3.9110    0.6040 C   0  0  0  0  0  0  0  0  0  0  0  0
   -4.9130    2.3830    0.0220 N   0  0  0  0  0  0  0  0  0  0  0  0
   -3.6410    1.8050   -0.1050 C   0  0  0  0  0  0  0  0  0  0  0  0
   -2.6370    2.4300    0.3110 O   0  0  0  0  0  0  0  0  0  0  0  0
   -3.4200    0.4460   -0.7290 C   0  0  2  0  0  0  0  0  0  0  0  0
   -4.3560   -0.5630   -0.1990 C   0  0  0  0  0  0  0  0  0  0  0  0
   -3.8660   -1.5750    0.6610 N   0  0  2  0  0  0  0  0  0  0  0  0
   -4.6480   -1.7270    1.8810 C   0  0  0  0  0  0  0  0  0  0  0  0
   -5.6210   -2.8230    1.7900 C   0  0  0  0  0  0  0  0  0  0  0  0
   -6.9040   -2.6230    1.3360 C   0  0  0  0  0  0  0  0  0  0  0  0
   -7.7810   -3.6870    1.2670 C   0  0  0  0  0  0  0  0  0  0  0  0
   -7.4160   -4.9670    1.6430 C   0  0  0  0  0  0  0  0  0  0  0  0
   -6.1450   -5.1310    2.0860 N   0  0  0  0  0  0  0  0  0  0  0  0
   -5.2680   -4.0990    2.1600 C   0  0  0  0  0  0  0  0  0  0  0  0
   -2.4820   -1.5270    1.0060 C   0  0  0  0  0  0  0  0  0  0  0  0
   -1.7480   -1.2310   -0.2960 C   0  0  0  0  0  0  0  0  0  0  0  0
   -2.0220    0.1190   -0.7330 N   0  0  1  0  0  0  0  0  0  0  0  0
   -1.4230    0.4270   -1.9790 C   0  0  0  0  0  0  0  0  0  0  0  0
   -0.0050   -0.0720   -2.1410 C   0  0  1  0  0  0  0  0  0  0  0  0
    0.3060    0.3830   -3.4610 O   0  0  0  0  0  0  0  0  0  0  0  0
    0.9590    0.5510   -1.2270 C   0  0  0  0  0  0  0  0  0  0  0  0
    2.3670    0.0130   -1.3600 C   0  0  1  0  0  0  0  0  0  0  0  0
    2.9300    0.2040   -2.6950 C   0  0  0  0  0  0  0  0  0  0  0  0
    4.3080   -0.2470   -2.9570 C   0  0  0  0  0  0  0  0  0  0  0  0
    4.6590   -1.5280   -3.2820 C   0  0  0  0  0  0  0  0  0  0  0  0
    5.9670   -1.8690   -3.5540 C   0  0  0  0  0  0  0  0  0  0  0  0
    6.9830   -0.9370   -3.5110 C   0  0  0  0  0  0  0  0  0  0  0  0
    6.6430    0.3590   -3.1840 C   0  0  0  0  0  0  0  0  0  0  0  0
    5.3180    0.6870   -2.9120 C   0  0  0  0  0  0  0  0  0  0  0  0
    3.2120    0.6120   -0.2980 C   0  0  0  0  0  0  0  0  0  0  0  0
    2.7440    1.6100    0.3570 O   0  0  0  0  0  0  0  0  0  0  0  0
    4.4960    0.1930    0.0820 N   0  0  0  0  0  0  0  0  0  0  0  0
    5.2180    0.8290    1.1420 C   0  0  1  0  0  0  0  0  0  0  0  0
    5.6280   -0.2520    2.1100 C   0  0  0  0  0  0  0  0  0  0  0  0
    4.9950   -0.7430    3.2250 C   0  0  0  0  0  0  0  0  0  0  0  0
    5.5440   -1.7680    3.9890 C   0  0  0  0  0  0  0  0  0  0  0  0
    6.7600   -2.2750    3.5780 C   0  0  0  0  0  0  0  0  0  0  0  0
    7.3960   -1.7730    2.4470 C   0  0  0  0  0  0  0  0  0  0  0  0
    6.8400   -0.7570    1.6990 C   0  0  0  0  0  0  0  0  0  0  0  0
    7.2820   -0.0150    0.4600 C   0  0  0  0  0  0  0  0  0  0  0  0
    6.5660    1.3110    0.6880 C   0  0  1  0  0  0  0  0  0  0  0  0
    6.5650    2.1430   -0.3970 O   0  0  0  0  0  0  0  0  0  0  0  0
  2  1  1  1
  2  3  1  0
  2  4  1  0
  2  5  1  0
  5  6  1  0
  6  7  2  0
  8  6  1  1
  8  9  1  0
  8 20  1  0
  9 10  1  0
 10 11  1  1
 10 18  1  0
 11 12  1  0
 12 13  2  0
 12 17  1  0
 13 14  1  0
 14 15  2  0
 15 16  1  0
 16 17  2  0
 18 19  1  0
 19 20  1  0
 20 21  1  6
 21 22  1  0
 22 23  1  6
 22 24  1  0
 25 24  1  6
 25 26  1  0
 25 33  1  0
 26 27  1  0
 27 28  2  0
 27 32  1  0
 28 29  1  0
 29 30  2  0
 30 31  1  0
 31 32  2  0
 33 34  2  0
 33 35  1  0
 36 35  1  6
 36 37  1  0
 36 44  1  0
 37 38  2  0
 37 42  1  0
 38 39  1  0
 39 40  2  0
 40 41  1  0
 41 42  2  0
 42 43  1  0
 43 44  1  0
 44 45  1  6
M  CHG  2  10   1  20   1
M  END
